data_PCOD9500877
_publ_section_title
;
Structure prediction by ZEFSAII (Michael W. Deem and Ramdas Pophale) SiO2 
 PCOD9500877
Probable space group: C M M A
;
_chemical_formula_sum "Si O2"
_cell_formula_units_Z 112
_cell_length_a 15.136613
_cell_length_b 29.116379
_cell_length_c 11.351027
_cell_angle_alpha 90.000000
_cell_angle_beta 90.000000
_cell_angle_gamma 90.000000
_cell_volume 5002.662769
_symmetry_space_group_name_H-M "C M M A"
_symmetry_group_IT_number 67
_symmetry_cell_setting 'orthorhombic'
loop_
_space_group_symop_operation_xyz
x,y,z
-x,1/2-y,z
x,-y,-z
-x,1/2+y,-z
-x,-y,-z
x,1/2+y,-z
-x,y,z
x,1/2-y,z
1/2+x,1/2+y,z
1/2-x,-y,z
1/2+x,1/2-y,-z
1/2-x,y,-z
1/2-x,1/2-y,-z
1/2+x,y,-z
1/2-x,1/2+y,z
1/2+x,-y,z
loop_
_atom_site_type_symbol
_atom_site_label
_atom_site_fract_x
_atom_site_fract_y
_atom_site_fract_z
Si Si1 0.841974 0.200046 0.069439
Si Si2 0.348676 0.107229 0.541412
Si Si3 0.355183 0.487396 0.632115
Si Si4 0.152592 0.978085 0.118071
Si Si5 0.792263 0.300492 0.342452
Si Si6 0.902590 0.380662 0.916937
Si Si7 0.596477 0.336383 0.338154
O O1 0.885979 0.250000 0.046359
O O2 0.816902 0.197913 0.205572
O O3 0.750000 0.200187 0.000000
O O4 0.889926 0.154877 0.022848
O O5 0.250000 0.094330 0.500000
O O6 0.373953 0.067262 0.631017
O O7 0.342410 0.156878 0.600955
O O8 0.399690 0.118085 0.420787
O O9 0.388389 0.500000 0.500000
O O10 0.250000 0.500000 0.629968
O O11 0.388581 0.510817 0.752947
O O12 0.161324 0.923721 0.096341
O O13 0.250000 0.000000 0.124541
O O14 0.110539 0.000000 0.000000
O O15 0.816578 0.250000 0.387292
O O16 0.687054 0.308651 0.359995
O O17 0.897601 0.351352 0.797391
O O18 0.000000 0.401657 0.923902
O O19 0.500000 0.314237 0.357913
#
# Coordination Sequence:
#
# PCOD9500877 Si02
#       7
#    16  16  16  16  16  16  16
#     4  10  21  38  65  94 123 163 216 266 315 390
#     4  10  20  35  61  88 121 162 208 261 309 378
#     4  10  18  32  57  90 117 155 209 265 306 365
#     4  10  24  36  60  93 122 165 214 265 314 386
#     4  10  22  38  62  94 123 158 212 266 314 378
#     4  11  24  41  63  91 131 166 205 268 330 383
#     4  10  22  38  59  89 127 162 201 256 324 384
#
# _framework density 22.388076000000002
#
# number of rings (size 3 to 8) (size 9 to 14) (size 15 to 20)
#    0.000    1.857    2.857    0.857   10.000    3.429 
#    0.000    2.857    0.000    3.429    0.000    0.000 
#    0.000    0.000    0.000    0.000    0.000    0.000 
#
# Total GULP energy -312298.356433 kJ/mol
# GULP energy per Si atom -5576.756365 kJ/mol
# Density = 2.233712 g / cm^3
# Si number density = 22.388076 Si / 1000 Ang^3
#
#
#
# Elastic Constant Matrix: (Units=GPa)
#
#
# Indices 1 2 3 4 5 6 
#
# 1 45.8577 10.0962 -2.5224 0.0000 0.0000 0.0000
# 2 10.0962 146.4396 45.5245 0.0000 0.0000 0.0000
# 3 -2.5224 45.5245 151.1170 0.0000 0.0000 0.0000
# 4 0.0000 0.0000 0.0000 26.9803 0.0000 0.0000
# 5 0.0000 0.0000 0.0000 0.0000 -13.8709 0.0000
# 6 0.0000 0.0000 0.0000 0.0000 0.0000 -10.3462
#
#
#
# Elastic Compliance Matrix: (Units=1/GPa)
#
#
# Indices 1 2 3 4 5 6 
#
# 1 0.022258 -0.001821 0.000920 0.000000 0.000000 0.000000
# 2 -0.001821 0.007683 -0.002345 0.000000 0.000000 0.000000
# 3 0.000920 -0.002345 0.007339 0.000000 0.000000 0.000000
# 4 0.000000 0.000000 0.000000 0.037064 0.000000 0.000000
# 5 0.000000 0.000000 0.000000 0.000000 -0.072093 0.000000
# 6 0.000000 0.000000 0.000000 0.000000 0.000000 -0.096654
#
#
# Mechanical properties :
#
#
# Convention : Reuss Voigt Hill
#
# Bulk Modulus (GPa) = 32.47883 49.95675 41.21779
# Shear Modulus (GPa) = -64.39316 19.90703 -22.24307
#
# Velocity S-wave (km/s) = -5.36886 2.98515 -3.15544
# Velocity P-wave (km/s) = 4.88817 5.85183 2.27483
#
# Compressibility (1/GPa) = 0.03078928
#
# Stress axis : x y z
#
# Youngs Moduli (GPa) = 44.92768 130.15283 136.25498
#
# Poissons Ratio (x) = 0.23695 -0.12535
# Poissons Ratio (y) = 0.08179 0.31952
# Poissons Ratio (z) = -0.04133 0.30521
#
# Static dielectric constant tensor:
#      x y z
#    x 1.891080 0.000000 0.000000 
#    y 0.000000 1.856180 0.000000 
#    z 0.000000 0.000000 1.861400 
# 
# From -- ./inp_files/18590.got.cif
#   From: 2010.05.17/outbox.cif.g08.bks.cpg/sg67_10_cif.got.tgz:18590.got - 2010.06.03 18:28:57.
