data_PCOD9500263
_publ_section_title
;
Structure prediction by ZEFSAII (Michael W. Deem and Ramdas Pophale) SiO2 
 PCOD9500263
Probable space group: C M M A
;
_chemical_formula_sum "Si O2"
_cell_formula_units_Z 96
_cell_length_a 27.922807
_cell_length_b 8.660794
_cell_length_c 24.793087
_cell_angle_alpha 90.000000
_cell_angle_beta 90.000000
_cell_angle_gamma 90.000000
_cell_volume 5995.803451
_symmetry_space_group_name_H-M "C M M A"
_symmetry_group_IT_number 67
_symmetry_cell_setting 'orthorhombic'
loop_
_space_group_symop_operation_xyz
x,y,z
-x,1/2-y,z
x,-y,-z
-x,1/2+y,-z
-x,-y,-z
x,1/2+y,-z
-x,y,z
x,1/2-y,z
1/2+x,1/2+y,z
1/2-x,-y,z
1/2+x,1/2-y,-z
1/2-x,y,-z
1/2-x,1/2-y,-z
1/2+x,y,-z
1/2-x,1/2+y,z
1/2+x,-y,z
loop_
_atom_site_type_symbol
_atom_site_label
_atom_site_fract_x
_atom_site_fract_y
_atom_site_fract_z
Si Si1 0.304451 0.434541 0.555396
Si Si2 0.946711 0.063664 0.835599
Si Si3 0.600097 0.934901 0.058496
Si Si4 0.349170 0.436199 0.219180
Si Si5 0.301148 0.565637 0.113712
Si Si6 0.696037 0.564230 0.667370
O O1 0.326516 0.500000 0.500000
O O2 0.303161 0.250000 0.553937
O O3 0.250000 0.500000 0.556221
O O4 0.325048 0.494915 0.611970
O O5 0.946005 0.250000 0.837993
O O6 0.903182 0.015815 0.796528
O O7 0.000000 0.014350 0.819178
O O8 0.933776 0.999603 0.894562
O O9 0.597673 0.750000 0.058175
O O10 0.654335 0.981603 0.075753
O O11 0.588347 0.000000 0.000000
O O12 0.346129 0.250000 0.215141
O O13 0.314720 0.506124 0.173481
O O14 0.333234 0.479139 0.279173
O O15 0.298923 0.750000 0.114498
O O16 0.250000 0.500000 0.096746
O O17 0.698099 0.750000 0.662793
O O18 0.750000 0.500000 0.673758
#
# Coordination Sequence:
#
# PCOD9500263 Si02
#       6
#    16  16  16  16  16  16
#     4  10  17  26  39  56  82 117 155 189 220 252
#     4   9  18  34  54  72  90 114 143 178 223 270
#     4  10  21  35  50  69  91 115 145 180 218 262
#     4   9  18  31  47  67  91 117 147 184 221 262
#     4  10  20  32  47  66  89 118 149 181 217 259
#     4  10  18  27  40  61  89 120 153 184 215 252
#
# _framework density 16.011199999999999
#
# number of rings (size 3 to 8) (size 9 to 14) (size 15 to 20)
#    0.000    2.333    0.000    5.000    0.000    5.667 
#    0.000    1.667    0.000    0.000    0.000    0.000 
#    0.000    0.667    0.000    1.167    0.000    2.000 
#
# Total GULP energy -267671.770849 kJ/mol
# GULP energy per Si atom -5576.495226 kJ/mol
# Density = 1.597476 g / cm^3
# Si number density = 16.011200 Si / 1000 Ang^3
#
#
#
# Elastic Constant Matrix: (Units=GPa)
#
#
# Indices 1 2 3 4 5 6 
#
# 1 61.7190 11.9064 18.6882 0.0000 0.0000 0.0000
# 2 11.9064 45.0418 26.5784 0.0000 0.0000 0.0000
# 3 18.6882 26.5784 112.4987 0.0000 0.0000 0.0000
# 4 0.0000 0.0000 0.0000 55.9824 0.0000 0.0000
# 5 0.0000 0.0000 0.0000 0.0000 9.3802 0.0000
# 6 0.0000 0.0000 0.0000 0.0000 0.0000 11.5739
#
#
#
# Elastic Compliance Matrix: (Units=1/GPa)
#
#
# Indices 1 2 3 4 5 6 
#
# 1 0.017493 -0.003381 -0.002107 0.000000 0.000000 0.000000
# 2 -0.003381 0.026451 -0.005688 0.000000 0.000000 0.000000
# 3 -0.002107 -0.005688 0.010583 0.000000 0.000000 0.000000
# 4 0.000000 0.000000 0.000000 0.017863 0.000000 0.000000
# 5 0.000000 0.000000 0.000000 0.000000 0.106607 0.000000
# 6 0.000000 0.000000 0.000000 0.000000 0.000000 0.086401
#
#
# Mechanical properties :
#
#
# Convention : Reuss Voigt Hill
#
# Bulk Modulus (GPa) = 31.07914 37.06726 34.07320
# Shear Modulus (GPa) = 16.75188 26.19309 21.47248
#
# Velocity S-wave (km/s) = 3.23810 4.04904 3.66606
# Velocity P-wave (km/s) = 5.78216 6.71273 6.26475
#
# Compressibility (1/GPa) = 0.03217593
#
# Stress axis : x y z
#
# Youngs Moduli (GPa) = 57.16677 37.80507 94.49306
#
# Poissons Ratio (x) = 0.12780 0.19911
# Poissons Ratio (y) = 0.19326 0.53745
# Poissons Ratio (z) = 0.12046 0.21502
#
# Static dielectric constant tensor:
#      x y z
#    x 1.533270 0.000000 0.000000 
#    y 0.000000 1.535540 0.000000 
#    z 0.000000 0.000000 1.552690 
# 
# From -- ./inp_files/40939.got.cif
#   From: 2010.05.17/outbox.cif.g08.bks.cpg/sg67_21_cif.got.tgz:40939.got - 2010.06.03 18:28:57.
