data_PCOD9500128
_publ_section_title
;
Structure prediction by ZEFSAII (Michael W. Deem and Ramdas Pophale) SiO2 
 PCOD9500128
Probable space group: C C C M
;
_chemical_formula_sum "Si O2"
_cell_formula_units_Z 48
_cell_length_a 24.000000
_cell_length_b 12.000000
_cell_length_c 18.000000
_cell_angle_alpha 90.000000
_cell_angle_beta 90.000000
_cell_angle_gamma 90.000000
_cell_volume 5184.000000
_symmetry_space_group_name_H-M "C C C M"
_symmetry_group_IT_number 66
_symmetry_cell_setting 'orthorhombic'
loop_
_space_group_symop_operation_xyz
x,y,z
-x,-y,z
x,-y,1/2-z
-x,y,1/2-z
-x,-y,-z
x,y,-z
-x,y,1/2+z
x,-y,1/2+z
1/2+x,1/2+y,z
1/2-x,1/2-y,z
1/2+x,1/2-y,1/2-z
1/2-x,1/2+y,1/2-z
1/2-x,1/2-y,-z
1/2+x,1/2+y,-z
1/2-x,1/2+y,1/2+z
1/2+x,1/2-y,1/2+z
loop_
_atom_site_type_symbol
_atom_site_label
_atom_site_fract_x
_atom_site_fract_y
_atom_site_fract_z
Si Si1 0.065781 0.999988 0.417937
Si Si2 0.730751 0.379016 0.415193
Si Si3 0.124340 0.197048 0.158887
Si Si4 0.554288 0.693407 0.697618
Si Si5 0.047327 0.404467 0.411296
Si Si6 0.149082 0.564510 0.588668
O O1 0.090186 0.023447 0.500000
O O2 0.074857 0.093213 0.355269
O O3 0.082246 0.878234 0.388878
O O4 0.000000 0.000000 0.425542
O O5 0.713083 0.409202 0.500000
O O6 0.750000 0.250000 0.419836
O O7 0.681232 0.372229 0.356094
O O8 0.785337 0.449506 0.393395
O O9 0.103102 0.210454 0.242290
O O10 0.129774 0.320630 0.125931
O O11 0.500000 0.668245 0.750000
O O12 0.541205 0.799523 0.644180
O O13 0.045230 0.373517 0.500000
O O14 0.106597 0.464679 0.395102
O O15 0.000000 0.500000 0.399996
O O16 0.146935 0.582382 0.500000
#
# Coordination Sequence:
#
# PCOD9500128 Si02
#       6
#    16  16  16  16  16  16
#     4  11  23  38  58  80 108 150 195 233 278 342
#     4   8  15  31  57  87 113 144 191 239 281 327
#     4  11  20  33  60  86 116 147 185 239 292 341
#     4  12  24  38  54  81 122 153 185 234 297 349
#     4  10  22  39  60  86 117 158 200 233 280 351
#     4   9  18  35  61  90 118 149 193 242 281 332
#
# _framework density 9.2592590000000001
#
# number of rings (size 3 to 8) (size 9 to 14) (size 15 to 20)
#    0.000    1.833    1.667    4.500    0.000    2.333 
#    0.000    0.000   22.000    0.000    0.000    4.667 
#    0.000    0.000    0.000    0.000    0.000    0.000 
#
# Total GULP energy -267532.812732 kJ/mol
# GULP energy per Si atom -5573.600265 kJ/mol
# Density = 0.923818 g / cm^3
# Si number density = 9.259259 Si / 1000 Ang^3
#
#
#
# Elastic Constant Matrix: (Units=GPa)
#
#
# Indices 1 2 3 4 5 6 
#
# 1 71.0403 -6.3741 21.6815 0.0000 0.0000 0.0000
# 2 -6.3741 31.0185 28.7095 0.0000 0.0000 0.0000
# 3 21.6815 28.7095 98.3082 0.0000 0.0000 0.0000
# 4 0.0000 0.0000 0.0000 29.3635 0.0000 0.0000
# 5 0.0000 0.0000 0.0000 0.0000 30.2960 0.0000
# 6 0.0000 0.0000 0.0000 0.0000 0.0000 26.7772
#
#
#
# Elastic Compliance Matrix: (Units=1/GPa)
#
#
# Indices 1 2 3 4 5 6 
#
# 1 0.016913 0.009494 -0.006503 0.000000 0.000000 0.000000
# 2 0.009494 0.049510 -0.016553 0.000000 0.000000 0.000000
# 3 -0.006503 -0.016553 0.016440 0.000000 0.000000 0.000000
# 4 0.000000 0.000000 0.000000 0.034056 0.000000 0.000000
# 5 0.000000 0.000000 0.000000 0.000000 0.033008 0.000000
# 6 0.000000 0.000000 0.000000 0.000000 0.000000 0.037345
#
#
# Mechanical properties :
#
#
# Convention : Reuss Voigt Hill
#
# Bulk Modulus (GPa) = 17.94013 32.04454 24.99234
# Shear Modulus (GPa) = 21.46154 27.71068 24.58611
#
# Velocity S-wave (km/s) = 3.40799 3.87250 3.64765
# Velocity P-wave (km/s) = 5.01942 6.11037 5.59156
#
# Compressibility (1/GPa) = 0.05574095
#
# Stress axis : x y z
#
# Youngs Moduli (GPa) = 59.12616 20.19786 60.82654
#
# Poissons Ratio (x) = -0.19176 0.39554
# Poissons Ratio (y) = -0.56135 1.00684
# Poissons Ratio (z) = 0.38448 0.33433
#
# Static dielectric constant tensor:
#      x y z
#    x 1.744160 0.000000 0.000000 
#    y 0.000000 1.632010 0.000000 
#    z 0.000000 0.000000 1.656770 
# 
# From -- ./inp_files/43568.got.cif
#   From: 2010.05.17/outbox.ucp.g08.bks.cvg/sg66_22_cif.got.tgz:43568.got - 2010.06.11 16:44:13.
