data_PCOD9500416
_publ_section_title
;
Structure prediction by ZEFSAII (Michael W. Deem and Ramdas Pophale) SiO2 
 PCOD9500416
Probable space group: C M M A
;
_chemical_formula_sum "Si O2"
_cell_formula_units_Z 80
_cell_length_a 14.914872
_cell_length_b 28.811609
_cell_length_c 9.070818
_cell_angle_alpha 90.000000
_cell_angle_beta 90.000000
_cell_angle_gamma 90.000000
_cell_volume 3897.925158
_symmetry_space_group_name_H-M "C M M A"
_symmetry_group_IT_number 67
_symmetry_cell_setting 'orthorhombic'
loop_
_space_group_symop_operation_xyz
x,y,z
-x,1/2-y,z
x,-y,-z
-x,1/2+y,-z
-x,-y,-z
x,1/2+y,-z
-x,y,z
x,1/2-y,z
1/2+x,1/2+y,z
1/2-x,-y,z
1/2+x,1/2-y,-z
1/2-x,y,-z
1/2-x,1/2-y,-z
1/2+x,y,-z
1/2-x,1/2+y,z
1/2+x,-y,z
loop_
_atom_site_type_symbol
_atom_site_label
_atom_site_fract_x
_atom_site_fract_y
_atom_site_fract_z
Si Si1 0.647320 0.199841 0.938045
Si Si2 0.608341 0.933627 0.396226
Si Si3 0.893127 0.027615 0.719810
Si Si4 0.664502 0.386068 0.102889
Si Si5 0.717397 0.840392 0.343764
O O1 0.606429 0.250000 0.971964
O O2 0.661216 0.192724 0.763945
O O3 0.750000 0.201285 0.000000
O O4 0.608929 0.152726 0.010946
O O5 0.500000 0.928605 0.387996
O O6 0.632186 0.950713 0.561084
O O7 0.656891 0.885692 0.369112
O O8 0.640303 0.974358 0.283998
O O9 0.872477 0.064573 0.846085
O O10 0.000000 0.022976 0.715620
O O11 0.698086 0.359024 0.249004
O O12 0.750000 0.395749 0.000000
O O13 0.750000 0.821250 0.500000
#
# Coordination Sequence:
#
# PCOD9500416 Si02
#       5
#    16  16  16  16  16
#     4   8  17  33  50  70 100 132 162 210 262 302
#     4   9  18  31  49  74 105 136 168 205 247 300
#     4   9  17  32  51  72 101 141 175 197 244 308
#     4   9  18  32  50  75 104 130 166 216 250 297
#     4  10  17  29  51  77 102 127 170 211 254 294
#
# _framework density 20.52374
#
# number of rings (size 3 to 8) (size 9 to 14) (size 15 to 20)
#    0.000    3.400    2.000    1.200    0.000    1.200 
#    0.000   12.000    0.000   12.000    0.000    2.800 
#    0.000    0.000    0.000    0.000    0.000    0.000 
#
# Total GULP energy -222748.364984 kJ/mol
# GULP energy per Si atom -5568.709125 kJ/mol
# Density = 2.047703 g / cm^3
# Si number density = 20.523740 Si / 1000 Ang^3
#
#
#
# Elastic Constant Matrix: (Units=GPa)
#
#
# Indices 1 2 3 4 5 6 
#
# 1 24.8681 18.1001 11.4146 0.0000 0.0000 0.0000
# 2 18.1001 116.4896 29.6923 0.0000 0.0000 0.0000
# 3 11.4146 29.6923 98.5811 0.0000 0.0000 0.0000
# 4 0.0000 0.0000 0.0000 20.3828 0.0000 0.0000
# 5 0.0000 0.0000 0.0000 0.0000 15.6938 0.0000
# 6 0.0000 0.0000 0.0000 0.0000 0.0000 92.9303
#
#
#
# Elastic Compliance Matrix: (Units=1/GPa)
#
#
# Indices 1 2 3 4 5 6 
#
# 1 0.046409 -0.006327 -0.003468 0.000000 0.000000 0.000000
# 2 -0.006327 0.010161 -0.002328 0.000000 0.000000 0.000000
# 3 -0.003468 -0.002328 0.011247 0.000000 0.000000 0.000000
# 4 0.000000 0.000000 0.000000 0.049061 0.000000 0.000000
# 5 0.000000 0.000000 0.000000 0.000000 0.063719 0.000000
# 6 0.000000 0.000000 0.000000 0.000000 0.000000 0.010761
#
#
# Mechanical properties :
#
#
# Convention : Reuss Voigt Hill
#
# Bulk Modulus (GPa) = 22.95111 39.81698 31.38405
# Shear Modulus (GPa) = 21.72713 37.85018 29.78865
#
# Velocity S-wave (km/s) = 3.25720 4.29909 3.81389
# Velocity P-wave (km/s) = 5.03515 6.63969 5.89229
#
# Compressibility (1/GPa) = 0.04357088
#
# Stress axis : x y z
#
# Youngs Moduli (GPa) = 21.54749 98.41655 88.91559
#
# Poissons Ratio (x) = 0.62269 0.30836
# Poissons Ratio (y) = 0.13633 0.20698
# Poissons Ratio (z) = 0.07473 0.22910
#
# Static dielectric constant tensor:
#      x y z
#    x 1.758280 0.000000 0.000000 
#    y 0.000000 1.782520 0.000000 
#    z 0.000000 0.000000 1.780750 
# 
# From -- ./inp_files/10131.got.cif
#   From: 2010.05.17/outbox.cif.g08.bks.cpg/sg67_6_cif.got.tgz:10131.got - 2010.06.03 18:28:57.
