data_PCOD9500780
_publ_section_title
;
Structure prediction by ZEFSAII (Michael W. Deem and Ramdas Pophale) SiO2 
 PCOD9500780
Probable space group: C M M A
;
_chemical_formula_sum "Si O2"
_cell_formula_units_Z 104
_cell_length_a 8.538062
_cell_length_b 22.058538
_cell_length_c 28.954507
_cell_angle_alpha 90.000000
_cell_angle_beta 90.000000
_cell_angle_gamma 90.000000
_cell_volume 5453.209764
_symmetry_space_group_name_H-M "C M M A"
_symmetry_group_IT_number 67
_symmetry_cell_setting 'orthorhombic'
loop_
_space_group_symop_operation_xyz
x,y,z
-x,1/2-y,z
x,-y,-z
-x,1/2+y,-z
-x,-y,-z
x,1/2+y,-z
-x,y,z
x,1/2-y,z
1/2+x,1/2+y,z
1/2-x,-y,z
1/2+x,1/2-y,-z
1/2-x,y,-z
1/2-x,1/2-y,-z
1/2+x,y,-z
1/2-x,1/2+y,z
1/2+x,-y,z
loop_
_atom_site_type_symbol
_atom_site_label
_atom_site_fract_x
_atom_site_fract_y
_atom_site_fract_z
Si Si1 0.812348 0.565637 0.215515
Si Si2 0.309925 0.680661 0.272661
Si Si3 0.312496 0.565434 0.892573
Si Si4 0.688017 0.181785 0.947690
Si Si5 0.311904 0.750000 0.448810
Si Si6 0.189627 0.850264 0.624079
Si Si7 0.312558 0.567185 0.452617
O O1 0.750000 0.500000 0.232793
O O2 0.749641 0.625141 0.241578
O O3 0.765989 0.569999 0.161448
O O4 0.000000 0.564850 0.218430
O O5 0.500000 0.679680 0.271781
O O6 0.262674 0.750000 0.259892
O O7 0.254537 0.667135 0.325260
O O8 0.500000 0.564512 0.895469
O O9 0.250000 0.500000 0.909944
O O10 0.250770 0.624735 0.918906
O O11 0.500000 0.179392 0.947882
O O12 0.734202 0.250000 0.930764
O O13 0.750000 0.176752 0.000000
O O14 0.500000 0.750000 0.451362
O O15 0.250000 0.750000 0.500000
O O16 0.262064 0.805350 0.416742
O O17 0.235095 0.911794 0.598877
O O18 0.000000 0.847113 0.627415
O O19 0.500000 0.570960 0.455276
O O20 0.250000 0.500000 0.455298
O O21 0.250000 0.598688 0.500000
#
# Coordination Sequence:
#
# PCOD9500780 Si02
#       7
#    16  16  16  16   8  16  16
#     4  10  22  40  61  86 116 150 191 242 296 349
#     4  10  20  37  60  83 111 149 189 229 281 343
#     4  10  21  38  60  85 116 153 195 245 298 351
#     4  10  21  37  58  86 122 162 204 248 294 347
#     4  10  18  32  52  74 100 130 168 210 255 310
#     4   9  18  33  53  74  99 133 171 209 256 316
#     4  10  19  32  49  70  97 128 164 206 252 307
#
# _framework density 19.071335999999999
#
# number of rings (size 3 to 8) (size 9 to 14) (size 15 to 20)
#    0.000    2.154    0.769    2.769    0.000    4.615 
#    0.000    9.231    0.000    0.000    0.000    0.000 
#    0.000    0.000    0.000    0.000    0.000    0.000 
#
# Total GULP energy -289663.802512 kJ/mol
# GULP energy per Si atom -5570.457741 kJ/mol
# Density = 1.902793 g / cm^3
# Si number density = 19.071336 Si / 1000 Ang^3
#
#
#
# Elastic Constant Matrix: (Units=GPa)
#
#
# Indices 1 2 3 4 5 6 
#
# 1 34.0020 37.5390 24.6059 0.0000 0.0000 0.0000
# 2 37.5390 181.2159 85.4815 0.0000 0.0000 0.0000
# 3 24.6059 85.4815 86.9996 0.0000 0.0000 0.0000
# 4 0.0000 0.0000 0.0000 -46.3681 0.0000 0.0000
# 5 0.0000 0.0000 0.0000 0.0000 34.1457 0.0000
# 6 0.0000 0.0000 0.0000 0.0000 0.0000 25.6529
#
#
#
# Elastic Compliance Matrix: (Units=1/GPa)
#
#
# Indices 1 2 3 4 5 6 
#
# 1 0.039673 -0.005453 -0.005863 0.000000 0.000000 0.000000
# 2 -0.005453 0.011035 -0.009300 0.000000 0.000000 0.000000
# 3 -0.005863 -0.009300 0.022290 0.000000 0.000000 0.000000
# 4 0.000000 0.000000 0.000000 -0.021567 0.000000 0.000000
# 5 0.000000 0.000000 0.000000 0.000000 0.029286 0.000000
# 6 0.000000 0.000000 0.000000 0.000000 0.000000 0.038982
#
#
# Mechanical properties :
#
#
# Convention : Reuss Voigt Hill
#
# Bulk Modulus (GPa) = 31.47992 66.38559 48.93275
# Shear Modulus (GPa) = 29.15121 12.99217 21.07169
#
# Velocity S-wave (km/s) = 3.91389 2.61289 3.32759
# Velocity P-wave (km/s) = 6.08005 6.63231 6.36218
#
# Compressibility (1/GPa) = 0.03176628
#
# Stress axis : x y z
#
# Youngs Moduli (GPa) = 25.20631 90.62313 44.86247
#
# Poissons Ratio (x) = 0.49412 0.26303
# Poissons Ratio (y) = 0.13744 0.41722
# Poissons Ratio (z) = 0.14779 0.84280
#
# Static dielectric constant tensor:
#      x y z
#    x 1.653930 0.000000 0.000000 
#    y 0.000000 1.867240 0.000000 
#    z 0.000000 0.000000 1.663610 
# 
# From -- ./inp_files/43559.got.cif
#   From: 2010.05.17/outbox.cif.g08.bks.cpg/sg67_22_cif.got.tgz:43559.got - 2010.06.03 18:28:57.
