data_PCOD9500460
_publ_section_title
;
Structure prediction by ZEFSAII (Michael W. Deem and Ramdas Pophale) SiO2 
 PCOD9500460
Probable space group: C M M A
;
_chemical_formula_sum "Si O2"
_cell_formula_units_Z 72
_cell_length_a 11.388863
_cell_length_b 28.040979
_cell_length_c 9.464105
_cell_angle_alpha 90.000000
_cell_angle_beta 90.000000
_cell_angle_gamma 90.000000
_cell_volume 3022.408005
_symmetry_space_group_name_H-M "C M M A"
_symmetry_group_IT_number 67
_symmetry_cell_setting 'orthorhombic'
loop_
_space_group_symop_operation_xyz
x,y,z
-x,1/2-y,z
x,-y,-z
-x,1/2+y,-z
-x,-y,-z
x,1/2+y,-z
-x,y,z
x,1/2-y,z
1/2+x,1/2+y,z
1/2-x,-y,z
1/2+x,1/2-y,-z
1/2-x,y,-z
1/2-x,1/2-y,-z
1/2+x,y,-z
1/2-x,1/2+y,z
1/2+x,-y,z
loop_
_atom_site_type_symbol
_atom_site_label
_atom_site_fract_x
_atom_site_fract_y
_atom_site_fract_z
Si Si1 0.874316 0.656185 0.773236
Si Si2 0.626779 0.750000 0.419306
Si Si3 0.372990 0.482102 0.161199
Si Si4 0.373650 0.415297 0.516433
Si Si5 0.627412 0.629826 0.782201
O O1 0.874932 0.703383 0.678533
O O2 0.875624 0.610993 0.666468
O O3 0.745032 0.653885 0.839106
O O4 0.000000 0.654239 0.852554
O O5 0.500000 0.750000 0.499894
O O6 0.750000 0.750000 0.500000
O O7 0.500000 0.497942 0.221589
O O8 0.250000 0.500000 0.224103
O O9 0.371122 0.424957 0.165775
O O10 0.373352 0.500000 0.000000
O O11 0.500000 0.439344 0.494980
O O12 0.250000 0.441706 0.500000
O O13 0.367636 0.375687 0.389710
O O14 0.500000 0.651116 0.815695
#
# Coordination Sequence:
#
# PCOD9500460 Si02
#       5
#    16   8  16  16  16
#     4   9  17  27  40  61  90 125 163 197 226 261
#     4  10  18  26  38  60  92 129 168 207 238 263
#     4   9  18  32  49  69  91 112 138 180 234 289
#     4   8  13  22  36  54  77 109 148 182 210 245
#     4   9  16  27  44  63  85 116 151 186 227 275
#
# _framework density 23.822064999999998
#
# number of rings (size 3 to 8) (size 9 to 14) (size 15 to 20)
#    0.000    3.111    0.000    2.000    0.000    3.556 
#    0.000    0.000    0.000    6.000    0.000   35.778 
#    0.000    3.556    0.000   10.000    0.000   18.444 
#
# Total GULP energy -200588.297900 kJ/mol
# GULP energy per Si atom -5571.897164 kJ/mol
# Density = 2.376785 g / cm^3
# Si number density = 23.822065 Si / 1000 Ang^3
#
#
#
# Elastic Constant Matrix: (Units=GPa)
#
#
# Indices 1 2 3 4 5 6 
#
# 1 383.0478 31.9822 5.2675 0.0000 0.0000 0.0000
# 2 31.9822 41.3738 -4.0515 0.0000 0.0000 0.0000
# 3 5.2675 -4.0515 65.8300 0.0000 0.0000 0.0000
# 4 0.0000 0.0000 0.0000 -1.5410 0.0000 0.0000
# 5 0.0000 0.0000 0.0000 0.0000 -19.2503 0.0000
# 6 0.0000 0.0000 0.0000 0.0000 0.0000 7.5699
#
#
#
# Elastic Compliance Matrix: (Units=1/GPa)
#
#
# Indices 1 2 3 4 5 6 
#
# 1 0.002799 -0.002199 -0.000359 0.000000 0.000000 0.000000
# 2 -0.002199 0.026044 0.001779 0.000000 0.000000 0.000000
# 3 -0.000359 0.001779 0.015329 0.000000 0.000000 0.000000
# 4 0.000000 0.000000 0.000000 -0.648947 0.000000 0.000000
# 5 0.000000 0.000000 0.000000 0.000000 -0.051947 0.000000
# 6 0.000000 0.000000 0.000000 0.000000 0.000000 0.132102
#
#
# Mechanical properties :
#
#
# Convention : Reuss Voigt Hill
#
# Bulk Modulus (GPa) = 23.46704 61.84981 42.65842
# Shear Modulus (GPa) = -9.82594 27.82595 9.00001
#
# Velocity S-wave (km/s) = -2.03314 3.42142 1.94582
# Velocity P-wave (km/s) = 2.08825 6.45196 4.79523
#
# Compressibility (1/GPa) = 0.04261296
#
# Stress axis : x y z
#
# Youngs Moduli (GPa) = 357.24719 38.39675 65.23642
#
# Poissons Ratio (x) = 0.08443 0.02344
# Poissons Ratio (y) = 0.78558 -0.11604
# Poissons Ratio (z) = 0.12836 -0.06830
#
# Static dielectric constant tensor:
#      x y z
#    x 2.055930 0.000000 0.000000 
#    y 0.000000 1.836040 0.000000 
#    z 0.000000 0.000000 1.894590 
# 
# From -- ./inp_files/16718.got.cif
#   From: 2010.05.17/outbox.cif.g08.bks.cpg/sg67_9_cif.got.tgz:16718.got - 2010.06.03 18:28:57.
