data_PCOD9500564
_publ_section_title
;
Structure prediction by ZEFSAII (Michael W. Deem and Ramdas Pophale) SiO2 
 PCOD9500564
Probable space group: C M M A
;
_chemical_formula_sum "Si O2"
_cell_formula_units_Z 116
_cell_length_a 26.878702
_cell_length_b 13.887728
_cell_length_c 19.280062
_cell_angle_alpha 90.000000
_cell_angle_beta 90.000000
_cell_angle_gamma 90.000000
_cell_volume 7196.940637
_symmetry_space_group_name_H-M "C M M A"
_symmetry_group_IT_number 67
_symmetry_cell_setting 'orthorhombic'
loop_
_space_group_symop_operation_xyz
x,y,z
-x,1/2-y,z
x,-y,-z
-x,1/2+y,-z
-x,-y,-z
x,1/2+y,-z
-x,y,z
x,1/2-y,z
1/2+x,1/2+y,z
1/2-x,-y,z
1/2+x,1/2-y,-z
1/2-x,y,-z
1/2-x,1/2-y,-z
1/2+x,y,-z
1/2-x,1/2+y,z
1/2+x,-y,z
loop_
_atom_site_type_symbol
_atom_site_label
_atom_site_fract_x
_atom_site_fract_y
_atom_site_fract_z
Si Si1 0.884140 0.523889 0.924128
Si Si2 0.812117 0.358469 0.872715
Si Si3 0.720862 0.140683 0.614933
Si Si4 0.819827 0.357963 0.708008
Si Si5 0.149260 0.566787 0.728854
Si Si6 0.798605 0.364615 0.130001
Si Si7 0.750000 0.500000 0.500000
Si Si8 0.057806 0.636988 0.810456
O O1 0.856067 0.430169 0.893250
O O2 0.839691 0.602706 0.925279
O O3 0.925267 0.568714 0.873742
O O4 0.903049 0.500000 0.000000
O O5 0.822161 0.250000 0.897633
O O6 0.806080 0.353952 0.789255
O O7 0.756759 0.389259 0.895036
O O8 0.721576 0.250000 0.590150
O O9 0.771470 0.124886 0.659972
O O10 0.676061 0.123362 0.667670
O O11 0.719095 0.068221 0.551037
O O12 0.839579 0.250000 0.690606
O O13 0.852522 0.454788 0.706245
O O14 0.183781 0.583592 0.798142
O O15 0.095883 0.607952 0.749786
O O16 0.800070 0.250000 0.142481
O O17 0.065874 0.750000 0.827696
O O18 0.000000 0.623927 0.793692
#
# Coordination Sequence:
#
# PCOD9500564 Si02
#       8
#    16  16  16  16  16  16   4  16
#     4  11  22  33  49  68  96 133 163 198 252 322
#     4  10  19  30  47  71  99 128 168 209 244 291
#     4  11  21  32  49  77 112 151 182 203 234 288
#     4  10  18  29  49  75 101 133 171 208 243 285
#     4  11  17  32  55  74  96 129 172 212 259 296
#     4  10  19  30  47  71  98 130 167 210 248 288
#     4  12  22  32  44  74 126 164 172 196 220 286
#     4  10  22  39  58  77  93 114 159 226 280 313
#
# _framework density 16.117958999999999
#
# number of rings (size 3 to 8) (size 9 to 14) (size 15 to 20)
#    0.000    1.517    5.517    3.103    0.000    2.483 
#    0.000    1.379    0.000    1.655    0.000    0.483 
#    0.000    0.000    0.000    0.000    0.000    0.000 
#
# Total GULP energy -323297.934433 kJ/mol
# GULP energy per Si atom -5574.102318 kJ/mol
# Density = 1.608127 g / cm^3
# Si number density = 16.117959 Si / 1000 Ang^3
#
#
#
# Elastic Constant Matrix: (Units=GPa)
#
#
# Indices 1 2 3 4 5 6 
#
# 1 85.8270 44.8645 25.4199 0.0000 0.0000 0.0000
# 2 44.8645 126.2572 28.9208 0.0000 0.0000 0.0000
# 3 25.4199 28.9208 64.5586 0.0000 0.0000 0.0000
# 4 0.0000 0.0000 0.0000 14.7442 0.0000 0.0000
# 5 0.0000 0.0000 0.0000 0.0000 8.5162 0.0000
# 6 0.0000 0.0000 0.0000 0.0000 0.0000 21.1889
#
#
#
# Elastic Compliance Matrix: (Units=1/GPa)
#
#
# Indices 1 2 3 4 5 6 
#
# 1 0.015168 -0.004482 -0.003965 0.000000 0.000000 0.000000
# 2 -0.004482 0.010150 -0.002782 0.000000 0.000000 0.000000
# 3 -0.003965 -0.002782 0.018297 0.000000 0.000000 0.000000
# 4 0.000000 0.000000 0.000000 0.067823 0.000000 0.000000
# 5 0.000000 0.000000 0.000000 0.000000 0.117424 0.000000
# 6 0.000000 0.000000 0.000000 0.000000 0.000000 0.047194
#
#
# Mechanical properties :
#
#
# Convention : Reuss Voigt Hill
#
# Bulk Modulus (GPa) = 47.26326 52.78368 50.02347
# Shear Modulus (GPa) = 16.36297 20.71904 18.54101
#
# Velocity S-wave (km/s) = 3.18968 3.58923 3.39533
# Velocity P-wave (km/s) = 6.55381 7.07080 6.81721
#
# Compressibility (1/GPa) = 0.02115808
#
# Stress axis : x y z
#
# Youngs Moduli (GPa) = 65.92659 98.51982 54.65259
#
# Poissons Ratio (x) = 0.44154 0.21669
# Poissons Ratio (y) = 0.29547 0.15206
# Poissons Ratio (z) = 0.26139 0.27412
#
# Static dielectric constant tensor:
#      x y z
#    x 1.516170 0.000000 0.000000 
#    y 0.000000 1.601450 0.000000 
#    z 0.000000 0.000000 1.552770 
# 
# From -- ./inp_files/35987.got.cif
#   From: 2010.05.17/outbox.cif.g08.bks.cpg/sg67_18_cif.got.tgz:35987.got - 2010.06.03 18:28:57.
