data_PCOD9500323
_publ_section_title
;
Structure prediction by ZEFSAII (Michael W. Deem and Ramdas Pophale) SiO2 
 PCOD9500323
Probable space group: C M M A
;
_chemical_formula_sum "Si O2"
_cell_formula_units_Z 104
_cell_length_a 8.486277
_cell_length_b 21.474601
_cell_length_c 30.335580
_cell_angle_alpha 90.000000
_cell_angle_beta 90.000000
_cell_angle_gamma 90.000000
_cell_volume 5528.338279
_symmetry_space_group_name_H-M "C M M A"
_symmetry_group_IT_number 67
_symmetry_cell_setting 'orthorhombic'
loop_
_space_group_symop_operation_xyz
x,y,z
-x,1/2-y,z
x,-y,-z
-x,1/2+y,-z
-x,-y,-z
x,1/2+y,-z
-x,y,z
x,1/2-y,z
1/2+x,1/2+y,z
1/2-x,-y,z
1/2+x,1/2-y,-z
1/2-x,y,-z
1/2-x,1/2-y,-z
1/2+x,y,-z
1/2-x,1/2+y,z
1/2+x,-y,z
loop_
_atom_site_type_symbol
_atom_site_label
_atom_site_fract_x
_atom_site_fract_y
_atom_site_fract_z
Si Si1 0.310499 0.250000 0.049994
Si Si2 0.809629 0.679674 0.292972
Si Si3 0.190383 0.681059 0.806690
Si Si4 0.812099 0.071171 0.454371
Si Si5 0.810910 0.886298 0.049799
Si Si6 0.311998 0.935891 0.137031
Si Si7 0.310623 0.571156 0.640014
O O1 0.500000 0.250000 0.050962
O O2 0.257119 0.317177 0.066470
O O3 0.250000 0.250000 0.000000
O O4 0.764546 0.750000 0.308410
O O5 0.743714 0.672714 0.243675
O O6 0.759355 0.622055 0.323722
O O7 0.000000 0.678169 0.291099
O O8 0.244675 0.750000 0.821629
O O9 0.248315 0.624149 0.836330
O O10 0.000000 0.680817 0.808106
O O11 0.750000 0.100487 0.500000
O O12 0.748211 0.095045 0.407761
O O13 0.000000 0.071056 0.454544
O O14 0.750000 0.000000 0.454699
O O15 0.745874 0.931344 0.086774
O O16 0.000000 0.888510 0.048595
O O17 0.750000 0.896276 0.000000
O O18 0.500000 0.935772 0.137607
O O19 0.250000 0.000000 0.157067
O O20 0.500000 0.568100 0.639421
O O21 0.250000 0.500000 0.647265
#
# Coordination Sequence:
#
# PCOD9500323 Si02
#       7
#     8  16  16  16  16  16  16
#     4   8  16  30  50  78 108 136 170 212 254 298
#     4   9  19  36  57  80 106 139 177 218 266 319
#     4   9  20  39  61  83 106 137 177 220 266 317
#     4  10  17  27  44  68 101 139 180 223 269 317
#     4  10  20  36  57  83 113 145 181 218 262 312
#     4  11  24  40  58  82 113 146 180 220 267 318
#     4  10  19  31  49  76 108 139 177 222 268 318
#
# _framework density 18.812163000000002
#
# number of rings (size 3 to 8) (size 9 to 14) (size 15 to 20)
#    0.000    2.308    0.000    4.154    1.077    4.000 
#    0.000    4.615    0.000    0.462    0.000    0.000 
#    0.000    0.000    0.000    0.000    0.000    0.000 
#
# Total GULP energy -289888.609804 kJ/mol
# GULP energy per Si atom -5574.780958 kJ/mol
# Density = 1.876935 g / cm^3
# Si number density = 18.812163 Si / 1000 Ang^3
#
#
#
# Elastic Constant Matrix: (Units=GPa)
#
#
# Indices 1 2 3 4 5 6 
#
# 1 50.0938 28.7655 17.7334 0.0000 0.0000 0.0000
# 2 28.7655 140.7140 80.4817 0.0000 0.0000 0.0000
# 3 17.7334 80.4817 98.4732 0.0000 0.0000 0.0000
# 4 0.0000 0.0000 0.0000 27.0957 0.0000 0.0000
# 5 0.0000 0.0000 0.0000 0.0000 27.8985 0.0000
# 6 0.0000 0.0000 0.0000 0.0000 0.0000 20.1477
#
#
#
# Elastic Compliance Matrix: (Units=1/GPa)
#
#
# Indices 1 2 3 4 5 6 
#
# 1 0.022634 -0.004311 -0.000553 0.000000 0.000000 0.000000
# 2 -0.004311 0.014166 -0.010801 0.000000 0.000000 0.000000
# 3 -0.000553 -0.010801 0.019082 0.000000 0.000000 0.000000
# 4 0.000000 0.000000 0.000000 0.036906 0.000000 0.000000
# 5 0.000000 0.000000 0.000000 0.000000 0.035844 0.000000
# 6 0.000000 0.000000 0.000000 0.000000 0.000000 0.049633
#
#
# Mechanical properties :
#
#
# Convention : Reuss Voigt Hill
#
# Bulk Modulus (GPa) = 40.72968 60.36024 50.54496
# Shear Modulus (GPa) = 22.95908 25.84842 24.40375
#
# Velocity S-wave (km/s) = 3.49727 3.71081 3.60562
# Velocity P-wave (km/s) = 6.16486 7.10743 6.65286
#
# Compressibility (1/GPa) = 0.02455212
#
# Stress axis : x y z
#
# Youngs Moduli (GPa) = 44.18215 70.59367 52.40444
#
# Poissons Ratio (x) = 0.30431 0.02897
# Poissons Ratio (y) = 0.19045 0.56603
# Poissons Ratio (z) = 0.02443 0.76249
#
# Static dielectric constant tensor:
#      x y z
#    x 1.635350 0.000000 0.000000 
#    y 0.000000 1.694290 0.000000 
#    z 0.000000 0.000000 1.650120 
# 
# From -- ./inp_files/43582.got.cif
#   From: 2010.05.17/outbox.cif.g08.bks.cpg/sg67_22_cif.got.tgz:43582.got - 2010.06.03 18:28:57.
