data_PCOD9500139
_publ_section_title
;
Structure prediction by ZEFSAII (Michael W. Deem and Ramdas Pophale) SiO2 
 PCOD9500139
Probable space group: C C C M
;
_chemical_formula_sum "Si O2"
_cell_formula_units_Z 32
_cell_length_a 18.000000
_cell_length_b 12.000000
_cell_length_c 15.000000
_cell_angle_alpha 90.000000
_cell_angle_beta 90.000000
_cell_angle_gamma 90.000000
_cell_volume 3240.000000
_symmetry_space_group_name_H-M "C C C M"
_symmetry_group_IT_number 66
_symmetry_cell_setting 'orthorhombic'
loop_
_space_group_symop_operation_xyz
x,y,z
-x,-y,z
x,-y,1/2-z
-x,y,1/2-z
-x,-y,-z
x,y,-z
-x,y,1/2+z
x,-y,1/2+z
1/2+x,1/2+y,z
1/2-x,1/2-y,z
1/2+x,1/2-y,1/2-z
1/2-x,1/2+y,1/2-z
1/2-x,1/2-y,-z
1/2+x,1/2+y,-z
1/2-x,1/2+y,1/2+z
1/2+x,1/2-y,1/2+z
loop_
_atom_site_type_symbol
_atom_site_label
_atom_site_fract_x
_atom_site_fract_y
_atom_site_fract_z
Si Si1 0.338992 0.211821 0.601389
Si Si2 0.692383 0.428632 0.161211
Si Si3 0.178449 0.908135 0.500000
Si Si4 0.913336 0.499382 0.150545
Si Si5 0.647498 0.157128 0.500000
O O1 0.330471 0.252919 0.500000
O O2 0.357145 0.316595 0.664334
O O3 0.267803 0.136182 0.630733
O O4 0.399839 0.118102 0.603988
O O5 0.700013 0.500000 0.250000
O O6 0.666670 0.514325 0.085721
O O7 0.265328 0.873901 0.500000
O O8 0.136835 0.789973 0.500000
O O9 0.879003 0.500000 0.250000
O O10 0.000000 0.500000 0.160244
O O11 0.884442 0.597923 0.088046
#
# Coordination Sequence:
#
# PCOD9500139 Si02
#       5
#    16  16   8  16   8
#     4  11  20  37  59  81 117 149 193 236 281 345
#     4  11  21  34  57  85 119 152 182 230 295 345
#     4  11  22  36  52  93 123 148 180 237 288 350
#     4  11  23  39  59  85 112 149 199 239 278 332
#     4  11  23  35  59  82 126 147 184 237 291 334
#
# _framework density 9.8765429999999999
#
# number of rings (size 3 to 8) (size 9 to 14) (size 15 to 20)
#    0.000    1.000    6.250    1.875    3.500    2.000 
#    0.000    0.000    0.000    3.000    0.000    0.000 
#    0.000    0.000    0.000    0.000    0.000    0.000 
#
# Total GULP energy -178155.353341 kJ/mol
# GULP energy per Si atom -5567.354792 kJ/mol
# Density = 0.985406 g / cm^3
# Si number density = 9.876543 Si / 1000 Ang^3
#
#
#
# Elastic Constant Matrix: (Units=GPa)
#
#
# Indices 1 2 3 4 5 6 
#
# 1 27.5172 27.8862 17.1353 0.0000 0.0000 0.0000
# 2 27.8862 199.9201 79.8074 0.0000 0.0000 0.0000
# 3 17.1353 79.8074 155.6874 0.0000 0.0000 0.0000
# 4 0.0000 0.0000 0.0000 41.9003 0.0000 0.0000
# 5 0.0000 0.0000 0.0000 0.0000 56.3694 0.0000
# 6 0.0000 0.0000 0.0000 0.0000 0.0000 0.1611
#
#
#
# Elastic Compliance Matrix: (Units=1/GPa)
#
#
# Indices 1 2 3 4 5 6 
#
# 1 0.042851 -0.005148 -0.002077 0.000000 0.000000 0.000000
# 2 -0.005148 0.006907 -0.002974 0.000000 0.000000 0.000000
# 3 -0.002077 -0.002974 0.008176 0.000000 0.000000 0.000000
# 4 0.000000 0.000000 0.000000 0.023866 0.000000 0.000000
# 5 0.000000 0.000000 0.000000 0.000000 0.017740 0.000000
# 6 0.000000 0.000000 0.000000 0.000000 0.000000 6.205537
#
#
# Mechanical properties :
#
#
# Convention : Reuss Voigt Hill
#
# Bulk Modulus (GPa) = 26.64102 70.30916 48.47509
# Shear Modulus (GPa) = 0.78889 36.90591 18.84740
#
# Velocity S-wave (km/s) = 0.63265 4.32714 3.09228
# Velocity P-wave (km/s) = 3.74833 7.78697 6.11092
#
# Compressibility (1/GPa) = 0.03753610
#
# Stress axis : x y z
#
# Youngs Moduli (GPa) = 23.33643 144.77323 122.30330
#
# Poissons Ratio (x) = 0.74528 0.25408
# Poissons Ratio (y) = 0.12013 0.36376
# Poissons Ratio (z) = 0.04848 0.43059
#
# Static dielectric constant tensor:
#      x y z
#    x 1.753380 0.000000 0.000000 
#    y 0.000000 1.873130 0.000000 
#    z 0.000000 0.000000 1.828030 
# 
# From -- ./inp_files/29600.got.cif
#   From: 2010.05.17/outbox.ucp.g08.bks.cvg/sg66_15_cif.got.tgz:29600.got - 2010.06.11 16:44:13.
