data_PCOD9500939
_publ_section_title
;
Structure prediction by ZEFSAII (Michael W. Deem and Ramdas Pophale) SiO2 
 PCOD9500939
Probable space group: C M M A
;
_chemical_formula_sum "Si O2"
_cell_formula_units_Z 96
_cell_length_a 24.384267
_cell_length_b 8.568117
_cell_length_c 26.103517
_cell_angle_alpha 90.000000
_cell_angle_beta 90.000000
_cell_angle_gamma 90.000000
_cell_volume 5453.736090
_symmetry_space_group_name_H-M "C M M A"
_symmetry_group_IT_number 67
_symmetry_cell_setting 'orthorhombic'
loop_
_space_group_symop_operation_xyz
x,y,z
-x,1/2-y,z
x,-y,-z
-x,1/2+y,-z
-x,-y,-z
x,1/2+y,-z
-x,y,z
x,1/2-y,z
1/2+x,1/2+y,z
1/2-x,-y,z
1/2+x,1/2-y,-z
1/2-x,y,-z
1/2-x,1/2-y,-z
1/2+x,y,-z
1/2-x,1/2+y,z
1/2+x,-y,z
loop_
_atom_site_type_symbol
_atom_site_label
_atom_site_fract_x
_atom_site_fract_y
_atom_site_fract_z
Si Si1 0.063443 0.936853 0.556294
Si Si2 0.887667 0.935396 0.343026
Si Si3 0.688356 0.937112 0.255269
Si Si4 0.379100 0.440766 0.845723
Si Si5 0.500000 0.065093 0.282509
Si Si6 0.000000 0.934376 0.828783
Si Si7 0.688251 0.437306 0.945744
O O1 0.064079 0.750000 0.555897
O O2 0.000000 0.987985 0.567045
O O3 0.077353 0.000000 0.500000
O O4 0.103684 0.998041 0.600230
O O5 0.880017 0.750000 0.345557
O O6 0.945390 0.967774 0.314491
O O7 0.840520 0.007455 0.307555
O O8 0.689632 0.750000 0.254417
O O9 0.651701 0.990808 0.206411
O O10 0.750000 0.000000 0.250783
O O11 0.380064 0.250000 0.844346
O O12 0.441776 0.498174 0.847851
O O13 0.346270 0.487416 0.896359
O O14 0.500000 0.250000 0.269235
O O15 0.500000 0.962348 0.231897
O O16 0.000000 0.750000 0.840010
O O17 0.689640 0.250000 0.947529
O O18 0.750000 0.500000 0.940387
O O19 0.666375 0.500000 0.000000
#
# Coordination Sequence:
#
# PCOD9500939 Si02
#       7
#    16  16  16  16   8   8  16
#     4  10  20  33  52  79 111 146 183 224 269 319
#     4  11  21  35  54  79 112 146 179 222 269 321
#     4  11  22  37  55  80 107 141 181 223 271 321
#     4   9  19  33  54  79 106 137 176 217 264 319
#     4  10  20  32  49  78 111 142 176 217 268 315
#     4  10  18  34  55  76 104 142 178 213 257 323
#     4  10  19  34  53  77 102 134 176 221 267 314
#
# _framework density 17.602613000000002
#
# number of rings (size 3 to 8) (size 9 to 14) (size 15 to 20)
#    0.000    1.833    2.500    3.000    0.000    1.333 
#    0.000    4.583    0.000    0.500    0.000    3.500 
#    0.000    0.000    0.000    0.000    0.000    0.000 
#
# Total GULP energy -267902.654644 kJ/mol
# GULP energy per Si atom -5581.305305 kJ/mol
# Density = 1.756255 g / cm^3
# Si number density = 17.602613 Si / 1000 Ang^3
#
#
#
# Elastic Constant Matrix: (Units=GPa)
#
#
# Indices 1 2 3 4 5 6 
#
# 1 120.3873 27.1008 73.1408 0.0000 0.0000 0.0000
# 2 27.1008 32.2391 32.4937 0.0000 0.0000 0.0000
# 3 73.1408 32.4937 151.8190 0.0000 0.0000 0.0000
# 4 0.0000 0.0000 0.0000 20.2580 0.0000 0.0000
# 5 0.0000 0.0000 0.0000 0.0000 76.9906 0.0000
# 6 0.0000 0.0000 0.0000 0.0000 0.0000 18.4393
#
#
#
# Elastic Compliance Matrix: (Units=1/GPa)
#
#
# Indices 1 2 3 4 5 6 
#
# 1 0.012505 -0.005661 -0.004813 0.000000 0.000000 0.000000
# 2 -0.005661 0.042113 -0.006286 0.000000 0.000000 0.000000
# 3 -0.004813 -0.006286 0.010251 0.000000 0.000000 0.000000
# 4 0.000000 0.000000 0.000000 0.049363 0.000000 0.000000
# 5 0.000000 0.000000 0.000000 0.000000 0.012989 0.000000
# 6 0.000000 0.000000 0.000000 0.000000 0.000000 0.054232
#
#
# Mechanical properties :
#
#
# Convention : Reuss Voigt Hill
#
# Bulk Modulus (GPa) = 31.89930 63.32403 47.61166
# Shear Modulus (GPa) = 22.18066 34.58491 28.38278
#
# Velocity S-wave (km/s) = 3.55361 4.43737 4.01985
# Velocity P-wave (km/s) = 5.91597 7.89341 6.97513
#
# Compressibility (1/GPa) = 0.03134865
#
# Stress axis : x y z
#
# Youngs Moduli (GPa) = 79.96877 23.74575 97.55334
#
# Poissons Ratio (x) = 0.13443 0.46950
# Poissons Ratio (y) = 0.45271 0.61323
# Poissons Ratio (z) = 0.38487 0.14927
#
# Static dielectric constant tensor:
#      x y z
#    x 1.596810 0.000000 0.000000 
#    y 0.000000 1.595690 0.000000 
#    z 0.000000 0.000000 1.586440 
# 
# From -- ./inp_files/42613.got.cif
#   From: 2010.05.17/outbox.cif.g08.bks.cpg/sg67_22_cif.got.tgz:42613.got - 2010.06.03 18:28:57.
