data_PCOD9500146
_publ_section_title
;
Structure prediction by ZEFSAII (Michael W. Deem and Ramdas Pophale) SiO2 
 PCOD9500146
Probable space group: C C C M
;
_chemical_formula_sum "Si O2"
_cell_formula_units_Z 52
_cell_length_a 9.000000
_cell_length_b 27.000000
_cell_length_c 21.000000
_cell_angle_alpha 90.000000
_cell_angle_beta 90.000000
_cell_angle_gamma 90.000000
_cell_volume 5103.000000
_symmetry_space_group_name_H-M "C C C M"
_symmetry_group_IT_number 66
_symmetry_cell_setting 'orthorhombic'
loop_
_space_group_symop_operation_xyz
x,y,z
-x,-y,z
x,-y,1/2-z
-x,y,1/2-z
-x,-y,-z
x,y,-z
-x,y,1/2+z
x,-y,1/2+z
1/2+x,1/2+y,z
1/2-x,1/2-y,z
1/2+x,1/2-y,1/2-z
1/2-x,1/2+y,1/2-z
1/2-x,1/2-y,-z
1/2+x,1/2+y,-z
1/2-x,1/2+y,1/2+z
1/2+x,1/2-y,1/2+z
loop_
_atom_site_type_symbol
_atom_site_label
_atom_site_fract_x
_atom_site_fract_y
_atom_site_fract_z
Si Si1 0.934321 0.830213 0.500000
Si Si2 0.252906 0.637959 0.500000
Si Si3 0.347597 0.093036 0.338970
Si Si4 0.967418 0.280240 0.500000
Si Si5 0.338531 0.557990 0.731725
Si Si6 0.165776 0.434707 0.892242
Si Si7 0.701089 0.195174 0.892820
Si Si8 0.159428 0.026371 0.571226
O O1 0.019416 0.778003 0.500000
O O2 0.830153 0.827258 0.561743
O O3 0.069852 0.867976 0.500000
O O4 0.186034 0.610280 0.560336
O O5 0.187907 0.692847 0.500000
O O6 0.301851 0.079526 0.268512
O O7 0.502403 0.069741 0.362303
O O8 0.341993 0.152045 0.345037
O O9 0.214110 0.067622 0.379781
O O10 0.061586 0.297169 0.561041
O O11 0.341571 0.500000 0.750000
O O12 0.500000 0.578713 0.750000
O O13 0.296377 0.566848 0.659640
O O14 0.208788 0.485631 0.926931
O O15 0.750000 0.250000 0.869857
O O16 0.151198 0.047059 0.500000
O O17 0.000000 0.000000 0.584635
#
# Coordination Sequence:
#
# PCOD9500146 Si02
#       8
#     8   8  16   8  16  16  16  16
#     4   9  21  33  64  88 129 168 214 252 312 371
#     4  12  23  36  62  98 139 156 205 263 321 376
#     4  12  24  39  69  85 128 170 208 260 318 366
#     4   9  17  41  56  92 127 167 204 265 309 373
#     4  11  25  45  66  87 122 168 223 261 302 374
#     4  12  25  40  60  97 128 165 204 257 313 383
#     4   9  20  38  62  94 125 166 215 251 309 379
#     4  11  25  38  57  91 132 167 208 254 312 381
#
# _framework density 10.190084000000001
#
# number of rings (size 3 to 8) (size 9 to 14) (size 15 to 20)
#    0.000    1.231    3.846    3.000    7.538    1.231 
#    0.000    0.000    0.000    3.692    0.000    0.000 
#    0.000    0.000    0.000    0.000    0.000    0.000 
#
# Total GULP energy -290004.777462 kJ/mol
# GULP energy per Si atom -5577.014951 kJ/mol
# Density = 1.016689 g / cm^3
# Si number density = 10.190084 Si / 1000 Ang^3
#
#
#
# Elastic Constant Matrix: (Units=GPa)
#
#
# Indices 1 2 3 4 5 6 
#
# 1 97.7974 -6.8175 17.1554 0.0000 0.0000 0.0000
# 2 -6.8175 49.5205 0.1377 0.0000 0.0000 0.0000
# 3 17.1554 0.1377 70.6204 0.0000 0.0000 0.0000
# 4 0.0000 0.0000 0.0000 6.5821 0.0000 0.0000
# 5 0.0000 0.0000 0.0000 0.0000 -39.1617 0.0000
# 6 0.0000 0.0000 0.0000 0.0000 0.0000 24.1876
#
#
#
# Elastic Compliance Matrix: (Units=1/GPa)
#
#
# Indices 1 2 3 4 5 6 
#
# 1 0.010790 0.001493 -0.002624 0.000000 0.000000 0.000000
# 2 0.001493 0.020400 -0.000402 0.000000 0.000000 0.000000
# 3 -0.002624 -0.000402 0.014798 0.000000 0.000000 0.000000
# 4 0.000000 0.000000 0.000000 0.151928 0.000000 0.000000
# 5 0.000000 0.000000 0.000000 0.000000 -0.025535 0.000000
# 6 0.000000 0.000000 0.000000 0.000000 0.000000 0.041344
#
#
# Mechanical properties :
#
#
# Convention : Reuss Voigt Hill
#
# Bulk Modulus (GPa) = 23.29863 26.54327 24.92095
# Shear Modulus (GPa) = 21.63577 12.15244 16.89411
#
# Velocity S-wave (km/s) = 3.26177 2.44455 2.88227
# Velocity P-wave (km/s) = 5.06383 4.58477 4.83024
#
# Compressibility (1/GPa) = 0.04292098
#
# Stress axis : x y z
#
# Youngs Moduli (GPa) = 92.68219 49.01897 67.57483
#
# Poissons Ratio (x) = -0.07317 0.17731
# Poissons Ratio (y) = -0.13835 0.02719
# Poissons Ratio (z) = 0.24319 0.01972
#
# Static dielectric constant tensor:
#      x y z
#    x 1.708140 0.000000 0.000000 
#    y 0.000000 1.549540 0.000000 
#    z 0.000000 0.000000 1.708280 
# 
# From -- ./inp_files/47453.got.cif
#   From: 2010.05.17/outbox.ucp.g08.bks.cvg/sg66_24_cif.got.tgz:47453.got - 2010.06.11 16:44:13.
