data_PCOD9500190
_publ_section_title
;
Structure prediction by ZEFSAII (Michael W. Deem and Ramdas Pophale) SiO2 
 PCOD9500190
Probable space group: C M M A
;
_chemical_formula_sum "Si O2"
_cell_formula_units_Z 72
_cell_length_a 8.576109
_cell_length_b 25.988206
_cell_length_c 21.274072
_cell_angle_alpha 90.000000
_cell_angle_beta 90.000000
_cell_angle_gamma 90.000000
_cell_volume 4741.515968
_symmetry_space_group_name_H-M "C M M A"
_symmetry_group_IT_number 67
_symmetry_cell_setting 'orthorhombic'
loop_
_space_group_symop_operation_xyz
x,y,z
-x,1/2-y,z
x,-y,-z
-x,1/2+y,-z
-x,-y,-z
x,1/2+y,-z
-x,y,z
x,1/2-y,z
1/2+x,1/2+y,z
1/2-x,-y,z
1/2+x,1/2-y,-z
1/2-x,y,-z
1/2-x,1/2-y,-z
1/2+x,y,-z
1/2-x,1/2+y,z
1/2+x,-y,z
loop_
_atom_site_type_symbol
_atom_site_label
_atom_site_fract_x
_atom_site_fract_y
_atom_site_fract_z
Si Si1 0.812705 0.750000 0.429063
Si Si2 0.813733 0.058668 0.804888
Si Si3 0.811890 0.136864 0.571458
Si Si4 0.313760 0.941142 0.065117
Si Si5 0.186042 0.441885 0.327097
O O1 0.750000 0.750000 0.500000
O O2 0.765893 0.805916 0.403190
O O3 0.000000 0.750000 0.430611
O O4 0.747729 0.082354 0.869484
O O5 0.753986 0.080186 0.738618
O O6 0.000000 0.057950 0.806829
O O7 0.750000 0.000000 0.803912
O O8 0.750000 0.132275 0.500000
O O9 0.741024 0.093342 0.615616
O O10 0.000000 0.133061 0.570928
O O11 0.500000 0.942421 0.064532
O O12 0.250000 0.000000 0.065448
O O13 0.250000 0.917774 0.000000
O O14 0.250000 0.500000 0.335032
O O15 0.000000 0.444075 0.323015
#
# Coordination Sequence:
#
# PCOD9500190 Si02
#       5
#     8  16  16  16  16
#     4   8  16  30  50  70  90 110 135 170 215 262
#     4  10  17  27  40  55  76 106 140 176 213 255
#     4  10  19  33  50  70  90 113 142 178 218 261
#     4  10  16  23  34  51  73 100 135 175 212 249
#     4  11  21  33  46  63  86 117 150 183 218 260
#
# _framework density 15.185017
#
# number of rings (size 3 to 8) (size 9 to 14) (size 15 to 20)
#    0.000    2.000    0.000   10.000    0.000    1.333 
#    0.000    2.222    0.000    0.000    0.000    0.000 
#    0.000    0.000    0.000    1.000    0.000   13.111 
#
# Total GULP energy -200510.541000 kJ/mol
# GULP energy per Si atom -5569.737250 kJ/mol
# Density = 1.515045 g / cm^3
# Si number density = 15.185017 Si / 1000 Ang^3
#
#
#
# Elastic Constant Matrix: (Units=GPa)
#
#
# Indices 1 2 3 4 5 6 
#
# 1 142.5043 28.2587 53.0808 0.0000 0.0000 0.0000
# 2 28.2587 56.1545 44.7325 0.0000 0.0000 0.0000
# 3 53.0808 44.7325 125.7863 0.0000 0.0000 0.0000
# 4 0.0000 0.0000 0.0000 -0.8839 0.0000 0.0000
# 5 0.0000 0.0000 0.0000 0.0000 29.0693 0.0000
# 6 0.0000 0.0000 0.0000 0.0000 0.0000 9.3167
#
#
#
# Elastic Compliance Matrix: (Units=1/GPa)
#
#
# Indices 1 2 3 4 5 6 
#
# 1 0.008480 -0.001977 -0.002876 0.000000 0.000000 0.000000
# 2 -0.001977 0.025308 -0.008166 0.000000 0.000000 0.000000
# 3 -0.002876 -0.008166 0.012067 0.000000 0.000000 0.000000
# 4 0.000000 0.000000 0.000000 -1.131290 0.000000 0.000000
# 5 0.000000 0.000000 0.000000 0.000000 0.034401 0.000000
# 6 0.000000 0.000000 0.000000 0.000000 0.000000 0.107334
#
#
# Mechanical properties :
#
#
# Convention : Reuss Voigt Hill
#
# Bulk Modulus (GPa) = 50.45676 64.06546 57.26111
# Shear Modulus (GPa) = -5.48813 20.72529 7.61858
#
# Velocity S-wave (km/s) = -1.90316 3.69840 2.24233
# Velocity P-wave (km/s) = 5.33580 7.77940 6.67045
#
# Compressibility (1/GPa) = 0.01981895
#
# Stress axis : x y z
#
# Youngs Moduli (GPa) = 117.91760 39.51372 82.86778
#
# Poissons Ratio (x) = 0.07812 0.23830
# Poissons Ratio (y) = 0.23311 0.67668
# Poissons Ratio (z) = 0.33909 0.32266
#
# Static dielectric constant tensor:
#      x y z
#    x 1.515310 0.000000 0.000000 
#    y 0.000000 1.494300 0.000000 
#    z 0.000000 0.000000 1.558110 
# 
# From -- ./inp_files/36842.got.cif
#   From: 2010.05.17/outbox.cif.g08.bks.cpg/sg67_19_cif.got.tgz:36842.got - 2010.06.03 18:28:57.
