data_PCOD9500260
_publ_section_title
;
Structure prediction by ZEFSAII (Michael W. Deem and Ramdas Pophale) SiO2 
 PCOD9500260
Probable space group: C M M A
;
_chemical_formula_sum "Si O2"
_cell_formula_units_Z 116
_cell_length_a 8.133991
_cell_length_b 30.287130
_cell_length_c 29.551995
_cell_angle_alpha 90.000000
_cell_angle_beta 90.000000
_cell_angle_gamma 90.000000
_cell_volume 7280.288905
_symmetry_space_group_name_H-M "C M M A"
_symmetry_group_IT_number 67
_symmetry_cell_setting 'orthorhombic'
loop_
_space_group_symop_operation_xyz
x,y,z
-x,1/2-y,z
x,-y,-z
-x,1/2+y,-z
-x,-y,-z
x,1/2+y,-z
-x,y,z
x,1/2-y,z
1/2+x,1/2+y,z
1/2-x,-y,z
1/2+x,1/2-y,-z
1/2-x,y,-z
1/2-x,1/2-y,-z
1/2+x,y,-z
1/2-x,1/2+y,z
1/2+x,-y,z
loop_
_atom_site_type_symbol
_atom_site_label
_atom_site_fract_x
_atom_site_fract_y
_atom_site_fract_z
Si Si1 0.692674 0.139992 0.631961
Si Si2 0.302679 0.092924 0.762132
Si Si3 0.688246 0.317120 0.278550
Si Si4 0.695331 0.949169 0.144348
Si Si5 0.000000 0.750000 0.732376
Si Si6 0.303997 0.549039 0.670457
Si Si7 0.802894 0.800079 0.447983
Si Si8 0.806312 0.448735 0.952062
O O1 0.500000 0.143877 0.642882
O O2 0.793362 0.167711 0.669203
O O3 0.741678 0.088816 0.638324
O O4 0.727259 0.162680 0.584050
O O5 0.212945 0.138230 0.750024
O O6 0.244346 0.074714 0.810458
O O7 0.265681 0.059869 0.720579
O O8 0.000000 0.051243 0.672462
O O9 0.500000 0.300514 0.271608
O O10 0.849157 0.287499 0.268637
O O11 0.500000 0.948628 0.145758
O O12 0.746296 0.929579 0.095668
O O13 0.750000 0.000000 0.145836
O O14 0.250000 0.500000 0.656592
O O15 0.000000 0.599644 0.763514
O O16 0.751486 0.750000 0.433892
O O17 0.750000 0.805573 0.500000
O O18 0.000000 0.802248 0.445093
O O19 0.750000 0.500000 0.952159
O O20 0.000000 0.448672 0.951647
O O21 0.750000 0.428866 0.000000
#
# Coordination Sequence:
#
# PCOD9500260 Si02
#       8
#    16  16  16  16   4  16  16  16
#     4  11  21  36  54  78 108 136 170 214 252 298
#     4  10  19  34  49  70 102 131 168 214 254 295
#     4  11  22  36  55  77 103 138 171 209 251 300
#     4  10  19  28  43  64  91 127 170 210 251 294
#     4  12  22  40  52  78 106 132 178 204 252 302
#     4  11  21  34  52  74  99 133 172 214 257 300
#     4  10  21  36  54  79 106 137 170 205 253 304
#     4  10  17  26  39  55  82 115 160 206 247 294
#
# _framework density 15.933433000000001
#
# number of rings (size 3 to 8) (size 9 to 14) (size 15 to 20)
#    0.000    1.517    1.379    8.483    0.966    4.138 
#    0.000    0.000    0.000    0.414    0.000    2.897 
#    0.000    0.000    0.000    0.621    3.034    0.828 
#
# Total GULP energy -322897.290048 kJ/mol
# GULP energy per Si atom -5567.194656 kJ/mol
# Density = 1.589717 g / cm^3
# Si number density = 15.933433 Si / 1000 Ang^3
#
#
#
# Elastic Constant Matrix: (Units=GPa)
#
#
# Indices 1 2 3 4 5 6 
#
# 1 106.5316 24.8516 20.2400 0.0000 0.0000 0.0000
# 2 24.8516 72.2248 49.8042 0.0000 0.0000 0.0000
# 3 20.2400 49.8042 102.4150 0.0000 0.0000 0.0000
# 4 0.0000 0.0000 0.0000 41.5804 0.0000 0.0000
# 5 0.0000 0.0000 0.0000 0.0000 24.6702 0.0000
# 6 0.0000 0.0000 0.0000 0.0000 0.0000 13.9310
#
#
#
# Elastic Compliance Matrix: (Units=1/GPa)
#
#
# Indices 1 2 3 4 5 6 
#
# 1 0.010221 -0.003196 -0.000466 0.000000 0.000000 0.000000
# 2 -0.003196 0.021830 -0.009984 0.000000 0.000000 0.000000
# 3 -0.000466 -0.009984 0.014712 0.000000 0.000000 0.000000
# 4 0.000000 0.000000 0.000000 0.024050 0.000000 0.000000
# 5 0.000000 0.000000 0.000000 0.000000 0.040535 0.000000
# 6 0.000000 0.000000 0.000000 0.000000 0.000000 0.071782
#
#
# Mechanical properties :
#
#
# Convention : Reuss Voigt Hill
#
# Bulk Modulus (GPa) = 51.35876 52.32920 51.84398
# Shear Modulus (GPa) = 23.05086 28.45470 25.75278
#
# Velocity S-wave (km/s) = 3.80767 4.23052 4.02465
# Velocity P-wave (km/s) = 7.18571 7.53503 7.36244
#
# Compressibility (1/GPa) = 0.01947088
#
# Stress axis : x y z
#
# Youngs Moduli (GPa) = 97.83906 45.80807 67.97313
#
# Poissons Ratio (x) = 0.14638 0.03167
# Poissons Ratio (y) = 0.31265 0.67867
# Poissons Ratio (z) = 0.04558 0.45737
#
# Static dielectric constant tensor:
#      x y z
#    x 1.560970 0.000000 0.000000 
#    y 0.000000 1.531560 0.000000 
#    z 0.000000 0.000000 1.604880 
# 
# From -- ./inp_files/43978.got.cif
#   From: 2010.05.17/outbox.cif.g08.bks.cpg/sg67_22_cif.got.tgz:43978.got - 2010.06.03 18:28:57.
