data_PCOD9500755
_publ_section_title
;
Structure prediction by ZEFSAII (Michael W. Deem and Ramdas Pophale) SiO2 
 PCOD9500755
Probable space group: C M M A
;
_chemical_formula_sum "Si O2"
_cell_formula_units_Z 88
_cell_length_a 20.227277
_cell_length_b 23.006982
_cell_length_c 10.112965
_cell_angle_alpha 90.000000
_cell_angle_beta 90.000000
_cell_angle_gamma 90.000000
_cell_volume 4706.256342
_symmetry_space_group_name_H-M "C M M A"
_symmetry_group_IT_number 67
_symmetry_cell_setting 'orthorhombic'
loop_
_space_group_symop_operation_xyz
x,y,z
-x,1/2-y,z
x,-y,-z
-x,1/2+y,-z
-x,-y,-z
x,1/2+y,-z
-x,y,z
x,1/2-y,z
1/2+x,1/2+y,z
1/2-x,-y,z
1/2+x,1/2-y,-z
1/2-x,y,-z
1/2-x,1/2-y,-z
1/2+x,y,-z
1/2-x,1/2+y,z
1/2+x,-y,z
loop_
_atom_site_type_symbol
_atom_site_label
_atom_site_fract_x
_atom_site_fract_y
_atom_site_fract_z
Si Si1 0.196827 0.125601 0.814070
Si Si2 0.320489 0.066636 0.454463
Si Si3 0.578695 0.750000 0.448550
Si Si4 0.151030 0.368615 0.098952
Si Si5 0.365558 0.750000 0.744887
Si Si6 0.578366 0.123525 0.648734
Si Si7 0.423168 0.250000 0.976369
O O1 0.178729 0.079886 0.700539
O O2 0.275064 0.131315 0.841377
O O3 0.173934 0.190123 0.769847
O O4 0.161104 0.107724 0.950761
O O5 0.250000 0.093244 0.500000
O O6 0.382037 0.094355 0.529649
O O7 0.319761 0.000000 0.500000
O O8 0.500000 0.750000 0.467692
O O9 0.609790 0.750000 0.594473
O O10 0.595079 0.808078 0.368305
O O11 0.105596 0.398070 0.210133
O O12 0.116939 0.306108 0.073014
O O13 0.419660 0.750000 0.863067
O O14 0.500000 0.115864 0.638928
O O15 0.500000 0.250000 0.932620
#
# Coordination Sequence:
#
# PCOD9500755 Si02
#       7
#    16  16   8  16   8  16   8
#     4  10  20  37  60  89 119 157 204 258 305 358
#     4  11  23  42  65  87 115 155 212 265 311 363
#     4  10  20  32  53  86 122 157 195 236 294 369
#     4  10  20  35  56  85 124 158 205 243 304 369
#     4  10  18  31  55  86 120 154 201 252 298 361
#     4  11  22  38  60  90 126 159 198 250 309 371
#     4  10  19  31  50  82 129 173 197 233 301 375
#
# _framework density 18.698512999999998
#
# number of rings (size 3 to 8) (size 9 to 14) (size 15 to 20)
#    0.000    1.636    3.636    1.909    0.000    3.273 
#    0.000    3.636    0.000    1.091    0.000    0.000 
#    0.000    0.000    0.000    0.000    0.000    0.000 
#
# Total GULP energy -245333.115524 kJ/mol
# GULP energy per Si atom -5575.752626 kJ/mol
# Density = 1.865595 g / cm^3
# Si number density = 18.698513 Si / 1000 Ang^3
#
#
#
# Elastic Constant Matrix: (Units=GPa)
#
#
# Indices 1 2 3 4 5 6 
#
# 1 98.3156 33.3190 67.4180 0.0000 0.0000 0.0000
# 2 33.3190 51.4297 36.8455 0.0000 0.0000 0.0000
# 3 67.4180 36.8455 177.8319 0.0000 0.0000 0.0000
# 4 0.0000 0.0000 0.0000 -4.1216 0.0000 0.0000
# 5 0.0000 0.0000 0.0000 0.0000 27.4796 0.0000
# 6 0.0000 0.0000 0.0000 0.0000 0.0000 9.1878
#
#
#
# Elastic Compliance Matrix: (Units=1/GPa)
#
#
# Indices 1 2 3 4 5 6 
#
# 1 0.015575 -0.006881 -0.004479 0.000000 0.000000 0.000000
# 2 -0.006881 0.025874 -0.002752 0.000000 0.000000 0.000000
# 3 -0.004479 -0.002752 0.007891 0.000000 0.000000 0.000000
# 4 0.000000 0.000000 0.000000 -0.242626 0.000000 0.000000
# 5 0.000000 0.000000 0.000000 0.000000 0.036391 0.000000
# 6 0.000000 0.000000 0.000000 0.000000 0.000000 0.108841
#
#
# Mechanical properties :
#
#
# Convention : Reuss Voigt Hill
#
# Bulk Modulus (GPa) = 47.35863 66.97135 57.16499
# Shear Modulus (GPa) = -390.87926 19.17546 -185.85190
#
# Velocity S-wave (km/s) = -14.47400 3.20583 -9.98047
# Velocity P-wave (km/s) = 15.93570 7.04253 10.10815
#
# Compressibility (1/GPa) = 0.02111548
#
# Stress axis : x y z
#
# Youngs Moduli (GPa) = 64.20703 38.64909 126.71981
#
# Poissons Ratio (x) = 0.26596 0.56754
# Poissons Ratio (y) = 0.44184 0.34874
# Poissons Ratio (z) = 0.28757 0.10636
#
# Static dielectric constant tensor:
#      x y z
#    x 1.625330 0.000000 0.000000 
#    y 0.000000 1.627170 0.000000 
#    z 0.000000 0.000000 1.677540 
# 
# From -- ./inp_files/11295.got.cif
#   From: 2010.05.17/outbox.cif.g08.bks.cpg/sg67_6_cif.got.tgz:11295.got - 2010.06.03 18:28:57.
