data_PCOD9500753
_publ_section_title
;
Structure prediction by ZEFSAII (Michael W. Deem and Ramdas Pophale) SiO2 
 PCOD9500753
Probable space group: C M M A
;
_chemical_formula_sum "Si O2"
_cell_formula_units_Z 96
_cell_length_a 11.208738
_cell_length_b 20.730580
_cell_length_c 19.145040
_cell_angle_alpha 90.000000
_cell_angle_beta 90.000000
_cell_angle_gamma 90.000000
_cell_volume 4448.611179
_symmetry_space_group_name_H-M "C M M A"
_symmetry_group_IT_number 67
_symmetry_cell_setting 'orthorhombic'
loop_
_space_group_symop_operation_xyz
x,y,z
-x,1/2-y,z
x,-y,-z
-x,1/2+y,-z
-x,-y,-z
x,1/2+y,-z
-x,y,z
x,1/2-y,z
1/2+x,1/2+y,z
1/2-x,-y,z
1/2+x,1/2-y,-z
1/2-x,y,-z
1/2-x,1/2-y,-z
1/2+x,y,-z
1/2-x,1/2+y,z
1/2+x,-y,z
loop_
_atom_site_type_symbol
_atom_site_label
_atom_site_fract_x
_atom_site_fract_y
_atom_site_fract_z
Si Si1 0.868490 0.843394 0.803037
Si Si2 0.368843 0.673668 0.462625
Si Si3 0.373668 0.993459 0.165865
Si Si4 0.368299 0.459715 0.321537
Si Si5 0.222747 0.179040 0.669910
Si Si6 0.132443 0.175391 0.033837
O O1 0.873942 0.920664 0.805693
O O2 0.769727 0.822045 0.748870
O O3 0.849536 0.823466 0.882871
O O4 0.000000 0.820789 0.781207
O O5 0.500000 0.646085 0.478024
O O6 0.373512 0.750000 0.481105
O O7 0.250000 0.646522 0.500000
O O8 0.336911 0.670884 0.380802
O O9 0.500000 0.005903 0.129681
O O10 0.250000 0.000000 0.125151
O O11 0.368084 0.035741 0.236605
O O12 0.500000 0.484304 0.343917
O O13 0.250000 0.500000 0.344307
O O14 0.355058 0.384698 0.341383
O O15 0.169892 0.250000 0.654321
O O16 0.127097 0.250000 0.009288
O O17 0.000000 0.146784 0.020809
O O18 0.250000 0.144735 0.000000
#
# Coordination Sequence:
#
# PCOD9500753 Si02
#       6
#    16  16  16  16  16  16
#     4  10  18  31  54  84 114 145 188 240 288 337
#     4   9  19  35  55  80 115 160 201 238 290 355
#     4   9  16  30  51  75 103 141 185 225 273 337
#     4  10  20  36  56  81 115 158 196 230 285 353
#     4  11  21  33  55  91 125 148 186 247 301 345
#     4   9  18  33  52  75 108 150 188 226 281 346
#
# _framework density 21.579768000000001
#
# number of rings (size 3 to 8) (size 9 to 14) (size 15 to 20)
#    0.000    2.333    3.333    1.000    0.000    3.333 
#    0.000    3.333    0.000    3.000    0.000    5.833 
#    0.000    0.000    0.000    0.000    0.000    0.000 
#
# Total GULP energy -267280.844474 kJ/mol
# GULP energy per Si atom -5568.350927 kJ/mol
# Density = 2.153065 g / cm^3
# Si number density = 21.579768 Si / 1000 Ang^3
#
#
#
# Elastic Constant Matrix: (Units=GPa)
#
#
# Indices 1 2 3 4 5 6 
#
# 1 210.9812 33.4960 35.6013 0.0000 0.0000 0.0000
# 2 33.4960 74.4658 -2.0174 0.0000 0.0000 0.0000
# 3 35.6013 -2.0174 35.7874 0.0000 0.0000 0.0000
# 4 0.0000 0.0000 0.0000 2.6903 0.0000 0.0000
# 5 0.0000 0.0000 0.0000 0.0000 9.8865 0.0000
# 6 0.0000 0.0000 0.0000 0.0000 0.0000 2.6501
#
#
#
# Elastic Compliance Matrix: (Units=1/GPa)
#
#
# Indices 1 2 3 4 5 6 
#
# 1 0.006305 -0.003010 -0.006442 0.000000 0.000000 0.000000
# 2 -0.003010 0.014887 0.003834 0.000000 0.000000 0.000000
# 3 -0.006442 0.003834 0.034567 0.000000 0.000000 0.000000
# 4 0.000000 0.000000 0.000000 0.371712 0.000000 0.000000
# 5 0.000000 0.000000 0.000000 0.000000 0.101148 0.000000
# 6 0.000000 0.000000 0.000000 0.000000 0.000000 0.377351
#
#
# Mechanical properties :
#
#
# Convention : Reuss Voigt Hill
#
# Bulk Modulus (GPa) = 22.46053 50.59935 36.52994
# Shear Modulus (GPa) = 5.36454 19.98901 12.67678
#
# Velocity S-wave (km/s) = 1.57839 3.04679 2.42634
# Velocity P-wave (km/s) = 3.70843 5.98964 4.98138
#
# Compressibility (1/GPa) = 0.04452254
#
# Stress axis : x y z
#
# Youngs Moduli (GPa) = 158.61271 67.17265 28.92938
#
# Poissons Ratio (x) = 0.20222 0.18635
# Poissons Ratio (y) = 0.47750 -0.11091
# Poissons Ratio (z) = 1.02171 -0.25754
#
# Static dielectric constant tensor:
#      x y z
#    x 1.882630 0.000000 0.000000 
#    y 0.000000 1.803630 0.000000 
#    z 0.000000 0.000000 1.752020 
# 
# From -- ./inp_files/33032.got.cif
#   From: 2010.05.17/outbox.cif.g08.bks.cpg/sg67_17_cif.got.tgz:33032.got - 2010.06.03 18:28:57.
