data_PCOD9500945
_publ_section_title
;
Structure prediction by ZEFSAII (Michael W. Deem and Ramdas Pophale) SiO2 
 PCOD9500945
Probable space group: C M M A
;
_chemical_formula_sum "Si O2"
_cell_formula_units_Z 96
_cell_length_a 16.246403
_cell_length_b 16.876767
_cell_length_c 18.290340
_cell_angle_alpha 90.000000
_cell_angle_beta 90.000000
_cell_angle_gamma 90.000000
_cell_volume 5014.969028
_symmetry_space_group_name_H-M "C M M A"
_symmetry_group_IT_number 67
_symmetry_cell_setting 'orthorhombic'
loop_
_space_group_symop_operation_xyz
x,y,z
-x,1/2-y,z
x,-y,-z
-x,1/2+y,-z
-x,-y,-z
x,1/2+y,-z
-x,y,z
x,1/2-y,z
1/2+x,1/2+y,z
1/2-x,-y,z
1/2+x,1/2-y,-z
1/2-x,y,-z
1/2-x,1/2-y,-z
1/2+x,y,-z
1/2-x,1/2+y,z
1/2+x,-y,z
loop_
_atom_site_type_symbol
_atom_site_label
_atom_site_fract_x
_atom_site_fract_y
_atom_site_fract_z
Si Si1 0.906507 0.112069 0.661273
Si Si2 0.232182 0.655966 0.084238
Si Si3 0.181489 0.429424 0.208262
Si Si4 0.222726 0.342135 0.359770
Si Si5 0.090212 0.424850 0.827051
Si Si6 0.592380 0.952166 0.424530
O O1 0.821611 0.148138 0.630606
O O2 0.900261 0.119320 0.748895
O O3 0.000000 0.139067 0.639401
O O4 0.902198 0.019837 0.637756
O O5 0.219442 0.750000 0.091560
O O6 0.303161 0.626392 0.138924
O O7 0.154755 0.607714 0.115191
O O8 0.250000 0.637646 0.000000
O O9 0.250000 0.500000 0.211915
O O10 0.195109 0.379156 0.281463
O O11 0.101975 0.482794 0.193561
O O12 0.202978 0.250000 0.362561
O O13 0.166898 0.391471 0.416099
O O14 0.000000 0.410075 0.855541
O O15 0.500000 0.916318 0.420618
O O16 0.598179 0.000000 0.500000
#
# Coordination Sequence:
#
# PCOD9500945 Si02
#       6
#    16  16  16  16  16  16
#     4  10  20  37  60  89 124 165 209 248 290 357
#     4  10  21  37  57  84 117 155 198 248 309 361
#     4  10  18  34  57  83 116 156 201 242 287 357
#     4  12  22  35  61  95 128 161 200 249 312 372
#     4  10  20  35  60  88 116 155 205 249 293 355
#     4  10  22  42  66  88 116 162 211 255 305 364
#
# _framework density 19.142690999999999
#
# number of rings (size 3 to 8) (size 9 to 14) (size 15 to 20)
#    0.000    1.667    5.000    1.000    0.000    5.333 
#    0.000    5.000    0.000    5.500    0.000    0.000 
#    0.000    0.000    0.000    0.000    0.000    0.000 
#
# Total GULP energy -267561.706308 kJ/mol
# GULP energy per Si atom -5574.202215 kJ/mol
# Density = 1.909912 g / cm^3
# Si number density = 19.142691 Si / 1000 Ang^3
#
#
#
# Elastic Constant Matrix: (Units=GPa)
#
#
# Indices 1 2 3 4 5 6 
#
# 1 101.9428 42.3534 43.1966 0.0000 0.0000 0.0000
# 2 42.3534 76.9786 31.0478 0.0000 0.0000 0.0000
# 3 43.1966 31.0478 71.8033 0.0000 0.0000 0.0000
# 4 0.0000 0.0000 0.0000 16.8298 0.0000 0.0000
# 5 0.0000 0.0000 0.0000 0.0000 24.2610 0.0000
# 6 0.0000 0.0000 0.0000 0.0000 0.0000 6.5339
#
#
#
# Elastic Compliance Matrix: (Units=1/GPa)
#
#
# Indices 1 2 3 4 5 6 
#
# 1 0.014895 -0.005549 -0.006562 0.000000 0.000000 0.000000
# 2 -0.005549 0.017802 -0.004359 0.000000 0.000000 0.000000
# 3 -0.006562 -0.004359 0.019759 0.000000 0.000000 0.000000
# 4 0.000000 0.000000 0.000000 0.059418 0.000000 0.000000
# 5 0.000000 0.000000 0.000000 0.000000 0.041218 0.000000
# 6 0.000000 0.000000 0.000000 0.000000 0.000000 0.153047
#
#
# Mechanical properties :
#
#
# Convention : Reuss Voigt Hill
#
# Bulk Modulus (GPa) = 51.23783 53.76893 52.50338
# Shear Modulus (GPa) = 14.46820 18.46674 16.46747
#
# Velocity S-wave (km/s) = 2.75218 3.10931 2.93618
# Velocity P-wave (km/s) = 6.07649 6.40624 6.24354
#
# Compressibility (1/GPa) = 0.01951683
#
# Stress axis : x y z
#
# Youngs Moduli (GPa) = 67.13628 56.17402 50.60897
#
# Poissons Ratio (x) = 0.31170 0.33207
# Poissons Ratio (y) = 0.37252 0.22063
# Poissons Ratio (z) = 0.44052 0.24489
#
# Static dielectric constant tensor:
#      x y z
#    x 1.732940 0.000000 0.000000 
#    y 0.000000 1.651490 0.000000 
#    z 0.000000 0.000000 1.687230 
# 
# From -- ./inp_files/34206.got.cif
#   From: 2010.05.17/outbox.cif.g08.bks.cpg/sg67_18_cif.got.tgz:34206.got - 2010.06.03 18:28:57.
