data_PCOD9500956
_publ_section_title
;
Structure prediction by ZEFSAII (Michael W. Deem and Ramdas Pophale) SiO2 
 PCOD9500956
Probable space group: C M M A
;
_chemical_formula_sum "Si O2"
_cell_formula_units_Z 112
_cell_length_a 14.899420
_cell_length_b 23.059167
_cell_length_c 15.427654
_cell_angle_alpha 90.000000
_cell_angle_beta 90.000000
_cell_angle_gamma 90.000000
_cell_volume 5300.451531
_symmetry_space_group_name_H-M "C M M A"
_symmetry_group_IT_number 67
_symmetry_cell_setting 'orthorhombic'
loop_
_space_group_symop_operation_xyz
x,y,z
-x,1/2-y,z
x,-y,-z
-x,1/2+y,-z
-x,-y,-z
x,1/2+y,-z
-x,y,z
x,1/2-y,z
1/2+x,1/2+y,z
1/2-x,-y,z
1/2+x,1/2-y,-z
1/2-x,y,-z
1/2-x,1/2-y,-z
1/2+x,y,-z
1/2-x,1/2+y,z
1/2+x,-y,z
loop_
_atom_site_type_symbol
_atom_site_label
_atom_site_fract_x
_atom_site_fract_y
_atom_site_fract_z
Si Si1 0.602444 0.616468 0.217681
Si Si2 0.608584 0.185857 0.614442
Si Si3 0.609064 0.655675 0.580399
Si Si4 0.857196 0.989251 0.229525
Si Si5 0.393955 0.851407 0.778024
Si Si6 0.240621 0.816827 0.902472
Si Si7 0.351025 0.023723 0.416282
O O1 0.500000 0.636812 0.211091
O O2 0.633998 0.635288 0.316413
O O3 0.604874 0.548593 0.190829
O O4 0.668055 0.648921 0.153076
O O5 0.500000 0.184279 0.610699
O O6 0.636103 0.250000 0.647354
O O7 0.637341 0.181930 0.512887
O O8 0.500000 0.655063 0.579558
O O9 0.631760 0.671953 0.680623
O O10 0.648869 0.591815 0.576454
O O11 0.750000 0.000000 0.226158
O O12 0.876771 0.921572 0.210049
O O13 0.893682 0.994183 0.327253
O O14 0.500000 0.841823 0.787859
O O15 0.333542 0.821767 0.850180
O O16 0.212954 0.750000 0.908682
O O17 0.250000 0.840183 0.000000
O O18 0.398532 0.000000 0.500000
O O19 0.250000 0.000000 0.413908
#
# Coordination Sequence:
#
# PCOD9500956 Si02
#       7
#    16  16  16  16  16  16  16
#     4  11  22  39  66  96 128 166 206 254 314 373
#     4   9  18  33  54  84 123 165 209 255 301 356
#     4   9  18  32  53  83 119 158 202 248 295 352
#     4  10  18  34  60  91 127 167 202 249 308 375
#     4  10  21  40  65  95 130 166 207 255 310 375
#     4  11  26  47  69  93 121 157 208 265 316 370
#     4   9  17  27  44  75 113 160 202 244 288 345
#
# _framework density 21.130275999999999
#
# number of rings (size 3 to 8) (size 9 to 14) (size 15 to 20)
#    0.000    2.143    1.429    1.714    0.000    3.143 
#    0.000    4.286    0.000    3.429    0.000    0.000 
#    0.000    0.000    0.000    0.000    0.000    0.000 
#
# Total GULP energy -311919.493751 kJ/mol
# GULP energy per Si atom -5569.990960 kJ/mol
# Density = 2.108218 g / cm^3
# Si number density = 21.130276 Si / 1000 Ang^3
#
#
#
# Elastic Constant Matrix: (Units=GPa)
#
#
# Indices 1 2 3 4 5 6 
#
# 1 76.1248 -3.6026 32.2490 0.0000 0.0000 0.0000
# 2 -3.6026 61.0391 18.4135 0.0000 0.0000 0.0000
# 3 32.2490 18.4135 112.5223 0.0000 0.0000 0.0000
# 4 0.0000 0.0000 0.0000 169.6402 0.0000 0.0000
# 5 0.0000 0.0000 0.0000 0.0000 23.6038 0.0000
# 6 0.0000 0.0000 0.0000 0.0000 0.0000 7.1420
#
#
#
# Elastic Compliance Matrix: (Units=1/GPa)
#
#
# Indices 1 2 3 4 5 6 
#
# 1 0.015262 0.002336 -0.004756 0.000000 0.000000 0.000000
# 2 0.002336 0.017591 -0.003548 0.000000 0.000000 0.000000
# 3 -0.004756 -0.003548 0.010831 0.000000 0.000000 0.000000
# 4 0.000000 0.000000 0.000000 0.005895 0.000000 0.000000
# 5 0.000000 0.000000 0.000000 0.000000 0.042366 0.000000
# 6 0.000000 0.000000 0.000000 0.000000 0.000000 0.140017
#
#
# Mechanical properties :
#
#
# Convention : Reuss Voigt Hill
#
# Bulk Modulus (GPa) = 31.49970 38.20066 34.85018
# Shear Modulus (GPa) = 19.64778 53.58561 36.61670
#
# Velocity S-wave (km/s) = 3.05264 5.04130 4.16733
# Velocity P-wave (km/s) = 5.23111 7.21139 6.29955
#
# Compressibility (1/GPa) = 0.03174633
#
# Stress axis : x y z
#
# Youngs Moduli (GPa) = 65.52332 56.84685 92.32859
#
# Poissons Ratio (x) = -0.13277 0.43914
# Poissons Ratio (y) = -0.15303 0.32759
# Poissons Ratio (z) = 0.31164 0.20169
#
# Static dielectric constant tensor:
#      x y z
#    x 1.768610 0.000000 0.000000 
#    y 0.000000 1.797960 0.000000 
#    z 0.000000 0.000000 1.794720 
# 
# From -- ./inp_files/27476.got.cif
#   From: 2010.05.17/outbox.cif.g08.bks.cpg/sg67_14_cif.got.tgz:27476.got - 2010.06.03 18:28:57.
