data_PCOD9500020
_publ_section_title
;
Structure prediction by ZEFSAII (Michael W. Deem and Ramdas Pophale) SiO2 
 PCOD9500020
Probable space group: C C C M
;
_chemical_formula_sum "Si O2"
_cell_formula_units_Z 96
_cell_length_a 34.422761
_cell_length_b 6.620630
_cell_length_c 14.335225
_cell_angle_alpha 90.000000
_cell_angle_beta 90.000000
_cell_angle_gamma 90.000000
_cell_volume 3267.002998
_symmetry_space_group_name_H-M "C C C M"
_symmetry_group_IT_number 66
_symmetry_cell_setting 'orthorhombic'
loop_
_space_group_symop_operation_xyz
x,y,z
-x,-y,z
x,-y,1/2-z
-x,y,1/2-z
-x,-y,-z
x,y,-z
-x,y,1/2+z
x,-y,1/2+z
1/2+x,1/2+y,z
1/2-x,1/2-y,z
1/2+x,1/2-y,1/2-z
1/2-x,1/2+y,1/2-z
1/2-x,1/2-y,-z
1/2+x,1/2+y,-z
1/2-x,1/2+y,1/2+z
1/2+x,1/2-y,1/2+z
loop_
_atom_site_type_symbol
_atom_site_label
_atom_site_fract_x
_atom_site_fract_y
_atom_site_fract_z
Si Si1 0.697020 0.041263 0.139399
Si Si2 0.135231 0.895136 0.387992
Si Si3 0.886289 0.658506 0.610190
Si Si4 0.280929 0.504953 0.639462
Si Si5 0.469320 0.777885 0.888208
Si Si6 0.447312 0.697078 0.388206
O O1 0.651642 0.016834 0.113649
O O2 0.706075 0.277725 0.113294
O O3 0.737750 0.948658 0.103208
O O4 0.696567 0.000000 0.250000
O O5 0.131156 0.898356 0.500000
O O6 0.128071 0.125032 0.350721
O O7 0.181160 0.856972 0.374722
O O8 0.096738 0.780753 0.352322
O O9 0.892544 0.687425 0.500000
O O10 0.929882 0.612733 0.645270
O O11 0.276041 0.500000 0.750000
O O12 0.513358 0.801271 0.851636
O O13 0.457489 0.541478 0.877148
O O14 0.472941 0.811180 0.000000
O O15 0.445686 0.737543 0.500000
#
# Coordination Sequence:
#
# PCOD9500020 Si02
#       6
#    16  16  16  16  16  16
#     4   9  17  28  41  57  79 111 148 181 217 262
#     4   8  13  21  35  57  81 104 135 175 219 262
#     4   8  13  21  35  57  81 104 138 183 221 253
#     4   9  17  28  41  57  80 111 145 181 219 261
#     4   7   9  14  26  47  76 104 125 151 194 246
#     4   7   9  14  26  47  76 104 124 148 193 250
#
# _framework density 29.384730999999999
#
# number of rings (size 3 to 8) (size 9 to 14) (size 15 to 20)
#    0.000    4.000    0.000    3.000    0.000    0.667 
#    0.000    3.333    0.000    1.000    0.000   25.667 
#    0.000    2.667    0.000    8.333    0.000    8.333 
#
# Total GULP energy -268146.095196 kJ/mol
# GULP energy per Si atom -5586.376983 kJ/mol
# Density = 2.931785 g / cm^3
# Si number density = 29.384731 Si / 1000 Ang^3
#
#
#
# Elastic Constant Matrix: (Units=GPa)
#
#
# Indices 1 2 3 4 5 6 
#
# 1 481.5798 99.0771 27.3693 0.0000 0.0000 0.0000
# 2 99.0771 118.4456 -7.9253 0.0000 0.0000 0.0000
# 3 27.3693 -7.9253 97.5249 0.0000 0.0000 0.0000
# 4 0.0000 0.0000 0.0000 -7.3542 0.0000 0.0000
# 5 0.0000 0.0000 0.0000 0.0000 -99.7315 0.0000
# 6 0.0000 0.0000 0.0000 0.0000 0.0000 79.7189
#
#
#
# Elastic Compliance Matrix: (Units=1/GPa)
#
#
# Indices 1 2 3 4 5 6 
#
# 1 0.002585 -0.002223 -0.000906 0.000000 0.000000 0.000000
# 2 -0.002223 0.010401 0.001469 0.000000 0.000000 0.000000
# 3 -0.000906 0.001469 0.010628 0.000000 0.000000 0.000000
# 4 0.000000 0.000000 0.000000 -0.135977 0.000000 0.000000
# 5 0.000000 0.000000 0.000000 0.000000 -0.010027 0.000000
# 6 0.000000 0.000000 0.000000 0.000000 0.000000 0.012544
#
#
# Mechanical properties :
#
#
# Convention : Reuss Voigt Hill
#
# Bulk Modulus (GPa) = 49.27831 103.84360 76.56095
# Shear Modulus (GPa) = -50.11994 33.12859 -8.49568
#
# Velocity S-wave (km/s) = -4.13443 3.36133 -1.70219
# Velocity P-wave (km/s) = 2.44640 7.10498 4.71677
#
# Compressibility (1/GPa) = 0.02029290
#
# Stress axis : x y z
#
# Youngs Moduli (GPa) = 386.78676 96.14724 94.09544
#
# Poissons Ratio (x) = 0.21376 0.08527
# Poissons Ratio (y) = 0.85993 -0.13824
# Poissons Ratio (z) = 0.35052 -0.14125
#
# Static dielectric constant tensor:
#      x y z
#    x 2.272070 0.000000 0.000000 
#    y 0.000000 2.420320 0.000000 
#    z 0.000000 0.000000 2.102800 
# 
# From -- ./inp_files/53117.got.cif
#   From: 2010.05.17/outbox.cif.g08.bks.cpg/sg66_27_cif.got.tgz:53117.got - 2010.06.03 17:51:23.
