data_PCOD9500269
_publ_section_title
;
Structure prediction by ZEFSAII (Michael W. Deem and Ramdas Pophale) SiO2 
 PCOD9500269
Probable space group: C M M A
;
_chemical_formula_sum "Si O2"
_cell_formula_units_Z 96
_cell_length_a 10.435551
_cell_length_b 27.340862
_cell_length_c 22.860266
_cell_angle_alpha 90.000000
_cell_angle_beta 90.000000
_cell_angle_gamma 90.000000
_cell_volume 6522.421595
_symmetry_space_group_name_H-M "C M M A"
_symmetry_group_IT_number 67
_symmetry_cell_setting 'orthorhombic'
loop_
_space_group_symop_operation_xyz
x,y,z
-x,1/2-y,z
x,-y,-z
-x,1/2+y,-z
-x,-y,-z
x,1/2+y,-z
-x,y,z
x,1/2-y,z
1/2+x,1/2+y,z
1/2-x,-y,z
1/2+x,1/2-y,-z
1/2-x,y,-z
1/2-x,1/2-y,-z
1/2+x,y,-z
1/2-x,1/2+y,z
1/2+x,-y,z
loop_
_atom_site_type_symbol
_atom_site_label
_atom_site_fract_x
_atom_site_fract_y
_atom_site_fract_z
Si Si1 0.000000 0.559036 0.064637
Si Si2 0.349749 0.855513 0.551798
Si Si3 0.500000 0.940169 0.069627
Si Si4 0.344877 0.695424 0.673603
Si Si5 0.752908 0.440848 0.860203
Si Si6 0.653487 0.598479 0.739014
Si Si7 0.352149 0.458238 0.382200
O O1 0.000000 0.499570 0.065121
O O2 0.126264 0.573641 0.099889
O O3 0.000000 0.576523 0.997698
O O4 0.500000 0.847289 0.536053
O O5 0.250000 0.847622 0.500000
O O6 0.317047 0.821394 0.607370
O O7 0.340009 0.911208 0.575673
O O8 0.374953 0.925709 0.105903
O O9 0.500000 0.695947 0.677190
O O10 0.297351 0.750000 0.685968
O O11 0.304256 0.652134 0.717034
O O12 0.750000 0.500000 0.855114
O O13 0.772156 0.419155 0.795942
O O14 0.500000 0.599253 0.751485
O O15 0.669848 0.562406 0.683544
O O16 0.500000 0.475593 0.385745
O O17 0.250000 0.500000 0.395797
#
# Coordination Sequence:
#
# PCOD9500269 Si02
#       7
#     8  16   8  16  16  16  16
#     4   9  16  28  40  56  87 123 154 183 211 241
#     4   9  18  31  47  67  91 114 142 178 216 259
#     4   9  18  26  38  60  87 121 156 181 207 249
#     4   8  15  29  49  69  87 109 139 181 226 263
#     4  10  17  26  41  61  88 121 151 180 213 249
#     4   9  16  28  44  63  87 112 145 184 220 258
#     4   9  18  31  44  61  87 119 149 181 215 248
#
# _framework density 14.718458999999999
#
# number of rings (size 3 to 8) (size 9 to 14) (size 15 to 20)
#    0.000    3.000    0.833    3.000    0.000    3.333 
#    1.500    1.667    1.833    0.000    0.000    0.000 
#    0.000    4.000    0.000    0.000    0.000    0.000 
#
# Total GULP energy -267278.995961 kJ/mol
# GULP energy per Si atom -5568.312416 kJ/mol
# Density = 1.468496 g / cm^3
# Si number density = 14.718459 Si / 1000 Ang^3
#
#
#
# Elastic Constant Matrix: (Units=GPa)
#
#
# Indices 1 2 3 4 5 6 
#
# 1 74.5538 17.9645 40.1034 0.0000 0.0000 0.0000
# 2 17.9645 46.5590 8.4380 0.0000 0.0000 0.0000
# 3 40.1034 8.4380 86.9690 0.0000 0.0000 0.0000
# 4 0.0000 0.0000 0.0000 8.5535 0.0000 0.0000
# 5 0.0000 0.0000 0.0000 0.0000 24.1515 0.0000
# 6 0.0000 0.0000 0.0000 0.0000 0.0000 9.2200
#
#
#
# Elastic Compliance Matrix: (Units=1/GPa)
#
#
# Indices 1 2 3 4 5 6 
#
# 1 0.019331 -0.005948 -0.008337 0.000000 0.000000 0.000000
# 2 -0.005948 0.023693 0.000444 0.000000 0.000000 0.000000
# 3 -0.008337 0.000444 0.015300 0.000000 0.000000 0.000000
# 4 0.000000 0.000000 0.000000 0.116912 0.000000 0.000000
# 5 0.000000 0.000000 0.000000 0.000000 0.041405 0.000000
# 6 0.000000 0.000000 0.000000 0.000000 0.000000 0.108460
#
#
# Mechanical properties :
#
#
# Convention : Reuss Voigt Hill
#
# Bulk Modulus (GPa) = 32.63532 37.89929 35.26731
# Shear Modulus (GPa) = 13.77429 17.82339 15.79884
#
# Velocity S-wave (km/s) = 3.06249 3.48365 3.27984
# Velocity P-wave (km/s) = 5.89290 6.47970 6.19325
#
# Compressibility (1/GPa) = 0.03064165
#
# Stress axis : x y z
#
# Youngs Moduli (GPa) = 51.73107 42.20737 65.36136
#
# Poissons Ratio (x) = 0.25104 0.54490
# Poissons Ratio (y) = 0.30768 -0.02901
# Poissons Ratio (z) = 0.43127 -0.01874
#
# Static dielectric constant tensor:
#      x y z
#    x 1.480460 0.000000 0.000000 
#    y 0.000000 1.479760 0.000000 
#    z 0.000000 0.000000 1.477110 
# 
# From -- ./inp_files/41610.got.cif
#   From: 2010.05.17/outbox.cif.g08.bks.cpg/sg67_21_cif.got.tgz:41610.got - 2010.06.03 18:28:57.
