data_PCOD9500469
_publ_section_title
;
Structure prediction by ZEFSAII (Michael W. Deem and Ramdas Pophale) SiO2 
 PCOD9500469
Probable space group: C M M A
;
_chemical_formula_sum "Si O2"
_cell_formula_units_Z 104
_cell_length_a 8.662808
_cell_length_b 26.745582
_cell_length_c 25.365466
_cell_angle_alpha 90.000000
_cell_angle_beta 90.000000
_cell_angle_gamma 90.000000
_cell_volume 5876.971533
_symmetry_space_group_name_H-M "C M M A"
_symmetry_group_IT_number 67
_symmetry_cell_setting 'orthorhombic'
loop_
_space_group_symop_operation_xyz
x,y,z
-x,1/2-y,z
x,-y,-z
-x,1/2+y,-z
-x,-y,-z
x,1/2+y,-z
-x,y,z
x,1/2-y,z
1/2+x,1/2+y,z
1/2-x,-y,z
1/2+x,1/2-y,-z
1/2-x,y,-z
1/2-x,1/2-y,-z
1/2+x,y,-z
1/2-x,1/2+y,z
1/2+x,-y,z
loop_
_atom_site_type_symbol
_atom_site_label
_atom_site_fract_x
_atom_site_fract_y
_atom_site_fract_z
Si Si1 0.815058 0.250000 0.440147
Si Si2 0.671660 0.250000 0.188640
Si Si3 0.685751 0.945639 0.373547
Si Si4 0.174368 0.750000 0.063076
Si Si5 0.313341 0.143113 0.825103
Si Si6 0.817293 0.857341 0.945693
Si Si7 0.184687 0.854075 0.440540
Si Si8 0.685544 0.946347 0.250555
O O1 0.750000 0.250000 0.500000
O O2 0.751793 0.302014 0.417242
O O3 0.000000 0.250000 0.440720
O O4 0.500000 0.250000 0.212586
O O5 0.655986 0.250000 0.125618
O O6 0.755986 0.303156 0.196812
O O7 0.500000 0.945013 0.378344
O O8 0.758493 0.901335 0.407402
O O9 0.728041 0.938640 0.311857
O O10 0.750000 0.000000 0.389739
O O11 0.271073 0.700839 0.051429
O O12 0.000000 0.750000 0.040440
O O13 0.500000 0.145442 0.826500
O O14 0.262780 0.130378 0.885677
O O15 0.262353 0.098927 0.786381
O O16 0.000000 0.864090 0.947339
O O17 0.750000 0.880657 0.000000
O O18 0.250000 0.858873 0.500000
O O19 0.000000 0.851313 0.442499
O O20 0.500000 0.948196 0.248176
O O21 0.750000 0.000000 0.233581
#
# Coordination Sequence:
#
# PCOD9500469 Si02
#       8
#     8   8  16   8  16  16  16  16
#     4  10  18  32  53  78 108 144 184 221 255 297
#     4   9  17  28  45  72 101 129 161 203 247 292
#     4  10  20  36  56  80 107 135 169 214 264 312
#     4   9  16  26  39  58  88 123 160 194 234 287
#     4   9  18  33  51  71  97 132 166 200 247 305
#     4  10  18  27  41  62  91 123 158 196 239 290
#     4  11  21  35  55  81 112 146 181 216 255 302
#     4   9  19  36  58  79  99 127 168 213 257 303
#
# _framework density 17.696190000000001
#
# number of rings (size 3 to 8) (size 9 to 14) (size 15 to 20)
#    0.000    2.308    0.000    4.615    0.000    4.000 
#    0.000    2.308    0.000    2.308    0.000    3.231 
#    0.000    0.000    0.000    0.000    0.000    0.000 
#
# Total GULP energy -289635.451074 kJ/mol
# GULP energy per Si atom -5569.912521 kJ/mol
# Density = 1.765591 g / cm^3
# Si number density = 17.696190 Si / 1000 Ang^3
#
#
#
# Elastic Constant Matrix: (Units=GPa)
#
#
# Indices 1 2 3 4 5 6 
#
# 1 78.8627 49.3952 30.3249 0.0000 0.0000 0.0000
# 2 49.3952 159.2722 76.6742 0.0000 0.0000 0.0000
# 3 30.3249 76.6742 64.7248 0.0000 0.0000 0.0000
# 4 0.0000 0.0000 0.0000 61.9419 0.0000 0.0000
# 5 0.0000 0.0000 0.0000 0.0000 19.7236 0.0000
# 6 0.0000 0.0000 0.0000 0.0000 0.0000 27.5156
#
#
#
# Elastic Compliance Matrix: (Units=1/GPa)
#
#
# Indices 1 2 3 4 5 6 
#
# 1 0.016128 -0.003175 -0.003796 0.000000 0.000000 0.000000
# 2 -0.003175 0.015236 -0.016561 0.000000 0.000000 0.000000
# 3 -0.003796 -0.016561 0.036847 0.000000 0.000000 0.000000
# 4 0.000000 0.000000 0.000000 0.016144 0.000000 0.000000
# 5 0.000000 0.000000 0.000000 0.000000 0.050701 0.000000
# 6 0.000000 0.000000 0.000000 0.000000 0.000000 0.036343
#
#
# Mechanical properties :
#
#
# Convention : Reuss Voigt Hill
#
# Bulk Modulus (GPa) = 47.28570 68.40537 57.84554
# Shear Modulus (GPa) = 22.17185 31.60057 26.88621
#
# Velocity S-wave (km/s) = 3.54350 4.23037 3.90208
# Velocity P-wave (km/s) = 6.59702 7.91206 7.28428
#
# Compressibility (1/GPa) = 0.02114804
#
# Stress axis : x y z
#
# Youngs Moduli (GPa) = 62.00317 65.63541 27.13921
#
# Poissons Ratio (x) = 0.20836 0.10301
# Poissons Ratio (y) = 0.19683 0.44946
# Poissons Ratio (z) = 0.23535 1.08700
#
# Static dielectric constant tensor:
#      x y z
#    x 1.622360 0.000000 0.000000 
#    y 0.000000 1.594820 0.000000 
#    z 0.000000 0.000000 1.640640 
# 
# From -- ./inp_files/41052.got.cif
#   From: 2010.05.17/outbox.cif.g08.bks.cpg/sg67_21_cif.got.tgz:41052.got - 2010.06.03 18:28:57.
