data_PCOD9500988
_publ_section_title
;
Structure prediction by ZEFSAII (Michael W. Deem and Ramdas Pophale) SiO2 
 PCOD9500988
Probable space group: C M M A
;
_chemical_formula_sum "Si O2"
_cell_formula_units_Z 72
_cell_length_a 27.471103
_cell_length_b 14.677329
_cell_length_c 9.673573
_cell_angle_alpha 90.000000
_cell_angle_beta 90.000000
_cell_angle_gamma 90.000000
_cell_volume 3900.408012
_symmetry_space_group_name_H-M "C M M A"
_symmetry_group_IT_number 67
_symmetry_cell_setting 'orthorhombic'
loop_
_space_group_symop_operation_xyz
x,y,z
-x,1/2-y,z
x,-y,-z
-x,1/2+y,-z
-x,-y,-z
x,1/2+y,-z
-x,y,z
x,1/2-y,z
1/2+x,1/2+y,z
1/2-x,-y,z
1/2+x,1/2-y,-z
1/2-x,y,-z
1/2-x,1/2-y,-z
1/2+x,y,-z
1/2-x,1/2+y,z
1/2+x,-y,z
loop_
_atom_site_type_symbol
_atom_site_label
_atom_site_fract_x
_atom_site_fract_y
_atom_site_fract_z
Si Si1 0.944507 0.597191 0.927326
Si Si2 0.343091 0.894712 0.502807
Si Si3 0.055044 0.859691 0.611067
Si Si4 0.368923 0.250000 0.996659
Si Si5 0.691114 0.250000 0.276512
Si Si6 0.693285 0.250000 0.717865
O O1 0.937471 0.595008 0.761334
O O2 0.904535 0.663657 0.989509
O O3 0.000000 0.631477 0.947722
O O4 0.940862 0.500000 0.000000
O O5 0.401718 0.888229 0.489758
O O6 0.324850 0.838470 0.634896
O O7 0.322367 0.837824 0.372552
O O8 0.328304 0.000000 0.500000
O O9 0.058602 0.750000 0.631981
O O10 0.000000 0.879640 0.563022
O O11 0.335514 0.250000 0.860609
O O12 0.335989 0.250000 0.131498
O O13 0.749097 0.250000 0.261912
#
# Coordination Sequence:
#
# PCOD9500988 Si02
#       6
#    16  16  16   8   8   8
#     4  10  20  35  60  90 122 161 198 235 290 364
#     4  11  22  41  65  89 119 162 199 243 301 362
#     4  10  18  36  63  88 120 164 201 233 292 366
#     4  12  22  40  65  90 119 157 196 256 298 352
#     4  11  27  40  60  93 120 147 210 262 301 347
#     4  11  23  46  63  83 117 164 202 249 308 361
#
# _framework density 18.459606999999998
#
# number of rings (size 3 to 8) (size 9 to 14) (size 15 to 20)
#    0.000    1.333    5.556    2.000    3.111    2.222 
#    0.000    2.222    0.000    4.000    0.000    0.000 
#    0.000    0.000    0.000    0.000    0.000    0.000 
#
# Total GULP energy -201135.967374 kJ/mol
# GULP energy per Si atom -5587.110205 kJ/mol
# Density = 1.841759 g / cm^3
# Si number density = 18.459607 Si / 1000 Ang^3
#
#
#
# Elastic Constant Matrix: (Units=GPa)
#
#
# Indices 1 2 3 4 5 6 
#
# 1 162.7925 53.4034 61.5034 0.0000 0.0000 0.0000
# 2 53.4034 130.7004 54.8618 0.0000 0.0000 0.0000
# 3 61.5034 54.8618 103.0728 0.0000 0.0000 0.0000
# 4 0.0000 0.0000 0.0000 6.8960 0.0000 0.0000
# 5 0.0000 0.0000 0.0000 0.0000 47.1362 0.0000
# 6 0.0000 0.0000 0.0000 0.0000 0.0000 2.0062
#
#
#
# Elastic Compliance Matrix: (Units=1/GPa)
#
#
# Indices 1 2 3 4 5 6 
#
# 1 0.008204 -0.001671 -0.004006 0.000000 0.000000 0.000000
# 2 -0.001671 0.010192 -0.004428 0.000000 0.000000 0.000000
# 3 -0.004006 -0.004428 0.014449 0.000000 0.000000 0.000000
# 4 0.000000 0.000000 0.000000 0.145012 0.000000 0.000000
# 5 0.000000 0.000000 0.000000 0.000000 0.021215 0.000000
# 6 0.000000 0.000000 0.000000 0.000000 0.000000 0.498463
#
#
# Mechanical properties :
#
#
# Convention : Reuss Voigt Hill
#
# Bulk Modulus (GPa) = 79.13929 81.78923 80.46426
# Shear Modulus (GPa) = 6.92560 26.32749 16.62655
#
# Velocity S-wave (km/s) = 1.93905 3.78063 3.00442
# Velocity P-wave (km/s) = 6.92661 7.96623 7.46454
#
# Compressibility (1/GPa) = 0.01263595
#
# Stress axis : x y z
#
# Youngs Moduli (GPa) = 121.88522 98.11203 69.20681
#
# Poissons Ratio (x) = 0.16391 0.27727
# Poissons Ratio (y) = 0.20362 0.30646
# Poissons Ratio (z) = 0.48832 0.43446
#
# Static dielectric constant tensor:
#      x y z
#    x 1.642050 0.000000 0.000000 
#    y 0.000000 1.630330 0.000000 
#    z 0.000000 0.000000 1.608360 
# 
# From -- ./inp_files/8332.got.cif
#   From: 2010.05.17/outbox.cif.g08.bks.cpg/sg67_5_cif.got.tgz:8332.got - 2010.06.03 18:28:57.
