data_PCOD9500700
_publ_section_title
;
Structure prediction by ZEFSAII (Michael W. Deem and Ramdas Pophale) SiO2 
 PCOD9500700
Probable space group: C M M A
;
_chemical_formula_sum "Si O2"
_cell_formula_units_Z 96
_cell_length_a 14.734240
_cell_length_b 10.204711
_cell_length_c 29.730868
_cell_angle_alpha 90.000000
_cell_angle_beta 90.000000
_cell_angle_gamma 90.000000
_cell_volume 4470.293503
_symmetry_space_group_name_H-M "C M M A"
_symmetry_group_IT_number 67
_symmetry_cell_setting 'orthorhombic'
loop_
_space_group_symop_operation_xyz
x,y,z
-x,1/2-y,z
x,-y,-z
-x,1/2+y,-z
-x,-y,-z
x,1/2+y,-z
-x,y,z
x,1/2-y,z
1/2+x,1/2+y,z
1/2-x,-y,z
1/2+x,1/2-y,-z
1/2-x,y,-z
1/2-x,1/2-y,-z
1/2+x,y,-z
1/2-x,1/2+y,z
1/2+x,-y,z
loop_
_atom_site_type_symbol
_atom_site_label
_atom_site_fract_x
_atom_site_fract_y
_atom_site_fract_z
Si Si1 0.337920 0.905242 0.138891
Si Si2 0.108055 0.750000 0.390095
Si Si3 0.361508 0.009136 0.765868
Si Si4 0.389012 0.494407 0.448285
Si Si5 0.156116 0.088626 0.039022
Si Si6 0.890655 0.750000 0.604569
Si Si7 0.350707 0.750000 0.291583
Si Si8 0.363662 0.250000 0.282812
O O1 0.313972 0.750000 0.144872
O O2 0.388984 0.953200 0.183538
O O3 0.383081 0.916148 0.089599
O O4 0.250000 0.000000 0.137333
O O5 0.142838 0.624797 0.417314
O O6 0.119965 0.750000 0.336361
O O7 0.000000 0.750000 0.396228
O O8 0.389625 0.122265 0.731726
O O9 0.250000 0.000000 0.766663
O O10 0.395765 0.876091 0.744240
O O11 0.359496 0.500000 0.500000
O O12 0.500000 0.490145 0.449401
O O13 0.361225 0.624131 0.422653
O O14 0.165679 0.250000 0.029285
O O15 0.250000 0.000000 0.043319
O O16 0.109127 0.000000 0.000000
O O17 0.858715 0.750000 0.655386
O O18 0.000000 0.750000 0.606068
O O19 0.244926 0.750000 0.279686
#
# Coordination Sequence:
#
# PCOD9500700 Si02
#       8
#    16   8  16  16  16   8   8   8
#     4   9  16  24  36  52  74 103 142 187 223 257
#     4  10  19  32  50  70  92 115 143 179 215 256
#     4   9  17  28  41  59  79 108 147 181 216 254
#     4   9  17  30  49  71  92 114 143 178 212 251
#     4   9  15  22  30  45  68  98 135 177 223 265
#     4  10  19  30  48  72  90 113 147 177 213 256
#     4  10  18  31  47  61  89 116 142 184 215 254
#     4  10  20  31  45  65  87 116 148 178 219 260
#
# _framework density 21.475100000000001
#
# number of rings (size 3 to 8) (size 9 to 14) (size 15 to 20)
#    0.000    2.667    0.833    2.500    3.500    2.667 
#    0.000    0.000    0.000    3.000    0.000    0.000 
#    0.000    0.000    0.000    0.000    0.000    5.000 
#
# Total GULP energy -267299.475650 kJ/mol
# GULP energy per Si atom -5568.739076 kJ/mol
# Density = 2.142622 g / cm^3
# Si number density = 21.475100 Si / 1000 Ang^3
#
#
#
# Elastic Constant Matrix: (Units=GPa)
#
#
# Indices 1 2 3 4 5 6 
#
# 1 64.4411 13.6441 -1.3051 0.0000 0.0000 0.0000
# 2 13.6441 239.2250 131.4826 0.0000 0.0000 0.0000
# 3 -1.3051 131.4826 248.5777 0.0000 0.0000 0.0000
# 4 0.0000 0.0000 0.0000 46.9589 0.0000 0.0000
# 5 0.0000 0.0000 0.0000 0.0000 -103.4121 0.0000
# 6 0.0000 0.0000 0.0000 0.0000 0.0000 -21.9184
#
#
#
# Elastic Compliance Matrix: (Units=1/GPa)
#
#
# Indices 1 2 3 4 5 6 
#
# 1 0.015817 -0.001336 0.000790 0.000000 0.000000 0.000000
# 2 -0.001336 0.006006 -0.003184 0.000000 0.000000 0.000000
# 3 0.000790 -0.003184 0.005711 0.000000 0.000000 0.000000
# 4 0.000000 0.000000 0.000000 0.021295 0.000000 0.000000
# 5 0.000000 0.000000 0.000000 0.000000 -0.009670 0.000000
# 6 0.000000 0.000000 0.000000 0.000000 0.000000 -0.045624
#
#
# Mechanical properties :
#
#
# Convention : Reuss Voigt Hill
#
# Bulk Modulus (GPa) = 49.81649 93.32079 71.56864
# Shear Modulus (GPa) = 650.36766 11.55382 330.96074
#
# Velocity S-wave (km/s) = 17.42139 2.32202 12.42772
# Velocity P-wave (km/s) = 20.68624 7.12311 15.47029
#
# Compressibility (1/GPa) = 0.02007368
#
# Stress axis : x y z
#
# Youngs Moduli (GPa) = 63.22330 166.48976 175.09484
#
# Poissons Ratio (x) = 0.22247 -0.13829
# Poissons Ratio (y) = 0.08448 0.55751
# Poissons Ratio (z) = -0.04993 0.53011
#
# Static dielectric constant tensor:
#      x y z
#    x 1.890630 0.000000 0.000000 
#    y 0.000000 1.660060 0.000000 
#    z 0.000000 0.000000 1.786110 
# 
# From -- ./inp_files/44821.got.cif
#   From: 2010.05.17/outbox.cif.g08.bks.cpg/sg67_23_cif.got.tgz:44821.got - 2010.06.03 18:28:57.
