data_PCOD9500674
_publ_section_title
;
Structure prediction by ZEFSAII (Michael W. Deem and Ramdas Pophale) SiO2 
 PCOD9500674
Probable space group: C M M A
;
_chemical_formula_sum "Si O2"
_cell_formula_units_Z 120
_cell_length_a 8.581254
_cell_length_b 27.615296
_cell_length_c 29.034173
_cell_angle_alpha 90.000000
_cell_angle_beta 90.000000
_cell_angle_gamma 90.000000
_cell_volume 6880.340317
_symmetry_space_group_name_H-M "C M M A"
_symmetry_group_IT_number 67
_symmetry_cell_setting 'orthorhombic'
loop_
_space_group_symop_operation_xyz
x,y,z
-x,1/2-y,z
x,-y,-z
-x,1/2+y,-z
-x,-y,-z
x,1/2+y,-z
-x,y,z
x,1/2-y,z
1/2+x,1/2+y,z
1/2-x,-y,z
1/2+x,1/2-y,-z
1/2-x,y,-z
1/2-x,1/2-y,-z
1/2+x,y,-z
1/2-x,1/2+y,z
1/2+x,-y,z
loop_
_atom_site_type_symbol
_atom_site_label
_atom_site_fract_x
_atom_site_fract_y
_atom_site_fract_z
Si Si1 0.188602 0.899989 0.309024
Si Si2 0.312356 0.147204 0.947839
Si Si3 0.812892 0.553294 0.214284
Si Si4 0.686747 0.446032 0.887216
Si Si5 0.310446 0.802984 0.642587
Si Si6 0.686500 0.645852 0.550031
Si Si7 0.813403 0.250000 0.947463
Si Si8 0.814622 0.052203 0.399675
O O1 0.232182 0.913052 0.257100
O O2 0.238497 0.846296 0.324118
O O3 0.258536 0.935191 0.347787
O O4 0.000000 0.903312 0.312643
O O5 0.500000 0.150174 0.948578
O O6 0.266119 0.098718 0.919994
O O7 0.247615 0.198459 0.928103
O O8 0.250000 0.142842 0.000000
O O9 0.750000 0.500000 0.225655
O O10 0.743824 0.565650 0.164470
O O11 0.000000 0.552191 0.210637
O O12 0.500000 0.449126 0.887659
O O13 0.750000 0.500000 0.899334
O O14 0.500000 0.802417 0.643586
O O15 0.253180 0.750000 0.655243
O O16 0.265629 0.817247 0.590543
O O17 0.500000 0.644387 0.548709
O O18 0.750000 0.658169 0.500000
O O19 0.747884 0.593888 0.567274
O O20 0.000000 0.250000 0.947530
O O21 0.750000 0.250000 0.000000
O O22 0.000000 0.052695 0.401369
O O23 0.750000 0.000000 0.412896
#
# Coordination Sequence:
#
# PCOD9500674 Si02
#       8
#    16  16  16  16  16  16   8  16
#     4   9  18  32  51  76 101 128 163 204 247 293
#     4  10  20  34  53  77 105 140 180 222 270 318
#     4  10  19  31  50  74 102 134 169 209 251 300
#     4  10  21  35  52  75 105 142 178 217 264 317
#     4   8  15  30  52  74  97 127 160 198 244 288
#     4  10  20  34  50  71  98 127 163 200 239 290
#     4  10  18  30  52  78 102 132 172 220 266 308
#     4  11  21  33  50  72  98 128 160 198 242 291
#
# _framework density 17.440999000000001
#
# number of rings (size 3 to 8) (size 9 to 14) (size 15 to 20)
#    0.000    2.267    0.000    6.200    0.000    5.067 
#    0.000    2.667    1.467    9.600    0.000    0.000 
#    0.000    0.000    0.000    0.000    0.000    0.000 
#
# Total GULP energy -334620.832460 kJ/mol
# GULP energy per Si atom -5577.013874 kJ/mol
# Density = 1.740130 g / cm^3
# Si number density = 17.440999 Si / 1000 Ang^3
#
#
#
# Elastic Constant Matrix: (Units=GPa)
#
#
# Indices 1 2 3 4 5 6 
#
# 1 57.8407 28.1445 25.7588 0.0000 0.0000 0.0000
# 2 28.1445 105.5025 62.9599 0.0000 0.0000 0.0000
# 3 25.7588 62.9599 90.3826 0.0000 0.0000 0.0000
# 4 0.0000 0.0000 0.0000 6.9237 0.0000 0.0000
# 5 0.0000 0.0000 0.0000 0.0000 24.6736 0.0000
# 6 0.0000 0.0000 0.0000 0.0000 0.0000 18.6617
#
#
#
# Elastic Compliance Matrix: (Units=1/GPa)
#
#
# Indices 1 2 3 4 5 6 
#
# 1 0.020487 -0.003390 -0.003477 0.000000 0.000000 0.000000
# 2 -0.003390 0.016783 -0.010725 0.000000 0.000000 0.000000
# 3 -0.003477 -0.010725 0.019526 0.000000 0.000000 0.000000
# 4 0.000000 0.000000 0.000000 0.144432 0.000000 0.000000
# 5 0.000000 0.000000 0.000000 0.000000 0.040529 0.000000
# 6 0.000000 0.000000 0.000000 0.000000 0.000000 0.053586
#
#
# Mechanical properties :
#
#
# Convention : Reuss Voigt Hill
#
# Bulk Modulus (GPa) = 46.27133 54.16137 50.21635
# Shear Modulus (GPa) = 14.80469 19.17597 16.99033
#
# Velocity S-wave (km/s) = 2.91665 3.31943 3.12454
# Velocity P-wave (km/s) = 6.15876 6.76853 6.47083
#
# Compressibility (1/GPa) = 0.02161166
#
# Stress axis : x y z
#
# Youngs Moduli (GPa) = 48.81143 59.58435 51.21427
#
# Poissons Ratio (x) = 0.20200 0.17808
# Poissons Ratio (y) = 0.16548 0.54926
# Poissons Ratio (z) = 0.16973 0.63902
#
# Static dielectric constant tensor:
#      x y z
#    x 1.594940 0.000000 0.000000 
#    y 0.000000 1.604220 0.000000 
#    z 0.000000 0.000000 1.578870 
# 
# From -- ./inp_files/43934.got.cif
#   From: 2010.05.17/outbox.cif.g08.bks.cpg/sg67_22_cif.got.tgz:43934.got - 2010.06.03 18:28:57.
