data_PCOD9500280
_publ_section_title
;
Structure prediction by ZEFSAII (Michael W. Deem and Ramdas Pophale) SiO2 
 PCOD9500280
Probable space group: C M M A
;
_chemical_formula_sum "Si O2"
_cell_formula_units_Z 104
_cell_length_a 8.601047
_cell_length_b 26.752255
_cell_length_c 28.502202
_cell_angle_alpha 90.000000
_cell_angle_beta 90.000000
_cell_angle_gamma 90.000000
_cell_volume 6558.282649
_symmetry_space_group_name_H-M "C M M A"
_symmetry_group_IT_number 67
_symmetry_cell_setting 'orthorhombic'
loop_
_space_group_symop_operation_xyz
x,y,z
-x,1/2-y,z
x,-y,-z
-x,1/2+y,-z
-x,-y,-z
x,1/2+y,-z
-x,y,z
x,1/2-y,z
1/2+x,1/2+y,z
1/2-x,-y,z
1/2+x,1/2-y,-z
1/2-x,y,-z
1/2-x,1/2-y,-z
1/2+x,y,-z
1/2-x,1/2+y,z
1/2+x,-y,z
loop_
_atom_site_type_symbol
_atom_site_label
_atom_site_fract_x
_atom_site_fract_y
_atom_site_fract_z
Si Si1 0.680389 0.305068 0.711884
Si Si2 0.689543 0.250000 0.447253
Si Si3 0.184422 0.443922 0.855351
Si Si4 0.185238 0.057030 0.048361
Si Si5 0.683095 0.908504 0.242362
Si Si6 0.183047 0.841283 0.382790
Si Si7 0.812444 0.445697 0.658121
O O1 0.500000 0.307823 0.695409
O O2 0.707791 0.250000 0.731153
O O3 0.700412 0.349642 0.747971
O O4 0.787801 0.315310 0.667326
O O5 0.500000 0.250000 0.446158
O O6 0.750000 0.250000 0.500000
O O7 0.743815 0.300922 0.420588
O O8 0.250000 0.500000 0.853139
O O9 0.257091 0.420064 0.902503
O O10 0.233527 0.420888 0.805934
O O11 0.000000 0.445000 0.860399
O O12 0.000000 0.055415 0.047021
O O13 0.250000 0.000000 0.048999
O O14 0.250000 0.079906 0.000000
O O15 0.752863 0.934952 0.288783
O O16 0.000000 0.078686 0.239297
O O17 0.241925 0.898367 0.374148
O O18 0.000000 0.846299 0.391956
O O19 0.750000 0.500000 0.643241
O O20 0.000000 0.446080 0.658552
#
# Coordination Sequence:
#
# PCOD9500280 Si02
#       7
#    16   8  16  16  16  16  16
#     4   9  17  29  47  69  92 118 149 184 223 268
#     4  10  20  34  52  76 100 122 150 192 237 280
#     4  11  20  30  42  58  83 116 152 188 226 266
#     4  10  17  27  41  58  79 107 144 184 227 271
#     4  10  19  30  43  63  91 121 152 186 224 268
#     4   9  18  32  50  70  95 124 154 187 229 275
#     4  10  19  31  47  68  93 124 158 191 224 268
#
# _framework density 15.857810000000001
#
# number of rings (size 3 to 8) (size 9 to 14) (size 15 to 20)
#    0.000    2.154    0.769    5.538    0.000    1.846 
#    0.000    0.000    0.000    0.462    0.000    3.231 
#    0.000    0.615    0.000    1.692    0.000    2.769 
#
# Total GULP energy -289614.127269 kJ/mol
# GULP energy per Si atom -5569.502447 kJ/mol
# Density = 1.582172 g / cm^3
# Si number density = 15.857810 Si / 1000 Ang^3
#
#
#
# Elastic Constant Matrix: (Units=GPa)
#
#
# Indices 1 2 3 4 5 6 
#
# 1 77.3506 24.3250 31.4136 0.0000 0.0000 0.0000
# 2 24.3250 99.3186 41.3352 0.0000 0.0000 0.0000
# 3 31.4136 41.3352 101.4916 0.0000 0.0000 0.0000
# 4 0.0000 0.0000 0.0000 12.3305 0.0000 0.0000
# 5 0.0000 0.0000 0.0000 0.0000 26.1578 0.0000
# 6 0.0000 0.0000 0.0000 0.0000 0.0000 12.9108
#
#
#
# Elastic Compliance Matrix: (Units=1/GPa)
#
#
# Indices 1 2 3 4 5 6 
#
# 1 0.015148 -0.002118 -0.003826 0.000000 0.000000 0.000000
# 2 -0.002118 0.012420 -0.004403 0.000000 0.000000 0.000000
# 3 -0.003826 -0.004403 0.012830 0.000000 0.000000 0.000000
# 4 0.000000 0.000000 0.000000 0.081100 0.000000 0.000000
# 5 0.000000 0.000000 0.000000 0.000000 0.038230 0.000000
# 6 0.000000 0.000000 0.000000 0.000000 0.000000 0.077455
#
#
# Mechanical properties :
#
#
# Convention : Reuss Voigt Hill
#
# Bulk Modulus (GPa) = 50.74867 52.47874 51.61370
# Shear Modulus (GPa) = 18.90765 22.35229 20.62997
#
# Velocity S-wave (km/s) = 3.45675 3.75846 3.61076
# Velocity P-wave (km/s) = 6.92849 7.21109 7.07120
#
# Compressibility (1/GPa) = 0.01970495
#
# Stress axis : x y z
#
# Youngs Moduli (GPa) = 66.01552 80.51760 77.93964
#
# Poissons Ratio (x) = 0.17051 0.29821
# Poissons Ratio (y) = 0.13980 0.34315
# Poissons Ratio (z) = 0.25258 0.35450
#
# Static dielectric constant tensor:
#      x y z
#    x 1.547550 0.000000 0.000000 
#    y 0.000000 1.551730 0.000000 
#    z 0.000000 0.000000 1.541070 
# 
# From -- ./inp_files/43861.got.cif
#   From: 2010.05.17/outbox.cif.g08.bks.cpg/sg67_22_cif.got.tgz:43861.got - 2010.06.03 18:28:57.
