data_PCOD9500492
_publ_section_title
;
Structure prediction by ZEFSAII (Michael W. Deem and Ramdas Pophale) SiO2 
 PCOD9500492
Probable space group: C M M A
;
_chemical_formula_sum "Si O2"
_cell_formula_units_Z 88
_cell_length_a 8.048124
_cell_length_b 26.519827
_cell_length_c 18.841085
_cell_angle_alpha 90.000000
_cell_angle_beta 90.000000
_cell_angle_gamma 90.000000
_cell_volume 4021.344267
_symmetry_space_group_name_H-M "C M M A"
_symmetry_group_IT_number 67
_symmetry_cell_setting 'orthorhombic'
loop_
_space_group_symop_operation_xyz
x,y,z
-x,1/2-y,z
x,-y,-z
-x,1/2+y,-z
-x,-y,-z
x,1/2+y,-z
-x,y,z
x,1/2-y,z
1/2+x,1/2+y,z
1/2-x,-y,z
1/2+x,1/2-y,-z
1/2-x,y,-z
1/2-x,1/2-y,-z
1/2+x,y,-z
1/2-x,1/2+y,z
1/2+x,-y,z
loop_
_atom_site_type_symbol
_atom_site_label
_atom_site_fract_x
_atom_site_fract_y
_atom_site_fract_z
Si Si1 0.305688 0.305742 0.273428
Si Si2 0.803511 0.750000 0.082498
Si Si3 0.199625 0.053930 0.364172
Si Si4 0.808987 0.409695 0.216935
Si Si5 0.199071 0.338256 0.421679
Si Si6 0.801974 0.638062 0.918348
O O1 0.500000 0.314070 0.255564
O O2 0.257523 0.250000 0.248068
O O3 0.197573 0.352186 0.245943
O O4 0.284085 0.307912 0.358323
O O5 0.744466 0.694802 0.106533
O O6 0.000000 0.750000 0.088901
O O7 0.750000 0.750000 0.000000
O O8 0.267372 0.059854 0.282966
O O9 0.251088 0.103138 0.408252
O O10 0.000000 0.055926 0.359970
O O11 0.250000 0.000000 0.393854
O O12 0.733815 0.402771 0.138392
O O13 0.000000 0.426509 0.209174
O O14 0.250000 0.322464 0.500000
O O15 0.000000 0.334431 0.413862
O O16 0.000000 0.635027 0.916223
O O17 0.750000 0.631180 0.000000
#
# Coordination Sequence:
#
# PCOD9500492 Si02
#       6
#    16   8  16  16  16  16
#     4  10  21  35  52  77 106 138 178 218 255 299
#     4  10  18  28  42  64  96 130 167 206 247 298
#     4   9  19  36  56  79 103 131 167 210 260 313
#     4   9  20  36  53  74 103 138 175 213 259 313
#     4  10  21  37  56  79 108 139 173 211 253 304
#     4  10  19  32  49  71 100 136 174 215 260 306
#
# _framework density 21.883229
#
# number of rings (size 3 to 8) (size 9 to 14) (size 15 to 20)
#    0.000    2.364    0.000    4.636    1.273    7.273 
#    0.000    1.818    0.000    0.545    0.000    3.818 
#    0.000    0.000    0.000    0.000    0.000    0.000 
#
# Total GULP energy -245476.972990 kJ/mol
# GULP energy per Si atom -5579.022113 kJ/mol
# Density = 2.183342 g / cm^3
# Si number density = 21.883229 Si / 1000 Ang^3
#
#
#
# Elastic Constant Matrix: (Units=GPa)
#
#
# Indices 1 2 3 4 5 6 
#
# 1 41.5813 -5.2570 -6.1244 0.0000 0.0000 0.0000
# 2 -5.2570 41.1363 -20.7997 0.0000 0.0000 0.0000
# 3 -6.1244 -20.7997 84.9031 0.0000 0.0000 0.0000
# 4 0.0000 0.0000 0.0000 12.4506 0.0000 0.0000
# 5 0.0000 0.0000 0.0000 0.0000 17.7129 0.0000
# 6 0.0000 0.0000 0.0000 0.0000 0.0000 15.1133
#
#
#
# Elastic Compliance Matrix: (Units=1/GPa)
#
#
# Indices 1 2 3 4 5 6 
#
# 1 0.025080 0.004702 0.002961 0.000000 0.000000 0.000000
# 2 0.004702 0.028628 0.007353 0.000000 0.000000 0.000000
# 3 0.002961 0.007353 0.013793 0.000000 0.000000 0.000000
# 4 0.000000 0.000000 0.000000 0.080318 0.000000 0.000000
# 5 0.000000 0.000000 0.000000 0.000000 0.056456 0.000000
# 6 0.000000 0.000000 0.000000 0.000000 0.000000 0.066167
#
#
# Mechanical properties :
#
#
# Convention : Reuss Voigt Hill
#
# Bulk Modulus (GPa) = 10.25295 11.47314 10.86305
# Shear Modulus (GPa) = 18.32036 22.37548 20.34792
#
# Velocity S-wave (km/s) = 2.89656 3.20112 3.05264
# Velocity P-wave (km/s) = 3.98525 4.34938 4.17129
#
# Compressibility (1/GPa) = 0.09753292
#
# Stress axis : x y z
#
# Youngs Moduli (GPa) = 39.87257 34.93076 72.50064
#
# Poissons Ratio (x) = -0.16426 -0.21468
# Poissons Ratio (y) = -0.18749 -0.53307
# Poissons Ratio (z) = -0.11807 -0.25683
#
# Static dielectric constant tensor:
#      x y z
#    x 1.777140 0.000000 0.000000 
#    y 0.000000 1.789630 0.000000 
#    z 0.000000 0.000000 1.888800 
# 
# From -- ./inp_files/37191.got.cif
#   From: 2010.05.17/outbox.cif.g08.bks.cpg/sg67_19_cif.got.tgz:37191.got - 2010.06.03 18:28:57.
