data_PCOD9500300
_publ_section_title
;
Structure prediction by ZEFSAII (Michael W. Deem and Ramdas Pophale) SiO2 
 PCOD9500300
Probable space group: C M M A
;
_chemical_formula_sum "Si O2"
_cell_formula_units_Z 104
_cell_length_a 9.092002
_cell_length_b 24.691042
_cell_length_c 25.470092
_cell_angle_alpha 90.000000
_cell_angle_beta 90.000000
_cell_angle_gamma 90.000000
_cell_volume 5717.806506
_symmetry_space_group_name_H-M "C M M A"
_symmetry_group_IT_number 67
_symmetry_cell_setting 'orthorhombic'
loop_
_space_group_symop_operation_xyz
x,y,z
-x,1/2-y,z
x,-y,-z
-x,1/2+y,-z
-x,-y,-z
x,1/2+y,-z
-x,y,z
x,1/2-y,z
1/2+x,1/2+y,z
1/2-x,-y,z
1/2+x,1/2-y,-z
1/2-x,y,-z
1/2-x,1/2-y,-z
1/2+x,y,-z
1/2-x,1/2+y,z
1/2+x,-y,z
loop_
_atom_site_type_symbol
_atom_site_label
_atom_site_fract_x
_atom_site_fract_y
_atom_site_fract_z
Si Si1 0.173783 0.690098 0.576958
Si Si2 0.670813 0.442625 0.846152
Si Si3 0.168131 0.308821 0.685421
Si Si4 0.331070 0.921831 0.550964
Si Si5 0.162191 0.094470 0.273636
Si Si6 0.678002 0.560723 0.947431
Si Si7 0.250000 0.000000 0.353341
O O1 0.216162 0.750000 0.556334
O O2 0.217734 0.692040 0.637881
O O3 0.259185 0.637196 0.558388
O O4 0.000000 0.683104 0.569248
O O5 0.500000 0.448702 0.862722
O O6 0.750000 0.500000 0.839249
O O7 0.670467 0.418923 0.787834
O O8 0.761931 0.414041 0.892990
O O9 0.178780 0.250000 0.712950
O O10 0.210532 0.362332 0.716214
O O11 0.000000 0.313173 0.665446
O O12 0.500000 0.915544 0.537712
O O13 0.250000 0.945047 0.500000
O O14 0.320972 0.958058 0.604071
O O15 0.000000 0.118311 0.284085
O O16 0.174834 0.042255 0.312328
O O17 0.500000 0.558602 0.949957
O O18 0.750000 0.500000 0.945957
O O19 0.750000 0.585644 0.000000
#
# Coordination Sequence:
#
# PCOD9500300 Si02
#       7
#    16  16  16  16  16  16   8
#     4  10  21  39  64  90 114 139 173 220 273 329
#     4  10  19  31  46  73 108 144 186 229 272 323
#     4  10  21  37  59  86 113 142 179 222 272 329
#     4  12  27  44  64  86 112 145 182 227 272 328
#     4  11  23  37  58  84 114 149 185 226 273 327
#     4  10  17  27  43  64  95 141 189 234 277 320
#     4  12  25  42  62  86 111 146 188 220 272 328
#
# _framework density 18.188791999999999
#
# number of rings (size 3 to 8) (size 9 to 14) (size 15 to 20)
#    0.000    1.385    2.308    5.308    0.000    6.462 
#    0.000    0.000    0.000    0.000    0.000    0.000 
#    0.000    0.615    0.000    2.000    0.000    3.231 
#
# Total GULP energy -289474.339306 kJ/mol
# GULP energy per Si atom -5566.814217 kJ/mol
# Density = 1.814739 g / cm^3
# Si number density = 18.188792 Si / 1000 Ang^3
#
#
#
# Elastic Constant Matrix: (Units=GPa)
#
#
# Indices 1 2 3 4 5 6 
#
# 1 120.6207 44.7855 46.8295 0.0000 0.0000 0.0000
# 2 44.7855 92.5895 27.8311 0.0000 0.0000 0.0000
# 3 46.8295 27.8311 114.5657 0.0000 0.0000 0.0000
# 4 0.0000 0.0000 0.0000 9.1345 0.0000 0.0000
# 5 0.0000 0.0000 0.0000 0.0000 23.2210 0.0000
# 6 0.0000 0.0000 0.0000 0.0000 0.0000 -6.7414
#
#
#
# Elastic Compliance Matrix: (Units=1/GPa)
#
#
# Indices 1 2 3 4 5 6 
#
# 1 0.011303 -0.004400 -0.003551 0.000000 0.000000 0.000000
# 2 -0.004400 0.013364 -0.001448 0.000000 0.000000 0.000000
# 3 -0.003551 -0.001448 0.010532 0.000000 0.000000 0.000000
# 4 0.000000 0.000000 0.000000 0.109475 0.000000 0.000000
# 5 0.000000 0.000000 0.000000 0.000000 0.043064 0.000000
# 6 0.000000 0.000000 0.000000 0.000000 0.000000 -0.148337
#
#
# Mechanical properties :
#
#
# Convention : Reuss Voigt Hill
#
# Bulk Modulus (GPa) = 60.97359 62.96311 61.96835
# Shear Modulus (GPa) = 78.53595 19.01149 48.77372
#
# Velocity S-wave (km/s) = 6.57814 3.23651 5.18396
# Velocity P-wave (km/s) = 9.55465 6.97555 8.36509
#
# Compressibility (1/GPa) = 0.01640054
#
# Stress axis : x y z
#
# Youngs Moduli (GPa) = 88.47407 74.82940 94.94880
#
# Poissons Ratio (x) = 0.32922 0.33719
# Poissons Ratio (y) = 0.38926 0.13749
# Poissons Ratio (z) = 0.31420 0.10835
#
# Static dielectric constant tensor:
#      x y z
#    x 1.612160 0.000000 0.000000 
#    y 0.000000 1.656370 0.000000 
#    z 0.000000 0.000000 3.073520 
# 
# From -- ./inp_files/43729.got.cif
#   From: 2010.05.17/outbox.cif.g08.bks.cpg/sg67_22_cif.got.tgz:43729.got - 2010.06.03 18:28:57.
