data_PCOD9500245
_publ_section_title
;
Structure prediction by ZEFSAII (Michael W. Deem and Ramdas Pophale) SiO2 
 PCOD9500245
Probable space group: C M M A
;
_chemical_formula_sum "Si O2"
_cell_formula_units_Z 104
_cell_length_a 25.737949
_cell_length_b 24.616359
_cell_length_c 8.438034
_cell_angle_alpha 90.000000
_cell_angle_beta 90.000000
_cell_angle_gamma 90.000000
_cell_volume 5346.123953
_symmetry_space_group_name_H-M "C M M A"
_symmetry_group_IT_number 67
_symmetry_cell_setting 'orthorhombic'
loop_
_space_group_symop_operation_xyz
x,y,z
-x,1/2-y,z
x,-y,-z
-x,1/2+y,-z
-x,-y,-z
x,1/2+y,-z
-x,y,z
x,1/2-y,z
1/2+x,1/2+y,z
1/2-x,-y,z
1/2+x,1/2-y,-z
1/2-x,y,-z
1/2-x,1/2-y,-z
1/2+x,y,-z
1/2-x,1/2+y,z
1/2+x,-y,z
loop_
_atom_site_type_symbol
_atom_site_label
_atom_site_fract_x
_atom_site_fract_y
_atom_site_fract_z
Si Si1 0.059154 0.630634 0.191178
Si Si2 0.109866 0.750000 0.821090
Si Si3 0.233953 0.250000 0.185618
Si Si4 0.439993 0.863485 0.193054
Si Si5 0.249866 0.630610 0.190088
Si Si6 0.651387 0.935692 0.311906
Si Si7 0.653698 0.439737 0.308924
Si Si8 0.938262 0.750000 0.165529
O O1 0.100866 0.588394 0.252036
O O2 0.070398 0.692416 0.249760
O O3 0.000000 0.616602 0.234898
O O4 0.061873 0.633614 0.999251
O O5 0.171503 0.750000 0.800030
O O6 0.083556 0.805026 0.758545
O O7 0.097120 0.750000 0.009317
O O8 0.253917 0.307379 0.252028
O O9 0.250000 0.250000 0.000000
O O10 0.500000 0.867944 0.240949
O O11 0.403319 0.910073 0.261176
O O12 0.302969 0.602314 0.245384
O O13 0.201799 0.594633 0.244586
O O14 0.250000 0.632917 0.000000
O O15 0.655426 0.937568 0.501255
O O16 0.656948 0.997737 0.254747
O O17 0.000000 0.750000 0.116848
#
# Coordination Sequence:
#
# PCOD9500245 Si02
#       8
#    16   8   8  16  16  16  16   8
#     4   9  19  36  59  90 117 149 196 244 290 342
#     4  10  16  34  58  87 126 151 188 236 304 355
#     4  10  22  34  59  96 123 147 180 243 300 358
#     4  10  20  36  63  91 119 155 199 246 291 347
#     4  11  23  41  64  90 117 149 193 243 294 351
#     4  11  24  43  57  83 118 159 205 238 293 353
#     4  11  25  40  61  80 118 165 194 243 297 352
#     4   8  16  30  56  86 117 152 185 230 289 350
#
# _framework density 19.453346
#
# number of rings (size 3 to 8) (size 9 to 14) (size 15 to 20)
#    0.000    1.846    1.538    3.462    6.462    5.538 
#    0.000    6.923    0.000    1.846    0.000    0.000 
#    0.000    0.000    0.000    0.000    0.000    0.000 
#
# Total GULP energy -290411.441484 kJ/mol
# GULP energy per Si atom -5584.835413 kJ/mol
# Density = 1.940907 g / cm^3
# Si number density = 19.453346 Si / 1000 Ang^3
#
#
#
# Elastic Constant Matrix: (Units=GPa)
#
#
# Indices 1 2 3 4 5 6 
#
# 1 119.5913 82.5894 19.3476 0.0000 0.0000 0.0000
# 2 82.5894 189.0412 27.8602 0.0000 0.0000 0.0000
# 3 19.3476 27.8602 23.8394 0.0000 0.0000 0.0000
# 4 0.0000 0.0000 0.0000 38.5343 0.0000 0.0000
# 5 0.0000 0.0000 0.0000 0.0000 -20.4304 0.0000
# 6 0.0000 0.0000 0.0000 0.0000 0.0000 7.9429
#
#
#
# Elastic Compliance Matrix: (Units=1/GPa)
#
#
# Indices 1 2 3 4 5 6 
#
# 1 0.012361 -0.004738 -0.004495 0.000000 0.000000 0.000000
# 2 -0.004738 0.008207 -0.005745 0.000000 0.000000 0.000000
# 3 -0.004495 -0.005745 0.052310 0.000000 0.000000 0.000000
# 4 0.000000 0.000000 0.000000 0.025951 0.000000 0.000000
# 5 0.000000 0.000000 0.000000 0.000000 -0.048947 0.000000
# 6 0.000000 0.000000 0.000000 0.000000 0.000000 0.125899
#
#
# Mechanical properties :
#
#
# Convention : Reuss Voigt Hill
#
# Bulk Modulus (GPa) = 23.29876 65.78513 44.54194
# Shear Modulus (GPa) = 22.72278 18.72101 20.72189
#
# Velocity S-wave (km/s) = 3.42140 3.10555 3.26730
# Velocity P-wave (km/s) = 5.25459 6.83736 6.09755
#
# Compressibility (1/GPa) = 0.04292074
#
# Stress axis : x y z
#
# Youngs Moduli (GPa) = 80.89975 121.85449 19.11689
#
# Poissons Ratio (x) = 0.57733 0.08593
# Poissons Ratio (y) = 0.38329 0.10984
# Poissons Ratio (z) = 0.36364 0.70011
#
# Static dielectric constant tensor:
#      x y z
#    x 1.649270 0.000000 0.000000 
#    y 0.000000 1.700950 0.000000 
#    z 0.000000 0.000000 1.671310 
# 
# From -- ./inp_files/13839.got.cif
#   From: 2010.05.17/outbox.cif.g08.bks.cpg/sg67_7_cif.got.tgz:13839.got - 2010.06.03 18:28:57.
