data_PCOD9500351
_publ_section_title
;
Structure prediction by ZEFSAII (Michael W. Deem and Ramdas Pophale) SiO2 
 PCOD9500351
Probable space group: C M M A
;
_chemical_formula_sum "Si O2"
_cell_formula_units_Z 80
_cell_length_a 31.152293
_cell_length_b 8.810648
_cell_length_c 20.836300
_cell_angle_alpha 90.000000
_cell_angle_beta 90.000000
_cell_angle_gamma 90.000000
_cell_volume 5718.978600
_symmetry_space_group_name_H-M "C M M A"
_symmetry_group_IT_number 67
_symmetry_cell_setting 'orthorhombic'
loop_
_space_group_symop_operation_xyz
x,y,z
-x,1/2-y,z
x,-y,-z
-x,1/2+y,-z
-x,-y,-z
x,1/2+y,-z
-x,y,z
x,1/2-y,z
1/2+x,1/2+y,z
1/2-x,-y,z
1/2+x,1/2-y,-z
1/2-x,y,-z
1/2-x,1/2-y,-z
1/2+x,y,-z
1/2-x,1/2+y,z
1/2+x,-y,z
loop_
_atom_site_type_symbol
_atom_site_label
_atom_site_fract_x
_atom_site_fract_y
_atom_site_fract_z
Si Si1 0.052302 0.074463 0.933182
Si Si2 0.382086 0.430872 0.571188
Si Si3 0.551077 0.928911 0.666593
Si Si4 0.706330 0.067608 0.427499
Si Si5 0.552139 0.076524 0.800643
O O1 0.064680 0.250000 0.930659
O O2 0.000000 0.068704 0.933210
O O3 0.066847 0.989153 0.868889
O O4 0.066493 0.000000 0.000000
O O5 0.388641 0.500000 0.500000
O O6 0.376760 0.250000 0.566291
O O7 0.421682 0.475865 0.615953
O O8 0.338594 0.506287 0.599597
O O9 0.500000 0.957347 0.659572
O O10 0.558543 0.750000 0.656915
O O11 0.563709 0.977158 0.738824
O O12 0.707609 0.250000 0.429258
O O13 0.705639 0.000000 0.500000
O O14 0.750000 0.000000 0.397651
O O15 0.500000 0.076389 0.802924
O O16 0.566151 0.250000 0.791941
#
# Coordination Sequence:
#
# PCOD9500351 Si02
#       5
#    16  16  16  16  16
#     4   9  15  22  33  50  71  94 121 156 196 235
#     4  11  21  33  47  63  82 104 133 169 208 247
#     4  10  20  33  46  59  77 104 138 174 210 246
#     4  10  17  28  45  65  86 105 126 154 194 242
#     4   9  16  26  39  54  72  96 127 162 199 239
#
# _framework density 13.988512
#
# number of rings (size 3 to 8) (size 9 to 14) (size 15 to 20)
#    0.000    2.200    0.000    7.200    0.000    6.400 
#    0.000    0.000    0.000    0.000    0.000    0.000 
#    0.000    0.000    0.000    0.000    0.000    1.000 
#
# Total GULP energy -222874.948324 kJ/mol
# GULP energy per Si atom -5571.873708 kJ/mol
# Density = 1.395667 g / cm^3
# Si number density = 13.988512 Si / 1000 Ang^3
#
#
#
# Elastic Constant Matrix: (Units=GPa)
#
#
# Indices 1 2 3 4 5 6 
#
# 1 37.6477 31.3404 23.3893 0.0000 0.0000 0.0000
# 2 31.3404 118.9797 29.7241 0.0000 0.0000 0.0000
# 3 23.3893 29.7241 64.1802 0.0000 0.0000 0.0000
# 4 0.0000 0.0000 0.0000 25.2710 0.0000 0.0000
# 5 0.0000 0.0000 0.0000 0.0000 -0.7082 0.0000
# 6 0.0000 0.0000 0.0000 0.0000 0.0000 9.8704
#
#
#
# Elastic Compliance Matrix: (Units=1/GPa)
#
#
# Indices 1 2 3 4 5 6 
#
# 1 0.039799 -0.007757 -0.010911 0.000000 0.000000 0.000000
# 2 -0.007757 0.011017 -0.002275 0.000000 0.000000 0.000000
# 3 -0.010911 -0.002275 0.020611 0.000000 0.000000 0.000000
# 4 0.000000 0.000000 0.000000 0.039571 0.000000 0.000000
# 5 0.000000 0.000000 0.000000 0.000000 -1.412029 0.000000
# 6 0.000000 0.000000 0.000000 0.000000 0.000000 0.101314
#
#
# Mechanical properties :
#
#
# Convention : Reuss Voigt Hill
#
# Bulk Modulus (GPa) = 33.85357 43.30168 38.57762
# Shear Modulus (GPa) = -4.35546 15.97689 5.81071
#
# Velocity S-wave (km/s) = -1.76645 3.38323 2.04033
# Velocity P-wave (km/s) = 4.48253 6.80324 5.76095
#
# Compressibility (1/GPa) = 0.02953898
#
# Stress axis : x y z
#
# Youngs Moduli (GPa) = 25.12649 90.77250 48.51739
#
# Poissons Ratio (x) = 0.70416 0.52938
# Poissons Ratio (y) = 0.19492 0.11038
# Poissons Ratio (z) = 0.27416 0.20651
#
# Static dielectric constant tensor:
#      x y z
#    x 1.475030 0.000000 0.000000 
#    y 0.000000 1.472150 0.000000 
#    z 0.000000 0.000000 1.454780 
# 
# From -- ./inp_files/32130.got.cif
#   From: 2010.05.17/outbox.cif.g08.bks.cpg/sg67_17_cif.got.tgz:32130.got - 2010.06.03 18:28:57.
