data_PCOD9500978
_publ_section_title
;
Structure prediction by ZEFSAII (Michael W. Deem and Ramdas Pophale) SiO2 
 PCOD9500978
Probable space group: C M M A
;
_chemical_formula_sum "Si O2"
_cell_formula_units_Z 80
_cell_length_a 23.967335
_cell_length_b 14.026889
_cell_length_c 11.458621
_cell_angle_alpha 90.000000
_cell_angle_beta 90.000000
_cell_angle_gamma 90.000000
_cell_volume 3852.241110
_symmetry_space_group_name_H-M "C M M A"
_symmetry_group_IT_number 67
_symmetry_cell_setting 'orthorhombic'
loop_
_space_group_symop_operation_xyz
x,y,z
-x,1/2-y,z
x,-y,-z
-x,1/2+y,-z
-x,-y,-z
x,1/2+y,-z
-x,y,z
x,1/2-y,z
1/2+x,1/2+y,z
1/2-x,-y,z
1/2+x,1/2-y,-z
1/2-x,y,-z
1/2-x,1/2-y,-z
1/2+x,y,-z
1/2-x,1/2+y,z
1/2+x,-y,z
loop_
_atom_site_type_symbol
_atom_site_label
_atom_site_fract_x
_atom_site_fract_y
_atom_site_fract_z
Si Si1 0.375968 0.476753 0.635560
Si Si2 0.891008 0.858829 0.997689
Si Si3 0.814412 0.858799 0.221335
Si Si4 0.686869 0.137712 0.797176
Si Si5 0.500000 0.634068 0.861698
Si Si6 0.000000 0.998673 0.643178
O O1 0.375177 0.500000 0.500000
O O2 0.349497 0.568474 0.700206
O O3 0.337414 0.389100 0.671915
O O4 0.439812 0.454440 0.671529
O O5 0.906860 0.750000 0.962490
O O6 0.844622 0.853846 0.097575
O O7 0.945956 0.896989 0.062912
O O8 0.858066 0.905403 0.889153
O O9 0.813626 0.750000 0.269432
O O10 0.751114 0.892094 0.199797
O O11 0.687997 0.250000 0.820183
O O12 0.500000 0.750000 0.851499
O O13 0.500000 0.591180 0.730123
O O14 0.000000 0.000000 0.500000
#
# Coordination Sequence:
#
# PCOD9500978 Si02
#       6
#    16  16  16  16   8   8
#     4  11  24  41  60  86 119 157 207 257 298 355
#     4   9  18  34  58  90 120 149 194 246 296 361
#     4  10  20  37  62  88 118 158 198 246 303 362
#     4  10  22  39  59  86 123 160 194 242 309 366
#     4  10  18  35  65  93 120 160 205 253 307 362
#     4  10  22  41  59  83 121 158 197 252 298 345
#
# _framework density 20.767133000000001
#
# number of rings (size 3 to 8) (size 9 to 14) (size 15 to 20)
#    0.000    2.000    2.000    1.200    0.000    6.400 
#    0.000    9.500    0.000    0.000    0.000    0.000 
#    0.000    0.000    0.000    0.000    0.000    0.000 
#
# Total GULP energy -222848.567394 kJ/mol
# GULP energy per Si atom -5571.214185 kJ/mol
# Density = 2.071987 g / cm^3
# Si number density = 20.767133 Si / 1000 Ang^3
#
#
#
# Elastic Constant Matrix: (Units=GPa)
#
#
# Indices 1 2 3 4 5 6 
#
# 1 186.0391 11.1946 42.8255 0.0000 0.0000 0.0000
# 2 11.1946 54.2441 5.6165 0.0000 0.0000 0.0000
# 3 42.8255 5.6165 68.5672 0.0000 0.0000 0.0000
# 4 0.0000 0.0000 0.0000 26.8109 0.0000 0.0000
# 5 0.0000 0.0000 0.0000 0.0000 373.6689 0.0000
# 6 0.0000 0.0000 0.0000 0.0000 0.0000 16.1698
#
#
#
# Elastic Compliance Matrix: (Units=1/GPa)
#
#
# Indices 1 2 3 4 5 6 
#
# 1 0.006321 -0.000903 -0.003874 0.000000 0.000000 0.000000
# 2 -0.000903 0.018722 -0.000969 0.000000 0.000000 0.000000
# 3 -0.003874 -0.000969 0.017083 0.000000 0.000000 0.000000
# 4 0.000000 0.000000 0.000000 0.037298 0.000000 0.000000
# 5 0.000000 0.000000 0.000000 0.000000 0.002676 0.000000
# 6 0.000000 0.000000 0.000000 0.000000 0.000000 0.061844
#
#
# Mechanical properties :
#
#
# Convention : Reuss Voigt Hill
#
# Bulk Modulus (GPa) = 32.64462 47.56927 40.10695
# Shear Modulus (GPa) = 30.18419 99.94418 65.06418
#
# Velocity S-wave (km/s) = 3.81656 6.94483 5.60343
# Velocity P-wave (km/s) = 5.93085 9.34148 7.82427
#
# Compressibility (1/GPa) = 0.03063292
#
# Stress axis : x y z
#
# Youngs Moduli (GPa) = 158.19274 53.41310 58.53646
#
# Poissons Ratio (x) = 0.04826 0.22678
# Poissons Ratio (y) = 0.14292 0.05674
# Poissons Ratio (z) = 0.61287 0.05177
#
# Static dielectric constant tensor:
#      x y z
#    x 1.748440 0.000000 0.000000 
#    y 0.000000 1.809460 0.000000 
#    z 0.000000 0.000000 1.727510 
# 
# From -- ./inp_files/18001.got.cif
#   From: 2010.05.17/outbox.cif.g08.bks.cpg/sg67_10_cif.got.tgz:18001.got - 2010.06.03 18:28:57.
