data_PCOD9500307
_publ_section_title
;
Structure prediction by ZEFSAII (Michael W. Deem and Ramdas Pophale) SiO2 
 PCOD9500307
Probable space group: C M M A
;
_chemical_formula_sum "Si O2"
_cell_formula_units_Z 96
_cell_length_a 8.995345
_cell_length_b 14.604175
_cell_length_c 33.218681
_cell_angle_alpha 90.000000
_cell_angle_beta 90.000000
_cell_angle_gamma 90.000000
_cell_volume 4363.924589
_symmetry_space_group_name_H-M "C M M A"
_symmetry_group_IT_number 67
_symmetry_cell_setting 'orthorhombic'
loop_
_space_group_symop_operation_xyz
x,y,z
-x,1/2-y,z
x,-y,-z
-x,1/2+y,-z
-x,-y,-z
x,1/2+y,-z
-x,y,z
x,1/2-y,z
1/2+x,1/2+y,z
1/2-x,-y,z
1/2+x,1/2-y,-z
1/2-x,y,-z
1/2-x,1/2-y,-z
1/2+x,y,-z
1/2-x,1/2+y,z
1/2+x,-y,z
loop_
_atom_site_type_symbol
_atom_site_label
_atom_site_fract_x
_atom_site_fract_y
_atom_site_fract_z
Si Si1 0.327153 0.361555 0.122271
Si Si2 0.331072 0.862065 0.040823
Si Si3 0.663994 0.142133 0.711543
Si Si4 0.828675 0.861767 0.209552
Si Si5 0.680412 0.603283 0.540782
Si Si6 0.180776 0.399043 0.378390
O O1 0.500000 0.388461 0.120296
O O2 0.324430 0.250000 0.121741
O O3 0.244145 0.392223 0.082319
O O4 0.263141 0.389054 0.166023
O O5 0.500000 0.892765 0.039748
O O6 0.329274 0.750000 0.041067
O O7 0.250000 0.890383 0.000000
O O8 0.500000 0.099262 0.710924
O O9 0.650123 0.250000 0.719391
O O10 0.753773 0.105562 0.749453
O O11 0.721677 0.136847 0.665920
O O12 0.827058 0.750000 0.209957
O O13 0.000000 0.889826 0.209915
O O14 0.500000 0.601241 0.539735
O O15 0.750000 0.500000 0.541222
O O16 0.750000 0.644369 0.500000
O O17 0.742811 0.644968 0.582342
O O18 0.250000 0.500000 0.377424
O O19 0.000000 0.397264 0.382825
#
# Coordination Sequence:
#
# PCOD9500307 Si02
#       6
#    16  16  16  16  16  16
#     4   8  13  21  31  43  61  85 115 154 197 238
#     4   9  15  20  26  37  54  79 112 151 195 241
#     4   9  18  31  46  64  87 115 145 179 218 257
#     4   8  14  24  38  55  74  98 130 168 207 247
#     4  10  17  27  44  66  91 116 144 177 213 252
#     4  10  19  31  47  68  93 118 146 179 215 255
#
# _framework density 21.998548
#
# number of rings (size 3 to 8) (size 9 to 14) (size 15 to 20)
#    0.000    3.000    0.000    5.000    0.000    4.000 
#    0.000    3.333    0.000    0.500    0.000    0.000 
#    0.000    0.000    0.000    0.000    0.000    0.833 
#
# Total GULP energy -267523.322321 kJ/mol
# GULP energy per Si atom -5573.402548 kJ/mol
# Density = 2.194848 g / cm^3
# Si number density = 21.998548 Si / 1000 Ang^3
#
#
#
# Elastic Constant Matrix: (Units=GPa)
#
#
# Indices 1 2 3 4 5 6 
#
# 1 124.7556 8.6516 121.2253 0.0000 0.0000 0.0000
# 2 8.6516 55.1327 7.7078 0.0000 0.0000 0.0000
# 3 121.2253 7.7078 293.9839 0.0000 0.0000 0.0000
# 4 0.0000 0.0000 0.0000 11.5055 0.0000 0.0000
# 5 0.0000 0.0000 0.0000 0.0000 46.3081 0.0000
# 6 0.0000 0.0000 0.0000 0.0000 0.0000 -3.7136
#
#
#
# Elastic Compliance Matrix: (Units=1/GPa)
#
#
# Indices 1 2 3 4 5 6 
#
# 1 0.013473 -0.001342 -0.005520 0.000000 0.000000 0.000000
# 2 -0.001342 0.018339 0.000073 0.000000 0.000000 0.000000
# 3 -0.005520 0.000073 0.005676 0.000000 0.000000 0.000000
# 4 0.000000 0.000000 0.000000 0.086915 0.000000 0.000000
# 5 0.000000 0.000000 0.000000 0.000000 0.021594 0.000000
# 6 0.000000 0.000000 0.000000 0.000000 0.000000 -0.269279
#
#
# Mechanical properties :
#
#
# Convention : Reuss Voigt Hill
#
# Bulk Modulus (GPa) = 41.82821 83.22682 62.52752
# Shear Modulus (GPa) = -49.14832 33.23917 -7.95458
#
# Velocity S-wave (km/s) = -4.73182 3.89134 -1.90363
# Velocity P-wave (km/s) = 3.28605 7.62266 4.86348
#
# Compressibility (1/GPa) = 0.02390731
#
# Stress axis : x y z
#
# Youngs Moduli (GPa) = 74.22256 54.52992 176.18005
#
# Poissons Ratio (x) = 0.07320 0.97259
# Poissons Ratio (y) = 0.09964 -0.01282
# Poissons Ratio (z) = 0.40974 -0.00397
#
# Static dielectric constant tensor:
#      x y z
#    x 1.769240 0.000000 0.000000 
#    y 0.000000 2.025480 0.000000 
#    z 0.000000 0.000000 1.867900 
# 
# From -- ./inp_files/43648.got.cif
#   From: 2010.05.17/outbox.cif.g08.bks.cpg/sg67_22_cif.got.tgz:43648.got - 2010.06.03 18:28:57.
