data_PCOD9500071
_publ_section_title
;
Structure prediction by ZEFSAII (Michael W. Deem and Ramdas Pophale) SiO2 
 PCOD9500071
Probable space group: C C C M
;
_chemical_formula_sum "Si O2"
_cell_formula_units_Z 56
_cell_length_a 24.000000
_cell_length_b 15.000000
_cell_length_c 15.000000
_cell_angle_alpha 90.000000
_cell_angle_beta 90.000000
_cell_angle_gamma 90.000000
_cell_volume 5400.000000
_symmetry_space_group_name_H-M "C C C M"
_symmetry_group_IT_number 66
_symmetry_cell_setting 'orthorhombic'
loop_
_space_group_symop_operation_xyz
x,y,z
-x,-y,z
x,-y,1/2-z
-x,y,1/2-z
-x,-y,-z
x,y,-z
-x,y,1/2+z
x,-y,1/2+z
1/2+x,1/2+y,z
1/2-x,1/2-y,z
1/2+x,1/2-y,1/2-z
1/2-x,1/2+y,1/2-z
1/2-x,1/2-y,-z
1/2+x,1/2+y,-z
1/2-x,1/2+y,1/2+z
1/2+x,1/2-y,1/2+z
loop_
_atom_site_type_symbol
_atom_site_label
_atom_site_fract_x
_atom_site_fract_y
_atom_site_fract_z
Si Si1 0.784042 0.661357 0.633083
Si Si2 0.468091 0.864554 0.890531
Si Si3 0.179056 0.947429 0.104532
Si Si4 0.887188 0.774056 0.602120
Si Si5 0.416543 0.051612 0.107953
Si Si6 0.812008 0.143546 0.397699
Si Si7 0.189006 0.338262 0.838384
O O1 0.750000 0.750000 0.607874
O O2 0.744502 0.580277 0.606061
O O3 0.844538 0.689523 0.599071
O O4 0.790180 0.653539 0.738165
O O5 0.441569 0.772303 0.856628
O O6 0.531558 0.885530 0.865386
O O7 0.432571 0.951771 0.862370
O O8 0.466733 0.862912 0.000000
O O9 0.143773 0.862017 0.140890
O O10 0.171384 0.047092 0.142605
O O11 0.165013 0.954730 0.000000
O O12 0.900326 0.797704 0.500000
O O13 0.359230 0.091903 0.142176
O O14 0.414168 0.050364 0.000000
O O15 0.830964 0.148518 0.500000
O O16 0.830355 0.235628 0.351646
O O17 0.744463 0.146324 0.396130
#
# Coordination Sequence:
#
# PCOD9500071 Si02
#       7
#    16  16  16  16  16  16  16
#     4  10  19  33  45  71 105 132 163 202 253 305
#     4   8  16  31  52  76  97 125 171 216 257 300
#     4   9  19  33  51  73  99 133 172 211 253 304
#     4   9  17  32  52  71  95 128 165 208 252 301
#     4   9  17  31  51  74  99 132 173 212 250 300
#     4  10  20  34  50  71  99 137 179 207 240 299
#     4  11  20  33  47  72 103 138 169 205 252 298
#
# _framework density 10.370369999999999
#
# number of rings (size 3 to 8) (size 9 to 14) (size 15 to 20)
#    0.000    2.571    1.429    3.000    2.000    2.286 
#    0.000    0.714    0.000    2.571    0.000    5.000 
#    0.000    2.571    0.000    0.143    0.000    0.000 
#
# Total GULP energy -312163.942819 kJ/mol
# GULP energy per Si atom -5574.356122 kJ/mol
# Density = 1.034677 g / cm^3
# Si number density = 10.370370 Si / 1000 Ang^3
#
#
#
# Elastic Constant Matrix: (Units=GPa)
#
#
# Indices 1 2 3 4 5 6 
#
# 1 44.5824 10.4314 -3.2691 0.0000 0.0000 0.0000
# 2 10.4314 73.2528 4.8710 0.0000 0.0000 0.0000
# 3 -3.2691 4.8710 43.4434 0.0000 0.0000 0.0000
# 4 0.0000 0.0000 0.0000 7.0579 0.0000 0.0000
# 5 0.0000 0.0000 0.0000 0.0000 9.1436 0.0000
# 6 0.0000 0.0000 0.0000 0.0000 0.0000 35.1749
#
#
#
# Elastic Compliance Matrix: (Units=1/GPa)
#
#
# Indices 1 2 3 4 5 6 
#
# 1 0.023401 -0.003475 0.002151 0.000000 0.000000 0.000000
# 2 -0.003475 0.014270 -0.001862 0.000000 0.000000 0.000000
# 3 0.002151 -0.001862 0.023389 0.000000 0.000000 0.000000
# 4 0.000000 0.000000 0.000000 0.141686 0.000000 0.000000
# 5 0.000000 0.000000 0.000000 0.000000 0.109366 0.000000
# 6 0.000000 0.000000 0.000000 0.000000 0.000000 0.028429
#
#
# Mechanical properties :
#
#
# Convention : Reuss Voigt Hill
#
# Bulk Modulus (GPa) = 18.28568 20.59393 19.43980
# Shear Modulus (GPa) = 13.69326 20.22496 16.95911
#
# Velocity S-wave (km/s) = 2.57224 3.12610 2.86260
# Velocity P-wave (km/s) = 4.20207 4.79382 4.50767
#
# Compressibility (1/GPa) = 0.05468759
#
# Stress axis : x y z
#
# Youngs Moduli (GPa) = 42.73278 70.07688 42.75519
#
# Poissons Ratio (x) = 0.24355 -0.09195
# Poissons Ratio (y) = 0.14851 0.07959
# Poissons Ratio (z) = -0.09190 0.13045
#
# Static dielectric constant tensor:
#      x y z
#    x 1.765510 0.000000 0.000000 
#    y 0.000000 1.770880 0.000000 
#    z 0.000000 0.000000 1.775470 
# 
# From -- ./inp_files/32465.got.cif
#   From: 2010.05.17/outbox.ucp.g08.bks.cvg/sg66_17_cif.got.tgz:32465.got - 2010.06.11 16:44:13.
