data_PCOD9500143
_publ_section_title
;
Structure prediction by ZEFSAII (Michael W. Deem and Ramdas Pophale) SiO2 
 PCOD9500143
Probable space group: C C C M
;
_chemical_formula_sum "Si O2"
_cell_formula_units_Z 32
_cell_length_a 15.000000
_cell_length_b 12.000000
_cell_length_c 18.000000
_cell_angle_alpha 90.000000
_cell_angle_beta 90.000000
_cell_angle_gamma 90.000000
_cell_volume 3240.000000
_symmetry_space_group_name_H-M "C C C M"
_symmetry_group_IT_number 66
_symmetry_cell_setting 'orthorhombic'
loop_
_space_group_symop_operation_xyz
x,y,z
-x,-y,z
x,-y,1/2-z
-x,y,1/2-z
-x,-y,-z
x,y,-z
-x,y,1/2+z
x,-y,1/2+z
1/2+x,1/2+y,z
1/2-x,1/2-y,z
1/2+x,1/2-y,1/2-z
1/2-x,1/2+y,1/2-z
1/2-x,1/2-y,-z
1/2+x,1/2+y,-z
1/2-x,1/2+y,1/2+z
1/2+x,1/2-y,1/2+z
loop_
_atom_site_type_symbol
_atom_site_label
_atom_site_fract_x
_atom_site_fract_y
_atom_site_fract_z
Si Si1 0.656097 0.879531 0.284763
Si Si2 0.644593 0.461867 0.170388
Si Si3 0.950102 0.755962 0.410705
Si Si4 0.847392 0.780331 0.137344
O O1 0.758422 0.904646 0.311952
O O2 0.598882 0.833650 0.355178
O O3 0.651728 0.786389 0.218080
O O4 0.626506 0.000000 0.250000
O O5 0.604532 0.500000 0.250000
O O6 0.586482 0.374899 0.122404
O O7 0.655754 0.584702 0.136135
O O8 0.930311 0.745545 0.500000
O O9 0.057426 0.748809 0.399189
O O10 0.750000 0.750000 0.104513
#
# Coordination Sequence:
#
# PCOD9500143 Si02
#       4
#    16  16  16  16
#     4  11  23  44  74 107 135 181 241 292 342 417
#     4  11  22  43  74 107 134 177 240 298 345 407
#     4  12  28  45  70 107 145 187 229 288 363 420
#     4  12  23  44  71 101 140 186 243 289 343 410
#
# _framework density 9.8765429999999999
#
# number of rings (size 3 to 8) (size 9 to 14) (size 15 to 20)
#    0.000    0.500    7.500    2.250    0.000    7.500 
#    0.000    2.500    0.000    0.000    0.000    0.000 
#    0.000    0.000    0.000    0.000    0.000    0.000 
#
# Total GULP energy -178581.427094 kJ/mol
# GULP energy per Si atom -5580.669597 kJ/mol
# Density = 0.985406 g / cm^3
# Si number density = 9.876543 Si / 1000 Ang^3
#
#
#
# Elastic Constant Matrix: (Units=GPa)
#
#
# Indices 1 2 3 4 5 6 
#
# 1 151.1800 47.5481 53.9464 0.0000 0.0000 0.0000
# 2 47.5481 145.3859 52.6332 0.0000 0.0000 0.0000
# 3 53.9464 52.6332 130.7673 0.0000 0.0000 0.0000
# 4 0.0000 0.0000 0.0000 31.2887 0.0000 0.0000
# 5 0.0000 0.0000 0.0000 0.0000 30.4032 0.0000
# 6 0.0000 0.0000 0.0000 0.0000 0.0000 33.4696
#
#
#
# Elastic Compliance Matrix: (Units=1/GPa)
#
#
# Indices 1 2 3 4 5 6 
#
# 1 0.008094 -0.001684 -0.002661 0.000000 0.000000 0.000000
# 2 -0.001684 0.008402 -0.002687 0.000000 0.000000 0.000000
# 3 -0.002661 -0.002687 0.009827 0.000000 0.000000 0.000000
# 4 0.000000 0.000000 0.000000 0.031960 0.000000 0.000000
# 5 0.000000 0.000000 0.000000 0.000000 0.032891 0.000000
# 6 0.000000 0.000000 0.000000 0.000000 0.000000 0.029878
#
#
# Mechanical properties :
#
#
# Convention : Reuss Voigt Hill
#
# Bulk Modulus (GPa) = 81.57924 81.73207 81.65566
# Shear Modulus (GPa) = 35.91909 37.24599 36.58254
#
# Velocity S-wave (km/s) = 4.26890 4.34704 4.30815
# Velocity P-wave (km/s) = 8.10476 8.16470 8.13479
#
# Compressibility (1/GPa) = 0.01225802
#
# Stress axis : x y z
#
# Youngs Moduli (GPa) = 123.55116 119.02429 101.76432
#
# Poissons Ratio (x) = 0.20039 0.27083
# Poissons Ratio (y) = 0.20801 0.27345
# Poissons Ratio (z) = 0.32882 0.31983
#
# Static dielectric constant tensor:
#      x y z
#    x 1.729130 0.000000 0.000000 
#    y 0.000000 1.735020 0.000000 
#    z 0.000000 0.000000 1.729240 
# 
# From -- ./inp_files/37967.got.cif
#   From: 2010.05.17/outbox.ucp.g08.bks.cvg/sg66_19_cif.got.tgz:37967.got - 2010.06.11 16:44:13.
