data_PCOD9500282
_publ_section_title
;
Structure prediction by ZEFSAII (Michael W. Deem and Ramdas Pophale) SiO2 
 PCOD9500282
Probable space group: C M M A
;
_chemical_formula_sum "Si O2"
_cell_formula_units_Z 104
_cell_length_a 8.710814
_cell_length_b 26.377050
_cell_length_c 28.273927
_cell_angle_alpha 90.000000
_cell_angle_beta 90.000000
_cell_angle_gamma 90.000000
_cell_volume 6496.375135
_symmetry_space_group_name_H-M "C M M A"
_symmetry_group_IT_number 67
_symmetry_cell_setting 'orthorhombic'
loop_
_space_group_symop_operation_xyz
x,y,z
-x,1/2-y,z
x,-y,-z
-x,1/2+y,-z
-x,-y,-z
x,1/2+y,-z
-x,y,z
x,1/2-y,z
1/2+x,1/2+y,z
1/2-x,-y,z
1/2+x,1/2-y,-z
1/2-x,y,-z
1/2-x,1/2-y,-z
1/2+x,y,-z
1/2-x,1/2+y,z
1/2+x,-y,z
loop_
_atom_site_type_symbol
_atom_site_label
_atom_site_fract_x
_atom_site_fract_y
_atom_site_fract_z
Si Si1 0.316235 0.554755 0.343807
Si Si2 0.178918 0.905383 0.759498
Si Si3 0.676918 0.191769 0.274737
Si Si4 0.318199 0.556403 0.855325
Si Si5 0.820040 0.656846 0.382180
Si Si6 0.686809 0.750000 0.552788
Si Si7 0.183500 0.442416 0.048437
O O1 0.500000 0.553157 0.344656
O O2 0.250000 0.500000 0.357604
O O3 0.268793 0.566827 0.289094
O O4 0.261030 0.602438 0.375416
O O5 0.205671 0.846376 0.749027
O O6 0.274227 0.918773 0.805753
O O7 0.000000 0.917470 0.767217
O O8 0.500000 0.177939 0.262486
O O9 0.701863 0.250000 0.262678
O O10 0.690746 0.184010 0.331098
O O11 0.500000 0.554341 0.862028
O O12 0.250000 0.500000 0.851834
O O13 0.241787 0.580747 0.902150
O O14 0.763423 0.698471 0.419914
O O15 0.000000 0.647086 0.391611
O O16 0.500000 0.750000 0.553495
O O17 0.750000 0.750000 0.500000
O O18 0.250000 0.500000 0.049288
O O19 0.000000 0.444205 0.046846
O O20 0.250000 0.419161 0.000000
#
# Coordination Sequence:
#
# PCOD9500282 Si02
#       7
#    16  16  16  16  16   8  16
#     4  10  20  32  48  71  98 130 166 201 238 283
#     4  10  20  31  43  65  94 124 158 193 233 279
#     4   9  16  29  49  69  91 122 157 191 229 277
#     4  11  20  30  43  60  85 119 155 192 233 276
#     4   9  17  32  52  73  99 130 163 197 237 285
#     4  10  20  34  54  80 106 132 160 198 245 290
#     4  10  17  27  41  58  80 109 147 189 232 278
#
# _framework density 16.008928000000001
#
# number of rings (size 3 to 8) (size 9 to 14) (size 15 to 20)
#    0.000    2.154    0.769    5.538    0.000    4.000 
#    0.000    0.000    0.000    0.462    0.000    3.231 
#    0.000    0.615    0.000    2.308    0.000    3.846 
#
# Total GULP energy -289793.387921 kJ/mol
# GULP energy per Si atom -5572.949768 kJ/mol
# Density = 1.597249 g / cm^3
# Si number density = 16.008928 Si / 1000 Ang^3
#
#
#
# Elastic Constant Matrix: (Units=GPa)
#
#
# Indices 1 2 3 4 5 6 
#
# 1 81.8442 28.5988 38.8134 0.0000 0.0000 0.0000
# 2 28.5988 83.1538 41.6034 0.0000 0.0000 0.0000
# 3 38.8134 41.6034 97.1314 0.0000 0.0000 0.0000
# 4 0.0000 0.0000 0.0000 13.0587 0.0000 0.0000
# 5 0.0000 0.0000 0.0000 0.0000 26.0844 0.0000
# 6 0.0000 0.0000 0.0000 0.0000 0.0000 21.6520
#
#
#
# Elastic Compliance Matrix: (Units=1/GPa)
#
#
# Indices 1 2 3 4 5 6 
#
# 1 0.015591 -0.002857 -0.005006 0.000000 0.000000 0.000000
# 2 -0.002857 0.015830 -0.005638 0.000000 0.000000 0.000000
# 3 -0.005006 -0.005638 0.014711 0.000000 0.000000 0.000000
# 4 0.000000 0.000000 0.000000 0.076577 0.000000 0.000000
# 5 0.000000 0.000000 0.000000 0.000000 0.038337 0.000000
# 6 0.000000 0.000000 0.000000 0.000000 0.000000 0.046185
#
#
# Mechanical properties :
#
#
# Convention : Reuss Voigt Hill
#
# Bulk Modulus (GPa) = 52.28094 53.35118 52.81606
# Shear Modulus (GPa) = 20.78046 22.36660 21.57353
#
# Velocity S-wave (km/s) = 3.60676 3.74188 3.67494
# Velocity P-wave (km/s) = 7.07624 7.21575 7.14634
#
# Compressibility (1/GPa) = 0.01912743
#
# Stress axis : x y z
#
# Youngs Moduli (GPa) = 64.13987 63.17272 67.97729
#
# Poissons Ratio (x) = 0.18051 0.34031
# Poissons Ratio (y) = 0.18328 0.38328
# Poissons Ratio (z) = 0.32110 0.35619
#
# Static dielectric constant tensor:
#      x y z
#    x 1.580070 0.000000 0.000000 
#    y 0.000000 1.530000 0.000000 
#    z 0.000000 0.000000 1.568730 
# 
# From -- ./inp_files/43727.got.cif
#   From: 2010.05.17/outbox.cif.g08.bks.cpg/sg67_22_cif.got.tgz:43727.got - 2010.06.03 18:28:57.
