data_PCOD9500227
_publ_section_title
;
Structure prediction by ZEFSAII (Michael W. Deem and Ramdas Pophale) SiO2 
 PCOD9500227
Probable space group: C M M A
;
_chemical_formula_sum "Si O2"
_cell_formula_units_Z 80
_cell_length_a 8.078993
_cell_length_b 24.395658
_cell_length_c 21.205030
_cell_angle_alpha 90.000000
_cell_angle_beta 90.000000
_cell_angle_gamma 90.000000
_cell_volume 4179.349199
_symmetry_space_group_name_H-M "C M M A"
_symmetry_group_IT_number 67
_symmetry_cell_setting 'orthorhombic'
loop_
_space_group_symop_operation_xyz
x,y,z
-x,1/2-y,z
x,-y,-z
-x,1/2+y,-z
-x,-y,-z
x,1/2+y,-z
-x,y,z
x,1/2-y,z
1/2+x,1/2+y,z
1/2-x,-y,z
1/2+x,1/2-y,-z
1/2-x,y,-z
1/2-x,1/2-y,-z
1/2+x,y,-z
1/2-x,1/2+y,z
1/2+x,-y,z
loop_
_atom_site_type_symbol
_atom_site_label
_atom_site_fract_x
_atom_site_fract_y
_atom_site_fract_z
Si Si1 0.302428 0.937215 0.690919
Si Si2 0.197693 0.129574 0.432922
Si Si3 0.304776 0.250000 0.272554
Si Si4 0.199951 0.686625 0.070386
Si Si5 0.190746 0.250000 0.410830
Si Si6 0.800827 0.637884 0.197481
O O1 0.500000 0.934651 0.693832
O O2 0.251610 0.903569 0.628687
O O3 0.235454 0.908348 0.754860
O O4 0.250000 0.000000 0.686314
O O5 0.250000 0.104616 0.500000
O O6 0.268065 0.191939 0.430474
O O7 0.000000 0.132767 0.430845
O O8 0.500000 0.250000 0.290485
O O9 0.198437 0.250000 0.335304
O O10 0.274333 0.195828 0.232269
O O11 0.256391 0.750000 0.080205
O O12 0.261713 0.647202 0.126360
O O13 0.000000 0.687801 0.073725
O O14 0.250000 0.670131 0.000000
O O15 0.000000 0.250000 0.432543
O O16 0.000000 0.629873 0.192831
#
# Coordination Sequence:
#
# PCOD9500227 Si02
#       6
#    16  16   8  16   8  16
#     4  11  23  40  60  81 104 138 184 232 277 322
#     4  11  23  39  58  83 113 145 178 218 268 323
#     4  10  16  29  54  81 104 139 182 217 262 328
#     4   9  16  28  47  76 112 144 174 209 255 314
#     4  10  21  35  53  83 119 143 169 217 269 318
#     4   9  17  31  55  80 106 141 180 219 263 320
#
# _framework density 19.141736000000002
#
# number of rings (size 3 to 8) (size 9 to 14) (size 15 to 20)
#    0.000    2.000    3.000    1.500    0.000    1.200 
#    0.000    5.000    0.000    0.600    0.000    4.200 
#    0.000    0.000    0.000    0.000    0.000    0.000 
#
# Total GULP energy -223143.871143 kJ/mol
# GULP energy per Si atom -5578.596779 kJ/mol
# Density = 1.909817 g / cm^3
# Si number density = 19.141736 Si / 1000 Ang^3
#
#
#
# Elastic Constant Matrix: (Units=GPa)
#
#
# Indices 1 2 3 4 5 6 
#
# 1 28.3234 15.8798 17.0987 0.0000 0.0000 0.0000
# 2 15.8798 115.1341 73.8817 0.0000 0.0000 0.0000
# 3 17.0987 73.8817 187.0275 0.0000 0.0000 0.0000
# 4 0.0000 0.0000 0.0000 -3.3027 0.0000 0.0000
# 5 0.0000 0.0000 0.0000 0.0000 24.4053 0.0000
# 6 0.0000 0.0000 0.0000 0.0000 0.0000 3.6434
#
#
#
# Elastic Compliance Matrix: (Units=1/GPa)
#
#
# Indices 1 2 3 4 5 6 
#
# 1 0.038773 -0.004117 -0.001919 0.000000 0.000000 0.000000
# 2 -0.004117 0.012072 -0.004392 0.000000 0.000000 0.000000
# 3 -0.001919 -0.004392 0.007257 0.000000 0.000000 0.000000
# 4 0.000000 0.000000 0.000000 -0.302779 0.000000 0.000000
# 5 0.000000 0.000000 0.000000 0.000000 0.040975 0.000000
# 6 0.000000 0.000000 0.000000 0.000000 0.000000 0.274470
#
#
# Mechanical properties :
#
#
# Convention : Reuss Voigt Hill
#
# Bulk Modulus (GPa) = 26.84788 60.46728 43.65758
# Shear Modulus (GPa) = 48.05948 19.85750 33.95849
#
# Velocity S-wave (km/s) = 5.01614 3.22435 4.21652
# Velocity P-wave (km/s) = 6.89965 6.74683 6.82367
#
# Compressibility (1/GPa) = 0.03724688
#
# Stress axis : x y z
#
# Youngs Moduli (GPa) = 25.79131 82.83681 137.79112
#
# Poissons Ratio (x) = 0.34100 0.26436
# Poissons Ratio (y) = 0.10617 0.60524
# Poissons Ratio (z) = 0.04948 0.36386
#
# Static dielectric constant tensor:
#      x y z
#    x 2.042700 0.000000 0.000000 
#    y 0.000000 1.732090 0.000000 
#    z 0.000000 0.000000 1.685200 
# 
# From -- ./inp_files/36868.got.cif
#   From: 2010.05.17/outbox.cif.g08.bks.cpg/sg67_19_cif.got.tgz:36868.got - 2010.06.03 18:28:57.
