data_PCOD9500086
_publ_section_title
;
Structure prediction by ZEFSAII (Michael W. Deem and Ramdas Pophale) SiO2 
 PCOD9500086
Probable space group: C C C M
;
_chemical_formula_sum "Si O2"
_cell_formula_units_Z 40
_cell_length_a 18.000000
_cell_length_b 27.000000
_cell_length_c 9.000000
_cell_angle_alpha 90.000000
_cell_angle_beta 90.000000
_cell_angle_gamma 90.000000
_cell_volume 4374.000000
_symmetry_space_group_name_H-M "C C C M"
_symmetry_group_IT_number 66
_symmetry_cell_setting 'orthorhombic'
loop_
_space_group_symop_operation_xyz
x,y,z
-x,-y,z
x,-y,1/2-z
-x,y,1/2-z
-x,-y,-z
x,y,-z
-x,y,1/2+z
x,-y,1/2+z
1/2+x,1/2+y,z
1/2-x,1/2-y,z
1/2+x,1/2-y,1/2-z
1/2-x,1/2+y,1/2-z
1/2-x,1/2-y,-z
1/2+x,1/2+y,-z
1/2-x,1/2+y,1/2+z
1/2+x,1/2-y,1/2+z
loop_
_atom_site_type_symbol
_atom_site_label
_atom_site_fract_x
_atom_site_fract_y
_atom_site_fract_z
Si Si1 0.572289 0.415038 0.325072
Si Si2 0.712273 0.847534 0.675863
Si Si3 0.379253 0.687138 0.175869
Si Si4 0.576931 0.210199 0.677473
Si Si5 0.238811 0.949108 0.324604
O O1 0.500000 0.438473 0.250000
O O2 0.559456 0.407227 0.500000
O O3 0.586230 0.362804 0.242629
O O4 0.649347 0.444277 0.308364
O O5 0.696371 0.849394 0.500000
O O6 0.790073 0.817980 0.694028
O O7 0.645954 0.821545 0.762858
O O8 0.726939 0.901929 0.741553
O O9 0.409103 0.734233 0.263336
O O10 0.395327 0.691376 0.000000
O O11 0.500000 0.192373 0.750000
O O12 0.572738 0.209307 0.500000
O O13 0.255508 0.947500 0.500000
O O14 0.263513 0.000000 0.250000
#
# Coordination Sequence:
#
# PCOD9500086 Si02
#       5
#    16  16  16  16  16
#     4  10  20  33  50  75 109 146 184 224 267 315
#     4  10  21  38  59  82 109 141 179 223 269 319
#     4  10  20  35  55  79 110 147 184 220 262 314
#     4  12  24  37  55  80 112 146 181 221 266 317
#     4  10  21  37  57  80 105 138 180 225 273 323
#
# _framework density 9.1449470000000002
#
# number of rings (size 3 to 8) (size 9 to 14) (size 15 to 20)
#    0.000    1.600    0.000    5.400    0.000    7.600 
#    0.000    2.000    0.000    0.600    0.000    4.200 
#    0.000    0.000    0.000    0.000    0.000    0.000 
#
# Total GULP energy -223626.215353 kJ/mol
# GULP energy per Si atom -5590.655384 kJ/mol
# Density = 0.912413 g / cm^3
# Si number density = 9.144947 Si / 1000 Ang^3
#
#
#
# Elastic Constant Matrix: (Units=GPa)
#
#
# Indices 1 2 3 4 5 6 
#
# 1 70.1334 22.3613 56.4451 0.0000 0.0000 0.0000
# 2 22.3613 57.6866 40.3271 0.0000 0.0000 0.0000
# 3 56.4451 40.3271 152.3418 0.0000 0.0000 0.0000
# 4 0.0000 0.0000 0.0000 24.5956 0.0000 0.0000
# 5 0.0000 0.0000 0.0000 0.0000 35.7664 0.0000
# 6 0.0000 0.0000 0.0000 0.0000 0.0000 -3.5876
#
#
#
# Elastic Compliance Matrix: (Units=1/GPa)
#
#
# Indices 1 2 3 4 5 6 
#
# 1 0.020812 -0.003285 -0.006842 0.000000 0.000000 0.000000
# 2 -0.003285 0.021790 -0.004551 0.000000 0.000000 0.000000
# 3 -0.006842 -0.004551 0.010304 0.000000 0.000000 0.000000
# 4 0.000000 0.000000 0.000000 0.040658 0.000000 0.000000
# 5 0.000000 0.000000 0.000000 0.000000 0.027959 0.000000
# 6 0.000000 0.000000 0.000000 0.000000 0.000000 -0.278736
#
#
# Mechanical properties :
#
#
# Convention : Reuss Voigt Hill
#
# Bulk Modulus (GPa) = 42.46105 57.60319 50.03212
# Shear Modulus (GPa) = -41.66407 22.09011 -9.78698
#
# Velocity S-wave (km/s) = -4.77800 3.47908 -2.31574
# Velocity P-wave (km/s) = 2.67826 6.90663 4.50158
#
# Compressibility (1/GPa) = 0.02355099
#
# Stress axis : x y z
#
# Youngs Moduli (GPa) = 48.04864 45.89306 97.05058
#
# Poissons Ratio (x) = 0.15074 0.66400
# Poissons Ratio (y) = 0.15782 0.44168
# Poissons Ratio (z) = 0.32874 0.20886
#
# Static dielectric constant tensor:
#      x y z
#    x 1.636950 0.000000 0.000000 
#    y 0.000000 1.608940 0.000000 
#    z 0.000000 0.000000 1.599630 
# 
# From -- ./inp_files/6640.got.cif
#   From: 2010.05.17/outbox.ucp.g08.bks.cvg/sg66_4_cif.got.tgz:6640.got - 2010.06.11 16:44:13.
