data_PCOD9500345
_publ_section_title
;
Structure prediction by ZEFSAII (Michael W. Deem and Ramdas Pophale) SiO2 
 PCOD9500345
Probable space group: C M M A
;
_chemical_formula_sum "Si O2"
_cell_formula_units_Z 52
_cell_length_a 8.392186
_cell_length_b 14.887174
_cell_length_c 18.183866
_cell_angle_alpha 90.000000
_cell_angle_beta 90.000000
_cell_angle_gamma 90.000000
_cell_volume 2271.818268
_symmetry_space_group_name_H-M "C M M A"
_symmetry_group_IT_number 67
_symmetry_cell_setting 'orthorhombic'
loop_
_space_group_symop_operation_xyz
x,y,z
-x,1/2-y,z
x,-y,-z
-x,1/2+y,-z
-x,-y,-z
x,1/2+y,-z
-x,y,z
x,1/2-y,z
1/2+x,1/2+y,z
1/2-x,-y,z
1/2+x,1/2-y,-z
1/2-x,y,-z
1/2-x,1/2-y,-z
1/2+x,y,-z
1/2-x,1/2+y,z
1/2+x,-y,z
loop_
_atom_site_type_symbol
_atom_site_label
_atom_site_fract_x
_atom_site_fract_y
_atom_site_fract_z
Si Si1 0.189430 0.602117 0.729374
Si Si2 0.688141 0.896652 0.576434
Si Si3 0.191003 0.852253 0.894821
Si Si4 0.750000 0.500000 0.000000
O O1 0.250000 0.500000 0.734237
O O2 0.258512 0.643130 0.654455
O O3 0.227524 0.644397 0.808131
O O4 0.000000 0.602553 0.721444
O O5 0.500000 0.898266 0.573612
O O6 0.750000 0.856268 0.500000
O O7 0.750000 0.000000 0.577791
O O8 0.211310 0.750000 0.919362
O O9 0.000000 0.876549 0.904496
O O10 0.297314 0.923754 0.939269
#
# Coordination Sequence:
#
# PCOD9500345 Si02
#       4
#    16  16  16   4
#     4  10  18  32  53  78 113 155 198 244 296 351
#     4  10  17  27  46  77 114 152 197 244 292 346
#     4  10  22  38  58  86 119 156 198 245 300 360
#     4  12  20  40  64  88 114 152 196 248 302 358
#
# _framework density 22.889154999999999
#
# number of rings (size 3 to 8) (size 9 to 14) (size 15 to 20)
#    0.000    1.846    1.538    7.385    0.000    0.000 
#    0.000    0.000    0.000   10.154    0.000    0.000 
#    0.000    0.000    0.000    0.000    0.000    0.000 
#
# Total GULP energy -144901.672424 kJ/mol
# GULP energy per Si atom -5573.141247 kJ/mol
# Density = 2.283706 g / cm^3
# Si number density = 22.889155 Si / 1000 Ang^3
#
#
#
# Elastic Constant Matrix: (Units=GPa)
#
#
# Indices 1 2 3 4 5 6 
#
# 1 94.1808 14.9678 71.7098 0.0000 0.0000 0.0000
# 2 14.9678 121.7041 44.5470 0.0000 0.0000 0.0000
# 3 71.7098 44.5470 230.8475 0.0000 0.0000 0.0000
# 4 0.0000 0.0000 0.0000 -57.9279 0.0000 0.0000
# 5 0.0000 0.0000 0.0000 0.0000 -21.4299 0.0000
# 6 0.0000 0.0000 0.0000 0.0000 0.0000 -12.9164
#
#
#
# Elastic Compliance Matrix: (Units=1/GPa)
#
#
# Indices 1 2 3 4 5 6 
#
# 1 0.013909 -0.000139 -0.004294 0.000000 0.000000 0.000000
# 2 -0.000139 0.008843 -0.001663 0.000000 0.000000 0.000000
# 3 -0.004294 -0.001663 0.005987 0.000000 0.000000 0.000000
# 4 0.000000 0.000000 0.000000 -0.017263 0.000000 0.000000
# 5 0.000000 0.000000 0.000000 0.000000 -0.046664 0.000000
# 6 0.000000 0.000000 0.000000 0.000000 0.000000 -0.077421
#
#
# Mechanical properties :
#
#
# Convention : Reuss Voigt Hill
#
# Bulk Modulus (GPa) = 60.43613 78.79796 69.61705
# Shear Modulus (GPa) = -52.68643 2.57901 -25.05371
#
# Velocity S-wave (km/s) = -4.80292 1.06263 -3.31201
# Velocity P-wave (km/s) = 2.07274 6.00052 3.98183
#
# Compressibility (1/GPa) = 0.01654639
#
# Stress axis : x y z
#
# Youngs Moduli (GPa) = 71.89383 113.09003 167.03752
#
# Poissons Ratio (x) = 0.01571 0.71725
# Poissons Ratio (y) = 0.00999 0.27782
# Poissons Ratio (z) = 0.30871 0.18809
#
# Static dielectric constant tensor:
#      x y z
#    x 1.844780 0.000000 0.000000 
#    y 0.000000 1.845980 0.000000 
#    z 0.000000 0.000000 1.901080 
# 
# From -- ./inp_files/31570.got.cif
#   From: 2010.05.17/outbox.cif.g08.bks.cpg/sg67_16_cif.got.tgz:31570.got - 2010.06.03 18:28:57.
