data_PCOD9500107
_publ_section_title
;
Structure prediction by ZEFSAII (Michael W. Deem and Ramdas Pophale) SiO2 
 PCOD9500107
Probable space group: C C C M
;
_chemical_formula_sum "Si O2"
_cell_formula_units_Z 40
_cell_length_a 27.000000
_cell_length_b 9.000000
_cell_length_c 18.000000
_cell_angle_alpha 90.000000
_cell_angle_beta 90.000000
_cell_angle_gamma 90.000000
_cell_volume 4374.000000
_symmetry_space_group_name_H-M "C C C M"
_symmetry_group_IT_number 66
_symmetry_cell_setting 'orthorhombic'
loop_
_space_group_symop_operation_xyz
x,y,z
-x,-y,z
x,-y,1/2-z
-x,y,1/2-z
-x,-y,-z
x,y,-z
-x,y,1/2+z
x,-y,1/2+z
1/2+x,1/2+y,z
1/2-x,1/2-y,z
1/2+x,1/2-y,1/2-z
1/2-x,1/2+y,1/2-z
1/2-x,1/2-y,-z
1/2+x,1/2+y,-z
1/2-x,1/2+y,1/2+z
1/2+x,1/2-y,1/2+z
loop_
_atom_site_type_symbol
_atom_site_label
_atom_site_fract_x
_atom_site_fract_y
_atom_site_fract_z
Si Si1 0.305241 0.096044 0.642774
Si Si2 0.701823 0.535717 0.087165
Si Si3 0.114641 0.200820 0.581816
Si Si4 0.442010 0.676654 0.234346
Si Si5 0.664371 0.221455 0.295928
O O1 0.345069 0.167091 0.587406
O O2 0.308906 0.204033 0.715368
O O3 0.250461 0.060762 0.610868
O O4 0.327923 0.938915 0.667825
O O5 0.651179 0.440648 0.089466
O O6 0.691641 0.662187 0.149230
O O7 0.708648 0.583643 0.000000
O O8 0.091357 0.199041 0.500000
O O9 0.075395 0.205318 0.649068
O O10 0.441269 0.500000 0.250000
O O11 0.500000 0.725434 0.250000
O O12 0.394215 0.742301 0.280718
#
# Coordination Sequence:
#
# PCOD9500107 Si02
#       5
#    16  16  16  16  16
#     4  10  22  35  56  84 120 159 192 227 284 350
#     4  11  22  37  57  86 122 158 196 237 282 338
#     4  10  21  38  59  86 118 150 191 238 285 341
#     4  10  20  39  64  85 107 145 196 248 291 340
#     4  10  22  38  55  85 116 153 199 241 281 343
#
# _framework density 9.1449470000000002
#
# number of rings (size 3 to 8) (size 9 to 14) (size 15 to 20)
#    0.000    1.800    2.000    1.800    0.000   15.200 
#    0.000   11.000    0.000    1.200    0.000    0.000 
#    0.000    0.000    0.000    0.000    0.000    0.000 
#
# Total GULP energy -223038.454851 kJ/mol
# GULP energy per Si atom -5575.961371 kJ/mol
# Density = 0.912413 g / cm^3
# Si number density = 9.144947 Si / 1000 Ang^3
#
#
#
# Elastic Constant Matrix: (Units=GPa)
#
#
# Indices 1 2 3 4 5 6 
#
# 1 146.5940 19.4931 62.4005 0.0000 0.0000 0.0000
# 2 19.4931 45.3253 39.2612 0.0000 0.0000 0.0000
# 3 62.4005 39.2612 151.1100 0.0000 0.0000 0.0000
# 4 0.0000 0.0000 0.0000 21.7140 0.0000 0.0000
# 5 0.0000 0.0000 0.0000 0.0000 29.8139 0.0000
# 6 0.0000 0.0000 0.0000 0.0000 0.0000 26.9658
#
#
#
# Elastic Compliance Matrix: (Units=1/GPa)
#
#
# Indices 1 2 3 4 5 6 
#
# 1 0.008297 -0.000775 -0.003225 0.000000 0.000000 0.000000
# 2 -0.000775 0.028543 -0.007096 0.000000 0.000000 0.000000
# 3 -0.003225 -0.007096 0.009793 0.000000 0.000000 0.000000
# 4 0.000000 0.000000 0.000000 0.046053 0.000000 0.000000
# 5 0.000000 0.000000 0.000000 0.000000 0.033541 0.000000
# 6 0.000000 0.000000 0.000000 0.000000 0.000000 0.037084
#
#
# Mechanical properties :
#
#
# Convention : Reuss Voigt Hill
#
# Bulk Modulus (GPa) = 40.91426 65.03766 52.97596
# Shear Modulus (GPa) = 25.81972 30.49039 28.15505
#
# Velocity S-wave (km/s) = 3.76133 4.08740 3.92775
# Velocity P-wave (km/s) = 6.42510 7.61001 7.04252
#
# Compressibility (1/GPa) = 0.02444136
#
# Stress axis : x y z
#
# Youngs Moduli (GPa) = 120.51959 35.03544 102.11258
#
# Poissons Ratio (x) = 0.02715 0.32932
# Poissons Ratio (y) = 0.09339 0.72458
# Poissons Ratio (z) = 0.38868 0.24861
#
# Static dielectric constant tensor:
#      x y z
#    x 1.608480 0.000000 0.000000 
#    y 0.000000 1.681150 0.000000 
#    z 0.000000 0.000000 1.673770 
# 
# From -- ./inp_files/37011.got.cif
#   From: 2010.05.17/outbox.ucp.g08.bks.cvg/sg66_19_cif.got.tgz:37011.got - 2010.06.11 16:44:13.
