data_PCOD9500806
_publ_section_title
;
Structure prediction by ZEFSAII (Michael W. Deem and Ramdas Pophale) SiO2 
 PCOD9500806
Probable space group: C M M A
;
_chemical_formula_sum "Si O2"
_cell_formula_units_Z 56
_cell_length_a 8.526719
_cell_length_b 27.419950
_cell_length_c 11.369762
_cell_angle_alpha 90.000000
_cell_angle_beta 90.000000
_cell_angle_gamma 90.000000
_cell_volume 2658.275467
_symmetry_space_group_name_H-M "C M M A"
_symmetry_group_IT_number 67
_symmetry_cell_setting 'orthorhombic'
loop_
_space_group_symop_operation_xyz
x,y,z
-x,1/2-y,z
x,-y,-z
-x,1/2+y,-z
-x,-y,-z
x,1/2+y,-z
-x,y,z
x,1/2-y,z
1/2+x,1/2+y,z
1/2-x,-y,z
1/2+x,1/2-y,-z
1/2-x,y,-z
1/2-x,1/2-y,-z
1/2+x,y,-z
1/2-x,1/2+y,z
1/2+x,-y,z
loop_
_atom_site_type_symbol
_atom_site_label
_atom_site_fract_x
_atom_site_fract_y
_atom_site_fract_z
Si Si1 0.317838 0.905681 0.622222
Si Si2 0.312527 0.750000 0.870539
Si Si3 0.810689 0.055542 0.875419
Si Si4 0.682998 0.305254 0.668241
O O1 0.500000 0.917166 0.622288
O O2 0.250000 0.926364 0.500000
O O3 0.254576 0.921914 0.750501
O O4 0.289686 0.847526 0.618259
O O5 0.500000 0.750000 0.861424
O O6 0.239758 0.796147 0.801748
O O7 0.250000 0.750000 0.000000
O O8 0.000000 0.056975 0.878340
O O9 0.750000 0.000000 0.873459
O O10 0.750000 0.077275 0.000000
O O11 0.500000 0.318686 0.660282
O O12 0.700583 0.250000 0.619822
#
# Coordination Sequence:
#
# PCOD9500806 Si02
#       4
#    16   8  16  16
#     4  11  24  40  61  91 125 164 207 253 307 366
#     4  10  18  32  53  78 111 152 199 250 300 354
#     4  10  22  41  66  94 122 158 201 248 307 369
#     4   9  20  37  56  82 115 157 203 250 303 356
#
# _framework density 21.066288
#
# number of rings (size 3 to 8) (size 9 to 14) (size 15 to 20)
#    0.857    1.143    0.000    4.286    0.000    6.857 
#    0.000    5.714    0.000    0.000    0.000    0.000 
#    0.000    0.000    0.000    0.000    0.000    0.000 
#
# Total GULP energy -155976.684046 kJ/mol
# GULP energy per Si atom -5570.595859 kJ/mol
# Density = 2.101834 g / cm^3
# Si number density = 21.066288 Si / 1000 Ang^3
#
#
#
# Elastic Constant Matrix: (Units=GPa)
#
#
# Indices 1 2 3 4 5 6 
#
# 1 50.2086 -7.1881 36.1698 0.0000 0.0000 0.0000
# 2 -7.1881 25.5321 21.1904 0.0000 0.0000 0.0000
# 3 36.1698 21.1904 204.5731 0.0000 0.0000 0.0000
# 4 0.0000 0.0000 0.0000 225.6243 0.0000 0.0000
# 5 0.0000 0.0000 0.0000 0.0000 35.2358 0.0000
# 6 0.0000 0.0000 0.0000 0.0000 0.0000 6.8751
#
#
#
# Elastic Compliance Matrix: (Units=1/GPa)
#
#
# Indices 1 2 3 4 5 6 
#
# 1 0.025846 0.012110 -0.005824 0.000000 0.000000 0.000000
# 2 0.012110 0.048525 -0.007168 0.000000 0.000000 0.000000
# 3 -0.005824 -0.007168 0.006660 0.000000 0.000000 0.000000
# 4 0.000000 0.000000 0.000000 0.004432 0.000000 0.000000
# 5 0.000000 0.000000 0.000000 0.000000 0.028380 0.000000
# 6 0.000000 0.000000 0.000000 0.000000 0.000000 0.145452
#
#
# Mechanical properties :
#
#
# Convention : Reuss Voigt Hill
#
# Bulk Modulus (GPa) = 12.61533 42.29534 27.45534
# Shear Modulus (GPa) = 17.39245 68.88982 43.14113
#
# Velocity S-wave (km/s) = 2.87645 5.72472 4.53026
# Velocity P-wave (km/s) = 4.12715 7.98858 6.35810
#
# Compressibility (1/GPa) = 0.07926863
#
# Stress axis : x y z
#
# Youngs Moduli (GPa) = 38.69012 20.60811 150.14053
#
# Poissons Ratio (x) = -0.24957 0.87445
# Poissons Ratio (y) = -0.46855 1.07614
# Poissons Ratio (z) = 0.22534 0.14771
#
# Static dielectric constant tensor:
#      x y z
#    x 1.722180 0.000000 0.000000 
#    y 0.000000 1.767010 0.000000 
#    z 0.000000 0.000000 1.757800 
# 
# From -- ./inp_files/15706.got.cif
#   From: 2010.05.17/outbox.cif.g08.bks.cpg/sg67_8_cif.got.tgz:15706.got - 2010.06.03 18:28:57.
