data_PCOD9500636
_publ_section_title
;
Structure prediction by ZEFSAII (Michael W. Deem and Ramdas Pophale) SiO2 
 PCOD9500636
Probable space group: C M M A
;
_chemical_formula_sum "Si O2"
_cell_formula_units_Z 64
_cell_length_a 35.861049
_cell_length_b 10.778033
_cell_length_c 7.120962
_cell_angle_alpha 90.000000
_cell_angle_beta 90.000000
_cell_angle_gamma 90.000000
_cell_volume 2752.334199
_symmetry_space_group_name_H-M "C M M A"
_symmetry_group_IT_number 67
_symmetry_cell_setting 'orthorhombic'
loop_
_space_group_symop_operation_xyz
x,y,z
-x,1/2-y,z
x,-y,-z
-x,1/2+y,-z
-x,-y,-z
x,1/2+y,-z
-x,y,z
x,1/2-y,z
1/2+x,1/2+y,z
1/2-x,-y,z
1/2+x,1/2-y,-z
1/2-x,y,-z
1/2-x,1/2-y,-z
1/2+x,y,-z
1/2-x,1/2+y,z
1/2+x,-y,z
loop_
_atom_site_type_symbol
_atom_site_label
_atom_site_fract_x
_atom_site_fract_y
_atom_site_fract_z
Si Si1 0.298532 0.250000 0.228445
Si Si2 0.584183 0.888984 0.305632
Si Si3 0.544065 0.617266 0.711573
Si Si4 0.834702 0.010116 0.227238
Si Si5 0.787434 0.750000 0.774299
O O1 0.320275 0.374457 0.286527
O O2 0.255417 0.250000 0.286744
O O3 0.293575 0.250000 0.001097
O O4 0.586065 0.750000 0.227085
O O5 0.566493 0.876924 0.513994
O O6 0.625119 0.948088 0.300118
O O7 0.557911 0.988529 0.203398
O O8 0.500000 0.610239 0.675380
O O9 0.551446 0.750000 0.808518
O O10 0.806749 0.121036 0.282446
O O11 0.837010 0.000000 0.000000
#
# Coordination Sequence:
#
# PCOD9500636 Si02
#       5
#     8  16  16  16   8
#     4   9  18  28  48  67  95 132 166 207 240 274
#     4  10  18  30  49  74 103 129 155 199 247 288
#     4   9  19  35  56  79  95 117 162 210 245 282
#     4  10  19  30  46  73 103 130 162 198 242 293
#     4   9  16  32  46  67  95 128 170 207 240 278
#
# _framework density 23.252991000000002
#
# number of rings (size 3 to 8) (size 9 to 14) (size 15 to 20)
#    0.000    2.500    1.250    2.250    1.750    4.500 
#    0.000    0.000    0.000    3.000    0.000   24.500 
#    0.000    0.000    0.000    0.000    0.000    0.000 
#
# Total GULP energy -178620.039918 kJ/mol
# GULP energy per Si atom -5581.876247 kJ/mol
# Density = 2.320007 g / cm^3
# Si number density = 23.252991 Si / 1000 Ang^3
#
#
#
# Elastic Constant Matrix: (Units=GPa)
#
#
# Indices 1 2 3 4 5 6 
#
# 1 196.3182 131.2471 19.4476 0.0000 0.0000 0.0000
# 2 131.2471 302.0658 19.8336 0.0000 0.0000 0.0000
# 3 19.4476 19.8336 96.6355 0.0000 0.0000 0.0000
# 4 0.0000 0.0000 0.0000 -9.9406 0.0000 0.0000
# 5 0.0000 0.0000 0.0000 0.0000 5.8123 0.0000
# 6 0.0000 0.0000 0.0000 0.0000 0.0000 46.4200
#
#
#
# Elastic Compliance Matrix: (Units=1/GPa)
#
#
# Indices 1 2 3 4 5 6 
#
# 1 0.007243 -0.003093 -0.000823 0.000000 0.000000 0.000000
# 2 -0.003093 0.004677 -0.000337 0.000000 0.000000 0.000000
# 3 -0.000823 -0.000337 0.010583 0.000000 0.000000 0.000000
# 4 0.000000 0.000000 0.000000 -0.100598 0.000000 0.000000
# 5 0.000000 0.000000 0.000000 0.000000 0.172050 0.000000
# 6 0.000000 0.000000 0.000000 0.000000 0.000000 0.021542
#
#
# Mechanical properties :
#
#
# Convention : Reuss Voigt Hill
#
# Bulk Modulus (GPa) = 71.44802 104.00845 87.72823
# Shear Modulus (GPa) = 38.85940 36.75776 37.80858
#
# Velocity S-wave (km/s) = 4.09241 3.98021 4.03670
# Velocity P-wave (km/s) = 7.28859 8.12089 7.71597
#
# Compressibility (1/GPa) = 0.01399619
#
# Stress axis : x y z
#
# Youngs Moduli (GPa) = 138.06128 213.82866 94.49123
#
# Poissons Ratio (x) = 0.66140 0.07775
# Poissons Ratio (y) = 0.42704 0.03188
# Poissons Ratio (z) = 0.11360 0.07214
#
# Static dielectric constant tensor:
#      x y z
#    x 1.804440 0.000000 0.000000 
#    y 0.000000 1.935880 0.000000 
#    z 0.000000 0.000000 1.974580 
# 
# From -- ./inp_files/14380.got.cif
#   From: 2010.05.17/outbox.cif.g08.bks.cpg/sg67_8_cif.got.tgz:14380.got - 2010.06.03 18:28:57.
