data_PCOD9500174
_publ_section_title
;
Structure prediction by ZEFSAII (Michael W. Deem and Ramdas Pophale) SiO2 
 PCOD9500174
Probable space group: C M M A
;
_chemical_formula_sum "Si O2"
_cell_formula_units_Z 80
_cell_length_a 8.680569
_cell_length_b 31.616252
_cell_length_c 21.199096
_cell_angle_alpha 90.000000
_cell_angle_beta 90.000000
_cell_angle_gamma 90.000000
_cell_volume 5818.029508
_symmetry_space_group_name_H-M "C M M A"
_symmetry_group_IT_number 67
_symmetry_cell_setting 'orthorhombic'
loop_
_space_group_symop_operation_xyz
x,y,z
-x,1/2-y,z
x,-y,-z
-x,1/2+y,-z
-x,-y,-z
x,1/2+y,-z
-x,y,z
x,1/2-y,z
1/2+x,1/2+y,z
1/2-x,-y,z
1/2+x,1/2-y,-z
1/2-x,y,-z
1/2-x,1/2-y,-z
1/2+x,y,-z
1/2-x,1/2+y,z
1/2+x,-y,z
loop_
_atom_site_type_symbol
_atom_site_label
_atom_site_fract_x
_atom_site_fract_y
_atom_site_fract_z
Si Si1 0.684096 0.452328 0.306904
Si Si2 0.184641 0.452385 0.834054
Si Si3 0.816159 0.451881 0.435293
Si Si4 0.315219 0.796237 0.928680
Si Si5 0.183629 0.883901 0.929010
O O1 0.500000 0.453870 0.315231
O O2 0.750000 0.500000 0.304210
O O3 0.718479 0.435271 0.236936
O O4 0.759042 0.432166 0.369264
O O5 0.250000 0.500000 0.839437
O O6 0.257150 0.421965 0.885933
O O7 0.000000 0.453992 0.840923
O O8 0.750000 0.500000 0.434275
O O9 0.750000 0.432515 0.500000
O O10 0.000000 0.453523 0.437500
O O11 0.500000 0.800292 0.930858
O O12 0.277832 0.750000 0.900083
O O13 0.243580 0.839009 0.901436
O O14 0.250000 0.795018 0.000000
O O15 0.000000 0.883404 0.932390
O O16 0.250000 0.888145 0.000000
#
# Coordination Sequence:
#
# PCOD9500174 Si02
#       5
#    16  16  16  16  16
#     4   9  16  26  39  53  70  93 122 157 194 232
#     4  10  20  33  46  59  77 102 135 171 206 242
#     4  10  16  22  33  49  70  92 118 152 189 228
#     4   9  16  27  44  64  84 103 123 151 191 238
#     4  11  21  32  46  62  81 103 131 166 203 242
#
# _framework density 13.750360000000001
#
# number of rings (size 3 to 8) (size 9 to 14) (size 15 to 20)
#    0.000    2.200    0.000    8.400    0.000    4.000 
#    0.000    2.000    0.000    0.000    0.000    0.000 
#    0.000    0.000    0.000    0.000    0.000    1.000 
#
# Total GULP energy -222684.025131 kJ/mol
# GULP energy per Si atom -5567.100628 kJ/mol
# Density = 1.371906 g / cm^3
# Si number density = 13.750360 Si / 1000 Ang^3
#
#
#
# Elastic Constant Matrix: (Units=GPa)
#
#
# Indices 1 2 3 4 5 6 
#
# 1 108.3185 34.4270 50.0395 0.0000 0.0000 0.0000
# 2 34.4270 67.5132 42.6196 0.0000 0.0000 0.0000
# 3 50.0395 42.6196 93.4419 0.0000 0.0000 0.0000
# 4 0.0000 0.0000 0.0000 -0.4337 0.0000 0.0000
# 5 0.0000 0.0000 0.0000 0.0000 21.2729 0.0000
# 6 0.0000 0.0000 0.0000 0.0000 0.0000 16.6768
#
#
#
# Elastic Compliance Matrix: (Units=1/GPa)
#
#
# Indices 1 2 3 4 5 6 
#
# 1 0.012703 -0.003066 -0.005404 0.000000 0.000000 0.000000
# 2 -0.003066 0.021541 -0.008183 0.000000 0.000000 0.000000
# 3 -0.005404 -0.008183 0.017328 0.000000 0.000000 0.000000
# 4 0.000000 0.000000 0.000000 -2.305776 0.000000 0.000000
# 5 0.000000 0.000000 0.000000 0.000000 0.047008 0.000000
# 6 0.000000 0.000000 0.000000 0.000000 0.000000 0.059963
#
#
# Mechanical properties :
#
#
# Convention : Reuss Voigt Hill
#
# Bulk Modulus (GPa) = 54.74770 58.16065 56.45417
# Shear Modulus (GPa) = -2.37210 16.98238 7.30514
#
# Velocity S-wave (km/s) = -1.31486 3.51814 2.30743
# Velocity P-wave (km/s) = 6.13162 7.67414 6.94583
#
# Compressibility (1/GPa) = 0.01826561
#
# Stress axis : x y z
#
# Youngs Moduli (GPa) = 78.72088 46.42241 57.70906
#
# Poissons Ratio (x) = 0.14234 0.31187
# Poissons Ratio (y) = 0.24137 0.47225
# Poissons Ratio (z) = 0.42542 0.37988
#
# Static dielectric constant tensor:
#      x y z
#    x 1.456560 0.000000 0.000000 
#    y 0.000000 1.442170 0.000000 
#    z 0.000000 0.000000 1.497250 
# 
# From -- ./inp_files/37392.got.cif
#   From: 2010.05.17/outbox.cif.g08.bks.cpg/sg67_19_cif.got.tgz:37392.got - 2010.06.03 18:28:57.
