data_PCOD9500831
_publ_section_title
;
Structure prediction by ZEFSAII (Michael W. Deem and Ramdas Pophale) SiO2 
 PCOD9500831
Probable space group: C M M A
;
_chemical_formula_sum "Si O2"
_cell_formula_units_Z 56
_cell_length_a 21.937699
_cell_length_b 8.544663
_cell_length_c 14.398945
_cell_angle_alpha 90.000000
_cell_angle_beta 90.000000
_cell_angle_gamma 90.000000
_cell_volume 2699.085767
_symmetry_space_group_name_H-M "C M M A"
_symmetry_group_IT_number 67
_symmetry_cell_setting 'orthorhombic'
loop_
_space_group_symop_operation_xyz
x,y,z
-x,1/2-y,z
x,-y,-z
-x,1/2+y,-z
-x,-y,-z
x,1/2+y,-z
-x,y,z
x,1/2-y,z
1/2+x,1/2+y,z
1/2-x,-y,z
1/2+x,1/2-y,-z
1/2-x,y,-z
1/2-x,1/2-y,-z
1/2+x,y,-z
1/2-x,1/2+y,z
1/2+x,-y,z
loop_
_atom_site_type_symbol
_atom_site_label
_atom_site_fract_x
_atom_site_fract_y
_atom_site_fract_z
Si Si1 0.567459 0.060759 0.105179
Si Si2 0.686319 0.562292 0.781153
Si Si3 0.500000 0.062916 0.394277
Si Si4 0.128992 0.563748 0.604485
O O1 0.500000 0.013151 0.141745
O O2 0.568356 0.250000 0.105207
O O3 0.626867 0.007961 0.161486
O O4 0.571515 0.000000 0.000000
O O5 0.686887 0.750000 0.779089
O O6 0.750000 0.500000 0.820626
O O7 0.678146 0.497215 0.677114
O O8 0.500000 0.250000 0.391255
O O9 0.500000 0.000000 0.500000
O O10 0.563928 0.000040 0.357565
O O11 0.137844 0.500000 0.500000
O O12 0.127323 0.750000 0.600659
#
# Coordination Sequence:
#
# PCOD9500831 Si02
#       4
#    16  16   8  16
#     4   9  20  40  66  94 122 157 199 249 308 368
#     4  11  24  41  61  89 125 165 208 255 310 368
#     4  10  18  32  54  82 115 152 197 250 304 356
#     4  11  22  38  59  87 121 162 210 257 309 365
#
# _framework density 20.747765000000001
#
# number of rings (size 3 to 8) (size 9 to 14) (size 15 to 20)
#    0.000    1.714    0.000    6.429    2.000    3.429 
#    0.000    5.714    0.000    0.000    0.000    0.000 
#    0.000    0.000    0.000    0.000    0.000    0.000 
#
# Total GULP energy -156444.532056 kJ/mol
# GULP energy per Si atom -5587.304716 kJ/mol
# Density = 2.070054 g / cm^3
# Si number density = 20.747765 Si / 1000 Ang^3
#
#
#
# Elastic Constant Matrix: (Units=GPa)
#
#
# Indices 1 2 3 4 5 6 
#
# 1 184.9758 44.2897 69.9775 0.0000 0.0000 0.0000
# 2 44.2897 106.5378 17.5851 0.0000 0.0000 0.0000
# 3 69.9775 17.5851 77.5240 0.0000 0.0000 0.0000
# 4 0.0000 0.0000 0.0000 24.1722 0.0000 0.0000
# 5 0.0000 0.0000 0.0000 0.0000 31.8234 0.0000
# 6 0.0000 0.0000 0.0000 0.0000 0.0000 34.2435
#
#
#
# Elastic Compliance Matrix: (Units=1/GPa)
#
#
# Indices 1 2 3 4 5 6 
#
# 1 0.008777 -0.002432 -0.007371 0.000000 0.000000 0.000000
# 2 -0.002432 0.010425 -0.000170 0.000000 0.000000 0.000000
# 3 -0.007371 -0.000170 0.019591 0.000000 0.000000 0.000000
# 4 0.000000 0.000000 0.000000 0.041370 0.000000 0.000000
# 5 0.000000 0.000000 0.000000 0.000000 0.031423 0.000000
# 6 0.000000 0.000000 0.000000 0.000000 0.000000 0.029203
#
#
# Mechanical properties :
#
#
# Convention : Reuss Voigt Hill
#
# Bulk Modulus (GPa) = 53.05477 70.30469 61.67973
# Shear Modulus (GPa) = 29.93712 33.86017 31.89864
#
# Velocity S-wave (km/s) = 3.80268 4.04417 3.92529
# Velocity P-wave (km/s) = 6.70130 7.46767 7.09484
#
# Compressibility (1/GPa) = 0.01884845
#
# Stress axis : x y z
#
# Youngs Moduli (GPa) = 113.93594 95.91975 51.04385
#
# Poissons Ratio (x) = 0.23328 0.37623
# Poissons Ratio (y) = 0.27710 0.00865
# Poissons Ratio (z) = 0.83980 0.01626
#
# Static dielectric constant tensor:
#      x y z
#    x 2.726790 0.000000 0.000000 
#    y 0.000000 1.711920 0.000000 
#    z 0.000000 0.000000 1.720280 
# 
# From -- ./inp_files/24591.got.cif
#   From: 2010.05.17/outbox.cif.g08.bks.cpg/sg67_13_cif.got.tgz:24591.got - 2010.06.03 18:28:57.
