data_PCOD9500355
_publ_section_title
;
Structure prediction by ZEFSAII (Michael W. Deem and Ramdas Pophale) SiO2 
 PCOD9500355
Probable space group: C M M A
;
_chemical_formula_sum "Si O2"
_cell_formula_units_Z 80
_cell_length_a 28.312211
_cell_length_b 8.428576
_cell_length_c 20.537046
_cell_angle_alpha 90.000000
_cell_angle_beta 90.000000
_cell_angle_gamma 90.000000
_cell_volume 4900.788601
_symmetry_space_group_name_H-M "C M M A"
_symmetry_group_IT_number 67
_symmetry_cell_setting 'orthorhombic'
loop_
_space_group_symop_operation_xyz
x,y,z
-x,1/2-y,z
x,-y,-z
-x,1/2+y,-z
-x,-y,-z
x,1/2+y,-z
-x,y,z
x,1/2-y,z
1/2+x,1/2+y,z
1/2-x,-y,z
1/2+x,1/2-y,-z
1/2-x,y,-z
1/2-x,1/2-y,-z
1/2+x,y,-z
1/2-x,1/2+y,z
1/2+x,-y,z
loop_
_atom_site_type_symbol
_atom_site_label
_atom_site_fract_x
_atom_site_fract_y
_atom_site_fract_z
Si Si1 0.695611 0.938162 0.292046
Si Si2 0.803448 0.559267 0.931741
Si Si3 0.055027 0.558726 0.072821
Si Si4 0.303941 0.561356 0.567408
Si Si5 0.631020 0.064638 0.177423
O O1 0.700065 0.750000 0.293182
O O2 0.750000 0.000000 0.278484
O O3 0.679035 0.999340 0.362936
O O4 0.654970 0.986297 0.240708
O O5 0.806703 0.750000 0.925094
O O6 0.750000 0.500000 0.931055
O O7 0.828528 0.464157 0.875398
O O8 0.824071 0.500000 0.000000
O O9 0.059228 0.750000 0.071704
O O10 0.085853 0.502517 0.135274
O O11 0.000000 0.515571 0.081750
O O12 0.068594 0.500000 0.000000
O O13 0.326533 0.500000 0.500000
O O14 0.304150 0.750000 0.566919
O O15 0.250000 0.500000 0.566345
O O16 0.623199 0.250000 0.191588
#
# Coordination Sequence:
#
# PCOD9500355 Si02
#       5
#    16  16  16  16  16
#     4  11  21  33  47  67  96 129 164 197 233 274
#     4  11  21  33  46  62  85 115 152 188 224 266
#     4   9  19  35  54  73  92 116 149 191 238 287
#     4  10  17  28  45  66  92 125 163 198 232 267
#     4  11  21  33  48  67  92 120 151 188 233 280
#
# _framework density 16.323903999999999
#
# number of rings (size 3 to 8) (size 9 to 14) (size 15 to 20)
#    0.000    1.600    0.000    9.600    0.000    3.200 
#    0.000    0.000    0.000    0.000    0.000    0.000 
#    0.000    0.800    0.000    2.200    0.000    3.600 
#
# Total GULP energy -222785.728997 kJ/mol
# GULP energy per Si atom -5569.643225 kJ/mol
# Density = 1.628675 g / cm^3
# Si number density = 16.323904 Si / 1000 Ang^3
#
#
#
# Elastic Constant Matrix: (Units=GPa)
#
#
# Indices 1 2 3 4 5 6 
#
# 1 79.2028 17.7232 47.6995 0.0000 0.0000 0.0000
# 2 17.7232 87.9076 29.2845 0.0000 0.0000 0.0000
# 3 47.6995 29.2845 149.6007 0.0000 0.0000 0.0000
# 4 0.0000 0.0000 0.0000 31.5877 0.0000 0.0000
# 5 0.0000 0.0000 0.0000 0.0000 23.3213 0.0000
# 6 0.0000 0.0000 0.0000 0.0000 0.0000 13.1527
#
#
#
# Elastic Compliance Matrix: (Units=1/GPa)
#
#
# Indices 1 2 3 4 5 6 
#
# 1 0.015838 -0.001616 -0.004734 0.000000 0.000000 0.000000
# 2 -0.001616 0.012334 -0.001899 0.000000 0.000000 0.000000
# 3 -0.004734 -0.001899 0.008565 0.000000 0.000000 0.000000
# 4 0.000000 0.000000 0.000000 0.031658 0.000000 0.000000
# 5 0.000000 0.000000 0.000000 0.000000 0.042879 0.000000
# 6 0.000000 0.000000 0.000000 0.000000 0.000000 0.076030
#
#
# Mechanical properties :
#
#
# Convention : Reuss Voigt Hill
#
# Bulk Modulus (GPa) = 49.40717 56.23617 52.82167
# Shear Modulus (GPa) = 23.74742 28.41261 26.08001
#
# Velocity S-wave (km/s) = 3.81827 4.17652 4.00141
# Velocity P-wave (km/s) = 7.05489 7.60150 7.33329
#
# Compressibility (1/GPa) = 0.02023998
#
# Stress axis : x y z
#
# Youngs Moduli (GPa) = 63.13821 81.07618 116.74760
#
# Poissons Ratio (x) = 0.13104 0.55263
# Poissons Ratio (y) = 0.10205 0.22171
# Poissons Ratio (z) = 0.29887 0.15397
#
# Static dielectric constant tensor:
#      x y z
#    x 1.521500 0.000000 0.000000 
#    y 0.000000 1.559310 0.000000 
#    z 0.000000 0.000000 1.459350 
# 
# From -- ./inp_files/36069.got.cif
#   From: 2010.05.17/outbox.cif.g08.bks.cpg/sg67_19_cif.got.tgz:36069.got - 2010.06.03 18:28:57.
