data_PCOD9500519
_publ_section_title
;
Structure prediction by ZEFSAII (Michael W. Deem and Ramdas Pophale) SiO2 
 PCOD9500519
Probable space group: C M M A
;
_chemical_formula_sum "Si O2"
_cell_formula_units_Z 68
_cell_length_a 20.704911
_cell_length_b 8.891347
_cell_length_c 19.879902
_cell_angle_alpha 90.000000
_cell_angle_beta 90.000000
_cell_angle_gamma 90.000000
_cell_volume 3659.781579
_symmetry_space_group_name_H-M "C M M A"
_symmetry_group_IT_number 67
_symmetry_cell_setting 'orthorhombic'
loop_
_space_group_symop_operation_xyz
x,y,z
-x,1/2-y,z
x,-y,-z
-x,1/2+y,-z
-x,-y,-z
x,1/2+y,-z
-x,y,z
x,1/2-y,z
1/2+x,1/2+y,z
1/2-x,-y,z
1/2+x,1/2-y,-z
1/2-x,y,-z
1/2-x,1/2-y,-z
1/2+x,y,-z
1/2-x,1/2+y,z
1/2+x,-y,z
loop_
_atom_site_type_symbol
_atom_site_label
_atom_site_fract_x
_atom_site_fract_y
_atom_site_fract_z
Si Si1 0.871769 0.416237 0.296354
Si Si2 0.182316 0.071432 0.831176
Si Si3 0.574296 0.429287 0.925757
Si Si4 0.576713 0.929562 0.572092
Si Si5 0.000000 0.750000 0.740655
O O1 0.841076 0.250000 0.304885
O O2 0.832605 0.515896 0.244251
O O3 0.884413 0.494539 0.367470
O O4 0.942261 0.377993 0.264792
O O5 0.185063 0.250000 0.834946
O O6 0.250000 0.000000 0.853369
O O7 0.125179 0.007937 0.877618
O O8 0.500000 0.449776 0.902413
O O9 0.585918 0.250000 0.927728
O O10 0.579151 0.500000 0.000000
O O11 0.500000 0.962226 0.582507
O O12 0.584745 0.750000 0.571158
O O13 0.594096 0.000000 0.500000
#
# Coordination Sequence:
#
# PCOD9500519 Si02
#       5
#    16  16  16  16   4
#     4  10  19  36  55  82 116 150 193 240 293 351
#     4  12  26  42  61  87 118 158 201 244 293 347
#     4  10  22  41  66  95 126 157 193 238 289 344
#     4  10  18  28  47  77 114 151 191 240 295 350
#     4   8  20  32  60  84 116 152 194 234 316 332
#
# _framework density 18.580344
#
# number of rings (size 3 to 8) (size 9 to 14) (size 15 to 20)
#    0.706    0.941    1.176    4.235    1.647    2.824 
#    0.000    2.353    0.000    0.706    0.000    4.941 
#    0.000    0.000    0.000    0.000    0.000    0.000 
#
# Total GULP energy -189286.836019 kJ/mol
# GULP energy per Si atom -5567.259883 kJ/mol
# Density = 1.853805 g / cm^3
# Si number density = 18.580344 Si / 1000 Ang^3
#
#
#
# Elastic Constant Matrix: (Units=GPa)
#
#
# Indices 1 2 3 4 5 6 
#
# 1 80.8991 72.1795 55.9730 0.0000 0.0000 0.0000
# 2 72.1795 164.6519 79.1686 0.0000 0.0000 0.0000
# 3 55.9730 79.1686 110.2006 0.0000 0.0000 0.0000
# 4 0.0000 0.0000 0.0000 33.7429 0.0000 0.0000
# 5 0.0000 0.0000 0.0000 0.0000 17.4094 0.0000
# 6 0.0000 0.0000 0.0000 0.0000 0.0000 28.4991
#
#
#
# Elastic Compliance Matrix: (Units=1/GPa)
#
#
# Indices 1 2 3 4 5 6 
#
# 1 0.023263 -0.006900 -0.006859 0.000000 0.000000 0.000000
# 2 -0.006900 0.011325 -0.004631 0.000000 0.000000 0.000000
# 3 -0.006859 -0.004631 0.015885 0.000000 0.000000 0.000000
# 4 0.000000 0.000000 0.000000 0.029636 0.000000 0.000000
# 5 0.000000 0.000000 0.000000 0.000000 0.057440 0.000000
# 6 0.000000 0.000000 0.000000 0.000000 0.000000 0.035089
#
#
# Mechanical properties :
#
#
# Convention : Reuss Voigt Hill
#
# Bulk Modulus (GPa) = 73.02963 85.59930 79.31447
# Shear Modulus (GPa) = 23.36643 25.82565 24.59604
#
# Velocity S-wave (km/s) = 3.55010 3.73224 3.64231
# Velocity P-wave (km/s) = 7.49629 8.04628 7.77615
#
# Compressibility (1/GPa) = 0.01369307
#
# Stress axis : x y z
#
# Youngs Moduli (GPa) = 42.98712 88.29941 62.95201
#
# Poissons Ratio (x) = 0.60927 0.43176
# Poissons Ratio (y) = 0.29662 0.29155
# Poissons Ratio (z) = 0.29483 0.40894
#
# Static dielectric constant tensor:
#      x y z
#    x 1.630840 0.000000 0.000000 
#    y 0.000000 1.620280 0.000000 
#    z 0.000000 0.000000 1.642970 
# 
# From -- ./inp_files/38801.got.cif
#   From: 2010.05.17/outbox.cif.g08.bks.cpg/sg67_20_cif.got.tgz:38801.got - 2010.06.03 18:28:57.
