data_PCOD9500012
_publ_section_title
;
Structure prediction by ZEFSAII (Michael W. Deem and Ramdas Pophale) SiO2 
 PCOD9500012
Probable space group: C C C M
;
_chemical_formula_sum "Si O2"
_cell_formula_units_Z 64
_cell_length_a 6.396633
_cell_length_b 22.988030
_cell_length_c 14.583732
_cell_angle_alpha 90.000000
_cell_angle_beta 90.000000
_cell_angle_gamma 90.000000
_cell_volume 2144.479329
_symmetry_space_group_name_H-M "C C C M"
_symmetry_group_IT_number 66
_symmetry_cell_setting 'orthorhombic'
loop_
_space_group_symop_operation_xyz
x,y,z
-x,-y,z
x,-y,1/2-z
-x,y,1/2-z
-x,-y,-z
x,y,-z
-x,y,1/2+z
x,-y,1/2+z
1/2+x,1/2+y,z
1/2-x,1/2-y,z
1/2+x,1/2-y,1/2-z
1/2-x,1/2+y,1/2-z
1/2-x,1/2-y,-z
1/2+x,1/2+y,-z
1/2-x,1/2+y,1/2+z
1/2+x,1/2-y,1/2+z
loop_
_atom_site_type_symbol
_atom_site_label
_atom_site_fract_x
_atom_site_fract_y
_atom_site_fract_z
Si Si1 0.608402 0.360707 0.111721
Si Si2 0.360079 0.112642 0.108251
Si Si3 0.995544 0.265392 0.610015
Si Si4 0.233413 0.012002 0.357642
O O1 0.375376 0.377730 0.146428
O O2 0.619472 0.292757 0.142027
O O3 0.748389 0.418118 0.130818
O O4 0.607734 0.358563 0.000000
O O5 0.496993 0.167441 0.144217
O O6 0.376115 0.042628 0.111907
O O7 0.353698 0.124685 0.000000
O O8 0.030894 0.266991 0.500000
O O9 0.750000 0.250000 0.622633
O O10 0.230585 0.000000 0.250000
O O11 0.000000 0.000000 0.397167
#
# Coordination Sequence:
#
# PCOD9500012 Si02
#       4
#    16  16  16  16
#     4   8  12  18  27  37  50  72 102 133 161 188
#     4   8  12  18  27  37  50  72 102 133 161 188
#     4   7  10  16  26  38  48  62  95 137 163 181
#     4   9  15  19  23  35  57  83 105 125 153 193
#
# _framework density 29.844073999999999
#
# number of rings (size 3 to 8) (size 9 to 14) (size 15 to 20)
#    0.000    4.000    0.000    3.750    0.000    3.000 
#    0.000    0.000    0.000    0.000    0.000    0.000 
#    0.000    0.000    0.000    9.000    0.000  290.500 
#
# Total GULP energy -178631.319093 kJ/mol
# GULP energy per Si atom -5582.228722 kJ/mol
# Density = 2.977615 g / cm^3
# Si number density = 29.844074 Si / 1000 Ang^3
#
#
#
# Elastic Constant Matrix: (Units=GPa)
#
#
# Indices 1 2 3 4 5 6 
#
# 1 128.2157 197.8348 -7.3414 0.0000 0.0000 0.0000
# 2 197.8348 496.5578 15.9370 0.0000 0.0000 0.0000
# 3 -7.3414 15.9370 92.6572 0.0000 0.0000 0.0000
# 4 0.0000 0.0000 0.0000 1163.2110 0.0000 0.0000
# 5 0.0000 0.0000 0.0000 0.0000 -75.9786 0.0000
# 6 0.0000 0.0000 0.0000 0.0000 0.0000 117.4690
#
#
#
# Elastic Compliance Matrix: (Units=1/GPa)
#
#
# Indices 1 2 3 4 5 6 
#
# 1 0.021114 -0.008513 0.003137 0.000000 0.000000 0.000000
# 2 -0.008513 0.005457 -0.001613 0.000000 0.000000 0.000000
# 3 0.003137 -0.001613 0.011318 0.000000 0.000000 0.000000
# 4 0.000000 0.000000 0.000000 0.000860 0.000000 0.000000
# 5 0.000000 0.000000 0.000000 0.000000 -0.013162 0.000000
# 6 0.000000 0.000000 0.000000 0.000000 0.000000 0.008513
#
#
# Mechanical properties :
#
#
# Convention : Reuss Voigt Hill
#
# Bulk Modulus (GPa) = 41.81963 125.58794 83.70379
# Shear Modulus (GPa) = 89.20721 275.00697 182.10709
#
# Velocity S-wave (km/s) = 5.47321 9.60979 7.81997
# Velocity P-wave (km/s) = 7.34741 12.85704 10.47110
#
# Compressibility (1/GPa) = 0.02391221
#
# Stress axis : x y z
#
# Youngs Moduli (GPa) = 47.36161 183.24233 88.35101
#
# Poissons Ratio (x) = 1.55991 -0.27717
# Poissons Ratio (y) = 0.40318 0.14252
# Poissons Ratio (z) = -0.14858 0.29559
#
# Static dielectric constant tensor:
#      x y z
#    x 2.618530 0.000000 0.000000 
#    y 0.000000 2.282010 0.000000 
#    z 0.000000 0.000000 2.209120 
# 
# From -- ./inp_files/30820.got.cif
#   From: 2010.05.17/outbox.cif.g08.bks.cpg/sg66_16_cif.got.tgz:30820.got - 2010.06.03 17:51:23.
