data_PCOD9500465
_publ_section_title
;
Structure prediction by ZEFSAII (Michael W. Deem and Ramdas Pophale) SiO2 
 PCOD9500465
Probable space group: C M M A
;
_chemical_formula_sum "Si O2"
_cell_formula_units_Z 116
_cell_length_a 24.270735
_cell_length_b 17.548289
_cell_length_c 12.445964
_cell_angle_alpha 90.000000
_cell_angle_beta 90.000000
_cell_angle_gamma 90.000000
_cell_volume 5300.858934
_symmetry_space_group_name_H-M "C M M A"
_symmetry_group_IT_number 67
_symmetry_cell_setting 'orthorhombic'
loop_
_space_group_symop_operation_xyz
x,y,z
-x,1/2-y,z
x,-y,-z
-x,1/2+y,-z
-x,-y,-z
x,1/2+y,-z
-x,y,z
x,1/2-y,z
1/2+x,1/2+y,z
1/2-x,-y,z
1/2+x,1/2-y,-z
1/2-x,y,-z
1/2-x,1/2-y,-z
1/2+x,y,-z
1/2-x,1/2+y,z
1/2+x,-y,z
loop_
_atom_site_type_symbol
_atom_site_label
_atom_site_fract_x
_atom_site_fract_y
_atom_site_fract_z
Si Si1 0.904280 0.377977 0.508305
Si Si2 0.331218 0.166727 0.670623
Si Si3 0.668706 0.159599 0.049097
Si Si4 0.500000 0.250000 0.485757
Si Si5 0.063324 0.989573 0.340345
Si Si6 0.061880 0.624886 0.795772
Si Si7 0.560864 0.912240 0.964431
Si Si8 0.770414 0.586618 0.848558
O O1 0.848628 0.349799 0.451459
O O2 0.926484 0.442500 0.425560
O O3 0.898770 0.420609 0.622169
O O4 0.951109 0.315287 0.514286
O O5 0.305616 0.250000 0.681735
O O6 0.389901 0.167412 0.734528
O O7 0.296245 0.103518 0.732651
O O8 0.664501 0.250000 0.028046
O O9 0.718927 0.141542 0.128257
O O10 0.612773 0.123091 0.094966
O O11 0.685509 0.112769 0.940153
O O12 0.000000 0.964504 0.346693
O O13 0.071190 0.034703 0.229727
O O14 0.061472 0.634622 0.922764
O O15 0.000000 0.644049 0.755506
O O16 0.500000 0.903769 0.914795
O O17 0.567400 0.000000 0.000000
O O18 0.750000 0.500000 0.862192
#
# Coordination Sequence:
#
# PCOD9500465 Si02
#       8
#    16  16  16   4  16  16  16  16
#     4  10  18  26  46  74 119 156 194 231 290 342
#     4  11  21  31  49  82 122 144 183 241 302 348
#     4  11  21  36  59  83 112 145 188 243 298 351
#     4  12  16  26  44  84 120 164 192 244 300 346
#     4   9  15  29  44  70 112 160 197 222 265 345
#     4   9  19  30  50  79 117 160 189 225 281 339
#     4  10  20  35  54  83 118 155 191 226 280 346
#     4  11  22  37  55  76 111 149 194 243 294 358
#
# _framework density 21.883246
#
# number of rings (size 3 to 8) (size 9 to 14) (size 15 to 20)
#    0.000    1.793    3.448    3.724    0.966    0.552 
#    0.000    1.379    0.000    0.000    1.793    7.724 
#    4.138   17.655    0.000    0.000    0.000    0.000 
#
# Total GULP energy -323125.850495 kJ/mol
# GULP energy per Si atom -5571.135353 kJ/mol
# Density = 2.183344 g / cm^3
# Si number density = 21.883246 Si / 1000 Ang^3
#
#
#
# Elastic Constant Matrix: (Units=GPa)
#
#
# Indices 1 2 3 4 5 6 
#
# 1 94.5048 35.0668 2.1236 0.0000 0.0000 0.0000
# 2 35.0668 129.6764 10.4249 0.0000 0.0000 0.0000
# 3 2.1236 10.4249 37.8339 0.0000 0.0000 0.0000
# 4 0.0000 0.0000 0.0000 7.8631 0.0000 0.0000
# 5 0.0000 0.0000 0.0000 0.0000 9.0567 0.0000
# 6 0.0000 0.0000 0.0000 0.0000 0.0000 20.9744
#
#
#
# Elastic Compliance Matrix: (Units=1/GPa)
#
#
# Indices 1 2 3 4 5 6 
#
# 1 0.011763 -0.003199 0.000221 0.000000 0.000000 0.000000
# 2 -0.003199 0.008756 -0.002233 0.000000 0.000000 0.000000
# 3 0.000221 -0.002233 0.027034 0.000000 0.000000 0.000000
# 4 0.000000 0.000000 0.000000 0.127176 0.000000 0.000000
# 5 0.000000 0.000000 0.000000 0.000000 0.110416 0.000000
# 6 0.000000 0.000000 0.000000 0.000000 0.000000 0.047677
#
#
# Mechanical properties :
#
#
# Convention : Reuss Voigt Hill
#
# Bulk Modulus (GPa) = 26.93086 39.69395 33.31241
# Shear Modulus (GPa) = 14.05987 21.87216 17.96602
#
# Velocity S-wave (km/s) = 2.53750 3.16491 2.86841
# Velocity P-wave (km/s) = 4.57368 5.61550 5.12115
#
# Compressibility (1/GPa) = 0.03713212
#
# Stress axis : x y z
#
# Youngs Moduli (GPa) = 85.00910 114.20679 36.99013
#
# Poissons Ratio (x) = 0.36533 -0.00818
# Poissons Ratio (y) = 0.27193 0.08260
# Poissons Ratio (z) = -0.01880 0.25504
#
# Static dielectric constant tensor:
#      x y z
#    x 1.811970 0.000000 0.000000 
#    y 0.000000 1.827370 0.000000 
#    z 0.000000 0.000000 1.918050 
# 
# From -- ./inp_files/35555.got.cif
#   From: 2010.05.17/outbox.cif.g08.bks.cpg/sg67_18_cif.got.tgz:35555.got - 2010.06.03 18:28:57.
