data_PCOD9500052
_publ_section_title
;
Structure prediction by ZEFSAII (Michael W. Deem and Ramdas Pophale) SiO2 
 PCOD9500052
Probable space group: C C C M
;
_chemical_formula_sum "Si O2"
_cell_formula_units_Z 32
_cell_length_a 12.897601
_cell_length_b 7.026190
_cell_length_c 12.670546
_cell_angle_alpha 90.000000
_cell_angle_beta 90.000000
_cell_angle_gamma 90.000000
_cell_volume 1148.217488
_symmetry_space_group_name_H-M "C C C M"
_symmetry_group_IT_number 66
_symmetry_cell_setting 'orthorhombic'
loop_
_space_group_symop_operation_xyz
x,y,z
-x,-y,z
x,-y,1/2-z
-x,y,1/2-z
-x,-y,-z
x,y,-z
-x,y,1/2+z
x,-y,1/2+z
1/2+x,1/2+y,z
1/2-x,1/2-y,z
1/2+x,1/2-y,1/2-z
1/2-x,1/2+y,1/2-z
1/2-x,1/2-y,-z
1/2+x,1/2+y,-z
1/2-x,1/2+y,1/2+z
1/2+x,1/2-y,1/2+z
loop_
_atom_site_type_symbol
_atom_site_label
_atom_site_fract_x
_atom_site_fract_y
_atom_site_fract_z
Si Si1 0.596846 0.760253 0.114320
Si Si2 0.136087 0.287302 0.652160
O O1 0.640400 0.704220 0.227932
O O2 0.474630 0.711171 0.113320
O O3 0.615221 0.988249 0.129741
O O4 0.639084 0.699467 0.000000
O O5 0.250000 0.250000 0.609149
#
# Coordination Sequence:
#
# PCOD9500052 Si02
#       2
#    16  16
#     4   9  18  30  46  74 102 126 169 209 237 297
#     4   9  17  30  49  73 103 134 162 204 254 290
#
# _framework density 27.869281999999998
#
# number of rings (size 3 to 8) (size 9 to 14) (size 15 to 20)
#    0.000    3.000    0.000    6.000    0.000    5.000 
#    0.000    0.000    0.000   24.000    0.000   28.000 
#    0.000    0.000    0.000    0.000    0.000    0.000 
#
# Total GULP energy -89115.700726 kJ/mol
# GULP energy per Si atom -5569.731295 kJ/mol
# Density = 2.780585 g / cm^3
# Si number density = 27.869282 Si / 1000 Ang^3
#
#
#
# Elastic Constant Matrix: (Units=GPa)
#
#
# Indices 1 2 3 4 5 6 
#
# 1 297.9718 34.4586 44.0866 0.0000 0.0000 0.0000
# 2 34.4586 130.5831 -1.0667 0.0000 0.0000 0.0000
# 3 44.0866 -1.0667 281.9631 0.0000 0.0000 0.0000
# 4 0.0000 0.0000 0.0000 -36.1259 0.0000 0.0000
# 5 0.0000 0.0000 0.0000 0.0000 -43.5923 0.0000
# 6 0.0000 0.0000 0.0000 0.0000 0.0000 24.7239
#
#
#
# Elastic Compliance Matrix: (Units=1/GPa)
#
#
# Indices 1 2 3 4 5 6 
#
# 1 0.003547 -0.000941 -0.000558 0.000000 0.000000 0.000000
# 2 -0.000941 0.007908 0.000177 0.000000 0.000000 0.000000
# 3 -0.000558 0.000177 0.003635 0.000000 0.000000 0.000000
# 4 0.000000 0.000000 0.000000 -0.027681 0.000000 0.000000
# 5 0.000000 0.000000 0.000000 0.000000 -0.022940 0.000000
# 6 0.000000 0.000000 0.000000 0.000000 0.000000 0.040447
#
#
# Mechanical properties :
#
#
# Convention : Reuss Voigt Hill
#
# Bulk Modulus (GPa) = 80.34852 96.16389 88.25621
# Shear Modulus (GPa) = 427.06855 31.20377 229.13616
#
# Velocity S-wave (km/s) = 12.39244 3.34974 9.07726
# Velocity P-wave (km/s) = 15.28583 7.03856 11.89953
#
# Compressibility (1/GPa) = 0.01244578
#
# Stress axis : x y z
#
# Youngs Moduli (GPa) = 281.89705 126.46015 275.13999
#
# Poissons Ratio (x) = 0.11896 0.15359
# Poissons Ratio (y) = 0.26517 -0.04870
# Poissons Ratio (z) = 0.15736 -0.02238
#
# Static dielectric constant tensor:
#      x y z
#    x 2.064110 0.000000 0.000000 
#    y 0.000000 2.205620 0.000000 
#    z 0.000000 0.000000 2.218090 
# 
# From -- ./inp_files/12627.got.cif
#   From: 2010.05.17/outbox.cif.g08.bks.cpg/sg66_7_cif.got.tgz:12627.got - 2010.06.03 17:51:23.
