data_PCOD9500343
_publ_section_title
;
Structure prediction by ZEFSAII (Michael W. Deem and Ramdas Pophale) SiO2 
 PCOD9500343
Probable space group: C M M A
;
_chemical_formula_sum "Si O2"
_cell_formula_units_Z 112
_cell_length_a 15.511804
_cell_length_b 26.740164
_cell_length_c 16.745446
_cell_angle_alpha 90.000000
_cell_angle_beta 90.000000
_cell_angle_gamma 90.000000
_cell_volume 6945.813118
_symmetry_space_group_name_H-M "C M M A"
_symmetry_group_IT_number 67
_symmetry_cell_setting 'orthorhombic'
loop_
_space_group_symop_operation_xyz
x,y,z
-x,1/2-y,z
x,-y,-z
-x,1/2+y,-z
-x,-y,-z
x,1/2+y,-z
-x,y,z
x,1/2-y,z
1/2+x,1/2+y,z
1/2-x,-y,z
1/2+x,1/2-y,-z
1/2-x,y,-z
1/2-x,1/2-y,-z
1/2+x,y,-z
1/2-x,1/2+y,z
1/2+x,-y,z
loop_
_atom_site_type_symbol
_atom_site_label
_atom_site_fract_x
_atom_site_fract_y
_atom_site_fract_z
Si Si1 0.099421 0.431118 0.675895
Si Si2 0.764412 0.691378 0.729675
Si Si3 0.650281 0.308834 0.027137
Si Si4 0.761013 0.382381 0.410078
Si Si5 0.100088 0.029381 0.415977
Si Si6 0.593137 0.189373 0.854471
Si Si7 0.899379 0.146720 0.806382
O O1 0.169976 0.403953 0.621423
O O2 0.111135 0.489637 0.656349
O O3 0.110477 0.408260 0.765106
O O4 0.000000 0.419784 0.652442
O O5 0.777600 0.750000 0.719171
O O6 0.785923 0.661029 0.650670
O O7 0.826887 0.672788 0.800983
O O8 0.666369 0.680746 0.755927
O O9 0.631191 0.250000 0.047015
O O10 0.628016 0.343432 0.102233
O O11 0.750000 0.310433 0.000000
O O12 0.600824 0.324517 0.947091
O O13 0.750000 0.364341 0.500000
O O14 0.831684 0.426401 0.409307
O O15 0.000000 0.046159 0.416481
O O16 0.114461 0.000000 0.500000
O O17 0.500000 0.173752 0.822007
O O18 0.596544 0.250000 0.854711
O O19 0.000000 0.160286 0.798584
#
# Coordination Sequence:
#
# PCOD9500343 Si02
#       7
#    16  16  16  16  16  16  16
#     4   9  19  33  49  75 106 129 156 206 262 308
#     4  10  21  35  47  68 104 140 173 214 250 290
#     4  10  17  27  46  71 101 132 169 217 255 292
#     4  11  21  32  53  76  99 133 171 209 254 313
#     4  10  19  33  55  79 101 123 156 210 266 309
#     4   9  17  30  47  66  93 131 171 211 253 290
#     4  10  19  31  49  73 102 138 173 202 250 310
#
# _framework density 16.124822000000002
#
# number of rings (size 3 to 8) (size 9 to 14) (size 15 to 20)
#    0.000    2.143    2.857    1.286    0.000    2.571 
#    0.000    0.000    0.000    0.000    0.000    5.000 
#    0.000    4.571    0.286    0.000    0.000    0.000 
#
# Total GULP energy -311867.206103 kJ/mol
# GULP energy per Si atom -5569.057252 kJ/mol
# Density = 1.608812 g / cm^3
# Si number density = 16.124822 Si / 1000 Ang^3
#
#
#
# Elastic Constant Matrix: (Units=GPa)
#
#
# Indices 1 2 3 4 5 6 
#
# 1 84.4339 31.7336 48.9019 0.0000 0.0000 0.0000
# 2 31.7336 56.1852 53.8913 0.0000 0.0000 0.0000
# 3 48.9019 53.8913 126.7123 0.0000 0.0000 0.0000
# 4 0.0000 0.0000 0.0000 27.0249 0.0000 0.0000
# 5 0.0000 0.0000 0.0000 0.0000 20.4891 0.0000
# 6 0.0000 0.0000 0.0000 0.0000 0.0000 14.3710
#
#
#
# Elastic Compliance Matrix: (Units=1/GPa)
#
#
# Indices 1 2 3 4 5 6 
#
# 1 0.016138 -0.005305 -0.003972 0.000000 0.000000 0.000000
# 2 -0.005305 0.031806 -0.011480 0.000000 0.000000 0.000000
# 3 -0.003972 -0.011480 0.014307 0.000000 0.000000 0.000000
# 4 0.000000 0.000000 0.000000 0.037003 0.000000 0.000000
# 5 0.000000 0.000000 0.000000 0.000000 0.048806 0.000000
# 6 0.000000 0.000000 0.000000 0.000000 0.000000 0.069584
#
#
# Mechanical properties :
#
#
# Convention : Reuss Voigt Hill
#
# Bulk Modulus (GPa) = 48.22200 59.59834 53.91017
# Shear Modulus (GPa) = 18.79206 21.23065 20.01135
#
# Velocity S-wave (km/s) = 3.41752 3.63250 3.52664
# Velocity P-wave (km/s) = 6.74855 7.39150 7.07733
#
# Compressibility (1/GPa) = 0.02073742
#
# Stress axis : x y z
#
# Youngs Moduli (GPa) = 61.96646 31.44101 69.89546
#
# Poissons Ratio (x) = 0.16680 0.27761
# Poissons Ratio (y) = 0.32873 0.80238
# Poissons Ratio (z) = 0.24612 0.36093
#
# Static dielectric constant tensor:
#      x y z
#    x 1.575620 0.000000 0.000000 
#    y 0.000000 1.524770 0.000000 
#    z 0.000000 0.000000 1.549080 
# 
# From -- ./inp_files/27754.got.cif
#   From: 2010.05.17/outbox.cif.g08.bks.cpg/sg67_14_cif.got.tgz:27754.got - 2010.06.03 18:28:57.
