data_PCOD9500588
_publ_section_title
;
Structure prediction by ZEFSAII (Michael W. Deem and Ramdas Pophale) SiO2 
 PCOD9500588
Probable space group: C M M A
;
_chemical_formula_sum "Si O2"
_cell_formula_units_Z 72
_cell_length_a 8.845822
_cell_length_b 26.280942
_cell_length_c 20.412549
_cell_angle_alpha 90.000000
_cell_angle_beta 90.000000
_cell_angle_gamma 90.000000
_cell_volume 4745.438660
_symmetry_space_group_name_H-M "C M M A"
_symmetry_group_IT_number 67
_symmetry_cell_setting 'orthorhombic'
loop_
_space_group_symop_operation_xyz
x,y,z
-x,1/2-y,z
x,-y,-z
-x,1/2+y,-z
-x,-y,-z
x,1/2+y,-z
-x,y,z
x,1/2-y,z
1/2+x,1/2+y,z
1/2-x,-y,z
1/2+x,1/2-y,-z
1/2-x,y,-z
1/2-x,1/2-y,-z
1/2+x,y,-z
1/2-x,1/2+y,z
1/2+x,-y,z
loop_
_atom_site_type_symbol
_atom_site_label
_atom_site_fract_x
_atom_site_fract_y
_atom_site_fract_z
Si Si1 0.324685 0.188181 0.067594
Si Si2 0.183116 0.750000 0.572451
Si Si3 0.817283 0.054895 0.428275
Si Si4 0.318109 0.690138 0.204166
Si Si5 0.683740 0.651594 0.343261
O O1 0.500000 0.174866 0.068107
O O2 0.312439 0.250000 0.067319
O O3 0.247217 0.171611 0.135124
O O4 0.250000 0.170123 0.000000
O O5 0.250000 0.750000 0.500000
O O6 0.230305 0.800267 0.612502
O O7 0.000000 0.750000 0.568754
O O8 0.750000 0.067209 0.500000
O O9 0.772697 0.099069 0.377694
O O10 0.000000 0.052212 0.432362
O O11 0.750000 0.000000 0.409796
O O12 0.500000 0.687771 0.200827
O O13 0.278224 0.750000 0.212900
O O14 0.265441 0.660197 0.268632
O O15 0.500000 0.652620 0.341880
#
# Coordination Sequence:
#
# PCOD9500588 Si02
#       5
#    16   8  16  16  16
#     4   9  16  25  37  56  82 113 147 179 207 242
#     4  10  18  30  44  62  85 112 143 176 213 260
#     4  10  19  32  48  65  84 110 145 185 225 264
#     4   9  15  26  43  60  81 112 144 174 211 255
#     4   9  17  29  46  64  85 113 145 177 216 265
#
# _framework density 15.172465000000001
#
# number of rings (size 3 to 8) (size 9 to 14) (size 15 to 20)
#    0.000    2.667    1.111    2.667    0.000    2.667 
#    0.000    4.444    0.000    0.000    0.000    0.000 
#    0.000    0.889    0.000   10.222    0.000    3.556 
#
# Total GULP energy -200568.326754 kJ/mol
# GULP energy per Si atom -5571.342410 kJ/mol
# Density = 1.513793 g / cm^3
# Si number density = 15.172465 Si / 1000 Ang^3
#
#
#
# Elastic Constant Matrix: (Units=GPa)
#
#
# Indices 1 2 3 4 5 6 
#
# 1 30.8046 26.8622 45.2005 0.0000 0.0000 0.0000
# 2 26.8622 75.1307 77.1179 0.0000 0.0000 0.0000
# 3 45.2005 77.1179 177.1852 0.0000 0.0000 0.0000
# 4 0.0000 0.0000 0.0000 16.0610 0.0000 0.0000
# 5 0.0000 0.0000 0.0000 0.0000 25.7374 0.0000
# 6 0.0000 0.0000 0.0000 0.0000 0.0000 11.2044
#
#
#
# Elastic Compliance Matrix: (Units=1/GPa)
#
#
# Indices 1 2 3 4 5 6 
#
# 1 0.055462 -0.009593 -0.009973 0.000000 0.000000 0.000000
# 2 -0.009593 0.025717 -0.008746 0.000000 0.000000 0.000000
# 3 -0.009973 -0.008746 0.011995 0.000000 0.000000 0.000000
# 4 0.000000 0.000000 0.000000 0.062263 0.000000 0.000000
# 5 0.000000 0.000000 0.000000 0.000000 0.038854 0.000000
# 6 0.000000 0.000000 0.000000 0.000000 0.000000 0.089250
#
#
# Mechanical properties :
#
#
# Convention : Reuss Voigt Hill
#
# Bulk Modulus (GPa) = 27.35998 64.60908 45.98453
# Shear Modulus (GPa) = 14.19049 19.52988 16.86019
#
# Velocity S-wave (km/s) = 3.06155 3.59164 3.33714
# Velocity P-wave (km/s) = 5.52895 7.73792 6.72475
#
# Compressibility (1/GPa) = 0.03654973
#
# Stress axis : x y z
#
# Youngs Moduli (GPa) = 18.03033 38.88436 83.37022
#
# Poissons Ratio (x) = 0.37300 0.83149
# Poissons Ratio (y) = 0.17296 0.72916
# Poissons Ratio (z) = 0.17982 0.34008
#
# Static dielectric constant tensor:
#      x y z
#    x 1.518810 0.000000 0.000000 
#    y 0.000000 1.486040 0.000000 
#    z 0.000000 0.000000 1.508510 
# 
# From -- ./inp_files/32051.got.cif
#   From: 2010.05.17/outbox.cif.g08.bks.cpg/sg67_17_cif.got.tgz:32051.got - 2010.06.03 18:28:57.
