data_PCOD9500438
_publ_section_title
;
Structure prediction by ZEFSAII (Michael W. Deem and Ramdas Pophale) SiO2 
 PCOD9500438
Probable space group: C M M A
;
_chemical_formula_sum "Si O2"
_cell_formula_units_Z 104
_cell_length_a 14.320882
_cell_length_b 18.995849
_cell_length_c 22.032925
_cell_angle_alpha 90.000000
_cell_angle_beta 90.000000
_cell_angle_gamma 90.000000
_cell_volume 5993.777693
_symmetry_space_group_name_H-M "C M M A"
_symmetry_group_IT_number 67
_symmetry_cell_setting 'orthorhombic'
loop_
_space_group_symop_operation_xyz
x,y,z
-x,1/2-y,z
x,-y,-z
-x,1/2+y,-z
-x,-y,-z
x,1/2+y,-z
-x,y,z
x,1/2-y,z
1/2+x,1/2+y,z
1/2-x,-y,z
1/2+x,1/2-y,-z
1/2-x,y,-z
1/2-x,1/2-y,-z
1/2+x,y,-z
1/2-x,1/2+y,z
1/2+x,-y,z
loop_
_atom_site_type_symbol
_atom_site_label
_atom_site_fract_x
_atom_site_fract_y
_atom_site_fract_z
Si Si1 0.500000 0.559039 0.553018
Si Si2 0.354914 0.526655 0.772808
Si Si3 0.890223 0.829008 0.175968
Si Si4 0.224646 0.616091 0.064428
Si Si5 0.000000 0.329998 0.392067
Si Si6 0.106034 0.017209 0.090278
Si Si7 0.500000 0.527547 0.322930
Si Si8 0.860464 0.831460 0.497137
O O1 0.500000 0.500000 0.500000
O O2 0.500000 0.518624 0.616162
O O3 0.411602 0.610787 0.544040
O O4 0.250000 0.500000 0.770328
O O5 0.362991 0.611145 0.775916
O O6 0.393929 0.504283 0.838792
O O7 0.412551 0.493190 0.718629
O O8 0.879245 0.750000 0.199277
O O9 0.825507 0.839340 0.116541
O O10 0.000000 0.838967 0.159690
O O11 0.153755 0.549385 0.056138
O O12 0.321751 0.581468 0.086142
O O13 0.250000 0.650128 0.000000
O O14 0.088854 0.338229 0.437304
O O15 0.000000 0.250000 0.368327
O O16 0.000000 0.391166 0.342847
O O17 0.000000 0.030865 0.070837
O O18 0.877187 0.750000 0.477655
O O19 0.750000 0.842729 0.500000
#
# Coordination Sequence:
#
# PCOD9500438 Si02
#       8
#     8  16  16  16   8  16   8  16
#     4  11  21  37  53  86 121 149 180 239 297 338
#     4  11  20  37  58  81 108 145 195 243 286 331
#     4  10  20  38  61  81 112 158 192 235 298 353
#     4  10  19  30  51  85 114 144 189 237 285 350
#     4   9  19  38  57  83 118 151 185 231 287 342
#     4  10  17  31  54  76 111 149 185 235 292 343
#     4  12  23  36  58  88 114 147 202 244 277 346
#     4   9  18  36  62  83 114 158 191 219 279 354
#
# _framework density 17.351327999999999
#
# number of rings (size 3 to 8) (size 9 to 14) (size 15 to 20)
#    0.000    1.846    6.154    3.000    0.000    3.692 
#    0.000    2.308    0.000    0.462    0.000    0.000 
#    0.000    0.000    0.000    0.000    0.000    0.000 
#
# Total GULP energy -289901.019994 kJ/mol
# GULP energy per Si atom -5575.019615 kJ/mol
# Density = 1.731184 g / cm^3
# Si number density = 17.351328 Si / 1000 Ang^3
#
#
#
# Elastic Constant Matrix: (Units=GPa)
#
#
# Indices 1 2 3 4 5 6 
#
# 1 148.7311 50.8350 23.4226 0.0000 0.0000 0.0000
# 2 50.8350 120.3264 42.6311 0.0000 0.0000 0.0000
# 3 23.4226 42.6311 78.6691 0.0000 0.0000 0.0000
# 4 0.0000 0.0000 0.0000 20.2435 0.0000 0.0000
# 5 0.0000 0.0000 0.0000 0.0000 13.8364 0.0000
# 6 0.0000 0.0000 0.0000 0.0000 0.0000 11.7781
#
#
#
# Elastic Compliance Matrix: (Units=1/GPa)
#
#
# Indices 1 2 3 4 5 6 
#
# 1 0.007887 -0.003094 -0.000671 0.000000 0.000000 0.000000
# 2 -0.003094 0.011499 -0.005310 0.000000 0.000000 0.000000
# 3 -0.000671 -0.005310 0.015789 0.000000 0.000000 0.000000
# 4 0.000000 0.000000 0.000000 0.049398 0.000000 0.000000
# 5 0.000000 0.000000 0.000000 0.000000 0.072273 0.000000
# 6 0.000000 0.000000 0.000000 0.000000 0.000000 0.084903
#
#
# Mechanical properties :
#
#
# Convention : Reuss Voigt Hill
#
# Bulk Modulus (GPa) = 58.74254 64.61159 61.67706
# Shear Modulus (GPa) = 18.82700 24.56081 21.69390
#
# Velocity S-wave (km/s) = 3.29758 3.76640 3.53976
# Velocity P-wave (km/s) = 6.95895 7.49883 7.23393
#
# Compressibility (1/GPa) = 0.01702344
#
# Stress axis : x y z
#
# Youngs Moduli (GPa) = 126.79378 86.96162 63.33493
#
# Poissons Ratio (x) = 0.26907 0.04253
# Poissons Ratio (y) = 0.39231 0.33633
# Poissons Ratio (z) = 0.08514 0.46179
#
# Static dielectric constant tensor:
#      x y z
#    x 1.598100 0.000000 0.000000 
#    y 0.000000 1.604450 0.000000 
#    z 0.000000 0.000000 1.586510 
# 
# From -- ./inp_files/38690.got.cif
#   From: 2010.05.17/outbox.cif.g08.bks.cpg/sg67_20_cif.got.tgz:38690.got - 2010.06.03 18:28:57.
