data_PCOD9500292
_publ_section_title
;
Structure prediction by ZEFSAII (Michael W. Deem and Ramdas Pophale) SiO2 
 PCOD9500292
Probable space group: C M M A
;
_chemical_formula_sum "Si O2"
_cell_formula_units_Z 96
_cell_length_a 8.632575
_cell_length_b 27.721541
_cell_length_c 24.686246
_cell_angle_alpha 90.000000
_cell_angle_beta 90.000000
_cell_angle_gamma 90.000000
_cell_volume 5907.623114
_symmetry_space_group_name_H-M "C M M A"
_symmetry_group_IT_number 67
_symmetry_cell_setting 'orthorhombic'
loop_
_space_group_symop_operation_xyz
x,y,z
-x,1/2-y,z
x,-y,-z
-x,1/2+y,-z
-x,-y,-z
x,1/2+y,-z
-x,y,z
x,1/2-y,z
1/2+x,1/2+y,z
1/2-x,-y,z
1/2+x,1/2-y,-z
1/2-x,y,-z
1/2-x,1/2-y,-z
1/2+x,y,-z
1/2-x,1/2+y,z
1/2+x,-y,z
loop_
_atom_site_type_symbol
_atom_site_label
_atom_site_fract_x
_atom_site_fract_y
_atom_site_fract_z
Si Si1 0.685240 0.054911 0.555781
Si Si2 0.185050 0.054481 0.668684
Si Si3 0.184498 0.899723 0.776804
Si Si4 0.314565 0.149828 0.058003
Si Si5 0.687137 0.804931 0.828873
Si Si6 0.813829 0.947948 0.115360
O O1 0.500000 0.053878 0.554769
O O2 0.750000 0.077132 0.500000
O O3 0.746796 0.075496 0.612495
O O4 0.750000 0.000000 0.556362
O O5 0.239675 0.084004 0.720722
O O6 0.000000 0.052385 0.665237
O O7 0.250000 0.000000 0.674796
O O8 0.233132 0.845419 0.792445
O O9 0.248702 0.932891 0.825783
O O10 0.000000 0.904576 0.773954
O O11 0.500000 0.150621 0.055030
O O12 0.269216 0.183216 0.108769
O O13 0.267080 0.095339 0.074905
O O14 0.250000 0.163900 0.000000
O O15 0.500000 0.810892 0.824999
O O16 0.726081 0.750000 0.815205
O O17 0.000000 0.949025 0.118179
O O18 0.750000 0.000000 0.099461
#
# Coordination Sequence:
#
# PCOD9500292 Si02
#       6
#    16  16  16  16  16  16
#     4  10  17  27  41  61  90 127 168 205 239 274
#     4  11  20  31  46  67  96 131 167 201 238 277
#     4  11  21  33  49  71  96 121 154 195 236 281
#     4   9  19  33  49  70  95 121 151 187 226 274
#     4   9  19  37  56  72  93 121 150 185 234 286
#     4  10  20  34  49  67  92 124 158 191 231 275
#
# _framework density 16.25019
#
# number of rings (size 3 to 8) (size 9 to 14) (size 15 to 20)
#    0.000    2.000    0.000    8.000    0.000    4.333 
#    0.000    1.667    0.000    0.000    0.000    0.000 
#    0.000    0.667    0.000    2.500    0.000    4.167 
#
# Total GULP energy -267852.680554 kJ/mol
# GULP energy per Si atom -5580.264178 kJ/mol
# Density = 1.621320 g / cm^3
# Si number density = 16.250190 Si / 1000 Ang^3
#
#
#
# Elastic Constant Matrix: (Units=GPa)
#
#
# Indices 1 2 3 4 5 6 
#
# 1 101.8773 18.2240 33.5869 0.0000 0.0000 0.0000
# 2 18.2240 49.9709 10.8019 0.0000 0.0000 0.0000
# 3 33.5869 10.8019 110.5131 0.0000 0.0000 0.0000
# 4 0.0000 0.0000 0.0000 9.1730 0.0000 0.0000
# 5 0.0000 0.0000 0.0000 0.0000 29.2229 0.0000
# 6 0.0000 0.0000 0.0000 0.0000 0.0000 60.3349
#
#
#
# Elastic Compliance Matrix: (Units=1/GPa)
#
#
# Indices 1 2 3 4 5 6 
#
# 1 0.011480 -0.003507 -0.003146 0.000000 0.000000 0.000000
# 2 -0.003507 0.021515 -0.001037 0.000000 0.000000 0.000000
# 3 -0.003146 -0.001037 0.010106 0.000000 0.000000 0.000000
# 4 0.000000 0.000000 0.000000 0.109015 0.000000 0.000000
# 5 0.000000 0.000000 0.000000 0.000000 0.034220 0.000000
# 6 0.000000 0.000000 0.000000 0.000000 0.000000 0.016574
#
#
# Mechanical properties :
#
#
# Convention : Reuss Voigt Hill
#
# Bulk Modulus (GPa) = 36.07374 43.06521 39.56948
# Shear Modulus (GPa) = 21.97502 33.06273 27.51887
#
# Velocity S-wave (km/s) = 3.68134 4.51555 4.11962
# Velocity P-wave (km/s) = 6.34956 7.33116 6.85794
#
# Compressibility (1/GPa) = 0.02772100
#
# Stress axis : x y z
#
# Youngs Moduli (GPa) = 87.10585 46.47985 98.94821
#
# Poissons Ratio (x) = 0.16299 0.31132
# Poissons Ratio (y) = 0.30545 0.10263
# Poissons Ratio (z) = 0.27406 0.04821
#
# Static dielectric constant tensor:
#      x y z
#    x 1.545390 0.000000 0.000000 
#    y 0.000000 1.530380 0.000000 
#    z 0.000000 0.000000 1.566060 
# 
# From -- ./inp_files/40933.got.cif
#   From: 2010.05.17/outbox.cif.g08.bks.cpg/sg67_21_cif.got.tgz:40933.got - 2010.06.03 18:28:57.
