data_PCOD9500809
_publ_section_title
;
Structure prediction by ZEFSAII (Michael W. Deem and Ramdas Pophale) SiO2 
 PCOD9500809
Probable space group: C M M A
;
_chemical_formula_sum "Si O2"
_cell_formula_units_Z 96
_cell_length_a 26.952660
_cell_length_b 20.231621
_cell_length_c 7.723379
_cell_angle_alpha 90.000000
_cell_angle_beta 90.000000
_cell_angle_gamma 90.000000
_cell_volume 4211.527691
_symmetry_space_group_name_H-M "C M M A"
_symmetry_group_IT_number 67
_symmetry_cell_setting 'orthorhombic'
loop_
_space_group_symop_operation_xyz
x,y,z
-x,1/2-y,z
x,-y,-z
-x,1/2+y,-z
-x,-y,-z
x,1/2+y,-z
-x,y,z
x,1/2-y,z
1/2+x,1/2+y,z
1/2-x,-y,z
1/2+x,1/2-y,-z
1/2-x,y,-z
1/2-x,1/2-y,-z
1/2+x,y,-z
1/2-x,1/2+y,z
1/2+x,-y,z
loop_
_atom_site_type_symbol
_atom_site_label
_atom_site_fract_x
_atom_site_fract_y
_atom_site_fract_z
Si Si1 0.442017 0.825992 0.393259
Si Si2 0.945629 0.170811 0.810360
Si Si3 0.209573 0.635808 0.387952
Si Si4 0.714371 0.429865 0.838113
Si Si5 0.370418 0.059767 0.620045
Si Si6 0.655982 0.674698 0.958537
O O1 0.500000 0.828838 0.344159
O O2 0.424800 0.750000 0.356295
O O3 0.439425 0.835420 0.602659
O O4 0.411496 0.887701 0.318031
O O5 0.946406 0.250000 0.841295
O O6 0.897877 0.144678 0.911484
O O7 0.000000 0.144185 0.858483
O O8 0.250000 0.675654 0.500000
O O9 0.245528 0.578996 0.311528
O O10 0.166064 0.605183 0.502596
O O11 0.186204 0.671021 0.222160
O O12 0.666547 0.469694 0.768271
O O13 0.750000 0.441969 0.000000
O O14 0.686735 0.362858 0.896338
O O15 0.389629 0.000000 0.500000
O O16 0.650006 0.750000 0.010367
#
# Coordination Sequence:
#
# PCOD9500809 Si02
#       6
#    16  16  16  16  16  16
#     4   9  18  35  61  91 122 159 204 256 311 361
#     4   8  14  27  52  81 108 147 197 245 296 359
#     4   9  19  34  51  75 109 153 206 252 294 354
#     4   9  21  38  54  80 119 160 199 251 309 366
#     4  11  22  38  62  90 119 158 213 259 300 356
#     4  10  18  32  53  80 116 154 198 250 311 372
#
# _framework density 22.79458
#
# number of rings (size 3 to 8) (size 9 to 14) (size 15 to 20)
#    0.000    2.667    1.667    1.000    0.000    7.333 
#    0.000   11.667    0.000    2.000    0.000    2.333 
#    0.000    0.000    0.000    0.000    0.000    0.000 
#
# Total GULP energy -267525.032346 kJ/mol
# GULP energy per Si atom -5573.438174 kJ/mol
# Density = 2.274270 g / cm^3
# Si number density = 22.794580 Si / 1000 Ang^3
#
#
#
# Elastic Constant Matrix: (Units=GPa)
#
#
# Indices 1 2 3 4 5 6 
#
# 1 138.9443 46.5058 27.6890 0.0000 0.0000 0.0000
# 2 46.5058 69.5152 8.7133 0.0000 0.0000 0.0000
# 3 27.6890 8.7133 75.4493 0.0000 0.0000 0.0000
# 4 0.0000 0.0000 0.0000 50.3589 0.0000 0.0000
# 5 0.0000 0.0000 0.0000 0.0000 27.1586 0.0000
# 6 0.0000 0.0000 0.0000 0.0000 0.0000 31.3395
#
#
#
# Elastic Compliance Matrix: (Units=1/GPa)
#
#
# Indices 1 2 3 4 5 6 
#
# 1 0.009861 -0.006234 -0.002899 0.000000 0.000000 0.000000
# 2 -0.006234 0.018537 0.000147 0.000000 0.000000 0.000000
# 3 -0.002899 0.000147 0.014301 0.000000 0.000000 0.000000
# 4 0.000000 0.000000 0.000000 0.019857 0.000000 0.000000
# 5 0.000000 0.000000 0.000000 0.000000 0.036821 0.000000
# 6 0.000000 0.000000 0.000000 0.000000 0.000000 0.031909
#
#
# Mechanical properties :
#
#
# Convention : Reuss Voigt Hill
#
# Bulk Modulus (GPa) = 40.44058 49.96944 45.20501
# Shear Modulus (GPa) = 31.74581 35.17146 33.45864
#
# Velocity S-wave (km/s) = 3.73593 3.93233 3.83539
# Velocity P-wave (km/s) = 6.03236 6.52586 6.28396
#
# Compressibility (1/GPa) = 0.02472764
#
# Stress axis : x y z
#
# Youngs Moduli (GPa) = 101.40550 53.94494 69.92575
#
# Poissons Ratio (x) = 0.33629 0.20272
# Poissons Ratio (y) = 0.63215 -0.01028
# Poissons Ratio (z) = 0.29398 -0.00793
#
# Static dielectric constant tensor:
#      x y z
#    x 1.865270 0.000000 0.000000 
#    y 0.000000 1.851770 0.000000 
#    z 0.000000 0.000000 2.581240 
# 
# From -- ./inp_files/13873.got.cif
#   From: 2010.05.17/outbox.cif.g08.bks.cpg/sg67_7_cif.got.tgz:13873.got - 2010.06.03 18:28:57.
