data_PCOD9500784
_publ_section_title
;
Structure prediction by ZEFSAII (Michael W. Deem and Ramdas Pophale) SiO2 
 PCOD9500784
Probable space group: C M M A
;
_chemical_formula_sum "Si O2"
_cell_formula_units_Z 104
_cell_length_a 8.890639
_cell_length_b 29.560920
_cell_length_c 25.244940
_cell_angle_alpha 90.000000
_cell_angle_beta 90.000000
_cell_angle_gamma 90.000000
_cell_volume 6634.760726
_symmetry_space_group_name_H-M "C M M A"
_symmetry_group_IT_number 67
_symmetry_cell_setting 'orthorhombic'
loop_
_space_group_symop_operation_xyz
x,y,z
-x,1/2-y,z
x,-y,-z
-x,1/2+y,-z
-x,-y,-z
x,1/2+y,-z
-x,y,z
x,1/2-y,z
1/2+x,1/2+y,z
1/2-x,-y,z
1/2+x,1/2-y,-z
1/2-x,y,-z
1/2-x,1/2-y,-z
1/2+x,y,-z
1/2-x,1/2+y,z
1/2+x,-y,z
loop_
_atom_site_type_symbol
_atom_site_label
_atom_site_fract_x
_atom_site_fract_y
_atom_site_fract_z
Si Si1 0.819511 0.953518 0.286258
Si Si2 0.320455 0.145139 0.555324
Si Si3 0.680270 0.046589 0.596325
Si Si4 0.824037 0.800340 0.851515
Si Si5 0.680375 0.642687 0.760711
Si Si6 0.181166 0.803029 0.345146
Si Si7 0.321237 0.750000 0.942159
O O1 0.748920 0.947490 0.344766
O O2 0.784081 0.909449 0.251728
O O3 0.000000 0.957203 0.291341
O O4 0.750000 0.000000 0.264730
O O5 0.500000 0.149398 0.553837
O O6 0.250000 0.160433 0.500000
O O7 0.283022 0.092089 0.564621
O O8 0.256066 0.173050 0.604658
O O9 0.500000 0.042129 0.599872
O O10 0.750000 0.000000 0.574579
O O11 0.807960 0.750000 0.825484
O O12 0.756701 0.837146 0.812621
O O13 0.738043 0.792429 0.906957
O O14 0.000000 0.807859 0.861278
O O15 0.500000 0.646987 0.766022
O O16 0.726145 0.671659 0.708967
O O17 0.218471 0.750000 0.342844
O O18 0.000000 0.807372 0.349873
O O19 0.500000 0.750000 0.944741
O O20 0.250000 0.750000 0.000000
#
# Coordination Sequence:
#
# PCOD9500784 Si02
#       7
#    16  16  16  16  16  16   8
#     4  10  19  31  50  74 100 131 164 200 249 307
#     4  11  24  39  55  73  94 121 156 200 250 304
#     4  10  20  34  53  75  96 121 152 192 245 303
#     4   9  19  31  46  75 107 141 181 217 255 293
#     4  10  19  32  52  75 102 136 169 207 254 303
#     4  10  21  37  56  75  96 126 161 199 249 304
#     4  10  18  32  52  74 110 152 189 224 259 300
#
# _framework density 15.675018
#
# number of rings (size 3 to 8) (size 9 to 14) (size 15 to 20)
#    0.462    1.538    1.538    3.692    0.000    5.231 
#    0.000    1.538    0.000    0.000    0.000    0.000 
#    0.000    0.615    0.000    6.462    0.000    3.538 
#
# Total GULP energy -290013.995360 kJ/mol
# GULP energy per Si atom -5577.192218 kJ/mol
# Density = 1.563934 g / cm^3
# Si number density = 15.675018 Si / 1000 Ang^3
#
#
#
# Elastic Constant Matrix: (Units=GPa)
#
#
# Indices 1 2 3 4 5 6 
#
# 1 61.9885 48.0607 48.2554 0.0000 0.0000 0.0000
# 2 48.0607 96.1869 54.3055 0.0000 0.0000 0.0000
# 3 48.2554 54.3055 111.7035 0.0000 0.0000 0.0000
# 4 0.0000 0.0000 0.0000 17.7572 0.0000 0.0000
# 5 0.0000 0.0000 0.0000 0.0000 20.0344 0.0000
# 6 0.0000 0.0000 0.0000 0.0000 0.0000 24.4279
#
#
#
# Elastic Compliance Matrix: (Units=1/GPa)
#
#
# Indices 1 2 3 4 5 6 
#
# 1 0.030798 -0.010857 -0.008026 0.000000 0.000000 0.000000
# 2 -0.010857 0.018157 -0.004137 0.000000 0.000000 0.000000
# 3 -0.008026 -0.004137 0.014431 0.000000 0.000000 0.000000
# 4 0.000000 0.000000 0.000000 0.056315 0.000000 0.000000
# 5 0.000000 0.000000 0.000000 0.000000 0.049914 0.000000
# 6 0.000000 0.000000 0.000000 0.000000 0.000000 0.040937
#
#
# Mechanical properties :
#
#
# Convention : Reuss Voigt Hill
#
# Bulk Modulus (GPa) = 57.65330 63.45802 60.55566
# Shear Modulus (GPa) = 19.05680 20.39437 19.72559
#
# Velocity S-wave (km/s) = 3.49053 3.61095 3.55125
# Velocity P-wave (km/s) = 7.28734 7.61293 7.45191
#
# Compressibility (1/GPa) = 0.01734506
#
# Stress axis : x y z
#
# Youngs Moduli (GPa) = 32.46995 55.07572 69.29610
#
# Poissons Ratio (x) = 0.59795 0.55619
# Poissons Ratio (y) = 0.35252 0.28668
# Poissons Ratio (z) = 0.26061 0.22785
#
# Static dielectric constant tensor:
#      x y z
#    x 1.523120 0.000000 0.000000 
#    y 0.000000 1.533950 0.000000 
#    z 0.000000 0.000000 1.489750 
# 
# From -- ./inp_files/41131.got.cif
#   From: 2010.05.17/outbox.cif.g08.bks.cpg/sg67_21_cif.got.tgz:41131.got - 2010.06.03 18:28:57.
