data_PCOD9500822
_publ_section_title
;
Structure prediction by ZEFSAII (Michael W. Deem and Ramdas Pophale) SiO2 
 PCOD9500822
Probable space group: C M M A
;
_chemical_formula_sum "Si O2"
_cell_formula_units_Z 120
_cell_length_a 27.302134
_cell_length_b 8.720535
_cell_length_c 28.602235
_cell_angle_alpha 90.000000
_cell_angle_beta 90.000000
_cell_angle_gamma 90.000000
_cell_volume 6809.883682
_symmetry_space_group_name_H-M "C M M A"
_symmetry_group_IT_number 67
_symmetry_cell_setting 'orthorhombic'
loop_
_space_group_symop_operation_xyz
x,y,z
-x,1/2-y,z
x,-y,-z
-x,1/2+y,-z
-x,-y,-z
x,1/2+y,-z
-x,y,z
x,1/2-y,z
1/2+x,1/2+y,z
1/2-x,-y,z
1/2+x,1/2-y,-z
1/2-x,y,-z
1/2-x,1/2-y,-z
1/2+x,y,-z
1/2-x,1/2+y,z
1/2+x,-y,z
loop_
_atom_site_type_symbol
_atom_site_label
_atom_site_fract_x
_atom_site_fract_y
_atom_site_fract_z
Si Si1 0.195951 0.434184 0.108340
Si Si2 0.000000 0.565172 0.946928
Si Si3 0.303126 0.067564 0.781846
Si Si4 0.351756 0.930679 0.694405
Si Si5 0.055809 0.567281 0.647306
Si Si6 0.603087 0.934502 0.947276
Si Si7 0.600509 0.933379 0.449846
Si Si8 0.697798 0.066450 0.603645
O O1 0.196082 0.250000 0.101599
O O2 0.250000 0.500000 0.095915
O O3 0.187943 0.466870 0.163552
O O4 0.151236 0.509320 0.080177
O O5 0.051653 0.502093 0.927038
O O6 0.000000 0.750000 0.947129
O O7 0.000000 0.500000 0.000000
O O8 0.302530 0.250000 0.776305
O O9 0.250000 0.000000 0.769925
O O10 0.340528 0.995057 0.745494
O O11 0.343952 0.750000 0.693247
O O12 0.406098 0.975169 0.678283
O O13 0.317018 0.007901 0.655216
O O14 0.066915 0.750000 0.651266
O O15 0.064831 0.525480 0.592982
O O16 0.000000 0.541769 0.660427
O O17 0.600416 0.750000 0.948322
O O18 0.607135 0.000000 0.000000
O O19 0.600544 0.750000 0.453713
O O20 0.654407 0.982096 0.431578
O O21 0.588206 0.000000 0.500000
O O22 0.699268 0.250000 0.604519
O O23 0.750000 0.000000 0.589971
#
# Coordination Sequence:
#
# PCOD9500822 Si02
#       8
#    16   8  16  16  16  16  16  16
#     4  10  21  37  56  81 112 148 187 228 275 331
#     4  10  18  32  54  80 108 140 184 232 278 326
#     4  10  20  35  56  80 109 142 176 213 259 312
#     4  11  21  33  53  79 105 131 166 211 256 305
#     4   9  19  37  57  75  99 132 168 208 256 307
#     4  11  21  35  56  82 113 149 190 236 283 330
#     4   9  19  33  49  71  99 131 166 204 247 299
#     4  10  20  34  50  71 100 132 168 206 250 301
#
# _framework density 17.621445999999999
#
# number of rings (size 3 to 8) (size 9 to 14) (size 15 to 20)
#    0.000    2.000    0.000    6.200    0.000    5.333 
#    0.000    2.667    1.467    0.000    0.000    0.000 
#    0.000    0.000    0.000    0.000    0.000    0.000 
#
# Total GULP energy -334872.683817 kJ/mol
# GULP energy per Si atom -5581.211397 kJ/mol
# Density = 1.758134 g / cm^3
# Si number density = 17.621446 Si / 1000 Ang^3
#
#
#
# Elastic Constant Matrix: (Units=GPa)
#
#
# Indices 1 2 3 4 5 6 
#
# 1 88.8201 43.1503 43.3174 0.0000 0.0000 0.0000
# 2 43.1503 85.9636 38.7132 0.0000 0.0000 0.0000
# 3 43.3174 38.7132 65.4921 0.0000 0.0000 0.0000
# 4 0.0000 0.0000 0.0000 26.1941 0.0000 0.0000
# 5 0.0000 0.0000 0.0000 0.0000 5.4893 0.0000
# 6 0.0000 0.0000 0.0000 0.0000 0.0000 15.4866
#
#
#
# Elastic Compliance Matrix: (Units=1/GPa)
#
#
# Indices 1 2 3 4 5 6 
#
# 1 0.018087 -0.005031 -0.008989 0.000000 0.000000 0.000000
# 2 -0.005031 0.017252 -0.006871 0.000000 0.000000 0.000000
# 3 -0.008989 -0.006871 0.025276 0.000000 0.000000 0.000000
# 4 0.000000 0.000000 0.000000 0.038177 0.000000 0.000000
# 5 0.000000 0.000000 0.000000 0.000000 0.182174 0.000000
# 6 0.000000 0.000000 0.000000 0.000000 0.000000 0.064572
#
#
# Mechanical properties :
#
#
# Convention : Reuss Voigt Hill
#
# Bulk Modulus (GPa) = 53.09563 54.51528 53.80546
# Shear Modulus (GPa) = 12.70339 17.10699 14.90519
#
# Velocity S-wave (km/s) = 2.68788 3.11915 2.91151
# Velocity P-wave (km/s) = 6.31107 6.63146 6.47325
#
# Compressibility (1/GPa) = 0.01883394
#
# Stress axis : x y z
#
# Youngs Moduli (GPa) = 55.28947 57.96390 39.56344
#
# Poissons Ratio (x) = 0.29159 0.35564
# Poissons Ratio (y) = 0.27814 0.27183
# Poissons Ratio (z) = 0.49700 0.39825
#
# Static dielectric constant tensor:
#      x y z
#    x 1.606890 0.000000 0.000000 
#    y 0.000000 1.592140 0.000000 
#    z 0.000000 0.000000 1.585420 
# 
# From -- ./inp_files/44993.got.cif
#   From: 2010.05.17/outbox.cif.g08.bks.cpg/sg67_23_cif.got.tgz:44993.got - 2010.06.03 18:28:57.
