data_PCOD9500375
_publ_section_title
;
Structure prediction by ZEFSAII (Michael W. Deem and Ramdas Pophale) SiO2 
 PCOD9500375
Probable space group: C M M A
;
_chemical_formula_sum "Si O2"
_cell_formula_units_Z 120
_cell_length_a 30.687452
_cell_length_b 8.341183
_cell_length_c 26.457641
_cell_angle_alpha 90.000000
_cell_angle_beta 90.000000
_cell_angle_gamma 90.000000
_cell_volume 6772.353184
_symmetry_space_group_name_H-M "C M M A"
_symmetry_group_IT_number 67
_symmetry_cell_setting 'orthorhombic'
loop_
_space_group_symop_operation_xyz
x,y,z
-x,1/2-y,z
x,-y,-z
-x,1/2+y,-z
-x,-y,-z
x,1/2+y,-z
-x,y,z
x,1/2-y,z
1/2+x,1/2+y,z
1/2-x,-y,z
1/2+x,1/2-y,-z
1/2-x,y,-z
1/2-x,1/2-y,-z
1/2+x,y,-z
1/2-x,1/2+y,z
1/2+x,-y,z
loop_
_atom_site_type_symbol
_atom_site_label
_atom_site_fract_x
_atom_site_fract_y
_atom_site_fract_z
Si Si1 0.300113 0.440633 0.338477
Si Si2 0.800197 0.941090 0.553073
Si Si3 0.949583 0.057160 0.781725
Si Si4 0.085594 0.939903 0.109826
Si Si5 0.362039 0.059165 0.750496
Si Si6 0.500000 0.943163 0.056553
Si Si7 0.203736 0.443847 0.163137
Si Si8 0.828090 0.438756 0.057238
O O1 0.299938 0.250000 0.333869
O O2 0.250000 0.500000 0.333585
O O3 0.317293 0.489695 0.394173
O O4 0.330616 0.515112 0.295715
O O5 0.800807 0.750000 0.554672
O O6 0.820140 0.000000 0.500000
O O7 0.750000 0.000000 0.552307
O O8 0.952006 0.250000 0.784052
O O9 0.927832 0.999741 0.834420
O O10 0.000000 0.000276 0.775275
O O11 0.910811 0.009635 0.743800
O O12 0.095583 0.750000 0.112019
O O13 0.041862 0.975676 0.080392
O O14 0.123663 0.026695 0.078930
O O15 0.365780 0.250000 0.754801
O O16 0.335947 0.000076 0.801047
O O17 0.500000 0.750000 0.062348
O O18 0.500000 0.000000 0.000000
O O19 0.202515 0.250000 0.162505
O O20 0.250000 0.500000 0.184337
O O21 0.199578 0.504290 0.105111
O O22 0.820522 0.250000 0.054537
O O23 0.821852 0.500000 0.000000
#
# Coordination Sequence:
#
# PCOD9500375 Si02
#       8
#    16  16  16  16  16   8  16  16
#     4  11  21  34  52  79 113 153 195 236 277 320
#     4  10  17  28  46  72 108 152 196 238 277 320
#     4  10  21  38  59  82 106 134 170 211 262 323
#     4  11  21  37  57  78 101 129 161 201 252 313
#     4  11  22  38  57  81 109 141 179 223 270 322
#     4  12  24  36  52  74 102 130 158 198 247 306
#     4  10  23  39  57  78 103 132 172 215 262 318
#     4  11  23  40  56  77 100 129 165 209 258 316
#
# _framework density 17.719100999999998
#
# number of rings (size 3 to 8) (size 9 to 14) (size 15 to 20)
#    0.000    1.333    2.000    6.200    0.000    4.267 
#    0.000    1.333    0.000    0.000    0.000    0.000 
#    0.000    0.533    0.000    2.000    0.000    3.333 
#
# Total GULP energy -334621.181310 kJ/mol
# GULP energy per Si atom -5577.019688 kJ/mol
# Density = 1.767877 g / cm^3
# Si number density = 17.719101 Si / 1000 Ang^3
#
#
#
# Elastic Constant Matrix: (Units=GPa)
#
#
# Indices 1 2 3 4 5 6 
#
# 1 102.5095 -1.8097 37.5147 0.0000 0.0000 0.0000
# 2 -1.8097 29.2626 -0.2163 0.0000 0.0000 0.0000
# 3 37.5147 -0.2163 93.0167 0.0000 0.0000 0.0000
# 4 0.0000 0.0000 0.0000 10.0785 0.0000 0.0000
# 5 0.0000 0.0000 0.0000 0.0000 11.6733 0.0000
# 6 0.0000 0.0000 0.0000 0.0000 0.0000 19.9580
#
#
#
# Elastic Compliance Matrix: (Units=1/GPa)
#
#
# Indices 1 2 3 4 5 6 
#
# 1 0.011458 0.000674 -0.004619 0.000000 0.000000 0.000000
# 2 0.000674 0.034214 -0.000192 0.000000 0.000000 0.000000
# 3 -0.004619 -0.000192 0.012613 0.000000 0.000000 0.000000
# 4 0.000000 0.000000 0.000000 0.099221 0.000000 0.000000
# 5 0.000000 0.000000 0.000000 0.000000 0.085666 0.000000
# 6 0.000000 0.000000 0.000000 0.000000 0.000000 0.050105
#
#
# Mechanical properties :
#
#
# Convention : Reuss Voigt Hill
#
# Bulk Modulus (GPa) = 19.99612 32.86292 26.42952
# Shear Modulus (GPa) = 15.71231 20.96195 18.33713
#
# Velocity S-wave (km/s) = 2.98106 3.44323 3.22044
# Velocity P-wave (km/s) = 4.81233 5.86469 5.36438
#
# Compressibility (1/GPa) = 0.05000971
#
# Stress axis : x y z
#
# Youngs Moduli (GPa) = 87.27798 29.22814 79.28085
#
# Poissons Ratio (x) = -0.01971 0.36623
# Poissons Ratio (y) = -0.05886 0.01526
# Poissons Ratio (z) = 0.40317 0.00563
#
# Static dielectric constant tensor:
#      x y z
#    x 1.607450 0.000000 0.000000 
#    y 0.000000 1.612020 0.000000 
#    z 0.000000 0.000000 1.647750 
# 
# From -- ./inp_files/45038.got.cif
#   From: 2010.05.17/outbox.cif.g08.bks.cpg/sg67_23_cif.got.tgz:45038.got - 2010.06.03 18:28:57.
