data_PCOD9500531
_publ_section_title
;
Structure prediction by ZEFSAII (Michael W. Deem and Ramdas Pophale) SiO2 
 PCOD9500531
Probable space group: C M M A
;
_chemical_formula_sum "Si O2"
_cell_formula_units_Z 80
_cell_length_a 21.888108
_cell_length_b 9.881538
_cell_length_c 15.618989
_cell_angle_alpha 90.000000
_cell_angle_beta 90.000000
_cell_angle_gamma 90.000000
_cell_volume 3378.202563
_symmetry_space_group_name_H-M "C M M A"
_symmetry_group_IT_number 67
_symmetry_cell_setting 'orthorhombic'
loop_
_space_group_symop_operation_xyz
x,y,z
-x,1/2-y,z
x,-y,-z
-x,1/2+y,-z
-x,-y,-z
x,1/2+y,-z
-x,y,z
x,1/2-y,z
1/2+x,1/2+y,z
1/2-x,-y,z
1/2+x,1/2-y,-z
1/2-x,y,-z
1/2-x,1/2-y,-z
1/2+x,y,-z
1/2-x,1/2+y,z
1/2+x,-y,z
loop_
_atom_site_type_symbol
_atom_site_label
_atom_site_fract_x
_atom_site_fract_y
_atom_site_fract_z
Si Si1 0.112710 0.250000 0.855277
Si Si2 0.296076 0.250000 0.780883
Si Si3 0.071230 0.250000 0.669983
Si Si4 0.667567 0.027230 0.902102
Si Si5 0.435596 0.750000 0.286568
Si Si6 0.788698 0.750000 0.587972
Si Si7 0.929207 0.250000 0.048554
Si Si8 0.892838 0.025363 0.405751
O O1 0.071353 0.250000 0.772243
O O2 0.151911 0.387091 0.856800
O O3 0.079352 0.250000 0.946283
O O4 0.289733 0.378941 0.843113
O O5 0.368959 0.250000 0.756500
O O6 0.263820 0.250000 0.687305
O O7 0.108451 0.380079 0.637763
O O8 0.000000 0.250000 0.639744
O O9 0.606042 0.117826 0.916147
O O10 0.687566 0.000000 0.000000
O O11 0.500000 0.750000 0.238579
O O12 0.433839 0.619162 0.346486
O O13 0.750000 0.750000 0.500000
O O14 0.830939 0.614250 0.584675
O O15 0.000000 0.250000 0.064963
O O16 0.917882 0.000000 0.500000
#
# Coordination Sequence:
#
# PCOD9500531 Si02
#       8
#     8   8   8  16   8   8   8  16
#     4  10  18  29  43  68 105 146 204 265 303 352
#     4   9  18  35  53  78 116 156 212 268 308 381
#     4  12  23  33  53  85 120 162 205 256 322 378
#     4   9  18  30  47  70 104 155 205 255 319 375
#     4  10  20  34  54  78 113 173 226 261 312 373
#     4  10  22  42  66  86 111 161 213 267 341 403
#     4   9  18  29  40  59  96 152 210 257 305 361
#     4  10  22  39  57  82 116 153 201 264 318 387
#
# _framework density 23.681231
#
# number of rings (size 3 to 8) (size 9 to 14) (size 15 to 20)
#    0.000    2.400    0.000    5.100    0.000    8.800 
#    0.000    0.500    0.000    0.000    0.000    0.000 
#    0.000    0.000    0.000  237.600    0.000    6.200 
#
# Total GULP energy -223445.368587 kJ/mol
# GULP energy per Si atom -5586.134215 kJ/mol
# Density = 2.362733 g / cm^3
# Si number density = 23.681231 Si / 1000 Ang^3
#
#
#
# Elastic Constant Matrix: (Units=GPa)
#
#
# Indices 1 2 3 4 5 6 
#
# 1 122.0293 44.9233 26.8330 0.0000 0.0000 0.0000
# 2 44.9233 218.1369 56.2050 0.0000 0.0000 0.0000
# 3 26.8330 56.2050 172.5025 0.0000 0.0000 0.0000
# 4 0.0000 0.0000 0.0000 74.3502 0.0000 0.0000
# 5 0.0000 0.0000 0.0000 0.0000 -2.6677 0.0000
# 6 0.0000 0.0000 0.0000 0.0000 0.0000 -0.2473
#
#
#
# Elastic Compliance Matrix: (Units=1/GPa)
#
#
# Indices 1 2 3 4 5 6 
#
# 1 0.008984 -0.001627 -0.000868 0.000000 0.000000 0.000000
# 2 -0.001627 0.005299 -0.001473 0.000000 0.000000 0.000000
# 3 -0.000868 -0.001473 0.006412 0.000000 0.000000 0.000000
# 4 0.000000 0.000000 0.000000 0.013450 0.000000 0.000000
# 5 0.000000 0.000000 0.000000 0.000000 -0.374858 0.000000
# 6 0.000000 0.000000 0.000000 0.000000 0.000000 -4.043665
#
#
# Mechanical properties :
#
#
# Convention : Reuss Voigt Hill
#
# Bulk Modulus (GPa) = 78.37024 85.39904 81.88464
# Shear Modulus (GPa) = -1.14359 39.93420 19.39531
#
# Velocity S-wave (km/s) = -0.69567 4.11094 2.86495
# Velocity P-wave (km/s) = 5.70266 7.65985 6.75254
#
# Compressibility (1/GPa) = 0.01275995
#
# Stress axis : x y z
#
# Youngs Moduli (GPa) = 111.30448 188.71694 155.95647
#
# Poissons Ratio (x) = 0.30699 0.13529
# Poissons Ratio (y) = 0.18106 0.22980
# Poissons Ratio (z) = 0.09656 0.27807
#
# Static dielectric constant tensor:
#      x y z
#    x 1.930740 0.000000 0.000000 
#    y 0.000000 1.872760 0.000000 
#    z 0.000000 0.000000 1.907700 
# 
# From -- ./inp_files/35840.got.cif
#   From: 2010.05.17/outbox.cif.g08.bks.cpg/sg67_18_cif.got.tgz:35840.got - 2010.06.03 18:28:57.
