data_PCOD9500177
_publ_section_title
;
Structure prediction by ZEFSAII (Michael W. Deem and Ramdas Pophale) SiO2 
 PCOD9500177
Probable space group: C M M A
;
_chemical_formula_sum "Si O2"
_cell_formula_units_Z 80
_cell_length_a 14.879677
_cell_length_b 8.902385
_cell_length_c 27.460286
_cell_angle_alpha 90.000000
_cell_angle_beta 90.000000
_cell_angle_gamma 90.000000
_cell_volume 3637.516167
_symmetry_space_group_name_H-M "C M M A"
_symmetry_group_IT_number 67
_symmetry_cell_setting 'orthorhombic'
loop_
_space_group_symop_operation_xyz
x,y,z
-x,1/2-y,z
x,-y,-z
-x,1/2+y,-z
-x,-y,-z
x,1/2+y,-z
-x,y,z
x,1/2-y,z
1/2+x,1/2+y,z
1/2-x,-y,z
1/2+x,1/2-y,-z
1/2-x,y,-z
1/2-x,1/2-y,-z
1/2+x,y,-z
1/2-x,1/2+y,z
1/2+x,-y,z
loop_
_atom_site_type_symbol
_atom_site_label
_atom_site_fract_x
_atom_site_fract_y
_atom_site_fract_z
Si Si1 0.851658 0.931170 0.049408
Si Si2 0.149050 0.431193 0.147519
Si Si3 0.889791 0.421032 0.450001
Si Si4 0.151410 0.071025 0.254023
Si Si5 0.894513 0.915563 0.353241
O O1 0.849332 0.750000 0.047825
O O2 0.750000 0.000000 0.050171
O O3 0.892754 0.991444 0.099938
O O4 0.892391 0.000000 0.000000
O O5 0.152822 0.250000 0.140946
O O6 0.250000 0.500000 0.150091
O O7 0.108594 0.463353 0.200998
O O8 0.862453 0.500000 0.500000
O O9 0.859525 0.250000 0.449668
O O10 0.857998 0.502658 0.400993
O O11 0.000000 0.420391 0.449712
O O12 0.155880 0.250000 0.257300
O O13 0.250000 0.000000 0.252860
O O14 0.110627 0.006149 0.303158
O O15 0.853708 0.750000 0.346674
O O16 0.000000 0.898837 0.363272
#
# Coordination Sequence:
#
# PCOD9500177 Si02
#       5
#    16  16  16  16  16
#     4  10  16  22  33  50  75 107 142 181 225 271
#     4   9  16  26  39  57  81 111 148 186 226 273
#     4   9  16  27  45  69  96 124 155 192 235 281
#     4  10  20  33  50  70  95 128 163 199 238 284
#     4  10  20  33  50  73 100 128 160 199 239 279
#
# _framework density 21.993030000000001
#
# number of rings (size 3 to 8) (size 9 to 14) (size 15 to 20)
#    0.000    2.400    0.000    6.000    0.000    6.000 
#    0.000    0.000    0.000    0.600    0.000    4.200 
#    0.000    0.800    0.000    2.600    0.000   10.400 
#
# Total GULP energy -223157.559943 kJ/mol
# GULP energy per Si atom -5578.938999 kJ/mol
# Density = 2.194297 g / cm^3
# Si number density = 21.993030 Si / 1000 Ang^3
#
#
#
# Elastic Constant Matrix: (Units=GPa)
#
#
# Indices 1 2 3 4 5 6 
#
# 1 46.6477 9.2156 13.4426 0.0000 0.0000 0.0000
# 2 9.2156 188.5309 128.2932 0.0000 0.0000 0.0000
# 3 13.4426 128.2932 265.3458 0.0000 0.0000 0.0000
# 4 0.0000 0.0000 0.0000 37.5151 0.0000 0.0000
# 5 0.0000 0.0000 0.0000 0.0000 29.0124 0.0000
# 6 0.0000 0.0000 0.0000 0.0000 0.0000 5.2181
#
#
#
# Elastic Compliance Matrix: (Units=1/GPa)
#
#
# Indices 1 2 3 4 5 6 
#
# 1 0.021783 -0.000468 -0.000877 0.000000 0.000000 0.000000
# 2 -0.000468 0.007915 -0.003803 0.000000 0.000000 0.000000
# 3 -0.000877 -0.003803 0.005652 0.000000 0.000000 0.000000
# 4 0.000000 0.000000 0.000000 0.026656 0.000000 0.000000
# 5 0.000000 0.000000 0.000000 0.000000 0.034468 0.000000
# 6 0.000000 0.000000 0.000000 0.000000 0.000000 0.191642
#
#
# Mechanical properties :
#
#
# Convention : Reuss Voigt Hill
#
# Bulk Modulus (GPa) = 39.91543 89.15858 64.53700
# Shear Modulus (GPa) = 16.29924 37.65397 26.97661
#
# Velocity S-wave (km/s) = 2.72529 4.14223 3.50608
# Velocity P-wave (km/s) = 5.30014 7.96899 6.76743
#
# Compressibility (1/GPa) = 0.02505297
#
# Stress axis : x y z
#
# Youngs Moduli (GPa) = 45.90836 126.34135 176.93040
#
# Poissons Ratio (x) = 0.05909 0.15524
# Poissons Ratio (y) = 0.02147 0.67290
# Poissons Ratio (z) = 0.04028 0.48050
#
# Static dielectric constant tensor:
#      x y z
#    x 1.872200 0.000000 0.000000 
#    y 0.000000 1.759960 0.000000 
#    z 0.000000 0.000000 1.870090 
# 
# From -- ./inp_files/43303.got.cif
#   From: 2010.05.17/outbox.cif.g08.bks.cpg/sg67_22_cif.got.tgz:43303.got - 2010.06.03 18:28:57.
