data_PCOD9500011
_publ_section_title
;
Structure prediction by ZEFSAII (Michael W. Deem and Ramdas Pophale) SiO2 
 PCOD9500011
Probable space group: C C C M
;
_chemical_formula_sum "Si O2"
_cell_formula_units_Z 112
_cell_length_a 38.430987
_cell_length_b 13.925655
_cell_length_c 10.299176
_cell_angle_alpha 90.000000
_cell_angle_beta 90.000000
_cell_angle_gamma 90.000000
_cell_volume 5511.878677
_symmetry_space_group_name_H-M "C C C M"
_symmetry_group_IT_number 66
_symmetry_cell_setting 'orthorhombic'
loop_
_space_group_symop_operation_xyz
x,y,z
-x,-y,z
x,-y,1/2-z
-x,y,1/2-z
-x,-y,-z
x,y,-z
-x,y,1/2+z
x,-y,1/2+z
1/2+x,1/2+y,z
1/2-x,1/2-y,z
1/2+x,1/2-y,1/2-z
1/2-x,1/2+y,1/2-z
1/2-x,1/2-y,-z
1/2+x,1/2+y,-z
1/2-x,1/2+y,1/2+z
1/2+x,1/2-y,1/2+z
loop_
_atom_site_type_symbol
_atom_site_label
_atom_site_fract_x
_atom_site_fract_y
_atom_site_fract_z
Si Si1 0.321682 0.131408 0.352556
Si Si2 0.544862 0.919936 0.853214
Si Si3 0.330435 0.635074 0.849619
Si Si4 0.245468 0.859352 0.157726
Si Si5 0.609782 0.647465 0.851922
Si Si6 0.124479 0.376328 0.138927
Si Si7 0.968916 0.806520 0.844760
O O1 0.327470 0.101914 0.500000
O O2 0.324811 0.248584 0.351909
O O3 0.283169 0.098724 0.310831
O O4 0.351322 0.099135 0.257091
O O5 0.586744 0.922541 0.856321
O O6 0.535464 0.808992 0.822240
O O7 0.534469 0.000000 0.750000
O O8 0.532647 0.939163 0.000000
O O9 0.292121 0.600933 0.802744
O O10 0.362345 0.610945 0.753932
O O11 0.336791 0.606058 0.000000
O O12 0.250000 0.750000 0.205395
O O13 0.243937 0.856422 0.000000
O O14 0.617313 0.761795 0.857426
O O15 0.568572 0.643103 0.817945
O O16 0.614761 0.610404 0.000000
O O17 0.141344 0.396973 0.000000
O O18 0.000000 0.839385 0.750000
O O19 0.975993 0.818547 0.000000
#
# Coordination Sequence:
#
# PCOD9500011 Si02
#       7
#    16  16  16  16  16  16  16
#     4   8  12  18  29  43  57  74  94 110 123 143
#     4   9  18  30  40  49  60  72  86 108 140 176
#     4   8  12  18  29  43  57  74  94 110 123 143
#     4   7  10  16  25  39  59  77  91 109 127 139
#     4   8  14  24  34  43  57  73  86 104 131 159
#     4   8  14  24  34  43  57  73  86 104 131 159
#     4   9  18  30  40  49  60  72  86 108 140 176
#
# _framework density 20.319751
#
# number of rings (size 3 to 8) (size 9 to 14) (size 15 to 20)
#    0.000    3.857    0.000    3.429    0.000    2.000 
#    0.000    5.000    0.000    4.286    0.000    0.000 
#    0.000    0.000    0.000    0.000    0.000    0.000 
#
# Total GULP energy -311738.340979 kJ/mol
# GULP energy per Si atom -5566.756089 kJ/mol
# Density = 2.027350 g / cm^3
# Si number density = 20.319751 Si / 1000 Ang^3
#
#
#
# Elastic Constant Matrix: (Units=GPa)
#
#
# Indices 1 2 3 4 5 6 
#
# 1 194.1593 6.5156 98.4504 0.0000 0.0000 0.0000
# 2 6.5156 41.7021 10.0502 0.0000 0.0000 0.0000
# 3 98.4504 10.0502 91.2709 0.0000 0.0000 0.0000
# 4 0.0000 0.0000 0.0000 -5.1814 0.0000 0.0000
# 5 0.0000 0.0000 0.0000 0.0000 117.3942 0.0000
# 6 0.0000 0.0000 0.0000 0.0000 0.0000 -10.9222
#
#
#
# Elastic Compliance Matrix: (Units=1/GPa)
#
#
# Indices 1 2 3 4 5 6 
#
# 1 0.011428 0.001218 -0.012461 0.000000 0.000000 0.000000
# 2 0.001218 0.024763 -0.004040 0.000000 0.000000 0.000000
# 3 -0.012461 -0.004040 0.024843 0.000000 0.000000 0.000000
# 4 0.000000 0.000000 0.000000 -0.192996 0.000000 0.000000
# 5 0.000000 0.000000 0.000000 0.000000 0.008518 0.000000
# 6 0.000000 0.000000 0.000000 0.000000 0.000000 -0.091557
#
#
# Mechanical properties :
#
#
# Convention : Reuss Voigt Hill
#
# Bulk Modulus (GPa) = 32.82303 61.90720 47.36511
# Shear Modulus (GPa) = -28.68963 34.39920 2.85479
#
# Velocity S-wave (km/s) = -3.76161 4.11894 1.18658
# Velocity P-wave (km/s) = 1.63645 7.29065 5.02372
#
# Compressibility (1/GPa) = 0.03046641
#
# Stress axis : x y z
#
# Youngs Moduli (GPa) = 87.50402 40.38281 40.25360
#
# Poissons Ratio (x) = -0.04917 0.50160
# Poissons Ratio (y) = -0.10654 0.16263
# Poissons Ratio (z) = 1.09039 0.16315
#
# Static dielectric constant tensor:
#      x y z
#    x 1.743510 0.000000 0.000000 
#    y 0.000000 1.749100 0.000000 
#    z 0.000000 0.000000 1.703230 
# 
# From -- ./inp_files/20839.got.cif
#   From: 2010.05.17/outbox.cif.g08.bks.cpg/sg66_11_cif.got.tgz:20839.got - 2010.06.03 17:51:23.
