data_PCOD9500448
_publ_section_title
;
Structure prediction by ZEFSAII (Michael W. Deem and Ramdas Pophale) SiO2 
 PCOD9500448
Probable space group: C M M A
;
_chemical_formula_sum "Si O2"
_cell_formula_units_Z 80
_cell_length_a 25.799973
_cell_length_b 14.774363
_cell_length_c 9.990019
_cell_angle_alpha 90.000000
_cell_angle_beta 90.000000
_cell_angle_gamma 90.000000
_cell_volume 3807.977126
_symmetry_space_group_name_H-M "C M M A"
_symmetry_group_IT_number 67
_symmetry_cell_setting 'orthorhombic'
loop_
_space_group_symop_operation_xyz
x,y,z
-x,1/2-y,z
x,-y,-z
-x,1/2+y,-z
-x,-y,-z
x,1/2+y,-z
-x,y,z
x,1/2-y,z
1/2+x,1/2+y,z
1/2-x,-y,z
1/2+x,1/2-y,-z
1/2-x,y,-z
1/2-x,1/2-y,-z
1/2+x,y,-z
1/2-x,1/2+y,z
1/2+x,-y,z
loop_
_atom_site_type_symbol
_atom_site_label
_atom_site_fract_x
_atom_site_fract_y
_atom_site_fract_z
Si Si1 0.319173 0.852070 0.780514
Si Si2 0.795545 0.644465 0.814314
Si Si3 0.056785 0.088559 0.406084
Si Si4 0.666983 0.890563 0.482848
Si Si5 0.609931 0.983353 0.142583
O O1 0.330853 0.750000 0.825021
O O2 0.263951 0.881776 0.841831
O O3 0.311965 0.851437 0.619903
O O4 0.364235 0.923454 0.807548
O O5 0.801394 0.750000 0.848472
O O6 0.804428 0.633237 0.654132
O O7 0.840992 0.584357 0.877164
O O8 0.107221 0.139315 0.461931
O O9 0.073393 0.056777 0.257419
O O10 0.000000 0.132153 0.406388
O O11 0.053507 0.000000 0.500000
O O12 0.668427 0.000000 0.500000
O O13 0.584047 0.000000 0.000000
#
# Coordination Sequence:
#
# PCOD9500448 Si02
#       5
#    16  16  16  16  16
#     4  11  21  34  53  82 115 154 192 229 277 331
#     4  10  21  34  54  80 114 154 194 232 275 331
#     4   9  17  35  63  86 106 138 185 231 284 340
#     4  10  17  32  55  86 111 143 180 233 283 329
#     4  11  23  38  56  83 116 151 188 233 283 331
#
# _framework density 21.00853
#
# number of rings (size 3 to 8) (size 9 to 14) (size 15 to 20)
#    0.000    1.800    6.000    1.800    0.000    5.200 
#    0.000    2.000    0.000   16.800    0.000    5.600 
#    0.000    0.000    0.000    0.000    0.000    0.000 
#
# Total GULP energy -223398.950138 kJ/mol
# GULP energy per Si atom -5584.973753 kJ/mol
# Density = 2.096071 g / cm^3
# Si number density = 21.008530 Si / 1000 Ang^3
#
#
#
# Elastic Constant Matrix: (Units=GPa)
#
#
# Indices 1 2 3 4 5 6 
#
# 1 102.6100 5.5744 -3.7300 0.0000 0.0000 0.0000
# 2 5.5744 74.1053 -15.1885 0.0000 0.0000 0.0000
# 3 -3.7300 -15.1885 87.9493 0.0000 0.0000 0.0000
# 4 0.0000 0.0000 0.0000 -0.9324 0.0000 0.0000
# 5 0.0000 0.0000 0.0000 0.0000 -1.8275 0.0000
# 6 0.0000 0.0000 0.0000 0.0000 0.0000 -43.2336
#
#
#
# Elastic Compliance Matrix: (Units=1/GPa)
#
#
# Indices 1 2 3 4 5 6 
#
# 1 0.009793 -0.000675 0.000299 0.000000 0.000000 0.000000
# 2 -0.000675 0.014036 0.002395 0.000000 0.000000 0.000000
# 3 0.000299 0.002395 0.011797 0.000000 0.000000 0.000000
# 4 0.000000 0.000000 0.000000 -1.072535 0.000000 0.000000
# 5 0.000000 0.000000 0.000000 0.000000 -0.547189 0.000000
# 6 0.000000 0.000000 0.000000 0.000000 0.000000 -0.023130
#
#
# Mechanical properties :
#
#
# Convention : Reuss Voigt Hill
#
# Bulk Modulus (GPa) = 25.21251 26.44185 25.82718
# Shear Modulus (GPa) = -3.12882 9.33523 3.10320
#
# Velocity S-wave (km/s) = -1.22170 2.11026 1.21668
# Velocity P-wave (km/s) = 3.16813 4.30710 3.78076
#
# Compressibility (1/GPa) = 0.03966286
#
# Stress axis : x y z
#
# Youngs Moduli (GPa) = 102.11181 71.24510 84.77084
#
# Poissons Ratio (x) = 0.04812 -0.02532
# Poissons Ratio (y) = 0.06897 -0.20305
# Poissons Ratio (z) = -0.03050 -0.17065
#
# Static dielectric constant tensor:
#      x y z
#    x 1.745240 0.000000 0.000000 
#    y 0.000000 1.761530 0.000000 
#    z 0.000000 0.000000 1.781610 
# 
# From -- ./inp_files/18399.got.cif
#   From: 2010.05.17/outbox.cif.g08.bks.cpg/sg67_10_cif.got.tgz:18399.got - 2010.06.03 18:28:57.
