data_PCOD9500305
_publ_section_title
;
Structure prediction by ZEFSAII (Michael W. Deem and Ramdas Pophale) SiO2 
 PCOD9500305
Probable space group: C M M A
;
_chemical_formula_sum "Si O2"
_cell_formula_units_Z 56
_cell_length_a 25.863688
_cell_length_b 8.682746
_cell_length_c 15.696096
_cell_angle_alpha 90.000000
_cell_angle_beta 90.000000
_cell_angle_gamma 90.000000
_cell_volume 3524.838274
_symmetry_space_group_name_H-M "C M M A"
_symmetry_group_IT_number 67
_symmetry_cell_setting 'orthorhombic'
loop_
_space_group_symop_operation_xyz
x,y,z
-x,1/2-y,z
x,-y,-z
-x,1/2+y,-z
-x,-y,-z
x,1/2+y,-z
-x,y,z
x,1/2-y,z
1/2+x,1/2+y,z
1/2-x,-y,z
1/2+x,1/2-y,-z
1/2-x,y,-z
1/2-x,1/2-y,-z
1/2+x,y,-z
1/2-x,1/2+y,z
1/2+x,-y,z
loop_
_atom_site_type_symbol
_atom_site_label
_atom_site_fract_x
_atom_site_fract_y
_atom_site_fract_z
Si Si1 0.500000 0.066237 0.096320
Si Si2 0.892738 0.065894 0.095114
Si Si3 0.807718 0.065585 0.235637
Si Si4 0.808662 0.934038 0.412862
O O1 0.500000 0.250000 0.094737
O O2 0.553978 0.003719 0.132361
O O3 0.500000 0.000000 0.000000
O O4 0.898339 0.250000 0.088945
O O5 0.844908 0.029929 0.156606
O O6 0.884839 0.000000 0.000000
O O7 0.804259 0.250000 0.245712
O O8 0.750000 0.000000 0.222136
O O9 0.830156 0.993690 0.323032
O O10 0.807329 0.750000 0.415686
O O11 0.832778 0.000000 0.500000
O O12 0.750000 0.000000 0.411601
#
# Coordination Sequence:
#
# PCOD9500305 Si02
#       4
#     8  16  16  16
#     4  10  18  30  50  70  89 114 151 196 236 272
#     4  10  20  33  49  68  93 123 156 193 232 273
#     4  10  20  32  46  67  95 126 157 190 228 274
#     4  10  17  27  44  64  89 119 152 190 228 270
#
# _framework density 15.887254
#
# number of rings (size 3 to 8) (size 9 to 14) (size 15 to 20)
#    0.000    2.000    0.000    9.857    0.000    5.143 
#    0.000    2.857    0.000    0.000    0.000    1.000 
#    0.000    0.000    0.000    0.000    0.000    0.000 
#
# Total GULP energy -156063.249706 kJ/mol
# GULP energy per Si atom -5573.687490 kJ/mol
# Density = 1.585109 g / cm^3
# Si number density = 15.887254 Si / 1000 Ang^3
#
#
#
# Elastic Constant Matrix: (Units=GPa)
#
#
# Indices 1 2 3 4 5 6 
#
# 1 83.1156 48.5709 57.3849 0.0000 0.0000 0.0000
# 2 48.5709 114.3808 60.4869 0.0000 0.0000 0.0000
# 3 57.3849 60.4869 113.4434 0.0000 0.0000 0.0000
# 4 0.0000 0.0000 0.0000 24.5294 0.0000 0.0000
# 5 0.0000 0.0000 0.0000 0.0000 -0.5700 0.0000
# 6 0.0000 0.0000 0.0000 0.0000 0.0000 16.1661
#
#
#
# Elastic Compliance Matrix: (Units=1/GPa)
#
#
# Indices 1 2 3 4 5 6 
#
# 1 0.019938 -0.004363 -0.007759 0.000000 0.000000 0.000000
# 2 -0.004363 0.013131 -0.004794 0.000000 0.000000 0.000000
# 3 -0.007759 -0.004794 0.015296 0.000000 0.000000 0.000000
# 4 0.000000 0.000000 0.000000 0.040767 0.000000 0.000000
# 5 0.000000 0.000000 0.000000 0.000000 -1.754307 0.000000
# 6 0.000000 0.000000 0.000000 0.000000 0.000000 0.061858
#
#
# Mechanical properties :
#
#
# Convention : Reuss Voigt Hill
#
# Bulk Modulus (GPa) = 68.81382 71.53612 70.17497
# Shear Modulus (GPa) = -3.19562 17.65825 7.23132
#
# Velocity S-wave (km/s) = -1.41979 3.33749 2.13577
# Velocity P-wave (km/s) = 6.38123 7.74448 7.09567
#
# Compressibility (1/GPa) = 0.01453197
#
# Stress axis : x y z
#
# Youngs Moduli (GPa) = 50.15423 76.15686 65.37642
#
# Poissons Ratio (x) = 0.33231 0.50727
# Poissons Ratio (y) = 0.21885 0.31341
# Poissons Ratio (z) = 0.38916 0.36509
#
# Static dielectric constant tensor:
#      x y z
#    x 1.536200 0.000000 0.000000 
#    y 0.000000 1.531580 0.000000 
#    z 0.000000 0.000000 1.576660 
# 
# From -- ./inp_files/15699.got.cif
#   From: 2010.05.17/outbox.cif.g08.bks.cpg/sg67_8_cif.got.tgz:15699.got - 2010.06.03 18:28:57.
