data_PCOD9500332
_publ_section_title
;
Structure prediction by ZEFSAII (Michael W. Deem and Ramdas Pophale) SiO2 
 PCOD9500332
Probable space group: C M M A
;
_chemical_formula_sum "Si O2"
_cell_formula_units_Z 56
_cell_length_a 8.680021
_cell_length_b 38.153857
_cell_length_c 9.261144
_cell_angle_alpha 90.000000
_cell_angle_beta 90.000000
_cell_angle_gamma 90.000000
_cell_volume 3067.071218
_symmetry_space_group_name_H-M "C M M A"
_symmetry_group_IT_number 67
_symmetry_cell_setting 'orthorhombic'
loop_
_space_group_symop_operation_xyz
x,y,z
-x,1/2-y,z
x,-y,-z
-x,1/2+y,-z
-x,-y,-z
x,1/2+y,-z
-x,y,z
x,1/2-y,z
1/2+x,1/2+y,z
1/2-x,-y,z
1/2+x,1/2-y,-z
1/2-x,y,-z
1/2-x,1/2-y,-z
1/2+x,y,-z
1/2-x,1/2+y,z
1/2+x,-y,z
loop_
_atom_site_type_symbol
_atom_site_label
_atom_site_fract_x
_atom_site_fract_y
_atom_site_fract_z
Si Si1 0.684197 0.177941 0.338530
Si Si2 0.315983 0.464116 0.835759
Si Si3 0.315516 0.391911 0.161513
Si Si4 0.183666 0.750000 0.663886
O O1 0.500000 0.181883 0.345825
O O2 0.750000 0.174256 0.500000
O O3 0.721521 0.143016 0.250080
O O4 0.754799 0.213555 0.272017
O O5 0.500000 0.465312 0.840134
O O6 0.250000 0.500000 0.768962
O O7 0.257189 0.427363 0.772287
O O8 0.250000 0.463469 0.000000
O O9 0.500000 0.396163 0.154793
O O10 0.250000 0.387975 0.000000
O O11 0.250000 0.750000 0.500000
O O12 0.000000 0.750000 0.659634
#
# Coordination Sequence:
#
# PCOD9500332 Si02
#       4
#    16  16  16   8
#     4  10  20  34  53  75 100 129 164 203 244 291
#     4  10  17  27  45  68  96 128 163 202 241 285
#     4  10  20  33  50  74 102 131 163 202 246 292
#     4  10  18  30  51  74  97 126 164 204 242 286
#
# _framework density 18.258462000000002
#
# number of rings (size 3 to 8) (size 9 to 14) (size 15 to 20)
#    0.000    2.000    0.000    9.857    0.000    4.571 
#    0.000    0.714    0.000    0.857    0.000    6.000 
#    0.000    0.000    0.000    0.000    0.000    0.000 
#
# Total GULP energy -156169.360126 kJ/mol
# GULP energy per Si atom -5577.477147 kJ/mol
# Density = 1.821690 g / cm^3
# Si number density = 18.258462 Si / 1000 Ang^3
#
#
#
# Elastic Constant Matrix: (Units=GPa)
#
#
# Indices 1 2 3 4 5 6 
#
# 1 127.4683 101.6110 21.0698 0.0000 0.0000 0.0000
# 2 101.6110 235.0850 44.8658 0.0000 0.0000 0.0000
# 3 21.0698 44.8658 22.6644 0.0000 0.0000 0.0000
# 4 0.0000 0.0000 0.0000 31.2554 0.0000 0.0000
# 5 0.0000 0.0000 0.0000 0.0000 15.2509 0.0000
# 6 0.0000 0.0000 0.0000 0.0000 0.0000 40.1516
#
#
#
# Elastic Compliance Matrix: (Units=1/GPa)
#
#
# Indices 1 2 3 4 5 6 
#
# 1 0.011998 -0.004913 -0.001427 0.000000 0.000000 0.000000
# 2 -0.004913 0.008849 -0.012949 0.000000 0.000000 0.000000
# 3 -0.001427 -0.012949 0.071082 0.000000 0.000000 0.000000
# 4 0.000000 0.000000 0.000000 0.031994 0.000000 0.000000
# 5 0.000000 0.000000 0.000000 0.000000 0.065570 0.000000
# 6 0.000000 0.000000 0.000000 0.000000 0.000000 0.024906
#
#
# Mechanical properties :
#
#
# Convention : Reuss Voigt Hill
#
# Bulk Modulus (GPa) = 18.74431 80.03457 49.38944
# Shear Modulus (GPa) = 18.46643 31.84299 25.15471
#
# Velocity S-wave (km/s) = 3.18369 4.18067 3.71577
# Velocity P-wave (km/s) = 4.87882 8.19960 6.74671
#
# Compressibility (1/GPa) = 0.05334952
#
# Stress axis : x y z
#
# Youngs Moduli (GPa) = 83.34932 113.00917 14.06818
#
# Poissons Ratio (x) = 0.55526 0.02008
# Poissons Ratio (y) = 0.40953 0.18217
# Poissons Ratio (z) = 0.11895 1.46337
#
# Static dielectric constant tensor:
#      x y z
#    x 1.609110 0.000000 0.000000 
#    y 0.000000 1.710430 0.000000 
#    z 0.000000 0.000000 1.611980 
# 
# From -- ./inp_files/15705.got.cif
#   From: 2010.05.17/outbox.cif.g08.bks.cpg/sg67_8_cif.got.tgz:15705.got - 2010.06.03 18:28:57.
