data_PCOD9500941
_publ_section_title
;
Structure prediction by ZEFSAII (Michael W. Deem and Ramdas Pophale) SiO2 
 PCOD9500941
Probable space group: C M M A
;
_chemical_formula_sum "Si O2"
_cell_formula_units_Z 116
_cell_length_a 15.202618
_cell_length_b 29.116534
_cell_length_c 10.452168
_cell_angle_alpha 90.000000
_cell_angle_beta 90.000000
_cell_angle_gamma 90.000000
_cell_volume 4626.626493
_symmetry_space_group_name_H-M "C M M A"
_symmetry_group_IT_number 67
_symmetry_cell_setting 'orthorhombic'
loop_
_space_group_symop_operation_xyz
x,y,z
-x,1/2-y,z
x,-y,-z
-x,1/2+y,-z
-x,-y,-z
x,1/2+y,-z
-x,y,z
x,1/2-y,z
1/2+x,1/2+y,z
1/2-x,-y,z
1/2+x,1/2-y,-z
1/2-x,y,-z
1/2-x,1/2-y,-z
1/2+x,y,-z
1/2-x,1/2+y,z
1/2+x,-y,z
loop_
_atom_site_type_symbol
_atom_site_label
_atom_site_fract_x
_atom_site_fract_y
_atom_site_fract_z
Si Si1 0.160162 0.800141 0.196894
Si Si2 0.400580 0.566694 0.532723
Si Si3 0.645966 0.014524 0.208348
Si Si4 0.658359 0.078796 0.737012
Si Si5 0.823041 0.103751 0.889894
Si Si6 0.644846 0.171786 0.473959
Si Si7 0.000000 0.250000 0.126062
Si Si8 0.367772 0.818130 0.241603
O O1 0.138344 0.750000 0.140525
O O2 0.130403 0.847424 0.128251
O O3 0.129155 0.800949 0.344111
O O4 0.266159 0.806723 0.208148
O O5 0.500000 0.556975 0.490632
O O6 0.381434 0.535463 0.654722
O O7 0.340030 0.561794 0.408916
O O8 0.393467 0.621438 0.555589
O O9 0.625551 0.055569 0.109176
O O10 0.750000 0.000000 0.201194
O O11 0.611246 0.962937 0.190623
O O12 0.758516 0.093052 0.769893
O O13 0.613076 0.127517 0.759986
O O14 0.750000 0.106889 0.000000
O O15 0.750000 0.166728 0.500000
O O16 0.613062 0.193156 0.608281
O O17 0.075123 0.210265 0.145271
#
# Coordination Sequence:
#
# PCOD9500941 Si02
#       8
#    16  16  16  16  16  16   4  16
#     4  10  18  34  55  81 114 150 198 252 305 356
#     4  11  22  36  57  92 129 160 190 239 307 380
#     4  10  21  36  60  86 118 163 198 247 305 364
#     4   9  21  35  53  82 122 150 196 246 297 362
#     4  10  21  38  60  89 116 154 213 264 305 355
#     4   9  19  33  54  78 119 162 198 237 291 363
#     4  12  20  32  50  80 128 168 196 236 304 374
#     4   9  20  31  48  80 115 158 192 236 293 366
#
# _framework density 25.072263
#
# number of rings (size 3 to 8) (size 9 to 14) (size 15 to 20)
#    0.000    2.207    2.069    1.241    8.690    6.345 
#    0.000    0.000    0.000    0.828    0.000    4.828 
#    0.000    0.000    0.000    0.000    0.000    0.000 
#
# Total GULP energy -323051.475827 kJ/mol
# GULP energy per Si atom -5569.853031 kJ/mol
# Density = 2.501520 g / cm^3
# Si number density = 25.072263 Si / 1000 Ang^3
#
#
#
# Elastic Constant Matrix: (Units=GPa)
#
#
# Indices 1 2 3 4 5 6 
#
# 1 25.4547 -21.6842 -0.3046 0.0000 0.0000 0.0000
# 2 -21.6842 224.2422 26.3473 0.0000 0.0000 0.0000
# 3 -0.3046 26.3473 73.6849 0.0000 0.0000 0.0000
# 4 0.0000 0.0000 0.0000 12.4924 0.0000 0.0000
# 5 0.0000 0.0000 0.0000 0.0000 -16.1560 0.0000
# 6 0.0000 0.0000 0.0000 0.0000 0.0000 -6.7346
#
#
#
# Elastic Compliance Matrix: (Units=1/GPa)
#
#
# Indices 1 2 3 4 5 6 
#
# 1 0.042943 0.004313 -0.001365 0.000000 0.000000 0.000000
# 2 0.004313 0.005088 -0.001802 0.000000 0.000000 0.000000
# 3 -0.001365 -0.001802 0.014210 0.000000 0.000000 0.000000
# 4 0.000000 0.000000 0.000000 0.080048 0.000000 0.000000
# 5 0.000000 0.000000 0.000000 0.000000 -0.061897 0.000000
# 6 0.000000 0.000000 0.000000 0.000000 0.000000 -0.148487
#
#
# Mechanical properties :
#
#
# Convention : Reuss Voigt Hill
#
# Bulk Modulus (GPa) = 15.49549 36.89985 26.19767
# Shear Modulus (GPa) = -102.29926 19.18860 -41.55533
#
# Velocity S-wave (km/s) = -6.39456 2.76946 -4.07556
# Velocity P-wave (km/s) = 6.95174 4.99759 3.41693
#
# Compressibility (1/GPa) = 0.06453490
#
# Stress axis : x y z
#
# Youngs Moduli (GPa) = 23.28652 196.53318 70.37377
#
# Poissons Ratio (x) = -0.84764 0.09603
# Poissons Ratio (y) = -0.10043 0.12678
# Poissons Ratio (z) = 0.03178 0.35406
#
# Static dielectric constant tensor:
#      x y z
#    x 2.054240 0.000000 0.000000 
#    y 0.000000 2.109510 0.000000 
#    z 0.000000 0.000000 2.077800 
# 
# From -- ./inp_files/20123.got.cif
#   From: 2010.05.17/outbox.cif.g08.bks.cpg/sg67_11_cif.got.tgz:20123.got - 2010.06.03 18:28:57.
