data_PCOD9500076
_publ_section_title
;
Structure prediction by ZEFSAII (Michael W. Deem and Ramdas Pophale) SiO2 
 PCOD9500076
Probable space group: C C C M
;
_chemical_formula_sum "Si O2"
_cell_formula_units_Z 48
_cell_length_a 21.000000
_cell_length_b 27.000000
_cell_length_c 9.000000
_cell_angle_alpha 90.000000
_cell_angle_beta 90.000000
_cell_angle_gamma 90.000000
_cell_volume 5103.000000
_symmetry_space_group_name_H-M "C C C M"
_symmetry_group_IT_number 66
_symmetry_cell_setting 'orthorhombic'
loop_
_space_group_symop_operation_xyz
x,y,z
-x,-y,z
x,-y,1/2-z
-x,y,1/2-z
-x,-y,-z
x,y,-z
-x,y,1/2+z
x,-y,1/2+z
1/2+x,1/2+y,z
1/2-x,1/2-y,z
1/2+x,1/2-y,1/2-z
1/2-x,1/2+y,1/2-z
1/2-x,1/2-y,-z
1/2+x,1/2+y,-z
1/2-x,1/2+y,1/2+z
1/2+x,1/2-y,1/2+z
loop_
_atom_site_type_symbol
_atom_site_label
_atom_site_fract_x
_atom_site_fract_y
_atom_site_fract_z
Si Si1 0.305995 0.553181 0.675572
Si Si2 0.064558 0.780720 0.821174
Si Si3 0.313664 0.106471 0.321407
Si Si4 0.564935 0.054791 0.320810
Si Si5 0.311711 0.778064 0.820185
Si Si6 0.062747 0.111701 0.175272
O O1 0.310561 0.500000 0.750000
O O2 0.290973 0.549721 0.500000
O O3 0.250334 0.581884 0.760531
O O4 0.373606 0.580240 0.691591
O O5 0.124172 0.748433 0.771362
O O6 0.072167 0.836149 0.758655
O O7 0.000000 0.760543 0.750000
O O8 0.060602 0.781647 0.000000
O O9 0.319572 0.099434 0.500000
O O10 0.373893 0.083873 0.236748
O O11 0.310389 0.164441 0.286722
O O12 0.500000 0.076332 0.250000
O O13 0.561357 0.052523 0.500000
O O14 0.570408 0.000000 0.250000
O O15 0.250000 0.750000 0.761029
O O16 0.310787 0.773883 0.000000
O O17 0.000000 0.088252 0.250000
O O18 0.051083 0.120146 0.000000
#
# Coordination Sequence:
#
# PCOD9500076 Si02
#       6
#    16  16  16  16  16  16
#     4  11  24  40  58  83 113 147 188 233 281 334
#     4  10  19  34  57  83 112 146 184 225 273 329
#     4  11  22  38  60  85 115 150 188 232 282 333
#     4  11  22  39  61  86 116 149 189 232 280 335
#     4   9  19  35  56  82 110 144 187 231 275 327
#     4  10  21  37  58  84 114 147 186 230 279 334
#
# _framework density 9.4062319999999993
#
# number of rings (size 3 to 8) (size 9 to 14) (size 15 to 20)
#    0.000    1.667    0.000    6.500    0.000    5.000 
#    0.000    6.667    0.000    6.000    0.000    0.000 
#    0.000    0.000    0.000    0.000    0.000    0.000 
#
# Total GULP energy -268073.680312 kJ/mol
# GULP energy per Si atom -5584.868340 kJ/mol
# Density = 0.938482 g / cm^3
# Si number density = 9.406232 Si / 1000 Ang^3
#
#
#
# Elastic Constant Matrix: (Units=GPa)
#
#
# Indices 1 2 3 4 5 6 
#
# 1 173.0845 85.5082 78.0052 0.0000 0.0000 0.0000
# 2 85.5082 78.8182 53.2426 0.0000 0.0000 0.0000
# 3 78.0052 53.2426 135.1737 0.0000 0.0000 0.0000
# 4 0.0000 0.0000 0.0000 13.3817 0.0000 0.0000
# 5 0.0000 0.0000 0.0000 0.0000 41.8663 0.0000
# 6 0.0000 0.0000 0.0000 0.0000 0.0000 25.2889
#
#
#
# Elastic Compliance Matrix: (Units=1/GPa)
#
#
# Indices 1 2 3 4 5 6 
#
# 1 0.013125 -0.012430 -0.002678 0.000000 0.000000 0.000000
# 2 -0.012430 0.029059 -0.004273 0.000000 0.000000 0.000000
# 3 -0.002678 -0.004273 0.010626 0.000000 0.000000 0.000000
# 4 0.000000 0.000000 0.000000 0.074729 0.000000 0.000000
# 5 0.000000 0.000000 0.000000 0.000000 0.023886 0.000000
# 6 0.000000 0.000000 0.000000 0.000000 0.000000 0.039543
#
#
# Mechanical properties :
#
#
# Convention : Reuss Voigt Hill
#
# Bulk Modulus (GPa) = 71.18245 91.17650 81.17947
# Shear Modulus (GPa) = 21.32981 27.46207 24.39594
#
# Velocity S-wave (km/s) = 3.37087 3.82485 3.60501
# Velocity P-wave (km/s) = 7.28494 8.25089 7.78292
#
# Compressibility (1/GPa) = 0.01404841
#
# Stress axis : x y z
#
# Youngs Moduli (GPa) = 76.18760 34.41260 94.10561
#
# Poissons Ratio (x) = 0.42776 0.25204
# Poissons Ratio (y) = 0.94704 0.40208
# Poissons Ratio (z) = 0.20405 0.14703
#
# Static dielectric constant tensor:
#      x y z
#    x 1.663290 0.000000 0.000000 
#    y 0.000000 1.642800 0.000000 
#    z 0.000000 0.000000 1.625750 
# 
# From -- ./inp_files/7997.got.cif
#   From: 2010.05.17/outbox.ucp.g08.bks.cvg/sg66_4_cif.got.tgz:7997.got - 2010.06.11 16:44:13.
