data_PCOD9500111
_publ_section_title
;
Structure prediction by ZEFSAII (Michael W. Deem and Ramdas Pophale) SiO2 
 PCOD9500111
Probable space group: C C C M
;
_chemical_formula_sum "Si O2"
_cell_formula_units_Z 56
_cell_length_a 12.000000
_cell_length_b 30.000000
_cell_length_c 15.000000
_cell_angle_alpha 90.000000
_cell_angle_beta 90.000000
_cell_angle_gamma 90.000000
_cell_volume 5400.000000
_symmetry_space_group_name_H-M "C C C M"
_symmetry_group_IT_number 66
_symmetry_cell_setting 'orthorhombic'
loop_
_space_group_symop_operation_xyz
x,y,z
-x,-y,z
x,-y,1/2-z
-x,y,1/2-z
-x,-y,-z
x,y,-z
-x,y,1/2+z
x,-y,1/2+z
1/2+x,1/2+y,z
1/2-x,1/2-y,z
1/2+x,1/2-y,1/2-z
1/2-x,1/2+y,1/2-z
1/2-x,1/2-y,-z
1/2+x,1/2+y,-z
1/2-x,1/2+y,1/2+z
1/2+x,1/2-y,1/2+z
loop_
_atom_site_type_symbol
_atom_site_label
_atom_site_fract_x
_atom_site_fract_y
_atom_site_fract_z
Si Si1 0.592631 0.404679 0.607448
Si Si2 0.278081 0.839977 0.603566
Si Si3 0.943014 0.574792 0.898359
Si Si4 0.638073 0.137450 0.890043
Si Si5 0.344418 0.417097 0.602946
Si Si6 0.632351 0.221208 0.238803
Si Si7 0.749071 0.011856 0.648485
O O1 0.589427 0.401367 0.500000
O O2 0.658888 0.359991 0.635854
O O3 0.467915 0.413211 0.642625
O O4 0.666468 0.448302 0.626088
O O5 0.270351 0.824478 0.500000
O O6 0.356263 0.883918 0.602578
O O7 0.332951 0.804508 0.669816
O O8 0.874902 0.531778 0.865582
O O9 0.052534 0.598297 0.858781
O O10 0.973084 0.563990 0.000000
O O11 0.757307 0.118334 0.859830
O O12 0.619818 0.183951 0.839641
O O13 0.630182 0.141470 0.000000
O O14 0.356615 0.404568 0.500000
O O15 0.288782 0.466103 0.602948
O O16 0.500000 0.238970 0.250000
O O17 0.750000 0.250000 0.220516
O O18 0.760328 0.000000 0.750000
#
# Coordination Sequence:
#
# PCOD9500111 Si02
#       7
#    16  16  16  16  16  16  16
#     4   9  19  37  60  84 119 170 219 265 317 379
#     4   9  19  40  69  94 120 164 216 258 310 387
#     4   9  18  38  65  85 114 168 221 262 308 380
#     4  10  23  43  67  91 123 172 216 260 327 395
#     4  10  21  36  56  86 125 167 213 268 321 375
#     4  12  27  45  70 101 134 164 207 270 340 407
#     4  11  22  32  51  88 127 165 216 271 324 367
#
# _framework density 10.370369999999999
#
# number of rings (size 3 to 8) (size 9 to 14) (size 15 to 20)
#    0.000    2.000    1.429    2.571    4.000    4.571 
#    0.000    2.857    0.000    0.000    0.000    0.000 
#    0.000    0.000    0.000    0.000    0.000    0.000 
#
# Total GULP energy -312011.258213 kJ/mol
# GULP energy per Si atom -5571.629611 kJ/mol
# Density = 1.034677 g / cm^3
# Si number density = 10.370370 Si / 1000 Ang^3
#
#
#
# Elastic Constant Matrix: (Units=GPa)
#
#
# Indices 1 2 3 4 5 6 
#
# 1 145.2887 39.0827 20.2566 0.0000 0.0000 0.0000
# 2 39.0827 35.2650 5.2395 0.0000 0.0000 0.0000
# 3 20.2566 5.2395 49.7053 0.0000 0.0000 0.0000
# 4 0.0000 0.0000 0.0000 52.2758 0.0000 0.0000
# 5 0.0000 0.0000 0.0000 0.0000 11.9635 0.0000
# 6 0.0000 0.0000 0.0000 0.0000 0.0000 49.9190
#
#
#
# Elastic Compliance Matrix: (Units=1/GPa)
#
#
# Indices 1 2 3 4 5 6 
#
# 1 0.010235 -0.010893 -0.003023 0.000000 0.000000 0.000000
# 2 -0.010893 0.040403 0.000181 0.000000 0.000000 0.000000
# 3 -0.003023 0.000181 0.021331 0.000000 0.000000 0.000000
# 4 0.000000 0.000000 0.000000 0.019129 0.000000 0.000000
# 5 0.000000 0.000000 0.000000 0.000000 0.083588 0.000000
# 6 0.000000 0.000000 0.000000 0.000000 0.000000 0.020032
#
#
# Mechanical properties :
#
#
# Convention : Reuss Voigt Hill
#
# Bulk Modulus (GPa) = 22.47321 39.93519 31.20420
# Shear Modulus (GPa) = 21.09510 33.87700 27.48605
#
# Velocity S-wave (km/s) = 3.19264 4.04586 3.64431
# Velocity P-wave (km/s) = 4.94463 6.41261 5.72586
#
# Compressibility (1/GPa) = 0.04449743
#
# Stress axis : x y z
#
# Youngs Moduli (GPa) = 97.70755 24.75087 46.87931
#
# Poissons Ratio (x) = 0.26962 0.14170
# Poissons Ratio (y) = 1.06438 -0.00846
# Poissons Ratio (z) = 0.29534 -0.00447
#
# Static dielectric constant tensor:
#      x y z
#    x 1.864850 0.000000 0.000000 
#    y 0.000000 1.770430 0.000000 
#    z 0.000000 0.000000 1.746950 
# 
# From -- ./inp_files/27024.got.cif
#   From: 2010.05.17/outbox.ucp.g08.bks.cvg/sg66_14_cif.got.tgz:27024.got - 2010.06.11 16:44:13.
