data_PCOD9500205
_publ_section_title
;
Structure prediction by ZEFSAII (Michael W. Deem and Ramdas Pophale) SiO2 
 PCOD9500205
Probable space group: C M M A
;
_chemical_formula_sum "Si O2"
_cell_formula_units_Z 72
_cell_length_a 17.859127
_cell_length_b 14.092620
_cell_length_c 16.223396
_cell_angle_alpha 90.000000
_cell_angle_beta 90.000000
_cell_angle_gamma 90.000000
_cell_volume 4083.134973
_symmetry_space_group_name_H-M "C M M A"
_symmetry_group_IT_number 67
_symmetry_cell_setting 'orthorhombic'
loop_
_space_group_symop_operation_xyz
x,y,z
-x,1/2-y,z
x,-y,-z
-x,1/2+y,-z
-x,-y,-z
x,1/2+y,-z
-x,y,z
x,1/2-y,z
1/2+x,1/2+y,z
1/2-x,-y,z
1/2+x,1/2-y,-z
1/2-x,y,-z
1/2-x,1/2-y,-z
1/2+x,y,-z
1/2-x,1/2+y,z
1/2+x,-y,z
loop_
_atom_site_type_symbol
_atom_site_label
_atom_site_fract_x
_atom_site_fract_y
_atom_site_fract_z
Si Si1 0.188180 0.250000 0.071896
Si Si2 0.337131 0.036750 0.414156
Si Si3 0.413497 0.434055 0.919769
Si Si4 0.796710 0.250000 0.583697
Si Si5 0.663855 0.036776 0.231897
Si Si6 0.212541 0.250000 0.766316
O O1 0.137523 0.342808 0.065953
O O2 0.227490 0.250000 0.161177
O O3 0.250000 0.250000 0.000000
O O4 0.339668 0.150693 0.416994
O O5 0.365068 0.008562 0.323359
O O6 0.370811 0.000000 0.500000
O O7 0.250000 0.000000 0.414235
O O8 0.500000 0.407330 0.907885
O O9 0.383294 0.490818 0.840672
O O10 0.407883 0.500000 0.000000
O O11 0.750000 0.250000 0.500000
O O12 0.754789 0.250000 0.672629
O O13 0.667054 0.151479 0.225869
O O14 0.750000 0.000000 0.224873
#
# Coordination Sequence:
#
# PCOD9500205 Si02
#       6
#     8  16  16   8  16   8
#     4  12  23  37  62  86 109 143 184 231 273 327
#     4   9  16  25  43  72 106 142 174 224 274 325
#     4  11  25  41  57  81 113 147 182 228 283 335
#     4  10  16  24  39  69 113 139 168 218 280 320
#     4  10  19  34  55  80 111 145 187 229 276 335
#     4  10  20  31  52  87 107 138 189 230 270 323
#
# _framework density 17.633509
#
# number of rings (size 3 to 8) (size 9 to 14) (size 15 to 20)
#    0.000    1.778    4.444    1.667    0.000    0.000 
#    0.000    1.667    0.000    0.667    0.000    0.000 
#    0.000    0.000    0.000    0.000    0.000    0.000 
#
# Total GULP energy -200597.153830 kJ/mol
# GULP energy per Si atom -5572.143162 kJ/mol
# Density = 1.759337 g / cm^3
# Si number density = 17.633509 Si / 1000 Ang^3
#
#
#
# Elastic Constant Matrix: (Units=GPa)
#
#
# Indices 1 2 3 4 5 6 
#
# 1 63.1390 40.2278 71.3410 0.0000 0.0000 0.0000
# 2 40.2278 122.4482 50.2521 0.0000 0.0000 0.0000
# 3 71.3410 50.2521 178.1367 0.0000 0.0000 0.0000
# 4 0.0000 0.0000 0.0000 29.5710 0.0000 0.0000
# 5 0.0000 0.0000 0.0000 0.0000 6.5467 0.0000
# 6 0.0000 0.0000 0.0000 0.0000 0.0000 26.8362
#
#
#
# Elastic Compliance Matrix: (Units=1/GPa)
#
#
# Indices 1 2 3 4 5 6 
#
# 1 0.032430 -0.006021 -0.011289 0.000000 0.000000 0.000000
# 2 -0.006021 0.010354 -0.000509 0.000000 0.000000 0.000000
# 3 -0.011289 -0.000509 0.010279 0.000000 0.000000 0.000000
# 4 0.000000 0.000000 0.000000 0.033817 0.000000 0.000000
# 5 0.000000 0.000000 0.000000 0.000000 0.152748 0.000000
# 6 0.000000 0.000000 0.000000 0.000000 0.000000 0.037263
#
#
# Mechanical properties :
#
#
# Convention : Reuss Voigt Hill
#
# Bulk Modulus (GPa) = 57.39577 76.37398 66.88488
# Shear Modulus (GPa) = 15.70657 26.05097 20.87877
#
# Velocity S-wave (km/s) = 2.98774 3.84781 3.44472
# Velocity P-wave (km/s) = 6.67248 7.94649 7.33719
#
# Compressibility (1/GPa) = 0.01742289
#
# Stress axis : x y z
#
# Youngs Moduli (GPa) = 30.83566 96.58175 97.29033
#
# Poissons Ratio (x) = 0.58154 1.09833
# Poissons Ratio (y) = 0.18567 0.04956
# Poissons Ratio (z) = 0.34811 0.04920
#
# Static dielectric constant tensor:
#      x y z
#    x 1.564990 0.000000 0.000000 
#    y 0.000000 1.608240 0.000000 
#    z 0.000000 0.000000 1.630290 
# 
# From -- ./inp_files/28289.got.cif
#   From: 2010.05.17/outbox.cif.g08.bks.cpg/sg67_15_cif.got.tgz:28289.got - 2010.06.03 18:28:57.
