data_PCOD9500721
_publ_section_title
;
Structure prediction by ZEFSAII (Michael W. Deem and Ramdas Pophale) SiO2 
 PCOD9500721
Probable space group: C M M A
;
_chemical_formula_sum "Si O2"
_cell_formula_units_Z 112
_cell_length_a 26.591267
_cell_length_b 14.804880
_cell_length_c 16.531977
_cell_angle_alpha 90.000000
_cell_angle_beta 90.000000
_cell_angle_gamma 90.000000
_cell_volume 6508.317252
_symmetry_space_group_name_H-M "C M M A"
_symmetry_group_IT_number 67
_symmetry_cell_setting 'orthorhombic'
loop_
_space_group_symop_operation_xyz
x,y,z
-x,1/2-y,z
x,-y,-z
-x,1/2+y,-z
-x,-y,-z
x,1/2+y,-z
-x,y,z
x,1/2-y,z
1/2+x,1/2+y,z
1/2-x,-y,z
1/2+x,1/2-y,-z
1/2-x,y,-z
1/2-x,1/2-y,-z
1/2+x,y,-z
1/2-x,1/2+y,z
1/2+x,-y,z
loop_
_atom_site_type_symbol
_atom_site_label
_atom_site_fract_x
_atom_site_fract_y
_atom_site_fract_z
Si Si1 0.731300 0.855939 0.907864
Si Si2 0.399799 0.851371 0.334101
Si Si3 0.135758 0.478035 0.906627
Si Si4 0.166852 0.647284 0.811149
Si Si5 0.440449 0.545427 0.668467
Si Si6 0.059298 0.353887 0.509824
Si Si7 0.560358 0.146220 0.173058
O O1 0.716890 0.750000 0.908838
O O2 0.684859 0.918840 0.885033
O O3 0.776593 0.867165 0.843687
O O4 0.750000 0.877400 0.000000
O O5 0.420160 0.750000 0.314026
O O6 0.347390 0.857542 0.284207
O O7 0.405215 0.856542 0.431244
O O8 0.429087 0.942014 0.309948
O O9 0.135394 0.570163 0.855878
O O10 0.087092 0.418248 0.890188
O O11 0.140188 0.500000 0.000000
O O12 0.153823 0.750000 0.836886
O O13 0.500000 0.557487 0.664731
O O14 0.423368 0.578466 0.580013
O O15 0.421674 0.610551 0.739303
O O16 0.059350 0.250000 0.540420
O O17 0.000000 0.373441 0.486963
O O18 0.500000 0.139068 0.169714
O O19 0.574266 0.250000 0.161226
#
# Coordination Sequence:
#
# PCOD9500721 Si02
#       7
#    16  16  16  16  16  16  16
#     4  10  20  35  57  86 112 134 171 227 284 330
#     4  10  19  31  46  71 108 146 175 208 265 332
#     4  12  22  35  60  83 106 140 184 228 282 332
#     4  10  21  35  50  77 116 145 171 215 277 335
#     4  10  18  31  51  76 105 141 185 234 279 317
#     4   9  17  29  49  77 107 141 184 231 276 323
#     4  10  22  39  56  77 110 148 186 229 276 328
#
# _framework density 17.208749000000001
#
# number of rings (size 3 to 8) (size 9 to 14) (size 15 to 20)
#    0.000    1.857    2.857    2.143    0.000    4.571 
#    0.000    0.000    0.000    0.429    0.000    1.000 
#    0.000    5.714    0.571    0.000    0.000    0.000 
#
# Total GULP energy -311806.661556 kJ/mol
# GULP energy per Si atom -5567.976099 kJ/mol
# Density = 1.716958 g / cm^3
# Si number density = 17.208749 Si / 1000 Ang^3
#
#
#
# Elastic Constant Matrix: (Units=GPa)
#
#
# Indices 1 2 3 4 5 6 
#
# 1 29.6271 29.5139 31.7258 0.0000 0.0000 0.0000
# 2 29.5139 109.6426 30.6689 0.0000 0.0000 0.0000
# 3 31.7258 30.6689 62.1808 0.0000 0.0000 0.0000
# 4 0.0000 0.0000 0.0000 23.6747 0.0000 0.0000
# 5 0.0000 0.0000 0.0000 0.0000 29.0173 0.0000
# 6 0.0000 0.0000 0.0000 0.0000 0.0000 22.1174
#
#
#
# Elastic Compliance Matrix: (Units=1/GPa)
#
#
# Indices 1 2 3 4 5 6 
#
# 1 0.087675 -0.012862 -0.038390 0.000000 0.000000 0.000000
# 2 -0.012862 0.012467 0.000414 0.000000 0.000000 0.000000
# 3 -0.038390 0.000414 0.035465 0.000000 0.000000 0.000000
# 4 0.000000 0.000000 0.000000 0.042239 0.000000 0.000000
# 5 0.000000 0.000000 0.000000 0.000000 0.034462 0.000000
# 6 0.000000 0.000000 0.000000 0.000000 0.000000 0.045213
#
#
# Mechanical properties :
#
#
# Convention : Reuss Voigt Hill
#
# Bulk Modulus (GPa) = 29.47171 42.80753 36.13962
# Shear Modulus (GPa) = 13.49493 22.26469 17.87981
#
# Velocity S-wave (km/s) = 2.80338 3.60085 3.22684
# Velocity P-wave (km/s) = 5.25754 6.49751 5.91013
#
# Compressibility (1/GPa) = 0.03393085
#
# Stress axis : x y z
#
# Youngs Moduli (GPa) = 11.40571 80.21037 28.19662
#
# Poissons Ratio (x) = 1.03171 1.08246
# Poissons Ratio (y) = 0.14671 -0.01166
# Poissons Ratio (z) = 0.43786 -0.03317
#
# Static dielectric constant tensor:
#      x y z
#    x 1.576570 0.000000 0.000000 
#    y 0.000000 1.626740 0.000000 
#    z 0.000000 0.000000 1.604630 
# 
# From -- ./inp_files/27565.got.cif
#   From: 2010.05.17/outbox.cif.g08.bks.cpg/sg67_14_cif.got.tgz:27565.got - 2010.06.03 18:28:57.
