data_PCOD9500158
_publ_section_title
;
Structure prediction by ZEFSAII (Michael W. Deem and Ramdas Pophale) SiO2 
 PCOD9500158
Probable space group: C M M A
;
_chemical_formula_sum "Si O2"
_cell_formula_units_Z 104
_cell_length_a 18.174104
_cell_length_b 32.747240
_cell_length_c 9.288401
_cell_angle_alpha 90.000000
_cell_angle_beta 90.000000
_cell_angle_gamma 90.000000
_cell_volume 5528.008068
_symmetry_space_group_name_H-M "C M M A"
_symmetry_group_IT_number 67
_symmetry_cell_setting 'orthorhombic'
loop_
_space_group_symop_operation_xyz
x,y,z
-x,1/2-y,z
x,-y,-z
-x,1/2+y,-z
-x,-y,-z
x,1/2+y,-z
-x,y,z
x,1/2-y,z
1/2+x,1/2+y,z
1/2-x,-y,z
1/2+x,1/2-y,-z
1/2-x,y,-z
1/2-x,1/2-y,-z
1/2+x,y,-z
1/2-x,1/2+y,z
1/2+x,-y,z
loop_
_atom_site_type_symbol
_atom_site_label
_atom_site_fract_x
_atom_site_fract_y
_atom_site_fract_z
Si Si1 0.612010 0.458401 0.540588
Si Si2 0.330112 0.079853 0.255596
Si Si3 0.916298 0.878329 0.695318
Si Si4 0.250000 0.000000 0.295060
Si Si5 0.838959 0.364358 0.002863
Si Si6 0.677620 0.158043 0.433493
Si Si7 0.586946 0.701490 0.814588
O O1 0.573071 0.500000 0.500000
O O2 0.619813 0.435918 0.386856
O O3 0.581445 0.425917 0.651011
O O4 0.688760 0.475020 0.611832
O O5 0.293092 0.118496 0.340407
O O6 0.286744 0.038436 0.214275
O O7 0.361662 0.100712 0.113148
O O8 0.870285 0.873423 0.840575
O O9 0.874470 0.856478 0.563433
O O10 0.000000 0.863339 0.712086
O O11 0.750000 0.362932 0.000000
O O12 0.874718 0.322672 0.944917
O O13 0.750000 0.178349 0.500000
O O14 0.630031 0.185273 0.325755
O O15 0.500000 0.691258 0.806281
O O16 0.593903 0.750000 0.828555
#
# Coordination Sequence:
#
# PCOD9500158 Si02
#       7
#    16  16  16   8  16  16  16
#     4   9  17  31  53  77 105 144 190 238 283 329
#     4   9  17  30  52  80 110 145 184 230 278 328
#     4  11  22  36  56  83 115 148 184 232 287 337
#     4  10  15  28  55  82 105 138 193 246 281 318
#     4  11  22  37  57  83 115 151 192 232 277 335
#     4  10  19  36  61  88 112 139 185 233 278 335
#     4  10  22  41  62  83 112 150 186 225 284 353
#
# _framework density 18.813286000000002
#
# number of rings (size 3 to 8) (size 9 to 14) (size 15 to 20)
#    0.000    2.000    0.000    7.615    0.000    0.923 
#    0.000    8.846    0.000    8.308    0.000    0.000 
#    0.000    0.000    0.000    0.000    0.000    0.000 
#
# Total GULP energy -289491.686965 kJ/mol
# GULP energy per Si atom -5567.147826 kJ/mol
# Density = 1.877047 g / cm^3
# Si number density = 18.813286 Si / 1000 Ang^3
#
#
#
# Elastic Constant Matrix: (Units=GPa)
#
#
# Indices 1 2 3 4 5 6 
#
# 1 115.5741 44.2142 38.0970 0.0000 0.0000 0.0000
# 2 44.2142 101.5275 55.7685 0.0000 0.0000 0.0000
# 3 38.0970 55.7685 113.1012 0.0000 0.0000 0.0000
# 4 0.0000 0.0000 0.0000 10.4621 0.0000 0.0000
# 5 0.0000 0.0000 0.0000 0.0000 -25.6700 0.0000
# 6 0.0000 0.0000 0.0000 0.0000 0.0000 -49.7129
#
#
#
# Elastic Compliance Matrix: (Units=1/GPa)
#
#
# Indices 1 2 3 4 5 6 
#
# 1 0.010638 -0.003654 -0.001781 0.000000 0.000000 0.000000
# 2 -0.003654 0.014763 -0.006049 0.000000 0.000000 0.000000
# 3 -0.001781 -0.006049 0.012424 0.000000 0.000000 0.000000
# 4 0.000000 0.000000 0.000000 0.095583 0.000000 0.000000
# 5 0.000000 0.000000 0.000000 0.000000 -0.038956 0.000000
# 6 0.000000 0.000000 0.000000 0.000000 0.000000 -0.020116
#
#
# Mechanical properties :
#
#
# Convention : Reuss Voigt Hill
#
# Bulk Modulus (GPa) = 67.30940 67.37357 67.34148
# Shear Modulus (GPa) = 48.89606 -0.17596 24.36005
#
# Velocity S-wave (km/s) = 5.10359 -0.30616 3.60228
# Velocity P-wave (km/s) = 8.40143 5.98034 7.29207
#
# Compressibility (1/GPa) = 0.01485677
#
# Stress axis : x y z
#
# Youngs Moduli (GPa) = 94.00646 67.73501 80.48780
#
# Poissons Ratio (x) = 0.24751 0.14338
# Poissons Ratio (y) = 0.34350 0.48685
# Poissons Ratio (z) = 0.16746 0.40971
#
# Static dielectric constant tensor:
#      x y z
#    x 1.744650 0.000000 0.000000 
#    y 0.000000 1.663580 0.000000 
#    z 0.000000 0.000000 1.652250 
# 
# From -- ./inp_files/11687.got.cif
#   From: 2010.05.17/outbox.cif.g08.bks.cpg/sg67_6_cif.got.tgz:11687.got - 2010.06.03 18:28:57.
