data_PCOD9500841
_publ_section_title
;
Structure prediction by ZEFSAII (Michael W. Deem and Ramdas Pophale) SiO2 
 PCOD9500841
Probable space group: C M M A
;
_chemical_formula_sum "Si O2"
_cell_formula_units_Z 88
_cell_length_a 9.912444
_cell_length_b 24.056113
_cell_length_c 21.409908
_cell_angle_alpha 90.000000
_cell_angle_beta 90.000000
_cell_angle_gamma 90.000000
_cell_volume 5105.296892
_symmetry_space_group_name_H-M "C M M A"
_symmetry_group_IT_number 67
_symmetry_cell_setting 'orthorhombic'
loop_
_space_group_symop_operation_xyz
x,y,z
-x,1/2-y,z
x,-y,-z
-x,1/2+y,-z
-x,-y,-z
x,1/2+y,-z
-x,y,z
x,1/2-y,z
1/2+x,1/2+y,z
1/2-x,-y,z
1/2+x,1/2-y,-z
1/2-x,y,-z
1/2-x,1/2-y,-z
1/2+x,y,-z
1/2-x,1/2+y,z
1/2+x,-y,z
loop_
_atom_site_type_symbol
_atom_site_label
_atom_site_fract_x
_atom_site_fract_y
_atom_site_fract_z
Si Si1 0.839263 0.555296 0.728655
Si Si2 0.338779 0.139635 0.195241
Si Si3 0.659192 0.750000 0.587772
Si Si4 0.650936 0.552078 0.415270
Si Si5 0.157728 0.815844 0.057925
Si Si6 0.250000 0.149369 0.500000
Si Si7 0.162087 0.750000 0.272705
O O1 0.750000 0.500000 0.732305
O O2 0.764522 0.595768 0.776415
O O3 0.825568 0.573083 0.655759
O O4 0.000000 0.548176 0.740774
O O5 0.500000 0.126544 0.204825
O O6 0.318704 0.151240 0.121950
O O7 0.306321 0.195729 0.233075
O O8 0.500000 0.750000 0.593650
O O9 0.693204 0.693430 0.550443
O O10 0.720526 0.750000 0.657363
O O11 0.500000 0.528885 0.418349
O O12 0.750000 0.500000 0.427878
O O13 0.661927 0.604811 0.461041
O O14 0.182096 0.750000 0.070144
O O15 0.000000 0.821540 0.041573
O O16 0.250000 0.833016 0.000000
O O17 0.000000 0.750000 0.278123
#
# Coordination Sequence:
#
# PCOD9500841 Si02
#       7
#    16  16   8  16  16   8   8
#     4  10  21  37  55  77 104 137 176 221 272 319
#     4  10  18  32  55  80 108 142 179 218 259 307
#     4  10  21  33  48  72 102 138 177 212 253 314
#     4  10  22  38  56  78 104 132 171 224 275 323
#     4   9  17  30  49  77 112 148 180 215 254 300
#     4  11  21  34  52  74 101 139 176 214 264 319
#     4   9  17  31  51  75 102 135 175 214 256 310
#
# _framework density 17.236999999999998
#
# number of rings (size 3 to 8) (size 9 to 14) (size 15 to 20)
#    0.000    2.182    0.909    2.455    0.000    3.636 
#    0.000    0.455    0.000    3.818    0.000    3.818 
#    0.000    0.000    0.000    0.000    0.000    0.000 
#
# Total GULP energy -245019.721258 kJ/mol
# GULP energy per Si atom -5568.630029 kJ/mol
# Density = 1.719777 g / cm^3
# Si number density = 17.237000 Si / 1000 Ang^3
#
#
#
# Elastic Constant Matrix: (Units=GPa)
#
#
# Indices 1 2 3 4 5 6 
#
# 1 91.3776 43.1247 68.0297 0.0000 0.0000 0.0000
# 2 43.1247 67.9538 48.8039 0.0000 0.0000 0.0000
# 3 68.0297 48.8039 131.4151 0.0000 0.0000 0.0000
# 4 0.0000 0.0000 0.0000 10.5057 0.0000 0.0000
# 5 0.0000 0.0000 0.0000 0.0000 24.4757 0.0000
# 6 0.0000 0.0000 0.0000 0.0000 0.0000 21.3151
#
#
#
# Elastic Compliance Matrix: (Units=1/GPa)
#
#
# Indices 1 2 3 4 5 6 
#
# 1 0.020097 -0.007203 -0.007728 0.000000 0.000000 0.000000
# 2 -0.007203 0.022650 -0.004683 0.000000 0.000000 0.000000
# 3 -0.007728 -0.004683 0.013349 0.000000 0.000000 0.000000
# 4 0.000000 0.000000 0.000000 0.095186 0.000000 0.000000
# 5 0.000000 0.000000 0.000000 0.000000 0.040857 0.000000
# 6 0.000000 0.000000 0.000000 0.000000 0.000000 0.046915
#
#
# Mechanical properties :
#
#
# Convention : Reuss Voigt Hill
#
# Bulk Modulus (GPa) = 59.28567 67.85145 63.56856
# Shear Modulus (GPa) = 17.61146 19.97853 18.79499
#
# Velocity S-wave (km/s) = 3.19991 3.40817 3.30568
# Velocity P-wave (km/s) = 6.93698 7.41194 7.17839
#
# Compressibility (1/GPa) = 0.01686748
#
# Stress axis : x y z
#
# Youngs Moduli (GPa) = 49.75901 44.14940 74.91024
#
# Poissons Ratio (x) = 0.31802 0.57894
# Poissons Ratio (y) = 0.35843 0.35079
# Poissons Ratio (z) = 0.38456 0.20674
#
# Static dielectric constant tensor:
#      x y z
#    x 1.585610 0.000000 0.000000 
#    y 0.000000 1.585390 0.000000 
#    z 0.000000 0.000000 1.606700 
# 
# From -- ./inp_files/40734.got.cif
#   From: 2010.05.17/outbox.cif.g08.bks.cpg/sg67_21_cif.got.tgz:40734.got - 2010.06.03 18:28:57.
