data_PCOD9500036
_publ_section_title
;
Structure prediction by ZEFSAII (Michael W. Deem and Ramdas Pophale) SiO2 
 PCOD9500036
Probable space group: C C C M
;
_chemical_formula_sum "Si O2"
_cell_formula_units_Z 96
_cell_length_a 34.052751
_cell_length_b 19.393556
_cell_length_c 7.538050
_cell_angle_alpha 90.000000
_cell_angle_beta 90.000000
_cell_angle_gamma 90.000000
_cell_volume 4978.157871
_symmetry_space_group_name_H-M "C C C M"
_symmetry_group_IT_number 66
_symmetry_cell_setting 'orthorhombic'
loop_
_space_group_symop_operation_xyz
x,y,z
-x,-y,z
x,-y,1/2-z
-x,y,1/2-z
-x,-y,-z
x,y,-z
-x,y,1/2+z
x,-y,1/2+z
1/2+x,1/2+y,z
1/2-x,1/2-y,z
1/2+x,1/2-y,1/2-z
1/2-x,1/2+y,1/2-z
1/2-x,1/2-y,-z
1/2+x,1/2+y,-z
1/2-x,1/2+y,1/2+z
1/2+x,1/2-y,1/2+z
loop_
_atom_site_type_symbol
_atom_site_label
_atom_site_fract_x
_atom_site_fract_y
_atom_site_fract_z
Si Si1 0.335180 0.848421 0.716510
Si Si2 0.455210 0.214919 0.212284
Si Si3 0.413711 0.078549 0.787975
Si Si4 0.668881 0.420810 0.712870
Si Si5 0.757521 0.579727 0.212655
Si Si6 0.878336 0.790622 0.783403
O O1 0.334348 0.849832 0.500000
O O2 0.369889 0.900543 0.774308
O O3 0.292616 0.872321 0.780094
O O4 0.349240 0.772037 0.766825
O O5 0.500000 0.232180 0.250000
O O6 0.443043 0.138315 0.278333
O O7 0.421775 0.267902 0.276527
O O8 0.451490 0.213361 0.000000
O O9 0.424150 0.000000 0.750000
O O10 0.412820 0.084506 0.000000
O O11 0.658310 0.500000 0.750000
O O12 0.670516 0.414028 0.500000
O O13 0.713345 0.408129 0.780955
O O14 0.638656 0.363339 0.778902
O O15 0.767418 0.500000 0.250000
O O16 0.756015 0.588355 0.000000
O O17 0.879087 0.792184 0.000000
#
# Coordination Sequence:
#
# PCOD9500036 Si02
#       6
#    16  16  16  16  16  16
#     4   8  14  25  41  62  87 115 149 183 209 237
#     4   9  18  32  48  65  85 110 141 177 216 256
#     4   9  17  28  42  61  87 118 148 178 210 244
#     4   9  17  29  46  67  89 113 140 172 212 256
#     4   9  16  25  40  63  89 117 148 179 208 241
#     4   8  15  29  47  65  86 112 141 175 215 254
#
# _framework density 19.284241999999999
#
# number of rings (size 3 to 8) (size 9 to 14) (size 15 to 20)
#    0.000    3.333    0.000    2.500    0.000    1.667 
#    0.000    5.833    0.000    3.500    0.000    8.167 
#    0.000    0.000    0.000    0.000    0.000    0.000 
#
# Total GULP energy -267527.420832 kJ/mol
# GULP energy per Si atom -5573.487934 kJ/mol
# Density = 1.924035 g / cm^3
# Si number density = 19.284242 Si / 1000 Ang^3
#
#
#
# Elastic Constant Matrix: (Units=GPa)
#
#
# Indices 1 2 3 4 5 6 
#
# 1 160.7378 123.6108 6.7553 0.0000 0.0000 0.0000
# 2 123.6108 127.8590 0.5534 0.0000 0.0000 0.0000
# 3 6.7553 0.5534 45.5623 0.0000 0.0000 0.0000
# 4 0.0000 0.0000 0.0000 15.4343 0.0000 0.0000
# 5 0.0000 0.0000 0.0000 0.0000 7.7480 0.0000
# 6 0.0000 0.0000 0.0000 0.0000 0.0000 -22.4076
#
#
#
# Elastic Compliance Matrix: (Units=1/GPa)
#
#
# Indices 1 2 3 4 5 6 
#
# 1 0.024762 -0.023924 -0.003381 0.000000 0.000000 0.000000
# 2 -0.023924 0.030937 0.003171 0.000000 0.000000 0.000000
# 3 -0.003381 0.003171 0.022411 0.000000 0.000000 0.000000
# 4 0.000000 0.000000 0.000000 0.064791 0.000000 0.000000
# 5 0.000000 0.000000 0.000000 0.000000 0.129065 0.000000
# 6 0.000000 0.000000 0.000000 0.000000 0.000000 -0.044628
#
#
# Mechanical properties :
#
#
# Convention : Reuss Voigt Hill
#
# Bulk Modulus (GPa) = 33.50994 66.22201 49.86598
# Shear Modulus (GPa) = 17.50993 13.70425 15.60709
#
# Velocity S-wave (km/s) = 3.01656 2.66868 2.84794
# Velocity P-wave (km/s) = 5.43575 6.62649 6.06044
#
# Compressibility (1/GPa) = 0.02984189
#
# Stress axis : x y z
#
# Youngs Moduli (GPa) = 40.38481 32.32386 44.62157
#
# Poissons Ratio (x) = 0.77333 0.15086
# Poissons Ratio (y) = 0.96618 -0.14151
# Poissons Ratio (z) = 0.13653 -0.10251
#
# Static dielectric constant tensor:
#      x y z
#    x 1.680590 0.000000 0.000000 
#    y 0.000000 1.656170 0.000000 
#    z 0.000000 0.000000 1.764600 
# 
# From -- ./inp_files/7987.got.cif
#   From: 2010.05.17/outbox.cif.g08.bks.cpg/sg66_4_cif.got.tgz:7987.got - 2010.06.03 17:51:23.
