data_PCOD9500117
_publ_section_title
;
Structure prediction by ZEFSAII (Michael W. Deem and Ramdas Pophale) SiO2 
 PCOD9500117
Probable space group: C C C M
;
_chemical_formula_sum "Si O2"
_cell_formula_units_Z 56
_cell_length_a 24.000000
_cell_length_b 15.000000
_cell_length_c 15.000000
_cell_angle_alpha 90.000000
_cell_angle_beta 90.000000
_cell_angle_gamma 90.000000
_cell_volume 5400.000000
_symmetry_space_group_name_H-M "C C C M"
_symmetry_group_IT_number 66
_symmetry_cell_setting 'orthorhombic'
loop_
_space_group_symop_operation_xyz
x,y,z
-x,-y,z
x,-y,1/2-z
-x,y,1/2-z
-x,-y,-z
x,y,-z
-x,y,1/2+z
x,-y,1/2+z
1/2+x,1/2+y,z
1/2-x,1/2-y,z
1/2+x,1/2-y,1/2-z
1/2-x,1/2+y,1/2-z
1/2-x,1/2-y,-z
1/2+x,1/2+y,-z
1/2-x,1/2+y,1/2+z
1/2+x,1/2-y,1/2+z
loop_
_atom_site_type_symbol
_atom_site_label
_atom_site_fract_x
_atom_site_fract_y
_atom_site_fract_z
Si Si1 0.140284 0.466521 0.390455
Si Si2 0.752869 0.647417 0.605517
Si Si3 0.413890 0.352121 0.895668
Si Si4 0.965571 0.350944 0.892439
Si Si5 0.407045 0.848673 0.609256
Si Si6 0.146151 0.970911 0.152326
Si Si7 0.960777 0.858521 0.392113
O O1 0.141068 0.466352 0.500000
O O2 0.195324 0.412823 0.360195
O O3 0.084490 0.413587 0.361256
O O4 0.132906 0.570038 0.362460
O O5 0.763412 0.657313 0.500000
O O6 0.750000 0.750000 0.641429
O O7 0.695328 0.591592 0.614924
O O8 0.395696 0.253958 0.860731
O O9 0.370898 0.433595 0.890050
O O10 0.475784 0.379063 0.861364
O O11 0.424541 0.336086 0.000000
O O12 0.953032 0.246879 0.875022
O O13 0.028941 0.369441 0.862449
O O14 0.967190 0.360746 0.000000
O O15 0.405735 0.849338 0.500000
O O16 0.088790 0.914276 0.151559
O O17 0.163841 0.000000 0.250000
O O18 0.956368 0.874375 0.500000
#
# Coordination Sequence:
#
# PCOD9500117 Si02
#       7
#    16  16  16  16  16  16  16
#     4   9  15  25  46  75 103 132 167 211 260 304
#     4  10  21  38  59  79 100 133 185 240 276 312
#     4   9  18  33  53  77 106 139 172 208 253 313
#     4   8  13  23  45  78 109 132 158 204 260 304
#     4   8  14  25  44  75 110 135 159 196 251 317
#     4  12  24  36  51  75 105 137 172 215 270 326
#     4   9  17  31  53  79 106 137 172 210 256 311
#
# _framework density 10.370369999999999
#
# number of rings (size 3 to 8) (size 9 to 14) (size 15 to 20)
#    0.000    2.714    0.000    4.714    0.000    6.286 
#    0.000    2.143    0.000    3.429    0.000    0.000 
#    0.000    5.714    0.000    0.000    0.000    0.000 
#
# Total GULP energy -312432.190689 kJ/mol
# GULP energy per Si atom -5579.146262 kJ/mol
# Density = 1.034677 g / cm^3
# Si number density = 10.370370 Si / 1000 Ang^3
#
#
#
# Elastic Constant Matrix: (Units=GPa)
#
#
# Indices 1 2 3 4 5 6 
#
# 1 109.2176 97.8076 -6.0089 0.0000 0.0000 0.0000
# 2 97.8076 164.1078 -5.8200 0.0000 0.0000 0.0000
# 3 -6.0089 -5.8200 7.5227 0.0000 0.0000 0.0000
# 4 0.0000 0.0000 0.0000 -5.5375 0.0000 0.0000
# 5 0.0000 0.0000 0.0000 0.0000 13.1265 0.0000
# 6 0.0000 0.0000 0.0000 0.0000 0.0000 34.6779
#
#
#
# Elastic Compliance Matrix: (Units=1/GPa)
#
#
# Indices 1 2 3 4 5 6 
#
# 1 0.019983 -0.011664 0.006938 0.000000 0.000000 0.000000
# 2 -0.011664 0.013073 0.000798 0.000000 0.000000 0.000000
# 3 0.006938 0.000798 0.139090 0.000000 0.000000 0.000000
# 4 0.000000 0.000000 0.000000 -0.180586 0.000000 0.000000
# 5 0.000000 0.000000 0.000000 0.000000 0.076181 0.000000
# 6 0.000000 0.000000 0.000000 0.000000 0.000000 0.028837
#
#
# Mechanical properties :
#
#
# Convention : Reuss Voigt Hill
#
# Bulk Modulus (GPa) = 6.08677 50.31171 28.19924
# Shear Modulus (GPa) = 31.40744 21.44468 26.42606
#
# Velocity S-wave (km/s) = 3.89561 3.21898 3.57335
# Velocity P-wave (km/s) = 4.81408 6.17462 5.53630
#
# Compressibility (1/GPa) = 0.16429085
#
# Stress axis : x y z
#
# Youngs Moduli (GPa) = 50.04268 76.49145 7.18957
#
# Poissons Ratio (x) = 0.89217 -0.04988
# Poissons Ratio (y) = 0.58368 -0.00573
# Poissons Ratio (z) = -0.34720 -0.06102
#
# Static dielectric constant tensor:
#      x y z
#    x 1.737110 0.000000 0.000000 
#    y 0.000000 1.760680 0.000000 
#    z 0.000000 0.000000 1.807800 
# 
# From -- ./inp_files/32475.got.cif
#   From: 2010.05.17/outbox.ucp.g08.bks.cvg/sg66_17_cif.got.tgz:32475.got - 2010.06.11 16:44:13.
