data_PCOD9500516
_publ_section_title
;
Structure prediction by ZEFSAII (Michael W. Deem and Ramdas Pophale) SiO2 
 PCOD9500516
Probable space group: C M M A
;
_chemical_formula_sum "Si O2"
_cell_formula_units_Z 128
_cell_length_a 22.411670
_cell_length_b 24.530361
_cell_length_c 14.042362
_cell_angle_alpha 90.000000
_cell_angle_beta 90.000000
_cell_angle_gamma 90.000000
_cell_volume 7720.018182
_symmetry_space_group_name_H-M "C M M A"
_symmetry_group_IT_number 67
_symmetry_cell_setting 'orthorhombic'
loop_
_space_group_symop_operation_xyz
x,y,z
-x,1/2-y,z
x,-y,-z
-x,1/2+y,-z
-x,-y,-z
x,1/2+y,-z
-x,y,z
x,1/2-y,z
1/2+x,1/2+y,z
1/2-x,-y,z
1/2+x,1/2-y,-z
1/2-x,y,-z
1/2-x,1/2-y,-z
1/2+x,y,-z
1/2-x,1/2+y,z
1/2+x,-y,z
loop_
_atom_site_type_symbol
_atom_site_label
_atom_site_fract_x
_atom_site_fract_y
_atom_site_fract_z
Si Si1 0.754016 0.313152 0.614561
Si Si2 0.071672 0.811805 0.161058
Si Si3 0.569709 0.311677 0.499733
Si Si4 0.377395 0.687507 0.296161
Si Si5 0.071621 0.412910 0.961481
Si Si6 0.130850 0.873704 0.336422
Si Si7 0.428227 0.470981 0.234066
Si Si8 0.428248 0.090332 0.822906
O O1 0.773769 0.250000 0.631341
O O2 0.750000 0.319781 0.500000
O O3 0.689378 0.319003 0.662619
O O4 0.800190 0.356761 0.656952
O O5 0.089760 0.750000 0.143874
O O6 0.086588 0.852310 0.074891
O O7 0.100758 0.835536 0.256067
O O8 0.000000 0.813750 0.173166
O O9 0.500000 0.313991 0.477329
O O10 0.591713 0.250000 0.477000
O O11 0.580415 0.319338 0.611463
O O12 0.603723 0.355552 0.437149
O O13 0.383924 0.750000 0.261584
O O14 0.395354 0.642344 0.220172
O O15 0.088717 0.451754 0.873504
O O16 0.000000 0.418496 0.966124
O O17 0.092475 0.421535 0.068734
O O18 0.110372 0.934055 0.305544
O O19 0.500000 0.459885 0.246197
O O20 0.418723 0.535530 0.238394
O O21 0.500000 0.100297 0.824668
#
# Coordination Sequence:
#
# PCOD9500516 Si02
#       8
#    16  16  16  16  16  16  16  16
#     4  10  19  34  54  73  95 131 176 214 247 288
#     4   9  16  25  41  73 109 131 157 203 255 304
#     4  10  18  28  46  72 100 128 157 196 248 303
#     4  10  21  35  50  72 101 130 170 213 246 293
#     4   8  15  28  48  73 101 133 164 197 242 301
#     4  11  18  29  50  73  99 131 166 206 252 294
#     4   9  18  32  51  78 105 129 165 208 249 300
#     4  10  19  33  53  74 101 136 168 201 249 302
#
# _framework density 16.580272999999998
#
# number of rings (size 3 to 8) (size 9 to 14) (size 15 to 20)
#    0.000    2.375    1.250    3.750    0.000    3.750 
#    0.000    2.500    0.000    6.000    0.000   11.375 
#    0.000    0.000    0.000    0.000    0.000    0.000 
#
# Total GULP energy -356614.168320 kJ/mol
# GULP energy per Si atom -5572.096380 kJ/mol
# Density = 1.654254 g / cm^3
# Si number density = 16.580273 Si / 1000 Ang^3
#
#
#
# Elastic Constant Matrix: (Units=GPa)
#
#
# Indices 1 2 3 4 5 6 
#
# 1 33.8153 21.6807 2.4227 0.0000 0.0000 0.0000
# 2 21.6807 86.1581 23.8190 0.0000 0.0000 0.0000
# 3 2.4227 23.8190 37.2266 0.0000 0.0000 0.0000
# 4 0.0000 0.0000 0.0000 16.3086 0.0000 0.0000
# 5 0.0000 0.0000 0.0000 0.0000 2.5677 0.0000
# 6 0.0000 0.0000 0.0000 0.0000 0.0000 18.6910
#
#
#
# Elastic Compliance Matrix: (Units=1/GPa)
#
#
# Indices 1 2 3 4 5 6 
#
# 1 0.035787 -0.010158 0.004171 0.000000 0.000000 0.000000
# 2 -0.010158 0.016984 -0.010206 0.000000 0.000000 0.000000
# 3 0.004171 -0.010206 0.033121 0.000000 0.000000 0.000000
# 4 0.000000 0.000000 0.000000 0.061317 0.000000 0.000000
# 5 0.000000 0.000000 0.000000 0.000000 0.389455 0.000000
# 6 0.000000 0.000000 0.000000 0.000000 0.000000 0.053502
#
#
# Mechanical properties :
#
#
# Convention : Reuss Voigt Hill
#
# Bulk Modulus (GPa) = 18.68990 28.11607 23.40299
# Shear Modulus (GPa) = 7.80776 14.79863 11.30320
#
# Velocity S-wave (km/s) = 2.17239 2.99079 2.61382
# Velocity P-wave (km/s) = 4.19395 5.37781 4.82234
#
# Compressibility (1/GPa) = 0.05350484
#
# Stress axis : x y z
#
# Youngs Moduli (GPa) = 27.94342 58.87772 30.19202
#
# Poissons Ratio (x) = 0.59810 -0.12592
# Poissons Ratio (y) = 0.28386 0.30814
# Poissons Ratio (z) = -0.11654 0.60091
#
# Static dielectric constant tensor:
#      x y z
#    x 1.555480 0.000000 0.000000 
#    y 0.000000 1.577690 0.000000 
#    z 0.000000 0.000000 1.557840 
# 
# From -- ./inp_files/22441.got.cif
#   From: 2010.05.17/outbox.cif.g08.bks.cpg/sg67_12_cif.got.tgz:22441.got - 2010.06.03 18:28:57.
