data_PCOD9500752
_publ_section_title
;
Structure prediction by ZEFSAII (Michael W. Deem and Ramdas Pophale) SiO2 
 PCOD9500752
Probable space group: C M M A
;
_chemical_formula_sum "Si O2"
_cell_formula_units_Z 80
_cell_length_a 24.194547
_cell_length_b 8.590022
_cell_length_c 20.956412
_cell_angle_alpha 90.000000
_cell_angle_beta 90.000000
_cell_angle_gamma 90.000000
_cell_volume 4355.406543
_symmetry_space_group_name_H-M "C M M A"
_symmetry_group_IT_number 67
_symmetry_cell_setting 'orthorhombic'
loop_
_space_group_symop_operation_xyz
x,y,z
-x,1/2-y,z
x,-y,-z
-x,1/2+y,-z
-x,-y,-z
x,1/2+y,-z
-x,y,z
x,1/2-y,z
1/2+x,1/2+y,z
1/2-x,-y,z
1/2+x,1/2-y,-z
1/2-x,y,-z
1/2-x,1/2-y,-z
1/2+x,y,-z
1/2-x,1/2+y,z
1/2+x,-y,z
loop_
_atom_site_type_symbol
_atom_site_label
_atom_site_fract_x
_atom_site_fract_y
_atom_site_fract_z
Si Si1 0.063578 0.935491 0.069411
Si Si2 0.622358 0.562086 0.566730
Si Si3 0.000000 0.069865 0.271767
Si Si4 0.812042 0.062091 0.310279
Si Si5 0.500000 0.568226 0.593157
Si Si6 0.612749 0.433625 0.806288
O O1 0.062240 0.750000 0.066771
O O2 0.000000 0.990947 0.082672
O O3 0.104299 0.987027 0.125632
O O4 0.079015 0.000000 0.000000
O O5 0.646383 0.500000 0.500000
O O6 0.622864 0.750000 0.567507
O O7 0.653996 0.500709 0.628928
O O8 0.558634 0.502527 0.570346
O O9 0.945471 0.046985 0.230290
O O10 0.000000 0.250000 0.295142
O O11 0.000000 0.955204 0.331045
O O12 0.813260 0.250000 0.312100
O O13 0.841185 0.010808 0.243960
O O14 0.750000 0.000000 0.313336
O O15 0.500000 0.750000 0.576230
O O16 0.621423 0.250000 0.816926
#
# Coordination Sequence:
#
# PCOD9500752 Si02
#       6
#    16  16   8  16   8  16
#     4  10  20  32  51  82 120 157 189 224 270 328
#     4  11  23  39  59  85 116 150 187 231 283 341
#     4  10  18  31  54  83 113 147 183 227 280 341
#     4  11  24  42  62  84 110 146 192 241 288 336
#     4  10  21  35  55  85 119 149 182 227 278 339
#     4  10  20  35  57  83 114 149 185 228 280 334
#
# _framework density 18.367975000000001
#
# number of rings (size 3 to 8) (size 9 to 14) (size 15 to 20)
#    0.000    1.600    3.000    2.100    0.000    4.400 
#    0.000    2.000    0.000    0.600    0.000    4.200 
#    0.000    0.000    0.000    0.000    0.000    0.000 
#
# Total GULP energy -223299.649659 kJ/mol
# GULP energy per Si atom -5582.491241 kJ/mol
# Density = 1.832617 g / cm^3
# Si number density = 18.367975 Si / 1000 Ang^3
#
#
#
# Elastic Constant Matrix: (Units=GPa)
#
#
# Indices 1 2 3 4 5 6 
#
# 1 109.5807 29.3196 64.2340 0.0000 0.0000 0.0000
# 2 29.3196 41.1528 47.9316 0.0000 0.0000 0.0000
# 3 64.2340 47.9316 167.6622 0.0000 0.0000 0.0000
# 4 0.0000 0.0000 0.0000 34.2112 0.0000 0.0000
# 5 0.0000 0.0000 0.0000 0.0000 23.3166 0.0000
# 6 0.0000 0.0000 0.0000 0.0000 0.0000 14.7545
#
#
#
# Elastic Compliance Matrix: (Units=1/GPa)
#
#
# Indices 1 2 3 4 5 6 
#
# 1 0.012407 -0.004952 -0.003338 0.000000 0.000000 0.000000
# 2 -0.004952 0.038406 -0.009082 0.000000 0.000000 0.000000
# 3 -0.003338 -0.009082 0.009840 0.000000 0.000000 0.000000
# 4 0.000000 0.000000 0.000000 0.029230 0.000000 0.000000
# 5 0.000000 0.000000 0.000000 0.000000 0.042888 0.000000
# 6 0.000000 0.000000 0.000000 0.000000 0.000000 0.067776
#
#
# Mechanical properties :
#
#
# Convention : Reuss Voigt Hill
#
# Bulk Modulus (GPa) = 38.59715 66.81845 52.70780
# Shear Modulus (GPa) = 20.49788 26.25051 23.37419
#
# Velocity S-wave (km/s) = 3.34422 3.78451 3.57115
# Velocity P-wave (km/s) = 5.99755 7.45341 6.76476
#
# Compressibility (1/GPa) = 0.02590865
#
# Stress axis : x y z
#
# Youngs Moduli (GPa) = 80.59868 26.03737 101.63029
#
# Poissons Ratio (x) = 0.12894 0.33921
# Poissons Ratio (y) = 0.39913 0.92305
# Poissons Ratio (z) = 0.26901 0.23648
#
# Static dielectric constant tensor:
#      x y z
#    x 1.631470 0.000000 0.000000 
#    y 0.000000 1.633180 0.000000 
#    z 0.000000 0.000000 1.623350 
# 
# From -- ./inp_files/35797.got.cif
#   From: 2010.05.17/outbox.cif.g08.bks.cpg/sg67_18_cif.got.tgz:35797.got - 2010.06.03 18:28:57.
