data_PCOD9500480
_publ_section_title
;
Structure prediction by ZEFSAII (Michael W. Deem and Ramdas Pophale) SiO2 
 PCOD9500480
Probable space group: C M M A
;
_chemical_formula_sum "Si O2"
_cell_formula_units_Z 72
_cell_length_a 26.653561
_cell_length_b 7.798312
_cell_length_c 20.706372
_cell_angle_alpha 90.000000
_cell_angle_beta 90.000000
_cell_angle_gamma 90.000000
_cell_volume 4303.877079
_symmetry_space_group_name_H-M "C M M A"
_symmetry_group_IT_number 67
_symmetry_cell_setting 'orthorhombic'
loop_
_space_group_symop_operation_xyz
x,y,z
-x,1/2-y,z
x,-y,-z
-x,1/2+y,-z
-x,-y,-z
x,1/2+y,-z
-x,y,z
x,1/2-y,z
1/2+x,1/2+y,z
1/2-x,-y,z
1/2+x,1/2-y,-z
1/2-x,y,-z
1/2-x,1/2-y,-z
1/2+x,y,-z
1/2-x,1/2+y,z
1/2+x,-y,z
loop_
_atom_site_type_symbol
_atom_site_label
_atom_site_fract_x
_atom_site_fract_y
_atom_site_fract_z
Si Si1 0.941121 0.958997 0.790260
Si Si2 0.500000 0.955843 0.424781
Si Si3 0.442148 0.544334 0.068995
Si Si4 0.806937 0.546958 0.574848
Si Si5 0.901831 0.960769 0.653896
O O1 0.940389 0.750000 0.789558
O O2 0.922178 0.014822 0.861233
O O3 0.910814 0.016679 0.727588
O O4 0.000000 0.007054 0.783678
O O5 0.500000 0.750000 0.419276
O O6 0.550251 0.016090 0.388638
O O7 0.500000 0.000000 0.500000
O O8 0.500000 0.480282 0.066973
O O9 0.443860 0.750000 0.071489
O O10 0.418169 0.500000 0.000000
O O11 0.815576 0.500000 0.500000
O O12 0.810107 0.750000 0.578385
O O13 0.750000 0.500000 0.592278
O O14 0.850645 0.477119 0.620816
O O15 0.901539 0.750000 0.653869
#
# Coordination Sequence:
#
# PCOD9500480 Si02
#       5
#    16   8  16  16  16
#     4   8  12  21  37  57  79 103 133 164 192 227
#     4  10  18  28  42  60  81 104 130 164 199 238
#     4   8  13  20  33  52  74 102 132 159 185 219
#     4  10  19  31  46  62  79 103 134 170 208 243
#     4   9  16  26  42  62  81 103 134 168 200 235
#
# _framework density 16.729102999999999
#
# number of rings (size 3 to 8) (size 9 to 14) (size 15 to 20)
#    0.000    3.111    1.111    3.333    0.000    0.000 
#    0.000    1.111    0.000    4.000    0.000    0.000 
#    0.000    0.889    0.000   11.111    0.000    0.444 
#
# Total GULP energy -200410.192011 kJ/mol
# GULP energy per Si atom -5566.949778 kJ/mol
# Density = 1.669103 g / cm^3
# Si number density = 16.729103 Si / 1000 Ang^3
#
#
#
# Elastic Constant Matrix: (Units=GPa)
#
#
# Indices 1 2 3 4 5 6 
#
# 1 95.8662 7.9500 89.8339 0.0000 0.0000 0.0000
# 2 7.9500 19.6586 6.9640 0.0000 0.0000 0.0000
# 3 89.8339 6.9640 195.7332 0.0000 0.0000 0.0000
# 4 0.0000 0.0000 0.0000 15.7793 0.0000 0.0000
# 5 0.0000 0.0000 0.0000 0.0000 16.0755 0.0000
# 6 0.0000 0.0000 0.0000 0.0000 0.0000 2.8803
#
#
#
# Elastic Compliance Matrix: (Units=1/GPa)
#
#
# Indices 1 2 3 4 5 6 
#
# 1 0.018701 -0.004580 -0.008420 0.000000 0.000000 0.000000
# 2 -0.004580 0.052639 0.000229 0.000000 0.000000 0.000000
# 3 -0.008420 0.000229 0.008965 0.000000 0.000000 0.000000
# 4 0.000000 0.000000 0.000000 0.063374 0.000000 0.000000
# 5 0.000000 0.000000 0.000000 0.000000 0.062207 0.000000
# 6 0.000000 0.000000 0.000000 0.000000 0.000000 0.347183
#
#
# Mechanical properties :
#
#
# Convention : Reuss Voigt Hill
#
# Bulk Modulus (GPa) = 18.26018 57.86152 38.06085
# Shear Modulus (GPa) = 8.37708 20.71435 14.54571
#
# Velocity S-wave (km/s) = 2.24017 3.52266 2.95190
# Velocity P-wave (km/s) = 4.19882 7.15597 5.86677
#
# Compressibility (1/GPa) = 0.05476396
#
# Stress axis : x y z
#
# Youngs Moduli (GPa) = 53.47176 18.99718 111.53967
#
# Poissons Ratio (x) = 0.08701 0.93920
# Poissons Ratio (y) = 0.24491 -0.02557
# Poissons Ratio (z) = 0.45025 -0.00435
#
# Static dielectric constant tensor:
#      x y z
#    x 1.553480 0.000000 0.000000 
#    y 0.000000 1.610250 0.000000 
#    z 0.000000 0.000000 1.619170 
# 
# From -- ./inp_files/36831.got.cif
#   From: 2010.05.17/outbox.cif.g08.bks.cpg/sg67_19_cif.got.tgz:36831.got - 2010.06.03 18:28:57.
