data_PCOD9500326
_publ_section_title
;
Structure prediction by ZEFSAII (Michael W. Deem and Ramdas Pophale) SiO2 
 PCOD9500326
Probable space group: C M M A
;
_chemical_formula_sum "Si O2"
_cell_formula_units_Z 80
_cell_length_a 8.455981
_cell_length_b 18.726751
_cell_length_c 26.993156
_cell_angle_alpha 90.000000
_cell_angle_beta 90.000000
_cell_angle_gamma 90.000000
_cell_volume 4274.448599
_symmetry_space_group_name_H-M "C M M A"
_symmetry_group_IT_number 67
_symmetry_cell_setting 'orthorhombic'
loop_
_space_group_symop_operation_xyz
x,y,z
-x,1/2-y,z
x,-y,-z
-x,1/2+y,-z
-x,-y,-z
x,1/2+y,-z
-x,y,z
x,1/2-y,z
1/2+x,1/2+y,z
1/2-x,-y,z
1/2+x,1/2-y,-z
1/2-x,y,-z
1/2-x,1/2-y,-z
1/2+x,y,-z
1/2-x,1/2+y,z
1/2+x,-y,z
loop_
_atom_site_type_symbol
_atom_site_label
_atom_site_fract_x
_atom_site_fract_y
_atom_site_fract_z
Si Si1 0.188024 0.918050 0.551447
Si Si2 0.690798 0.167370 0.053680
Si Si3 0.810215 0.081375 0.655912
Si Si4 0.806923 0.167950 0.753011
Si Si5 0.691434 0.080645 0.150005
O O1 0.250000 0.885212 0.500000
O O2 0.249102 0.887929 0.603543
O O3 0.000000 0.919035 0.550845
O O4 0.250000 0.000000 0.551825
O O5 0.500000 0.166863 0.053324
O O6 0.741877 0.250000 0.060381
O O7 0.744953 0.119407 0.099548
O O8 0.750000 0.142710 0.000000
O O9 0.757787 0.127523 0.703013
O O10 0.000000 0.079585 0.654303
O O11 0.750000 0.000000 0.661284
O O12 0.754690 0.250000 0.754140
O O13 0.755975 0.125109 0.801827
O O14 0.000000 0.168249 0.753213
O O15 0.500000 0.080755 0.149956
O O16 0.750000 0.000000 0.152491
#
# Coordination Sequence:
#
# PCOD9500326 Si02
#       5
#    16  16  16  16  16
#     4  10  17  27  44  68  99 130 163 201 242 289
#     4   9  18  33  53  75 100 133 171 208 246 291
#     4  10  18  29  48  73 100 128 160 200 245 292
#     4   9  18  33  53  74  96 127 167 206 244 292
#     4  10  20  34  53  76 102 131 165 206 250 296
#
# _framework density 18.715862999999999
#
# number of rings (size 3 to 8) (size 9 to 14) (size 15 to 20)
#    0.000    2.400    0.000    5.400    0.000    3.600 
#    0.000    3.000    0.000    7.200    0.000    0.000 
#    0.000    0.000    0.000    0.000    0.000    0.000 
#
# Total GULP energy -223158.442549 kJ/mol
# GULP energy per Si atom -5578.961064 kJ/mol
# Density = 1.867327 g / cm^3
# Si number density = 18.715863 Si / 1000 Ang^3
#
#
#
# Elastic Constant Matrix: (Units=GPa)
#
#
# Indices 1 2 3 4 5 6 
#
# 1 49.7104 17.7291 37.8886 0.0000 0.0000 0.0000
# 2 17.7291 104.9350 105.8456 0.0000 0.0000 0.0000
# 3 37.8886 105.8456 238.6212 0.0000 0.0000 0.0000
# 4 0.0000 0.0000 0.0000 -15.6259 0.0000 0.0000
# 5 0.0000 0.0000 0.0000 0.0000 34.5616 0.0000
# 6 0.0000 0.0000 0.0000 0.0000 0.0000 17.4107
#
#
#
# Elastic Compliance Matrix: (Units=1/GPa)
#
#
# Indices 1 2 3 4 5 6 
#
# 1 0.022894 -0.000364 -0.003474 0.000000 0.000000 0.000000
# 2 -0.000364 0.017252 -0.007594 0.000000 0.000000 0.000000
# 3 -0.003474 -0.007594 0.008111 0.000000 0.000000 0.000000
# 4 0.000000 0.000000 0.000000 -0.063996 0.000000 0.000000
# 5 0.000000 0.000000 0.000000 0.000000 0.028934 0.000000
# 6 0.000000 0.000000 0.000000 0.000000 0.000000 0.057436
#
#
# Mechanical properties :
#
#
# Convention : Reuss Voigt Hill
#
# Bulk Modulus (GPa) = 39.38271 79.57700 59.47986
# Shear Modulus (GPa) = 49.03952 22.72285 35.88118
#
# Velocity S-wave (km/s) = 5.12435 3.48817 4.38328
# Velocity P-wave (km/s) = 7.49000 7.67032 7.58070
#
# Compressibility (1/GPa) = 0.02539185
#
# Stress axis : x y z
#
# Youngs Moduli (GPa) = 43.67974 57.96542 123.28974
#
# Poissons Ratio (x) = 0.02112 0.42825
# Poissons Ratio (y) = 0.01591 0.93632
# Poissons Ratio (z) = 0.15172 0.44022
#
# Static dielectric constant tensor:
#      x y z
#    x 1.647200 0.000000 0.000000 
#    y 0.000000 1.611530 0.000000 
#    z 0.000000 0.000000 1.672680 
# 
# From -- ./inp_files/43217.got.cif
#   From: 2010.05.17/outbox.cif.g08.bks.cpg/sg67_22_cif.got.tgz:43217.got - 2010.06.03 18:28:57.
