data_PCOD9500385
_publ_section_title
;
Structure prediction by ZEFSAII (Michael W. Deem and Ramdas Pophale) SiO2 
 PCOD9500385
Probable space group: C M M A
;
_chemical_formula_sum "Si O2"
_cell_formula_units_Z 104
_cell_length_a 27.792922
_cell_length_b 21.776240
_cell_length_c 9.790484
_cell_angle_alpha 90.000000
_cell_angle_beta 90.000000
_cell_angle_gamma 90.000000
_cell_volume 5925.449005
_symmetry_space_group_name_H-M "C M M A"
_symmetry_group_IT_number 67
_symmetry_cell_setting 'orthorhombic'
loop_
_space_group_symop_operation_xyz
x,y,z
-x,1/2-y,z
x,-y,-z
-x,1/2+y,-z
-x,-y,-z
x,1/2+y,-z
-x,y,z
x,1/2-y,z
1/2+x,1/2+y,z
1/2-x,-y,z
1/2+x,1/2-y,-z
1/2-x,y,-z
1/2-x,1/2-y,-z
1/2+x,y,-z
1/2-x,1/2+y,z
1/2+x,-y,z
loop_
_atom_site_type_symbol
_atom_site_label
_atom_site_fract_x
_atom_site_fract_y
_atom_site_fract_z
Si Si1 0.699100 0.817479 0.381933
Si Si2 0.847608 0.177649 0.961273
Si Si3 0.146656 0.141782 0.647245
Si Si4 0.944576 0.675526 0.513339
Si Si5 0.899891 0.320632 0.211818
Si Si6 0.265293 0.566592 0.698008
Si Si7 0.250000 0.605580 0.000000
O O1 0.721639 0.750000 0.358058
O O2 0.677096 0.820364 0.534295
O O3 0.652671 0.821686 0.283821
O O4 0.733183 0.875765 0.355056
O O5 0.843985 0.250000 0.986603
O O6 0.855083 0.167862 0.800323
O O7 0.889934 0.152971 0.061256
O O8 0.797661 0.146988 0.005159
O O9 0.093463 0.141626 0.584017
O O10 0.179162 0.080670 0.662287
O O11 0.934857 0.750000 0.506573
O O12 0.934482 0.654448 0.669757
O O13 0.000000 0.666087 0.477000
O O14 0.915597 0.250000 0.193061
O O15 0.250000 0.500000 0.648092
O O16 0.256723 0.568701 0.860701
#
# Coordination Sequence:
#
# PCOD9500385 Si02
#       7
#    16  16  16  16  16  16   8
#     4  10  19  33  51  74 104 140 179 218 264 326
#     4  10  17  28  47  75 108 138 178 224 270 323
#     4  10  21  32  49  76 110 146 180 222 275 329
#     4   9  17  32  52  75 106 145 185 230 287 336
#     4   8  15  28  47  70  98 131 173 218 260 317
#     4  11  23  36  51  75 111 150 187 225 272 330
#     4  10  20  32  48  70 105 146 183 216 271 334
#
# _framework density 17.551411999999999
#
# number of rings (size 3 to 8) (size 9 to 14) (size 15 to 20)
#    0.000    2.308    1.538    3.231    0.000    5.538 
#    0.000    0.769    0.000    2.769    0.000    8.615 
#    0.000    2.769    0.000    0.154    0.000    0.615 
#
# Total GULP energy -289503.280719 kJ/mol
# GULP energy per Si atom -5567.370783 kJ/mol
# Density = 1.751146 g / cm^3
# Si number density = 17.551412 Si / 1000 Ang^3
#
#
#
# Elastic Constant Matrix: (Units=GPa)
#
#
# Indices 1 2 3 4 5 6 
#
# 1 100.6159 41.3633 33.8673 0.0000 0.0000 0.0000
# 2 41.3633 81.7724 23.7195 0.0000 0.0000 0.0000
# 3 33.8673 23.7195 117.5140 0.0000 0.0000 0.0000
# 4 0.0000 0.0000 0.0000 -42.5664 0.0000 0.0000
# 5 0.0000 0.0000 0.0000 0.0000 20.1811 0.0000
# 6 0.0000 0.0000 0.0000 0.0000 0.0000 12.5996
#
#
#
# Elastic Compliance Matrix: (Units=1/GPa)
#
#
# Indices 1 2 3 4 5 6 
#
# 1 0.013268 -0.005951 -0.002623 0.000000 0.000000 0.000000
# 2 -0.005951 0.015658 -0.001446 0.000000 0.000000 0.000000
# 3 -0.002623 -0.001446 0.009557 0.000000 0.000000 0.000000
# 4 0.000000 0.000000 0.000000 -0.023493 0.000000 0.000000
# 5 0.000000 0.000000 0.000000 0.000000 0.049551 0.000000
# 6 0.000000 0.000000 0.000000 0.000000 0.000000 0.079368
#
#
# Mechanical properties :
#
#
# Convention : Reuss Voigt Hill
#
# Bulk Modulus (GPa) = 54.21296 55.31140 54.76218
# Shear Modulus (GPa) = 29.39510 11.43967 20.41739
#
# Velocity S-wave (km/s) = 4.09687 2.55577 3.41440
# Velocity P-wave (km/s) = 7.30303 6.34757 6.84200
#
# Compressibility (1/GPa) = 0.01844577
#
# Stress axis : x y z
#
# Youngs Moduli (GPa) = 75.37000 63.86343 104.63250
#
# Poissons Ratio (x) = 0.38003 0.27442
# Poissons Ratio (y) = 0.44850 0.15126
# Poissons Ratio (z) = 0.19767 0.09232
#
# Static dielectric constant tensor:
#      x y z
#    x 1.607310 0.000000 0.000000 
#    y 0.000000 1.601920 0.000000 
#    z 0.000000 0.000000 1.680830 
# 
# From -- ./inp_files/14761.got.cif
#   From: 2010.05.17/outbox.cif.g08.bks.cpg/sg67_8_cif.got.tgz:14761.got - 2010.06.03 18:28:57.
