data_PCOD9500742
_publ_section_title
;
Structure prediction by ZEFSAII (Michael W. Deem and Ramdas Pophale) SiO2 
 PCOD9500742
Probable space group: C M M A
;
_chemical_formula_sum "Si O2"
_cell_formula_units_Z 96
_cell_length_a 18.521711
_cell_length_b 28.328689
_cell_length_c 9.619609
_cell_angle_alpha 90.000000
_cell_angle_beta 90.000000
_cell_angle_gamma 90.000000
_cell_volume 5047.368350
_symmetry_space_group_name_H-M "C M M A"
_symmetry_group_IT_number 67
_symmetry_cell_setting 'orthorhombic'
loop_
_space_group_symop_operation_xyz
x,y,z
-x,1/2-y,z
x,-y,-z
-x,1/2+y,-z
-x,-y,-z
x,1/2+y,-z
-x,y,z
x,1/2-y,z
1/2+x,1/2+y,z
1/2-x,-y,z
1/2+x,1/2-y,-z
1/2-x,y,-z
1/2-x,1/2-y,-z
1/2+x,y,-z
1/2-x,1/2+y,z
1/2+x,-y,z
loop_
_atom_site_type_symbol
_atom_site_label
_atom_site_fract_x
_atom_site_fract_y
_atom_site_fract_z
Si Si1 0.286442 0.803578 0.206710
Si Si2 0.856720 0.138060 0.765438
Si Si3 0.583407 0.061326 0.632811
Si Si4 0.328641 0.855094 0.456771
Si Si5 0.079030 0.694666 0.994779
Si Si6 0.415617 0.459264 0.300375
O O1 0.260793 0.750000 0.180744
O O2 0.221413 0.840821 0.193126
O O3 0.313699 0.809284 0.365123
O O4 0.353757 0.813602 0.107084
O O5 0.868256 0.152252 0.603289
O O6 0.867934 0.081626 0.768281
O O7 0.911369 0.162807 0.869843
O O8 0.500000 0.070358 0.669106
O O9 0.631733 0.107519 0.642073
O O10 0.585650 0.050183 0.466938
O O11 0.607197 0.013952 0.712949
O O12 0.250000 0.875120 0.500000
O O13 0.082173 0.750000 0.033364
O O14 0.000000 0.686046 0.930077
O O15 0.500000 0.454948 0.257790
#
# Coordination Sequence:
#
# PCOD9500742 Si02
#       6
#    16  16  16  16  16  16
#     4  10  21  36  51  71 105 144 174 208 265 325
#     4  10  18  31  53  79 102 130 172 217 258 304
#     4   8  14  27  47  71 103 139 168 198 250 313
#     4   9  19  32  50  79 107 136 174 217 261 309
#     4  10  21  36  53  73  98 134 181 226 267 316
#     4   8  14  26  46  74 105 132 160 203 253 298
#
# _framework density 19.019812999999999
#
# number of rings (size 3 to 8) (size 9 to 14) (size 15 to 20)
#    0.000    2.833    0.000    2.500    0.000    6.333 
#    0.000   14.167    0.000    3.000    0.000    8.167 
#    0.000    0.000    0.000    0.000    0.000    0.000 
#
# Total GULP energy -267256.264031 kJ/mol
# GULP energy per Si atom -5567.838834 kJ/mol
# Density = 1.897652 g / cm^3
# Si number density = 19.019813 Si / 1000 Ang^3
#
#
#
# Elastic Constant Matrix: (Units=GPa)
#
#
# Indices 1 2 3 4 5 6 
#
# 1 81.8182 69.6168 25.4422 0.0000 0.0000 0.0000
# 2 69.6168 109.4841 31.0882 0.0000 0.0000 0.0000
# 3 25.4422 31.0882 39.7048 0.0000 0.0000 0.0000
# 4 0.0000 0.0000 0.0000 23.2234 0.0000 0.0000
# 5 0.0000 0.0000 0.0000 0.0000 20.7870 0.0000
# 6 0.0000 0.0000 0.0000 0.0000 0.0000 25.7965
#
#
#
# Elastic Compliance Matrix: (Units=1/GPa)
#
#
# Indices 1 2 3 4 5 6 
#
# 1 0.027391 -0.015987 -0.005034 0.000000 0.000000 0.000000
# 2 -0.015987 0.021077 -0.006258 0.000000 0.000000 0.000000
# 3 -0.005034 -0.006258 0.033311 0.000000 0.000000 0.000000
# 4 0.000000 0.000000 0.000000 0.043060 0.000000 0.000000
# 5 0.000000 0.000000 0.000000 0.000000 0.048107 0.000000
# 6 0.000000 0.000000 0.000000 0.000000 0.000000 0.038765
#
#
# Mechanical properties :
#
#
# Convention : Reuss Voigt Hill
#
# Bulk Modulus (GPa) = 36.73731 53.70017 45.21874
# Shear Modulus (GPa) = 18.15922 20.95205 19.55564
#
# Velocity S-wave (km/s) = 3.09326 3.32262 3.20999
# Velocity P-wave (km/s) = 5.66700 6.55857 6.12902
#
# Compressibility (1/GPa) = 0.02722029
#
# Stress axis : x y z
#
# Youngs Moduli (GPa) = 36.50877 47.44612 30.01974
#
# Poissons Ratio (x) = 0.75854 0.15111
# Poissons Ratio (y) = 0.58368 0.18787
# Poissons Ratio (z) = 0.18377 0.29692
#
# Static dielectric constant tensor:
#      x y z
#    x 1.687360 0.000000 0.000000 
#    y 0.000000 1.676980 0.000000 
#    z 0.000000 0.000000 1.672770 
# 
# From -- ./inp_files/11450.got.cif
#   From: 2010.05.17/outbox.cif.g08.bks.cpg/sg67_6_cif.got.tgz:11450.got - 2010.06.03 18:28:57.
