data_PCOD9500266
_publ_section_title
;
Structure prediction by ZEFSAII (Michael W. Deem and Ramdas Pophale) SiO2 
 PCOD9500266
Probable space group: C M M A
;
_chemical_formula_sum "Si O2"
_cell_formula_units_Z 96
_cell_length_a 8.650247
_cell_length_b 28.069233
_cell_length_c 24.772605
_cell_angle_alpha 90.000000
_cell_angle_beta 90.000000
_cell_angle_gamma 90.000000
_cell_volume 6014.932139
_symmetry_space_group_name_H-M "C M M A"
_symmetry_group_IT_number 67
_symmetry_cell_setting 'orthorhombic'
loop_
_space_group_symop_operation_xyz
x,y,z
-x,1/2-y,z
x,-y,-z
-x,1/2+y,-z
-x,-y,-z
x,1/2+y,-z
-x,y,z
x,1/2-y,z
1/2+x,1/2+y,z
1/2-x,-y,z
1/2+x,1/2-y,-z
1/2-x,y,-z
1/2-x,1/2-y,-z
1/2+x,y,-z
1/2-x,1/2+y,z
1/2+x,-y,z
loop_
_atom_site_type_symbol
_atom_site_label
_atom_site_fract_x
_atom_site_fract_y
_atom_site_fract_z
Si Si1 0.314565 0.052347 0.611940
Si Si2 0.814120 0.895294 0.721856
Si Si3 0.813562 0.196176 0.667379
Si Si4 0.184891 0.445797 0.944482
Si Si5 0.313674 0.053757 0.832054
Si Si6 0.314969 0.144729 0.442680
O O1 0.500000 0.051901 0.608942
O O2 0.267534 0.070116 0.672196
O O3 0.249328 0.092359 0.571790
O O4 0.250000 0.000000 0.601393
O O5 0.748986 0.843368 0.708293
O O6 0.766759 0.916472 0.779373
O O7 0.000000 0.893034 0.721196
O O8 0.760408 0.250000 0.677485
O O9 0.768093 0.178508 0.607303
O O10 0.000000 0.195513 0.669389
O O11 0.250000 0.500000 0.943804
O O12 0.246298 0.425447 0.887934
O O13 0.000000 0.446926 0.945663
O O14 0.250000 0.423854 0.000000
O O15 0.500000 0.051845 0.835558
O O16 0.250000 0.000000 0.825857
O O17 0.500000 0.143035 0.444641
O O18 0.250000 0.160746 0.500000
#
# Coordination Sequence:
#
# PCOD9500266 Si02
#       6
#    16  16  16  16  16  16
#     4  10  19  32  48  67  91 120 152 183 220 262
#     4   9  19  32  47  68  93 119 149 186 224 267
#     4   9  19  35  53  71  91 115 143 179 225 273
#     4  10  17  26  39  57  84 121 161 196 229 261
#     4  10  18  28  42  64  93 124 158 191 224 262
#     4  10  20  34  50  69  92 116 145 181 220 264
#
# _framework density 15.960279999999999
#
# number of rings (size 3 to 8) (size 9 to 14) (size 15 to 20)
#    0.000    2.333    0.000    5.000    0.000    3.667 
#    0.000    1.667    0.000    0.000    0.000    0.000 
#    0.000    0.667    0.000    2.167    0.000    3.500 
#
# Total GULP energy -267696.723468 kJ/mol
# GULP energy per Si atom -5577.015072 kJ/mol
# Density = 1.592395 g / cm^3
# Si number density = 15.960280 Si / 1000 Ang^3
#
#
#
# Elastic Constant Matrix: (Units=GPa)
#
#
# Indices 1 2 3 4 5 6 
#
# 1 56.6822 14.3315 30.9690 0.0000 0.0000 0.0000
# 2 14.3315 71.9275 27.8781 0.0000 0.0000 0.0000
# 3 30.9690 27.8781 119.6002 0.0000 0.0000 0.0000
# 4 0.0000 0.0000 0.0000 11.4562 0.0000 0.0000
# 5 0.0000 0.0000 0.0000 0.0000 47.4882 0.0000
# 6 0.0000 0.0000 0.0000 0.0000 0.0000 19.7621
#
#
#
# Elastic Compliance Matrix: (Units=1/GPa)
#
#
# Indices 1 2 3 4 5 6 
#
# 1 0.020881 -0.002270 -0.004878 0.000000 0.000000 0.000000
# 2 -0.002270 0.015530 -0.003032 0.000000 0.000000 0.000000
# 3 -0.004878 -0.003032 0.010331 0.000000 0.000000 0.000000
# 4 0.000000 0.000000 0.000000 0.087289 0.000000 0.000000
# 5 0.000000 0.000000 0.000000 0.000000 0.021058 0.000000
# 6 0.000000 0.000000 0.000000 0.000000 0.000000 0.050602
#
#
# Mechanical properties :
#
#
# Convention : Reuss Voigt Hill
#
# Bulk Modulus (GPa) = 37.90384 43.84080 40.87232
# Shear Modulus (GPa) = 21.29059 27.41006 24.35033
#
# Velocity S-wave (km/s) = 3.65632 4.14864 3.91024
# Velocity P-wave (km/s) = 6.45177 7.10469 6.78609
#
# Compressibility (1/GPa) = 0.02638255
#
# Stress axis : x y z
#
# Youngs Moduli (GPa) = 47.88993 64.38967 96.79565
#
# Poissons Ratio (x) = 0.14616 0.47215
# Poissons Ratio (y) = 0.10871 0.29351
# Poissons Ratio (z) = 0.23360 0.19525
#
# Static dielectric constant tensor:
#      x y z
#    x 1.536480 0.000000 0.000000 
#    y 0.000000 1.503400 0.000000 
#    z 0.000000 0.000000 1.567500 
# 
# From -- ./inp_files/40797.got.cif
#   From: 2010.05.17/outbox.cif.g08.bks.cpg/sg67_21_cif.got.tgz:40797.got - 2010.06.03 18:28:57.
