data_PCOD9500982
_publ_section_title
;
Structure prediction by ZEFSAII (Michael W. Deem and Ramdas Pophale) SiO2 
 PCOD9500982
Probable space group: C M M A
;
_chemical_formula_sum "Si O2"
_cell_formula_units_Z 64
_cell_length_a 32.262247
_cell_length_b 10.489414
_cell_length_c 9.773461
_cell_angle_alpha 90.000000
_cell_angle_beta 90.000000
_cell_angle_gamma 90.000000
_cell_volume 3307.457123
_symmetry_space_group_name_H-M "C M M A"
_symmetry_group_IT_number 67
_symmetry_cell_setting 'orthorhombic'
loop_
_space_group_symop_operation_xyz
x,y,z
-x,1/2-y,z
x,-y,-z
-x,1/2+y,-z
-x,-y,-z
x,1/2+y,-z
-x,y,z
x,1/2-y,z
1/2+x,1/2+y,z
1/2-x,-y,z
1/2+x,1/2-y,-z
1/2-x,y,-z
1/2-x,1/2-y,-z
1/2+x,y,-z
1/2-x,1/2+y,z
1/2+x,-y,z
loop_
_atom_site_type_symbol
_atom_site_label
_atom_site_fract_x
_atom_site_fract_y
_atom_site_fract_z
Si Si1 0.413540 0.522136 0.745357
Si Si2 0.419320 0.250000 0.704254
Si Si3 0.152185 0.000000 0.500000
Si Si4 0.546975 0.250000 0.406054
Si Si5 0.704850 0.750000 0.434584
Si Si6 0.142305 0.500000 0.000000
Si Si7 0.329650 0.250000 0.850856
O O1 0.436133 0.385273 0.755450
O O2 0.377745 0.508658 0.630480
O O3 0.443566 0.628655 0.687367
O O4 0.388547 0.552115 0.882669
O O5 0.423714 0.250000 0.540006
O O6 0.372675 0.250000 0.764053
O O7 0.180351 0.875388 0.516225
O O8 0.500000 0.250000 0.456439
O O9 0.750000 0.750000 0.500000
O O10 0.704719 0.750000 0.268166
O O11 0.168228 0.380515 0.060962
#
# Coordination Sequence:
#
# PCOD9500982 Si02
#       7
#    16   8   8   8   8   8   8
#     4  11  20  37  63  90 112 164 214 255 302 368
#     4  10  18  36  58  83 120 151 205 263 292 361
#     4  12  19  42  67  88 126 160 220 260 291 374
#     4  12  23  35  55  92 128 159 205 268 324 365
#     4  12  24  38  63 100 132 157 201 260 317 372
#     4  10  20  36  67  91 122 160 218 260 302 368
#     4  10  19  39  60  98 123 161 217 255 308 380
#
# _framework density 19.350213
#
# number of rings (size 3 to 8) (size 9 to 14) (size 15 to 20)
#    0.000    1.000    7.500    1.875    0.000    2.000 
#    0.000    0.625    0.000   12.000    0.000    0.000 
#    0.000    0.000    0.000    0.000    0.000    0.000 
#
# Total GULP energy -178579.922697 kJ/mol
# GULP energy per Si atom -5580.622584 kJ/mol
# Density = 1.930617 g / cm^3
# Si number density = 19.350213 Si / 1000 Ang^3
#
#
#
# Elastic Constant Matrix: (Units=GPa)
#
#
# Indices 1 2 3 4 5 6 
#
# 1 57.1970 37.4370 27.2820 0.0000 0.0000 0.0000
# 2 37.4370 163.8467 25.1735 0.0000 0.0000 0.0000
# 3 27.2820 25.1735 110.6731 0.0000 0.0000 0.0000
# 4 0.0000 0.0000 0.0000 29.1035 0.0000 0.0000
# 5 0.0000 0.0000 0.0000 0.0000 10.4631 0.0000
# 6 0.0000 0.0000 0.0000 0.0000 0.0000 -13.7914
#
#
#
# Elastic Compliance Matrix: (Units=1/GPa)
#
#
# Indices 1 2 3 4 5 6 
#
# 1 0.022572 -0.004458 -0.004550 0.000000 0.000000 0.000000
# 2 -0.004458 0.007205 -0.000540 0.000000 0.000000 0.000000
# 3 -0.004550 -0.000540 0.010280 0.000000 0.000000 0.000000
# 4 0.000000 0.000000 0.000000 0.034360 0.000000 0.000000
# 5 0.000000 0.000000 0.000000 0.000000 0.095574 0.000000
# 6 0.000000 0.000000 0.000000 0.000000 0.000000 -0.072509
#
#
# Mechanical properties :
#
#
# Convention : Reuss Voigt Hill
#
# Bulk Modulus (GPa) = 47.70914 56.83355 52.27134
# Shear Modulus (GPa) = 40.46460 21.27667 30.87063
#
# Velocity S-wave (km/s) = 4.57789 3.31955 3.99853
# Velocity P-wave (km/s) = 7.25617 6.64284 6.95627
#
# Compressibility (1/GPa) = 0.02096034
#
# Stress axis : x y z
#
# Youngs Moduli (GPa) = 44.30297 138.79504 97.27578
#
# Poissons Ratio (x) = 0.61879 0.44262
# Poissons Ratio (y) = 0.19752 0.05251
# Poissons Ratio (z) = 0.20158 0.07492
#
# Static dielectric constant tensor:
#      x y z
#    x 1.644420 0.000000 0.000000 
#    y 0.000000 1.751600 0.000000 
#    z 0.000000 0.000000 1.684780 
# 
# From -- ./inp_files/14411.got.cif
#   From: 2010.05.17/outbox.cif.g08.bks.cpg/sg67_8_cif.got.tgz:14411.got - 2010.06.03 18:28:57.
