data_PCOD9500850
_publ_section_title
;
Structure prediction by ZEFSAII (Michael W. Deem and Ramdas Pophale) SiO2 
 PCOD9500850
Probable space group: C M M A
;
_chemical_formula_sum "Si O2"
_cell_formula_units_Z 72
_cell_length_a 15.232569
_cell_length_b 8.723563
_cell_length_c 26.204690
_cell_angle_alpha 90.000000
_cell_angle_beta 90.000000
_cell_angle_gamma 90.000000
_cell_volume 3482.138831
_symmetry_space_group_name_H-M "C M M A"
_symmetry_group_IT_number 67
_symmetry_cell_setting 'orthorhombic'
loop_
_space_group_symop_operation_xyz
x,y,z
-x,1/2-y,z
x,-y,-z
-x,1/2+y,-z
-x,-y,-z
x,1/2+y,-z
-x,y,z
x,1/2-y,z
1/2+x,1/2+y,z
1/2-x,-y,z
1/2+x,1/2-y,-z
1/2-x,y,-z
1/2-x,1/2-y,-z
1/2+x,y,-z
1/2-x,1/2+y,z
1/2+x,-y,z
loop_
_atom_site_type_symbol
_atom_site_label
_atom_site_fract_x
_atom_site_fract_y
_atom_site_fract_z
Si Si1 0.847884 0.931854 0.655742
Si Si2 0.849665 0.066502 0.759115
Si Si3 0.396122 0.579194 0.550793
Si Si4 0.848386 0.934621 0.865472
Si Si5 0.000000 0.934220 0.943476
O O1 0.846515 0.750000 0.661838
O O2 0.750000 0.000000 0.653610
O O3 0.890508 0.006527 0.706270
O O4 0.887067 0.980036 0.601685
O O5 0.848274 0.250000 0.759682
O O6 0.750000 0.000000 0.758846
O O7 0.885679 0.001006 0.812132
O O8 0.358894 0.500000 0.500000
O O9 0.500000 0.595859 0.542215
O O10 0.358318 0.750000 0.558712
O O11 0.843736 0.750000 0.861676
O O12 0.913709 0.978537 0.911087
O O13 0.750000 0.000000 0.872907
O O14 0.000000 0.750000 0.946373
O O15 0.000000 0.000000 0.000000
#
# Coordination Sequence:
#
# PCOD9500850 Si02
#       5
#    16  16  16  16   8
#     4  11  21  35  56  82 112 145 183 231 284 339
#     4  10  18  32  55  83 113 148 185 230 283 341
#     4  10  21  38  57  77 105 141 183 230 281 341
#     4  10  20  38  61  88 119 159 200 245 297 355
#     4  10  24  42  62  88 124 160 201 248 295 346
#
# _framework density 20.676946000000001
#
# number of rings (size 3 to 8) (size 9 to 14) (size 15 to 20)
#    0.000    1.778    0.000    8.000    0.000    4.000 
#    2.000    4.444    0.000    0.000    0.000    0.000 
#    0.000    0.000    0.000    0.000    0.000    0.000 
#
# Total GULP energy -201048.486643 kJ/mol
# GULP energy per Si atom -5584.680185 kJ/mol
# Density = 2.062988 g / cm^3
# Si number density = 20.676946 Si / 1000 Ang^3
#
#
#
# Elastic Constant Matrix: (Units=GPa)
#
#
# Indices 1 2 3 4 5 6 
#
# 1 63.4168 27.3044 48.7539 0.0000 0.0000 0.0000
# 2 27.3044 164.7120 77.4108 0.0000 0.0000 0.0000
# 3 48.7539 77.4108 214.6902 0.0000 0.0000 0.0000
# 4 0.0000 0.0000 0.0000 6.9307 0.0000 0.0000
# 5 0.0000 0.0000 0.0000 0.0000 147.8925 0.0000
# 6 0.0000 0.0000 0.0000 0.0000 0.0000 15.6397
#
#
#
# Elastic Compliance Matrix: (Units=1/GPa)
#
#
# Indices 1 2 3 4 5 6 
#
# 1 0.019360 -0.001376 -0.003900 0.000000 0.000000 0.000000
# 2 -0.001376 0.007408 -0.002358 0.000000 0.000000 0.000000
# 3 -0.003900 -0.002358 0.006394 0.000000 0.000000 0.000000
# 4 0.000000 0.000000 0.000000 0.144286 0.000000 0.000000
# 5 0.000000 0.000000 0.000000 0.000000 0.006762 0.000000
# 6 0.000000 0.000000 0.000000 0.000000 0.000000 0.063940
#
#
# Mechanical properties :
#
#
# Convention : Reuss Voigt Hill
#
# Bulk Modulus (GPa) = 55.89226 83.30635 69.59931
# Shear Modulus (GPa) = 18.56097 53.38258 35.97177
#
# Velocity S-wave (km/s) = 2.99936 5.08660 4.17550
# Velocity P-wave (km/s) = 6.25178 8.65303 7.54850
#
# Compressibility (1/GPa) = 0.01789157
#
# Stress axis : x y z
#
# Youngs Moduli (GPa) = 51.65397 134.99314 156.39788
#
# Poissons Ratio (x) = 0.18579 0.60997
# Poissons Ratio (y) = 0.07109 0.36886
# Poissons Ratio (z) = 0.20146 0.31838
#
# Static dielectric constant tensor:
#      x y z
#    x 1.744600 0.000000 0.000000 
#    y 0.000000 1.720160 0.000000 
#    z 0.000000 0.000000 1.769490 
# 
# From -- ./inp_files/40531.got.cif
#   From: 2010.05.17/outbox.cif.g08.bks.cpg/sg67_21_cif.got.tgz:40531.got - 2010.06.03 18:28:57.
