data_PCOD9500892
_publ_section_title
;
Structure prediction by ZEFSAII (Michael W. Deem and Ramdas Pophale) SiO2 
 PCOD9500892
Probable space group: C M M A
;
_chemical_formula_sum "Si O2"
_cell_formula_units_Z 56
_cell_length_a 14.266604
_cell_length_b 5.416658
_cell_length_c 32.312006
_cell_angle_alpha 90.000000
_cell_angle_beta 90.000000
_cell_angle_gamma 90.000000
_cell_volume 2496.985056
_symmetry_space_group_name_H-M "C M M A"
_symmetry_group_IT_number 67
_symmetry_cell_setting 'orthorhombic'
loop_
_space_group_symop_operation_xyz
x,y,z
-x,1/2-y,z
x,-y,-z
-x,1/2+y,-z
-x,-y,-z
x,1/2+y,-z
-x,y,z
x,1/2-y,z
1/2+x,1/2+y,z
1/2-x,-y,z
1/2+x,1/2-y,-z
1/2-x,y,-z
1/2-x,1/2-y,-z
1/2+x,y,-z
1/2-x,1/2+y,z
1/2+x,-y,z
loop_
_atom_site_type_symbol
_atom_site_label
_atom_site_fract_x
_atom_site_fract_y
_atom_site_fract_z
Si Si1 0.151443 0.750000 0.760781
Si Si2 0.113854 0.250000 0.618223
Si Si3 0.385531 0.250000 0.476297
Si Si4 0.310620 0.750000 0.884787
Si Si5 0.387465 0.250000 0.022884
Si Si6 0.363866 0.250000 0.204761
Si Si7 0.886001 0.750000 0.666764
O O1 0.252102 0.750000 0.783969
O O2 0.101985 0.500590 0.774875
O O3 0.161354 0.750000 0.711610
O O4 0.148342 0.250000 0.571016
O O5 0.139111 0.501425 0.641991
O O6 0.000000 0.250000 0.616450
O O7 0.500000 0.250000 0.475233
O O8 0.358206 0.500000 0.500000
O O9 0.250000 0.500000 0.881750
O O10 0.358191 0.750000 0.929452
O O11 0.375975 0.750000 0.844384
O O12 0.500000 0.250000 0.021030
O O13 0.355459 0.500000 0.000000
O O14 0.000000 0.750000 0.672623
#
# Coordination Sequence:
#
# PCOD9500892 Si02
#       7
#     8   8   8   8   8   8   8
#     4  10  18  33  52  70  96 133 163 205 260 307
#     4   9  17  28  40  60  93 128 163 205 246 295
#     4   9  15  23  37  56  80 119 166 202 238 289
#     4  12  21  37  63  88 116 145 192 235 277 330
#     4  10  23  42  60  85 123 158 186 226 281 333
#     4  10  19  35  54  74  99 131 162 214 266 296
#     4  10  19  30  45  67  96 131 166 199 246 309
#
# _framework density 22.427049
#
# number of rings (size 3 to 8) (size 9 to 14) (size 15 to 20)
#    0.000    2.000    2.857    2.571    0.000    5.143 
#    0.000    1.429    0.000    0.000    0.000    0.000 
#    0.000    0.000    0.000  180.000    0.000   80.000 
#
# Total GULP energy -156585.221438 kJ/mol
# GULP energy per Si atom -5592.329337 kJ/mol
# Density = 2.237600 g / cm^3
# Si number density = 22.427049 Si / 1000 Ang^3
#
#
#
# Elastic Constant Matrix: (Units=GPa)
#
#
# Indices 1 2 3 4 5 6 
#
# 1 77.8263 7.8817 4.6018 0.0000 0.0000 0.0000
# 2 7.8817 269.3951 116.5688 0.0000 0.0000 0.0000
# 3 4.6018 116.5688 240.8633 0.0000 0.0000 0.0000
# 4 0.0000 0.0000 0.0000 62.5692 0.0000 0.0000
# 5 0.0000 0.0000 0.0000 0.0000 100.3499 0.0000
# 6 0.0000 0.0000 0.0000 0.0000 0.0000 -26.3863
#
#
#
# Elastic Compliance Matrix: (Units=1/GPa)
#
#
# Indices 1 2 3 4 5 6 
#
# 1 0.012889 -0.000342 -0.000081 0.000000 0.000000 0.000000
# 2 -0.000342 0.004704 -0.002270 0.000000 0.000000 0.000000
# 3 -0.000081 -0.002270 0.005252 0.000000 0.000000 0.000000
# 4 0.000000 0.000000 0.000000 0.015982 0.000000 0.000000
# 5 0.000000 0.000000 0.000000 0.000000 0.009965 0.000000
# 6 0.000000 0.000000 0.000000 0.000000 0.000000 -0.037898
#
#
# Mechanical properties :
#
#
# Convention : Reuss Voigt Hill
#
# Bulk Modulus (GPa) = 57.27761 94.02103 75.64932
# Shear Modulus (GPa) = 226.24889 57.90871 142.07880
#
# Velocity S-wave (km/s) = 10.05491 5.08694 7.96800
# Velocity P-wave (km/s) = 12.66477 8.74738 10.88378
#
# Compressibility (1/GPa) = 0.01745883
#
# Stress axis : x y z
#
# Youngs Moduli (GPa) = 77.58827 212.56890 190.40506
#
# Poissons Ratio (x) = 0.07274 0.01535
# Poissons Ratio (y) = 0.02655 0.43226
# Poissons Ratio (z) = 0.00626 0.48257
#
# Static dielectric constant tensor:
#      x y z
#    x 1.988530 0.000000 0.000000 
#    y 0.000000 1.791990 0.000000 
#    z 0.000000 0.000000 1.757360 
# 
# From -- ./inp_files/44405.got.cif
#   From: 2010.05.17/outbox.cif.g08.bks.cpg/sg67_23_cif.got.tgz:44405.got - 2010.06.03 18:28:57.
