data_PCOD9500476
_publ_section_title
;
Structure prediction by ZEFSAII (Michael W. Deem and Ramdas Pophale) SiO2 
 PCOD9500476
Probable space group: C M M A
;
_chemical_formula_sum "Si O2"
_cell_formula_units_Z 104
_cell_length_a 28.068133
_cell_length_b 8.404234
_cell_length_c 24.814132
_cell_angle_alpha 90.000000
_cell_angle_beta 90.000000
_cell_angle_gamma 90.000000
_cell_volume 5853.434324
_symmetry_space_group_name_H-M "C M M A"
_symmetry_group_IT_number 67
_symmetry_cell_setting 'orthorhombic'
loop_
_space_group_symop_operation_xyz
x,y,z
-x,1/2-y,z
x,-y,-z
-x,1/2+y,-z
-x,-y,-z
x,1/2+y,-z
-x,y,z
x,1/2-y,z
1/2+x,1/2+y,z
1/2-x,-y,z
1/2+x,1/2-y,-z
1/2-x,y,-z
1/2-x,1/2-y,-z
1/2+x,y,-z
1/2-x,1/2+y,z
1/2+x,-y,z
loop_
_atom_site_type_symbol
_atom_site_label
_atom_site_fract_x
_atom_site_fract_y
_atom_site_fract_z
Si Si1 0.198055 0.940474 0.728596
Si Si2 0.645918 0.943555 0.166755
Si Si3 0.447671 0.942152 0.231465
Si Si4 0.894539 0.440801 0.666708
Si Si5 0.102741 0.940482 0.939021
Si Si6 0.000000 0.939927 0.061781
Si Si7 0.554942 0.441993 0.440699
O O1 0.197391 0.750000 0.728862
O O2 0.185073 0.997128 0.789780
O O3 0.250000 0.000000 0.712914
O O4 0.155831 0.996932 0.689217
O O5 0.647834 0.750000 0.166011
O O6 0.595831 0.992595 0.193836
O O7 0.642134 0.995045 0.104626
O O8 0.500000 0.998249 0.214795
O O9 0.447637 0.750000 0.231410
O O10 0.434247 0.001186 0.290867
O O11 0.893159 0.250000 0.667251
O O12 0.910539 0.495618 0.607415
O O13 0.102117 0.750000 0.940801
O O14 0.050487 0.994610 0.917877
O O15 0.109751 0.000000 0.000000
O O16 0.000000 0.750000 0.063843
O O17 0.000000 0.000000 0.000000
O O18 0.568970 0.500000 0.500000
O O19 0.500000 0.494205 0.430929
O O20 0.554904 0.250000 0.440680
#
# Coordination Sequence:
#
# PCOD9500476 Si02
#       7
#    16  16  16  16  16   8  16
#     4  10  20  37  58  79  98 122 160 204 255 310
#     4   8  17  31  49  70  93 124 160 196 241 297
#     4   9  17  29  46  68  95 130 170 206 244 293
#     4  10  19  32  50  74 104 135 167 206 253 297
#     4  10  18  30  47  65  90 126 162 199 239 284
#     4  10  18  28  40  60  88 122 162 198 229 272
#     4   9  18  31  48  73 107 146 182 211 240 279
#
# _framework density 17.767347000000001
#
# number of rings (size 3 to 8) (size 9 to 14) (size 15 to 20)
#    0.000    2.615    0.000    4.385    1.077    2.154 
#    0.000    9.231    0.000    0.923    0.000    6.462 
#    0.000    0.000    0.000    0.000    0.000    0.000 
#
# Total GULP energy -289753.099075 kJ/mol
# GULP energy per Si atom -5572.174982 kJ/mol
# Density = 1.772691 g / cm^3
# Si number density = 17.767347 Si / 1000 Ang^3
#
#
#
# Elastic Constant Matrix: (Units=GPa)
#
#
# Indices 1 2 3 4 5 6 
#
# 1 61.8827 3.9423 24.7102 0.0000 0.0000 0.0000
# 2 3.9423 29.1439 8.0367 0.0000 0.0000 0.0000
# 3 24.7102 8.0367 109.3738 0.0000 0.0000 0.0000
# 4 0.0000 0.0000 0.0000 18.0828 0.0000 0.0000
# 5 0.0000 0.0000 0.0000 0.0000 13.5606 0.0000
# 6 0.0000 0.0000 0.0000 0.0000 0.0000 14.4369
#
#
#
# Elastic Compliance Matrix: (Units=1/GPa)
#
#
# Indices 1 2 3 4 5 6 
#
# 1 0.017812 -0.001327 -0.003927 0.000000 0.000000 0.000000
# 2 -0.001327 0.035121 -0.002281 0.000000 0.000000 0.000000
# 3 -0.003927 -0.002281 0.010198 0.000000 0.000000 0.000000
# 4 0.000000 0.000000 0.000000 0.055301 0.000000 0.000000
# 5 0.000000 0.000000 0.000000 0.000000 0.073743 0.000000
# 6 0.000000 0.000000 0.000000 0.000000 0.000000 0.069267
#
#
# Mechanical properties :
#
#
# Convention : Reuss Voigt Hill
#
# Bulk Modulus (GPa) = 20.80634 30.41984 25.61309
# Shear Modulus (GPa) = 17.09219 20.13015 18.61117
#
# Velocity S-wave (km/s) = 3.10498 3.36964 3.24001
# Velocity P-wave (km/s) = 4.95887 5.68310 5.33329
#
# Compressibility (1/GPa) = 0.04806227
#
# Stress axis : x y z
#
# Youngs Moduli (GPa) = 56.14168 28.47301 98.06144
#
# Poissons Ratio (x) = 0.03777 0.38506
# Poissons Ratio (y) = 0.07448 0.22367
# Poissons Ratio (z) = 0.22045 0.06495
#
# Static dielectric constant tensor:
#      x y z
#    x 1.608330 0.000000 0.000000 
#    y 0.000000 1.603020 0.000000 
#    z 0.000000 0.000000 1.631320 
# 
# From -- ./inp_files/42927.got.cif
#   From: 2010.05.17/outbox.cif.g08.bks.cpg/sg67_22_cif.got.tgz:42927.got - 2010.06.03 18:28:57.
