data_PCOD9500232
_publ_section_title
;
Structure prediction by ZEFSAII (Michael W. Deem and Ramdas Pophale) SiO2 
 PCOD9500232
Probable space group: C M M A
;
_chemical_formula_sum "Si O2"
_cell_formula_units_Z 64
_cell_length_a 14.869415
_cell_length_b 5.395524
_cell_length_c 38.152690
_cell_angle_alpha 90.000000
_cell_angle_beta 90.000000
_cell_angle_gamma 90.000000
_cell_volume 3060.924906
_symmetry_space_group_name_H-M "C M M A"
_symmetry_group_IT_number 67
_symmetry_cell_setting 'orthorhombic'
loop_
_space_group_symop_operation_xyz
x,y,z
-x,1/2-y,z
x,-y,-z
-x,1/2+y,-z
-x,-y,-z
x,1/2+y,-z
-x,y,z
x,1/2-y,z
1/2+x,1/2+y,z
1/2-x,-y,z
1/2+x,1/2-y,-z
1/2-x,y,-z
1/2-x,1/2-y,-z
1/2+x,y,-z
1/2-x,1/2+y,z
1/2+x,-y,z
loop_
_atom_site_type_symbol
_atom_site_label
_atom_site_fract_x
_atom_site_fract_y
_atom_site_fract_z
Si Si1 0.191398 0.750000 0.094615
Si Si2 0.108098 0.750000 0.328552
Si Si3 0.354080 0.250000 0.014883
Si Si4 0.892541 0.750000 0.169938
Si Si5 0.110249 0.250000 0.208487
Si Si6 0.308389 0.250000 0.404820
Si Si7 0.391918 0.250000 0.480884
Si Si8 0.389908 0.750000 0.289390
O O1 0.250000 0.500000 0.095693
O O2 0.144817 0.750000 0.056719
O O3 0.130905 0.750000 0.129101
O O4 0.135880 0.750000 0.368927
O O5 0.139343 0.499378 0.309250
O O6 0.000000 0.750000 0.326448
O O7 0.394829 0.500000 0.000000
O O8 0.250000 0.250000 0.000000
O O9 0.859834 0.498876 0.188656
O O10 0.000000 0.750000 0.173759
O O11 0.138809 0.250000 0.248948
O O12 0.000000 0.250000 0.208325
O O13 0.250000 0.500000 0.405025
O O14 0.365657 0.250000 0.440344
O O15 0.500000 0.250000 0.483477
O O16 0.359121 0.500000 0.500000
O O17 0.500000 0.750000 0.289432
#
# Coordination Sequence:
#
# PCOD9500232 Si02
#       8
#     8   8   8   8   8   8   8   8
#     4  12  21  33  55  80 103 136 175 225 257 312
#     4  10  20  36  58  85 111 140 185 239 280 315
#     4  10  16  30  49  75  96 124 173 219 255 300
#     4  10  21  35  53  78 112 144 173 215 275 330
#     4   9  17  33  55  80 107 141 181 223 267 323
#     4  12  25  39  58  84 121 157 188 228 277 346
#     4  10  22  41  64  88 114 149 194 241 288 331
#     4   9  17  31  58  86 104 134 189 238 267 311
#
# _framework density 20.908712999999999
#
# number of rings (size 3 to 8) (size 9 to 14) (size 15 to 20)
#    0.000    1.750    2.500    3.375    0.000    4.500 
#    0.000    5.000    0.000   15.750    0.000    0.000 
#    0.000    0.000    0.000    0.000    0.000    0.000 
#
# Total GULP energy -178902.885768 kJ/mol
# GULP energy per Si atom -5590.715180 kJ/mol
# Density = 2.086112 g / cm^3
# Si number density = 20.908713 Si / 1000 Ang^3
#
#
#
# Elastic Constant Matrix: (Units=GPa)
#
#
# Indices 1 2 3 4 5 6 
#
# 1 45.8151 30.3872 20.1570 0.0000 0.0000 0.0000
# 2 30.3872 245.4036 108.3371 0.0000 0.0000 0.0000
# 3 20.1570 108.3371 221.2298 0.0000 0.0000 0.0000
# 4 0.0000 0.0000 0.0000 47.1234 0.0000 0.0000
# 5 0.0000 0.0000 0.0000 0.0000 25.5517 0.0000
# 6 0.0000 0.0000 0.0000 0.0000 0.0000 -9.8307
#
#
#
# Elastic Compliance Matrix: (Units=1/GPa)
#
#
# Indices 1 2 3 4 5 6 
#
# 1 0.023929 -0.002552 -0.000930 0.000000 0.000000 0.000000
# 2 -0.002552 0.005471 -0.002447 0.000000 0.000000 0.000000
# 3 -0.000930 -0.002447 0.005803 0.000000 0.000000 0.000000
# 4 0.000000 0.000000 0.000000 0.021221 0.000000 0.000000
# 5 0.000000 0.000000 0.000000 0.000000 0.039136 0.000000
# 6 0.000000 0.000000 0.000000 0.000000 0.000000 -0.101723
#
#
# Mechanical properties :
#
#
# Convention : Reuss Voigt Hill
#
# Bulk Modulus (GPa) = 42.83656 92.24567 67.54111
# Shear Modulus (GPa) = 370.97303 36.14002 203.55652
#
# Velocity S-wave (km/s) = 13.33455 4.16199 9.87756
# Velocity P-wave (km/s) = 16.05030 8.20429 12.74603
#
# Compressibility (1/GPa) = 0.02334455
#
# Stress axis : x y z
#
# Youngs Moduli (GPa) = 41.79021 182.77952 172.32179
#
# Poissons Ratio (x) = 0.46651 0.16033
# Poissons Ratio (y) = 0.10666 0.42161
# Poissons Ratio (z) = 0.03888 0.44720
#
# Static dielectric constant tensor:
#      x y z
#    x 1.745450 0.000000 0.000000 
#    y 0.000000 1.729480 0.000000 
#    z 0.000000 0.000000 1.713880 
# 
# From -- ./inp_files/45743.got.cif
#   From: 2010.05.17/outbox.cif.g08.bks.cpg/sg67_23_cif.got.tgz:45743.got - 2010.06.03 18:28:57.
