data_PCOD9500833
_publ_section_title
;
Structure prediction by ZEFSAII (Michael W. Deem and Ramdas Pophale) SiO2 
 PCOD9500833
Probable space group: C M M A
;
_chemical_formula_sum "Si O2"
_cell_formula_units_Z 104
_cell_length_a 8.483624
_cell_length_b 27.724463
_cell_length_c 24.013620
_cell_angle_alpha 90.000000
_cell_angle_beta 90.000000
_cell_angle_gamma 90.000000
_cell_volume 5648.097550
_symmetry_space_group_name_H-M "C M M A"
_symmetry_group_IT_number 67
_symmetry_cell_setting 'orthorhombic'
loop_
_space_group_symop_operation_xyz
x,y,z
-x,1/2-y,z
x,-y,-z
-x,1/2+y,-z
-x,-y,-z
x,1/2+y,-z
-x,y,z
x,1/2-y,z
1/2+x,1/2+y,z
1/2-x,-y,z
1/2+x,1/2-y,-z
1/2-x,y,-z
1/2-x,1/2-y,-z
1/2+x,y,-z
1/2-x,1/2+y,z
1/2+x,-y,z
loop_
_atom_site_type_symbol
_atom_site_label
_atom_site_fract_x
_atom_site_fract_y
_atom_site_fract_z
Si Si1 0.810580 0.945765 0.558408
Si Si2 0.689447 0.947548 0.126888
Si Si3 0.687666 0.947911 0.256547
Si Si4 0.189408 0.193893 0.561339
Si Si5 0.688273 0.147171 0.063441
Si Si6 0.311684 0.250000 0.936214
Si Si7 0.314974 0.379406 0.347148
O O1 0.750000 0.924837 0.500000
O O2 0.720859 0.920946 0.608451
O O3 0.000000 0.942499 0.562975
O O4 0.750000 0.000000 0.558673
O O5 0.500000 0.947308 0.123631
O O6 0.737830 0.944031 0.191994
O O7 0.754523 0.900728 0.095220
O O8 0.750000 0.000000 0.106240
O O9 0.500000 0.950355 0.258942
O O10 0.741462 0.901184 0.291161
O O11 0.750000 0.000000 0.278061
O O12 0.229060 0.250000 0.567295
O O13 0.250000 0.179171 0.500000
O O14 0.248108 0.165839 0.616477
O O15 0.000000 0.188140 0.560238
O O16 0.751258 0.198612 0.087358
O O17 0.000000 0.148986 0.936925
O O18 0.750000 0.143835 0.000000
O O19 0.500000 0.250000 0.935940
O O20 0.250000 0.250000 0.000000
O O21 0.500000 0.372286 0.337344
#
# Coordination Sequence:
#
# PCOD9500833 Si02
#       7
#    16  16  16  16  16   8  16
#     4  11  21  33  47  67  98 129 160 198 246 302
#     4  10  21  38  58  82 112 149 190 237 288 341
#     4  10  21  37  57  79 106 139 180 222 267 319
#     4   9  19  35  54  76 101 131 168 211 262 317
#     4  11  21  35  57  86 119 154 194 237 285 342
#     4  10  18  32  54  82 116 152 190 232 277 328
#     4  11  21  33  52  75 100 131 169 211 257 310
#
# _framework density 18.41328
#
# number of rings (size 3 to 8) (size 9 to 14) (size 15 to 20)
#    0.000    1.692    0.000    7.154    0.000    4.615 
#    0.000    1.538    1.692    0.000    0.000    0.000 
#    0.000    0.000    0.000    0.000    0.000    0.000 
#
# Total GULP energy -289944.389327 kJ/mol
# GULP energy per Si atom -5575.853641 kJ/mol
# Density = 1.837137 g / cm^3
# Si number density = 18.413280 Si / 1000 Ang^3
#
#
#
# Elastic Constant Matrix: (Units=GPa)
#
#
# Indices 1 2 3 4 5 6 
#
# 1 55.4286 35.1541 16.9110 0.0000 0.0000 0.0000
# 2 35.1541 165.3622 55.0056 0.0000 0.0000 0.0000
# 3 16.9110 55.0056 61.4240 0.0000 0.0000 0.0000
# 4 0.0000 0.0000 0.0000 33.7097 0.0000 0.0000
# 5 0.0000 0.0000 0.0000 0.0000 26.4620 0.0000
# 6 0.0000 0.0000 0.0000 0.0000 0.0000 26.5398
#
#
#
# Elastic Compliance Matrix: (Units=1/GPa)
#
#
# Indices 1 2 3 4 5 6 
#
# 1 0.021131 -0.003642 -0.002556 0.000000 0.000000 0.000000
# 2 -0.003642 0.009241 -0.007272 0.000000 0.000000 0.000000
# 3 -0.002556 -0.007272 0.023497 0.000000 0.000000 0.000000
# 4 0.000000 0.000000 0.000000 0.029665 0.000000 0.000000
# 5 0.000000 0.000000 0.000000 0.000000 0.037790 0.000000
# 6 0.000000 0.000000 0.000000 0.000000 0.000000 0.037679
#
#
# Mechanical properties :
#
#
# Convention : Reuss Voigt Hill
#
# Bulk Modulus (GPa) = 37.13762 55.15071 46.14416
# Shear Modulus (GPa) = 25.65163 29.01856 27.33509
#
# Velocity S-wave (km/s) = 3.73648 3.97414 3.85714
# Velocity P-wave (km/s) = 6.23119 7.14668 6.70458
#
# Compressibility (1/GPa) = 0.02692688
#
# Stress axis : x y z
#
# Youngs Moduli (GPa) = 47.32402 108.21801 42.55938
#
# Poissons Ratio (x) = 0.39411 0.10880
# Poissons Ratio (y) = 0.17235 0.30951
# Poissons Ratio (z) = 0.12098 0.78700
#
# Static dielectric constant tensor:
#      x y z
#    x 1.626550 0.000000 0.000000 
#    y 0.000000 1.653030 0.000000 
#    z 0.000000 0.000000 1.627220 
# 
# From -- ./inp_files/41020.got.cif
#   From: 2010.05.17/outbox.cif.g08.bks.cpg/sg67_21_cif.got.tgz:41020.got - 2010.06.03 18:28:57.
