data_PCOD9500586
_publ_section_title
;
Structure prediction by ZEFSAII (Michael W. Deem and Ramdas Pophale) SiO2 
 PCOD9500586
Probable space group: C M M A
;
_chemical_formula_sum "Si O2"
_cell_formula_units_Z 88
_cell_length_a 26.122261
_cell_length_b 9.061686
_cell_length_c 25.765541
_cell_angle_alpha 90.000000
_cell_angle_beta 90.000000
_cell_angle_gamma 90.000000
_cell_volume 6099.005702
_symmetry_space_group_name_H-M "C M M A"
_symmetry_group_IT_number 67
_symmetry_cell_setting 'orthorhombic'
loop_
_space_group_symop_operation_xyz
x,y,z
-x,1/2-y,z
x,-y,-z
-x,1/2+y,-z
-x,-y,-z
x,1/2+y,-z
-x,y,z
x,1/2-y,z
1/2+x,1/2+y,z
1/2-x,-y,z
1/2+x,1/2-y,-z
1/2-x,y,-z
1/2-x,1/2-y,-z
1/2+x,y,-z
1/2-x,1/2+y,z
1/2+x,-y,z
loop_
_atom_site_type_symbol
_atom_site_label
_atom_site_fract_x
_atom_site_fract_y
_atom_site_fract_z
Si Si1 0.500000 0.928978 0.443459
Si Si2 0.804604 0.428942 0.444154
Si Si3 0.437601 0.579885 0.052780
Si Si4 0.562311 0.079974 0.158095
Si Si5 0.060918 0.573314 0.735161
Si Si6 0.098319 0.928846 0.624412
O O1 0.500000 0.750000 0.447732
O O2 0.449626 0.974206 0.411246
O O3 0.500000 0.000000 0.500000
O O4 0.818186 0.500000 0.500000
O O5 0.800917 0.250000 0.448517
O O6 0.750000 0.500000 0.429877
O O7 0.848606 0.467949 0.403024
O O8 0.500000 0.575811 0.052861
O O9 0.422184 0.750000 0.052510
O O10 0.420586 0.501023 0.105646
O O11 0.420925 0.500000 0.000000
O O12 0.500000 0.075142 0.157732
O O13 0.577860 0.250000 0.157372
O O14 0.577981 0.002092 0.211516
O O15 0.066702 0.750000 0.740247
O O16 0.089796 0.520700 0.683436
O O17 0.000000 0.545399 0.727641
O O18 0.096338 0.750000 0.626254
#
# Coordination Sequence:
#
# PCOD9500586 Si02
#       6
#     8  16  16  16  16  16
#     4  10  18  30  44  62  84 106 129 160 201 246
#     4  10  19  32  48  65  83 105 133 166 203 245
#     4   9  15  22  32  46  64  90 126 167 206 240
#     4   9  16  24  33  48  71  97 125 161 200 237
#     4   9  15  26  42  56  72  99 132 162 194 238
#     4   9  17  29  46  63  81 105 134 165 201 245
#
# _framework density 14.42858
#
# number of rings (size 3 to 8) (size 9 to 14) (size 15 to 20)
#    0.000    2.727    0.909    2.727    0.000    4.364 
#    0.000    3.636    0.000    0.000    0.000    0.000 
#    0.000    0.000    0.000    0.000    0.000    0.909 
#
# Total GULP energy -245064.205471 kJ/mol
# GULP energy per Si atom -5569.641033 kJ/mol
# Density = 1.439574 g / cm^3
# Si number density = 14.428580 Si / 1000 Ang^3
#
#
#
# Elastic Constant Matrix: (Units=GPa)
#
#
# Indices 1 2 3 4 5 6 
#
# 1 45.9362 29.8069 56.9830 0.0000 0.0000 0.0000
# 2 29.8069 68.6369 69.3557 0.0000 0.0000 0.0000
# 3 56.9830 69.3557 178.1704 0.0000 0.0000 0.0000
# 4 0.0000 0.0000 0.0000 26.1751 0.0000 0.0000
# 5 0.0000 0.0000 0.0000 0.0000 10.7916 0.0000
# 6 0.0000 0.0000 0.0000 0.0000 0.0000 9.1498
#
#
#
# Elastic Compliance Matrix: (Units=1/GPa)
#
#
# Indices 1 2 3 4 5 6 
#
# 1 0.038001 -0.006959 -0.009445 0.000000 0.000000 0.000000
# 2 -0.006959 0.025290 -0.007619 0.000000 0.000000 0.000000
# 3 -0.009445 -0.007619 0.011599 0.000000 0.000000 0.000000
# 4 0.000000 0.000000 0.000000 0.038204 0.000000 0.000000
# 5 0.000000 0.000000 0.000000 0.000000 0.092665 0.000000
# 6 0.000000 0.000000 0.000000 0.000000 0.000000 0.109292
#
#
# Mechanical properties :
#
#
# Convention : Reuss Voigt Hill
#
# Bulk Modulus (GPa) = 37.25121 67.22610 52.23865
# Shear Modulus (GPa) = 13.43925 18.32982 15.88454
#
# Velocity S-wave (km/s) = 3.05525 3.56811 3.32159
# Velocity P-wave (km/s) = 6.19030 7.97927 7.14102
#
# Compressibility (1/GPa) = 0.02684477
#
# Stress axis : x y z
#
# Youngs Moduli (GPa) = 26.31527 39.54082 86.21414
#
# Poissons Ratio (x) = 0.27517 0.81426
# Poissons Ratio (y) = 0.18313 0.65687
# Poissons Ratio (z) = 0.24854 0.30126
#
# Static dielectric constant tensor:
#      x y z
#    x 1.450860 0.000000 0.000000 
#    y 0.000000 1.488820 0.000000 
#    z 0.000000 0.000000 1.480450 
# 
# From -- ./inp_files/41113.got.cif
#   From: 2010.05.17/outbox.cif.g08.bks.cpg/sg67_21_cif.got.tgz:41113.got - 2010.06.03 18:28:57.
