data_PCOD9500147
_publ_section_title
;
Structure prediction by ZEFSAII (Michael W. Deem and Ramdas Pophale) SiO2 
 PCOD9500147
Probable space group: C C C M
;
_chemical_formula_sum "Si O2"
_cell_formula_units_Z 52
_cell_length_a 9.000000
_cell_length_b 21.000000
_cell_length_c 30.000000
_cell_angle_alpha 90.000000
_cell_angle_beta 90.000000
_cell_angle_gamma 90.000000
_cell_volume 5670.000000
_symmetry_space_group_name_H-M "C C C M"
_symmetry_group_IT_number 66
_symmetry_cell_setting 'orthorhombic'
loop_
_space_group_symop_operation_xyz
x,y,z
-x,-y,z
x,-y,1/2-z
-x,y,1/2-z
-x,-y,-z
x,y,-z
-x,y,1/2+z
x,-y,1/2+z
1/2+x,1/2+y,z
1/2-x,1/2-y,z
1/2+x,1/2-y,1/2-z
1/2-x,1/2+y,1/2-z
1/2-x,1/2-y,-z
1/2+x,1/2+y,-z
1/2-x,1/2+y,1/2+z
1/2+x,1/2-y,1/2+z
loop_
_atom_site_type_symbol
_atom_site_label
_atom_site_fract_x
_atom_site_fract_y
_atom_site_fract_z
Si Si1 0.323290 0.507467 0.303647
Si Si2 0.826594 0.818155 0.268757
Si Si3 0.338337 0.133313 0.815568
Si Si4 0.707539 0.146380 0.050909
Si Si5 0.750000 0.750000 0.878390
Si Si6 0.821754 0.386468 0.845955
Si Si7 0.501525 0.728068 0.549461
O O1 0.500000 0.500000 0.309693
O O2 0.297681 0.500000 0.250000
O O3 0.259281 0.571348 0.325276
O O4 0.233198 0.453723 0.328828
O O5 0.750000 0.750000 0.266388
O O6 0.717220 0.855940 0.235219
O O7 0.797778 0.840926 0.319678
O O8 0.000000 0.821087 0.250000
O O9 0.289824 0.192069 0.846024
O O10 0.513393 0.125794 0.825716
O O11 0.677866 0.115844 0.099926
O O12 0.596624 0.206788 0.050416
O O13 0.875785 0.172773 0.053570
O O14 0.691438 0.116937 0.000000
O O15 0.615335 0.730554 0.910875
O O16 0.432020 0.722671 0.500000
#
# Coordination Sequence:
#
# PCOD9500147 Si02
#       7
#    16  16  16  16   8  16  16
#     4  11  25  45  66  89 124 171 223 261 307 381
#     4  12  26  39  58  92 134 170 209 259 320 384
#     4  12  25  41  60  99 128 167 207 259 316 387
#     4   9  20  38  62  94 125 165 216 254 313 381
#     4  12  23  36  62  98 140 156 207 262 326 376
#     4  12  24  41  69  88 128 172 211 265 320 373
#     4   9  19  37  60  90 128 168 209 260 314 378
#
# _framework density 9.1710759999999993
#
# number of rings (size 3 to 8) (size 9 to 14) (size 15 to 20)
#    0.000    1.077    3.846    3.923    6.462    0.615 
#    0.000    0.000    0.000    4.154    0.000    0.000 
#    0.000    0.000    0.000    0.000    0.000    0.000 
#
# Total GULP energy -289662.652456 kJ/mol
# GULP energy per Si atom -5570.435624 kJ/mol
# Density = 0.915020 g / cm^3
# Si number density = 9.171076 Si / 1000 Ang^3
#
#
#
# Elastic Constant Matrix: (Units=GPa)
#
#
# Indices 1 2 3 4 5 6 
#
# 1 107.1945 45.3838 56.9426 0.0000 0.0000 0.0000
# 2 45.3838 93.0614 32.0523 0.0000 0.0000 0.0000
# 3 56.9426 32.0523 141.8778 0.0000 0.0000 0.0000
# 4 0.0000 0.0000 0.0000 20.0943 0.0000 0.0000
# 5 0.0000 0.0000 0.0000 0.0000 45.6127 0.0000
# 6 0.0000 0.0000 0.0000 0.0000 0.0000 20.1080
#
#
#
# Elastic Compliance Matrix: (Units=1/GPa)
#
#
# Indices 1 2 3 4 5 6 
#
# 1 0.013885 -0.005262 -0.004384 0.000000 0.000000 0.000000
# 2 -0.005262 0.013646 -0.000971 0.000000 0.000000 0.000000
# 3 -0.004384 -0.000971 0.009027 0.000000 0.000000 0.000000
# 4 0.000000 0.000000 0.000000 0.049765 0.000000 0.000000
# 5 0.000000 0.000000 0.000000 0.000000 0.021924 0.000000
# 6 0.000000 0.000000 0.000000 0.000000 0.000000 0.049731
#
#
# Mechanical properties :
#
#
# Convention : Reuss Voigt Hill
#
# Bulk Modulus (GPa) = 65.25319 67.87677 66.56498
# Shear Modulus (GPa) = 27.12655 31.01335 29.06995
#
# Velocity S-wave (km/s) = 3.84984 4.11642 3.98536
# Velocity P-wave (km/s) = 7.44409 7.72525 7.58597
#
# Compressibility (1/GPa) = 0.01532492
#
# Stress axis : x y z
#
# Youngs Moduli (GPa) = 72.01812 73.28163 110.77486
#
# Poissons Ratio (x) = 0.38557 0.48566
# Poissons Ratio (y) = 0.37893 0.10757
# Poissons Ratio (z) = 0.31574 0.07116
#
# Static dielectric constant tensor:
#      x y z
#    x 1.606770 0.000000 0.000000 
#    y 0.000000 1.716720 0.000000 
#    z 0.000000 0.000000 1.668440 
# 
# From -- ./inp_files/68282.got.cif
#   From: 2010.05.17/outbox.ucp.g08.bks.cvg/sg66_35_cif.got.tgz:68282.got - 2010.06.11 16:44:13.
