data_PCOD9500461
_publ_section_title
;
Structure prediction by ZEFSAII (Michael W. Deem and Ramdas Pophale) SiO2 
 PCOD9500461
Probable space group: C M M A
;
_chemical_formula_sum "Si O2"
_cell_formula_units_Z 128
_cell_length_a 17.019113
_cell_length_b 18.572210
_cell_length_c 22.200727
_cell_angle_alpha 90.000000
_cell_angle_beta 90.000000
_cell_angle_gamma 90.000000
_cell_volume 7017.262194
_symmetry_space_group_name_H-M "C M M A"
_symmetry_group_IT_number 67
_symmetry_cell_setting 'orthorhombic'
loop_
_space_group_symop_operation_xyz
x,y,z
-x,1/2-y,z
x,-y,-z
-x,1/2+y,-z
-x,-y,-z
x,1/2+y,-z
-x,y,z
x,1/2-y,z
1/2+x,1/2+y,z
1/2-x,-y,z
1/2+x,1/2-y,-z
1/2-x,y,-z
1/2-x,1/2-y,-z
1/2+x,y,-z
1/2-x,1/2+y,z
1/2+x,-y,z
loop_
_atom_site_type_symbol
_atom_site_label
_atom_site_fract_x
_atom_site_fract_y
_atom_site_fract_z
Si Si1 0.095994 0.930227 0.602077
Si Si2 0.911145 0.834890 0.121060
Si Si3 0.237965 0.585603 0.069403
Si Si4 0.095804 0.331079 0.507514
Si Si5 0.811301 0.834590 0.822469
Si Si6 0.350506 0.333768 0.250309
Si Si7 0.593731 0.832268 0.287682
Si Si8 0.404634 0.906568 0.629530
O O1 0.122157 0.889626 0.541585
O O2 0.122832 0.884065 0.659676
O O3 0.000000 0.929719 0.601095
O O4 0.118759 0.012945 0.609857
O O5 0.889479 0.750000 0.112365
O O6 0.847511 0.885825 0.089935
O O7 0.906686 0.847249 0.193040
O O8 0.000000 0.845656 0.099755
O O9 0.250000 0.500000 0.074046
O O10 0.297482 0.622318 0.116611
O O11 0.250000 0.606684 0.000000
O O12 0.121438 0.250000 0.492472
O O13 0.117960 0.353819 0.574881
O O14 0.000000 0.331345 0.505751
O O15 0.817856 0.750000 0.837023
O O16 0.735179 0.843749 0.779324
O O17 0.882177 0.856557 0.779024
O O18 0.359204 0.250000 0.268245
O O19 0.367998 0.382718 0.307381
O O20 0.500000 0.830218 0.292415
O O21 0.623178 0.750000 0.295666
O O22 0.500000 0.904505 0.635570
#
# Coordination Sequence:
#
# PCOD9500461 Si02
#       8
#    16  16  16  16  16  16  16  16
#     4   9  17  28  42  63  92 125 159 197 244 296
#     4   9  18  34  57  82 107 140 184 227 262 307
#     4  10  21  37  55  79 111 146 178 210 260 320
#     4   9  16  26  41  61  87 122 163 204 245 289
#     4   9  19  35  54  75  99 131 169 209 252 301
#     4   9  17  30  48  70  98 129 161 203 257 309
#     4   9  17  31  51  73  96 123 161 206 248 295
#     4  10  18  26  40  66  97 125 158 202 248 293
#
# _framework density 18.240732000000001
#
# number of rings (size 3 to 8) (size 9 to 14) (size 15 to 20)
#    0.000    2.750    0.000    2.625    0.000    7.250 
#    0.000    3.750    0.000    2.250    0.000    5.250 
#    0.000    0.000    0.000    0.000    0.000    0.000 
#
# Total GULP energy -356771.238041 kJ/mol
# GULP energy per Si atom -5574.550594 kJ/mol
# Density = 1.819922 g / cm^3
# Si number density = 18.240732 Si / 1000 Ang^3
#
#
#
# Elastic Constant Matrix: (Units=GPa)
#
#
# Indices 1 2 3 4 5 6 
#
# 1 15.2776 19.3351 10.8777 0.0000 0.0000 0.0000
# 2 19.3351 88.7844 64.1258 0.0000 0.0000 0.0000
# 3 10.8777 64.1258 125.1998 0.0000 0.0000 0.0000
# 4 0.0000 0.0000 0.0000 41.9275 0.0000 0.0000
# 5 0.0000 0.0000 0.0000 0.0000 14.5067 0.0000
# 6 0.0000 0.0000 0.0000 0.0000 0.0000 14.5198
#
#
#
# Elastic Compliance Matrix: (Units=1/GPa)
#
#
# Indices 1 2 3 4 5 6 
#
# 1 0.091358 -0.022478 0.003576 0.000000 0.000000 0.000000
# 2 -0.022478 0.023407 -0.010036 0.000000 0.000000 0.000000
# 3 0.003576 -0.010036 0.012817 0.000000 0.000000 0.000000
# 4 0.000000 0.000000 0.000000 0.023851 0.000000 0.000000
# 5 0.000000 0.000000 0.000000 0.000000 0.068934 0.000000
# 6 0.000000 0.000000 0.000000 0.000000 0.000000 0.068871
#
#
# Mechanical properties :
#
#
# Convention : Reuss Voigt Hill
#
# Bulk Modulus (GPa) = 14.34622 46.43766 30.39194
# Shear Modulus (GPa) = 13.50081 23.18568 18.34324
#
# Velocity S-wave (km/s) = 2.72351 3.56911 3.17459
# Velocity P-wave (km/s) = 4.21569 6.51906 5.48955
#
# Compressibility (1/GPa) = 0.06970479
#
# Stress axis : x y z
#
# Youngs Moduli (GPa) = 10.94601 42.72239 78.02266
#
# Poissons Ratio (x) = 0.96032 -0.27898
# Poissons Ratio (y) = 0.24604 0.78302
# Poissons Ratio (z) = -0.03914 0.42875
#
# Static dielectric constant tensor:
#      x y z
#    x 1.659000 0.000000 0.000000 
#    y 0.000000 1.626670 0.000000 
#    z 0.000000 0.000000 1.606570 
# 
# From -- ./inp_files/39441.got.cif
#   From: 2010.05.17/outbox.cif.g08.bks.cpg/sg67_20_cif.got.tgz:39441.got - 2010.06.03 18:28:57.
