data_PCOD9500970
_publ_section_title
;
Structure prediction by ZEFSAII (Michael W. Deem and Ramdas Pophale) SiO2 
 PCOD9500970
Probable space group: C M M A
;
_chemical_formula_sum "Si O2"
_cell_formula_units_Z 56
_cell_length_a 15.151917
_cell_length_b 18.848779
_cell_length_c 8.311791
_cell_angle_alpha 90.000000
_cell_angle_beta 90.000000
_cell_angle_gamma 90.000000
_cell_volume 2373.807072
_symmetry_space_group_name_H-M "C M M A"
_symmetry_group_IT_number 67
_symmetry_cell_setting 'orthorhombic'
loop_
_space_group_symop_operation_xyz
x,y,z
-x,1/2-y,z
x,-y,-z
-x,1/2+y,-z
-x,-y,-z
x,1/2+y,-z
-x,y,z
x,1/2-y,z
1/2+x,1/2+y,z
1/2-x,-y,z
1/2+x,1/2-y,-z
1/2-x,y,-z
1/2-x,1/2-y,-z
1/2+x,y,-z
1/2-x,1/2+y,z
1/2+x,-y,z
loop_
_atom_site_type_symbol
_atom_site_label
_atom_site_fract_x
_atom_site_fract_y
_atom_site_fract_z
Si Si1 0.750000 0.500000 0.295510
Si Si2 0.649446 0.750000 0.273374
Si Si3 0.859905 0.250000 0.645916
Si Si4 0.658084 0.115330 0.925840
Si Si5 0.904532 0.591970 0.271844
O O1 0.688985 0.552027 0.189414
O O2 0.823175 0.554215 0.365252
O O3 0.756357 0.750000 0.302427
O O4 0.619571 0.750000 0.456535
O O5 0.620195 0.819928 0.176463
O O6 0.897823 0.323686 0.707792
O O7 0.750000 0.144402 0.000000
O O8 0.606541 0.084999 0.078615
O O9 0.000000 0.565374 0.324080
#
# Coordination Sequence:
#
# PCOD9500970 Si02
#       5
#     8   8   8  16  16
#     4  10  21  36  61  94 123 162 203 252 315 368
#     4  11  20  36  62  87 120 162 214 249 301 371
#     4  11  22  37  59  94 119 168 208 252 311 363
#     4  10  18  35  59  90 120 155 207 252 301 366
#     4  11  22  39  63  92 126 162 206 256 308 369
#
# _framework density 23.590796999999998
#
# number of rings (size 3 to 8) (size 9 to 14) (size 15 to 20)
#    0.000    1.429    5.714    5.571    0.000    2.286 
#    0.000    5.714    0.000    1.714    0.000    1.000 
#    0.000    0.000    0.000    0.000    0.000    0.000 
#
# Total GULP energy -156333.548164 kJ/mol
# GULP energy per Si atom -5583.341006 kJ/mol
# Density = 2.353710 g / cm^3
# Si number density = 23.590797 Si / 1000 Ang^3
#
#
#
# Elastic Constant Matrix: (Units=GPa)
#
#
# Indices 1 2 3 4 5 6 
#
# 1 128.6642 20.0869 -4.3189 0.0000 0.0000 0.0000
# 2 20.0869 141.6894 19.1285 0.0000 0.0000 0.0000
# 3 -4.3189 19.1285 45.0777 0.0000 0.0000 0.0000
# 4 0.0000 0.0000 0.0000 22.1412 0.0000 0.0000
# 5 0.0000 0.0000 0.0000 0.0000 4.8682 0.0000
# 6 0.0000 0.0000 0.0000 0.0000 0.0000 -5.1360
#
#
#
# Elastic Compliance Matrix: (Units=1/GPa)
#
#
# Indices 1 2 3 4 5 6 
#
# 1 0.008022 -0.001316 0.001327 0.000000 0.000000 0.000000
# 2 -0.001316 0.007703 -0.003395 0.000000 0.000000 0.000000
# 3 0.001327 -0.003395 0.023752 0.000000 0.000000 0.000000
# 4 0.000000 0.000000 0.000000 0.045165 0.000000 0.000000
# 5 0.000000 0.000000 0.000000 0.000000 0.205414 0.000000
# 6 0.000000 0.000000 0.000000 0.000000 0.000000 -0.194702
#
#
# Mechanical properties :
#
#
# Convention : Reuss Voigt Hill
#
# Bulk Modulus (GPa) = 30.57295 42.80269 36.68782
# Shear Modulus (GPa) = 44.23852 23.07699 33.65776
#
# Velocity S-wave (km/s) = 4.33511 3.13104 3.78131
# Velocity P-wave (km/s) = 6.16809 5.59057 5.88642
#
# Compressibility (1/GPa) = 0.03270866
#
# Stress axis : x y z
#
# Youngs Moduli (GPa) = 124.65330 129.82593 42.10239
#
# Poissons Ratio (x) = 0.17091 -0.05588
# Poissons Ratio (y) = 0.16410 0.14293
# Poissons Ratio (z) = -0.16545 0.44072
#
# Static dielectric constant tensor:
#      x y z
#    x 1.921020 0.000000 0.000000 
#    y 0.000000 1.906710 0.000000 
#    z 0.000000 0.000000 1.909860 
# 
# From -- ./inp_files/9118.got.cif
#   From: 2010.05.17/outbox.cif.g08.bks.cpg/sg67_5_cif.got.tgz:9118.got - 2010.06.03 18:28:57.
