data_PCOD9500241
_publ_section_title
;
Structure prediction by ZEFSAII (Michael W. Deem and Ramdas Pophale) SiO2 
 PCOD9500241
Probable space group: C M M A
;
_chemical_formula_sum "Si O2"
_cell_formula_units_Z 88
_cell_length_a 18.372644
_cell_length_b 14.486020
_cell_length_c 18.169372
_cell_angle_alpha 90.000000
_cell_angle_beta 90.000000
_cell_angle_gamma 90.000000
_cell_volume 4835.714555
_symmetry_space_group_name_H-M "C M M A"
_symmetry_group_IT_number 67
_symmetry_cell_setting 'orthorhombic'
loop_
_space_group_symop_operation_xyz
x,y,z
-x,1/2-y,z
x,-y,-z
-x,1/2+y,-z
-x,-y,-z
x,1/2+y,-z
-x,y,z
x,1/2-y,z
1/2+x,1/2+y,z
1/2-x,-y,z
1/2+x,1/2-y,-z
1/2-x,y,-z
1/2-x,1/2-y,-z
1/2+x,y,-z
1/2-x,1/2+y,z
1/2+x,-y,z
loop_
_atom_site_type_symbol
_atom_site_label
_atom_site_fract_x
_atom_site_fract_y
_atom_site_fract_z
Si Si1 0.500000 0.538090 0.917517
Si Si2 0.411683 0.750000 0.567413
Si Si3 0.250000 0.000000 0.808166
Si Si4 0.590192 0.750000 0.396864
Si Si5 0.915508 0.886626 0.309137
Si Si6 0.874751 0.592848 0.712533
Si Si7 0.000000 0.148303 0.177708
Si Si8 0.860966 0.144269 0.854148
O O1 0.500000 0.443973 0.870284
O O2 0.429993 0.599541 0.895599
O O3 0.500000 0.500000 0.000000
O O4 0.500000 0.750000 0.564664
O O5 0.389938 0.750000 0.482812
O O6 0.388293 0.663173 0.617363
O O7 0.198256 0.937789 0.755330
O O8 0.295775 0.929237 0.857991
O O9 0.500000 0.750000 0.389015
O O10 0.624810 0.662211 0.355533
O O11 0.877834 0.855696 0.233700
O O12 0.000000 0.862467 0.300191
O O13 0.908122 0.995995 0.313660
O O14 0.929109 0.639131 0.771144
O O15 0.000000 0.250000 0.141529
O O16 0.847068 0.250000 0.877170
#
# Coordination Sequence:
#
# PCOD9500241 Si02
#       8
#     8   8   8   8  16  16   8  16
#     4  12  25  43  68 101 129 152 197 263 319 370
#     4   9  20  28  49  93 123 149 197 272 325 361
#     4  10  24  36  61  99 118 168 222 258 290 366
#     4  11  20  34  55  89 125 155 203 266 323 369
#     4  10  16  31  57  85 114 152 204 259 307 358
#     4  11  19  36  58  84 118 159 211 248 309 362
#     4  12  20  37  66  88 118 162 197 260 308 370
#     4  11  21  39  69  92 127 163 213 255 307 369
#
# _framework density 18.197931000000001
#
# number of rings (size 3 to 8) (size 9 to 14) (size 15 to 20)
#    0.000    1.273    8.182    0.273    1.273    1.455 
#    0.000    3.182    0.000   14.182    0.000    0.000 
#    0.000    0.000    0.000    0.000    0.000    0.000 
#
# Total GULP energy -245275.018362 kJ/mol
# GULP energy per Si atom -5574.432236 kJ/mol
# Density = 1.815651 g / cm^3
# Si number density = 18.197931 Si / 1000 Ang^3
#
#
#
# Elastic Constant Matrix: (Units=GPa)
#
#
# Indices 1 2 3 4 5 6 
#
# 1 90.1000 38.2901 19.5904 0.0000 0.0000 0.0000
# 2 38.2901 158.2967 32.6780 0.0000 0.0000 0.0000
# 3 19.5904 32.6780 80.2579 0.0000 0.0000 0.0000
# 4 0.0000 0.0000 0.0000 13.8815 0.0000 0.0000
# 5 0.0000 0.0000 0.0000 0.0000 0.9619 0.0000
# 6 0.0000 0.0000 0.0000 0.0000 0.0000 246.1798
#
#
#
# Elastic Compliance Matrix: (Units=1/GPa)
#
#
# Indices 1 2 3 4 5 6 
#
# 1 0.012661 -0.002647 -0.002013 0.000000 0.000000 0.000000
# 2 -0.002647 0.007450 -0.002387 0.000000 0.000000 0.000000
# 3 -0.002013 -0.002387 0.013923 0.000000 0.000000 0.000000
# 4 0.000000 0.000000 0.000000 0.072038 0.000000 0.000000
# 5 0.000000 0.000000 0.000000 0.000000 1.039631 0.000000
# 6 0.000000 0.000000 0.000000 0.000000 0.000000 0.004062
#
#
# Mechanical properties :
#
#
# Convention : Reuss Voigt Hill
#
# Bulk Modulus (GPa) = 50.14933 56.64128 53.39531
# Shear Modulus (GPa) = 4.27165 68.07772 36.17468
#
# Velocity S-wave (km/s) = 1.53376 6.12297 4.46336
# Velocity P-wave (km/s) = 5.54564 9.01002 7.48113
#
# Compressibility (1/GPa) = 0.01994045
#
# Stress axis : x y z
#
# Youngs Moduli (GPa) = 78.98043 134.22097 71.82272
#
# Poissons Ratio (x) = 0.35530 0.14456
# Poissons Ratio (y) = 0.20907 0.17147
# Poissons Ratio (z) = 0.15897 0.32044
#
# Static dielectric constant tensor:
#      x y z
#    x 1.655280 0.000000 0.000000 
#    y 0.000000 1.681840 0.000000 
#    z 0.000000 0.000000 1.616260 
# 
# From -- ./inp_files/34189.got.cif
#   From: 2010.05.17/outbox.cif.g08.bks.cpg/sg67_18_cif.got.tgz:34189.got - 2010.06.03 18:28:57.
