data_PCOD9500430
_publ_section_title
;
Structure prediction by ZEFSAII (Michael W. Deem and Ramdas Pophale) SiO2 
 PCOD9500430
Probable space group: C M M A
;
_chemical_formula_sum "Si O2"
_cell_formula_units_Z 80
_cell_length_a 29.563036
_cell_length_b 16.090015
_cell_length_c 8.083134
_cell_angle_alpha 90.000000
_cell_angle_beta 90.000000
_cell_angle_gamma 90.000000
_cell_volume 3844.901866
_symmetry_space_group_name_H-M "C M M A"
_symmetry_group_IT_number 67
_symmetry_cell_setting 'orthorhombic'
loop_
_space_group_symop_operation_xyz
x,y,z
-x,1/2-y,z
x,-y,-z
-x,1/2+y,-z
-x,-y,-z
x,1/2+y,-z
-x,y,z
x,1/2-y,z
1/2+x,1/2+y,z
1/2-x,-y,z
1/2+x,1/2-y,-z
1/2-x,y,-z
1/2-x,1/2-y,-z
1/2+x,y,-z
1/2-x,1/2+y,z
1/2+x,-y,z
loop_
_atom_site_type_symbol
_atom_site_label
_atom_site_fract_x
_atom_site_fract_y
_atom_site_fract_z
Si Si1 0.642069 0.901135 0.306211
Si Si2 0.948310 0.416996 0.111744
Si Si3 0.549772 0.155316 0.230713
Si Si4 0.354760 0.902990 0.668065
Si Si5 0.802473 0.898072 0.007776
O O1 0.589602 0.900786 0.248518
O O2 0.653002 0.865215 0.486611
O O3 0.654509 0.998566 0.327002
O O4 0.670617 0.867080 0.152865
O O5 0.000000 0.423169 0.173287
O O6 0.938345 0.500000 0.000000
O O7 0.946672 0.347933 0.968365
O O8 0.500000 0.121185 0.272723
O O9 0.552384 0.250000 0.287618
O O10 0.591858 0.106567 0.301425
O O11 0.326820 0.868791 0.823847
O O12 0.750000 0.875584 0.000000
O O13 0.805192 0.000000 0.000000
#
# Coordination Sequence:
#
# PCOD9500430 Si02
#       5
#    16  16  16  16  16
#     4  10  18  30  51  80 105 131 174 219 261 307
#     4  10  17  30  52  75 103 137 175 218 259 307
#     4  10  20  34  52  75 108 146 177 212 261 310
#     4  10  19  31  51  77 105 137 174 214 259 312
#     4   9  17  31  50  76 110 138 166 215 271 313
#
# _framework density 20.806773
#
# number of rings (size 3 to 8) (size 9 to 14) (size 15 to 20)
#    0.000    2.200    4.000    0.600    0.000    1.600 
#    0.000    7.000    0.000    3.000    0.000    1.400 
#    0.000    0.000    0.000    0.000    0.000    0.000 
#
# Total GULP energy -222951.130595 kJ/mol
# GULP energy per Si atom -5573.778265 kJ/mol
# Density = 2.075942 g / cm^3
# Si number density = 20.806773 Si / 1000 Ang^3
#
#
#
# Elastic Constant Matrix: (Units=GPa)
#
#
# Indices 1 2 3 4 5 6 
#
# 1 130.6726 -2.4048 97.5665 0.0000 0.0000 0.0000
# 2 -2.4048 20.8418 -3.9050 0.0000 0.0000 0.0000
# 3 97.5665 -3.9050 184.7093 0.0000 0.0000 0.0000
# 4 0.0000 0.0000 0.0000 -0.1203 0.0000 0.0000
# 5 0.0000 0.0000 0.0000 0.0000 -1.5039 0.0000
# 6 0.0000 0.0000 0.0000 0.0000 0.0000 -21.4846
#
#
#
# Elastic Compliance Matrix: (Units=1/GPa)
#
#
# Indices 1 2 3 4 5 6 
#
# 1 0.012637 0.000208 -0.006671 0.000000 0.000000 0.000000
# 2 0.000208 0.048175 0.000908 0.000000 0.000000 0.000000
# 3 -0.006671 0.000908 0.008957 0.000000 0.000000 0.000000
# 4 0.000000 0.000000 0.000000 -8.311313 0.000000 0.000000
# 5 0.000000 0.000000 0.000000 0.000000 -0.664918 0.000000
# 6 0.000000 0.000000 0.000000 0.000000 0.000000 -0.046545
#
#
# Mechanical properties :
#
#
# Convention : Reuss Voigt Hill
#
# Bulk Modulus (GPa) = 17.04725 57.63747 37.34236
# Shear Modulus (GPa) = -0.56039 11.70935 5.57448
#
# Velocity S-wave (km/s) = -0.51953 2.37484 1.63859
# Velocity P-wave (km/s) = 2.80197 5.93980 4.64394
#
# Compressibility (1/GPa) = 0.05866050
#
# Stress axis : x y z
#
# Youngs Moduli (GPa) = 79.13067 20.75781 111.64741
#
# Poissons Ratio (x) = -0.00432 0.74478
# Poissons Ratio (y) = -0.01648 -0.10143
# Poissons Ratio (z) = 0.52787 -0.01886
#
# Static dielectric constant tensor:
#      x y z
#    x 1.729760 0.000000 0.000000 
#    y 0.000000 1.793810 0.000000 
#    z 0.000000 0.000000 1.782550 
# 
# From -- ./inp_files/14572.got.cif
#   From: 2010.05.17/outbox.cif.g08.bks.cpg/sg67_8_cif.got.tgz:14572.got - 2010.06.03 18:28:57.
