data_PCOD9500798
_publ_section_title
;
Structure prediction by ZEFSAII (Michael W. Deem and Ramdas Pophale) SiO2 
 PCOD9500798
Probable space group: C M M A
;
_chemical_formula_sum "Si O2"
_cell_formula_units_Z 116
_cell_length_a 30.042185
_cell_length_b 7.665528
_cell_length_c 23.587605
_cell_angle_alpha 90.000000
_cell_angle_beta 90.000000
_cell_angle_gamma 90.000000
_cell_volume 5431.970928
_symmetry_space_group_name_H-M "C M M A"
_symmetry_group_IT_number 67
_symmetry_cell_setting 'orthorhombic'
loop_
_space_group_symop_operation_xyz
x,y,z
-x,1/2-y,z
x,-y,-z
-x,1/2+y,-z
-x,-y,-z
x,1/2+y,-z
-x,y,z
x,1/2-y,z
1/2+x,1/2+y,z
1/2-x,-y,z
1/2+x,1/2-y,-z
1/2-x,y,-z
1/2-x,1/2-y,-z
1/2+x,y,-z
1/2-x,1/2+y,z
1/2+x,-y,z
loop_
_atom_site_type_symbol
_atom_site_label
_atom_site_fract_x
_atom_site_fract_y
_atom_site_fract_z
Si Si1 0.500000 0.250000 0.955660
Si Si2 0.407566 0.459848 0.203248
Si Si3 0.332335 0.540718 0.062084
Si Si4 0.397209 0.043285 0.328358
Si Si5 0.565335 0.449407 0.081776
Si Si6 0.808643 0.447473 0.178301
Si Si7 0.797184 0.042297 0.301230
Si Si8 0.050954 0.540146 0.437227
O O1 0.538397 0.402671 0.949253
O O2 0.399161 0.250000 0.204533
O O3 0.417170 0.517728 0.267633
O O4 0.439670 0.485544 0.149807
O O5 0.361977 0.554151 0.186469
O O6 0.336179 0.750000 0.068138
O O7 0.382200 0.462517 0.067195
O O8 0.303759 0.473893 0.115852
O O9 0.314345 0.500000 0.000000
O O10 0.405028 0.250000 0.328894
O O11 0.420323 0.971101 0.384620
O O12 0.343886 0.016912 0.327496
O O13 0.550639 0.250000 0.070589
O O14 0.790875 0.250000 0.177133
O O15 0.794701 0.535536 0.237173
O O16 0.800841 0.250000 0.296390
O O17 0.750000 0.000000 0.329945
O O18 0.068712 0.500000 0.500000
O O19 0.049398 0.750000 0.433179
O O20 0.000000 0.474884 0.434027
#
# Coordination Sequence:
#
# PCOD9500798 Si02
#       8
#     4  16  16  16  16  16  16  16
#     4  12  22  36  50  66  98 132 166 214 274 336
#     4   8  15  28  48  71  94 123 163 210 257 316
#     4  10  18  32  53  74  95 122 166 221 264 317
#     4   9  17  32  53  79 109 144 186 226 270 324
#     4  10  20  35  52  69  94 129 168 213 273 333
#     4   8  16  29  48  71  98 130 163 202 253 308
#     4  10  19  32  52  81 113 146 178 219 270 329
#     4   9  18  33  54  77 109 148 190 234 278 321
#
# _framework density 21.355046999999999
#
# number of rings (size 3 to 8) (size 9 to 14) (size 15 to 20)
#    0.000    2.759    0.690    1.034    0.966    1.655 
#    1.241    0.345    0.000    0.828    0.000    5.793 
#    0.000    0.000    0.000    0.000    0.000    0.000 
#
# Total GULP energy -322933.133533 kJ/mol
# GULP energy per Si atom -5567.812647 kJ/mol
# Density = 2.130644 g / cm^3
# Si number density = 21.355047 Si / 1000 Ang^3
#
#
#
# Elastic Constant Matrix: (Units=GPa)
#
#
# Indices 1 2 3 4 5 6 
#
# 1 60.3518 11.7161 46.6774 0.0000 0.0000 0.0000
# 2 11.7161 83.9373 17.1011 0.0000 0.0000 0.0000
# 3 46.6774 17.1011 176.8495 0.0000 0.0000 0.0000
# 4 0.0000 0.0000 0.0000 18.5916 0.0000 0.0000
# 5 0.0000 0.0000 0.0000 0.0000 8.2608 0.0000
# 6 0.0000 0.0000 0.0000 0.0000 0.0000 14.1998
#
#
#
# Elastic Compliance Matrix: (Units=1/GPa)
#
#
# Indices 1 2 3 4 5 6 
#
# 1 0.021096 -0.001847 -0.005390 0.000000 0.000000 0.000000
# 2 -0.001847 0.012315 -0.000703 0.000000 0.000000 0.000000
# 3 -0.005390 -0.000703 0.007145 0.000000 0.000000 0.000000
# 4 0.000000 0.000000 0.000000 0.053788 0.000000 0.000000
# 5 0.000000 0.000000 0.000000 0.000000 0.121053 0.000000
# 6 0.000000 0.000000 0.000000 0.000000 0.000000 0.070424
#
#
# Mechanical properties :
#
#
# Convention : Reuss Voigt Hill
#
# Bulk Modulus (GPa) = 40.52364 52.45864 46.49114
# Shear Modulus (GPa) = 16.13289 24.58670 20.35980
#
# Velocity S-wave (km/s) = 2.75155 3.39681 3.09106
# Velocity P-wave (km/s) = 5.39555 6.32477 5.87855
#
# Compressibility (1/GPa) = 0.02467696
#
# Stress axis : x y z
#
# Youngs Moduli (GPa) = 47.40139 81.20361 139.95673
#
# Poissons Ratio (x) = 0.14995 0.75431
# Poissons Ratio (y) = 0.08753 0.09845
# Poissons Ratio (z) = 0.25547 0.05712
#
# Static dielectric constant tensor:
#      x y z
#    x 1.777400 0.000000 0.000000 
#    y 0.000000 2.027070 0.000000 
#    z 0.000000 0.000000 1.844500 
# 
# From -- ./inp_files/42980.got.cif
#   From: 2010.05.17/outbox.cif.g08.bks.cpg/sg67_22_cif.got.tgz:42980.got - 2010.06.03 18:28:57.
