data_PCOD9500109
_publ_section_title
;
Structure prediction by ZEFSAII (Michael W. Deem and Ramdas Pophale) SiO2 
 PCOD9500109
Probable space group: C C C M
;
_chemical_formula_sum "Si O2"
_cell_formula_units_Z 52
_cell_length_a 9.000000
_cell_length_b 21.000000
_cell_length_c 27.000000
_cell_angle_alpha 90.000000
_cell_angle_beta 90.000000
_cell_angle_gamma 90.000000
_cell_volume 5103.000000
_symmetry_space_group_name_H-M "C C C M"
_symmetry_group_IT_number 66
_symmetry_cell_setting 'orthorhombic'
loop_
_space_group_symop_operation_xyz
x,y,z
-x,-y,z
x,-y,1/2-z
-x,y,1/2-z
-x,-y,-z
x,y,-z
-x,y,1/2+z
x,-y,1/2+z
1/2+x,1/2+y,z
1/2-x,1/2-y,z
1/2+x,1/2-y,1/2-z
1/2-x,1/2+y,1/2-z
1/2-x,1/2-y,-z
1/2+x,1/2+y,-z
1/2-x,1/2+y,1/2+z
1/2+x,1/2-y,1/2+z
loop_
_atom_site_type_symbol
_atom_site_label
_atom_site_fract_x
_atom_site_fract_y
_atom_site_fract_z
Si Si1 0.081458 0.071350 0.000000
Si Si2 0.666313 0.976149 0.500000
Si Si3 0.335964 0.469500 0.167740
Si Si4 0.290162 0.092183 0.393661
Si Si5 0.494604 0.789760 0.361193
Si Si6 0.339113 0.865273 0.722260
Si Si7 0.750000 0.250000 0.786905
Si Si8 0.532195 0.353670 0.398249
O O1 0.051854 0.116785 0.953290
O O2 0.000000 0.000000 0.000000
O O3 0.245120 0.042732 0.000000
O O4 0.698706 0.935857 0.449745
O O5 0.500000 0.000000 0.500000
O O6 0.500000 0.500000 0.180137
O O7 0.238782 0.527338 0.141004
O O8 0.241980 0.432451 0.210455
O O9 0.376432 0.407513 0.133192
O O10 0.419001 0.147123 0.385057
O O11 0.140143 0.132404 0.386104
O O12 0.370487 0.825105 0.328142
O O13 0.607729 0.759747 0.321283
O O14 0.444989 0.724049 0.391070
O O15 0.500000 0.874910 0.750000
O O16 0.243944 0.815175 0.754984
#
# Coordination Sequence:
#
# PCOD9500109 Si02
#       8
#     8   8  16  16  16  16   8  16
#     4  12  20  41  67 101 137 182 235 281 345 413
#     4  12  26  41  65 103 139 184 229 281 352 415
#     4  10  22  41  71  99 133 183 240 287 351 420
#     4  11  22  41  66  99 138 182 231 285 346 424
#     4  11  23  39  69 100 138 180 235 287 355 426
#     4  10  23  42  70  97 136 186 226 297 357 408
#     4  10  20  44  64  95 136 177 236 274 358 424
#     4  11  20  39  71  98 134 181 229 281 340 419
#
# _framework density 10.190084000000001
#
# number of rings (size 3 to 8) (size 9 to 14) (size 15 to 20)
#    0.000    1.231    4.615    1.385    2.154    0.615 
#    0.000    6.923    6.769    1.846    0.000    0.000 
#    0.000    0.000    0.000    0.000    0.000    0.000 
#
# Total GULP energy -289621.781340 kJ/mol
# GULP energy per Si atom -5569.649641 kJ/mol
# Density = 1.016689 g / cm^3
# Si number density = 10.190084 Si / 1000 Ang^3
#
#
#
# Elastic Constant Matrix: (Units=GPa)
#
#
# Indices 1 2 3 4 5 6 
#
# 1 64.1549 43.5679 25.2157 0.0000 0.0000 0.0000
# 2 43.5679 200.8941 68.1583 0.0000 0.0000 0.0000
# 3 25.2157 68.1583 90.5077 0.0000 0.0000 0.0000
# 4 0.0000 0.0000 0.0000 45.6055 0.0000 0.0000
# 5 0.0000 0.0000 0.0000 0.0000 16.8352 0.0000
# 6 0.0000 0.0000 0.0000 0.0000 0.0000 53.9681
#
#
#
# Elastic Compliance Matrix: (Units=1/GPa)
#
#
# Indices 1 2 3 4 5 6 
#
# 1 0.018836 -0.003095 -0.002917 0.000000 0.000000 0.000000
# 2 -0.003095 0.007195 -0.004556 0.000000 0.000000 0.000000
# 3 -0.002917 -0.004556 0.015292 0.000000 0.000000 0.000000
# 4 0.000000 0.000000 0.000000 0.021927 0.000000 0.000000
# 5 0.000000 0.000000 0.000000 0.000000 0.059399 0.000000
# 6 0.000000 0.000000 0.000000 0.000000 0.000000 0.018529
#
#
# Mechanical properties :
#
#
# Convention : Reuss Voigt Hill
#
# Bulk Modulus (GPa) = 49.53670 69.93784 59.73727
# Shear Modulus (GPa) = 29.57827 37.85607 33.71717
#
# Velocity S-wave (km/s) = 3.81376 4.31454 4.07186
# Velocity P-wave (km/s) = 6.61454 7.69490 7.17508
#
# Compressibility (1/GPa) = 0.02018705
#
# Stress axis : x y z
#
# Youngs Moduli (GPa) = 53.09064 138.99190 65.39314
#
# Poissons Ratio (x) = 0.43023 0.19073
# Poissons Ratio (y) = 0.16433 0.29791
# Poissons Ratio (z) = 0.15485 0.63320
#
# Static dielectric constant tensor:
#      x y z
#    x 1.864550 0.000000 0.000000 
#    y 0.000000 1.727210 0.000000 
#    z 0.000000 0.000000 1.815000 
# 
# From -- ./inp_files/62735.got.cif
#   From: 2010.05.17/outbox.ucp.g08.bks.cvg/sg66_32_cif.got.tgz:62735.got - 2010.06.11 16:44:13.
