data_PCOD9500133
_publ_section_title
;
Structure prediction by ZEFSAII (Michael W. Deem and Ramdas Pophale) SiO2 
 PCOD9500133
Probable space group: C C C M
;
_chemical_formula_sum "Si O2"
_cell_formula_units_Z 58
_cell_length_a 9.000000
_cell_length_b 24.000000
_cell_length_c 27.000000
_cell_angle_alpha 90.000000
_cell_angle_beta 90.000000
_cell_angle_gamma 90.000000
_cell_volume 5832.000000
_symmetry_space_group_name_H-M "C C C M"
_symmetry_group_IT_number 66
_symmetry_cell_setting 'orthorhombic'
loop_
_space_group_symop_operation_xyz
x,y,z
-x,-y,z
x,-y,1/2-z
-x,y,1/2-z
-x,-y,-z
x,y,-z
-x,y,1/2+z
x,-y,1/2+z
1/2+x,1/2+y,z
1/2-x,1/2-y,z
1/2+x,1/2-y,1/2-z
1/2-x,1/2+y,1/2-z
1/2-x,1/2-y,-z
1/2+x,1/2+y,-z
1/2-x,1/2+y,1/2+z
1/2+x,1/2-y,1/2+z
loop_
_atom_site_type_symbol
_atom_site_label
_atom_site_fract_x
_atom_site_fract_y
_atom_site_fract_z
Si Si1 0.827747 0.502858 0.440321
Si Si2 0.061508 0.321511 0.112346
Si Si3 0.133534 0.384073 0.216044
Si Si4 0.345924 0.306792 0.276292
Si Si5 0.217081 0.630078 0.941370
Si Si6 0.500000 0.000000 0.250000
Si Si7 0.540096 0.691423 0.386955
Si Si8 0.306462 0.617778 0.441149
O O1 0.835503 0.500221 0.500000
O O2 0.754793 0.563729 0.429533
O O3 0.742370 0.445492 0.426881
O O4 0.000000 0.500000 0.422078
O O5 0.912129 0.351890 0.095661
O O6 0.030025 0.254422 0.115106
O O7 0.118709 0.352452 0.162890
O O8 0.171535 0.339268 0.067963
O O9 0.274210 0.358833 0.245944
O O10 0.100950 0.452683 0.219322
O O11 0.000000 0.361658 0.250000
O O12 0.500000 0.293781 0.250000
O O13 0.250000 0.250000 0.273779
O O14 0.381523 0.318795 0.334001
O O15 0.340147 0.677175 0.929680
O O16 0.179101 0.631631 0.000000
O O17 0.422352 0.643795 0.402195
O O18 0.350580 0.617820 0.500000
#
# Coordination Sequence:
#
# PCOD9500133 Si02
#       8
#    16  16  16  16  16   4  16  16
#     4   9  18  39  66  90 119 171 236 281 324 390
#     4  12  23  40  67  98 131 176 229 274 334 419
#     4  10  22  45  71 102 136 177 224 282 351 415
#     4  12  24  44  72  99 133 177 228 293 352 412
#     4  11  23  39  63  95 137 183 226 277 337 405
#     4   8  24  44  78 104 138 180 218 278 368 428
#     4  12  26  40  60  99 137 176 226 276 347 413
#     4  11  24  42  65  96 137 181 228 284 340 406
#
# _framework density 9.9451300000000007
#
# number of rings (size 3 to 8) (size 9 to 14) (size 15 to 20)
#    0.414    0.690    1.379    6.207    0.000    4.966 
#    0.000    2.414    3.034    0.000    0.000    0.000 
#    0.000    0.000    0.000    0.000    0.000    0.000 
#
# Total GULP energy -322970.496040 kJ/mol
# GULP energy per Si atom -5568.456828 kJ/mol
# Density = 0.992249 g / cm^3
# Si number density = 9.945130 Si / 1000 Ang^3
#
#
#
# Elastic Constant Matrix: (Units=GPa)
#
#
# Indices 1 2 3 4 5 6 
#
# 1 71.8517 38.4329 24.2456 0.0000 0.0000 0.0000
# 2 38.4329 174.2911 57.8071 0.0000 0.0000 0.0000
# 3 24.2456 57.8071 98.5863 0.0000 0.0000 0.0000
# 4 0.0000 0.0000 0.0000 137.8930 0.0000 0.0000
# 5 0.0000 0.0000 0.0000 0.0000 40.2208 0.0000
# 6 0.0000 0.0000 0.0000 0.0000 0.0000 33.2086
#
#
#
# Elastic Compliance Matrix: (Units=1/GPa)
#
#
# Indices 1 2 3 4 5 6 
#
# 1 0.016204 -0.002795 -0.002346 0.000000 0.000000 0.000000
# 2 -0.002795 0.007605 -0.003772 0.000000 0.000000 0.000000
# 3 -0.002346 -0.003772 0.012932 0.000000 0.000000 0.000000
# 4 0.000000 0.000000 0.000000 0.007252 0.000000 0.000000
# 5 0.000000 0.000000 0.000000 0.000000 0.024863 0.000000
# 6 0.000000 0.000000 0.000000 0.000000 0.000000 0.030113
#
#
# Mechanical properties :
#
#
# Convention : Reuss Voigt Hill
#
# Bulk Modulus (GPa) = 52.86800 65.07780 58.97290
# Shear Modulus (GPa) = 40.61744 57.21405 48.91574
#
# Velocity S-wave (km/s) = 4.52384 5.36911 4.96449
# Velocity P-wave (km/s) = 7.34332 8.43954 7.91044
#
# Compressibility (1/GPa) = 0.01891503
#
# Stress axis : x y z
#
# Youngs Moduli (GPa) = 61.71197 131.49505 77.32720
#
# Poissons Ratio (x) = 0.36753 0.18143
# Poissons Ratio (y) = 0.17249 0.29166
# Poissons Ratio (z) = 0.14479 0.49597
#
# Static dielectric constant tensor:
#      x y z
#    x 1.915180 0.000000 0.000000 
#    y 0.000000 1.689980 0.000000 
#    z 0.000000 0.000000 1.745340 
# 
# From -- ./inp_files/62883.got.cif
#   From: 2010.05.17/outbox.ucp.g08.bks.cvg/sg66_32_cif.got.tgz:62883.got - 2010.06.11 16:44:13.
