data_PCOD9500344
_publ_section_title
;
Structure prediction by ZEFSAII (Michael W. Deem and Ramdas Pophale) SiO2 
 PCOD9500344
Probable space group: C M M A
;
_chemical_formula_sum "Si O2"
_cell_formula_units_Z 112
_cell_length_a 18.907960
_cell_length_b 15.336218
_cell_length_c 20.819967
_cell_angle_alpha 90.000000
_cell_angle_beta 90.000000
_cell_angle_gamma 90.000000
_cell_volume 6037.303170
_symmetry_space_group_name_H-M "C M M A"
_symmetry_group_IT_number 67
_symmetry_cell_setting 'orthorhombic'
loop_
_space_group_symop_operation_xyz
x,y,z
-x,1/2-y,z
x,-y,-z
-x,1/2+y,-z
-x,-y,-z
x,1/2+y,-z
-x,y,z
x,1/2-y,z
1/2+x,1/2+y,z
1/2-x,-y,z
1/2+x,1/2-y,-z
1/2-x,y,-z
1/2-x,1/2-y,-z
1/2+x,y,-z
1/2-x,1/2+y,z
1/2+x,-y,z
loop_
_atom_site_type_symbol
_atom_site_label
_atom_site_fract_x
_atom_site_fract_y
_atom_site_fract_z
Si Si1 0.798463 0.849931 0.942161
Si Si2 0.302278 0.414734 0.162612
Si Si3 0.893667 0.350400 0.245007
Si Si4 0.082055 0.036093 0.118232
Si Si5 0.270443 0.101394 0.568561
Si Si6 0.259998 0.395602 0.292798
Si Si7 0.424568 0.144915 0.610161
O O1 0.818304 0.750000 0.955527
O O2 0.745692 0.852683 0.880926
O O3 0.867984 0.906814 0.928659
O O4 0.750000 0.884741 0.000000
O O5 0.250000 0.500000 0.166580
O O6 0.374229 0.447001 0.129679
O O7 0.316106 0.384030 0.235652
O O8 0.912334 0.250000 0.230641
O O9 0.914303 0.411939 0.186427
O O10 0.810357 0.357191 0.260029
O O11 0.924503 0.376873 0.314044
O O12 0.000000 0.026774 0.099566
O O13 0.250000 0.141569 0.500000
O O14 0.235219 0.138555 0.634315
O O15 0.354438 0.107594 0.578918
O O16 0.250000 0.000000 0.565616
O O17 0.250000 0.500000 0.300649
O O18 0.500000 0.117779 0.581840
O O19 0.419300 0.250000 0.606951
#
# Coordination Sequence:
#
# PCOD9500344 Si02
#       7
#    16  16  16  16  16  16  16
#     4  10  21  37  56  77 102 134 169 205 247 298
#     4   9  17  32  51  73  99 136 172 201 240 305
#     4  10  17  27  46  77 105 126 157 203 260 307
#     4  11  21  32  51  80 109 132 160 207 260 301
#     4   9  18  30  46  69 100 136 175 215 248 292
#     4   9  14  28  49  67  97 135 171 206 242 298
#     4   9  18  31  48  70  99 133 164 203 261 319
#
# _framework density 18.551328999999999
#
# number of rings (size 3 to 8) (size 9 to 14) (size 15 to 20)
#    0.000    2.429    4.286    0.857    0.000    4.571 
#    0.000    2.857    0.000    2.143    0.000    0.000 
#    0.000    0.000    0.000    0.000    0.000    0.000 
#
# Total GULP energy -311796.572371 kJ/mol
# GULP energy per Si atom -5567.795935 kJ/mol
# Density = 1.850911 g / cm^3
# Si number density = 18.551329 Si / 1000 Ang^3
#
#
#
# Elastic Constant Matrix: (Units=GPa)
#
#
# Indices 1 2 3 4 5 6 
#
# 1 135.4839 25.4305 34.5297 0.0000 0.0000 0.0000
# 2 25.4305 24.7550 -1.2024 0.0000 0.0000 0.0000
# 3 34.5297 -1.2024 86.7855 0.0000 0.0000 0.0000
# 4 0.0000 0.0000 0.0000 9.1652 0.0000 0.0000
# 5 0.0000 0.0000 0.0000 0.0000 9.8500 0.0000
# 6 0.0000 0.0000 0.0000 0.0000 0.0000 25.4097
#
#
#
# Elastic Compliance Matrix: (Units=1/GPa)
#
#
# Indices 1 2 3 4 5 6 
#
# 1 0.010570 -0.011070 -0.004359 0.000000 0.000000 0.000000
# 2 -0.011070 0.052017 0.005125 0.000000 0.000000 0.000000
# 3 -0.004359 0.005125 0.013328 0.000000 0.000000 0.000000
# 4 0.000000 0.000000 0.000000 0.109109 0.000000 0.000000
# 5 0.000000 0.000000 0.000000 0.000000 0.101523 0.000000
# 6 0.000000 0.000000 0.000000 0.000000 0.000000 0.039355
#
#
# Mechanical properties :
#
#
# Convention : Reuss Voigt Hill
#
# Bulk Modulus (GPa) = 18.08082 40.50445 29.29264
# Shear Modulus (GPa) = 13.70073 21.43607 17.56840
#
# Velocity S-wave (km/s) = 2.72054 3.40295 3.08070
# Velocity P-wave (km/s) = 4.43125 6.10911 5.33654
#
# Compressibility (1/GPa) = 0.05530723
#
# Stress axis : x y z
#
# Youngs Moduli (GPa) = 94.61047 19.22463 75.03052
#
# Poissons Ratio (x) = 0.21281 0.32704
# Poissons Ratio (y) = 1.04732 -0.38454
# Poissons Ratio (z) = 0.41239 -0.09853
#
# Static dielectric constant tensor:
#      x y z
#    x 1.665870 0.000000 0.000000 
#    y 0.000000 1.658120 0.000000 
#    z 0.000000 0.000000 1.725130 
# 
# From -- ./inp_files/39049.got.cif
#   From: 2010.05.17/outbox.cif.g08.bks.cpg/sg67_20_cif.got.tgz:39049.got - 2010.06.03 18:28:57.
