data_PCOD9500007
_publ_section_title
;
Structure prediction by ZEFSAII (Michael W. Deem and Ramdas Pophale) SiO2 
 PCOD9500007
Probable space group: C C C M
;
_chemical_formula_sum "Si O2"
_cell_formula_units_Z 64
_cell_length_a 8.446495
_cell_length_b 13.777122
_cell_length_c 21.114668
_cell_angle_alpha 90.000000
_cell_angle_beta 90.000000
_cell_angle_gamma 90.000000
_cell_volume 2457.079965
_symmetry_space_group_name_H-M "C C C M"
_symmetry_group_IT_number 66
_symmetry_cell_setting 'orthorhombic'
loop_
_space_group_symop_operation_xyz
x,y,z
-x,-y,z
x,-y,1/2-z
-x,y,1/2-z
-x,-y,-z
x,y,-z
-x,y,1/2+z
x,-y,1/2+z
1/2+x,1/2+y,z
1/2-x,1/2-y,z
1/2+x,1/2-y,1/2-z
1/2-x,1/2+y,1/2-z
1/2-x,1/2-y,-z
1/2+x,1/2+y,-z
1/2-x,1/2+y,1/2+z
1/2+x,1/2-y,1/2+z
loop_
_atom_site_type_symbol
_atom_site_label
_atom_site_fract_x
_atom_site_fract_y
_atom_site_fract_z
Si Si1 0.090575 0.792808 0.619554
Si Si2 0.857766 0.426815 0.500000
Si Si3 0.434675 0.728105 0.000000
Si Si4 0.633122 0.159044 0.800573
Si Si5 0.315077 0.519512 0.632720
O O1 0.250000 0.750000 0.591193
O O2 0.982659 0.830319 0.562105
O O3 0.979643 0.710886 0.647920
O O4 0.164254 0.874062 0.666412
O O5 0.762970 0.454049 0.564786
O O6 0.000000 0.500000 0.500000
O O7 0.955028 0.324536 0.500000
O O8 0.250000 0.750000 0.000000
O O9 0.500000 0.128109 0.750000
O O10 0.750000 0.250000 0.782928
O O11 0.725351 0.066606 0.830415
O O12 0.500000 0.500000 0.627996
#
# Coordination Sequence:
#
# PCOD9500007 Si02
#       5
#    16   8   8  16  16
#     4  12  25  50  83 121 166 215 274 343 421 498
#     4  12  26  46  80 130 177 215 270 341 430 511
#     4  12  26  45  82 122 177 230 265 331 425 517
#     4  12  28  56  85 118 161 219 289 359 420 502
#     4  12  27  51  87 125 166 217 275 344 427 516
#
# _framework density 26.047177000000001
#
# number of rings (size 3 to 8) (size 9 to 14) (size 15 to 20)
#    0.000    0.000    5.000    4.500    3.500    0.000 
#    0.000   10.625    0.000    0.000    0.000    0.000 
#    0.000    0.000    0.000    0.000    0.000    0.000 
#
# Total GULP energy -178631.845387 kJ/mol
# GULP energy per Si atom -5582.245168 kJ/mol
# Density = 2.598789 g / cm^3
# Si number density = 26.047177 Si / 1000 Ang^3
#
#
#
# Elastic Constant Matrix: (Units=GPa)
#
#
# Indices 1 2 3 4 5 6 
#
# 1 255.1366 102.2229 77.4837 0.0000 0.0000 0.0000
# 2 102.2229 174.2866 73.6875 0.0000 0.0000 0.0000
# 3 77.4837 73.6875 116.6978 0.0000 0.0000 0.0000
# 4 0.0000 0.0000 0.0000 15.2146 0.0000 0.0000
# 5 0.0000 0.0000 0.0000 0.0000 19.0643 0.0000
# 6 0.0000 0.0000 0.0000 0.0000 0.0000 62.5813
#
#
#
# Elastic Compliance Matrix: (Units=1/GPa)
#
#
# Indices 1 2 3 4 5 6 
#
# 1 0.005511 -0.002299 -0.002207 0.000000 0.000000 0.000000
# 2 -0.002299 0.008786 -0.004022 0.000000 0.000000 0.000000
# 3 -0.002207 -0.004022 0.012574 0.000000 0.000000 0.000000
# 4 0.000000 0.000000 0.000000 0.065726 0.000000 0.000000
# 5 0.000000 0.000000 0.000000 0.000000 0.052454 0.000000
# 6 0.000000 0.000000 0.000000 0.000000 0.000000 0.015979
#
#
# Mechanical properties :
#
#
# Convention : Reuss Voigt Hill
#
# Bulk Modulus (GPa) = 101.87978 116.98991 109.43485
# Shear Modulus (GPa) = 27.56961 38.88718 33.22840
#
# Velocity S-wave (km/s) = 3.25691 3.86807 3.57557
# Velocity P-wave (km/s) = 7.30354 8.05986 7.69101
#
# Compressibility (1/GPa) = 0.00981549
#
# Stress axis : x y z
#
# Youngs Moduli (GPa) = 181.45603 113.81201 79.52789
#
# Poissons Ratio (x) = 0.26166 0.17555
# Poissons Ratio (y) = 0.41717 0.31983
# Poissons Ratio (z) = 0.40055 0.45771
#
# Static dielectric constant tensor:
#      x y z
#    x 1.981610 0.000000 0.000000 
#    y 0.000000 2.505390 0.000000 
#    z 0.000000 0.000000 2.137720 
# 
# From -- ./inp_files/62114.got.cif
#   From: 2010.05.17/outbox.cif.g08.bks.cpg/sg66_32_cif.got.tgz:62114.got - 2010.06.03 17:51:23.
