data_PCOD9500085
_publ_section_title
;
Structure prediction by ZEFSAII (Michael W. Deem and Ramdas Pophale) SiO2 
 PCOD9500085
Probable space group: C C C M
;
_chemical_formula_sum "Si O2"
_cell_formula_units_Z 56
_cell_length_a 12.000000
_cell_length_b 30.000000
_cell_length_c 15.000000
_cell_angle_alpha 90.000000
_cell_angle_beta 90.000000
_cell_angle_gamma 90.000000
_cell_volume 5400.000000
_symmetry_space_group_name_H-M "C C C M"
_symmetry_group_IT_number 66
_symmetry_cell_setting 'orthorhombic'
loop_
_space_group_symop_operation_xyz
x,y,z
-x,-y,z
x,-y,1/2-z
-x,y,1/2-z
-x,-y,-z
x,y,-z
-x,y,1/2+z
x,-y,1/2+z
1/2+x,1/2+y,z
1/2-x,1/2-y,z
1/2+x,1/2-y,1/2-z
1/2-x,1/2+y,1/2-z
1/2-x,1/2-y,-z
1/2+x,1/2+y,-z
1/2-x,1/2+y,1/2+z
1/2+x,1/2-y,1/2+z
loop_
_atom_site_type_symbol
_atom_site_label
_atom_site_fract_x
_atom_site_fract_y
_atom_site_fract_z
Si Si1 0.595073 0.406510 0.608685
Si Si2 0.282693 0.841396 0.606534
Si Si3 0.955901 0.579352 0.850012
Si Si4 0.649958 0.141670 0.101698
Si Si5 0.341349 0.422397 0.391166
Si Si6 0.632849 0.221723 0.241331
Si Si7 0.735054 0.015580 0.607650
O O1 0.593313 0.407205 0.500000
O O2 0.659592 0.360518 0.631783
O O3 0.468576 0.415086 0.638877
O O4 0.674159 0.447513 0.637007
O O5 0.285603 0.832833 0.500000
O O6 0.364154 0.882824 0.628401
O O7 0.329175 0.800947 0.665187
O O8 0.888469 0.533599 0.868582
O O9 0.000000 0.578437 0.750000
O O10 0.063623 0.599813 0.899774
O O11 0.765979 0.119862 0.132521
O O12 0.620121 0.181428 0.169036
O O13 0.658211 0.158277 0.000000
O O14 0.343404 0.424773 0.500000
O O15 0.278759 0.467511 0.359927
O O16 0.500000 0.239343 0.250000
O O17 0.750000 0.250000 0.217555
O O18 0.737065 0.014484 0.500000
#
# Coordination Sequence:
#
# PCOD9500085 Si02
#       7
#    16  16  16  16  16  16  16
#     4   8  15  29  56  89 123 166 211 259 314 373
#     4  10  19  38  69  96 121 161 212 262 323 399
#     4  11  19  35  61  89 122 169 219 266 309 372
#     4  11  22  40  65  88 124 173 214 256 316 388
#     4   9  18  32  53  88 129 168 214 264 316 374
#     4  12  27  47  69  99 130 162 206 269 340 405
#     4   9  17  30  54  89 126 168 218 269 317 368
#
# _framework density 10.370369999999999
#
# number of rings (size 3 to 8) (size 9 to 14) (size 15 to 20)
#    0.000    2.000    2.857    2.571    0.000    4.000 
#    0.000    4.286    0.000    0.000    3.714    0.000 
#    0.000    0.000    0.000    0.000    0.000    0.000 
#
# Total GULP energy -312265.700520 kJ/mol
# GULP energy per Si atom -5576.173224 kJ/mol
# Density = 1.034677 g / cm^3
# Si number density = 10.370370 Si / 1000 Ang^3
#
#
#
# Elastic Constant Matrix: (Units=GPa)
#
#
# Indices 1 2 3 4 5 6 
#
# 1 147.5362 41.3085 19.5074 0.0000 0.0000 0.0000
# 2 41.3085 38.1980 18.1168 0.0000 0.0000 0.0000
# 3 19.5074 18.1168 72.8619 0.0000 0.0000 0.0000
# 4 0.0000 0.0000 0.0000 19.3275 0.0000 0.0000
# 5 0.0000 0.0000 0.0000 0.0000 18.7520 0.0000
# 6 0.0000 0.0000 0.0000 0.0000 0.0000 36.6481
#
#
#
# Elastic Compliance Matrix: (Units=1/GPa)
#
#
# Indices 1 2 3 4 5 6 
#
# 1 0.009722 -0.010519 0.000013 0.000000 0.000000 0.000000
# 2 -0.010519 0.041062 -0.007394 0.000000 0.000000 0.000000
# 3 0.000013 -0.007394 0.015560 0.000000 0.000000 0.000000
# 4 0.000000 0.000000 0.000000 0.051740 0.000000 0.000000
# 5 0.000000 0.000000 0.000000 0.000000 0.053328 0.000000
# 6 0.000000 0.000000 0.000000 0.000000 0.000000 0.027287
#
#
# Mechanical properties :
#
#
# Convention : Reuss Voigt Hill
#
# Bulk Modulus (GPa) = 32.74071 46.27348 39.50710
# Shear Modulus (GPa) = 20.43501 26.92309 23.67905
#
# Velocity S-wave (km/s) = 3.14229 3.60679 3.38252
# Velocity P-wave (km/s) = 5.38380 6.30112 5.86044
#
# Compressibility (1/GPa) = 0.03054302
#
# Stress axis : x y z
#
# Youngs Moduli (GPa) = 102.86383 24.35341 64.26921
#
# Poissons Ratio (x) = 0.25618 -0.00082
# Poissons Ratio (y) = 1.08206 0.47518
# Poissons Ratio (z) = -0.00132 0.18006
#
# Static dielectric constant tensor:
#      x y z
#    x 1.785050 0.000000 0.000000 
#    y 0.000000 1.740120 0.000000 
#    z 0.000000 0.000000 1.793360 
# 
# From -- ./inp_files/27022.got.cif
#   From: 2010.05.17/outbox.ucp.g08.bks.cvg/sg66_14_cif.got.tgz:27022.got - 2010.06.11 16:44:13.
