data_PCOD9500208
_publ_section_title
;
Structure prediction by ZEFSAII (Michael W. Deem and Ramdas Pophale) SiO2 
 PCOD9500208
Probable space group: C M M A
;
_chemical_formula_sum "Si O2"
_cell_formula_units_Z 56
_cell_length_a 5.577566
_cell_length_b 19.117377
_cell_length_c 25.239233
_cell_angle_alpha 90.000000
_cell_angle_beta 90.000000
_cell_angle_gamma 90.000000
_cell_volume 2691.219839
_symmetry_space_group_name_H-M "C M M A"
_symmetry_group_IT_number 67
_symmetry_cell_setting 'orthorhombic'
loop_
_space_group_symop_operation_xyz
x,y,z
-x,1/2-y,z
x,-y,-z
-x,1/2+y,-z
-x,-y,-z
x,1/2+y,-z
-x,y,z
x,1/2-y,z
1/2+x,1/2+y,z
1/2-x,-y,z
1/2+x,1/2-y,-z
1/2-x,y,-z
1/2-x,1/2-y,-z
1/2+x,y,-z
1/2-x,1/2+y,z
1/2+x,-y,z
loop_
_atom_site_type_symbol
_atom_site_label
_atom_site_fract_x
_atom_site_fract_y
_atom_site_fract_z
Si Si1 0.500000 0.382493 0.852310
Si Si2 0.500000 0.581613 0.352317
Si Si3 0.500000 0.750000 0.227551
Si Si4 0.000000 0.080666 0.478885
Si Si5 0.000000 0.422280 0.689910
Si Si6 0.000000 0.834345 0.973198
Si Si7 0.000000 0.404229 0.814201
Si Si8 0.500000 0.750000 0.775032
O O1 0.500000 0.318201 0.810188
O O2 0.500000 0.354721 0.911786
O O3 0.748438 0.422305 0.841141
O O4 0.500000 0.582302 0.415575
O O5 0.250246 0.611207 0.329397
O O6 0.500000 0.500361 0.334095
O O7 0.247033 0.750000 0.256724
O O8 0.250000 0.111890 0.500000
O O9 0.000000 0.000000 0.500000
O O10 0.000000 0.427590 0.753208
O O11 0.000000 0.750000 0.977203
O O12 0.750000 0.858968 0.000000
O O13 0.000000 0.318894 0.811232
#
# Coordination Sequence:
#
# PCOD9500208 Si02
#       8
#     8   8   4   8   8   8   8   4
#     4  10  17  29  40  58  80 109 141 183 206 246
#     4  10  19  30  45  62  95 124 138 178 220 250
#     4   8  14  24  38  51  74 102 132 167 210 228
#     4  10  16  25  41  63  86 118 148 164 198 258
#     4  10  18  30  42  62  84 121 154 171 216 262
#     4  10  19  28  41  60  82 111 143 175 215 263
#     4  10  19  28  45  60  82 115 152 183 209 248
#     4   8  16  26  38  57  76 104 142 181 208 226
#
# _framework density 20.808406000000002
#
# number of rings (size 3 to 8) (size 9 to 14) (size 15 to 20)
#    0.000    2.286    0.714    6.000    0.000    0.000 
#    0.000    0.000    0.000    0.000    0.000    0.000 
#    0.000    0.000    0.000  227.571    0.000    0.000 
#
# Total GULP energy -156092.984609 kJ/mol
# GULP energy per Si atom -5574.749450 kJ/mol
# Density = 2.076105 g / cm^3
# Si number density = 20.808406 Si / 1000 Ang^3
#
#
#
# Elastic Constant Matrix: (Units=GPa)
#
#
# Indices 1 2 3 4 5 6 
#
# 1 290.7286 0.1504 56.6926 0.0000 0.0000 0.0000
# 2 0.1504 50.7731 -7.8141 0.0000 0.0000 0.0000
# 3 56.6926 -7.8141 85.7636 0.0000 0.0000 0.0000
# 4 0.0000 0.0000 0.0000 31.7982 0.0000 0.0000
# 5 0.0000 0.0000 0.0000 0.0000 38.7034 0.0000
# 6 0.0000 0.0000 0.0000 0.0000 0.0000 -21.6440
#
#
#
# Elastic Compliance Matrix: (Units=1/GPa)
#
#
# Indices 1 2 3 4 5 6 
#
# 1 0.003957 -0.000420 -0.002654 0.000000 0.000000 0.000000
# 2 -0.000420 0.020020 0.002102 0.000000 0.000000 0.000000
# 3 -0.002654 0.002102 0.013606 0.000000 0.000000 0.000000
# 4 0.000000 0.000000 0.000000 0.031448 0.000000 0.000000
# 5 0.000000 0.000000 0.000000 0.000000 0.025838 0.000000
# 6 0.000000 0.000000 0.000000 0.000000 0.000000 -0.046202
#
#
# Mechanical properties :
#
#
# Convention : Reuss Voigt Hill
#
# Bulk Modulus (GPa) = 28.05965 58.36923 43.21444
# Shear Modulus (GPa) = 80.01011 34.98728 57.49870
#
# Velocity S-wave (km/s) = 6.20760 4.10494 5.26236
# Velocity P-wave (km/s) = 8.05563 7.11189 7.59843
#
# Compressibility (1/GPa) = 0.03563836
#
# Stress axis : x y z
#
# Youngs Moduli (GPa) = 252.68838 49.94958 73.49678
#
# Poissons Ratio (x) = 0.02099 0.19508
# Poissons Ratio (y) = 0.10618 -0.15448
# Poissons Ratio (z) = 0.67071 -0.10499
#
# Static dielectric constant tensor:
#      x y z
#    x 1.902230 0.000000 0.000000 
#    y 0.000000 1.740140 0.000000 
#    z 0.000000 0.000000 1.669900 
# 
# From -- ./inp_files/36023.got.cif
#   From: 2010.05.17/outbox.cif.g08.bks.cpg/sg67_19_cif.got.tgz:36023.got - 2010.06.03 18:28:57.
