data_PCOD9500211
_publ_section_title
;
Structure prediction by ZEFSAII (Michael W. Deem and Ramdas Pophale) SiO2 
 PCOD9500211
Probable space group: C M M A
;
_chemical_formula_sum "Si O2"
_cell_formula_units_Z 128
_cell_length_a 27.245169
_cell_length_b 23.880912
_cell_length_c 9.465351
_cell_angle_alpha 90.000000
_cell_angle_beta 90.000000
_cell_angle_gamma 90.000000
_cell_volume 6158.531084
_symmetry_space_group_name_H-M "C M M A"
_symmetry_group_IT_number 67
_symmetry_cell_setting 'orthorhombic'
loop_
_space_group_symop_operation_xyz
x,y,z
-x,1/2-y,z
x,-y,-z
-x,1/2+y,-z
-x,-y,-z
x,1/2+y,-z
-x,y,z
x,1/2-y,z
1/2+x,1/2+y,z
1/2-x,-y,z
1/2+x,1/2-y,-z
1/2-x,y,-z
1/2-x,1/2-y,-z
1/2+x,y,-z
1/2-x,1/2+y,z
1/2+x,-y,z
loop_
_atom_site_type_symbol
_atom_site_label
_atom_site_fract_x
_atom_site_fract_y
_atom_site_fract_z
Si Si1 0.642956 0.114122 0.792955
Si Si2 0.886483 0.930407 0.223062
Si Si3 0.598908 0.313388 0.547590
Si Si4 0.057232 0.961681 0.826454
Si Si5 0.765826 0.311543 0.159822
Si Si6 0.692934 0.994348 0.332097
Si Si7 0.052725 0.422775 0.500300
Si Si8 0.842272 0.184750 0.740467
O O1 0.620350 0.160071 0.688913
O O2 0.598510 0.083491 0.877244
O O3 0.689401 0.145812 0.855814
O O4 0.668235 0.064118 0.706632
O O5 0.906022 0.934130 0.385195
O O6 0.875290 0.865068 0.189137
O O7 0.923525 0.974707 0.148035
O O8 0.834398 0.960575 0.234489
O O9 0.583276 0.250000 0.563847
O O10 0.555344 0.355806 0.511873
O O11 0.639318 0.315950 0.422041
O O12 0.058814 0.949130 0.655035
O O13 0.000000 0.954103 0.867573
O O14 0.781504 0.250000 0.216825
O O15 0.715851 0.328174 0.243373
O O16 0.750000 0.304524 0.000000
O O17 0.686701 0.000000 0.500000
O O18 0.750000 0.000000 0.301930
O O19 0.000000 0.440224 0.558223
O O20 0.849131 0.250000 0.790975
#
# Coordination Sequence:
#
# PCOD9500211 Si02
#       8
#    16  16  16  16  16  16  16  16
#     4  10  19  31  49  74 103 133 168 210 250 297
#     4  10  16  26  43  63  92 130 166 199 241 291
#     4   9  17  28  43  67 100 133 162 199 250 303
#     4   9  17  28  45  70  99 132 167 203 244 293
#     4  10  21  37  56  76  99 132 173 213 257 309
#     4  10  18  26  40  65  97 131 164 198 239 292
#     4   9  16  25  39  63  96 133 170 202 234 285
#     4   9  18  31  47  70  99 129 164 206 252 306
#
# _framework density 20.784178000000001
#
# number of rings (size 3 to 8) (size 9 to 14) (size 15 to 20)
#    0.000    2.500    0.000    4.875    0.000    2.750 
#    0.000    1.875    0.000   11.625    0.000    5.250 
#    0.000   15.000    0.000    0.000    0.000    0.000 
#
# Total GULP energy -356363.074096 kJ/mol
# GULP energy per Si atom -5568.173033 kJ/mol
# Density = 2.073687 g / cm^3
# Si number density = 20.784178 Si / 1000 Ang^3
#
#
#
# Elastic Constant Matrix: (Units=GPa)
#
#
# Indices 1 2 3 4 5 6 
#
# 1 145.4959 58.8657 14.1222 0.0000 0.0000 0.0000
# 2 58.8657 162.1529 14.9872 0.0000 0.0000 0.0000
# 3 14.1222 14.9872 21.7084 0.0000 0.0000 0.0000
# 4 0.0000 0.0000 0.0000 18.8284 0.0000 0.0000
# 5 0.0000 0.0000 0.0000 0.0000 3.7537 0.0000
# 6 0.0000 0.0000 0.0000 0.0000 0.0000 25.3834
#
#
#
# Elastic Compliance Matrix: (Units=1/GPa)
#
#
# Indices 1 2 3 4 5 6 
#
# 1 0.008304 -0.002687 -0.003547 0.000000 0.000000 0.000000
# 2 -0.002687 0.007457 -0.003400 0.000000 0.000000 0.000000
# 3 -0.003547 -0.003400 0.050720 0.000000 0.000000 0.000000
# 4 0.000000 0.000000 0.000000 0.053111 0.000000 0.000000
# 5 0.000000 0.000000 0.000000 0.000000 0.266401 0.000000
# 6 0.000000 0.000000 0.000000 0.000000 0.000000 0.039396
#
#
# Mechanical properties :
#
#
# Convention : Reuss Voigt Hill
#
# Bulk Modulus (GPa) = 21.18075 56.14526 38.66300
# Shear Modulus (GPa) = 10.86021 25.68525 18.27273
#
# Velocity S-wave (km/s) = 2.28836 3.51922 2.96829
# Velocity P-wave (km/s) = 4.14669 6.60192 5.51273
#
# Compressibility (1/GPa) = 0.04721268
#
# Stress axis : x y z
#
# Youngs Moduli (GPa) = 120.41763 134.10820 19.71599
#
# Poissons Ratio (x) = 0.36033 0.06994
# Poissons Ratio (y) = 0.32354 0.06704
# Poissons Ratio (z) = 0.42717 0.45598
#
# Static dielectric constant tensor:
#      x y z
#    x 1.856650 0.000000 0.000000 
#    y 0.000000 1.815160 0.000000 
#    z 0.000000 0.000000 1.777150 
# 
# From -- ./inp_files/23279.got.cif
#   From: 2010.05.17/outbox.cif.g08.bks.cpg/sg67_12_cif.got.tgz:23279.got - 2010.06.03 18:28:57.
