data_PCOD9500361
_publ_section_title
;
Structure prediction by ZEFSAII (Michael W. Deem and Ramdas Pophale) SiO2 
 PCOD9500361
Probable space group: C M M A
;
_chemical_formula_sum "Si O2"
_cell_formula_units_Z 112
_cell_length_a 20.528618
_cell_length_b 18.020953
_cell_length_c 18.828512
_cell_angle_alpha 90.000000
_cell_angle_beta 90.000000
_cell_angle_gamma 90.000000
_cell_volume 6965.518770
_symmetry_space_group_name_H-M "C M M A"
_symmetry_group_IT_number 67
_symmetry_cell_setting 'orthorhombic'
loop_
_space_group_symop_operation_xyz
x,y,z
-x,1/2-y,z
x,-y,-z
-x,1/2+y,-z
-x,-y,-z
x,1/2+y,-z
-x,y,z
x,1/2-y,z
1/2+x,1/2+y,z
1/2-x,-y,z
1/2+x,1/2-y,-z
1/2-x,y,-z
1/2-x,1/2-y,-z
1/2+x,y,-z
1/2-x,1/2+y,z
1/2+x,-y,z
loop_
_atom_site_type_symbol
_atom_site_label
_atom_site_fract_x
_atom_site_fract_y
_atom_site_fract_z
Si Si1 0.077206 0.486277 0.917220
Si Si2 0.075433 0.339139 0.572180
Si Si3 0.815828 0.659950 0.539594
Si Si4 0.923095 0.669680 0.149748
Si Si5 0.355297 0.613026 0.710941
Si Si6 0.791520 0.162567 0.301477
Si Si7 0.678042 0.029947 0.799662
O O1 0.089480 0.399530 0.900856
O O2 0.126098 0.528163 0.863670
O O3 0.000000 0.501788 0.902711
O O4 0.089247 0.500000 0.000000
O O5 0.083600 0.250000 0.583853
O O6 0.122285 0.361029 0.507483
O O7 0.098792 0.379855 0.643199
O O8 0.000000 0.352998 0.557141
O O9 0.812411 0.750000 0.540703
O O10 0.750000 0.633722 0.500000
O O11 0.819385 0.637930 0.621892
O O12 0.906348 0.750000 0.118982
O O13 0.885531 0.656881 0.222788
O O14 0.000000 0.668591 0.165725
O O15 0.285969 0.649028 0.692242
O O16 0.344662 0.529913 0.740250
O O17 0.804437 0.250000 0.289994
O O18 0.815135 0.109396 0.238185
O O19 0.750000 0.000000 0.822514
#
# Coordination Sequence:
#
# PCOD9500361 Si02
#       7
#    16  16  16  16  16  16  16
#     4   9  18  34  54  73  98 134 166 194 243 304
#     4  10  18  27  44  72  99 124 161 205 245 291
#     4   9  16  28  46  67  92 129 169 202 242 290
#     4   9  16  26  44  73 102 124 151 192 243 296
#     4  10  17  28  46  69  99 127 154 196 252 300
#     4  10  18  31  51  69  92 129 172 208 241 288
#     4   9  20  34  50  75 102 125 160 201 242 297
#
# _framework density 16.079204000000001
#
# number of rings (size 3 to 8) (size 9 to 14) (size 15 to 20)
#    0.000    2.571    1.429    1.714    0.000    2.000 
#    0.000    2.143    0.000    3.000    0.000    6.000 
#    0.000    0.000    0.000    0.000    0.000    0.000 
#
# Total GULP energy -311992.397718 kJ/mol
# GULP energy per Si atom -5571.292816 kJ/mol
# Density = 1.604261 g / cm^3
# Si number density = 16.079204 Si / 1000 Ang^3
#
#
#
# Elastic Constant Matrix: (Units=GPa)
#
#
# Indices 1 2 3 4 5 6 
#
# 1 92.3475 34.0382 71.5147 0.0000 0.0000 0.0000
# 2 34.0382 55.1456 38.1034 0.0000 0.0000 0.0000
# 3 71.5147 38.1034 118.0401 0.0000 0.0000 0.0000
# 4 0.0000 0.0000 0.0000 8.8073 0.0000 0.0000
# 5 0.0000 0.0000 0.0000 0.0000 30.9423 0.0000
# 6 0.0000 0.0000 0.0000 0.0000 0.0000 16.7467
#
#
#
# Elastic Compliance Matrix: (Units=1/GPa)
#
#
# Indices 1 2 3 4 5 6 
#
# 1 0.021636 -0.005531 -0.011323 0.000000 0.000000 0.000000
# 2 -0.005531 0.024753 -0.004639 0.000000 0.000000 0.000000
# 3 -0.011323 -0.004639 0.016829 0.000000 0.000000 0.000000
# 4 0.000000 0.000000 0.000000 0.113543 0.000000 0.000000
# 5 0.000000 0.000000 0.000000 0.000000 0.032318 0.000000
# 6 0.000000 0.000000 0.000000 0.000000 0.000000 0.059713
#
#
# Mechanical properties :
#
#
# Convention : Reuss Voigt Hill
#
# Bulk Modulus (GPa) = 49.42630 61.42732 55.42681
# Shear Modulus (GPa) = 15.69750 19.42439 17.56095
#
# Velocity S-wave (km/s) = 3.12791 3.47946 3.30836
# Velocity P-wave (km/s) = 6.62201 7.37754 7.00996
#
# Compressibility (1/GPa) = 0.02023214
#
# Stress axis : x y z
#
# Youngs Moduli (GPa) = 46.22013 40.39844 59.42083
#
# Poissons Ratio (x) = 0.22344 0.67280
# Poissons Ratio (y) = 0.25564 0.27568
# Poissons Ratio (z) = 0.52333 0.18743
#
# Static dielectric constant tensor:
#      x y z
#    x 1.541420 0.000000 0.000000 
#    y 0.000000 1.551950 0.000000 
#    z 0.000000 0.000000 1.517470 
# 
# From -- ./inp_files/35115.got.cif
#   From: 2010.05.17/outbox.cif.g08.bks.cpg/sg67_18_cif.got.tgz:35115.got - 2010.06.03 18:28:57.
