data_PCOD9500301
_publ_section_title
;
Structure prediction by ZEFSAII (Michael W. Deem and Ramdas Pophale) SiO2 
 PCOD9500301
Probable space group: C M M A
;
_chemical_formula_sum "Si O2"
_cell_formula_units_Z 96
_cell_length_a 19.111129
_cell_length_b 8.603802
_cell_length_c 32.539204
_cell_angle_alpha 90.000000
_cell_angle_beta 90.000000
_cell_angle_gamma 90.000000
_cell_volume 5350.368272
_symmetry_space_group_name_H-M "C M M A"
_symmetry_group_IT_number 67
_symmetry_cell_setting 'orthorhombic'
loop_
_space_group_symop_operation_xyz
x,y,z
-x,1/2-y,z
x,-y,-z
-x,1/2+y,-z
-x,-y,-z
x,1/2+y,-z
-x,y,z
x,1/2-y,z
1/2+x,1/2+y,z
1/2-x,-y,z
1/2+x,1/2-y,-z
1/2-x,y,-z
1/2-x,1/2-y,-z
1/2+x,y,-z
1/2-x,1/2+y,z
1/2+x,-y,z
loop_
_atom_site_type_symbol
_atom_site_label
_atom_site_fract_x
_atom_site_fract_y
_atom_site_fract_z
Si Si1 0.170320 0.064932 0.042189
Si Si2 0.828927 0.562742 0.628015
Si Si3 0.828507 0.433995 0.872529
Si Si4 0.583611 0.564489 0.202028
Si Si5 0.329898 0.564294 0.542379
Si Si6 0.919668 0.939238 0.706007
O O1 0.172125 0.250000 0.040729
O O2 0.250000 0.000000 0.042886
O O3 0.140295 0.007342 0.085533
O O4 0.137780 0.000000 0.000000
O O5 0.827509 0.750000 0.625752
O O6 0.750000 0.500000 0.631769
O O7 0.860230 0.497453 0.585320
O O8 0.872179 0.512243 0.667996
O O9 0.823853 0.250000 0.877889
O O10 0.750000 0.500000 0.866813
O O11 0.874657 0.478363 0.833408
O O12 0.500000 0.540987 0.198425
O O13 0.596427 0.750000 0.198345
O O14 0.604213 0.513626 0.248288
O O15 0.362065 0.500000 0.500000
O O16 0.328400 0.750000 0.541675
O O17 0.250000 0.500000 0.542828
O O18 0.919986 0.750000 0.706386
O O19 0.000000 0.989441 0.700383
#
# Coordination Sequence:
#
# PCOD9500301 Si02
#       6
#    16  16  16  16  16  16
#     4  10  17  28  46  70 100 132 166 202 246 295
#     4  10  18  29  47  72 100 126 157 197 240 284
#     4  11  21  33  50  75 105 134 169 210 252 294
#     4   9  18  35  56  75  98 131 169 206 249 302
#     4  10  17  27  43  65  94 125 158 193 234 282
#     4   8  16  32  53  73  94 126 165 200 238 289
#
# _framework density 17.942689999999999
#
# number of rings (size 3 to 8) (size 9 to 14) (size 15 to 20)
#    0.000    2.333    0.000    9.000    0.000    1.000 
#    0.000    3.333    0.000    5.000    0.000    0.000 
#    0.000    0.000    0.000    0.000    0.000    0.000 
#
# Total GULP energy -267604.503782 kJ/mol
# GULP energy per Si atom -5575.093829 kJ/mol
# Density = 1.790185 g / cm^3
# Si number density = 17.942690 Si / 1000 Ang^3
#
#
#
# Elastic Constant Matrix: (Units=GPa)
#
#
# Indices 1 2 3 4 5 6 
#
# 1 23.0079 22.5913 50.9984 0.0000 0.0000 0.0000
# 2 22.5913 125.0920 66.8394 0.0000 0.0000 0.0000
# 3 50.9984 66.8394 207.9811 0.0000 0.0000 0.0000
# 4 0.0000 0.0000 0.0000 12.3755 0.0000 0.0000
# 5 0.0000 0.0000 0.0000 0.0000 -19.5553 0.0000
# 6 0.0000 0.0000 0.0000 0.0000 0.0000 11.3679
#
#
#
# Elastic Compliance Matrix: (Units=1/GPa)
#
#
# Indices 1 2 3 4 5 6 
#
# 1 0.098702 -0.005908 -0.022304 0.000000 0.000000 0.000000
# 2 -0.005908 0.010005 -0.001767 0.000000 0.000000 0.000000
# 3 -0.022304 -0.001767 0.010845 0.000000 0.000000 0.000000
# 4 0.000000 0.000000 0.000000 0.080805 0.000000 0.000000
# 5 0.000000 0.000000 0.000000 0.000000 -0.051137 0.000000
# 6 0.000000 0.000000 0.000000 0.000000 0.000000 0.087967
#
#
# Mechanical properties :
#
#
# Convention : Reuss Voigt Hill
#
# Bulk Modulus (GPa) = 16.77990 70.77102 43.77546
# Shear Modulus (GPa) = 15.77245 15.21442 15.49343
#
# Velocity S-wave (km/s) = 2.96809 2.91511 2.94172
# Velocity P-wave (km/s) = 4.59547 7.13154 5.99905
#
# Compressibility (1/GPa) = 0.05959512
#
# Stress axis : x y z
#
# Youngs Moduli (GPa) = 10.13152 99.94949 92.20914
#
# Poissons Ratio (x) = 0.59050 2.05661
# Poissons Ratio (y) = 0.05986 0.16290
# Poissons Ratio (z) = 0.22597 0.17658
#
# Static dielectric constant tensor:
#      x y z
#    x 1.591040 0.000000 0.000000 
#    y 0.000000 1.603340 0.000000 
#    z 0.000000 0.000000 1.673700 
# 
# From -- ./inp_files/44799.got.cif
#   From: 2010.05.17/outbox.cif.g08.bks.cpg/sg67_23_cif.got.tgz:44799.got - 2010.06.03 18:28:57.
