data_PCOD9500246
_publ_section_title
;
Structure prediction by ZEFSAII (Michael W. Deem and Ramdas Pophale) SiO2 
 PCOD9500246
Probable space group: C M M A
;
_chemical_formula_sum "Si O2"
_cell_formula_units_Z 84
_cell_length_a 22.903841
_cell_length_b 14.377171
_cell_length_c 11.106564
_cell_angle_alpha 90.000000
_cell_angle_beta 90.000000
_cell_angle_gamma 90.000000
_cell_volume 3657.307544
_symmetry_space_group_name_H-M "C M M A"
_symmetry_group_IT_number 67
_symmetry_cell_setting 'orthorhombic'
loop_
_space_group_symop_operation_xyz
x,y,z
-x,1/2-y,z
x,-y,-z
-x,1/2+y,-z
-x,-y,-z
x,1/2+y,-z
-x,y,z
x,1/2-y,z
1/2+x,1/2+y,z
1/2-x,-y,z
1/2+x,1/2-y,-z
1/2-x,y,-z
1/2-x,1/2-y,-z
1/2+x,y,-z
1/2-x,1/2+y,z
1/2+x,-y,z
loop_
_atom_site_type_symbol
_atom_site_label
_atom_site_fract_x
_atom_site_fract_y
_atom_site_fract_z
Si Si1 0.113490 0.649466 0.269367
Si Si2 0.500000 0.750000 0.363652
Si Si3 0.436489 0.111197 0.018636
Si Si4 0.311488 0.466196 0.680628
Si Si5 0.915530 0.896263 0.530153
Si Si6 0.190965 0.895739 0.942008
O O1 0.143118 0.750000 0.250298
O O2 0.069265 0.634053 0.159779
O O3 0.154416 0.559005 0.274725
O O4 0.084179 0.651222 0.400087
O O5 0.450159 0.667351 0.377537
O O6 0.500000 0.145069 0.971990
O O7 0.374048 0.144096 0.965833
O O8 0.437261 0.000000 0.000000
O O9 0.250000 0.500000 0.632965
O O10 0.351319 0.413600 0.584549
O O11 0.301216 0.405471 0.799677
O O12 0.937704 0.000000 0.500000
O O13 0.250000 0.854253 0.000000
O O14 0.188376 0.000000 0.000000
#
# Coordination Sequence:
#
# PCOD9500246 Si02
#       6
#    16   4  16  16  16  16
#     4  11  22  40  66 102 134 181 239 294 350 421
#     4  12  22  52  64  96 156 180 256 298 342 472
#     4  10  20  35  61  98 128 166 220 285 349 405
#     4  11  21  43  70 102 139 184 241 297 363 435
#     4  10  25  41  70 103 132 197 239 293 367 421
#     4  10  16  35  69  97 123 177 236 281 343 425
#
# _framework density 22.967714000000001
#
# number of rings (size 3 to 8) (size 9 to 14) (size 15 to 20)
#    0.000    1.524    6.667    0.286    1.333    3.810 
#    5.143    0.952    2.095    5.714    0.000    0.000 
#    0.000    0.000    0.000    0.000    0.000    0.000 
#
# Total GULP energy -233835.202319 kJ/mol
# GULP energy per Si atom -5567.504817 kJ/mol
# Density = 2.291544 g / cm^3
# Si number density = 22.967714 Si / 1000 Ang^3
#
#
#
# Elastic Constant Matrix: (Units=GPa)
#
#
# Indices 1 2 3 4 5 6 
#
# 1 196.7299 8.5108 22.6898 0.0000 0.0000 0.0000
# 2 8.5108 114.9289 -1.5646 0.0000 0.0000 0.0000
# 3 22.6898 -1.5646 98.5990 0.0000 0.0000 0.0000
# 4 0.0000 0.0000 0.0000 -41.4300 0.0000 0.0000
# 5 0.0000 0.0000 0.0000 0.0000 -155.7080 0.0000
# 6 0.0000 0.0000 0.0000 0.0000 0.0000 -94.1347
#
#
#
# Elastic Compliance Matrix: (Units=1/GPa)
#
#
# Indices 1 2 3 4 5 6 
#
# 1 0.005240 -0.000405 -0.001212 0.000000 0.000000 0.000000
# 2 -0.000405 0.008734 0.000232 0.000000 0.000000 0.000000
# 3 -0.001212 0.000232 0.010425 0.000000 0.000000 0.000000
# 4 0.000000 0.000000 0.000000 -0.024137 0.000000 0.000000
# 5 0.000000 0.000000 0.000000 0.000000 -0.006422 0.000000
# 6 0.000000 0.000000 0.000000 0.000000 0.000000 -0.010623
#
#
# Mechanical properties :
#
#
# Convention : Reuss Voigt Hill
#
# Bulk Modulus (GPa) = 46.23449 52.16997 49.20223
# Shear Modulus (GPa) = -734.97056 -32.87976 -383.92516
#
# Velocity S-wave (km/s) = -17.90800 -3.78771 -12.94301
# Velocity P-wave (km/s) = 20.18468 1.90652 14.20891
#
# Compressibility (1/GPa) = 0.02162887
#
# Stress axis : x y z
#
# Youngs Moduli (GPa) = 190.82360 114.49317 95.92551
#
# Poissons Ratio (x) = 0.04632 0.11630
# Poissons Ratio (y) = 0.07720 -0.02223
# Poissons Ratio (z) = 0.23135 -0.02653
#
# Static dielectric constant tensor:
#      x y z
#    x 1.894840 0.000000 0.000000 
#    y 0.000000 1.892280 0.000000 
#    z 0.000000 0.000000 1.867620 
# 
# From -- ./inp_files/21748.got.cif
#   From: 2010.05.17/outbox.cif.g08.bks.cpg/sg67_11_cif.got.tgz:21748.got - 2010.06.03 18:28:57.
