data_PCOD9500299
_publ_section_title
;
Structure prediction by ZEFSAII (Michael W. Deem and Ramdas Pophale) SiO2 
 PCOD9500299
Probable space group: C M M A
;
_chemical_formula_sum "Si O2"
_cell_formula_units_Z 72
_cell_length_a 8.424838
_cell_length_b 16.302253
_cell_length_c 25.830619
_cell_angle_alpha 90.000000
_cell_angle_beta 90.000000
_cell_angle_gamma 90.000000
_cell_volume 3547.676418
_symmetry_space_group_name_H-M "C M M A"
_symmetry_group_IT_number 67
_symmetry_cell_setting 'orthorhombic'
loop_
_space_group_symop_operation_xyz
x,y,z
-x,1/2-y,z
x,-y,-z
-x,1/2+y,-z
-x,-y,-z
x,1/2+y,-z
-x,y,z
x,1/2-y,z
1/2+x,1/2+y,z
1/2-x,-y,z
1/2+x,1/2-y,-z
1/2-x,y,-z
1/2-x,1/2-y,-z
1/2+x,y,-z
1/2-x,1/2+y,z
1/2+x,-y,z
loop_
_atom_site_type_symbol
_atom_site_label
_atom_site_fract_x
_atom_site_fract_y
_atom_site_fract_z
Si Si1 0.192023 0.250000 0.441371
Si Si2 0.306931 0.656853 0.272955
Si Si3 0.809434 0.093576 0.161957
Si Si4 0.811543 0.905410 0.053858
Si Si5 0.691593 0.587381 0.379674
O O1 0.250000 0.250000 0.500000
O O2 0.244292 0.166946 0.412104
O O3 0.000000 0.250000 0.440211
O O4 0.500000 0.653066 0.271957
O O5 0.262979 0.750000 0.285503
O O6 0.253299 0.634493 0.215288
O O7 0.252976 0.600055 0.320143
O O8 0.747889 0.131336 0.108085
O O9 0.000000 0.094721 0.160386
O O10 0.750000 0.000000 0.164014
O O11 0.000000 0.906826 0.053218
O O12 0.750000 0.000000 0.054291
O O13 0.750000 0.868033 0.000000
O O14 0.500000 0.587273 0.379737
O O15 0.750000 0.500000 0.399785
#
# Coordination Sequence:
#
# PCOD9500299 Si02
#       5
#     8  16  16  16  16
#     4  10  22  40  62  86 120 160 197 238 283 336
#     4   9  17  32  54  77 104 140 181 222 271 332
#     4  10  18  28  46  72 100 129 166 213 265 325
#     4  10  17  27  43  64  94 128 167 214 265 322
#     4  10  20  37  61  87 116 153 195 238 286 338
#
# _framework density 20.294974
#
# number of rings (size 3 to 8) (size 9 to 14) (size 15 to 20)
#    0.000    2.222    1.111    5.333    0.000    1.333 
#    0.000    3.333    0.000    6.000    0.000    0.000 
#    0.000    0.000    0.000    0.000    0.000    0.000 
#
# Total GULP energy -200861.146875 kJ/mol
# GULP energy per Si atom -5579.476302 kJ/mol
# Density = 2.024878 g / cm^3
# Si number density = 20.294974 Si / 1000 Ang^3
#
#
#
# Elastic Constant Matrix: (Units=GPa)
#
#
# Indices 1 2 3 4 5 6 
#
# 1 57.5895 10.1765 28.1115 0.0000 0.0000 0.0000
# 2 10.1765 103.8925 61.2620 0.0000 0.0000 0.0000
# 3 28.1115 61.2620 160.7078 0.0000 0.0000 0.0000
# 4 0.0000 0.0000 0.0000 25.0651 0.0000 0.0000
# 5 0.0000 0.0000 0.0000 0.0000 30.0727 0.0000
# 6 0.0000 0.0000 0.0000 0.0000 0.0000 15.3830
#
#
#
# Elastic Compliance Matrix: (Units=1/GPa)
#
#
# Indices 1 2 3 4 5 6 
#
# 1 0.018987 0.000127 -0.003370 0.000000 0.000000 0.000000
# 2 0.000127 0.012417 -0.004756 0.000000 0.000000 0.000000
# 3 -0.003370 -0.004756 0.008625 0.000000 0.000000 0.000000
# 4 0.000000 0.000000 0.000000 0.039896 0.000000 0.000000
# 5 0.000000 0.000000 0.000000 0.000000 0.033253 0.000000
# 6 0.000000 0.000000 0.000000 0.000000 0.000000 0.065007
#
#
# Mechanical properties :
#
#
# Convention : Reuss Voigt Hill
#
# Bulk Modulus (GPa) = 41.61076 57.92110 49.76593
# Shear Modulus (GPa) = 24.72906 28.94683 26.83794
#
# Velocity S-wave (km/s) = 3.49446 3.78074 3.64042
# Velocity P-wave (km/s) = 6.06871 6.90364 6.49959
#
# Compressibility (1/GPa) = 0.02403224
#
# Stress axis : x y z
#
# Youngs Moduli (GPa) = 52.66858 80.53377 115.94498
#
# Poissons Ratio (x) = -0.01024 0.39070
# Poissons Ratio (y) = -0.00670 0.55140
# Poissons Ratio (z) = 0.17748 0.38299
#
# Static dielectric constant tensor:
#      x y z
#    x 1.704080 0.000000 0.000000 
#    y 0.000000 1.719370 0.000000 
#    z 0.000000 0.000000 1.762720 
# 
# From -- ./inp_files/43110.got.cif
#   From: 2010.05.17/outbox.cif.g08.bks.cpg/sg67_22_cif.got.tgz:43110.got - 2010.06.03 18:28:57.
