data_PCOD9500802
_publ_section_title
;
Structure prediction by ZEFSAII (Michael W. Deem and Ramdas Pophale) SiO2 
 PCOD9500802
Probable space group: C M M A
;
_chemical_formula_sum "Si O2"
_cell_formula_units_Z 44
_cell_length_a 5.488114
_cell_length_b 25.466512
_cell_length_c 13.850077
_cell_angle_alpha 90.000000
_cell_angle_beta 90.000000
_cell_angle_gamma 90.000000
_cell_volume 1935.729988
_symmetry_space_group_name_H-M "C M M A"
_symmetry_group_IT_number 67
_symmetry_cell_setting 'orthorhombic'
loop_
_space_group_symop_operation_xyz
x,y,z
-x,1/2-y,z
x,-y,-z
-x,1/2+y,-z
-x,-y,-z
x,1/2+y,-z
-x,y,z
x,1/2-y,z
1/2+x,1/2+y,z
1/2-x,-y,z
1/2+x,1/2-y,-z
1/2-x,y,-z
1/2-x,1/2-y,-z
1/2+x,y,-z
1/2-x,1/2+y,z
1/2+x,-y,z
loop_
_atom_site_type_symbol
_atom_site_label
_atom_site_fract_x
_atom_site_fract_y
_atom_site_fract_z
Si Si1 0.500000 0.134927 0.564113
Si Si2 0.000000 0.021594 0.861106
Si Si3 0.500000 0.477325 0.643569
Si Si4 0.000000 0.687814 0.895330
Si Si5 0.000000 0.145706 0.884264
Si Si6 0.000000 0.750000 0.562811
O O1 0.250000 0.131231 0.500000
O O2 0.500000 0.085295 0.634776
O O3 0.500000 0.192878 0.612291
O O4 0.000000 0.084103 0.865809
O O5 0.750000 0.000000 0.903157
O O6 0.000000 0.998644 0.752633
O O7 0.750000 0.500000 0.601168
O O8 0.749645 0.670581 0.845532
O O9 0.000000 0.750000 0.911942
O O10 0.000000 0.659497 0.000808
O O11 0.250000 0.750000 0.500000
#
# Coordination Sequence:
#
# PCOD9500802 Si02
#       6
#     8   8   8   8   8   4
#     4  10  19  32  53  82 112 137 175 222 273 326
#     4  10  21  37  52  73 103 151 189 216 266 319
#     4  10  21  35  52  77 105 149 179 223 265 317
#     4  10  19  33  53  84 111 135 177 227 284 331
#     4  10  18  32  53  77 107 144 176 222 267 330
#     4   8  16  30  48  76 106 134 166 206 264 320
#
# _framework density 22.730440999999999
#
# number of rings (size 3 to 8) (size 9 to 14) (size 15 to 20)
#    0.000    2.182    0.000    4.909    0.000    2.182 
#    0.000   10.909    0.000    0.000   75.636    0.000 
#    0.000    0.000    0.000    0.000    0.000    0.000 
#
# Total GULP energy -122782.070016 kJ/mol
# GULP energy per Si atom -5581.003183 kJ/mol
# Density = 2.267871 g / cm^3
# Si number density = 22.730441 Si / 1000 Ang^3
#
#
#
# Elastic Constant Matrix: (Units=GPa)
#
#
# Indices 1 2 3 4 5 6 
#
# 1 264.0158 63.2635 29.3060 0.0000 0.0000 0.0000
# 2 63.2635 277.4879 54.9667 0.0000 0.0000 0.0000
# 3 29.3060 54.9667 77.6827 0.0000 0.0000 0.0000
# 4 0.0000 0.0000 0.0000 82.9537 0.0000 0.0000
# 5 0.0000 0.0000 0.0000 0.0000 -25.1778 0.0000
# 6 0.0000 0.0000 0.0000 0.0000 0.0000 46.0706
#
#
#
# Elastic Compliance Matrix: (Units=1/GPa)
#
#
# Indices 1 2 3 4 5 6 
#
# 1 0.004075 -0.000726 -0.001023 0.000000 0.000000 0.000000
# 2 -0.000726 0.004321 -0.002783 0.000000 0.000000 0.000000
# 3 -0.001023 -0.002783 0.015228 0.000000 0.000000 0.000000
# 4 0.000000 0.000000 0.000000 0.012055 0.000000 0.000000
# 5 0.000000 0.000000 0.000000 0.000000 -0.039717 0.000000
# 6 0.000000 0.000000 0.000000 0.000000 0.000000 0.021706
#
#
# Mechanical properties :
#
#
# Convention : Reuss Voigt Hill
#
# Bulk Modulus (GPa) = 68.68959 101.58431 85.13695
# Shear Modulus (GPa) = 158.29623 52.21264 105.25444
#
# Velocity S-wave (km/s) = 8.35415 4.79794 6.81220
# Velocity P-wave (km/s) = 11.10588 8.68801 9.97051
#
# Compressibility (1/GPa) = 0.01455825
#
# Stress axis : x y z
#
# Youngs Moduli (GPa) = 245.37998 231.44499 65.66717
#
# Poissons Ratio (x) = 0.16812 0.06721
# Poissons Ratio (y) = 0.17824 0.18276
# Poissons Ratio (z) = 0.25113 0.64416
#
# Static dielectric constant tensor:
#      x y z
#    x 1.925290 0.000000 0.000000 
#    y 0.000000 1.800360 0.000000 
#    z 0.000000 0.000000 1.783720 
# 
# From -- ./inp_files/31375.got.cif
#   From: 2010.05.17/outbox.cif.g08.bks.cpg/sg67_16_cif.got.tgz:31375.got - 2010.06.03 18:28:57.
