data_PCOD9500699
_publ_section_title
;
Structure prediction by ZEFSAII (Michael W. Deem and Ramdas Pophale) SiO2 
 PCOD9500699
Probable space group: C M M A
;
_chemical_formula_sum "Si O2"
_cell_formula_units_Z 104
_cell_length_a 13.828541
_cell_length_b 19.836239
_cell_length_c 17.355200
_cell_angle_alpha 90.000000
_cell_angle_beta 90.000000
_cell_angle_gamma 90.000000
_cell_volume 4760.639731
_symmetry_space_group_name_H-M "C M M A"
_symmetry_group_IT_number 67
_symmetry_cell_setting 'orthorhombic'
loop_
_space_group_symop_operation_xyz
x,y,z
-x,1/2-y,z
x,-y,-z
-x,1/2+y,-z
-x,-y,-z
x,1/2+y,-z
-x,y,z
x,1/2-y,z
1/2+x,1/2+y,z
1/2-x,-y,z
1/2+x,1/2-y,-z
1/2-x,y,-z
1/2-x,1/2-y,-z
1/2+x,y,-z
1/2-x,1/2+y,z
1/2+x,-y,z
loop_
_atom_site_type_symbol
_atom_site_label
_atom_site_fract_x
_atom_site_fract_y
_atom_site_fract_z
Si Si1 0.616088 0.058912 0.335046
Si Si2 0.117709 0.672843 0.448892
Si Si3 0.109007 0.831092 0.039214
Si Si4 0.750000 0.000000 0.795422
Si Si5 0.698524 0.372766 0.879205
Si Si6 0.116220 0.577664 0.589205
Si Si7 0.615444 0.176623 0.724654
O O1 0.500000 0.055373 0.321791
O O2 0.640129 0.131155 0.371569
O O3 0.676127 0.040421 0.259554
O O4 0.640676 0.000730 0.398687
O O5 0.152156 0.750000 0.450751
O O6 0.149267 0.625415 0.519966
O O7 0.000000 0.675629 0.452987
O O8 0.116851 0.750000 0.037841
O O9 0.191614 0.858624 0.095206
O O10 0.000000 0.849646 0.061266
O O11 0.133952 0.856868 0.953484
O O12 0.691903 0.051244 0.849208
O O13 0.667351 0.328953 0.806128
O O14 0.141967 0.616074 0.668109
O O15 0.000000 0.577648 0.582580
O O16 0.500000 0.171672 0.737647
O O17 0.633973 0.250000 0.688214
#
# Coordination Sequence:
#
# PCOD9500699 Si02
#       7
#    16  16  16   8  16  16  16
#     4  10  21  39  61  85 120 168 212 258 319 375
#     4   9  17  32  57  88 122 162 212 267 319 374
#     4  10  22  42  68  97 125 157 198 243 301 372
#     4  12  26  41  61  90 126 164 210 258 300 370
#     4  11  22  39  61  89 126 164 200 246 302 359
#     4   9  16  30  55  88 120 158 208 261 314 369
#     4  10  18  30  56  93 127 160 201 252 310 365
#
# _framework density 21.845804000000001
#
# number of rings (size 3 to 8) (size 9 to 14) (size 15 to 20)
#    0.000    2.000    1.538    3.231    0.000    7.385 
#    0.000    4.615    0.000    2.769    0.000    0.000 
#    0.000    0.000    0.000    0.000    0.000    0.000 
#
# Total GULP energy -290727.017930 kJ/mol
# GULP energy per Si atom -5590.904191 kJ/mol
# Density = 2.179608 g / cm^3
# Si number density = 21.845804 Si / 1000 Ang^3
#
#
#
# Elastic Constant Matrix: (Units=GPa)
#
#
# Indices 1 2 3 4 5 6 
#
# 1 98.3199 1.2372 16.2989 0.0000 0.0000 0.0000
# 2 1.2372 109.6194 20.3103 0.0000 0.0000 0.0000
# 3 16.2989 20.3103 60.6704 0.0000 0.0000 0.0000
# 4 0.0000 0.0000 0.0000 9.8820 0.0000 0.0000
# 5 0.0000 0.0000 0.0000 0.0000 18.0300 0.0000
# 6 0.0000 0.0000 0.0000 0.0000 0.0000 15.5321
#
#
#
# Elastic Compliance Matrix: (Units=1/GPa)
#
#
# Indices 1 2 3 4 5 6 
#
# 1 0.010665 0.000438 -0.003012 0.000000 0.000000 0.000000
# 2 0.000438 0.009744 -0.003379 0.000000 0.000000 0.000000
# 3 -0.003012 -0.003379 0.018423 0.000000 0.000000 0.000000
# 4 0.000000 0.000000 0.000000 0.101194 0.000000 0.000000
# 5 0.000000 0.000000 0.000000 0.000000 0.055463 0.000000
# 6 0.000000 0.000000 0.000000 0.000000 0.000000 0.064383
#
#
# Mechanical properties :
#
#
# Convention : Reuss Voigt Hill
#
# Bulk Modulus (GPa) = 37.14085 38.25581 37.69833
# Shear Modulus (GPa) = 17.80925 24.07303 20.94114
#
# Velocity S-wave (km/s) = 2.85831 3.32317 3.09947
# Velocity P-wave (km/s) = 5.28503 5.68105 5.48661
#
# Compressibility (1/GPa) = 0.02692454
#
# Stress axis : x y z
#
# Youngs Moduli (GPa) = 93.76810 102.63074 54.28047
#
# Poissons Ratio (x) = -0.04491 0.16347
# Poissons Ratio (y) = -0.04103 0.18343
# Poissons Ratio (z) = 0.28238 0.34683
#
# Static dielectric constant tensor:
#      x y z
#    x 1.818150 0.000000 0.000000 
#    y 0.000000 1.823380 0.000000 
#    z 0.000000 0.000000 1.764590 
# 
# From -- ./inp_files/33737.got.cif
#   From: 2010.05.17/outbox.cif.g08.bks.cpg/sg67_17_cif.got.tgz:33737.got - 2010.06.03 18:28:57.
