data_PCOD9500483
_publ_section_title
;
Structure prediction by ZEFSAII (Michael W. Deem and Ramdas Pophale) SiO2 
 PCOD9500483
Probable space group: C M M A
;
_chemical_formula_sum "Si O2"
_cell_formula_units_Z 96
_cell_length_a 26.262102
_cell_length_b 10.510140
_cell_length_c 18.683230
_cell_angle_alpha 90.000000
_cell_angle_beta 90.000000
_cell_angle_gamma 90.000000
_cell_volume 5156.914667
_symmetry_space_group_name_H-M "C M M A"
_symmetry_group_IT_number 67
_symmetry_cell_setting 'orthorhombic'
loop_
_space_group_symop_operation_xyz
x,y,z
-x,1/2-y,z
x,-y,-z
-x,1/2+y,-z
-x,-y,-z
x,1/2+y,-z
-x,y,z
x,1/2-y,z
1/2+x,1/2+y,z
1/2-x,-y,z
1/2+x,1/2-y,-z
1/2-x,y,-z
1/2-x,1/2-y,-z
1/2+x,y,-z
1/2-x,1/2+y,z
1/2+x,-y,z
loop_
_atom_site_type_symbol
_atom_site_label
_atom_site_fract_x
_atom_site_fract_y
_atom_site_fract_z
Si Si1 0.721042 0.885799 0.576577
Si Si2 0.792836 0.103105 0.783969
Si Si3 0.839071 0.398411 0.942727
Si Si4 0.599238 0.099456 0.439329
Si Si5 0.097359 0.097182 0.719936
Si Si6 0.944176 0.404651 0.871124
O O1 0.727377 0.750000 0.613035
O O2 0.750000 0.876812 0.500000
O O3 0.661283 0.905260 0.563833
O O4 0.750000 0.000000 0.614424
O O5 0.777509 0.250000 0.772868
O O6 0.810319 0.095098 0.867024
O O7 0.843007 0.075059 0.736360
O O8 0.750000 0.000000 0.772350
O O9 0.837579 0.250000 0.966918
O O10 0.897145 0.436270 0.921942
O O11 0.819582 0.500000 0.000000
O O12 0.586216 0.250000 0.451531
O O13 0.582125 0.056673 0.359780
O O14 0.582361 0.000000 0.500000
O O15 0.091565 0.250000 0.718731
O O16 0.067189 0.050364 0.789726
O O17 0.944017 0.250000 0.868143
O O18 0.000000 0.447412 0.894451
#
# Coordination Sequence:
#
# PCOD9500483 Si02
#       6
#    16  16  16  16  16  16
#     4   9  15  23  33  48  73 103 134 169 209 257
#     4   9  18  33  48  65  93 129 166 199 229 265
#     4   9  18  31  48  73 103 127 152 191 233 272
#     4  10  18  28  42  60  85 115 146 186 235 280
#     4   8  16  30  46  65  90 121 156 196 238 278
#     4   8  14  28  51  74  94 119 153 191 232 281
#
# _framework density 18.615781999999999
#
# number of rings (size 3 to 8) (size 9 to 14) (size 15 to 20)
#    0.000    3.167    1.667    2.000    0.000    2.000 
#    0.000    2.500    0.000    1.500    0.000    0.000 
#    0.000    0.000    0.000    0.000    0.000    0.000 
#
# Total GULP energy -267266.447227 kJ/mol
# GULP energy per Si atom -5568.050984 kJ/mol
# Density = 1.857341 g / cm^3
# Si number density = 18.615782 Si / 1000 Ang^3
#
#
#
# Elastic Constant Matrix: (Units=GPa)
#
#
# Indices 1 2 3 4 5 6 
#
# 1 18.4554 9.8753 -3.9871 0.0000 0.0000 0.0000
# 2 9.8753 87.0911 38.8511 0.0000 0.0000 0.0000
# 3 -3.9871 38.8511 109.6740 0.0000 0.0000 0.0000
# 4 0.0000 0.0000 0.0000 10.3341 0.0000 0.0000
# 5 0.0000 0.0000 0.0000 0.0000 2.5158 0.0000
# 6 0.0000 0.0000 0.0000 0.0000 0.0000 8.1091
#
#
#
# Elastic Compliance Matrix: (Units=1/GPa)
#
#
# Indices 1 2 3 4 5 6 
#
# 1 0.060339 -0.009288 0.005484 0.000000 0.000000 0.000000
# 2 -0.009288 0.015067 -0.005675 0.000000 0.000000 0.000000
# 3 0.005484 -0.005675 0.011328 0.000000 0.000000 0.000000
# 4 0.000000 0.000000 0.000000 0.096767 0.000000 0.000000
# 5 0.000000 0.000000 0.000000 0.000000 0.397484 0.000000
# 6 0.000000 0.000000 0.000000 0.000000 0.000000 0.123318
#
#
# Mechanical properties :
#
#
# Convention : Reuss Voigt Hill
#
# Bulk Modulus (GPa) = 14.75466 33.85545 24.30505
# Shear Modulus (GPa) = 6.70372 15.55722 11.13047
#
# Velocity S-wave (km/s) = 1.89971 2.89398 2.44786
# Velocity P-wave (km/s) = 3.57141 5.42151 4.59063
#
# Compressibility (1/GPa) = 0.06777520
#
# Stress axis : x y z
#
# Youngs Moduli (GPa) = 16.57293 66.36999 88.27969
#
# Poissons Ratio (x) = 0.61646 -0.48412
# Poissons Ratio (y) = 0.15393 0.50099
# Poissons Ratio (z) = -0.09088 0.37665
#
# Static dielectric constant tensor:
#      x y z
#    x 1.657500 0.000000 0.000000 
#    y 0.000000 1.749820 0.000000 
#    z 0.000000 0.000000 1.680400 
# 
# From -- ./inp_files/35865.got.cif
#   From: 2010.05.17/outbox.cif.g08.bks.cpg/sg67_18_cif.got.tgz:35865.got - 2010.06.03 18:28:57.
