data_PCOD9500567
_publ_section_title
;
Structure prediction by ZEFSAII (Michael W. Deem and Ramdas Pophale) SiO2 
 PCOD9500567
Probable space group: C M M A
;
_chemical_formula_sum "Si O2"
_cell_formula_units_Z 112
_cell_length_a 14.111465
_cell_length_b 27.922547
_cell_length_c 16.249048
_cell_angle_alpha 90.000000
_cell_angle_beta 90.000000
_cell_angle_gamma 90.000000
_cell_volume 6402.580612
_symmetry_space_group_name_H-M "C M M A"
_symmetry_group_IT_number 67
_symmetry_cell_setting 'orthorhombic'
loop_
_space_group_symop_operation_xyz
x,y,z
-x,1/2-y,z
x,-y,-z
-x,1/2+y,-z
-x,-y,-z
x,1/2+y,-z
-x,y,z
x,1/2-y,z
1/2+x,1/2+y,z
1/2-x,-y,z
1/2+x,1/2-y,-z
1/2-x,y,-z
1/2-x,1/2-y,-z
1/2+x,y,-z
1/2-x,1/2+y,z
1/2+x,-y,z
loop_
_atom_site_type_symbol
_atom_site_label
_atom_site_fract_x
_atom_site_fract_y
_atom_site_fract_z
Si Si1 0.612218 0.859242 0.276837
Si Si2 0.109846 0.384055 0.627860
Si Si3 0.754909 0.305885 0.400992
Si Si4 0.106659 0.308231 0.944632
Si Si5 0.266979 0.445901 0.696035
Si Si6 0.606413 0.053519 0.535958
Si Si7 0.305130 0.807492 0.120677
O O1 0.500000 0.860970 0.284545
O O2 0.660313 0.836169 0.358842
O O3 0.658932 0.911123 0.259258
O O4 0.644403 0.826607 0.201129
O O5 0.160660 0.332846 0.629363
O O6 0.167560 0.418739 0.688151
O O7 0.119689 0.408329 0.537087
O O8 0.000000 0.381419 0.647029
O O9 0.761069 0.250000 0.377654
O O10 0.750000 0.308543 0.500000
O O11 0.104837 0.250000 0.941678
O O12 0.195228 0.323635 0.887973
O O13 0.000000 0.325009 0.925485
O O14 0.138184 0.321233 0.037681
O O15 0.250000 0.500000 0.724031
O O16 0.313394 0.446222 0.604583
O O17 0.500000 0.061520 0.570949
O O18 0.606894 0.000000 0.500000
O O19 0.304321 0.750000 0.122645
#
# Coordination Sequence:
#
# PCOD9500567 Si02
#       7
#    16  16  16  16  16  16  16
#     4  11  23  37  55  79 105 136 178 224 273 324
#     4  10  20  32  48  69  91 118 159 212 268 322
#     4  10  22  38  52  67  95 138 183 222 256 299
#     4   8  14  27  51  82 115 147 175 209 258 318
#     4  11  21  33  49  68  99 128 162 212 269 323
#     4  10  18  29  50  74  91 116 157 212 282 338
#     4   9  17  30  51  83 118 147 177 213 259 316
#
# _framework density 17.492946
#
# number of rings (size 3 to 8) (size 9 to 14) (size 15 to 20)
#    0.000    2.143    1.429    4.286    0.000    4.286 
#    0.000    4.286    0.000    3.429    0.000    2.000 
#    0.000    5.714    0.000    0.000    0.000    0.000 
#
# Total GULP energy -312278.064891 kJ/mol
# GULP energy per Si atom -5576.394016 kJ/mol
# Density = 1.745313 g / cm^3
# Si number density = 17.492946 Si / 1000 Ang^3
#
#
#
# Elastic Constant Matrix: (Units=GPa)
#
#
# Indices 1 2 3 4 5 6 
#
# 1 140.9646 38.6904 15.2185 0.0000 0.0000 0.0000
# 2 38.6904 91.9317 9.5199 0.0000 0.0000 0.0000
# 3 15.2185 9.5199 31.2069 0.0000 0.0000 0.0000
# 4 0.0000 0.0000 0.0000 3.3774 0.0000 0.0000
# 5 0.0000 0.0000 0.0000 0.0000 15.5881 0.0000
# 6 0.0000 0.0000 0.0000 0.0000 0.0000 17.7101
#
#
#
# Elastic Compliance Matrix: (Units=1/GPa)
#
#
# Indices 1 2 3 4 5 6 
#
# 1 0.008297 -0.003173 -0.003078 0.000000 0.000000 0.000000
# 2 -0.003173 0.012446 -0.002249 0.000000 0.000000 0.000000
# 3 -0.003078 -0.002249 0.034232 0.000000 0.000000 0.000000
# 4 0.000000 0.000000 0.000000 0.296089 0.000000 0.000000
# 5 0.000000 0.000000 0.000000 0.000000 0.064152 0.000000
# 6 0.000000 0.000000 0.000000 0.000000 0.000000 0.056465
#
#
# Mechanical properties :
#
#
# Convention : Reuss Voigt Hill
#
# Bulk Modulus (GPa) = 26.33429 43.44009 34.88719
# Shear Modulus (GPa) = 9.97328 20.71339 15.34333
#
# Velocity S-wave (km/s) = 2.39033 3.44481 2.96483
# Velocity P-wave (km/s) = 4.76499 6.38037 5.63091
#
# Compressibility (1/GPa) = 0.03797330
#
# Stress axis : x y z
#
# Youngs Moduli (GPa) = 120.52177 80.34675 29.21280
#
# Poissons Ratio (x) = 0.25496 0.08992
# Poissons Ratio (y) = 0.38244 0.06571
# Poissons Ratio (z) = 0.37100 0.18073
#
# Static dielectric constant tensor:
#      x y z
#    x 1.617800 0.000000 0.000000 
#    y 0.000000 1.602900 0.000000 
#    z 0.000000 0.000000 1.601790 
# 
# From -- ./inp_files/27880.got.cif
#   From: 2010.05.17/outbox.cif.g08.bks.cpg/sg67_14_cif.got.tgz:27880.got - 2010.06.03 18:28:57.
