data_PCOD9500740
_publ_section_title
;
Structure prediction by ZEFSAII (Michael W. Deem and Ramdas Pophale) SiO2 
 PCOD9500740
Probable space group: C M M A
;
_chemical_formula_sum "Si O2"
_cell_formula_units_Z 96
_cell_length_a 8.495056
_cell_length_b 24.410863
_cell_length_c 26.190101
_cell_angle_alpha 90.000000
_cell_angle_beta 90.000000
_cell_angle_gamma 90.000000
_cell_volume 5431.084411
_symmetry_space_group_name_H-M "C M M A"
_symmetry_group_IT_number 67
_symmetry_cell_setting 'orthorhombic'
loop_
_space_group_symop_operation_xyz
x,y,z
-x,1/2-y,z
x,-y,-z
-x,1/2+y,-z
-x,-y,-z
x,1/2+y,-z
-x,y,z
x,1/2-y,z
1/2+x,1/2+y,z
1/2-x,-y,z
1/2+x,1/2-y,-z
1/2-x,y,-z
1/2-x,1/2-y,-z
1/2+x,y,-z
1/2-x,1/2+y,z
1/2+x,-y,z
loop_
_atom_site_type_symbol
_atom_site_label
_atom_site_fract_x
_atom_site_fract_y
_atom_site_fract_z
Si Si1 0.308187 0.250000 0.328503
Si Si2 0.190691 0.871253 0.349180
Si Si3 0.808539 0.250000 0.789125
Si Si4 0.809731 0.061764 0.752371
Si Si5 0.190223 0.361631 0.843672
Si Si6 0.312715 0.561903 0.445575
Si Si7 0.188280 0.313011 0.056597
O O1 0.500000 0.250000 0.329768
O O2 0.256829 0.192060 0.351292
O O3 0.260050 0.250000 0.269404
O O4 0.239200 0.900633 0.295994
O O5 0.253541 0.903808 0.397585
O O6 0.000000 0.872204 0.349801
O O7 0.757077 0.194811 0.816609
O O8 0.000000 0.250000 0.789761
O O9 0.758776 0.089519 0.805957
O O10 0.000000 0.061293 0.752224
O O11 0.750000 0.000000 0.746829
O O12 0.251824 0.355445 0.901017
O O13 0.000000 0.362399 0.845201
O O14 0.500000 0.560678 0.446878
O O15 0.250000 0.500000 0.440226
O O16 0.250000 0.583339 0.500000
O O17 0.242403 0.250000 0.068625
O O18 0.000000 0.312843 0.056407
O O19 0.250000 0.325548 0.000000
#
# Coordination Sequence:
#
# PCOD9500740 Si02
#       7
#     8  16   8  16  16  16  16
#     4   9  16  30  54  81 110 145 182 214 255 316
#     4  10  19  34  56  83 112 143 179 219 263 315
#     4   9  14  26  50  77 102 135 176 212 253 306
#     4  10  21  34  52  78 108 142 179 216 260 311
#     4  10  18  31  53  77 103 137 176 216 258 309
#     4  11  22  38  59  82 107 139 180 226 272 317
#     4  10  20  32  48  74 106 138 171 210 259 312
#
# _framework density 17.676027999999999
#
# number of rings (size 3 to 8) (size 9 to 14) (size 15 to 20)
#    0.000    2.000    2.500    3.000    0.000    3.333 
#    0.000    0.833    0.000    1.500    0.000    3.500 
#    0.000    0.000    0.000    0.000    0.000    0.000 
#
# Total GULP energy -267788.495006 kJ/mol
# GULP energy per Si atom -5578.926979 kJ/mol
# Density = 1.763580 g / cm^3
# Si number density = 17.676028 Si / 1000 Ang^3
#
#
#
# Elastic Constant Matrix: (Units=GPa)
#
#
# Indices 1 2 3 4 5 6 
#
# 1 30.0906 27.1877 31.0861 0.0000 0.0000 0.0000
# 2 27.1877 113.7742 71.2299 0.0000 0.0000 0.0000
# 3 31.0861 71.2299 150.6426 0.0000 0.0000 0.0000
# 4 0.0000 0.0000 0.0000 27.5351 0.0000 0.0000
# 5 0.0000 0.0000 0.0000 0.0000 19.7981 0.0000
# 6 0.0000 0.0000 0.0000 0.0000 0.0000 19.7652
#
#
#
# Elastic Compliance Matrix: (Units=1/GPa)
#
#
# Indices 1 2 3 4 5 6 
#
# 1 0.046023 -0.007176 -0.006104 0.000000 0.000000 0.000000
# 2 -0.007176 0.013604 -0.004952 0.000000 0.000000 0.000000
# 3 -0.006104 -0.004952 0.010239 0.000000 0.000000 0.000000
# 4 0.000000 0.000000 0.000000 0.036317 0.000000 0.000000
# 5 0.000000 0.000000 0.000000 0.000000 0.050510 0.000000
# 6 0.000000 0.000000 0.000000 0.000000 0.000000 0.050594
#
#
# Mechanical properties :
#
#
# Convention : Reuss Voigt Hill
#
# Bulk Modulus (GPa) = 29.93802 61.50164 45.71983
# Shear Modulus (GPa) = 19.61667 24.41994 22.01830
#
# Velocity S-wave (km/s) = 3.33496 3.72092 3.53322
# Velocity P-wave (km/s) = 5.63943 7.30272 6.52430
#
# Compressibility (1/GPa) = 0.03340234
#
# Stress axis : x y z
#
# Youngs Moduli (GPa) = 21.72844 73.50596 97.66382
#
# Poissons Ratio (x) = 0.52750 0.59612
# Poissons Ratio (y) = 0.15593 0.48361
# Poissons Ratio (z) = 0.13263 0.36399
#
# Static dielectric constant tensor:
#      x y z
#    x 1.606340 0.000000 0.000000 
#    y 0.000000 1.598250 0.000000 
#    z 0.000000 0.000000 1.598780 
# 
# From -- ./inp_files/40854.got.cif
#   From: 2010.05.17/outbox.cif.g08.bks.cpg/sg67_21_cif.got.tgz:40854.got - 2010.06.03 18:28:57.
