data_PCOD9500541
_publ_section_title
;
Structure prediction by ZEFSAII (Michael W. Deem and Ramdas Pophale) SiO2 
 PCOD9500541
Probable space group: C M M A
;
_chemical_formula_sum "Si O2"
_cell_formula_units_Z 112
_cell_length_a 26.367331
_cell_length_b 17.066143
_cell_length_c 16.621689
_cell_angle_alpha 90.000000
_cell_angle_beta 90.000000
_cell_angle_gamma 90.000000
_cell_volume 7479.571250
_symmetry_space_group_name_H-M "C M M A"
_symmetry_group_IT_number 67
_symmetry_cell_setting 'orthorhombic'
loop_
_space_group_symop_operation_xyz
x,y,z
-x,1/2-y,z
x,-y,-z
-x,1/2+y,-z
-x,-y,-z
x,1/2+y,-z
-x,y,z
x,1/2-y,z
1/2+x,1/2+y,z
1/2-x,-y,z
1/2+x,1/2-y,-z
1/2-x,y,-z
1/2-x,1/2-y,-z
1/2+x,y,-z
1/2-x,1/2+y,z
1/2+x,-y,z
loop_
_atom_site_type_symbol
_atom_site_label
_atom_site_fract_x
_atom_site_fract_y
_atom_site_fract_z
Si Si1 0.309824 0.338379 0.486545
Si Si2 0.795689 0.657277 0.199925
Si Si3 0.656536 0.065423 0.337670
Si Si4 0.189708 0.516865 0.088939
Si Si5 0.058581 0.009752 0.404066
Si Si6 0.185490 0.915931 0.759499
Si Si7 0.616083 0.161204 0.638203
O O1 0.322308 0.250000 0.456528
O O2 0.250000 0.340800 0.500000
O O3 0.323315 0.403627 0.422090
O O4 0.341231 0.349099 0.568494
O O5 0.794125 0.750000 0.186343
O O6 0.833004 0.632442 0.272159
O O7 0.813240 0.605121 0.123421
O O8 0.739773 0.625359 0.226901
O O9 0.598401 0.042027 0.353701
O O10 0.685675 0.988707 0.303593
O O11 0.250000 0.500000 0.086460
O O12 0.169534 0.457410 0.157014
O O13 0.169264 0.500000 0.000000
O O14 0.072870 0.098346 0.379971
O O15 0.000000 0.991557 0.388144
O O16 0.067515 0.000000 0.500000
O O17 0.144728 0.857446 0.721555
O O18 0.598006 0.250000 0.635535
#
# Coordination Sequence:
#
# PCOD9500541 Si02
#       7
#    16  16  16  16  16  16  16
#     4  10  19  28  41  64  92 120 150 186 223 263
#     4  10  18  29  46  68  96 124 153 187 229 269
#     4  10  18  31  46  64  86 120 154 192 229 268
#     4   8  15  29  44  62  92 128 163 188 209 255
#     4  10  20  35  49  63  82 113 159 200 233 275
#     4   9  18  29  44  67  92 125 152 183 225 270
#     4  10  19  31  46  66  91 117 150 193 233 268
#
# _framework density 14.974121
#
# number of rings (size 3 to 8) (size 9 to 14) (size 15 to 20)
#    0.000    2.429    1.429    3.000    0.000    2.571 
#    0.000    7.857    0.000    1.714    0.000    0.000 
#    0.000   46.286    0.000    5.143    0.000    2.571 
#
# Total GULP energy -311917.585683 kJ/mol
# GULP energy per Si atom -5569.956887 kJ/mol
# Density = 1.494004 g / cm^3
# Si number density = 14.974121 Si / 1000 Ang^3
#
#
#
# Elastic Constant Matrix: (Units=GPa)
#
#
# Indices 1 2 3 4 5 6 
#
# 1 56.5005 30.6388 28.7718 0.0000 0.0000 0.0000
# 2 30.6388 94.7083 51.5976 0.0000 0.0000 0.0000
# 3 28.7718 51.5976 87.9902 0.0000 0.0000 0.0000
# 4 0.0000 0.0000 0.0000 10.3582 0.0000 0.0000
# 5 0.0000 0.0000 0.0000 0.0000 2.3917 0.0000
# 6 0.0000 0.0000 0.0000 0.0000 0.0000 15.7602
#
#
#
# Elastic Compliance Matrix: (Units=1/GPa)
#
#
# Indices 1 2 3 4 5 6 
#
# 1 0.022649 -0.004838 -0.004569 0.000000 0.000000 0.000000
# 2 -0.004838 0.016549 -0.008122 0.000000 0.000000 0.000000
# 3 -0.004569 -0.008122 0.017622 0.000000 0.000000 0.000000
# 4 0.000000 0.000000 0.000000 0.096542 0.000000 0.000000
# 5 0.000000 0.000000 0.000000 0.000000 0.418108 0.000000
# 6 0.000000 0.000000 0.000000 0.000000 0.000000 0.063451
#
#
# Mechanical properties :
#
#
# Convention : Reuss Voigt Hill
#
# Bulk Modulus (GPa) = 45.95313 51.24614 48.59964
# Shear Modulus (GPa) = 7.38298 14.24808 10.81553
#
# Velocity S-wave (km/s) = 2.22288 3.08801 2.69045
# Velocity P-wave (km/s) = 6.11091 6.85652 6.49442
#
# Compressibility (1/GPa) = 0.02176130
#
# Stress axis : x y z
#
# Youngs Moduli (GPa) = 44.15184 60.42682 56.74751
#
# Poissons Ratio (x) = 0.29234 0.25928
# Poissons Ratio (y) = 0.21360 0.46093
# Poissons Ratio (z) = 0.20173 0.49081
#
# Static dielectric constant tensor:
#      x y z
#    x 1.467350 0.000000 0.000000 
#    y 0.000000 1.529790 0.000000 
#    z 0.000000 0.000000 1.514230 
# 
# From -- ./inp_files/35587.got.cif
#   From: 2010.05.17/outbox.cif.g08.bks.cpg/sg67_18_cif.got.tgz:35587.got - 2010.06.03 18:28:57.
