data_PCOD9500741
_publ_section_title
;
Structure prediction by ZEFSAII (Michael W. Deem and Ramdas Pophale) SiO2 
 PCOD9500741
Probable space group: C M M A
;
_chemical_formula_sum "Si O2"
_cell_formula_units_Z 120
_cell_length_a 14.232088
_cell_length_b 27.232783
_cell_length_c 15.642553
_cell_angle_alpha 90.000000
_cell_angle_beta 90.000000
_cell_angle_gamma 90.000000
_cell_volume 6062.730745
_symmetry_space_group_name_H-M "C M M A"
_symmetry_group_IT_number 67
_symmetry_cell_setting 'orthorhombic'
loop_
_space_group_symop_operation_xyz
x,y,z
-x,1/2-y,z
x,-y,-z
-x,1/2+y,-z
-x,-y,-z
x,1/2+y,-z
-x,y,z
x,1/2-y,z
1/2+x,1/2+y,z
1/2-x,-y,z
1/2+x,1/2-y,-z
1/2-x,y,-z
1/2-x,1/2-y,-z
1/2+x,y,-z
1/2-x,1/2+y,z
1/2+x,-y,z
loop_
_atom_site_type_symbol
_atom_site_label
_atom_site_fract_x
_atom_site_fract_y
_atom_site_fract_z
Si Si1 0.392635 0.469607 0.374045
Si Si2 0.103750 0.914455 0.629774
Si Si3 0.391372 0.826370 0.065988
Si Si4 0.147922 0.594967 0.207197
Si Si5 0.636477 0.509785 0.904932
Si Si6 0.131125 0.914677 0.816237
Si Si7 0.750000 0.418155 0.500000
Si Si8 0.319379 0.805757 0.874052
O O1 0.500000 0.467954 0.403053
O O2 0.371936 0.527276 0.357226
O O3 0.383642 0.432858 0.292949
O O4 0.323470 0.450065 0.446148
O O5 0.097239 0.894276 0.725776
O O6 0.184546 0.891774 0.570449
O O7 0.000000 0.910733 0.590699
O O8 0.500000 0.807902 0.079147
O O9 0.392602 0.881701 0.102180
O O10 0.295685 0.807297 0.114803
O O11 0.363234 0.819223 0.967039
O O12 0.109956 0.563417 0.127710
O O13 0.258313 0.585393 0.198971
O O14 0.141181 0.653110 0.191253
O O15 0.750000 0.500000 0.906727
O O16 0.600874 0.469593 0.837892
O O17 0.604010 0.500000 0.000000
O O18 0.345177 0.750000 0.852525
#
# Coordination Sequence:
#
# PCOD9500741 Si02
#       8
#    16  16  16  16  16  16   8  16
#     4  11  22  35  53  80 111 148 191 230 274 332
#     4  11  21  33  52  79 112 150 192 230 267 325
#     4  10  20  35  56  83 115 149 188 233 280 330
#     4  10  19  34  54  75 112 152 184 232 283 325
#     4   9  16  27  48  74 104 150 193 219 260 318
#     4  10  18  31  53  78 112 151 187 224 271 326
#     4  12  23  36  56  76 111 156 189 226 274 332
#     4  10  22  38  58  85 112 147 196 241 287 340
#
# _framework density 19.793061000000002
#
# number of rings (size 3 to 8) (size 9 to 14) (size 15 to 20)
#    0.000    1.733    2.667    3.600    0.000    5.867 
#    0.000    0.000    0.000    2.000    0.000    0.467 
#    0.000    0.000    0.000    0.000    0.000    0.000 
#
# Total GULP energy -334351.069521 kJ/mol
# GULP energy per Si atom -5572.517825 kJ/mol
# Density = 1.974801 g / cm^3
# Si number density = 19.793061 Si / 1000 Ang^3
#
#
#
# Elastic Constant Matrix: (Units=GPa)
#
#
# Indices 1 2 3 4 5 6 
#
# 1 113.3401 12.6532 21.8127 0.0000 0.0000 0.0000
# 2 12.6532 87.6961 20.6443 0.0000 0.0000 0.0000
# 3 21.8127 20.6443 87.2673 0.0000 0.0000 0.0000
# 4 0.0000 0.0000 0.0000 11.0897 0.0000 0.0000
# 5 0.0000 0.0000 0.0000 0.0000 -24.8766 0.0000
# 6 0.0000 0.0000 0.0000 0.0000 0.0000 1.6107
#
#
#
# Elastic Compliance Matrix: (Units=1/GPa)
#
#
# Indices 1 2 3 4 5 6 
#
# 1 0.009327 -0.000844 -0.002132 0.000000 0.000000 0.000000
# 2 -0.000844 0.012152 -0.002664 0.000000 0.000000 0.000000
# 3 -0.002132 -0.002664 0.012622 0.000000 0.000000 0.000000
# 4 0.000000 0.000000 0.000000 0.090174 0.000000 0.000000
# 5 0.000000 0.000000 0.000000 0.000000 -0.040198 0.000000
# 6 0.000000 0.000000 0.000000 0.000000 0.000000 0.620840
#
#
# Mechanical properties :
#
#
# Convention : Reuss Voigt Hill
#
# Bulk Modulus (GPa) = 43.81663 44.28045 44.04854
# Shear Modulus (GPa) = 6.90795 13.11097 10.00946
#
# Velocity S-wave (km/s) = 1.87020 2.57651 2.25123
# Velocity P-wave (km/s) = 5.18160 5.59209 5.39075
#
# Compressibility (1/GPa) = 0.02282238
#
# Stress axis : x y z
#
# Youngs Moduli (GPa) = 107.20999 82.29202 79.22649
#
# Poissons Ratio (x) = 0.06945 0.16889
# Poissons Ratio (y) = 0.09048 0.21104
# Poissons Ratio (z) = 0.22855 0.21920
#
# Static dielectric constant tensor:
#      x y z
#    x 1.797210 0.000000 0.000000 
#    y 0.000000 1.695680 0.000000 
#    z 0.000000 0.000000 1.731720 
# 
# From -- ./inp_files/27924.got.cif
#   From: 2010.05.17/outbox.cif.g08.bks.cpg/sg67_14_cif.got.tgz:27924.got - 2010.06.03 18:28:57.
