data_PCOD9500051
_publ_section_title
;
Structure prediction by ZEFSAII (Michael W. Deem and Ramdas Pophale) SiO2 
 PCOD9500051
Probable space group: C C C M
;
_chemical_formula_sum "Si O2"
_cell_formula_units_Z 96
_cell_length_a 26.447264
_cell_length_b 13.148381
_cell_length_c 17.586418
_cell_angle_alpha 90.000000
_cell_angle_beta 90.000000
_cell_angle_gamma 90.000000
_cell_volume 6115.478194
_symmetry_space_group_name_H-M "C C C M"
_symmetry_group_IT_number 66
_symmetry_cell_setting 'orthorhombic'
loop_
_space_group_symop_operation_xyz
x,y,z
-x,-y,z
x,-y,1/2-z
-x,y,1/2-z
-x,-y,-z
x,y,-z
-x,y,1/2+z
x,-y,1/2+z
1/2+x,1/2+y,z
1/2-x,1/2-y,z
1/2+x,1/2-y,1/2-z
1/2-x,1/2+y,1/2-z
1/2-x,1/2-y,-z
1/2+x,1/2+y,-z
1/2-x,1/2+y,1/2+z
1/2+x,1/2-y,1/2+z
loop_
_atom_site_type_symbol
_atom_site_label
_atom_site_fract_x
_atom_site_fract_y
_atom_site_fract_z
Si Si1 0.396795 0.882069 0.732211
Si Si2 0.876677 0.069872 0.176971
Si Si3 0.034730 0.224800 0.678619
Si Si4 0.850261 0.876960 0.913026
Si Si5 0.059720 0.283455 0.913414
Si Si6 0.307627 0.276468 0.234147
O O1 0.434504 0.822296 0.789449
O O2 0.419739 0.863060 0.648362
O O3 0.343634 0.822481 0.735935
O O4 0.392664 0.000000 0.750000
O O5 0.924523 0.139642 0.157941
O O6 0.831960 0.143461 0.206595
O O7 0.889990 0.000000 0.250000
O O8 0.860271 0.992864 0.111315
O O9 0.000000 0.189981 0.750000
O O10 0.996363 0.252416 0.611876
O O11 0.902841 0.813841 0.906229
O O12 0.814157 0.827204 0.849434
O O13 0.832724 0.868051 0.000000
O O14 0.061803 0.319122 0.000000
O O15 0.250000 0.250000 0.249790
#
# Coordination Sequence:
#
# PCOD9500051 Si02
#       6
#    16  16  16  16  16  16
#     4   9  18  32  48  66  91 122 155 192 231 267
#     4   9  17  29  45  68  95 121 152 189 228 272
#     4   9  17  28  43  65  93 125 157 188 223 264
#     4   9  18  31  47  70  98 122 145 183 233 277
#     4   9  18  31  46  68  96 122 153 189 221 263
#     4   9  18  32  51  71  90 116 153 196 233 272
#
# _framework density 15.697873
#
# number of rings (size 3 to 8) (size 9 to 14) (size 15 to 20)
#    0.000    3.000    0.000    3.000    0.000    8.333 
#    0.000    3.333    0.000    1.500    0.000    0.000 
#    0.000    0.000    0.000    0.000    0.000    0.000 
#
# Total GULP energy -267408.145373 kJ/mol
# GULP energy per Si atom -5571.003029 kJ/mol
# Density = 1.566214 g / cm^3
# Si number density = 15.697873 Si / 1000 Ang^3
#
#
#
# Elastic Constant Matrix: (Units=GPa)
#
#
# Indices 1 2 3 4 5 6 
#
# 1 94.4131 41.9582 24.5846 0.0000 0.0000 0.0000
# 2 41.9582 108.9143 38.7248 0.0000 0.0000 0.0000
# 3 24.5846 38.7248 64.5650 0.0000 0.0000 0.0000
# 4 0.0000 0.0000 0.0000 11.8443 0.0000 0.0000
# 5 0.0000 0.0000 0.0000 0.0000 11.1056 0.0000
# 6 0.0000 0.0000 0.0000 0.0000 0.0000 3.5444
#
#
#
# Elastic Compliance Matrix: (Units=1/GPa)
#
#
# Indices 1 2 3 4 5 6 
#
# 1 0.013087 -0.004156 -0.002490 0.000000 0.000000 0.000000
# 2 -0.004156 0.012990 -0.006209 0.000000 0.000000 0.000000
# 3 -0.002490 -0.006209 0.020160 0.000000 0.000000 0.000000
# 4 0.000000 0.000000 0.000000 0.084429 0.000000 0.000000
# 5 0.000000 0.000000 0.000000 0.000000 0.090045 0.000000
# 6 0.000000 0.000000 0.000000 0.000000 0.000000 0.282132
#
#
# Mechanical properties :
#
#
# Convention : Reuss Voigt Hill
#
# Bulk Modulus (GPa) = 48.71599 53.15863 50.93731
# Shear Modulus (GPa) = 9.33887 16.14050 12.73969
#
# Velocity S-wave (km/s) = 2.44173 3.21003 2.85187
# Velocity P-wave (km/s) = 6.24902 6.90479 6.58507
#
# Compressibility (1/GPa) = 0.02052714
#
# Stress axis : x y z
#
# Youngs Moduli (GPa) = 76.40962 76.98098 49.60216
#
# Poissons Ratio (x) = 0.31996 0.12353
# Poissons Ratio (y) = 0.31758 0.30796
# Poissons Ratio (z) = 0.19029 0.47795
#
# Static dielectric constant tensor:
#      x y z
#    x 1.509860 0.000000 0.000000 
#    y 0.000000 1.511070 0.000000 
#    z 0.000000 0.000000 1.525740 
# 
# From -- ./inp_files/38811.got.cif
#   From: 2010.05.17/outbox.cif.g08.bks.cpg/sg66_20_cif.got.tgz:38811.got - 2010.06.03 17:51:23.
