data_PCOD9500791
_publ_section_title
;
Structure prediction by ZEFSAII (Michael W. Deem and Ramdas Pophale) SiO2 
 PCOD9500791
Probable space group: C M M A
;
_chemical_formula_sum "Si O2"
_cell_formula_units_Z 112
_cell_length_a 22.372340
_cell_length_b 15.024723
_cell_length_c 17.061824
_cell_angle_alpha 90.000000
_cell_angle_beta 90.000000
_cell_angle_gamma 90.000000
_cell_volume 5735.131002
_symmetry_space_group_name_H-M "C M M A"
_symmetry_group_IT_number 67
_symmetry_cell_setting 'orthorhombic'
loop_
_space_group_symop_operation_xyz
x,y,z
-x,1/2-y,z
x,-y,-z
-x,1/2+y,-z
-x,-y,-z
x,1/2+y,-z
-x,y,z
x,1/2-y,z
1/2+x,1/2+y,z
1/2-x,-y,z
1/2+x,1/2-y,-z
1/2-x,y,-z
1/2-x,1/2-y,-z
1/2+x,y,-z
1/2-x,1/2+y,z
1/2+x,-y,z
loop_
_atom_site_type_symbol
_atom_site_label
_atom_site_fract_x
_atom_site_fract_y
_atom_site_fract_z
Si Si1 0.568073 0.142970 0.364198
Si Si2 0.748179 0.106644 0.803398
Si Si3 0.566351 0.359256 0.036446
Si Si4 0.884630 0.645851 0.199278
Si Si5 0.340335 0.105033 0.489655
Si Si6 0.310636 0.645614 0.039685
Si Si7 0.237071 0.607664 0.626435
O O1 0.500000 0.112577 0.358054
O O2 0.569091 0.250000 0.361976
O O3 0.603286 0.108578 0.286650
O O4 0.597249 0.118431 0.447127
O O5 0.815202 0.138027 0.822889
O O6 0.701235 0.137065 0.868071
O O7 0.735139 0.138281 0.715336
O O8 0.750000 0.000000 0.804450
O O9 0.500000 0.386514 0.009429
O O10 0.566633 0.250000 0.035749
O O11 0.577145 0.389457 0.126491
O O12 0.624981 0.389568 0.988197
O O13 0.899805 0.750000 0.204331
O O14 0.292748 0.140888 0.425777
O O15 0.320900 0.135622 0.575947
O O16 0.331004 0.000000 0.500000
O O17 0.311437 0.750000 0.018117
O O18 0.250000 0.606934 0.000000
O O19 0.250000 0.500000 0.630444
#
# Coordination Sequence:
#
# PCOD9500791 Si02
#       7
#    16  16  16  16  16  16  16
#     4  10  20  32  48  74 105 131 162 210 258 294
#     4  11  20  31  51  77 105 132 163 203 257 302
#     4   9  17  31  53  75  98 133 173 208 248 302
#     4  10  18  32  52  76 103 131 165 206 256 304
#     4   9  16  31  52  70  97 127 167 196 239 297
#     4  10  19  33  51  75 102 130 168 213 253 298
#     4   8  16  30  49  72  94 128 157 199 241 289
#
# _framework density 19.528759999999998
#
# number of rings (size 3 to 8) (size 9 to 14) (size 15 to 20)
#    0.000    2.429    2.857    1.714    0.000    2.286 
#    0.000    2.857    0.000    3.429    0.000    2.000 
#    0.000    0.000    0.000    0.000    0.000    0.000 
#
# Total GULP energy -311925.843058 kJ/mol
# GULP energy per Si atom -5570.104340 kJ/mol
# Density = 1.948431 g / cm^3
# Si number density = 19.528760 Si / 1000 Ang^3
#
#
#
# Elastic Constant Matrix: (Units=GPa)
#
#
# Indices 1 2 3 4 5 6 
#
# 1 123.0993 2.2296 73.7473 0.0000 0.0000 0.0000
# 2 2.2296 29.6183 2.0275 0.0000 0.0000 0.0000
# 3 73.7473 2.0275 111.6211 0.0000 0.0000 0.0000
# 4 0.0000 0.0000 0.0000 42.5790 0.0000 0.0000
# 5 0.0000 0.0000 0.0000 0.0000 63.5986 0.0000
# 6 0.0000 0.0000 0.0000 0.0000 0.0000 244.3893
#
#
#
# Elastic Compliance Matrix: (Units=1/GPa)
#
#
# Indices 1 2 3 4 5 6 
#
# 1 0.013450 -0.000405 -0.008879 0.000000 0.000000 0.000000
# 2 -0.000405 0.033817 -0.000347 0.000000 0.000000 0.000000
# 3 -0.008879 -0.000347 0.014832 0.000000 0.000000 0.000000
# 4 0.000000 0.000000 0.000000 0.023486 0.000000 0.000000
# 5 0.000000 0.000000 0.000000 0.000000 0.015724 0.000000
# 6 0.000000 0.000000 0.000000 0.000000 0.000000 0.004092
#
#
# Mechanical properties :
#
#
# Convention : Reuss Voigt Hill
#
# Bulk Modulus (GPa) = 23.34402 46.70527 35.02464
# Shear Modulus (GPa) = 35.98658 82.53566 59.26112
#
# Velocity S-wave (km/s) = 4.29738 6.50810 5.51466
# Velocity P-wave (km/s) = 6.05003 8.96894 7.65000
#
# Compressibility (1/GPa) = 0.04283753
#
# Stress axis : x y z
#
# Youngs Moduli (GPa) = 74.34819 29.57080 67.42383
#
# Poissons Ratio (x) = 0.01197 0.59866
# Poissons Ratio (y) = 0.03009 0.02339
# Poissons Ratio (z) = 0.66015 0.01026
#
# Static dielectric constant tensor:
#      x y z
#    x 1.710490 0.000000 0.000000 
#    y 0.000000 1.722150 0.000000 
#    z 0.000000 0.000000 1.721340 
# 
# From -- ./inp_files/35137.got.cif
#   From: 2010.05.17/outbox.cif.g08.bks.cpg/sg67_18_cif.got.tgz:35137.got - 2010.06.03 18:28:57.
