data_PCOD9500105
_publ_section_title
;
Structure prediction by ZEFSAII (Michael W. Deem and Ramdas Pophale) SiO2 
 PCOD9500105
Probable space group: C C C M
;
_chemical_formula_sum "Si O2"
_cell_formula_units_Z 56
_cell_length_a 24.000000
_cell_length_b 12.000000
_cell_length_c 21.000000
_cell_angle_alpha 90.000000
_cell_angle_beta 90.000000
_cell_angle_gamma 90.000000
_cell_volume 6048.000000
_symmetry_space_group_name_H-M "C C C M"
_symmetry_group_IT_number 66
_symmetry_cell_setting 'orthorhombic'
loop_
_space_group_symop_operation_xyz
x,y,z
-x,-y,z
x,-y,1/2-z
-x,y,1/2-z
-x,-y,-z
x,y,-z
-x,y,1/2+z
x,-y,1/2+z
1/2+x,1/2+y,z
1/2-x,1/2-y,z
1/2+x,1/2-y,1/2-z
1/2-x,1/2+y,1/2-z
1/2-x,1/2-y,-z
1/2+x,1/2+y,-z
1/2-x,1/2+y,1/2+z
1/2+x,1/2-y,1/2+z
loop_
_atom_site_type_symbol
_atom_site_label
_atom_site_fract_x
_atom_site_fract_y
_atom_site_fract_z
Si Si1 0.266996 0.378941 0.426423
Si Si2 0.189809 0.308274 0.072121
Si Si3 0.818106 0.502658 0.671316
Si Si4 0.899757 0.091799 0.926775
Si Si5 0.484474 0.692857 0.177857
Si Si6 0.576989 0.329746 0.429085
Si Si7 0.945002 0.443355 0.819114
O O1 0.257486 0.422370 0.500000
O O2 0.250000 0.250000 0.427908
O O3 0.229338 0.431146 0.369478
O O4 0.333505 0.392094 0.414610
O O5 0.250000 0.250000 0.073745
O O6 0.185090 0.385013 0.134512
O O7 0.137785 0.224724 0.076175
O O8 0.185138 0.360131 0.000000
O O9 0.810735 0.500000 0.750000
O O10 0.881497 0.545024 0.656021
O O11 0.938020 0.135724 0.868416
O O12 0.914342 0.961739 0.929327
O O13 0.910762 0.136152 0.000000
O O14 0.500000 0.648577 0.250000
O O15 0.538233 0.699366 0.131131
O O16 0.460270 0.815385 0.188929
O O17 0.554001 0.298113 0.500000
O O18 0.941791 0.500000 0.750000
O O19 0.000000 0.500000 0.852015
#
# Coordination Sequence:
#
# PCOD9500105 Si02
#       7
#    16  16  16  16  16  16  16
#     4  10  21  41  64  88 121 165 210 253 311 379
#     4  10  21  40  65  91 121 164 213 257 307 376
#     4  11  23  37  62  93 125 163 206 260 318 378
#     4  10  22  42  64  87 125 167 203 255 318 374
#     4  12  23  38  64  91 120 161 208 258 305 379
#     4  10  22  40  62  88 122 162 205 254 312 373
#     4  10  20  39  59  85 121 169 200 241 317 373
#
# _framework density 9.2592590000000001
#
# number of rings (size 3 to 8) (size 9 to 14) (size 15 to 20)
#    0.000    1.571    1.429    3.857    2.000    5.143 
#    5.143    2.143    0.000    5.143    0.000    0.000 
#    0.000    0.000    0.000    0.000    0.000    0.000 
#
# Total GULP energy -311790.128938 kJ/mol
# GULP energy per Si atom -5567.680874 kJ/mol
# Density = 0.923818 g / cm^3
# Si number density = 9.259259 Si / 1000 Ang^3
#
#
#
# Elastic Constant Matrix: (Units=GPa)
#
#
# Indices 1 2 3 4 5 6 
#
# 1 155.5150 26.2741 76.2689 0.0000 0.0000 0.0000
# 2 26.2741 75.8066 46.5364 0.0000 0.0000 0.0000
# 3 76.2689 46.5364 174.6803 0.0000 0.0000 0.0000
# 4 0.0000 0.0000 0.0000 24.2452 0.0000 0.0000
# 5 0.0000 0.0000 0.0000 0.0000 38.7125 0.0000
# 6 0.0000 0.0000 0.0000 0.0000 0.0000 34.2644
#
#
#
# Elastic Compliance Matrix: (Units=1/GPa)
#
#
# Indices 1 2 3 4 5 6 
#
# 1 0.008220 -0.000772 -0.003383 0.000000 0.000000 0.000000
# 2 -0.000772 0.015843 -0.003884 0.000000 0.000000 0.000000
# 3 -0.003383 -0.003884 0.008237 0.000000 0.000000 0.000000
# 4 0.000000 0.000000 0.000000 0.041245 0.000000 0.000000
# 5 0.000000 0.000000 0.000000 0.000000 0.025831 0.000000
# 6 0.000000 0.000000 0.000000 0.000000 0.000000 0.029185
#
#
# Mechanical properties :
#
#
# Convention : Reuss Voigt Hill
#
# Bulk Modulus (GPa) = 61.64586 78.24007 69.94297
# Shear Modulus (GPa) = 33.32298 36.57258 34.94778
#
# Velocity S-wave (km/s) = 4.24658 4.44883 4.34888
# Velocity P-wave (km/s) = 7.57665 8.29040 7.94155
#
# Compressibility (1/GPa) = 0.01622169
#
# Stress axis : x y z
#
# Youngs Moduli (GPa) = 121.65512 63.11873 121.40901
#
# Poissons Ratio (x) = 0.04873 0.41077
# Poissons Ratio (y) = 0.09392 0.47151
# Poissons Ratio (z) = 0.41160 0.24513
#
# Static dielectric constant tensor:
#      x y z
#    x 1.673350 0.000000 0.000000 
#    y 0.000000 1.674440 0.000000 
#    z 0.000000 0.000000 1.742150 
# 
# From -- ./inp_files/52623.got.cif
#   From: 2010.05.17/outbox.ucp.g08.bks.cvg/sg66_27_cif.got.tgz:52623.got - 2010.06.11 16:44:13.
