data_PCOD9500714
_publ_section_title
;
Structure prediction by ZEFSAII (Michael W. Deem and Ramdas Pophale) SiO2 
 PCOD9500714
Probable space group: C M M A
;
_chemical_formula_sum "Si O2"
_cell_formula_units_Z 112
_cell_length_a 22.137269
_cell_length_b 25.001705
_cell_length_c 11.369514
_cell_angle_alpha 90.000000
_cell_angle_beta 90.000000
_cell_angle_gamma 90.000000
_cell_volume 6292.678877
_symmetry_space_group_name_H-M "C M M A"
_symmetry_group_IT_number 67
_symmetry_cell_setting 'orthorhombic'
loop_
_space_group_symop_operation_xyz
x,y,z
-x,1/2-y,z
x,-y,-z
-x,1/2+y,-z
-x,-y,-z
x,1/2+y,-z
-x,y,z
x,1/2-y,z
1/2+x,1/2+y,z
1/2-x,-y,z
1/2+x,1/2-y,-z
1/2-x,y,-z
1/2-x,1/2-y,-z
1/2+x,y,-z
1/2-x,1/2+y,z
1/2+x,-y,z
loop_
_atom_site_type_symbol
_atom_site_label
_atom_site_fract_x
_atom_site_fract_y
_atom_site_fract_z
Si Si1 0.191172 0.814225 0.421608
Si Si2 0.566449 0.996238 0.857315
Si Si3 0.068326 0.619559 0.806347
Si Si4 0.343660 0.808905 0.064238
Si Si5 0.282541 0.844992 0.839368
Si Si6 0.070346 0.186427 0.430991
Si Si7 0.696362 0.532685 0.875714
O O1 0.194334 0.750000 0.405559
O O2 0.250000 0.829276 0.500000
O O3 0.197827 0.840778 0.294553
O O4 0.126126 0.825562 0.481551
O O5 0.500000 0.975004 0.821008
O O6 0.573545 0.055819 0.804980
O O7 0.628487 0.966710 0.825211
O O8 0.564248 0.000000 0.000000
O O9 0.111907 0.644018 0.902514
O O10 0.079835 0.649561 0.683564
O O11 0.000000 0.632192 0.840543
O O12 0.367918 0.750000 0.091571
O O13 0.283114 0.819343 0.139502
O O14 0.325811 0.813548 0.928425
O O15 0.282592 0.906352 0.882267
O O16 0.074926 0.250000 0.401618
O O17 0.000000 0.177877 0.471226
O O18 0.750000 0.500000 0.811225
O O19 0.690627 0.500000 0.000000
#
# Coordination Sequence:
#
# PCOD9500714 Si02
#       7
#    16  16  16  16  16  16  16
#     4  10  20  35  55  77 102 137 180 219 257 308
#     4   9  17  30  48  72 101 132 169 212 258 309
#     4  10  19  32  53  79 106 137 176 219 263 316
#     4  11  20  31  49  76 112 141 164 207 268 329
#     4  11  21  34  52  77 106 137 175 217 264 318
#     4   9  18  33  53  76 103 138 179 219 257 303
#     4  10  18  31  51  73  98 130 170 211 256 312
#
# _framework density 17.798461
#
# number of rings (size 3 to 8) (size 9 to 14) (size 15 to 20)
#    0.000    2.000    0.000    7.286    0.000    2.000 
#    0.000    1.429    0.000    4.714    0.000    3.000 
#    0.000    0.000    0.000    0.000    0.000    0.000 
#
# Total GULP energy -311964.681138 kJ/mol
# GULP energy per Si atom -5570.797877 kJ/mol
# Density = 1.775795 g / cm^3
# Si number density = 17.798461 Si / 1000 Ang^3
#
#
#
# Elastic Constant Matrix: (Units=GPa)
#
#
# Indices 1 2 3 4 5 6 
#
# 1 90.1340 7.3980 34.0378 0.0000 0.0000 0.0000
# 2 7.3980 44.0009 14.2363 0.0000 0.0000 0.0000
# 3 34.0378 14.2363 61.4076 0.0000 0.0000 0.0000
# 4 0.0000 0.0000 0.0000 18.3884 0.0000 0.0000
# 5 0.0000 0.0000 0.0000 0.0000 9.9343 0.0000
# 6 0.0000 0.0000 0.0000 0.0000 0.0000 18.4556
#
#
#
# Elastic Compliance Matrix: (Units=1/GPa)
#
#
# Indices 1 2 3 4 5 6 
#
# 1 0.014033 0.000170 -0.007818 0.000000 0.000000 0.000000
# 2 0.000170 0.024572 -0.005791 0.000000 0.000000 0.000000
# 3 -0.007818 -0.005791 0.021960 0.000000 0.000000 0.000000
# 4 0.000000 0.000000 0.000000 0.054382 0.000000 0.000000
# 5 0.000000 0.000000 0.000000 0.000000 0.100662 0.000000
# 6 0.000000 0.000000 0.000000 0.000000 0.000000 0.054184
#
#
# Mechanical properties :
#
#
# Convention : Reuss Voigt Hill
#
# Bulk Modulus (GPa) = 29.68407 34.09852 31.89130
# Shear Modulus (GPa) = 16.23906 18.68033 17.45970
#
# Velocity S-wave (km/s) = 3.02385 3.24319 3.13544
# Velocity P-wave (km/s) = 5.37640 5.76403 5.57359
#
# Compressibility (1/GPa) = 0.03368810
#
# Stress axis : x y z
#
# Youngs Moduli (GPa) = 71.26117 40.69704 45.53643
#
# Poissons Ratio (x) = -0.00692 0.35599
# Poissons Ratio (y) = -0.01211 0.26369
# Poissons Ratio (z) = 0.55710 0.23567
#
# Static dielectric constant tensor:
#      x y z
#    x 1.666750 0.000000 0.000000 
#    y 0.000000 1.612410 0.000000 
#    z 0.000000 0.000000 1.428520 
# 
# From -- ./inp_files/21109.got.cif
#   From: 2010.05.17/outbox.cif.g08.bks.cpg/sg67_11_cif.got.tgz:21109.got - 2010.06.03 18:28:57.
