data_PCOD9500186
_publ_section_title
;
Structure prediction by ZEFSAII (Michael W. Deem and Ramdas Pophale) SiO2 
 PCOD9500186
Probable space group: C M M A
;
_chemical_formula_sum "Si O2"
_cell_formula_units_Z 56
_cell_length_a 38.359747
_cell_length_b 8.616927
_cell_length_c 9.610875
_cell_angle_alpha 90.000000
_cell_angle_beta 90.000000
_cell_angle_gamma 90.000000
_cell_volume 3176.808797
_symmetry_space_group_name_H-M "C M M A"
_symmetry_group_IT_number 67
_symmetry_cell_setting 'orthorhombic'
loop_
_space_group_symop_operation_xyz
x,y,z
-x,1/2-y,z
x,-y,-z
-x,1/2+y,-z
-x,-y,-z
x,1/2+y,-z
-x,y,z
x,1/2-y,z
1/2+x,1/2+y,z
1/2-x,-y,z
1/2+x,1/2-y,-z
1/2-x,y,-z
1/2-x,1/2-y,-z
1/2+x,y,-z
1/2-x,1/2+y,z
1/2+x,-y,z
loop_
_atom_site_type_symbol
_atom_site_label
_atom_site_fract_x
_atom_site_fract_y
_atom_site_fract_z
Si Si1 0.500000 0.565476 0.841174
Si Si2 0.571404 0.436066 0.841822
Si Si3 0.712925 0.936782 0.343730
Si Si4 0.851981 0.562978 0.843554
O O1 0.500000 0.750000 0.847162
O O2 0.536249 0.505570 0.776431
O O3 0.500000 0.500000 0.000000
O O4 0.568233 0.250000 0.844930
O O5 0.609613 0.479640 0.784430
O O6 0.572446 0.500000 0.000000
O O7 0.714127 0.750000 0.347263
O O8 0.680311 0.988058 0.250409
O O9 0.708813 0.000000 0.500000
O O10 0.750000 0.000000 0.290046
O O11 0.851293 0.750000 0.850653
O O12 0.848766 0.500000 0.000000
#
# Coordination Sequence:
#
# PCOD9500186 Si02
#       4
#     8  16  16  16
#     4  10  16  22  34  56  85 118 151 184 220 266
#     4   9  15  25  39  58  85 118 150 185 224 267
#     4  10  20  35  52  72  94 122 157 194 232 278
#     4   9  19  32  48  70  97 124 156 193 234 278
#
# _framework density 17.627752000000001
#
# number of rings (size 3 to 8) (size 9 to 14) (size 15 to 20)
#    0.000    2.571    0.000    5.571    0.000    4.000 
#    0.000    2.857    0.000    0.000    0.000    1.000 
#    0.000    0.000    0.000    0.000    0.000    0.000 
#
# Total GULP energy -155944.707355 kJ/mol
# GULP energy per Si atom -5569.453834 kJ/mol
# Density = 1.758763 g / cm^3
# Si number density = 17.627752 Si / 1000 Ang^3
#
#
#
# Elastic Constant Matrix: (Units=GPa)
#
#
# Indices 1 2 3 4 5 6 
#
# 1 235.5785 54.3084 55.5808 0.0000 0.0000 0.0000
# 2 54.3084 66.5398 11.8117 0.0000 0.0000 0.0000
# 3 55.5808 11.8117 24.0571 0.0000 0.0000 0.0000
# 4 0.0000 0.0000 0.0000 12.5978 0.0000 0.0000
# 5 0.0000 0.0000 0.0000 0.0000 -8.4523 0.0000
# 6 0.0000 0.0000 0.0000 0.0000 0.0000 30.0902
#
#
#
# Elastic Compliance Matrix: (Units=1/GPa)
#
#
# Indices 1 2 3 4 5 6 
#
# 1 0.010510 -0.004675 -0.021987 0.000000 0.000000 0.000000
# 2 -0.004675 0.018543 0.001697 0.000000 0.000000 0.000000
# 3 -0.021987 0.001697 0.091532 0.000000 0.000000 0.000000
# 4 0.000000 0.000000 0.000000 0.079379 0.000000 0.000000
# 5 0.000000 0.000000 0.000000 0.000000 -0.118312 0.000000
# 6 0.000000 0.000000 0.000000 0.000000 0.000000 0.033233
#
#
# Mechanical properties :
#
#
# Convention : Reuss Voigt Hill
#
# Bulk Modulus (GPa) = 14.15326 63.28638 38.71982
# Shear Modulus (GPa) = 26.54390 20.47877 23.51134
#
# Velocity S-wave (km/s) = 3.88468 3.41212 3.65604
# Velocity P-wave (km/s) = 5.30729 7.17655 6.31151
#
# Compressibility (1/GPa) = 0.07065511
#
# Stress axis : x y z
#
# Youngs Moduli (GPa) = 95.14751 53.92838 10.92517
#
# Poissons Ratio (x) = 0.25212 0.24021
# Poissons Ratio (y) = 0.44483 -0.01854
# Poissons Ratio (z) = 2.09197 -0.09151
#
# Static dielectric constant tensor:
#      x y z
#    x 1.689390 0.000000 0.000000 
#    y 0.000000 1.596520 0.000000 
#    z 0.000000 0.000000 1.557250 
# 
# From -- ./inp_files/15709.got.cif
#   From: 2010.05.17/outbox.cif.g08.bks.cpg/sg67_8_cif.got.tgz:15709.got - 2010.06.03 18:28:57.
