data_PCOD9500106
_publ_section_title
;
Structure prediction by ZEFSAII (Michael W. Deem and Ramdas Pophale) SiO2 
 PCOD9500106
Probable space group: C C C M
;
_chemical_formula_sum "Si O2"
_cell_formula_units_Z 48
_cell_length_a 24.000000
_cell_length_b 24.000000
_cell_length_c 9.000000
_cell_angle_alpha 90.000000
_cell_angle_beta 90.000000
_cell_angle_gamma 90.000000
_cell_volume 5184.000000
_symmetry_space_group_name_H-M "C C C M"
_symmetry_group_IT_number 66
_symmetry_cell_setting 'orthorhombic'
loop_
_space_group_symop_operation_xyz
x,y,z
-x,-y,z
x,-y,1/2-z
-x,y,1/2-z
-x,-y,-z
x,y,-z
-x,y,1/2+z
x,-y,1/2+z
1/2+x,1/2+y,z
1/2-x,1/2-y,z
1/2+x,1/2-y,1/2-z
1/2-x,1/2+y,1/2-z
1/2-x,1/2-y,-z
1/2+x,1/2+y,-z
1/2-x,1/2+y,1/2+z
1/2+x,1/2-y,1/2+z
loop_
_atom_site_type_symbol
_atom_site_label
_atom_site_fract_x
_atom_site_fract_y
_atom_site_fract_z
Si Si1 0.813880 0.250437 0.674843
Si Si2 0.356201 0.875490 0.669029
Si Si3 0.439958 0.554679 0.824172
Si Si4 0.240768 0.940288 0.327110
Si Si5 0.559573 0.055144 0.173744
Si Si6 0.346507 0.641765 0.175022
O O1 0.813324 0.235533 0.500000
O O2 0.750000 0.250000 0.727525
O O3 0.837334 0.312195 0.689115
O O4 0.847008 0.203535 0.761461
O O5 0.378109 0.882056 0.500000
O O6 0.302770 0.915281 0.683436
O O7 0.401520 0.893648 0.787019
O O8 0.412758 0.500000 0.750000
O O9 0.500000 0.560632 0.750000
O O10 0.403377 0.608766 0.797690
O O11 0.445093 0.545464 0.000000
O O12 0.226246 0.946166 0.500000
O O13 0.200950 0.894642 0.253628
O O14 0.236718 0.000000 0.250000
O O15 0.500000 0.062924 0.250000
O O16 0.584954 0.000000 0.250000
O O17 0.553551 0.046223 0.000000
O O18 0.335687 0.642573 0.000000
#
# Coordination Sequence:
#
# PCOD9500106 Si02
#       6
#    16  16  16  16  16  16
#     4  10  20  39  61  83 112 154 195 233 286 339
#     4  10  21  38  59  84 115 149 192 236 283 342
#     4  10  21  37  58  84 113 147 188 232 284 339
#     4  11  22  36  55  82 116 150 187 233 287 345
#     4  11  22  38  61  87 117 152 192 235 289 343
#     4  11  23  37  56  85 116 149 192 236 283 341
#
# _framework density 9.2592590000000001
#
# number of rings (size 3 to 8) (size 9 to 14) (size 15 to 20)
#    0.000    1.500    1.667    5.000    0.000    7.667 
#    0.000    0.833    0.000    2.000    0.000    0.000 
#    0.000    0.000    0.000    0.000    0.000    0.000 
#
# Total GULP energy -268090.387668 kJ/mol
# GULP energy per Si atom -5585.216410 kJ/mol
# Density = 0.923818 g / cm^3
# Si number density = 9.259259 Si / 1000 Ang^3
#
#
#
# Elastic Constant Matrix: (Units=GPa)
#
#
# Indices 1 2 3 4 5 6 
#
# 1 41.4416 22.6429 50.1831 0.0000 0.0000 0.0000
# 2 22.6429 45.2794 38.8520 0.0000 0.0000 0.0000
# 3 50.1831 38.8520 92.1924 0.0000 0.0000 0.0000
# 4 0.0000 0.0000 0.0000 31.1313 0.0000 0.0000
# 5 0.0000 0.0000 0.0000 0.0000 29.4360 0.0000
# 6 0.0000 0.0000 0.0000 0.0000 0.0000 75.7378
#
#
#
# Elastic Compliance Matrix: (Units=1/GPa)
#
#
# Indices 1 2 3 4 5 6 
#
# 1 0.071184 -0.003681 -0.037196 0.000000 0.000000 0.000000
# 2 -0.003681 0.034785 -0.012656 0.000000 0.000000 0.000000
# 3 -0.037196 -0.012656 0.036427 0.000000 0.000000 0.000000
# 4 0.000000 0.000000 0.000000 0.032122 0.000000 0.000000
# 5 0.000000 0.000000 0.000000 0.000000 0.033972 0.000000
# 6 0.000000 0.000000 0.000000 0.000000 0.000000 0.013203
#
#
# Mechanical properties :
#
#
# Convention : Reuss Voigt Hill
#
# Bulk Modulus (GPa) = 28.30399 44.69658 36.50029
# Shear Modulus (GPa) = 14.68276 31.74337 23.21306
#
# Velocity S-wave (km/s) = 2.81885 4.14471 3.54433
# Velocity P-wave (km/s) = 5.09037 6.86246 6.04174
#
# Compressibility (1/GPa) = 0.03533071
#
# Stress axis : x y z
#
# Youngs Moduli (GPa) = 14.04815 28.74816 27.45193
#
# Poissons Ratio (x) = 0.10581 1.02111
# Poissons Ratio (y) = 0.05171 0.34742
# Poissons Ratio (z) = 0.52254 0.36383
#
# Static dielectric constant tensor:
#      x y z
#    x 1.646710 0.000000 0.000000 
#    y 0.000000 1.594930 0.000000 
#    z 0.000000 0.000000 1.639340 
# 
# From -- ./inp_files/8038.got.cif
#   From: 2010.05.17/outbox.ucp.g08.bks.cvg/sg66_5_cif.got.tgz:8038.got - 2010.06.11 16:44:13.
