data_PCOD9500318
_publ_section_title
;
Structure prediction by ZEFSAII (Michael W. Deem and Ramdas Pophale) SiO2 
 PCOD9500318
Probable space group: C M M A
;
_chemical_formula_sum "Si O2"
_cell_formula_units_Z 96
_cell_length_a 8.709524
_cell_length_b 19.129927
_cell_length_c 32.536556
_cell_angle_alpha 90.000000
_cell_angle_beta 90.000000
_cell_angle_gamma 90.000000
_cell_volume 5420.998834
_symmetry_space_group_name_H-M "C M M A"
_symmetry_group_IT_number 67
_symmetry_cell_setting 'orthorhombic'
loop_
_space_group_symop_operation_xyz
x,y,z
-x,1/2-y,z
x,-y,-z
-x,1/2+y,-z
-x,-y,-z
x,1/2+y,-z
-x,y,z
x,1/2-y,z
1/2+x,1/2+y,z
1/2-x,-y,z
1/2+x,1/2-y,-z
1/2-x,y,-z
1/2-x,1/2-y,-z
1/2+x,y,-z
1/2-x,1/2+y,z
1/2+x,-y,z
loop_
_atom_site_type_symbol
_atom_site_label
_atom_site_fract_x
_atom_site_fract_y
_atom_site_fract_z
Si Si1 0.316447 0.421070 0.458527
Si Si2 0.315419 0.668795 0.793368
Si Si3 0.183908 0.920578 0.957929
Si Si4 0.184896 0.078380 0.872826
Si Si5 0.683837 0.921638 0.632161
Si Si6 0.183410 0.668386 0.706154
O O1 0.500000 0.424225 0.462015
O O2 0.250000 0.500000 0.457643
O O3 0.250000 0.387103 0.500000
O O4 0.276025 0.391997 0.413411
O O5 0.500000 0.666126 0.789293
O O6 0.270682 0.750000 0.799289
O O7 0.273039 0.623444 0.832956
O O8 0.242464 0.643638 0.750683
O O9 0.244988 0.890473 0.914940
O O10 0.000000 0.922425 0.959032
O O11 0.250000 0.000000 0.957317
O O12 0.250000 0.888213 0.000000
O O13 0.000000 0.075488 0.876645
O O14 0.250000 0.000000 0.867933
O O15 0.500000 0.925391 0.634490
O O16 0.747484 0.875342 0.668930
O O17 0.750000 0.000000 0.635227
O O18 0.229084 0.750000 0.702360
O O19 0.000000 0.664051 0.705075
#
# Coordination Sequence:
#
# PCOD9500318 Si02
#       6
#    16  16  16  16  16  16
#     4   9  16  26  43  68  97 129 162 197 240 289
#     4   9  19  36  55  72  94 129 168 203 243 294
#     4  10  17  27  44  67  97 129 161 196 236 283
#     4  10  19  31  49  74 101 127 159 199 243 288
#     4  10  20  33  51  76 104 133 166 206 250 295
#     4  10  21  36  54  75  99 130 168 208 250 299
#
# _framework density 17.708914
#
# number of rings (size 3 to 8) (size 9 to 14) (size 15 to 20)
#    0.000    2.333    0.000    5.500    0.000    5.000 
#    0.000    1.667    0.000    1.000    0.000    0.000 
#    0.000    0.000    0.000    0.000    0.000    0.000 
#
# Total GULP energy -267582.762436 kJ/mol
# GULP energy per Si atom -5574.640884 kJ/mol
# Density = 1.766861 g / cm^3
# Si number density = 17.708914 Si / 1000 Ang^3
#
#
#
# Elastic Constant Matrix: (Units=GPa)
#
#
# Indices 1 2 3 4 5 6 
#
# 1 77.7170 23.0651 73.8067 0.0000 0.0000 0.0000
# 2 23.0651 32.1840 62.1058 0.0000 0.0000 0.0000
# 3 73.8067 62.1058 230.6854 0.0000 0.0000 0.0000
# 4 0.0000 0.0000 0.0000 -18.5199 0.0000 0.0000
# 5 0.0000 0.0000 0.0000 0.0000 35.8846 0.0000
# 6 0.0000 0.0000 0.0000 0.0000 0.0000 17.6021
#
#
#
# Elastic Compliance Matrix: (Units=1/GPa)
#
#
# Indices 1 2 3 4 5 6 
#
# 1 0.018712 -0.003866 -0.004946 0.000000 0.000000 0.000000
# 2 -0.003866 0.065466 -0.016388 0.000000 0.000000 0.000000
# 3 -0.004946 -0.016388 0.010329 0.000000 0.000000 0.000000
# 4 0.000000 0.000000 0.000000 -0.053996 0.000000 0.000000
# 5 0.000000 0.000000 0.000000 0.000000 0.027867 0.000000
# 6 0.000000 0.000000 0.000000 0.000000 0.000000 0.056811
#
#
# Mechanical properties :
#
#
# Convention : Reuss Voigt Hill
#
# Bulk Modulus (GPa) = 22.67178 73.17129 47.92154
# Shear Modulus (GPa) = 26.27539 19.10062 22.68800
#
# Velocity S-wave (km/s) = 3.85611 3.28775 3.58322
# Velocity P-wave (km/s) = 5.71458 7.47134 6.65122
#
# Compressibility (1/GPa) = 0.04410769
#
# Stress axis : x y z
#
# Youngs Moduli (GPa) = 53.44291 15.27502 96.81061
#
# Poissons Ratio (x) = 0.05905 0.47882
# Poissons Ratio (y) = 0.20659 1.58656
# Poissons Ratio (z) = 0.26433 0.25033
#
# Static dielectric constant tensor:
#      x y z
#    x 1.593100 0.000000 0.000000 
#    y 0.000000 1.578800 0.000000 
#    z 0.000000 0.000000 1.653650 
# 
# From -- ./inp_files/43649.got.cif
#   From: 2010.05.17/outbox.cif.g08.bks.cpg/sg67_22_cif.got.tgz:43649.got - 2010.06.03 18:28:57.
