data_PCOD9500602
_publ_section_title
;
Structure prediction by ZEFSAII (Michael W. Deem and Ramdas Pophale) SiO2 
 PCOD9500602
Probable space group: C M M A
;
_chemical_formula_sum "Si O2"
_cell_formula_units_Z 84
_cell_length_a 14.201554
_cell_length_b 21.756256
_cell_length_c 16.796437
_cell_angle_alpha 90.000000
_cell_angle_beta 90.000000
_cell_angle_gamma 90.000000
_cell_volume 5189.639557
_symmetry_space_group_name_H-M "C M M A"
_symmetry_group_IT_number 67
_symmetry_cell_setting 'orthorhombic'
loop_
_space_group_symop_operation_xyz
x,y,z
-x,1/2-y,z
x,-y,-z
-x,1/2+y,-z
-x,-y,-z
x,1/2+y,-z
-x,y,z
x,1/2-y,z
1/2+x,1/2+y,z
1/2-x,-y,z
1/2+x,1/2-y,-z
1/2-x,y,-z
1/2-x,1/2-y,-z
1/2+x,y,-z
1/2-x,1/2+y,z
1/2+x,-y,z
loop_
_atom_site_type_symbol
_atom_site_label
_atom_site_fract_x
_atom_site_fract_y
_atom_site_fract_z
Si Si1 0.106776 0.322257 0.600979
Si Si2 0.211583 0.175304 0.125708
Si Si3 0.105035 0.675160 0.032004
Si Si4 0.296962 0.323561 0.693503
Si Si5 0.891362 0.401951 0.440718
Si Si6 0.750000 0.000000 0.500000
O O1 0.113582 0.250000 0.579304
O O2 0.189740 0.334538 0.663438
O O3 0.120440 0.362466 0.521905
O O4 0.000000 0.332899 0.631035
O O5 0.212065 0.250000 0.127172
O O6 0.314398 0.155840 0.093846
O O7 0.191420 0.155679 0.215382
O O8 0.138249 0.157187 0.056856
O O9 0.104597 0.750000 0.033194
O O10 0.000000 0.653830 0.050064
O O11 0.313530 0.250000 0.688871
O O12 0.364354 0.358969 0.633094
O O13 0.818453 0.457655 0.447445
O O14 0.000000 0.421995 0.436208
#
# Coordination Sequence:
#
# PCOD9500602 Si02
#       6
#    16  16  16  16  16   4
#     4   9  17  30  48  69  93 123 157 192 237 289
#     4   8  15  24  37  60  88 122 159 188 221 269
#     4   8  13  23  37  54  84 125 160 185 215 265
#     4  10  18  30  47  70 100 126 155 200 243 277
#     4  11  22  35  52  71  90 121 160 196 237 283
#     4  12  22  40  54  66  88 126 162 202 232 282
#
# _framework density 16.186095000000002
#
# number of rings (size 3 to 8) (size 9 to 14) (size 15 to 20)
#    0.000    2.667    1.905    2.000    0.000    4.190 
#    0.000    5.714    0.000    0.000    0.000    0.000 
#    0.000    3.048    0.000    8.571    0.000    1.524 
#
# Total GULP energy -233949.328359 kJ/mol
# GULP energy per Si atom -5570.222104 kJ/mol
# Density = 1.614926 g / cm^3
# Si number density = 16.186095 Si / 1000 Ang^3
#
#
#
# Elastic Constant Matrix: (Units=GPa)
#
#
# Indices 1 2 3 4 5 6 
#
# 1 59.6556 17.8702 -4.0098 0.0000 0.0000 0.0000
# 2 17.8702 22.8158 13.2395 0.0000 0.0000 0.0000
# 3 -4.0098 13.2395 55.7807 0.0000 0.0000 0.0000
# 4 0.0000 0.0000 0.0000 0.0571 0.0000 0.0000
# 5 0.0000 0.0000 0.0000 0.0000 7.4831 0.0000
# 6 0.0000 0.0000 0.0000 0.0000 0.0000 15.1601
#
#
#
# Elastic Compliance Matrix: (Units=1/GPa)
#
#
# Indices 1 2 3 4 5 6 
#
# 1 0.024178 -0.023131 0.007228 0.000000 0.000000 0.000000
# 2 -0.023131 0.072960 -0.018980 0.000000 0.000000 0.000000
# 3 0.007228 -0.018980 0.022952 0.000000 0.000000 0.000000
# 4 0.000000 0.000000 0.000000 17.508815 0.000000 0.000000
# 5 0.000000 0.000000 0.000000 0.000000 0.133635 0.000000
# 6 0.000000 0.000000 0.000000 0.000000 0.000000 0.065963
#
#
# Mechanical properties :
#
#
# Convention : Reuss Voigt Hill
#
# Bulk Modulus (GPa) = 19.87128 21.38354 20.62741
# Shear Modulus (GPa) = 0.27910 11.95021 6.11465
#
# Velocity S-wave (km/s) = 0.41570 2.72012 1.94574
# Velocity P-wave (km/s) = 3.54031 4.80678 4.22131
#
# Compressibility (1/GPa) = 0.05032389
#
# Stress axis : x y z
#
# Youngs Moduli (GPa) = 41.36016 13.70614 43.56967
#
# Poissons Ratio (x) = 0.31704 -0.31493
# Poissons Ratio (y) = 0.95671 0.82694
# Poissons Ratio (z) = -0.29896 0.26014
#
# Static dielectric constant tensor:
#      x y z
#    x 1.567540 0.000000 0.000000 
#    y 0.000000 1.525860 0.000000 
#    z 0.000000 0.000000 1.529260 
# 
# From -- ./inp_files/27079.got.cif
#   From: 2010.05.17/outbox.cif.g08.bks.cpg/sg67_14_cif.got.tgz:27079.got - 2010.06.03 18:28:57.
