data_PCOD9500078
_publ_section_title
;
Structure prediction by ZEFSAII (Michael W. Deem and Ramdas Pophale) SiO2 
 PCOD9500078
Probable space group: C C C M
;
_chemical_formula_sum "Si O2"
_cell_formula_units_Z 46
_cell_length_a 24.000000
_cell_length_b 9.000000
_cell_length_c 21.000000
_cell_angle_alpha 90.000000
_cell_angle_beta 90.000000
_cell_angle_gamma 90.000000
_cell_volume 4536.000000
_symmetry_space_group_name_H-M "C C C M"
_symmetry_group_IT_number 66
_symmetry_cell_setting 'orthorhombic'
loop_
_space_group_symop_operation_xyz
x,y,z
-x,-y,z
x,-y,1/2-z
-x,y,1/2-z
-x,-y,-z
x,y,-z
-x,y,1/2+z
x,-y,1/2+z
1/2+x,1/2+y,z
1/2-x,1/2-y,z
1/2+x,1/2-y,1/2-z
1/2-x,1/2+y,1/2-z
1/2-x,1/2-y,-z
1/2+x,1/2+y,-z
1/2-x,1/2+y,1/2+z
1/2+x,1/2-y,1/2+z
loop_
_atom_site_type_symbol
_atom_site_label
_atom_site_fract_x
_atom_site_fract_y
_atom_site_fract_z
Si Si1 0.750000 0.250000 0.856539
Si Si2 0.480859 0.660417 0.426523
Si Si3 0.830286 0.515390 0.575790
Si Si4 0.431343 0.830774 0.853728
Si Si5 0.349775 0.567233 0.181710
Si Si6 0.152387 0.176289 0.073724
Si Si7 0.000000 0.500000 0.750000
O O1 0.782472 0.373612 0.898610
O O2 0.704707 0.331053 0.813456
O O3 0.500000 0.500000 0.399162
O O4 0.497316 0.656697 0.500000
O O5 0.515444 0.791299 0.395755
O O6 0.415046 0.686660 0.422846
O O7 0.836611 0.535807 0.500000
O O8 0.886951 0.563559 0.611516
O O9 0.821568 0.338837 0.586488
O O10 0.398487 0.677245 0.841067
O O11 0.458140 0.900756 0.791409
O O12 0.363972 0.500000 0.250000
O O13 0.335537 0.445699 0.127435
O O14 0.166500 0.132884 0.000000
#
# Coordination Sequence:
#
# PCOD9500078 Si02
#       7
#     8  16  16  16  16  16   4
#     4  10  25  46  64  96 123 174 216 270 336 398
#     4  10  19  35  62  95 129 167 208 258 322 387
#     4  10  22  42  69  98 130 166 215 275 331 388
#     4  11  24  40  63  92 134 173 218 258 318 380
#     4  11  26  44  66  94 125 172 217 274 329 385
#     4  10  22  40  65  99 132 167 215 272 326 385
#     4  12  28  40  60  96 136 184 218 258 304 398
#
# _framework density 10.141093
#
# number of rings (size 3 to 8) (size 9 to 14) (size 15 to 20)
#    0.000    1.565    1.739    1.826    4.870    5.565 
#    3.130    5.217    0.000    0.000    0.000    0.000 
#    0.000    0.000    0.000    0.000    0.000    0.000 
#
# Total GULP energy -256893.331000 kJ/mol
# GULP energy per Si atom -5584.637630 kJ/mol
# Density = 1.011801 g / cm^3
# Si number density = 10.141093 Si / 1000 Ang^3
#
#
#
# Elastic Constant Matrix: (Units=GPa)
#
#
# Indices 1 2 3 4 5 6 
#
# 1 26.4937 -3.4648 -3.1854 0.0000 0.0000 0.0000
# 2 -3.4648 84.3815 17.3116 0.0000 0.0000 0.0000
# 3 -3.1854 17.3116 25.4737 0.0000 0.0000 0.0000
# 4 0.0000 0.0000 0.0000 18.2621 0.0000 0.0000
# 5 0.0000 0.0000 0.0000 0.0000 17.5619 0.0000
# 6 0.0000 0.0000 0.0000 0.0000 0.0000 33.0847
#
#
#
# Elastic Compliance Matrix: (Units=1/GPa)
#
#
# Indices 1 2 3 4 5 6 
#
# 1 0.038355 0.000687 0.004329 0.000000 0.000000 0.000000
# 2 0.000687 0.013783 -0.009281 0.000000 0.000000 0.000000
# 3 0.004329 -0.009281 0.046105 0.000000 0.000000 0.000000
# 4 0.000000 0.000000 0.000000 0.054758 0.000000 0.000000
# 5 0.000000 0.000000 0.000000 0.000000 0.056942 0.000000
# 6 0.000000 0.000000 0.000000 0.000000 0.000000 0.030225
#
#
# Mechanical properties :
#
#
# Convention : Reuss Voigt Hill
#
# Bulk Modulus (GPa) = 11.14661 17.51909 14.33285
# Shear Modulus (GPa) = 17.94670 22.16090 20.05380
#
# Velocity S-wave (km/s) = 2.97787 3.30908 3.14783
# Velocity P-wave (km/s) = 4.16309 4.82249 4.50487
#
# Compressibility (1/GPa) = 0.08971335
#
# Stress axis : x y z
#
# Youngs Moduli (GPa) = 26.07216 72.55186 21.68965
#
# Poissons Ratio (x) = -0.04982 -0.09390
# Poissons Ratio (y) = -0.01790 0.20130
# Poissons Ratio (z) = -0.11288 0.67336
#
# Static dielectric constant tensor:
#      x y z
#    x 1.725010 0.000000 0.000000 
#    y 0.000000 1.838320 0.000000 
#    z 0.000000 0.000000 1.718140 
# 
# From -- ./inp_files/52444.got.cif
#   From: 2010.05.17/outbox.ucp.g08.bks.cvg/sg66_27_cif.got.tgz:52444.got - 2010.06.11 16:44:13.
