data_PCOD9500807
_publ_section_title
;
Structure prediction by ZEFSAII (Michael W. Deem and Ramdas Pophale) SiO2 
 PCOD9500807
Probable space group: C M M A
;
_chemical_formula_sum "Si O2"
_cell_formula_units_Z 120
_cell_length_a 24.070281
_cell_length_b 23.553592
_cell_length_c 12.234798
_cell_angle_alpha 90.000000
_cell_angle_beta 90.000000
_cell_angle_gamma 90.000000
_cell_volume 6936.415685
_symmetry_space_group_name_H-M "C M M A"
_symmetry_group_IT_number 67
_symmetry_cell_setting 'orthorhombic'
loop_
_space_group_symop_operation_xyz
x,y,z
-x,1/2-y,z
x,-y,-z
-x,1/2+y,-z
-x,-y,-z
x,1/2+y,-z
-x,y,z
x,1/2-y,z
1/2+x,1/2+y,z
1/2-x,-y,z
1/2+x,1/2-y,-z
1/2-x,y,-z
1/2-x,1/2-y,-z
1/2+x,y,-z
1/2-x,1/2+y,z
1/2+x,-y,z
loop_
_atom_site_type_symbol
_atom_site_label
_atom_site_fract_x
_atom_site_fract_y
_atom_site_fract_z
Si Si1 0.065845 0.997814 0.766180
Si Si2 0.864120 0.317949 0.800210
Si Si3 0.438139 0.131907 0.005715
Si Si4 0.434575 0.113573 0.621251
Si Si5 0.244249 0.181125 0.125769
Si Si6 0.622388 0.682075 0.202297
Si Si7 0.935078 0.884693 0.364306
Si Si8 0.915135 0.500000 0.000000
O O1 0.071962 0.056021 0.699981
O O2 0.000000 0.994512 0.802062
O O3 0.075427 0.945170 0.685847
O O4 0.105071 0.996188 0.873192
O O5 0.867176 0.250000 0.809121
O O6 0.799567 0.335407 0.809046
O O7 0.894686 0.339960 0.692543
O O8 0.896376 0.345159 0.902878
O O9 0.500000 0.153625 0.028090
O O10 0.416902 0.153475 0.888777
O O11 0.440149 0.063603 0.007433
O O12 0.500000 0.127241 0.634755
O O13 0.398008 0.160897 0.680507
O O14 0.423973 0.107843 0.492625
O O15 0.243429 0.250000 0.122967
O O16 0.185550 0.163675 0.176338
O O17 0.250000 0.161720 0.000000
O O18 0.618864 0.750000 0.192199
O O19 0.000000 0.867966 0.351293
#
# Coordination Sequence:
#
# PCOD9500807 Si02
#       8
#    16  16  16  16  16  16  16   8
#     4  10  18  32  53  79 111 146 185 221 264 327
#     4  11  22  36  56  81 110 145 185 226 274 329
#     4  12  22  33  53  84 118 145 174 219 278 333
#     4  10  21  36  55  80 112 150 187 225 270 321
#     4   9  18  36  57  77 104 145 188 224 268 326
#     4  11  22  36  56  81 110 145 185 226 274 329
#     4  10  21  36  55  80 112 150 187 225 270 321
#     4  12  21  32  54  85 116 145 178 220 267 324
#
# _framework density 17.300001000000002
#
# number of rings (size 3 to 8) (size 9 to 14) (size 15 to 20)
#    0.000    1.467    4.000    2.800    0.000    4.800 
#    0.000    2.000    0.000    6.400    0.000    1.867 
#    0.000    0.000    0.000    0.000    0.000    0.000 
#
# Total GULP energy -334407.870478 kJ/mol
# GULP energy per Si atom -5573.464508 kJ/mol
# Density = 1.726063 g / cm^3
# Si number density = 17.300001 Si / 1000 Ang^3
#
#
#
# Elastic Constant Matrix: (Units=GPa)
#
#
# Indices 1 2 3 4 5 6 
#
# 1 41.5927 19.1612 19.2982 0.0000 0.0000 0.0000
# 2 19.1612 69.9035 19.2862 0.0000 0.0000 0.0000
# 3 19.2982 19.2862 110.6229 0.0000 0.0000 0.0000
# 4 0.0000 0.0000 0.0000 21.3485 0.0000 0.0000
# 5 0.0000 0.0000 0.0000 0.0000 19.4456 0.0000
# 6 0.0000 0.0000 0.0000 0.0000 0.0000 -28.3853
#
#
#
# Elastic Compliance Matrix: (Units=1/GPa)
#
#
# Indices 1 2 3 4 5 6 
#
# 1 0.029006 -0.006886 -0.003860 0.000000 0.000000 0.000000
# 2 -0.006886 0.016663 -0.001704 0.000000 0.000000 0.000000
# 3 -0.003860 -0.001704 0.010010 0.000000 0.000000 0.000000
# 4 0.000000 0.000000 0.000000 0.046842 0.000000 0.000000
# 5 0.000000 0.000000 0.000000 0.000000 0.051425 0.000000
# 6 0.000000 0.000000 0.000000 0.000000 0.000000 -0.035229
#
#
# Mechanical properties :
#
#
# Convention : Reuss Voigt Hill
#
# Bulk Modulus (GPa) = 32.48835 37.51223 35.00029
# Shear Modulus (GPa) = 32.49392 13.44000 22.96696
#
# Velocity S-wave (km/s) = 4.33859 2.79028 3.64754
# Velocity P-wave (km/s) = 6.62707 5.66668 6.16560
#
# Compressibility (1/GPa) = 0.03078026
#
# Stress axis : x y z
#
# Youngs Moduli (GPa) = 34.47601 60.01321 99.89943
#
# Poissons Ratio (x) = 0.41324 0.38557
# Poissons Ratio (y) = 0.23740 0.17021
# Poissons Ratio (z) = 0.13306 0.10225
#
# Static dielectric constant tensor:
#      x y z
#    x 1.583720 0.000000 0.000000 
#    y 0.000000 1.581410 0.000000 
#    z 0.000000 0.000000 1.596520 
# 
# From -- ./inp_files/21166.got.cif
#   From: 2010.05.17/outbox.cif.g08.bks.cpg/sg67_11_cif.got.tgz:21166.got - 2010.06.03 18:28:57.
