data_PCOD9500581
_publ_section_title
;
Structure prediction by ZEFSAII (Michael W. Deem and Ramdas Pophale) SiO2 
 PCOD9500581
Probable space group: C M M A
;
_chemical_formula_sum "Si O2"
_cell_formula_units_Z 88
_cell_length_a 20.718045
_cell_length_b 19.433055
_cell_length_c 10.788693
_cell_angle_alpha 90.000000
_cell_angle_beta 90.000000
_cell_angle_gamma 90.000000
_cell_volume 4343.688639
_symmetry_space_group_name_H-M "C M M A"
_symmetry_group_IT_number 67
_symmetry_cell_setting 'orthorhombic'
loop_
_space_group_symop_operation_xyz
x,y,z
-x,1/2-y,z
x,-y,-z
-x,1/2+y,-z
-x,-y,-z
x,1/2+y,-z
-x,y,z
x,1/2-y,z
1/2+x,1/2+y,z
1/2-x,-y,z
1/2+x,1/2-y,-z
1/2-x,y,-z
1/2-x,1/2-y,-z
1/2+x,y,-z
1/2-x,1/2+y,z
1/2+x,-y,z
loop_
_atom_site_type_symbol
_atom_site_label
_atom_site_fract_x
_atom_site_fract_y
_atom_site_fract_z
Si Si1 0.642648 0.608141 0.260074
Si Si2 0.111588 0.574059 0.022287
Si Si3 0.500000 0.024438 0.355493
Si Si4 0.768672 0.674647 0.357621
Si Si5 0.000000 0.625512 0.740497
Si Si6 0.000000 0.671039 0.025113
Si Si7 0.357540 0.050203 0.286693
O O1 0.702534 0.656233 0.287463
O O2 0.573257 0.638311 0.308231
O O3 0.654121 0.530980 0.315382
O O4 0.637093 0.597565 0.111127
O O5 0.156745 0.558872 0.139092
O O6 0.078183 0.500000 0.000000
O O7 0.062786 0.631443 0.069042
O O8 0.432644 0.060791 0.324047
O O9 0.500000 0.000000 0.500000
O O10 0.500000 0.957518 0.265433
O O11 0.794083 0.750000 0.316556
O O12 0.750000 0.679561 0.500000
O O13 0.815927 0.609759 0.346976
O O14 0.000000 0.658788 0.876151
O O15 0.000000 0.750000 0.055847
#
# Coordination Sequence:
#
# PCOD9500581 Si02
#       7
#    16  16   8  16   8   8  16
#     4   9  19  37  64  91 116 153 201 249 304 365
#     4   9  18  35  58  87 121 152 193 254 313 360
#     4  10  21  35  63  97 121 150 204 263 305 363
#     4  11  26  43  57  79 121 167 204 247 306 372
#     4   8  18  34  56  90 121 144 189 258 300 337
#     4  10  18  29  53  87 122 162 195 229 296 379
#     4  10  21  38  63  90 118 155 197 254 309 358
#
# _framework density 20.25928
#
# number of rings (size 3 to 8) (size 9 to 14) (size 15 to 20)
#    0.000    2.364    0.000    2.455    5.091    6.545 
#    0.000    4.091    0.000    0.000    0.000    0.000 
#    0.000    0.000    0.000    0.000    0.000    0.000 
#
# Total GULP energy -244945.972821 kJ/mol
# GULP energy per Si atom -5566.953928 kJ/mol
# Density = 2.021317 g / cm^3
# Si number density = 20.259280 Si / 1000 Ang^3
#
#
#
# Elastic Constant Matrix: (Units=GPa)
#
#
# Indices 1 2 3 4 5 6 
#
# 1 58.7441 3.7582 11.5964 0.0000 0.0000 0.0000
# 2 3.7582 66.3972 24.4056 0.0000 0.0000 0.0000
# 3 11.5964 24.4056 62.5701 0.0000 0.0000 0.0000
# 4 0.0000 0.0000 0.0000 -159.1151 0.0000 0.0000
# 5 0.0000 0.0000 0.0000 0.0000 17.4213 0.0000
# 6 0.0000 0.0000 0.0000 0.0000 0.0000 31.0137
#
#
#
# Elastic Compliance Matrix: (Units=1/GPa)
#
#
# Indices 1 2 3 4 5 6 
#
# 1 0.017673 0.000238 -0.003368 0.000000 0.000000 0.000000
# 2 0.000238 0.017585 -0.006903 0.000000 0.000000 0.000000
# 3 -0.003368 -0.006903 0.019299 0.000000 0.000000 0.000000
# 4 0.000000 0.000000 0.000000 -0.006285 0.000000 0.000000
# 5 0.000000 0.000000 0.000000 0.000000 0.057401 0.000000
# 6 0.000000 0.000000 0.000000 0.000000 0.000000 0.032244
#
#
# Mechanical properties :
#
#
# Convention : Reuss Voigt Hill
#
# Bulk Modulus (GPa) = 28.99435 29.69240 29.34337
# Shear Modulus (GPa) = 29.50210 -12.27260 8.61475
#
# Velocity S-wave (km/s) = 3.82019 -2.46392 2.06434
# Velocity P-wave (km/s) = 5.81388 2.56777 4.49414
#
# Compressibility (1/GPa) = 0.03448948
#
# Stress axis : x y z
#
# Youngs Moduli (GPa) = 56.58461 56.86737 51.81657
#
# Poissons Ratio (x) = -0.01352 0.17452
# Poissons Ratio (y) = -0.01345 0.35769
# Poissons Ratio (z) = 0.19058 0.39256
#
# Static dielectric constant tensor:
#      x y z
#    x 1.766710 0.000000 0.000000 
#    y 0.000000 1.731400 0.000000 
#    z 0.000000 0.000000 1.763620 
# 
# From -- ./inp_files/20674.got.cif
#   From: 2010.05.17/outbox.cif.g08.bks.cpg/sg67_11_cif.got.tgz:20674.got - 2010.06.03 18:28:57.
