data_PCOD9500136
_publ_section_title
;
Structure prediction by ZEFSAII (Michael W. Deem and Ramdas Pophale) SiO2 
 PCOD9500136
Probable space group: C C C M
;
_chemical_formula_sum "Si O2"
_cell_formula_units_Z 58
_cell_length_a 12.000000
_cell_length_b 27.000000
_cell_length_c 18.000000
_cell_angle_alpha 90.000000
_cell_angle_beta 90.000000
_cell_angle_gamma 90.000000
_cell_volume 5832.000000
_symmetry_space_group_name_H-M "C C C M"
_symmetry_group_IT_number 66
_symmetry_cell_setting 'orthorhombic'
loop_
_space_group_symop_operation_xyz
x,y,z
-x,-y,z
x,-y,1/2-z
-x,y,1/2-z
-x,-y,-z
x,y,-z
-x,y,1/2+z
x,-y,1/2+z
1/2+x,1/2+y,z
1/2-x,1/2-y,z
1/2+x,1/2-y,1/2-z
1/2-x,1/2+y,1/2-z
1/2-x,1/2-y,-z
1/2+x,1/2+y,-z
1/2-x,1/2+y,1/2+z
1/2+x,1/2-y,1/2+z
loop_
_atom_site_type_symbol
_atom_site_label
_atom_site_fract_x
_atom_site_fract_y
_atom_site_fract_z
Si Si1 0.434535 0.842362 0.588320
Si Si2 0.521659 0.273134 0.412788
Si Si3 0.299266 0.302891 0.339017
Si Si4 0.815712 0.028674 0.873883
Si Si5 0.703087 0.668354 0.830802
Si Si6 0.500000 0.500000 0.000000
Si Si7 0.657783 0.109760 0.913807
Si Si8 0.376339 0.565678 0.720783
O O1 0.410012 0.848504 0.500000
O O2 0.479413 0.786096 0.598781
O O3 0.322237 0.846252 0.635643
O O4 0.530919 0.880687 0.612298
O O5 0.504177 0.282844 0.500000
O O6 0.427229 0.300287 0.364760
O O7 0.639415 0.294812 0.385962
O O8 0.250000 0.250000 0.363821
O O9 0.288006 0.307577 0.250397
O O10 0.235107 0.348812 0.375283
O O11 0.706962 0.053972 0.909960
O O12 0.819225 0.063972 0.800917
O O13 0.822893 0.974764 0.834526
O O14 0.916947 0.025001 0.933863
O O15 0.631953 0.618371 0.818239
O O16 0.656486 0.124083 0.000000
O O17 0.500000 0.553525 0.750000
#
# Coordination Sequence:
#
# PCOD9500136 Si02
#       8
#    16  16  16  16  16   4  16  16
#     4  10  23  45  65  88 132 188 230 276 334 402
#     4  11  23  41  64  91 133 179 226 280 339 405
#     4  12  23  39  63  98 131 169 221 278 338 403
#     4  11  22  41  66  98 126 170 208 269 342 410
#     4  12  25  40  64  96 131 178 229 281 333 399
#     4  12  20  38  72  96 132 158 220 268 332 410
#     4  11  23  41  67  93 132 172 222 273 336 410
#     4  11  22  43  63  90 138 168 205 270 352 405
#
# _framework density 9.9451300000000007
#
# number of rings (size 3 to 8) (size 9 to 14) (size 15 to 20)
#    0.000    0.828    4.828    3.724    0.000    2.207 
#    4.966    0.690    0.000    3.310    0.000    0.000 
#    0.000    0.000    0.000    0.000    0.000    0.000 
#
# Total GULP energy -322910.912341 kJ/mol
# GULP energy per Si atom -5567.429523 kJ/mol
# Density = 0.992249 g / cm^3
# Si number density = 9.945130 Si / 1000 Ang^3
#
#
#
# Elastic Constant Matrix: (Units=GPa)
#
#
# Indices 1 2 3 4 5 6 
#
# 1 122.6070 35.7458 33.4297 0.0000 0.0000 0.0000
# 2 35.7458 80.8464 22.0611 0.0000 0.0000 0.0000
# 3 33.4297 22.0611 89.9474 0.0000 0.0000 0.0000
# 4 0.0000 0.0000 0.0000 22.0094 0.0000 0.0000
# 5 0.0000 0.0000 0.0000 0.0000 -12.3370 0.0000
# 6 0.0000 0.0000 0.0000 0.0000 0.0000 37.3375
#
#
#
# Elastic Compliance Matrix: (Units=1/GPa)
#
#
# Indices 1 2 3 4 5 6 
#
# 1 0.009988 -0.003647 -0.002817 0.000000 0.000000 0.000000
# 2 -0.003647 0.014588 -0.002223 0.000000 0.000000 0.000000
# 3 -0.002817 -0.002223 0.012710 0.000000 0.000000 0.000000
# 4 0.000000 0.000000 0.000000 0.045435 0.000000 0.000000
# 5 0.000000 0.000000 0.000000 0.000000 -0.081057 0.000000
# 6 0.000000 0.000000 0.000000 0.000000 0.000000 0.026783
#
#
# Mechanical properties :
#
#
# Convention : Reuss Voigt Hill
#
# Bulk Modulus (GPa) = 50.22243 52.87488 51.54865
# Shear Modulus (GPa) = 95.31471 22.87959 59.09715
#
# Velocity S-wave (km/s) = 6.92996 3.39527 5.45675
# Velocity P-wave (km/s) = 9.45183 6.48163 8.10397
#
# Compressibility (1/GPa) = 0.01991142
#
# Stress axis : x y z
#
# Youngs Moduli (GPa) = 100.12351 68.54866 78.67920
#
# Poissons Ratio (x) = 0.25001 0.22168
# Poissons Ratio (y) = 0.36517 0.17486
# Poissons Ratio (z) = 0.28209 0.15235
#
# Static dielectric constant tensor:
#      x y z
#    x 2.192620 0.000000 0.000000 
#    y 0.000000 1.708960 0.000000 
#    z 0.000000 0.000000 1.561720 
# 
# From -- ./inp_files/39128.got.cif
#   From: 2010.05.17/outbox.ucp.g08.bks.cvg/sg66_20_cif.got.tgz:39128.got - 2010.06.11 16:44:13.
