data_PCOD9500013
_publ_section_title
;
Structure prediction by ZEFSAII (Michael W. Deem and Ramdas Pophale) SiO2 
 PCOD9500013
Probable space group: C C C M
;
_chemical_formula_sum "Si O2"
_cell_formula_units_Z 80
_cell_length_a 29.813785
_cell_length_b 13.871026
_cell_length_c 7.337765
_cell_angle_alpha 90.000000
_cell_angle_beta 90.000000
_cell_angle_gamma 90.000000
_cell_volume 3034.516476
_symmetry_space_group_name_H-M "C C C M"
_symmetry_group_IT_number 66
_symmetry_cell_setting 'orthorhombic'
loop_
_space_group_symop_operation_xyz
x,y,z
-x,-y,z
x,-y,1/2-z
-x,y,1/2-z
-x,-y,-z
x,y,-z
-x,y,1/2+z
x,-y,1/2+z
1/2+x,1/2+y,z
1/2-x,1/2-y,z
1/2+x,1/2-y,1/2-z
1/2-x,1/2+y,1/2-z
1/2-x,1/2-y,-z
1/2+x,1/2+y,-z
1/2-x,1/2+y,1/2+z
1/2+x,1/2-y,1/2+z
loop_
_atom_site_type_symbol
_atom_site_label
_atom_site_fract_x
_atom_site_fract_y
_atom_site_fract_z
Si Si1 0.837400 0.370245 0.787305
Si Si2 0.566269 0.104202 0.217929
Si Si3 0.049380 0.179981 0.282286
Si Si4 0.646094 0.638908 0.289255
Si Si5 0.742195 0.636255 0.279285
O O1 0.883535 0.404578 0.703414
O O2 0.844740 0.254241 0.788114
O O3 0.789786 0.401276 0.707417
O O4 0.836249 0.397672 0.000000
O O5 0.548331 0.207897 0.285484
O O6 0.545006 0.000000 0.250000
O O7 0.568137 0.115104 0.000000
O O8 0.055274 0.182659 0.500000
O O9 0.095445 0.129267 0.212915
O O10 0.000000 0.137102 0.250000
O O11 0.644505 0.605746 0.500000
O O12 0.693648 0.603125 0.208151
O O13 0.740771 0.625264 0.500000
O O14 0.750000 0.750000 0.246431
#
# Coordination Sequence:
#
# PCOD9500013 Si02
#       5
#    16  16  16  16  16
#     4   7  10  17  29  45  62  76  92 119 154 188
#     4   9  17  27  36  46  61  81 107 138 166 189
#     4   9  17  27  36  46  61  81 107 138 166 189
#     4   7  10  17  29  45  62  76  92 119 154 188
#     4   7   8  12  26  46  63  75  87 110 149 190
#
# _framework density 26.363343
#
# number of rings (size 3 to 8) (size 9 to 14) (size 15 to 20)
#    0.000    4.200    0.000    4.800    0.000    1.200 
#    0.000    2.000    0.000    0.000    0.000    1.400 
#    0.000    8.000    0.000    0.000    0.000    1.000 
#
# Total GULP energy -222693.959133 kJ/mol
# GULP energy per Si atom -5567.348978 kJ/mol
# Density = 2.630334 g / cm^3
# Si number density = 26.363343 Si / 1000 Ang^3
#
#
#
# Elastic Constant Matrix: (Units=GPa)
#
#
# Indices 1 2 3 4 5 6 
#
# 1 328.2292 1.1691 11.8395 0.0000 0.0000 0.0000
# 2 1.1691 66.3563 -1.4587 0.0000 0.0000 0.0000
# 3 11.8395 -1.4587 110.0979 0.0000 0.0000 0.0000
# 4 0.0000 0.0000 0.0000 -32.4096 0.0000 0.0000
# 5 0.0000 0.0000 0.0000 0.0000 -10.7049 0.0000
# 6 0.0000 0.0000 0.0000 0.0000 0.0000 -36.8839
#
#
#
# Elastic Compliance Matrix: (Units=1/GPa)
#
#
# Indices 1 2 3 4 5 6 
#
# 1 0.003059 -0.000061 -0.000330 0.000000 0.000000 0.000000
# 2 -0.000061 0.015076 0.000206 0.000000 0.000000 0.000000
# 3 -0.000330 0.000206 0.009121 0.000000 0.000000 0.000000
# 4 0.000000 0.000000 0.000000 -0.030855 0.000000 0.000000
# 5 0.000000 0.000000 0.000000 0.000000 -0.093415 0.000000
# 6 0.000000 0.000000 0.000000 0.000000 0.000000 -0.027112
#
#
# Mechanical properties :
#
#
# Convention : Reuss Voigt Hill
#
# Bulk Modulus (GPa) = 37.19349 58.64258 47.91803
# Shear Modulus (GPa) = -43.55560 16.87590 -13.33985
#
# Velocity S-wave (km/s) = -4.06905 2.53282 -2.25188
# Velocity P-wave (km/s) = 2.81736 5.55390 3.38440
#
# Compressibility (1/GPa) = 0.02688643
#
# Stress axis : x y z
#
# Youngs Moduli (GPa) = 326.92956 66.33162 109.63685
#
# Poissons Ratio (x) = 0.00406 0.03615
# Poissons Ratio (y) = 0.01999 -0.02262
# Poissons Ratio (z) = 0.10780 -0.01369
#
# Static dielectric constant tensor:
#      x y z
#    x 2.158070 0.000000 0.000000 
#    y 0.000000 2.101490 0.000000 
#    z 0.000000 0.000000 1.922970 
# 
# From -- ./inp_files/6911.got.cif
#   From: 2010.05.17/outbox.cif.g08.bks.cpg/sg66_4_cif.got.tgz:6911.got - 2010.06.03 17:51:23.
