data_PCOD9500906
_publ_section_title
;
Structure prediction by ZEFSAII (Michael W. Deem and Ramdas Pophale) SiO2 
 PCOD9500906
Probable space group: C M M A
;
_chemical_formula_sum "Si O2"
_cell_formula_units_Z 96
_cell_length_a 8.462776
_cell_length_b 24.351086
_cell_length_c 26.266756
_cell_angle_alpha 90.000000
_cell_angle_beta 90.000000
_cell_angle_gamma 90.000000
_cell_volume 5412.994926
_symmetry_space_group_name_H-M "C M M A"
_symmetry_group_IT_number 67
_symmetry_cell_setting 'orthorhombic'
loop_
_space_group_symop_operation_xyz
x,y,z
-x,1/2-y,z
x,-y,-z
-x,1/2+y,-z
-x,-y,-z
x,1/2+y,-z
-x,y,z
x,1/2-y,z
1/2+x,1/2+y,z
1/2-x,-y,z
1/2+x,1/2-y,-z
1/2-x,y,-z
1/2-x,1/2-y,-z
1/2+x,y,-z
1/2-x,1/2+y,z
1/2+x,-y,z
loop_
_atom_site_type_symbol
_atom_site_label
_atom_site_fract_x
_atom_site_fract_y
_atom_site_fract_z
Si Si1 0.191597 0.371585 0.153523
Si Si2 0.687828 0.062013 0.251769
Si Si3 0.308248 0.750000 0.288246
Si Si4 0.808514 0.863621 0.659484
Si Si5 0.690555 0.686461 0.443809
Si Si6 0.807708 0.250000 0.170918
Si Si7 0.189383 0.062201 0.054034
O O1 0.248616 0.400169 0.205509
O O2 0.244697 0.308321 0.149026
O O3 0.243028 0.404843 0.103714
O O4 0.000000 0.372148 0.155417
O O5 0.500000 0.061469 0.249374
O O6 0.741910 0.088090 0.305569
O O7 0.750000 0.000000 0.246016
O O8 0.500000 0.750000 0.290245
O O9 0.258193 0.693976 0.314777
O O10 0.260232 0.750000 0.229905
O O11 0.759602 0.855344 0.600692
O O12 0.000000 0.867138 0.661319
O O13 0.500000 0.687037 0.443867
O O14 0.740620 0.750000 0.432775
O O15 0.750000 0.672391 0.500000
O O16 0.000000 0.250000 0.168877
O O17 0.000000 0.061749 0.052986
O O18 0.250000 0.000000 0.058167
O O19 0.250000 0.084760 0.000000
#
# Coordination Sequence:
#
# PCOD9500906 Si02
#       7
#    16  16   8  16  16   8  16
#     4  10  20  36  58  82 108 142 179 215 258 316
#     4  12  25  38  54  78 107 139 175 221 271 317
#     4   9  14  26  53  78 102 140 178 210 249 310
#     4  10  18  33  55  78 106 143 182 216 258 314
#     4   9  17  29  49  77 109 144 179 215 258 309
#     4   9  16  30  55  80 106 142 178 208 249 316
#     4  10  20  34  55  79 104 137 179 224 268 311
#
# _framework density 17.735098000000001
#
# number of rings (size 3 to 8) (size 9 to 14) (size 15 to 20)
#    0.000    2.000    2.500    3.000    0.000    3.333 
#    0.000    2.083    0.000    0.500    0.000    3.500 
#    0.000    0.000    0.000    0.000    0.000    0.000 
#
# Total GULP energy -267739.672739 kJ/mol
# GULP energy per Si atom -5577.909849 kJ/mol
# Density = 1.769473 g / cm^3
# Si number density = 17.735098 Si / 1000 Ang^3
#
#
#
# Elastic Constant Matrix: (Units=GPa)
#
#
# Indices 1 2 3 4 5 6 
#
# 1 30.6228 19.5161 26.0067 0.0000 0.0000 0.0000
# 2 19.5161 108.9409 63.8191 0.0000 0.0000 0.0000
# 3 26.0067 63.8191 144.1772 0.0000 0.0000 0.0000
# 4 0.0000 0.0000 0.0000 26.7917 0.0000 0.0000
# 5 0.0000 0.0000 0.0000 0.0000 25.9129 0.0000
# 6 0.0000 0.0000 0.0000 0.0000 0.0000 14.9256
#
#
#
# Elastic Compliance Matrix: (Units=1/GPa)
#
#
# Indices 1 2 3 4 5 6 
#
# 1 0.039781 -0.003946 -0.005429 0.000000 0.000000 0.000000
# 2 -0.003946 0.012784 -0.004947 0.000000 0.000000 0.000000
# 3 -0.005429 -0.004947 0.010105 0.000000 0.000000 0.000000
# 4 0.000000 0.000000 0.000000 0.037325 0.000000 0.000000
# 5 0.000000 0.000000 0.000000 0.000000 0.038591 0.000000
# 6 0.000000 0.000000 0.000000 0.000000 0.000000 0.066999
#
#
# Mechanical properties :
#
#
# Convention : Reuss Voigt Hill
#
# Bulk Modulus (GPa) = 29.38942 55.82495 42.60718
# Shear Modulus (GPa) = 20.36070 25.15265 22.75668
#
# Velocity S-wave (km/s) = 3.39196 3.77004 3.58599
# Velocity P-wave (km/s) = 5.65224 7.10608 6.42044
#
# Compressibility (1/GPa) = 0.03402585
#
# Stress axis : x y z
#
# Youngs Moduli (GPa) = 25.13767 78.22105 98.96116
#
# Poissons Ratio (x) = 0.30867 0.53726
# Poissons Ratio (y) = 0.09920 0.48957
# Poissons Ratio (z) = 0.13647 0.38697
#
# Static dielectric constant tensor:
#      x y z
#    x 1.614440 0.000000 0.000000 
#    y 0.000000 1.599570 0.000000 
#    z 0.000000 0.000000 1.608990 
# 
# From -- ./inp_files/43684.got.cif
#   From: 2010.05.17/outbox.cif.g08.bks.cpg/sg67_22_cif.got.tgz:43684.got - 2010.06.03 18:28:57.
