data_PCOD9500418
_publ_section_title
;
Structure prediction by ZEFSAII (Michael W. Deem and Ramdas Pophale) SiO2 
 PCOD9500418
Probable space group: C M M A
;
_chemical_formula_sum "Si O2"
_cell_formula_units_Z 80
_cell_length_a 15.405959
_cell_length_b 8.632943
_cell_length_c 30.415061
_cell_angle_alpha 90.000000
_cell_angle_beta 90.000000
_cell_angle_gamma 90.000000
_cell_volume 4045.165578
_symmetry_space_group_name_H-M "C M M A"
_symmetry_group_IT_number 67
_symmetry_cell_setting 'orthorhombic'
loop_
_space_group_symop_operation_xyz
x,y,z
-x,1/2-y,z
x,-y,-z
-x,1/2+y,-z
-x,-y,-z
x,1/2+y,-z
-x,y,z
x,1/2-y,z
1/2+x,1/2+y,z
1/2-x,-y,z
1/2+x,1/2-y,-z
1/2-x,y,-z
1/2-x,1/2-y,-z
1/2+x,y,-z
1/2-x,1/2+y,z
1/2+x,-y,z
loop_
_atom_site_type_symbol
_atom_site_label
_atom_site_fract_x
_atom_site_fract_y
_atom_site_fract_z
Si Si1 0.650976 0.564108 0.045229
Si Si2 0.158364 0.565525 0.639231
Si Si3 0.000000 0.561169 0.699143
Si Si4 0.848559 0.563986 0.138171
Si Si5 0.105096 0.070669 0.546466
Si Si6 0.500000 0.562731 0.198875
O O1 0.650925 0.750000 0.045024
O O2 0.750000 0.500000 0.045230
O O3 0.616221 0.499461 0.091224
O O4 0.610729 0.500000 0.000000
O O5 0.159410 0.750000 0.640537
O O6 0.250000 0.500000 0.653540
O O7 0.139994 0.514620 0.589292
O O8 0.083280 0.508020 0.671657
O O9 0.000000 0.516340 0.749910
O O10 0.000000 0.750000 0.698369
O O11 0.845451 0.750000 0.137114
O O12 0.750000 0.500000 0.144238
O O13 0.914530 0.503387 0.174969
O O14 0.130174 0.250000 0.548590
O O15 0.000000 0.060353 0.547742
O O16 0.133731 0.000000 0.500000
O O17 0.500000 0.750000 0.195710
#
# Coordination Sequence:
#
# PCOD9500418 Si02
#       6
#    16  16   8  16  16   8
#     4  10  17  29  51  82 118 160 201 245 295 353
#     4  11  22  40  63  91 122 158 199 245 297 354
#     4   9  22  43  66  87 118 155 194 246 307 363
#     4  11  22  39  61  90 123 161 204 251 302 360
#     4  10  20  35  58  89 123 162 202 243 291 347
#     4  11  23  43  66  91 120 155 199 252 312 371
#
# _framework density 19.776693000000002
#
# number of rings (size 3 to 8) (size 9 to 14) (size 15 to 20)
#    0.000    1.600    1.000    6.900    0.000    2.000 
#    0.000    8.500    0.000    0.000    0.000    0.000 
#    0.000    0.000    0.000    0.000    0.000    0.000 
#
# Total GULP energy -223544.454262 kJ/mol
# GULP energy per Si atom -5588.611357 kJ/mol
# Density = 1.973168 g / cm^3
# Si number density = 19.776693 Si / 1000 Ang^3
#
#
#
# Elastic Constant Matrix: (Units=GPa)
#
#
# Indices 1 2 3 4 5 6 
#
# 1 111.5989 52.8619 92.7888 0.0000 0.0000 0.0000
# 2 52.8619 145.1797 57.7743 0.0000 0.0000 0.0000
# 3 92.7888 57.7743 190.8559 0.0000 0.0000 0.0000
# 4 0.0000 0.0000 0.0000 20.3109 0.0000 0.0000
# 5 0.0000 0.0000 0.0000 0.0000 -13.7106 0.0000
# 6 0.0000 0.0000 0.0000 0.0000 0.0000 27.1269
#
#
#
# Elastic Compliance Matrix: (Units=1/GPa)
#
#
# Indices 1 2 3 4 5 6 
#
# 1 0.016212 -0.003145 -0.006930 0.000000 0.000000 0.000000
# 2 -0.003145 0.008442 -0.001026 0.000000 0.000000 0.000000
# 3 -0.006930 -0.001026 0.008919 0.000000 0.000000 0.000000
# 4 0.000000 0.000000 0.000000 0.049235 0.000000 0.000000
# 5 0.000000 0.000000 0.000000 0.000000 -0.072936 0.000000
# 6 0.000000 0.000000 0.000000 0.000000 0.000000 0.036864
#
#
# Mechanical properties :
#
#
# Convention : Reuss Voigt Hill
#
# Bulk Modulus (GPa) = 87.94718 94.94269 91.44494
# Shear Modulus (GPa) = 68.74881 23.02609 45.88745
#
# Velocity S-wave (km/s) = 5.90237 3.41589 4.82215
# Velocity P-wave (km/s) = 9.54030 7.97931 8.79451
#
# Compressibility (1/GPa) = 0.01137046
#
# Stress axis : x y z
#
# Youngs Moduli (GPa) = 61.68119 118.45996 112.11651
#
# Poissons Ratio (x) = 0.37261 0.77695
# Poissons Ratio (y) = 0.19401 0.11505
# Poissons Ratio (z) = 0.42744 0.12156
#
# Static dielectric constant tensor:
#      x y z
#    x 1.761290 0.000000 0.000000 
#    y 0.000000 1.664560 0.000000 
#    z 0.000000 0.000000 1.693580 
# 
# From -- ./inp_files/45755.got.cif
#   From: 2010.05.17/outbox.cif.g08.bks.cpg/sg67_23_cif.got.tgz:45755.got - 2010.06.03 18:28:57.
