data_PCOD9500458
_publ_section_title
;
Structure prediction by ZEFSAII (Michael W. Deem and Ramdas Pophale) SiO2 
 PCOD9500458
Probable space group: C M M A
;
_chemical_formula_sum "Si O2"
_cell_formula_units_Z 112
_cell_length_a 28.396776
_cell_length_b 16.715556
_cell_length_c 11.342035
_cell_angle_alpha 90.000000
_cell_angle_beta 90.000000
_cell_angle_gamma 90.000000
_cell_volume 5383.699929
_symmetry_space_group_name_H-M "C M M A"
_symmetry_group_IT_number 67
_symmetry_cell_setting 'orthorhombic'
loop_
_space_group_symop_operation_xyz
x,y,z
-x,1/2-y,z
x,-y,-z
-x,1/2+y,-z
-x,-y,-z
x,1/2+y,-z
-x,y,z
x,1/2-y,z
1/2+x,1/2+y,z
1/2-x,-y,z
1/2+x,1/2-y,-z
1/2-x,y,-z
1/2-x,1/2-y,-z
1/2+x,y,-z
1/2-x,1/2+y,z
1/2+x,-y,z
loop_
_atom_site_type_symbol
_atom_site_label
_atom_site_fract_x
_atom_site_fract_y
_atom_site_fract_z
Si Si1 0.446683 0.841725 0.374553
Si Si2 0.555636 0.111823 0.113649
Si Si3 0.228705 0.091148 0.380033
Si Si4 0.444273 0.420875 0.857808
Si Si5 0.353200 0.342841 0.241702
Si Si6 0.132041 0.589635 0.493600
Si Si7 0.235950 0.094048 0.871259
O O1 0.500000 0.868803 0.402990
O O2 0.449197 0.750000 0.338028
O O3 0.425239 0.890558 0.265387
O O4 0.410833 0.851794 0.480463
O O5 0.500000 0.132994 0.126969
O O6 0.592797 0.152323 0.199130
O O7 0.559745 0.016144 0.133135
O O8 0.571588 0.121984 0.977443
O O9 0.250000 0.129625 0.500000
O O10 0.173578 0.091198 0.410098
O O11 0.240199 0.125816 0.250809
O O12 0.250000 0.000000 0.377843
O O13 0.500000 0.403029 0.853017
O O14 0.339276 0.250000 0.251012
O O15 0.347938 0.387726 0.366180
O O16 0.319127 0.389051 0.150882
O O17 0.112521 0.500000 0.500000
O O18 0.250000 0.000000 0.874218
O O19 0.250000 0.127169 0.000000
#
# Coordination Sequence:
#
# PCOD9500458 Si02
#       7
#    16  16  16  16  16  16  16
#     4  10  22  38  55  83 124 159 193 249 310 357
#     4   9  19  37  62  91 123 164 206 248 300 366
#     4  10  17  37  65  91 114 147 195 254 317 363
#     4   8  16  34  60  86 114 155 212 259 291 349
#     4  12  26  40  58  92 133 164 202 256 317 383
#     4  12  22  38  66  89 112 159 213 254 301 375
#     4  10  22  41  66  94 122 162 211 261 315 372
#
# _framework density 20.803536999999999
#
# number of rings (size 3 to 8) (size 9 to 14) (size 15 to 20)
#    0.000    1.857    2.857    3.000    0.000    5.429 
#    0.000    3.571    0.000    0.000    0.000    0.000 
#    0.000    0.000    0.000    0.000    0.000    0.000 
#
# Total GULP energy -312168.528080 kJ/mol
# GULP energy per Si atom -5574.438001 kJ/mol
# Density = 2.075619 g / cm^3
# Si number density = 20.803537 Si / 1000 Ang^3
#
#
#
# Elastic Constant Matrix: (Units=GPa)
#
#
# Indices 1 2 3 4 5 6 
#
# 1 98.5770 18.3138 41.2964 0.0000 0.0000 0.0000
# 2 18.3138 44.9730 6.9046 0.0000 0.0000 0.0000
# 3 41.2964 6.9046 135.6053 0.0000 0.0000 0.0000
# 4 0.0000 0.0000 0.0000 -19.0096 0.0000 0.0000
# 5 0.0000 0.0000 0.0000 0.0000 67.0104 0.0000
# 6 0.0000 0.0000 0.0000 0.0000 0.0000 10.6599
#
#
#
# Elastic Compliance Matrix: (Units=1/GPa)
#
#
# Indices 1 2 3 4 5 6 
#
# 1 0.012483 -0.004535 -0.003570 0.000000 0.000000 0.000000
# 2 -0.004535 0.024058 0.000156 0.000000 0.000000 0.000000
# 3 -0.003570 0.000156 0.008454 0.000000 0.000000 0.000000
# 4 0.000000 0.000000 0.000000 -0.052605 0.000000 0.000000
# 5 0.000000 0.000000 0.000000 0.000000 0.014923 0.000000
# 6 0.000000 0.000000 0.000000 0.000000 0.000000 0.093810
#
#
# Mechanical properties :
#
#
# Convention : Reuss Voigt Hill
#
# Bulk Modulus (GPa) = 34.36908 45.79832 40.08370
# Shear Modulus (GPa) = 39.45716 25.90816 32.68266
#
# Velocity S-wave (km/s) = 4.35979 3.53281 3.96790
# Velocity P-wave (km/s) = 6.47304 6.22121 6.34838
#
# Compressibility (1/GPa) = 0.02909592
#
# Stress axis : x y z
#
# Youngs Moduli (GPa) = 80.11128 41.56569 118.29096
#
# Poissons Ratio (x) = 0.18850 0.42236
# Poissons Ratio (y) = 0.36330 -0.01846
# Poissons Ratio (z) = 0.28604 -0.00649
#
# Static dielectric constant tensor:
#      x y z
#    x 1.754300 0.000000 0.000000 
#    y 0.000000 1.766210 0.000000 
#    z 0.000000 0.000000 1.812500 
# 
# From -- ./inp_files/23847.got.cif
#   From: 2010.05.17/outbox.cif.g08.bks.cpg/sg67_12_cif.got.tgz:23847.got - 2010.06.03 18:28:57.
