data_PCOD9500879
_publ_section_title
;
Structure prediction by ZEFSAII (Michael W. Deem and Ramdas Pophale) SiO2 
 PCOD9500879
Probable space group: C M M A
;
_chemical_formula_sum "Si O2"
_cell_formula_units_Z 112
_cell_length_a 16.267880
_cell_length_b 30.365251
_cell_length_c 12.553050
_cell_angle_alpha 90.000000
_cell_angle_beta 90.000000
_cell_angle_gamma 90.000000
_cell_volume 6200.933790
_symmetry_space_group_name_H-M "C M M A"
_symmetry_group_IT_number 67
_symmetry_cell_setting 'orthorhombic'
loop_
_space_group_symop_operation_xyz
x,y,z
-x,1/2-y,z
x,-y,-z
-x,1/2+y,-z
-x,-y,-z
x,1/2+y,-z
-x,y,z
x,1/2-y,z
1/2+x,1/2+y,z
1/2-x,-y,z
1/2+x,1/2-y,-z
1/2-x,y,-z
1/2-x,1/2-y,-z
1/2+x,y,-z
1/2-x,1/2+y,z
1/2+x,-y,z
loop_
_atom_site_type_symbol
_atom_site_label
_atom_site_fract_x
_atom_site_fract_y
_atom_site_fract_z
Si Si1 0.597338 0.551769 0.329463
Si Si2 0.399958 0.453686 0.281330
Si Si3 0.099912 0.798384 0.783784
Si Si4 0.099083 0.799245 0.533189
Si Si5 0.344683 0.106786 0.470287
Si Si6 0.344338 0.546982 0.960463
Si Si7 0.598160 0.389921 0.865760
O O1 0.500000 0.548322 0.312588
O O2 0.626164 0.501291 0.330059
O O3 0.609934 0.579863 0.435679
O O4 0.632103 0.578570 0.228322
O O5 0.500000 0.451891 0.273220
O O6 0.368910 0.415867 0.359963
O O7 0.359913 0.450169 0.164817
O O8 0.129113 0.750000 0.818100
O O9 0.119942 0.804374 0.658722
O O10 0.130132 0.840483 0.848901
O O11 0.000000 0.797546 0.789190
O O12 0.126128 0.750000 0.499319
O O13 0.133264 0.841613 0.473278
O O14 0.000000 0.800364 0.525976
O O15 0.250000 0.101852 0.500000
O O16 0.380104 0.500000 0.000000
O O17 0.250000 0.547389 0.000000
O O18 0.384921 0.587312 0.022649
O O19 0.500000 0.387610 0.851078
#
# Coordination Sequence:
#
# PCOD9500879 Si02
#       7
#    16  16  16  16  16  16  16
#     4  10  20  36  57  80 108 144 187 232 280 337
#     4  11  24  40  58  81 114 155 198 237 280 346
#     4   8  14  26  51  84 107 128 169 229 284 323
#     4   9  17  33  57  82 110 146 190 237 283 338
#     4  12  25  35  55  83 121 155 187 229 289 349
#     4  11  24  37  56  79 113 148 189 238 289 340
#     4  10  18  32  58  81 106 139 181 234 279 328
#
# _framework density 18.061796000000001
#
# number of rings (size 3 to 8) (size 9 to 14) (size 15 to 20)
#    0.000    1.857    2.857    3.000    2.000    3.143 
#    0.000    0.000    0.000    1.286    0.000    2.000 
#    0.000    0.000    0.000    0.000    0.000    0.000 
#
# Total GULP energy -312361.263250 kJ/mol
# GULP energy per Si atom -5577.879701 kJ/mol
# Density = 1.802069 g / cm^3
# Si number density = 18.061796 Si / 1000 Ang^3
#
#
#
# Elastic Constant Matrix: (Units=GPa)
#
#
# Indices 1 2 3 4 5 6 
#
# 1 34.5485 22.6876 10.2362 0.0000 0.0000 0.0000
# 2 22.6876 184.7037 66.4936 0.0000 0.0000 0.0000
# 3 10.2362 66.4936 97.5849 0.0000 0.0000 0.0000
# 4 0.0000 0.0000 0.0000 21.3016 0.0000 0.0000
# 5 0.0000 0.0000 0.0000 0.0000 5.0088 0.0000
# 6 0.0000 0.0000 0.0000 0.0000 0.0000 1.5989
#
#
#
# Elastic Compliance Matrix: (Units=1/GPa)
#
#
# Indices 1 2 3 4 5 6 
#
# 1 0.031542 -0.003555 -0.000886 0.000000 0.000000 0.000000
# 2 -0.003555 0.007575 -0.004788 0.000000 0.000000 0.000000
# 3 -0.000886 -0.004788 0.013603 0.000000 0.000000 0.000000
# 4 0.000000 0.000000 0.000000 0.046945 0.000000 0.000000
# 5 0.000000 0.000000 0.000000 0.000000 0.199647 0.000000
# 6 0.000000 0.000000 0.000000 0.000000 0.000000 0.625419
#
#
# Mechanical properties :
#
#
# Convention : Reuss Voigt Hill
#
# Bulk Modulus (GPa) = 29.18819 57.29689 43.24254
# Shear Modulus (GPa) = 5.23774 20.07652 12.65713
#
# Velocity S-wave (km/s) = 1.70476 3.33760 2.65007
# Velocity P-wave (km/s) = 4.47998 6.82967 5.77558
#
# Compressibility (1/GPa) = 0.03426043
#
# Stress axis : x y z
#
# Youngs Moduli (GPa) = 31.70360 132.01998 73.51238
#
# Poissons Ratio (x) = 0.46939 0.06513
# Poissons Ratio (y) = 0.11272 0.35200
# Poissons Ratio (z) = 0.02809 0.63216
#
# Static dielectric constant tensor:
#      x y z
#    x 1.659230 0.000000 0.000000 
#    y 0.000000 1.650410 0.000000 
#    z 0.000000 0.000000 1.596830 
# 
# From -- ./inp_files/18645.got.cif
#   From: 2010.05.17/outbox.cif.g08.bks.cpg/sg67_10_cif.got.tgz:18645.got - 2010.06.03 18:28:57.
