data_PCOD9500127
_publ_section_title
;
Structure prediction by ZEFSAII (Michael W. Deem and Ramdas Pophale) SiO2 
 PCOD9500127
Probable space group: C C C M
;
_chemical_formula_sum "Si O2"
_cell_formula_units_Z 56
_cell_length_a 15.000000
_cell_length_b 15.000000
_cell_length_c 24.000000
_cell_angle_alpha 90.000000
_cell_angle_beta 90.000000
_cell_angle_gamma 90.000000
_cell_volume 5400.000000
_symmetry_space_group_name_H-M "C C C M"
_symmetry_group_IT_number 66
_symmetry_cell_setting 'orthorhombic'
loop_
_space_group_symop_operation_xyz
x,y,z
-x,-y,z
x,-y,1/2-z
-x,y,1/2-z
-x,-y,-z
x,y,-z
-x,y,1/2+z
x,-y,1/2+z
1/2+x,1/2+y,z
1/2-x,1/2-y,z
1/2+x,1/2-y,1/2-z
1/2-x,1/2+y,1/2-z
1/2-x,1/2-y,-z
1/2+x,1/2+y,-z
1/2-x,1/2+y,1/2+z
1/2+x,1/2-y,1/2+z
loop_
_atom_site_type_symbol
_atom_site_label
_atom_site_fract_x
_atom_site_fract_y
_atom_site_fract_z
Si Si1 0.383553 0.401201 0.763094
Si Si2 0.782934 0.454628 0.339911
Si Si3 0.964680 0.792838 0.861875
Si Si4 0.473627 0.898026 0.314621
Si Si5 0.833465 0.892436 0.066032
Si Si6 0.600745 0.589946 0.434385
Si Si7 0.725286 0.352925 0.843882
O O1 0.416764 0.500000 0.750000
O O2 0.298845 0.422928 0.802142
O O3 0.444274 0.339100 0.802093
O O4 0.348938 0.361910 0.704902
O O5 0.867538 0.402867 0.318592
O O6 0.755874 0.424253 0.402235
O O7 0.791039 0.562403 0.332556
O O8 0.996765 0.691330 0.850231
O O9 0.876072 0.809453 0.900180
O O10 0.032815 0.852765 0.897483
O O11 0.500000 0.886962 0.250000
O O12 0.500000 0.000000 0.332786
O O13 0.896202 0.982065 0.072519
O O14 0.824339 0.876148 0.000000
O O15 0.590891 0.607724 0.500000
O O16 0.691756 0.623265 0.405861
O O17 0.750000 0.250000 0.842163
#
# Coordination Sequence:
#
# PCOD9500127 Si02
#       7
#    16  16  16  16  16  16  16
#     4   9  21  36  59  94 128 156 196 268 328 374
#     4   9  21  42  59  90 126 160 210 263 307 377
#     4  11  23  38  62  98 129 168 210 253 314 388
#     4  11  28  42  62  85 127 179 217 252 303 382
#     4   9  19  41  71  97 124 164 205 264 330 379
#     4  10  22  40  61  94 133 166 205 257 322 390
#     4  10  22  34  65  90 120 163 211 263 317 370
#
# _framework density 10.370369999999999
#
# number of rings (size 3 to 8) (size 9 to 14) (size 15 to 20)
#    0.000    2.143    0.000    1.714   12.000    3.143 
#    0.000    4.286    0.000    2.143    0.000    0.000 
#    0.000    0.000    0.000    0.000    0.000    0.000 
#
# Total GULP energy -312224.062202 kJ/mol
# GULP energy per Si atom -5575.429682 kJ/mol
# Density = 1.034677 g / cm^3
# Si number density = 10.370370 Si / 1000 Ang^3
#
#
#
# Elastic Constant Matrix: (Units=GPa)
#
#
# Indices 1 2 3 4 5 6 
#
# 1 48.3831 14.2745 25.8523 0.0000 0.0000 0.0000
# 2 14.2745 131.0144 57.5138 0.0000 0.0000 0.0000
# 3 25.8523 57.5138 149.3469 0.0000 0.0000 0.0000
# 4 0.0000 0.0000 0.0000 27.6776 0.0000 0.0000
# 5 0.0000 0.0000 0.0000 0.0000 19.4087 0.0000
# 6 0.0000 0.0000 0.0000 0.0000 0.0000 -15.0045
#
#
#
# Elastic Compliance Matrix: (Units=1/GPa)
#
#
# Indices 1 2 3 4 5 6 
#
# 1 0.022864 -0.000907 -0.003609 0.000000 0.000000 0.000000
# 2 -0.000907 0.009222 -0.003394 0.000000 0.000000 0.000000
# 3 -0.003609 -0.003394 0.008628 0.000000 0.000000 0.000000
# 4 0.000000 0.000000 0.000000 0.036130 0.000000 0.000000
# 5 0.000000 0.000000 0.000000 0.000000 0.051523 0.000000
# 6 0.000000 0.000000 0.000000 0.000000 0.000000 -0.066647
#
#
# Mechanical properties :
#
#
# Convention : Reuss Voigt Hill
#
# Bulk Modulus (GPa) = 40.17082 58.22507 49.19794
# Shear Modulus (GPa) = 58.24950 21.82328 40.03639
#
# Velocity S-wave (km/s) = 5.30524 3.24727 4.39831
# Velocity P-wave (km/s) = 7.54570 6.49565 7.04028
#
# Compressibility (1/GPa) = 0.02489369
#
# Stress axis : x y z
#
# Youngs Moduli (GPa) = 43.73670 108.44093 115.90713
#
# Poissons Ratio (x) = 0.09836 0.41825
# Poissons Ratio (y) = 0.03967 0.39342
# Poissons Ratio (z) = 0.15782 0.36808
#
# Static dielectric constant tensor:
#      x y z
#    x 1.884090 0.000000 0.000000 
#    y 0.000000 1.744260 0.000000 
#    z 0.000000 0.000000 1.714760 
# 
# From -- ./inp_files/58245.got.cif
#   From: 2010.05.17/outbox.ucp.g08.bks.cvg/sg66_30_cif.got.tgz:58245.got - 2010.06.11 16:44:13.
