data_PCOD9500264
_publ_section_title
;
Structure prediction by ZEFSAII (Michael W. Deem and Ramdas Pophale) SiO2 
 PCOD9500264
Probable space group: C M M A
;
_chemical_formula_sum "Si O2"
_cell_formula_units_Z 96
_cell_length_a 7.985876
_cell_length_b 26.626138
_cell_length_c 19.226921
_cell_angle_alpha 90.000000
_cell_angle_beta 90.000000
_cell_angle_gamma 90.000000
_cell_volume 4088.278593
_symmetry_space_group_name_H-M "C M M A"
_symmetry_group_IT_number 67
_symmetry_cell_setting 'orthorhombic'
loop_
_space_group_symop_operation_xyz
x,y,z
-x,1/2-y,z
x,-y,-z
-x,1/2+y,-z
-x,-y,-z
x,1/2+y,-z
-x,y,z
x,1/2-y,z
1/2+x,1/2+y,z
1/2-x,-y,z
1/2+x,1/2-y,-z
1/2-x,y,-z
1/2-x,1/2-y,-z
1/2+x,y,-z
1/2-x,1/2+y,z
1/2+x,-y,z
loop_
_atom_site_type_symbol
_atom_site_label
_atom_site_fract_x
_atom_site_fract_y
_atom_site_fract_z
Si Si1 0.800860 0.553914 0.419644
Si Si2 0.295084 0.662409 0.272955
Si Si3 0.200956 0.303559 0.878634
Si Si4 0.299739 0.411508 0.075251
Si Si5 0.809809 0.835110 0.579850
Si Si6 0.694104 0.555089 0.223530
O O1 0.750000 0.500000 0.388650
O O2 0.750000 0.549416 0.500000
O O3 0.703854 0.605150 0.402869
O O4 0.000000 0.561609 0.412381
O O5 0.500000 0.662344 0.275004
O O6 0.242984 0.690937 0.203122
O O7 0.233702 0.684596 0.347155
O O8 0.229114 0.605118 0.258466
O O9 0.267039 0.250000 0.904442
O O10 0.262941 0.353762 0.916485
O O11 0.000000 0.303621 0.885531
O O12 0.500000 0.412736 0.082288
O O13 0.224111 0.439619 0.141156
O O14 0.250000 0.431174 0.000000
O O15 0.750000 0.827450 0.500000
O O16 0.000000 0.818086 0.577708
O O17 0.500000 0.558162 0.239098
O O18 0.750000 0.500000 0.244054
#
# Coordination Sequence:
#
# PCOD9500264 Si02
#       6
#    16  16  16  16  16  16
#     4  10  17  26  39  57  83 117 156 198 246 298
#     4   9  20  36  54  77 106 138 176 223 269 320
#     4   9  19  36  58  83 110 140 175 215 262 317
#     4  10  20  35  55  82 115 147 179 217 260 306
#     4  10  19  32  48  70  98 129 168 214 267 323
#     4  10  20  36  55  77 106 143 186 226 266 310
#
# _framework density 23.481767000000001
#
# number of rings (size 3 to 8) (size 9 to 14) (size 15 to 20)
#    0.000    2.333    0.000    4.500    0.000    4.333 
#    0.000    3.333    0.000    0.500    0.000    0.000 
#    0.000    0.000    0.000    0.000    0.000    0.000 
#
# Total GULP energy -267681.078394 kJ/mol
# GULP energy per Si atom -5576.689133 kJ/mol
# Density = 2.342832 g / cm^3
# Si number density = 23.481767 Si / 1000 Ang^3
#
#
#
# Elastic Constant Matrix: (Units=GPa)
#
#
# Indices 1 2 3 4 5 6 
#
# 1 40.2423 1.8457 -18.6133 0.0000 0.0000 0.0000
# 2 1.8457 68.5405 -4.4494 0.0000 0.0000 0.0000
# 3 -18.6133 -4.4494 129.0698 0.0000 0.0000 0.0000
# 4 0.0000 0.0000 0.0000 -42.8645 0.0000 0.0000
# 5 0.0000 0.0000 0.0000 0.0000 15.5468 0.0000
# 6 0.0000 0.0000 0.0000 0.0000 0.0000 9.6395
#
#
#
# Elastic Compliance Matrix: (Units=1/GPa)
#
#
# Indices 1 2 3 4 5 6 
#
# 1 0.026640 -0.000469 0.003826 0.000000 0.000000 0.000000
# 2 -0.000469 0.014631 0.000437 0.000000 0.000000 0.000000
# 3 0.003826 0.000437 0.008315 0.000000 0.000000 0.000000
# 4 0.000000 0.000000 0.000000 -0.023329 0.000000 0.000000
# 5 0.000000 0.000000 0.000000 0.000000 0.064322 0.000000
# 6 0.000000 0.000000 0.000000 0.000000 0.000000 0.103739
#
#
# Mechanical properties :
#
#
# Convention : Reuss Voigt Hill
#
# Bulk Modulus (GPa) = 17.49087 21.71317 19.60202
# Shear Modulus (GPa) = 24.29679 13.73569 19.01624
#
# Velocity S-wave (km/s) = 3.22018 2.42120 2.84884
# Velocity P-wave (km/s) = 4.61421 4.13318 4.38030
#
# Compressibility (1/GPa) = 0.05717267
#
# Stress axis : x y z
#
# Youngs Moduli (GPa) = 37.53684 68.34854 120.27173
#
# Poissons Ratio (x) = 0.03206 -0.46012
# Poissons Ratio (y) = 0.01761 -0.05253
# Poissons Ratio (z) = -0.14360 -0.02985
#
# Static dielectric constant tensor:
#      x y z
#    x 1.830980 0.000000 0.000000 
#    y 0.000000 1.984850 0.000000 
#    z 0.000000 0.000000 1.862150 
# 
# From -- ./inp_files/37161.got.cif
#   From: 2010.05.17/outbox.cif.g08.bks.cpg/sg67_19_cif.got.tgz:37161.got - 2010.06.03 18:28:57.
