data_PCOD9500559
_publ_section_title
;
Structure prediction by ZEFSAII (Michael W. Deem and Ramdas Pophale) SiO2 
 PCOD9500559
Probable space group: C M M A
;
_chemical_formula_sum "Si O2"
_cell_formula_units_Z 64
_cell_length_a 25.789490
_cell_length_b 14.752111
_cell_length_c 7.550173
_cell_angle_alpha 90.000000
_cell_angle_beta 90.000000
_cell_angle_gamma 90.000000
_cell_volume 2872.458932
_symmetry_space_group_name_H-M "C M M A"
_symmetry_group_IT_number 67
_symmetry_cell_setting 'orthorhombic'
loop_
_space_group_symop_operation_xyz
x,y,z
-x,1/2-y,z
x,-y,-z
-x,1/2+y,-z
-x,-y,-z
x,1/2+y,-z
-x,y,z
x,1/2-y,z
1/2+x,1/2+y,z
1/2-x,-y,z
1/2+x,1/2-y,-z
1/2-x,y,-z
1/2-x,1/2-y,-z
1/2+x,y,-z
1/2-x,1/2+y,z
1/2+x,-y,z
loop_
_atom_site_type_symbol
_atom_site_label
_atom_site_fract_x
_atom_site_fract_y
_atom_site_fract_z
Si Si1 0.888830 0.139410 0.731482
Si Si2 0.308859 0.639359 0.026416
Si Si3 0.000000 0.650017 0.228623
Si Si4 0.389219 0.640346 0.323492
Si Si5 0.000000 0.592018 0.613856
O O1 0.891791 0.250000 0.733231
O O2 0.944331 0.106463 0.806130
O O3 0.881296 0.112501 0.528092
O O4 0.842355 0.112423 0.856490
O O5 0.307425 0.750000 0.033473
O O6 0.342552 0.610397 0.196823
O O7 0.250000 0.608675 0.000000
O O8 0.000000 0.750000 0.145188
O O9 0.000000 0.659398 0.444315
O O10 0.390834 0.750000 0.315624
O O11 0.447167 0.606213 0.279407
O O12 0.000000 0.500000 0.500000
#
# Coordination Sequence:
#
# PCOD9500559 Si02
#       5
#    16  16   8  16   8
#     4   8  14  25  42  65  94 124 152 189 235 283
#     4   9  17  27  42  70 100 123 158 201 237 285
#     4   8  14  27  46  67  91 119 149 184 237 295
#     4   9  17  30  48  69  97 130 156 190 247 300
#     4  10  18  29  48  74  97 121 160 205 243 290
#
# _framework density 22.280562
#
# number of rings (size 3 to 8) (size 9 to 14) (size 15 to 20)
#    0.000    3.250    0.000    2.625    0.000    2.000 
#    0.000    8.750    0.000   12.000    0.000   21.000 
#    0.000    0.000    0.000    0.000    0.000    0.250 
#
# Total GULP energy -178518.754352 kJ/mol
# GULP energy per Si atom -5578.711073 kJ/mol
# Density = 2.222985 g / cm^3
# Si number density = 22.280562 Si / 1000 Ang^3
#
#
#
# Elastic Constant Matrix: (Units=GPa)
#
#
# Indices 1 2 3 4 5 6 
#
# 1 288.0069 7.8741 117.2531 0.0000 0.0000 0.0000
# 2 7.8741 70.6817 2.9744 0.0000 0.0000 0.0000
# 3 117.2531 2.9744 112.5382 0.0000 0.0000 0.0000
# 4 0.0000 0.0000 0.0000 2.8485 0.0000 0.0000
# 5 0.0000 0.0000 0.0000 0.0000 44.4433 0.0000
# 6 0.0000 0.0000 0.0000 0.0000 0.0000 -18.1089
#
#
#
# Elastic Compliance Matrix: (Units=1/GPa)
#
#
# Indices 1 2 3 4 5 6 
#
# 1 0.006042 -0.000409 -0.006284 0.000000 0.000000 0.000000
# 2 -0.000409 0.014191 0.000051 0.000000 0.000000 0.000000
# 3 -0.006284 0.000051 0.015432 0.000000 0.000000 0.000000
# 4 0.000000 0.000000 0.000000 0.351059 0.000000 0.000000
# 5 0.000000 0.000000 0.000000 0.000000 0.022501 0.000000
# 6 0.000000 0.000000 0.000000 0.000000 0.000000 -0.055221
#
#
# Mechanical properties :
#
#
# Convention : Reuss Voigt Hill
#
# Bulk Modulus (GPa) = 44.68099 80.82558 62.75328
# Shear Modulus (GPa) = 13.34235 28.71159 21.02697
#
# Velocity S-wave (km/s) = 2.44976 3.59366 3.07536
# Velocity P-wave (km/s) = 5.30086 7.31944 6.39036
#
# Compressibility (1/GPa) = 0.02238088
#
# Stress axis : x y z
#
# Youngs Moduli (GPa) = 165.51836 70.46556 64.80147
#
# Poissons Ratio (x) = 0.02879 0.40721
# Poissons Ratio (y) = 0.06763 -0.00328
# Poissons Ratio (z) = 1.04011 -0.00357
#
# Static dielectric constant tensor:
#      x y z
#    x 1.808540 0.000000 0.000000 
#    y 0.000000 1.873310 0.000000 
#    z 0.000000 0.000000 1.799870 
# 
# From -- ./inp_files/9638.got.cif
#   From: 2010.05.17/outbox.cif.g08.bks.cpg/sg67_5_cif.got.tgz:9638.got - 2010.06.03 18:28:57.
