data_PCOD9500229
_publ_section_title
;
Structure prediction by ZEFSAII (Michael W. Deem and Ramdas Pophale) SiO2 
 PCOD9500229
Probable space group: C M M A
;
_chemical_formula_sum "Si O2"
_cell_formula_units_Z 52
_cell_length_a 28.901552
_cell_length_b 5.632911
_cell_length_c 12.558827
_cell_angle_alpha 90.000000
_cell_angle_beta 90.000000
_cell_angle_gamma 90.000000
_cell_volume 2044.575405
_symmetry_space_group_name_H-M "C M M A"
_symmetry_group_IT_number 67
_symmetry_cell_setting 'orthorhombic'
loop_
_space_group_symop_operation_xyz
x,y,z
-x,1/2-y,z
x,-y,-z
-x,1/2+y,-z
-x,-y,-z
x,1/2+y,-z
-x,y,z
x,1/2-y,z
1/2+x,1/2+y,z
1/2-x,-y,z
1/2+x,1/2-y,-z
1/2-x,y,-z
1/2-x,1/2-y,-z
1/2+x,y,-z
1/2-x,1/2+y,z
1/2+x,-y,z
loop_
_atom_site_type_symbol
_atom_site_label
_atom_site_fract_x
_atom_site_fract_y
_atom_site_fract_z
Si Si1 0.730592 0.250000 0.379222
Si Si2 0.500000 0.750000 0.435302
Si Si3 0.572280 0.250000 0.213200
Si Si4 0.933368 0.250000 0.239585
Si Si5 0.170512 0.250000 0.146864
Si Si6 0.328270 0.750000 0.890837
Si Si7 0.123514 0.250000 0.564569
O O1 0.750000 0.500000 0.337346
O O2 0.750000 0.250000 0.500000
O O3 0.675086 0.250000 0.385777
O O4 0.500000 0.500000 0.500000
O O5 0.455087 0.750000 0.357897
O O6 0.550115 0.502518 0.190925
O O7 0.619529 0.250000 0.149213
O O8 0.586847 0.250000 0.338619
O O9 0.877033 0.250000 0.218575
O O10 0.193016 0.508885 0.155216
O O11 0.165356 0.250000 0.017791
O O12 0.119799 0.500000 0.500000
#
# Coordination Sequence:
#
# PCOD9500229 Si02
#       7
#     8   4   8   8   8   8   8
#     4  10  16  30  46  61  89 128 173 200 233 280
#     4  12  26  40  58  70  94 138 176 204 242 296
#     4  10  21  33  50  73 104 123 157 215 248 293
#     4  10  21  38  52  72  95 127 167 209 246 292
#     4   8  14  27  51  68  89 118 152 188 244 302
#     4   8  14  27  46  71  93 123 143 182 258 298
#     4  12  21  30  46  70  95 135 174 200 240 285
#
# _framework density 25.433153999999998
#
# number of rings (size 3 to 8) (size 9 to 14) (size 15 to 20)
#    0.000    2.154    3.077    1.846    0.000    3.692 
#    0.000    0.000    0.000   14.769    0.000    0.000 
#    0.000    0.000    0.000   66.462    0.000    0.000 
#
# Total GULP energy -144968.413095 kJ/mol
# GULP energy per Si atom -5575.708196 kJ/mol
# Density = 2.537527 g / cm^3
# Si number density = 25.433154 Si / 1000 Ang^3
#
#
#
# Elastic Constant Matrix: (Units=GPa)
#
#
# Indices 1 2 3 4 5 6 
#
# 1 89.6131 39.4953 44.1486 0.0000 0.0000 0.0000
# 2 39.4953 330.2171 35.2431 0.0000 0.0000 0.0000
# 3 44.1486 35.2431 116.6473 0.0000 0.0000 0.0000
# 4 0.0000 0.0000 0.0000 6.7396 0.0000 0.0000
# 5 0.0000 0.0000 0.0000 0.0000 -66.6398 0.0000
# 6 0.0000 0.0000 0.0000 0.0000 0.0000 -5.2824
#
#
#
# Elastic Compliance Matrix: (Units=1/GPa)
#
#
# Indices 1 2 3 4 5 6 
#
# 1 0.014132 -0.001157 -0.004999 0.000000 0.000000 0.000000
# 2 -0.001157 0.003224 -0.000536 0.000000 0.000000 0.000000
# 3 -0.004999 -0.000536 0.010627 0.000000 0.000000 0.000000
# 4 0.000000 0.000000 0.000000 0.148376 0.000000 0.000000
# 5 0.000000 0.000000 0.000000 0.000000 -0.015006 0.000000
# 6 0.000000 0.000000 0.000000 0.000000 0.000000 -0.189307
#
#
# Mechanical properties :
#
#
# Convention : Reuss Voigt Hill
#
# Bulk Modulus (GPa) = 68.50035 86.02793 77.26414
# Shear Modulus (GPa) = -515.24747 14.80286 -250.22231
#
# Velocity S-wave (km/s) = -14.24881 2.41515 -9.92965
# Velocity P-wave (km/s) = 15.61131 6.45568 10.05080
#
# Compressibility (1/GPa) = 0.01459847
#
# Stress axis : x y z
#
# Youngs Moduli (GPa) = 70.76286 310.18452 94.10056
#
# Poissons Ratio (x) = 0.35878 0.47042
# Poissons Ratio (y) = 0.08185 0.05046
# Poissons Ratio (z) = 0.35375 0.16634
#
# Static dielectric constant tensor:
#      x y z
#    x 1.945650 0.000000 0.000000 
#    y 0.000000 2.135040 0.000000 
#    z 0.000000 0.000000 1.970330 
# 
# From -- ./inp_files/30944.got.cif
#   From: 2010.05.17/outbox.cif.g08.bks.cpg/sg67_16_cif.got.tgz:30944.got - 2010.06.03 18:28:57.
