data_PCOD9500171
_publ_section_title
;
Structure prediction by ZEFSAII (Michael W. Deem and Ramdas Pophale) SiO2 
 PCOD9500171
Probable space group: C M M A
;
_chemical_formula_sum "Si O2"
_cell_formula_units_Z 56
_cell_length_a 14.174098
_cell_length_b 5.453653
_cell_length_c 32.035650
_cell_angle_alpha 90.000000
_cell_angle_beta 90.000000
_cell_angle_gamma 90.000000
_cell_volume 2476.375353
_symmetry_space_group_name_H-M "C M M A"
_symmetry_group_IT_number 67
_symmetry_cell_setting 'orthorhombic'
loop_
_space_group_symop_operation_xyz
x,y,z
-x,1/2-y,z
x,-y,-z
-x,1/2+y,-z
-x,-y,-z
x,1/2+y,-z
-x,y,z
x,1/2-y,z
1/2+x,1/2+y,z
1/2-x,-y,z
1/2+x,1/2-y,-z
1/2-x,y,-z
1/2-x,1/2-y,-z
1/2+x,y,-z
1/2-x,1/2+y,z
1/2+x,-y,z
loop_
_atom_site_type_symbol
_atom_site_label
_atom_site_fract_x
_atom_site_fract_y
_atom_site_fract_z
Si Si1 0.864150 0.750000 0.203378
Si Si2 0.849380 0.250000 0.237768
Si Si3 0.884869 0.750000 0.476396
Si Si4 0.885346 0.750000 0.667212
Si Si5 0.641581 0.750000 0.982434
Si Si6 0.114569 0.750000 0.381063
Si Si7 0.311448 0.750000 0.887358
O O1 0.898324 0.499825 0.223777
O O2 0.751715 0.750000 0.214383
O O3 0.875454 0.750000 0.153767
O O4 0.838666 0.250000 0.287363
O O5 0.857649 0.500000 0.500000
O O6 0.850678 0.750000 0.428681
O O7 0.000000 0.750000 0.475354
O O8 0.860124 0.501415 0.642575
O O9 0.000000 0.750000 0.672887
O O10 0.640947 0.750000 0.932559
O O11 0.600613 0.500000 0.000000
O O12 0.750000 0.750000 0.000000
O O13 0.000000 0.750000 0.382759
O O14 0.250000 0.500000 0.885268
#
# Coordination Sequence:
#
# PCOD9500171 Si02
#       7
#     8   8   8   8   8   8   8
#     4  10  19  30  43  62  78 108 140 175 216 237
#     4  10  18  30  44  59  81 104 141 178 206 246
#     4   9  15  23  37  56  78 107 137 162 188 225
#     4  10  19  30  44  61  83 115 142 167 204 244
#     4  10  16  22  31  49  73 103 134 159 183 230
#     4   9  17  28  40  58  84 111 141 165 193 243
#     4  12  16  25  38  53  77 102 140 166 196 245
#
# _framework density 22.613696000000001
#
# number of rings (size 3 to 8) (size 9 to 14) (size 15 to 20)
#    0.000    2.000    5.714    1.714    0.000    3.429 
#    0.000    0.000    0.000    0.000    0.000    0.000 
#    0.000    0.000    0.000  180.000    0.000  132.857 
#
# Total GULP energy -156485.166204 kJ/mol
# GULP energy per Si atom -5588.755936 kJ/mol
# Density = 2.256223 g / cm^3
# Si number density = 22.613696 Si / 1000 Ang^3
#
#
#
# Elastic Constant Matrix: (Units=GPa)
#
#
# Indices 1 2 3 4 5 6 
#
# 1 86.6039 1.6529 -0.0106 0.0000 0.0000 0.0000
# 2 1.6529 282.7801 112.3381 0.0000 0.0000 0.0000
# 3 -0.0106 112.3381 246.0573 0.0000 0.0000 0.0000
# 4 0.0000 0.0000 0.0000 49.1693 0.0000 0.0000
# 5 0.0000 0.0000 0.0000 0.0000 -222.2627 0.0000
# 6 0.0000 0.0000 0.0000 0.0000 0.0000 -30.4588
#
#
#
# Elastic Compliance Matrix: (Units=1/GPa)
#
#
# Indices 1 2 3 4 5 6 
#
# 1 0.011548 -0.000083 0.000038 0.000000 0.000000 0.000000
# 2 -0.000083 0.004320 -0.001972 0.000000 0.000000 0.000000
# 3 0.000038 -0.001972 0.004965 0.000000 0.000000 0.000000
# 4 0.000000 0.000000 0.000000 0.020338 0.000000 0.000000
# 5 0.000000 0.000000 0.000000 0.000000 -0.004499 0.000000
# 6 0.000000 0.000000 0.000000 0.000000 0.000000 -0.032831
#
#
# Mechanical properties :
#
#
# Convention : Reuss Voigt Hill
#
# Bulk Modulus (GPa) = 59.52530 93.71134 76.61832
# Shear Modulus (GPa) = 371.06737 -7.27972 181.89383
#
# Velocity S-wave (km/s) = 12.82365 -1.79615 8.97830
# Velocity P-wave (km/s) = 15.67294 6.10152 11.89263
#
# Compressibility (1/GPa) = 0.01679958
#
# Stress axis : x y z
#
# Youngs Moduli (GPa) = 86.59199 231.46016 201.42442
#
# Poissons Ratio (x) = 0.01914 -0.00771
# Poissons Ratio (y) = 0.00716 0.39731
# Poissons Ratio (z) = -0.00331 0.45655
#
# Static dielectric constant tensor:
#      x y z
#    x 1.841910 0.000000 0.000000 
#    y 0.000000 1.756500 0.000000 
#    z 0.000000 0.000000 1.772290 
# 
# From -- ./inp_files/44778.got.cif
#   From: 2010.05.17/outbox.cif.g08.bks.cpg/sg67_23_cif.got.tgz:44778.got - 2010.06.03 18:28:57.
