data_PCOD9500744
_publ_section_title
;
Structure prediction by ZEFSAII (Michael W. Deem and Ramdas Pophale) SiO2 
 PCOD9500744
Probable space group: C M M A
;
_chemical_formula_sum "Si O2"
_cell_formula_units_Z 80
_cell_length_a 22.030132
_cell_length_b 14.066908
_cell_length_c 13.236210
_cell_angle_alpha 90.000000
_cell_angle_beta 90.000000
_cell_angle_gamma 90.000000
_cell_volume 4101.846417
_symmetry_space_group_name_H-M "C M M A"
_symmetry_group_IT_number 67
_symmetry_cell_setting 'orthorhombic'
loop_
_space_group_symop_operation_xyz
x,y,z
-x,1/2-y,z
x,-y,-z
-x,1/2+y,-z
-x,-y,-z
x,1/2+y,-z
-x,y,z
x,1/2-y,z
1/2+x,1/2+y,z
1/2-x,-y,z
1/2+x,1/2-y,-z
1/2-x,y,-z
1/2-x,1/2-y,-z
1/2+x,y,-z
1/2-x,1/2+y,z
1/2+x,-y,z
loop_
_atom_site_type_symbol
_atom_site_label
_atom_site_fract_x
_atom_site_fract_y
_atom_site_fract_z
Si Si1 0.572418 0.143321 0.741128
Si Si2 0.841212 0.485930 0.380362
Si Si3 0.568776 0.611551 0.022299
Si Si4 0.694109 0.102815 0.056583
Si Si5 0.770155 0.636366 0.285064
O O1 0.500000 0.141406 0.732264
O O2 0.594170 0.250000 0.714595
O O3 0.601212 0.063417 0.670785
O O4 0.585852 0.126826 0.860015
O O5 0.842508 0.500000 0.500000
O O6 0.827965 0.591874 0.341129
O O7 0.786973 0.416406 0.338512
O O8 0.500000 0.649267 0.005990
O O9 0.563601 0.500000 0.000000
O O10 0.626618 0.644648 0.956850
O O11 0.717276 0.101900 0.170929
O O12 0.750000 0.151375 0.000000
O O13 0.689124 0.000000 0.000000
O O14 0.764415 0.750000 0.288675
#
# Coordination Sequence:
#
# PCOD9500744 Si02
#       5
#    16  16  16  16  16
#     4  10  21  38  62  91 122 160 207 255 303 361
#     4  11  23  40  63  85 113 154 197 255 319 369
#     4   9  17  31  53  82 120 162 200 242 293 353
#     4  10  18  31  53  80 116 155 195 243 295 355
#     4  11  23  38  58  87 119 153 197 248 306 370
#
# _framework density 19.503411
#
# number of rings (size 3 to 8) (size 9 to 14) (size 15 to 20)
#    0.000    1.800    0.000    7.800    0.000    4.000 
#    0.000    0.000    0.000    1.800    0.000    0.000 
#    0.000    0.000    0.000    0.000    0.000    0.000 
#
# Total GULP energy -222817.405377 kJ/mol
# GULP energy per Si atom -5570.435134 kJ/mol
# Density = 1.945902 g / cm^3
# Si number density = 19.503411 Si / 1000 Ang^3
#
#
#
# Elastic Constant Matrix: (Units=GPa)
#
#
# Indices 1 2 3 4 5 6 
#
# 1 99.7002 10.3284 18.4999 0.0000 0.0000 0.0000
# 2 10.3284 116.5137 -3.9944 0.0000 0.0000 0.0000
# 3 18.4999 -3.9944 74.1125 0.0000 0.0000 0.0000
# 4 0.0000 0.0000 0.0000 -36.7659 0.0000 0.0000
# 5 0.0000 0.0000 0.0000 0.0000 32.9076 0.0000
# 6 0.0000 0.0000 0.0000 0.0000 0.0000 14.8208
#
#
#
# Elastic Compliance Matrix: (Units=1/GPa)
#
#
# Indices 1 2 3 4 5 6 
#
# 1 0.010641 -0.001036 -0.002712 0.000000 0.000000 0.000000
# 2 -0.001036 0.008699 0.000728 0.000000 0.000000 0.000000
# 3 -0.002712 0.000728 0.014209 0.000000 0.000000 0.000000
# 4 0.000000 0.000000 0.000000 -0.027199 0.000000 0.000000
# 5 0.000000 0.000000 0.000000 0.000000 0.030388 0.000000
# 6 0.000000 0.000000 0.000000 0.000000 0.000000 0.067473
#
#
# Mechanical properties :
#
#
# Convention : Reuss Voigt Hill
#
# Bulk Modulus (GPa) = 36.35305 37.77713 37.06509
# Shear Modulus (GPa) = 41.86846 19.89200 30.88023
#
# Velocity S-wave (km/s) = 4.63830 3.19709 3.98342
# Velocity P-wave (km/s) = 6.88222 5.74805 6.34054
#
# Compressibility (1/GPa) = 0.02750801
#
# Stress axis : x y z
#
# Youngs Moduli (GPa) = 93.97937 114.94944 70.37708
#
# Poissons Ratio (x) = 0.11911 0.19086
# Poissons Ratio (y) = 0.09738 -0.05120
# Poissons Ratio (z) = 0.25487 -0.08363
#
# Static dielectric constant tensor:
#      x y z
#    x 1.825040 0.000000 0.000000 
#    y 0.000000 1.706440 0.000000 
#    z 0.000000 0.000000 1.836520 
# 
# From -- ./inp_files/17966.got.cif
#   From: 2010.05.17/outbox.cif.g08.bks.cpg/sg67_9_cif.got.tgz:17966.got - 2010.06.03 18:28:57.
