data_PCOD9500715
_publ_section_title
;
Structure prediction by ZEFSAII (Michael W. Deem and Ramdas Pophale) SiO2 
 PCOD9500715
Probable space group: C M M A
;
_chemical_formula_sum "Si O2"
_cell_formula_units_Z 84
_cell_length_a 14.702209
_cell_length_b 11.310124
_cell_length_c 25.248164
_cell_angle_alpha 90.000000
_cell_angle_beta 90.000000
_cell_angle_gamma 90.000000
_cell_volume 4198.360826
_symmetry_space_group_name_H-M "C M M A"
_symmetry_group_IT_number 67
_symmetry_cell_setting 'orthorhombic'
loop_
_space_group_symop_operation_xyz
x,y,z
-x,1/2-y,z
x,-y,-z
-x,1/2+y,-z
-x,-y,-z
x,1/2+y,-z
-x,y,z
x,1/2-y,z
1/2+x,1/2+y,z
1/2-x,-y,z
1/2+x,1/2-y,-z
1/2-x,y,-z
1/2-x,1/2-y,-z
1/2+x,y,-z
1/2-x,1/2+y,z
1/2+x,-y,z
loop_
_atom_site_type_symbol
_atom_site_label
_atom_site_fract_x
_atom_site_fract_y
_atom_site_fract_z
Si Si1 0.401175 0.388922 0.425361
Si Si2 0.858801 0.878237 0.191706
Si Si3 0.315225 0.385354 0.312347
Si Si4 0.352798 0.620952 0.022434
Si Si5 0.149756 0.121287 0.149307
Si Si6 0.750000 0.500000 0.500000
O O1 0.500000 0.443884 0.437321
O O2 0.407170 0.250000 0.435224
O O3 0.378794 0.402823 0.363225
O O4 0.318387 0.432754 0.460848
O O5 0.895416 0.750000 0.174244
O O6 0.862802 0.884192 0.255206
O O7 0.752258 0.877135 0.173378
O O8 0.895621 0.001051 0.169301
O O9 0.274795 0.250000 0.317739
O O10 0.250000 0.500000 0.311726
O O11 0.393399 0.750000 0.008758
O O12 0.346751 0.613697 0.085845
O O13 0.394760 0.500000 0.000000
O O14 0.250000 0.623530 0.000000
O O15 0.109550 0.250000 0.163314
#
# Coordination Sequence:
#
# PCOD9500715 Si02
#       6
#    16  16  16  16  16   4
#     4  10  22  38  56  83 116 147 185 231 276 326
#     4   9  15  22  36  56  77 105 146 194 245 300
#     4  10  18  31  51  73  99 135 172 213 265 319
#     4   9  15  20  26  37  58  97 143 189 242 300
#     4   9  15  21  30  47  74 103 142 199 254 300
#     4  12  20  36  64  84 108 152 192 228 276 322
#
# _framework density 20.007809000000002
#
# number of rings (size 3 to 8) (size 9 to 14) (size 15 to 20)
#    0.000    2.476    2.857    2.857    0.000    2.286 
#    0.000    0.000    0.000    1.714    0.000    0.000 
#    0.000    0.000    0.000    0.000    0.000   15.238 
#
# Total GULP energy -233802.564293 kJ/mol
# GULP energy per Si atom -5566.727721 kJ/mol
# Density = 1.996227 g / cm^3
# Si number density = 20.007809 Si / 1000 Ang^3
#
#
#
# Elastic Constant Matrix: (Units=GPa)
#
#
# Indices 1 2 3 4 5 6 
#
# 1 78.5055 41.9312 29.4337 0.0000 0.0000 0.0000
# 2 41.9312 211.1814 58.6960 0.0000 0.0000 0.0000
# 3 29.4337 58.6960 109.6610 0.0000 0.0000 0.0000
# 4 0.0000 0.0000 0.0000 30.5817 0.0000 0.0000
# 5 0.0000 0.0000 0.0000 0.0000 -15.2851 0.0000
# 6 0.0000 0.0000 0.0000 0.0000 0.0000 -9.7534
#
#
#
# Elastic Compliance Matrix: (Units=1/GPa)
#
#
# Indices 1 2 3 4 5 6 
#
# 1 0.014972 -0.002180 -0.002852 0.000000 0.000000 0.000000
# 2 -0.002180 0.005880 -0.002562 0.000000 0.000000 0.000000
# 3 -0.002852 -0.002562 0.011256 0.000000 0.000000 0.000000
# 4 0.000000 0.000000 0.000000 0.032699 0.000000 0.000000
# 5 0.000000 0.000000 0.000000 0.000000 -0.065423 0.000000
# 6 0.000000 0.000000 0.000000 0.000000 0.000000 -0.102528
#
#
# Mechanical properties :
#
#
# Convention : Reuss Voigt Hill
#
# Bulk Modulus (GPa) = 59.10237 73.27440 66.18839
# Shear Modulus (GPa) = -60.74127 19.06111 -20.84008
#
# Velocity S-wave (km/s) = -5.51586 3.08991 -3.23088
# Velocity P-wave (km/s) = 3.31096 7.03082 4.38577
#
# Compressibility (1/GPa) = 0.01691979
#
# Stress axis : x y z
#
# Youngs Moduli (GPa) = 66.79348 170.05942 88.84281
#
# Poissons Ratio (x) = 0.37075 0.25334
# Poissons Ratio (y) = 0.14562 0.22764
# Poissons Ratio (z) = 0.19046 0.43574
#
# Static dielectric constant tensor:
#      x y z
#    x 1.705180 0.000000 0.000000 
#    y 0.000000 1.778020 0.000000 
#    z 0.000000 0.000000 1.672860 
# 
# From -- ./inp_files/42150.got.cif
#   From: 2010.05.17/outbox.cif.g08.bks.cpg/sg67_22_cif.got.tgz:42150.got - 2010.06.03 18:28:57.
