data_PCOD9500838
_publ_section_title
;
Structure prediction by ZEFSAII (Michael W. Deem and Ramdas Pophale) SiO2 
 PCOD9500838
Probable space group: C M M A
;
_chemical_formula_sum "Si O2"
_cell_formula_units_Z 112
_cell_length_a 14.508886
_cell_length_b 27.311507
_cell_length_c 15.561161
_cell_angle_alpha 90.000000
_cell_angle_beta 90.000000
_cell_angle_gamma 90.000000
_cell_volume 6166.258524
_symmetry_space_group_name_H-M "C M M A"
_symmetry_group_IT_number 67
_symmetry_cell_setting 'orthorhombic'
loop_
_space_group_symop_operation_xyz
x,y,z
-x,1/2-y,z
x,-y,-z
-x,1/2+y,-z
-x,-y,-z
x,1/2+y,-z
-x,y,z
x,1/2-y,z
1/2+x,1/2+y,z
1/2-x,-y,z
1/2+x,1/2-y,-z
1/2-x,y,-z
1/2-x,1/2-y,-z
1/2+x,y,-z
1/2-x,1/2+y,z
1/2+x,-y,z
loop_
_atom_site_type_symbol
_atom_site_label
_atom_site_fract_x
_atom_site_fract_y
_atom_site_fract_z
Si Si1 0.000000 0.078236 0.953164
Si Si2 0.859781 0.693621 0.510505
Si Si3 0.901355 0.690705 0.320018
Si Si4 0.500000 0.471426 0.865021
Si Si5 0.203648 0.106695 0.912440
Si Si6 0.692836 0.546736 0.234502
Si Si7 0.733652 0.308198 0.805478
Si Si8 0.393979 0.364269 0.684451
O O1 0.094024 0.104799 0.924830
O O2 0.000000 0.025136 0.907603
O O3 0.000000 0.067435 0.055854
O O4 0.891026 0.750000 0.523343
O O5 0.750000 0.695151 0.500000
O O6 0.894804 0.674435 0.418771
O O7 0.884593 0.661782 0.592669
O O8 0.899501 0.750000 0.324224
O O9 0.815149 0.677702 0.261824
O O10 0.000000 0.675183 0.283131
O O11 0.594719 0.465833 0.810994
O O12 0.241356 0.072367 0.836313
O O13 0.242692 0.160402 0.889204
O O14 0.250000 0.088636 0.000000
O O15 0.750000 0.500000 0.266093
O O16 0.667524 0.587184 0.305611
O O17 0.732693 0.250000 0.817789
O O18 0.642153 0.327424 0.758427
O O19 0.500000 0.376682 0.699677
#
# Coordination Sequence:
#
# PCOD9500838 Si02
#       8
#     8  16  16   8  16  16  16  16
#     4  11  22  34  61  90 109 144 194 241 304 365
#     4  10  18  32  54  84 123 156 190 236 287 333
#     4   9  17  31  52  78 108 145 190 239 283 326
#     4  11  20  36  62  86 113 140 181 249 310 356
#     4  11  23  37  56  83 117 151 195 243 289 347
#     4  11  22  39  59  86 119 147 183 238 302 354
#     4  10  22  38  55  79 117 160 195 237 286 338
#     4  11  22  35  59  89 117 151 193 240 288 351
#
# _framework density 18.163364999999999
#
# number of rings (size 3 to 8) (size 9 to 14) (size 15 to 20)
#    0.000    1.571    5.000    0.857    1.000    2.286 
#    0.000    0.000    0.000    0.429    0.000    1.000 
#    0.000    0.000    0.000    0.000    0.000    0.000 
#
# Total GULP energy -312437.771102 kJ/mol
# GULP energy per Si atom -5579.245913 kJ/mol
# Density = 1.812202 g / cm^3
# Si number density = 18.163365 Si / 1000 Ang^3
#
#
#
# Elastic Constant Matrix: (Units=GPa)
#
#
# Indices 1 2 3 4 5 6 
#
# 1 101.6324 6.7920 0.4797 0.0000 0.0000 0.0000
# 2 6.7920 66.2364 1.0300 0.0000 0.0000 0.0000
# 3 0.4797 1.0300 35.4500 0.0000 0.0000 0.0000
# 4 0.0000 0.0000 0.0000 17.9659 0.0000 0.0000
# 5 0.0000 0.0000 0.0000 0.0000 14.6022 0.0000
# 6 0.0000 0.0000 0.0000 0.0000 0.0000 20.4739
#
#
#
# Elastic Compliance Matrix: (Units=1/GPa)
#
#
# Indices 1 2 3 4 5 6 
#
# 1 0.009908 -0.001014 -0.000105 0.000000 0.000000 0.000000
# 2 -0.001014 0.015208 -0.000428 0.000000 0.000000 0.000000
# 3 -0.000105 -0.000428 0.028223 0.000000 0.000000 0.000000
# 4 0.000000 0.000000 0.000000 0.055661 0.000000 0.000000
# 5 0.000000 0.000000 0.000000 0.000000 0.068483 0.000000
# 6 0.000000 0.000000 0.000000 0.000000 0.000000 0.048843
#
#
# Mechanical properties :
#
#
# Convention : Reuss Voigt Hill
#
# Bulk Modulus (GPa) = 19.90279 24.43581 22.16930
# Shear Modulus (GPa) = 20.31140 23.60954 21.96047
#
# Velocity S-wave (km/s) = 3.34767 3.60925 3.48092
# Velocity P-wave (km/s) = 5.09156 5.55441 5.32801
#
# Compressibility (1/GPa) = 0.05024421
#
# Stress axis : x y z
#
# Youngs Moduli (GPa) = 100.93203 65.75443 35.43261
#
# Poissons Ratio (x) = 0.06670 0.00371
# Poissons Ratio (y) = 0.10238 0.01517
# Poissons Ratio (z) = 0.01056 0.02815
#
# Static dielectric constant tensor:
#      x y z
#    x 1.623770 0.000000 0.000000 
#    y 0.000000 1.628030 0.000000 
#    z 0.000000 0.000000 1.620950 
# 
# From -- ./inp_files/27760.got.cif
#   From: 2010.05.17/outbox.cif.g08.bks.cpg/sg67_14_cif.got.tgz:27760.got - 2010.06.03 18:28:57.
