data_PCOD9500951
_publ_section_title
;
Structure prediction by ZEFSAII (Michael W. Deem and Ramdas Pophale) SiO2 
 PCOD9500951
Probable space group: C M M A
;
_chemical_formula_sum "Si O2"
_cell_formula_units_Z 120
_cell_length_a 26.906635
_cell_length_b 27.553694
_cell_length_c 8.462688
_cell_angle_alpha 90.000000
_cell_angle_beta 90.000000
_cell_angle_gamma 90.000000
_cell_volume 6274.043827
_symmetry_space_group_name_H-M "C M M A"
_symmetry_group_IT_number 67
_symmetry_cell_setting 'orthorhombic'
loop_
_space_group_symop_operation_xyz
x,y,z
-x,1/2-y,z
x,-y,-z
-x,1/2+y,-z
-x,-y,-z
x,1/2+y,-z
-x,y,z
x,1/2-y,z
1/2+x,1/2+y,z
1/2-x,-y,z
1/2+x,1/2-y,-z
1/2-x,y,-z
1/2-x,1/2-y,-z
1/2+x,y,-z
1/2-x,1/2+y,z
1/2+x,-y,z
loop_
_atom_site_type_symbol
_atom_site_label
_atom_site_fract_x
_atom_site_fract_y
_atom_site_fract_z
Si Si1 0.500000 0.148652 0.685519
Si Si2 0.740701 0.806079 0.814243
Si Si3 0.834253 0.152522 0.320497
Si Si4 0.440420 0.969506 0.710490
Si Si5 0.589078 0.429417 0.632149
Si Si6 0.556687 0.369149 0.171521
Si Si7 0.636266 0.306025 0.343965
Si Si8 0.581161 0.804724 0.126674
O O1 0.456134 0.107379 0.662118
O O2 0.543839 0.188624 0.727804
O O3 0.753010 0.750000 0.768564
O O4 0.776610 0.842539 0.720829
O O5 0.683266 0.813299 0.771189
O O6 0.750000 0.811174 0.000000
O O7 0.860119 0.100009 0.338552
O O8 0.845529 0.180775 0.481922
O O9 0.864299 0.180107 0.181919
O O10 0.500000 0.976128 0.691056
O O11 0.418092 0.947867 0.547700
O O12 0.432381 0.926453 0.836111
O O13 0.417054 0.022141 0.736976
O O14 0.500000 0.364707 0.229694
O O15 0.592601 0.341539 0.290887
O O16 0.561607 0.342265 0.004729
O O17 0.620494 0.250000 0.335574
O O18 0.580398 0.750000 0.065074
#
# Coordination Sequence:
#
# PCOD9500951 Si02
#       8
#     8  16  16  16  16  16  16  16
#     4  10  19  31  51  76 108 157 199 236 284 349
#     4  10  21  39  63  88 118 159 199 242 305 370
#     4  11  22  37  59  90 117 149 203 252 299 359
#     4  10  18  35  61  83 117 158 201 260 299 355
#     4  10  18  34  58  85 115 148 196 253 310 346
#     4  11  23  37  56  85 117 162 206 241 297 364
#     4  11  22  37  59  87 121 153 198 254 297 358
#     4  11  22  36  52  75 123 168 198 235 296 364
#
# _framework density 19.126418999999999
#
# number of rings (size 3 to 8) (size 9 to 14) (size 15 to 20)
#    0.000    1.467    3.333    3.400    0.000    2.933 
#    0.000    3.333    0.000    0.800    0.000    0.933 
#    0.000    0.000    0.000    0.000    0.000    0.000 
#
# Total GULP energy -334093.403889 kJ/mol
# GULP energy per Si atom -5568.223398 kJ/mol
# Density = 1.908289 g / cm^3
# Si number density = 19.126419 Si / 1000 Ang^3
#
#
#
# Elastic Constant Matrix: (Units=GPa)
#
#
# Indices 1 2 3 4 5 6 
#
# 1 40.5245 18.0987 18.5085 0.0000 0.0000 0.0000
# 2 18.0987 111.5253 29.2209 0.0000 0.0000 0.0000
# 3 18.5085 29.2209 31.8831 0.0000 0.0000 0.0000
# 4 0.0000 0.0000 0.0000 27.0086 0.0000 0.0000
# 5 0.0000 0.0000 0.0000 0.0000 0.8289 0.0000
# 6 0.0000 0.0000 0.0000 0.0000 0.0000 13.8015
#
#
#
# Elastic Compliance Matrix: (Units=1/GPa)
#
#
# Indices 1 2 3 4 5 6 
#
# 1 0.033597 -0.000450 -0.019091 0.000000 0.000000 0.000000
# 2 -0.000450 0.011806 -0.010559 0.000000 0.000000 0.000000
# 3 -0.019091 -0.010559 0.052124 0.000000 0.000000 0.000000
# 4 0.000000 0.000000 0.000000 0.037025 0.000000 0.000000
# 5 0.000000 0.000000 0.000000 0.000000 1.206491 0.000000
# 6 0.000000 0.000000 0.000000 0.000000 0.000000 0.072456
#
#
# Mechanical properties :
#
#
# Convention : Reuss Voigt Hill
#
# Bulk Modulus (GPa) = 26.78999 35.06545 30.92772
# Shear Modulus (GPa) = 3.36442 16.20142 9.78292
#
# Velocity S-wave (km/s) = 1.32773 2.91360 2.26406
# Velocity P-wave (km/s) = 4.04817 5.44905 4.79999
#
# Compressibility (1/GPa) = 0.03732737
#
# Stress axis : x y z
#
# Youngs Moduli (GPa) = 29.76481 84.70088 19.18486
#
# Poissons Ratio (x) = 0.03813 0.36625
# Poissons Ratio (y) = 0.01340 0.20258
# Poissons Ratio (z) = 0.56823 0.89437
#
# Static dielectric constant tensor:
#      x y z
#    x 1.653970 0.000000 0.000000 
#    y 0.000000 1.675790 0.000000 
#    z 0.000000 0.000000 1.751160 
# 
# From -- ./inp_files/14100.got.cif
#   From: 2010.05.17/outbox.cif.g08.bks.cpg/sg67_8_cif.got.tgz:14100.got - 2010.06.03 18:28:57.
