data_PCOD9500467
_publ_section_title
;
Structure prediction by ZEFSAII (Michael W. Deem and Ramdas Pophale) SiO2 
 PCOD9500467
Probable space group: C M M A
;
_chemical_formula_sum "Si O2"
_cell_formula_units_Z 80
_cell_length_a 21.111988
_cell_length_b 18.688215
_cell_length_c 10.972766
_cell_angle_alpha 90.000000
_cell_angle_beta 90.000000
_cell_angle_gamma 90.000000
_cell_volume 4329.254030
_symmetry_space_group_name_H-M "C M M A"
_symmetry_group_IT_number 67
_symmetry_cell_setting 'orthorhombic'
loop_
_space_group_symop_operation_xyz
x,y,z
-x,1/2-y,z
x,-y,-z
-x,1/2+y,-z
-x,-y,-z
x,1/2+y,-z
-x,y,z
x,1/2-y,z
1/2+x,1/2+y,z
1/2-x,-y,z
1/2+x,1/2-y,-z
1/2-x,y,-z
1/2-x,1/2-y,-z
1/2+x,y,-z
1/2-x,1/2+y,z
1/2+x,-y,z
loop_
_atom_site_type_symbol
_atom_site_label
_atom_site_fract_x
_atom_site_fract_y
_atom_site_fract_z
Si Si1 0.141088 0.670349 0.277566
Si Si2 0.500000 0.914294 0.992223
Si Si3 0.629339 0.665782 0.015816
Si Si4 0.823267 0.477848 0.629242
Si Si5 0.819688 0.964427 0.879229
Si Si6 0.500000 0.670135 0.751545
O O1 0.165259 0.750000 0.302508
O O2 0.174797 0.606285 0.345009
O O3 0.066775 0.667052 0.315160
O O4 0.141958 0.659578 0.130233
O O5 0.500000 0.891862 0.850351
O O6 0.437289 0.874242 0.042423
O O7 0.500000 0.000000 0.000000
O O8 0.627853 0.750000 0.043900
O O9 0.680192 0.619610 0.091703
O O10 0.852725 0.500000 0.500000
O O11 0.750000 0.500000 0.623961
O O12 0.851128 0.515405 0.750893
O O13 0.750000 0.000000 0.873985
O O14 0.850229 0.000000 0.000000
O O15 0.500000 0.750000 0.814269
#
# Coordination Sequence:
#
# PCOD9500467 Si02
#       6
#    16   8  16  16  16   8
#     4   9  17  32  55  78 105 140 179 218 262 314
#     4  10  18  26  48  80 111 144 174 215 265 317
#     4  10  19  32  51  81 114 144 175 219 273 320
#     4  10  21  37  54  76 106 142 179 222 267 318
#     4  10  19  34  54  76 106 136 177 225 262 311
#     4   8  16  30  49  78 106 134 178 221 253 308
#
# _framework density 18.478933999999999
#
# number of rings (size 3 to 8) (size 9 to 14) (size 15 to 20)
#    0.000    2.400    2.000    2.700    2.800    0.000 
#    0.000    9.500    0.000    0.000    0.000    2.800 
#    0.000    0.000    0.000    0.000    0.000    0.000 
#
# Total GULP energy -222726.374461 kJ/mol
# GULP energy per Si atom -5568.159362 kJ/mol
# Density = 1.843687 g / cm^3
# Si number density = 18.478934 Si / 1000 Ang^3
#
#
#
# Elastic Constant Matrix: (Units=GPa)
#
#
# Indices 1 2 3 4 5 6 
#
# 1 54.9410 49.0276 5.2010 0.0000 0.0000 0.0000
# 2 49.0276 207.8283 54.3145 0.0000 0.0000 0.0000
# 3 5.2010 54.3145 110.1980 0.0000 0.0000 0.0000
# 4 0.0000 0.0000 0.0000 33.5115 0.0000 0.0000
# 5 0.0000 0.0000 0.0000 0.0000 -22.7262 0.0000
# 6 0.0000 0.0000 0.0000 0.0000 0.0000 31.7516
#
#
#
# Elastic Compliance Matrix: (Units=1/GPa)
#
#
# Indices 1 2 3 4 5 6 
#
# 1 0.023380 -0.006000 0.001854 0.000000 0.000000 0.000000
# 2 -0.006000 0.007063 -0.003198 0.000000 0.000000 0.000000
# 3 0.001854 -0.003198 0.010563 0.000000 0.000000 0.000000
# 4 0.000000 0.000000 0.000000 0.029841 0.000000 0.000000
# 5 0.000000 0.000000 0.000000 0.000000 -0.044002 0.000000
# 6 0.000000 0.000000 0.000000 0.000000 0.000000 0.031494
#
#
# Mechanical properties :
#
#
# Convention : Reuss Voigt Hill
#
# Bulk Modulus (GPa) = 37.99690 65.56151 51.77921
# Shear Modulus (GPa) = 61.12483 26.13566 43.63025
#
# Velocity S-wave (km/s) = 5.75760 3.76486 4.86437
# Velocity P-wave (km/s) = 8.05027 7.37936 7.72211
#
# Compressibility (1/GPa) = 0.02631793
#
# Stress axis : x y z
#
# Youngs Moduli (GPa) = 42.77162 141.58615 94.66742
#
# Poissons Ratio (x) = 0.84951 -0.17549
# Poissons Ratio (y) = 0.25663 0.30274
# Poissons Ratio (z) = -0.07929 0.45279
#
# Static dielectric constant tensor:
#      x y z
#    x 1.632070 0.000000 0.000000 
#    y 0.000000 1.676760 0.000000 
#    z 0.000000 0.000000 1.679600 
# 
# From -- ./inp_files/21877.got.cif
#   From: 2010.05.17/outbox.cif.g08.bks.cpg/sg67_11_cif.got.tgz:21877.got - 2010.06.03 18:28:57.
