data_PCOD9500058
_publ_section_title
;
Structure prediction by ZEFSAII (Michael W. Deem and Ramdas Pophale) SiO2 
 PCOD9500058
Probable space group: C C C M
;
_chemical_formula_sum "Si O2"
_cell_formula_units_Z 40
_cell_length_a 18.000000
_cell_length_b 27.000000
_cell_length_c 9.000000
_cell_angle_alpha 90.000000
_cell_angle_beta 90.000000
_cell_angle_gamma 90.000000
_cell_volume 4374.000000
_symmetry_space_group_name_H-M "C C C M"
_symmetry_group_IT_number 66
_symmetry_cell_setting 'orthorhombic'
loop_
_space_group_symop_operation_xyz
x,y,z
-x,-y,z
x,-y,1/2-z
-x,y,1/2-z
-x,-y,-z
x,y,-z
-x,y,1/2+z
x,-y,1/2+z
1/2+x,1/2+y,z
1/2-x,1/2-y,z
1/2+x,1/2-y,1/2-z
1/2-x,1/2+y,1/2-z
1/2-x,1/2-y,-z
1/2+x,1/2+y,-z
1/2-x,1/2+y,1/2+z
1/2+x,1/2-y,1/2+z
loop_
_atom_site_type_symbol
_atom_site_label
_atom_site_fract_x
_atom_site_fract_y
_atom_site_fract_z
Si Si1 0.171813 0.549419 0.677689
Si Si2 0.834804 0.052120 0.180241
Si Si3 0.418959 0.150976 0.822837
Si Si4 0.082965 0.146949 0.181138
Si Si5 0.916457 0.248866 0.819573
O O1 0.135801 0.500000 0.750000
O O2 0.184295 0.541904 0.500000
O O3 0.249406 0.555020 0.765171
O O4 0.126043 0.600040 0.695680
O O5 0.875143 0.099038 0.254759
O O6 0.863553 0.000000 0.250000
O O7 0.840592 0.052187 0.000000
O O8 0.500000 0.143785 0.750000
O O9 0.383863 0.199099 0.740594
O O10 0.425709 0.161252 0.000000
O O11 0.116089 0.198425 0.248287
O O12 0.000000 0.144141 0.250000
O O13 0.081783 0.148062 0.000000
O O14 0.000000 0.250114 0.750000
O O15 0.917922 0.246782 0.000000
#
# Coordination Sequence:
#
# PCOD9500058 Si02
#       5
#    16  16  16  16  16
#     4  10  21  37  56  78 106 142 180 220 268 319
#     4  11  22  38  58  80 107 141 179 218 266 319
#     4  10  20  34  54  80 109 141 179 221 266 315
#     4  11  21  36  57  82 111 141 177 219 263 312
#     4  10  18  31  52  78 108 141 176 215 264 316
#
# _framework density 9.1449470000000002
#
# number of rings (size 3 to 8) (size 9 to 14) (size 15 to 20)
#    0.000    1.600    0.000   10.200    0.000    4.000 
#    0.000    5.000    0.000    6.000    0.000    0.000 
#    0.000    0.000    0.000    0.000    0.000    0.000 
#
# Total GULP energy -223172.160996 kJ/mol
# GULP energy per Si atom -5579.304025 kJ/mol
# Density = 0.912413 g / cm^3
# Si number density = 9.144947 Si / 1000 Ang^3
#
#
#
# Elastic Constant Matrix: (Units=GPa)
#
#
# Indices 1 2 3 4 5 6 
#
# 1 28.1751 43.3951 28.9619 0.0000 0.0000 0.0000
# 2 43.3951 202.5178 96.8928 0.0000 0.0000 0.0000
# 3 28.9619 96.8928 221.7043 0.0000 0.0000 0.0000
# 4 0.0000 0.0000 0.0000 42.3617 0.0000 0.0000
# 5 0.0000 0.0000 0.0000 0.0000 23.9540 0.0000
# 6 0.0000 0.0000 0.0000 0.0000 0.0000 -2.1639
#
#
#
# Elastic Compliance Matrix: (Units=1/GPa)
#
#
# Indices 1 2 3 4 5 6 
#
# 1 0.054075 -0.010377 -0.002529 0.000000 0.000000 0.000000
# 2 -0.010377 0.008235 -0.002243 0.000000 0.000000 0.000000
# 3 -0.002529 -0.002243 0.005821 0.000000 0.000000 0.000000
# 4 0.000000 0.000000 0.000000 0.023606 0.000000 0.000000
# 5 0.000000 0.000000 0.000000 0.000000 0.041747 0.000000
# 6 0.000000 0.000000 0.000000 0.000000 0.000000 -0.462134
#
#
# Mechanical properties :
#
#
# Convention : Reuss Voigt Hill
#
# Bulk Modulus (GPa) = 26.43248 87.87741 57.15494
# Shear Modulus (GPa) = -17.49835 31.70685 7.10425
#
# Velocity S-wave (km/s) = -3.09645 4.16814 1.97299
# Velocity P-wave (km/s) = 1.30359 8.44487 6.04215
#
# Compressibility (1/GPa) = 0.03783225
#
# Stress axis : x y z
#
# Youngs Moduli (GPa) = 18.49297 121.43722 171.78486
#
# Poissons Ratio (x) = 1.26017 0.43440
# Poissons Ratio (y) = 0.19190 0.38536
# Poissons Ratio (z) = 0.04676 0.27242
#
# Static dielectric constant tensor:
#      x y z
#    x 1.642500 0.000000 0.000000 
#    y 0.000000 1.699400 0.000000 
#    z 0.000000 0.000000 1.607800 
# 
# From -- ./inp_files/6717.got.cif
#   From: 2010.05.17/outbox.ucp.g08.bks.cvg/sg66_4_cif.got.tgz:6717.got - 2010.06.11 16:44:13.
