data_PCOD9500435
_publ_section_title
;
Structure prediction by ZEFSAII (Michael W. Deem and Ramdas Pophale) SiO2 
 PCOD9500435
Probable space group: C M M A
;
_chemical_formula_sum "Si O2"
_cell_formula_units_Z 68
_cell_length_a 19.760495
_cell_length_b 18.474613
_cell_length_c 8.461323
_cell_angle_alpha 90.000000
_cell_angle_beta 90.000000
_cell_angle_gamma 90.000000
_cell_volume 3088.954016
_symmetry_space_group_name_H-M "C M M A"
_symmetry_group_IT_number 67
_symmetry_cell_setting 'orthorhombic'
loop_
_space_group_symop_operation_xyz
x,y,z
-x,1/2-y,z
x,-y,-z
-x,1/2+y,-z
-x,-y,-z
x,1/2+y,-z
-x,y,z
x,1/2-y,z
1/2+x,1/2+y,z
1/2-x,-y,z
1/2+x,1/2-y,-z
1/2-x,y,-z
1/2-x,1/2-y,-z
1/2+x,y,-z
1/2-x,1/2+y,z
1/2+x,-y,z
loop_
_atom_site_type_symbol
_atom_site_label
_atom_site_fract_x
_atom_site_fract_y
_atom_site_fract_z
Si Si1 0.000000 0.750000 0.173454
Si Si2 0.391032 0.000000 0.500000
Si Si3 0.828670 0.250000 0.461662
Si Si4 0.500000 0.616375 0.589884
Si Si5 0.250000 0.362371 0.000000
Si Si6 0.143504 0.891558 0.751736
Si Si7 0.500000 0.835484 0.230898
Si Si8 0.151438 0.250000 0.828262
O O1 0.000000 0.824524 0.274388
O O2 0.075869 0.750000 0.098354
O O3 0.436893 0.938365 0.583295
O O4 0.352154 0.958511 0.365317
O O5 0.750000 0.250000 0.500000
O O6 0.844689 0.319415 0.354186
O O7 0.860496 0.250000 0.637964
O O8 0.500000 0.657567 0.421998
O O9 0.199301 0.401466 0.116236
O O10 0.301412 0.315459 0.110410
O O11 0.067902 0.877776 0.819541
O O12 0.500000 0.750000 0.194215
#
# Coordination Sequence:
#
# PCOD9500435 Si02
#       8
#     4   8   8   8   8  16   8   8
#     4  12  22  38  72  92 122 170 234 298 334 390
#     4   9  20  36  67 100 136 178 228 282 336 415
#     4  12  20  38  68  97 131 179 228 289 331 399
#     4   9  18  37  62 102 133 158 228 307 341 378
#     4  11  24  42  60  95 150 178 216 274 346 415
#     4  11  22  40  68 102 141 181 230 284 342 403
#     4  10  17  30  60 101 133 175 229 280 330 392
#     4  11  23  38  63 103 131 171 226 288 341 393
#
# _framework density 22.013925
#
# number of rings (size 3 to 8) (size 9 to 14) (size 15 to 20)
#    0.000    1.412    4.118    4.235    0.000    0.941 
#    0.000    0.588    0.000   18.353    0.000    0.000 
#    0.000    2.824    0.000    0.000    0.000    0.000 
#
# Total GULP energy -189960.036578 kJ/mol
# GULP energy per Si atom -5587.059899 kJ/mol
# Density = 2.196382 g / cm^3
# Si number density = 22.013925 Si / 1000 Ang^3
#
#
#
# Elastic Constant Matrix: (Units=GPa)
#
#
# Indices 1 2 3 4 5 6 
#
# 1 174.5061 35.2956 56.4124 0.0000 0.0000 0.0000
# 2 35.2956 93.5555 50.4074 0.0000 0.0000 0.0000
# 3 56.4124 50.4074 108.5020 0.0000 0.0000 0.0000
# 4 0.0000 0.0000 0.0000 -1.8139 0.0000 0.0000
# 5 0.0000 0.0000 0.0000 0.0000 31.8166 0.0000
# 6 0.0000 0.0000 0.0000 0.0000 0.0000 -1.8372
#
#
#
# Elastic Compliance Matrix: (Units=1/GPa)
#
#
# Indices 1 2 3 4 5 6 
#
# 1 0.006945 -0.000900 -0.003193 0.000000 0.000000 0.000000
# 2 -0.000900 0.014374 -0.006210 0.000000 0.000000 0.000000
# 3 -0.003193 -0.006210 0.013761 0.000000 0.000000 0.000000
# 4 0.000000 0.000000 0.000000 -0.551287 0.000000 0.000000
# 5 0.000000 0.000000 0.000000 0.000000 0.031430 0.000000
# 6 0.000000 0.000000 0.000000 0.000000 0.000000 -0.544316
#
#
# Mechanical properties :
#
#
# Convention : Reuss Voigt Hill
#
# Bulk Modulus (GPa) = 69.08371 73.42162 71.25266
# Shear Modulus (GPa) = -4.98175 21.26299 8.14062
#
# Velocity S-wave (km/s) = -1.50596 3.11125 1.92509
# Velocity P-wave (km/s) = 5.33161 6.80670 6.11381
#
# Compressibility (1/GPa) = 0.01447519
#
# Stress axis : x y z
#
# Youngs Moduli (GPa) = 143.99863 69.56864 72.66721
#
# Poissons Ratio (x) = 0.06260 0.23199
# Poissons Ratio (y) = 0.12957 0.45127
# Poissons Ratio (z) = 0.45973 0.43203
#
# Static dielectric constant tensor:
#      x y z
#    x 1.852810 0.000000 0.000000 
#    y 0.000000 1.807760 0.000000 
#    z 0.000000 0.000000 1.854270 
# 
# From -- ./inp_files/10850.got.cif
#   From: 2010.05.17/outbox.cif.g08.bks.cpg/sg67_6_cif.got.tgz:10850.got - 2010.06.03 18:28:57.
