data_PCOD9500369
_publ_section_title
;
Structure prediction by ZEFSAII (Michael W. Deem and Ramdas Pophale) SiO2 
 PCOD9500369
Probable space group: C M M A
;
_chemical_formula_sum "Si O2"
_cell_formula_units_Z 80
_cell_length_a 8.883254
_cell_length_b 14.723303
_cell_length_c 27.082263
_cell_angle_alpha 90.000000
_cell_angle_beta 90.000000
_cell_angle_gamma 90.000000
_cell_volume 3542.111934
_symmetry_space_group_name_H-M "C M M A"
_symmetry_group_IT_number 67
_symmetry_cell_setting 'orthorhombic'
loop_
_space_group_symop_operation_xyz
x,y,z
-x,1/2-y,z
x,-y,-z
-x,1/2+y,-z
-x,-y,-z
x,1/2+y,-z
-x,y,z
x,1/2-y,z
1/2+x,1/2+y,z
1/2-x,-y,z
1/2+x,1/2-y,-z
1/2-x,y,-z
1/2-x,1/2-y,-z
1/2+x,y,-z
1/2-x,1/2+y,z
1/2+x,-y,z
loop_
_atom_site_type_symbol
_atom_site_label
_atom_site_fract_x
_atom_site_fract_y
_atom_site_fract_z
Si Si1 0.171982 0.361059 0.449222
Si Si2 0.681501 0.602790 0.050197
Si Si3 0.833778 0.856732 0.750541
Si Si4 0.820923 0.899956 0.149293
Si Si5 0.828147 0.138619 0.652369
O O1 0.171921 0.250000 0.449341
O O2 0.250000 0.389678 0.500000
O O3 0.257522 0.389164 0.399703
O O4 0.000000 0.391539 0.447749
O O5 0.500000 0.600740 0.048746
O O6 0.750000 0.500000 0.050815
O O7 0.741563 0.644329 0.101427
O O8 0.750000 0.643720 0.000000
O O9 0.851720 0.750000 0.741634
O O10 0.725300 0.862731 0.797519
O O11 0.764741 0.893467 0.699938
O O12 0.000000 0.895931 0.761814
O O13 0.000000 0.900645 0.142346
O O14 0.750000 0.000000 0.151100
O O15 0.828059 0.250000 0.652710
O O16 0.000000 0.108823 0.656354
#
# Coordination Sequence:
#
# PCOD9500369 Si02
#       5
#    16  16  16  16  16
#     4   9  15  22  33  51  77 110 147 188 234 282
#     4  10  17  28  46  70  98 126 158 195 239 286
#     4  10  20  34  51  71  97 130 166 202 242 290
#     4  11  21  34  52  75 102 130 163 202 244 287
#     4   9  16  26  40  59  84 116 154 193 234 283
#
# _framework density 22.585394999999998
#
# number of rings (size 3 to 8) (size 9 to 14) (size 15 to 20)
#    0.000    2.200    0.000    7.200    0.000    6.000 
#    0.000    0.000    0.000    0.600    0.000    0.000 
#    0.000    0.800    0.000    8.000    0.000   12.400 
#
# Total GULP energy -223453.894596 kJ/mol
# GULP energy per Si atom -5586.347365 kJ/mol
# Density = 2.253399 g / cm^3
# Si number density = 22.585395 Si / 1000 Ang^3
#
#
#
# Elastic Constant Matrix: (Units=GPa)
#
#
# Indices 1 2 3 4 5 6 
#
# 1 220.7282 10.8608 93.6546 0.0000 0.0000 0.0000
# 2 10.8608 53.8317 9.6886 0.0000 0.0000 0.0000
# 3 93.6546 9.6886 211.6636 0.0000 0.0000 0.0000
# 4 0.0000 0.0000 0.0000 -5.9028 0.0000 0.0000
# 5 0.0000 0.0000 0.0000 0.0000 41.9147 0.0000
# 6 0.0000 0.0000 0.0000 0.0000 0.0000 5.3957
#
#
#
# Elastic Compliance Matrix: (Units=1/GPa)
#
#
# Indices 1 2 3 4 5 6 
#
# 1 0.005603 -0.000690 -0.002448 0.000000 0.000000 0.000000
# 2 -0.000690 0.018816 -0.000556 0.000000 0.000000 0.000000
# 3 -0.002448 -0.000556 0.005833 0.000000 0.000000 0.000000
# 4 0.000000 0.000000 0.000000 -0.169412 0.000000 0.000000
# 5 0.000000 0.000000 0.000000 0.000000 0.023858 0.000000
# 6 0.000000 0.000000 0.000000 0.000000 0.000000 0.185331
#
#
# Mechanical properties :
#
#
# Convention : Reuss Voigt Hill
#
# Bulk Modulus (GPa) = 43.73574 79.40348 61.56961
# Shear Modulus (GPa) = 58.79750 33.08284 45.94017
#
# Velocity S-wave (km/s) = 5.10783 3.83141 4.51495
# Velocity P-wave (km/s) = 7.36160 7.40312 7.38239
#
# Compressibility (1/GPa) = 0.02286460
#
# Stress axis : x y z
#
# Youngs Moduli (GPa) = 178.47947 53.14716 171.44192
#
# Poissons Ratio (x) = 0.03667 0.41961
# Poissons Ratio (y) = 0.12313 0.09532
# Poissons Ratio (z) = 0.43683 0.02955
#
# Static dielectric constant tensor:
#      x y z
#    x 1.791680 0.000000 0.000000 
#    y 0.000000 1.992160 0.000000 
#    z 0.000000 0.000000 1.863730 
# 
# From -- ./inp_files/43272.got.cif
#   From: 2010.05.17/outbox.cif.g08.bks.cpg/sg67_22_cif.got.tgz:43272.got - 2010.06.03 18:28:57.
