data_PCOD9500871
_publ_section_title
;
Structure prediction by ZEFSAII (Michael W. Deem and Ramdas Pophale) SiO2 
 PCOD9500871
Probable space group: C M M A
;
_chemical_formula_sum "Si O2"
_cell_formula_units_Z 64
_cell_length_a 14.121333
_cell_length_b 17.773185
_cell_length_c 14.945312
_cell_angle_alpha 90.000000
_cell_angle_beta 90.000000
_cell_angle_gamma 90.000000
_cell_volume 3750.990305
_symmetry_space_group_name_H-M "C M M A"
_symmetry_group_IT_number 67
_symmetry_cell_setting 'orthorhombic'
loop_
_space_group_symop_operation_xyz
x,y,z
-x,1/2-y,z
x,-y,-z
-x,1/2+y,-z
-x,-y,-z
x,1/2+y,-z
-x,y,z
x,1/2-y,z
1/2+x,1/2+y,z
1/2-x,-y,z
1/2+x,1/2-y,-z
1/2-x,y,-z
1/2-x,1/2-y,-z
1/2+x,y,-z
1/2-x,1/2+y,z
1/2+x,-y,z
loop_
_atom_site_type_symbol
_atom_site_label
_atom_site_fract_x
_atom_site_fract_y
_atom_site_fract_z
Si Si1 0.500000 0.500894 0.893622
Si Si2 0.000000 0.165645 0.189266
Si Si3 0.109913 0.034468 0.404022
Si Si4 0.335740 0.443912 0.228946
Si Si5 0.695460 0.334737 0.696574
O O1 0.500000 0.412754 0.864334
O O2 0.411381 0.543853 0.848587
O O3 0.500000 0.500000 0.000000
O O4 0.902905 0.162841 0.247009
O O5 0.000000 0.250000 0.145794
O O6 0.177253 0.104071 0.380322
O O7 0.000000 0.058967 0.405093
O O8 0.131769 0.000000 0.500000
O O9 0.121606 0.975045 0.322775
O O10 0.250000 0.500000 0.207583
O O11 0.284791 0.364428 0.246094
O O12 0.709811 0.250000 0.665401
#
# Coordination Sequence:
#
# PCOD9500871 Si02
#       5
#     8   8  16  16  16
#     4  12  22  38  60  86 114 156 191 229 292 365
#     4  10  18  36  58  86 110 138 190 247 288 323
#     4  10  18  32  57  83 111 150 195 238 280 337
#     4  10  19  36  55  81 115 143 195 234 282 340
#     4  10  19  34  59  83 114 152 189 241 296 341
#
# _framework density 17.062162000000001
#
# number of rings (size 3 to 8) (size 9 to 14) (size 15 to 20)
#    0.000    1.750    7.500    0.000    0.000    5.000 
#    0.000    4.375    0.000    4.500    0.000    0.000 
#    0.000    0.000    0.000    0.000    0.000    0.000 
#
# Total GULP energy -178262.084901 kJ/mol
# GULP energy per Si atom -5570.690153 kJ/mol
# Density = 1.702333 g / cm^3
# Si number density = 17.062162 Si / 1000 Ang^3
#
#
#
# Elastic Constant Matrix: (Units=GPa)
#
#
# Indices 1 2 3 4 5 6 
#
# 1 92.0479 25.5405 48.3875 0.0000 0.0000 0.0000
# 2 25.5405 103.3282 38.1421 0.0000 0.0000 0.0000
# 3 48.3875 38.1421 114.4264 0.0000 0.0000 0.0000
# 4 0.0000 0.0000 0.0000 17.5881 0.0000 0.0000
# 5 0.0000 0.0000 0.0000 0.0000 -5.5109 0.0000
# 6 0.0000 0.0000 0.0000 0.0000 0.0000 16.5064
#
#
#
# Elastic Compliance Matrix: (Units=1/GPa)
#
#
# Indices 1 2 3 4 5 6 
#
# 1 0.014163 -0.001471 -0.005499 0.000000 0.000000 0.000000
# 2 -0.001471 0.011189 -0.003107 0.000000 0.000000 0.000000
# 3 -0.005499 -0.003107 0.012100 0.000000 0.000000 0.000000
# 4 0.000000 0.000000 0.000000 0.056857 0.000000 0.000000
# 5 0.000000 0.000000 0.000000 0.000000 -0.181459 0.000000
# 6 0.000000 0.000000 0.000000 0.000000 0.000000 0.060582
#
#
# Mechanical properties :
#
#
# Convention : Reuss Voigt Hill
#
# Bulk Modulus (GPa) = 57.81254 59.32698 58.56976
# Shear Modulus (GPa) = -7708.10570 18.89889 -3844.60341
#
# Velocity S-wave (km/s) = -67.28646 3.33175 -47.52035
# Velocity P-wave (km/s) = 77.47688 7.04608 54.55740
#
# Compressibility (1/GPa) = 0.01729728
#
# Stress axis : x y z
#
# Youngs Moduli (GPa) = 70.60873 89.37685 82.64280
#
# Poissons Ratio (x) = 0.13147 0.45442
# Poissons Ratio (y) = 0.10386 0.25681
# Poissons Ratio (z) = 0.38825 0.27774
#
# Static dielectric constant tensor:
#      x y z
#    x 1.625800 0.000000 0.000000 
#    y 0.000000 1.600140 0.000000 
#    z 0.000000 0.000000 1.565100 
# 
# From -- ./inp_files/26802.got.cif
#   From: 2010.05.17/outbox.cif.g08.bks.cpg/sg67_14_cif.got.tgz:26802.got - 2010.06.03 18:28:57.
