data_PCOD9500444
_publ_section_title
;
Structure prediction by ZEFSAII (Michael W. Deem and Ramdas Pophale) SiO2 
 PCOD9500444
Probable space group: C M M A
;
_chemical_formula_sum "Si O2"
_cell_formula_units_Z 80
_cell_length_a 16.615051
_cell_length_b 19.954004
_cell_length_c 13.464146
_cell_angle_alpha 90.000000
_cell_angle_beta 90.000000
_cell_angle_gamma 90.000000
_cell_volume 4463.859800
_symmetry_space_group_name_H-M "C M M A"
_symmetry_group_IT_number 67
_symmetry_cell_setting 'orthorhombic'
loop_
_space_group_symop_operation_xyz
x,y,z
-x,1/2-y,z
x,-y,-z
-x,1/2+y,-z
-x,-y,-z
x,1/2+y,-z
-x,y,z
x,1/2-y,z
1/2+x,1/2+y,z
1/2-x,-y,z
1/2+x,1/2-y,-z
1/2-x,y,-z
1/2-x,1/2-y,-z
1/2+x,y,-z
1/2-x,1/2+y,z
1/2+x,-y,z
loop_
_atom_site_type_symbol
_atom_site_label
_atom_site_fract_x
_atom_site_fract_y
_atom_site_fract_z
Si Si1 0.259393 0.577379 0.250598
Si Si2 0.500000 0.173938 0.191756
Si Si3 0.319571 0.329480 0.417031
Si Si4 0.130209 0.917309 0.092678
Si Si5 0.000000 0.173311 0.569824
Si Si6 0.591942 0.927977 0.131250
O O1 0.250000 0.500000 0.284851
O O2 0.213878 0.626642 0.325499
O O3 0.217060 0.581803 0.142653
O O4 0.352072 0.591472 0.223951
O O5 0.500000 0.250000 0.158522
O O6 0.423164 0.136126 0.149789
O O7 0.500000 0.172099 0.310419
O O8 0.328030 0.250000 0.390193
O O9 0.250000 0.334360 0.500000
O O10 0.409130 0.353131 0.453491
O O11 0.095789 0.991212 0.117946
O O12 0.123781 0.903792 0.976028
O O13 0.000000 0.250000 0.532468
O O14 0.500000 0.907047 0.143928
#
# Coordination Sequence:
#
# PCOD9500444 Si02
#       6
#    16   8  16  16   8  16
#     4  10  21  33  54  81 110 139 178 229 269 311
#     4  11  18  27  53  81 103 136 182 225 257 298
#     4  10  21  39  61  82 107 139 178 222 274 332
#     4  10  17  32  51  76 106 142 181 220 259 306
#     4   9  18  34  59  82 100 134 179 221 265 318
#     4  10  18  31  51  75 107 147 182 213 259 321
#
# _framework density 17.921710000000001
#
# number of rings (size 3 to 8) (size 9 to 14) (size 15 to 20)
#    0.000    2.000    4.000    1.200    0.000    2.800 
#    1.800    1.000    0.000    3.600    0.000    0.000 
#    0.000    0.000    0.000    0.000    0.000    0.000 
#
# Total GULP energy -222726.200749 kJ/mol
# GULP energy per Si atom -5568.155019 kJ/mol
# Density = 1.788092 g / cm^3
# Si number density = 17.921710 Si / 1000 Ang^3
#
#
#
# Elastic Constant Matrix: (Units=GPa)
#
#
# Indices 1 2 3 4 5 6 
#
# 1 141.2178 24.1932 44.0006 0.0000 0.0000 0.0000
# 2 24.1932 40.0127 13.5364 0.0000 0.0000 0.0000
# 3 44.0006 13.5364 38.1592 0.0000 0.0000 0.0000
# 4 0.0000 0.0000 0.0000 17.6509 0.0000 0.0000
# 5 0.0000 0.0000 0.0000 0.0000 41.7693 0.0000
# 6 0.0000 0.0000 0.0000 0.0000 0.0000 13.4393
#
#
#
# Elastic Compliance Matrix: (Units=1/GPa)
#
#
# Indices 1 2 3 4 5 6 
#
# 1 0.011314 -0.002758 -0.012067 0.000000 0.000000 0.000000
# 2 -0.002758 0.029073 -0.007133 0.000000 0.000000 0.000000
# 3 -0.012067 -0.007133 0.042651 0.000000 0.000000 0.000000
# 4 0.000000 0.000000 0.000000 0.056654 0.000000 0.000000
# 5 0.000000 0.000000 0.000000 0.000000 0.023941 0.000000
# 6 0.000000 0.000000 0.000000 0.000000 0.000000 0.074409
#
#
# Mechanical properties :
#
#
# Convention : Reuss Voigt Hill
#
# Bulk Modulus (GPa) = 25.56171 42.53888 34.05029
# Shear Modulus (GPa) = 16.94930 23.74920 20.34925
#
# Velocity S-wave (km/s) = 3.07863 3.64423 3.37330
# Velocity P-wave (km/s) = 5.18953 6.44164 5.84918
#
# Compressibility (1/GPa) = 0.03912101
#
# Stress axis : x y z
#
# Youngs Moduli (GPa) = 88.38864 34.39637 23.44636
#
# Poissons Ratio (x) = 0.09488 0.28293
# Poissons Ratio (y) = 0.24381 0.16723
# Poissons Ratio (z) = 1.06659 0.24534
#
# Static dielectric constant tensor:
#      x y z
#    x 1.679390 0.000000 0.000000 
#    y 0.000000 1.602780 0.000000 
#    z 0.000000 0.000000 1.598660 
# 
# From -- ./inp_files/19349.got.cif
#   From: 2010.05.17/outbox.cif.g08.bks.cpg/sg67_10_cif.got.tgz:19349.got - 2010.06.03 18:28:57.
