data_PCOD9500119
_publ_section_title
;
Structure prediction by ZEFSAII (Michael W. Deem and Ramdas Pophale) SiO2 
 PCOD9500119
Probable space group: C C C M
;
_chemical_formula_sum "Si O2"
_cell_formula_units_Z 48
_cell_length_a 24.000000
_cell_length_b 12.000000
_cell_length_c 18.000000
_cell_angle_alpha 90.000000
_cell_angle_beta 90.000000
_cell_angle_gamma 90.000000
_cell_volume 5184.000000
_symmetry_space_group_name_H-M "C C C M"
_symmetry_group_IT_number 66
_symmetry_cell_setting 'orthorhombic'
loop_
_space_group_symop_operation_xyz
x,y,z
-x,-y,z
x,-y,1/2-z
-x,y,1/2-z
-x,-y,-z
x,y,-z
-x,y,1/2+z
x,-y,1/2+z
1/2+x,1/2+y,z
1/2-x,1/2-y,z
1/2+x,1/2-y,1/2-z
1/2-x,1/2+y,1/2-z
1/2-x,1/2-y,-z
1/2+x,1/2+y,-z
1/2-x,1/2+y,1/2+z
1/2+x,1/2-y,1/2+z
loop_
_atom_site_type_symbol
_atom_site_label
_atom_site_fract_x
_atom_site_fract_y
_atom_site_fract_z
Si Si1 0.800640 0.088332 0.412087
Si Si2 0.692697 0.320731 0.917632
Si Si3 0.638534 0.848979 0.316508
Si Si4 0.596908 0.748435 0.914872
Si Si5 0.679209 0.909408 0.849800
Si Si6 0.007801 0.627548 0.838662
O O1 0.792293 0.116782 0.500000
O O2 0.859297 0.149072 0.389106
O O3 0.744100 0.118087 0.366207
O O4 0.803287 0.953627 0.407647
O O5 0.750000 0.250000 0.919282
O O6 0.661165 0.265272 0.849359
O O7 0.666719 0.302604 0.000000
O O8 0.653684 0.864120 0.228952
O O9 0.574053 0.850125 0.341984
O O10 0.669263 0.957831 0.350483
O O11 0.638942 0.853003 0.909608
O O12 0.539512 0.788823 0.873078
O O13 0.581809 0.722899 0.000000
O O14 0.000000 0.500000 0.866942
O O15 0.000000 0.626686 0.750000
#
# Coordination Sequence:
#
# PCOD9500119 Si02
#       6
#    16  16  16  16  16  16
#     4  10  22  41  61  89 131 167 204 258 321 386
#     4  10  21  39  61  86 123 166 208 256 305 374
#     4  11  22  37  61  92 121 161 209 258 313 372
#     4  11  23  38  61  91 122 164 206 253 318 378
#     4  11  20  38  59  92 128 159 196 260 326 379
#     4  11  20  42  62  84 125 166 204 261 316 369
#
# _framework density 9.2592590000000001
#
# number of rings (size 3 to 8) (size 9 to 14) (size 15 to 20)
#    0.000    1.333    5.000    2.000    0.000    4.333 
#    0.000    0.833    0.000    4.000    0.000    0.000 
#    0.000    0.000    0.000    0.000    0.000    0.000 
#
# Total GULP energy -267241.135610 kJ/mol
# GULP energy per Si atom -5567.523659 kJ/mol
# Density = 0.923818 g / cm^3
# Si number density = 9.259259 Si / 1000 Ang^3
#
#
#
# Elastic Constant Matrix: (Units=GPa)
#
#
# Indices 1 2 3 4 5 6 
#
# 1 149.4573 44.0773 45.4939 0.0000 0.0000 0.0000
# 2 44.0773 85.8079 29.5632 0.0000 0.0000 0.0000
# 3 45.4939 29.5632 47.4585 0.0000 0.0000 0.0000
# 4 0.0000 0.0000 0.0000 29.2445 0.0000 0.0000
# 5 0.0000 0.0000 0.0000 0.0000 30.3526 0.0000
# 6 0.0000 0.0000 0.0000 0.0000 0.0000 34.4172
#
#
#
# Elastic Compliance Matrix: (Units=1/GPa)
#
#
# Indices 1 2 3 4 5 6 
#
# 1 0.009787 -0.002286 -0.007959 0.000000 0.000000 0.000000
# 2 -0.002286 0.015372 -0.007385 0.000000 0.000000 0.000000
# 3 -0.007959 -0.007385 0.033300 0.000000 0.000000 0.000000
# 4 0.000000 0.000000 0.000000 0.034194 0.000000 0.000000
# 5 0.000000 0.000000 0.000000 0.000000 0.032946 0.000000
# 6 0.000000 0.000000 0.000000 0.000000 0.000000 0.029055
#
#
# Mechanical properties :
#
#
# Convention : Reuss Voigt Hill
#
# Bulk Modulus (GPa) = 43.09948 57.88807 50.49378
# Shear Modulus (GPa) = 25.29755 29.70884 27.50319
#
# Velocity S-wave (km/s) = 3.70004 4.00969 3.85797
# Velocity P-wave (km/s) = 6.44810 7.26390 6.86812
#
# Compressibility (1/GPa) = 0.02320214
#
# Stress axis : x y z
#
# Youngs Moduli (GPa) = 102.17147 65.05219 30.02979
#
# Poissons Ratio (x) = 0.14869 0.23899
# Poissons Ratio (y) = 0.23353 0.22176
# Poissons Ratio (z) = 0.81313 0.48040
#
# Static dielectric constant tensor:
#      x y z
#    x 1.687160 0.000000 0.000000 
#    y 0.000000 1.650200 0.000000 
#    z 0.000000 0.000000 1.689790 
# 
# From -- ./inp_files/43550.got.cif
#   From: 2010.05.17/outbox.ucp.g08.bks.cvg/sg66_22_cif.got.tgz:43550.got - 2010.06.11 16:44:13.
