data_PCOD9500890
_publ_section_title
;
Structure prediction by ZEFSAII (Michael W. Deem and Ramdas Pophale) SiO2 
 PCOD9500890
Probable space group: C M M A
;
_chemical_formula_sum "Si O2"
_cell_formula_units_Z 128
_cell_length_a 24.910718
_cell_length_b 27.324223
_cell_length_c 11.545835
_cell_angle_alpha 90.000000
_cell_angle_beta 90.000000
_cell_angle_gamma 90.000000
_cell_volume 7858.857485
_symmetry_space_group_name_H-M "C M M A"
_symmetry_group_IT_number 67
_symmetry_cell_setting 'orthorhombic'
loop_
_space_group_symop_operation_xyz
x,y,z
-x,1/2-y,z
x,-y,-z
-x,1/2+y,-z
-x,-y,-z
x,1/2+y,-z
-x,y,z
x,1/2-y,z
1/2+x,1/2+y,z
1/2-x,-y,z
1/2+x,1/2-y,-z
1/2-x,y,-z
1/2-x,1/2-y,-z
1/2+x,y,-z
1/2-x,1/2+y,z
1/2+x,-y,z
loop_
_atom_site_type_symbol
_atom_site_label
_atom_site_fract_x
_atom_site_fract_y
_atom_site_fract_z
Si Si1 0.565473 0.805564 0.305749
Si Si2 0.935359 0.104629 0.143060
Si Si3 0.895486 0.551162 0.068341
Si Si4 0.104541 0.954169 0.645966
Si Si5 0.062465 0.057615 0.683257
Si Si6 0.769062 0.056800 0.374917
Si Si7 0.270880 0.943847 0.875800
Si Si8 0.562069 0.629743 0.510643
O O1 0.500000 0.805769 0.309962
O O2 0.583011 0.750000 0.287125
O O3 0.579513 0.844344 0.205560
O O4 0.585323 0.827997 0.428552
O O5 0.912676 0.061912 0.225591
O O6 0.000000 0.101261 0.137575
O O7 0.909682 0.094625 0.019437
O O8 0.932693 0.554740 0.179753
O O9 0.834863 0.554531 0.114641
O O10 0.902171 0.500000 0.000000
O O11 0.166559 0.942172 0.626527
O O12 0.067858 0.919338 0.567074
O O13 0.094643 0.011546 0.632883
O O14 0.083684 0.109152 0.631882
O O15 0.000000 0.052277 0.650946
O O16 0.750000 0.077758 0.500000
O O17 0.747978 0.076990 0.249810
O O18 0.750000 0.000000 0.375456
O O19 0.250000 0.000000 0.874912
O O20 0.250000 0.922626 0.000000
O O21 0.500000 0.642948 0.528980
#
# Coordination Sequence:
#
# PCOD9500890 Si02
#       8
#    16  16  16  16  16  16  16  16
#     4   8  15  32  55  72  92 123 159 210 260 290
#     4  10  20  32  47  75 100 125 172 210 233 291
#     4  12  21  30  47  64  99 146 173 200 236 284
#     4  11  19  30  46  62  96 135 167 199 242 276
#     4  11  21  29  42  64  98 139 167 189 230 290
#     4  10  22  31  43  62  89 129 175 221 245 279
#     4  10  18  33  46  61  85 132 186 215 242 278
#     4   9  19  30  45  72  98 122 160 202 242 300
#
# _framework density 16.287355000000002
#
# number of rings (size 3 to 8) (size 9 to 14) (size 15 to 20)
#    0.000    1.875    2.500    4.875    5.250    1.500 
#    0.000    0.000    0.000    0.750    0.000    3.500 
#    0.000   20.500    0.000    0.000    0.000    0.000 
#
# Total GULP energy -356369.710009 kJ/mol
# GULP energy per Si atom -5568.276719 kJ/mol
# Density = 1.625028 g / cm^3
# Si number density = 16.287355 Si / 1000 Ang^3
#
#
#
# Elastic Constant Matrix: (Units=GPa)
#
#
# Indices 1 2 3 4 5 6 
#
# 1 67.6928 11.0193 25.0488 0.0000 0.0000 0.0000
# 2 11.0193 72.1659 27.2158 0.0000 0.0000 0.0000
# 3 25.0488 27.2158 116.3909 0.0000 0.0000 0.0000
# 4 0.0000 0.0000 0.0000 15.5970 0.0000 0.0000
# 5 0.0000 0.0000 0.0000 0.0000 11.0632 0.0000
# 6 0.0000 0.0000 0.0000 0.0000 0.0000 -1.1535
#
#
#
# Elastic Compliance Matrix: (Units=1/GPa)
#
#
# Indices 1 2 3 4 5 6 
#
# 1 0.016156 -0.001267 -0.003181 0.000000 0.000000 0.000000
# 2 -0.001267 0.015297 -0.003304 0.000000 0.000000 0.000000
# 3 -0.003181 -0.003304 0.010049 0.000000 0.000000 0.000000
# 4 0.000000 0.000000 0.000000 0.064115 0.000000 0.000000
# 5 0.000000 0.000000 0.000000 0.000000 0.090390 0.000000
# 6 0.000000 0.000000 0.000000 0.000000 0.000000 -0.866905
#
#
# Mechanical properties :
#
#
# Convention : Reuss Voigt Hill
#
# Bulk Modulus (GPa) = 38.46578 42.53528 40.50053
# Shear Modulus (GPa) = -7.73120 17.96571 5.11725
#
# Velocity S-wave (km/s) = -2.18107 3.32482 1.77445
# Velocity P-wave (km/s) = 4.16239 6.39620 5.39615
#
# Compressibility (1/GPa) = 0.02599713
#
# Stress axis : x y z
#
# Youngs Moduli (GPa) = 61.89700 65.37429 99.51405
#
# Poissons Ratio (x) = 0.08286 0.31651
# Poissons Ratio (y) = 0.07845 0.32880
# Poissons Ratio (z) = 0.19687 0.21600
#
# Static dielectric constant tensor:
#      x y z
#    x 1.564180 0.000000 0.000000 
#    y 0.000000 1.539170 0.000000 
#    z 0.000000 0.000000 1.688370 
# 
# From -- ./inp_files/22405.got.cif
#   From: 2010.05.17/outbox.cif.g08.bks.cpg/sg67_12_cif.got.tgz:22405.got - 2010.06.03 18:28:57.
