data_PCOD9500773
_publ_section_title
;
Structure prediction by ZEFSAII (Michael W. Deem and Ramdas Pophale) SiO2 
 PCOD9500773
Probable space group: C M M A
;
_chemical_formula_sum "Si O2"
_cell_formula_units_Z 96
_cell_length_a 24.335652
_cell_length_b 8.677927
_cell_length_c 26.090929
_cell_angle_alpha 90.000000
_cell_angle_beta 90.000000
_cell_angle_gamma 90.000000
_cell_volume 5509.960960
_symmetry_space_group_name_H-M "C M M A"
_symmetry_group_IT_number 67
_symmetry_cell_setting 'orthorhombic'
loop_
_space_group_symop_operation_xyz
x,y,z
-x,1/2-y,z
x,-y,-z
-x,1/2+y,-z
-x,-y,-z
x,1/2+y,-z
-x,y,z
x,1/2-y,z
1/2+x,1/2+y,z
1/2-x,-y,z
1/2+x,1/2-y,-z
1/2-x,y,-z
1/2-x,1/2-y,-z
1/2+x,y,-z
1/2-x,1/2+y,z
1/2+x,-y,z
loop_
_atom_site_type_symbol
_atom_site_label
_atom_site_fract_x
_atom_site_fract_y
_atom_site_fract_z
Si Si1 0.063437 0.933920 0.555667
Si Si2 0.888387 0.933402 0.344626
Si Si3 0.688521 0.064309 0.252398
Si Si4 0.378471 0.437040 0.844790
Si Si5 0.500000 0.068409 0.282012
Si Si6 0.000000 0.932119 0.828439
Si Si7 0.688605 0.434646 0.946233
O O1 0.063231 0.750000 0.553486
O O2 0.000000 0.985709 0.566720
O O3 0.078008 0.000000 0.500000
O O4 0.103732 0.988577 0.600513
O O5 0.883012 0.750000 0.352271
O O6 0.840158 0.984129 0.306058
O O7 0.945452 0.961009 0.314519
O O8 0.689282 0.250000 0.250871
O O9 0.750000 0.000000 0.248088
O O10 0.651728 0.004829 0.205032
O O11 0.378045 0.250000 0.839994
O O12 0.441538 0.492589 0.848049
O O13 0.346408 0.478233 0.896538
O O14 0.500000 0.250000 0.267258
O O15 0.500000 0.964602 0.232002
O O16 0.000000 0.750000 0.838771
O O17 0.691126 0.250000 0.949427
O O18 0.750000 0.500000 0.940176
O O19 0.666491 0.500000 0.000000
#
# Coordination Sequence:
#
# PCOD9500773 Si02
#       7
#    16  16  16  16   8   8  16
#     4  10  20  32  50  77 108 141 176 215 260 311
#     4  10  20  34  53  76 107 141 173 215 264 314
#     4  11  23  37  55  79 108 142 179 221 267 315
#     4  10  21  36  55  80 110 142 176 217 265 318
#     4  10  18  32  51  76 107 140 176 215 262 315
#     4  10  20  34  53  78 110 144 176 213 259 317
#     4  10  20  35  55  78 103 135 177 223 269 314
#
# _framework density 17.422991
#
# number of rings (size 3 to 8) (size 9 to 14) (size 15 to 20)
#    0.000    1.833    2.500    2.500    0.000    5.333 
#    0.000    0.417    0.000    0.500    0.000    3.500 
#    0.000    0.000    0.000    0.000    0.000    0.000 
#
# Total GULP energy -267870.920374 kJ/mol
# GULP energy per Si atom -5580.644174 kJ/mol
# Density = 1.738334 g / cm^3
# Si number density = 17.422991 Si / 1000 Ang^3
#
#
#
# Elastic Constant Matrix: (Units=GPa)
#
#
# Indices 1 2 3 4 5 6 
#
# 1 116.4272 28.1265 69.9428 0.0000 0.0000 0.0000
# 2 28.1265 27.5812 41.7643 0.0000 0.0000 0.0000
# 3 69.9428 41.7643 151.0767 0.0000 0.0000 0.0000
# 4 0.0000 0.0000 0.0000 29.5763 0.0000 0.0000
# 5 0.0000 0.0000 0.0000 0.0000 17.3854 0.0000
# 6 0.0000 0.0000 0.0000 0.0000 0.0000 13.1131
#
#
#
# Elastic Compliance Matrix: (Units=1/GPa)
#
#
# Indices 1 2 3 4 5 6 
#
# 1 0.012622 -0.006920 -0.003931 0.000000 0.000000 0.000000
# 2 -0.006920 0.066155 -0.015085 0.000000 0.000000 0.000000
# 3 -0.003931 -0.015085 0.012609 0.000000 0.000000 0.000000
# 4 0.000000 0.000000 0.000000 0.033811 0.000000 0.000000
# 5 0.000000 0.000000 0.000000 0.000000 0.057520 0.000000
# 6 0.000000 0.000000 0.000000 0.000000 0.000000 0.076260
#
#
# Mechanical properties :
#
#
# Convention : Reuss Voigt Hill
#
# Bulk Modulus (GPa) = 25.30632 63.86136 44.58384
# Shear Modulus (GPa) = 15.43128 22.36505 18.89817
#
# Velocity S-wave (km/s) = 2.97927 3.58670 3.29700
# Velocity P-wave (km/s) = 5.13721 7.34068 6.33548
#
# Compressibility (1/GPa) = 0.03951582
#
# Stress axis : x y z
#
# Youngs Moduli (GPa) = 79.22683 15.11613 79.30906
#
# Poissons Ratio (x) = 0.10460 0.31173
# Poissons Ratio (y) = 0.54823 1.19634
# Poissons Ratio (z) = 0.31141 0.22802
#
# Static dielectric constant tensor:
#      x y z
#    x 1.592750 0.000000 0.000000 
#    y 0.000000 1.590770 0.000000 
#    z 0.000000 0.000000 1.575010 
# 
# From -- ./inp_files/42576.got.cif
#   From: 2010.05.17/outbox.cif.g08.bks.cpg/sg67_22_cif.got.tgz:42576.got - 2010.06.03 18:28:57.
