data_PCOD9500553
_publ_section_title
;
Structure prediction by ZEFSAII (Michael W. Deem and Ramdas Pophale) SiO2 
 PCOD9500553
Probable space group: C M M A
;
_chemical_formula_sum "Si O2"
_cell_formula_units_Z 128
_cell_length_a 20.890294
_cell_length_b 15.465424
_cell_length_c 18.042854
_cell_angle_alpha 90.000000
_cell_angle_beta 90.000000
_cell_angle_gamma 90.000000
_cell_volume 5829.235728
_symmetry_space_group_name_H-M "C M M A"
_symmetry_group_IT_number 67
_symmetry_cell_setting 'orthorhombic'
loop_
_space_group_symop_operation_xyz
x,y,z
-x,1/2-y,z
x,-y,-z
-x,1/2+y,-z
-x,-y,-z
x,1/2+y,-z
-x,y,z
x,1/2-y,z
1/2+x,1/2+y,z
1/2-x,-y,z
1/2+x,1/2-y,-z
1/2-x,y,-z
1/2-x,1/2-y,-z
1/2+x,y,-z
1/2-x,1/2+y,z
1/2+x,-y,z
loop_
_atom_site_type_symbol
_atom_site_label
_atom_site_fract_x
_atom_site_fract_y
_atom_site_fract_z
Si Si1 0.095745 0.648613 0.919860
Si Si2 0.209064 0.854270 0.715338
Si Si3 0.569790 0.414498 0.757446
Si Si4 0.573271 0.152133 0.395642
Si Si5 0.289896 0.143809 0.427628
Si Si6 0.427332 0.381228 0.231214
Si Si7 0.242033 0.646250 0.877430
Si Si8 0.871170 0.147473 0.929901
O O1 0.078182 0.750000 0.913756
O O2 0.070362 0.605660 0.845511
O O3 0.172348 0.638500 0.911908
O O4 0.084232 0.614149 0.003159
O O5 0.212456 0.750000 0.716313
O O6 0.133398 0.876556 0.719459
O O7 0.250108 0.884471 0.645141
O O8 0.238990 0.886827 0.793053
O O9 0.500000 0.385647 0.727909
O O10 0.574357 0.517133 0.753063
O O11 0.500000 0.115170 0.399282
O O12 0.568039 0.250000 0.424688
O O13 0.636619 0.110845 0.431298
O O14 0.593687 0.158099 0.308999
O O15 0.293059 0.250000 0.425019
O O16 0.250000 0.119878 0.500000
O O17 0.500000 0.352783 0.220429
O O18 0.393763 0.361363 0.154325
O O19 0.253541 0.750000 0.872674
O O20 0.299857 0.608917 0.925062
O O21 0.867550 0.250000 0.947023
#
# Coordination Sequence:
#
# PCOD9500553 Si02
#       8
#    16  16  16  16  16  16  16  16
#     4   9  18  31  48  70  95 125 163 208 257 309
#     4   9  17  31  53  77  99 128 166 207 250 298
#     4  10  21  36  50  65  93 134 175 215 260 305
#     4   9  17  32  55  79 105 140 175 202 237 295
#     4   9  17  31  54  86 118 138 158 201 255 296
#     4  10  21  34  48  68  95 129 169 214 259 299
#     4   8  14  27  47  69  92 120 157 198 243 296
#     4  10  18  29  48  71  95 125 162 207 258 313
#
# _framework density 21.958280999999999
#
# number of rings (size 3 to 8) (size 9 to 14) (size 15 to 20)
#    0.000    2.750    0.000    2.625    0.000    6.250 
#    0.000    8.750    0.000    6.750    0.000    2.625 
#    0.000    0.000    0.000    0.000    0.000    0.000 
#
# Total GULP energy -356655.908504 kJ/mol
# GULP energy per Si atom -5572.748570 kJ/mol
# Density = 2.190830 g / cm^3
# Si number density = 21.958281 Si / 1000 Ang^3
#
#
#
# Elastic Constant Matrix: (Units=GPa)
#
#
# Indices 1 2 3 4 5 6 
#
# 1 131.0992 8.4404 59.3587 0.0000 0.0000 0.0000
# 2 8.4404 27.8486 0.6901 0.0000 0.0000 0.0000
# 3 59.3587 0.6901 83.0822 0.0000 0.0000 0.0000
# 4 0.0000 0.0000 0.0000 -2.4700 0.0000 0.0000
# 5 0.0000 0.0000 0.0000 0.0000 11.4626 0.0000
# 6 0.0000 0.0000 0.0000 0.0000 0.0000 8.2013
#
#
#
# Elastic Compliance Matrix: (Units=1/GPa)
#
#
# Indices 1 2 3 4 5 6 
#
# 1 0.011571 -0.003303 -0.008240 0.000000 0.000000 0.000000
# 2 -0.003303 0.036859 0.002054 0.000000 0.000000 0.000000
# 3 -0.008240 0.002054 0.017906 0.000000 0.000000 0.000000
# 4 0.000000 0.000000 0.000000 -0.404853 0.000000 0.000000
# 5 0.000000 0.000000 0.000000 0.000000 0.087240 0.000000
# 6 0.000000 0.000000 0.000000 0.000000 0.000000 0.121932
#
#
# Mechanical properties :
#
#
# Convention : Reuss Voigt Hill
#
# Bulk Modulus (GPa) = 21.11573 42.11203 31.61388
# Shear Modulus (GPa) = -52.86461 15.00816 -18.92823
#
# Velocity S-wave (km/s) = -4.91195 2.61719 -2.93918
# Velocity P-wave (km/s) = 4.74685 5.32473 1.70590
#
# Compressibility (1/GPa) = 0.04735807
#
# Stress axis : x y z
#
# Youngs Moduli (GPa) = 86.42146 27.13070 55.84676
#
# Poissons Ratio (x) = 0.08961 0.46016
# Poissons Ratio (y) = 0.28544 -0.11469
# Poissons Ratio (z) = 0.71209 -0.05572
#
# Static dielectric constant tensor:
#      x y z
#    x 1.870300 0.000000 0.000000 
#    y 0.000000 1.814810 0.000000 
#    z 0.000000 0.000000 1.847540 
# 
# From -- ./inp_files/35253.got.cif
#   From: 2010.05.17/outbox.cif.g08.bks.cpg/sg67_18_cif.got.tgz:35253.got - 2010.06.03 18:28:57.
