data_PCOD9500917
_publ_section_title
;
Structure prediction by ZEFSAII (Michael W. Deem and Ramdas Pophale) SiO2 
 PCOD9500917
Probable space group: C M M A
;
_chemical_formula_sum "Si O2"
_cell_formula_units_Z 80
_cell_length_a 24.533711
_cell_length_b 9.203521
_cell_length_c 19.899914
_cell_angle_alpha 90.000000
_cell_angle_beta 90.000000
_cell_angle_gamma 90.000000
_cell_volume 4493.331417
_symmetry_space_group_name_H-M "C M M A"
_symmetry_group_IT_number 67
_symmetry_cell_setting 'orthorhombic'
loop_
_space_group_symop_operation_xyz
x,y,z
-x,1/2-y,z
x,-y,-z
-x,1/2+y,-z
-x,-y,-z
x,1/2+y,-z
-x,y,z
x,1/2-y,z
1/2+x,1/2+y,z
1/2-x,-y,z
1/2+x,1/2-y,-z
1/2-x,y,-z
1/2-x,1/2-y,-z
1/2+x,y,-z
1/2-x,1/2+y,z
1/2+x,-y,z
loop_
_atom_site_type_symbol
_atom_site_label
_atom_site_fract_x
_atom_site_fract_y
_atom_site_fract_z
Si Si1 0.064492 0.923113 0.070964
Si Si2 0.624508 0.586072 0.570302
Si Si3 0.000000 0.083372 0.279070
Si Si4 0.808500 0.075621 0.313844
Si Si5 0.500000 0.533559 0.579114
Si Si6 0.606139 0.424971 0.799518
O O1 0.072395 0.750000 0.066455
O O2 0.000000 0.949603 0.086006
O O3 0.099641 0.993652 0.130258
O O4 0.075974 0.000000 0.000000
O O5 0.629072 0.500000 0.500000
O O6 0.646681 0.750000 0.564608
O O7 0.655218 0.494690 0.627099
O O8 0.560175 0.599397 0.587618
O O9 0.055066 0.022478 0.246663
O O10 0.000000 0.250000 0.258510
O O11 0.000000 0.079619 0.359563
O O12 0.804846 0.250000 0.323022
O O13 0.839927 0.047383 0.243821
O O14 0.750000 0.000000 0.314459
O O15 0.500000 0.500000 0.500000
O O16 0.602765 0.250000 0.809713
#
# Coordination Sequence:
#
# PCOD9500917 Si02
#       6
#    16  16   8  16   8  16
#     4  10  20  33  53  85 123 159 190 226 272 334
#     4  11  23  39  59  85 116 151 191 238 291 348
#     4  10  18  33  57  83 115 152 190 234 288 352
#     4  11  24  42  62  84 111 149 196 245 294 343
#     4  10  21  35  55  87 120 156 192 234 285 345
#     4  10  20  36  59  85 115 152 188 231 285 341
#
# _framework density 17.804162000000002
#
# number of rings (size 3 to 8) (size 9 to 14) (size 15 to 20)
#    0.000    1.600    3.000    2.100    0.000    6.000 
#    0.000    2.000    0.000    0.600    0.000    4.200 
#    0.000    0.000    0.000    0.000    0.000    0.000 
#
# Total GULP energy -222919.093487 kJ/mol
# GULP energy per Si atom -5572.977337 kJ/mol
# Density = 1.776364 g / cm^3
# Si number density = 17.804162 Si / 1000 Ang^3
#
#
#
# Elastic Constant Matrix: (Units=GPa)
#
#
# Indices 1 2 3 4 5 6 
#
# 1 119.1764 62.9475 69.2687 0.0000 0.0000 0.0000
# 2 62.9475 107.3041 73.1252 0.0000 0.0000 0.0000
# 3 69.2687 73.1252 141.8195 0.0000 0.0000 0.0000
# 4 0.0000 0.0000 0.0000 29.8557 0.0000 0.0000
# 5 0.0000 0.0000 0.0000 0.0000 14.2260 0.0000
# 6 0.0000 0.0000 0.0000 0.0000 0.0000 10.9922
#
#
#
# Elastic Compliance Matrix: (Units=1/GPa)
#
#
# Indices 1 2 3 4 5 6 
#
# 1 0.013389 -0.005238 -0.003838 0.000000 0.000000 0.000000
# 2 -0.005238 0.016418 -0.005907 0.000000 0.000000 0.000000
# 3 -0.003838 -0.005907 0.011972 0.000000 0.000000 0.000000
# 4 0.000000 0.000000 0.000000 0.033494 0.000000 0.000000
# 5 0.000000 0.000000 0.000000 0.000000 0.070294 0.000000
# 6 0.000000 0.000000 0.000000 0.000000 0.000000 0.090973
#
#
# Mechanical properties :
#
#
# Convention : Reuss Voigt Hill
#
# Bulk Modulus (GPa) = 84.66717 86.55366 85.61041
# Shear Modulus (GPa) = 18.48815 21.87871 20.18343
#
# Velocity S-wave (km/s) = 3.22594 3.50930 3.37060
# Velocity P-wave (km/s) = 7.84433 8.07094 7.95844
#
# Compressibility (1/GPa) = 0.01181095
#
# Stress axis : x y z
#
# Youngs Moduli (GPa) = 74.68937 60.91038 83.53098
#
# Poissons Ratio (x) = 0.31907 0.32063
# Poissons Ratio (y) = 0.39126 0.49339
# Poissons Ratio (z) = 0.28669 0.35978
#
# Static dielectric constant tensor:
#      x y z
#    x 1.610150 0.000000 0.000000 
#    y 0.000000 1.570200 0.000000 
#    z 0.000000 0.000000 1.599680 
# 
# From -- ./inp_files/35795.got.cif
#   From: 2010.05.17/outbox.cif.g08.bks.cpg/sg67_18_cif.got.tgz:35795.got - 2010.06.03 18:28:57.
