data_PCOD9500061
_publ_section_title
;
Structure prediction by ZEFSAII (Michael W. Deem and Ramdas Pophale) SiO2 
 PCOD9500061
Probable space group: C C C M
;
_chemical_formula_sum "Si O2"
_cell_formula_units_Z 56
_cell_length_a 15.000000
_cell_length_b 15.000000
_cell_length_c 27.000000
_cell_angle_alpha 90.000000
_cell_angle_beta 90.000000
_cell_angle_gamma 90.000000
_cell_volume 6075.000000
_symmetry_space_group_name_H-M "C C C M"
_symmetry_group_IT_number 66
_symmetry_cell_setting 'orthorhombic'
loop_
_space_group_symop_operation_xyz
x,y,z
-x,-y,z
x,-y,1/2-z
-x,y,1/2-z
-x,-y,-z
x,y,-z
-x,y,1/2+z
x,-y,1/2+z
1/2+x,1/2+y,z
1/2-x,1/2-y,z
1/2+x,1/2-y,1/2-z
1/2-x,1/2+y,1/2-z
1/2-x,1/2-y,-z
1/2+x,1/2+y,-z
1/2-x,1/2+y,1/2+z
1/2+x,1/2-y,1/2+z
loop_
_atom_site_type_symbol
_atom_site_label
_atom_site_fract_x
_atom_site_fract_y
_atom_site_fract_z
Si Si1 0.711117 0.086375 0.717104
Si Si2 0.248356 0.986188 0.556359
Si Si3 0.832874 0.184121 0.945376
Si Si4 0.435069 0.637294 0.849225
Si Si5 0.843159 0.296729 0.808142
Si Si6 0.603669 0.981004 0.636622
Si Si7 0.133433 0.063122 0.146236
O O1 0.675427 0.161413 0.754102
O O2 0.799049 0.106553 0.685394
O O3 0.734175 0.000000 0.750000
O O4 0.637956 0.049936 0.678593
O O5 0.258596 0.952480 0.500000
O O6 0.180250 0.933149 0.592274
O O7 0.206826 0.084884 0.552968
O O8 0.339094 0.998382 0.587504
O O9 0.750000 0.250000 0.936998
O O10 0.902877 0.181375 0.900958
O O11 0.870885 0.205315 0.000000
O O12 0.412036 0.714394 0.809924
O O13 0.380819 0.543610 0.842235
O O14 0.537521 0.608716 0.851785
O O15 0.750000 0.250000 0.824506
O O16 0.872731 0.381068 0.842589
O O17 0.500000 0.000000 0.628930
#
# Coordination Sequence:
#
# PCOD9500061 Si02
#       7
#    16  16  16  16  16  16  16
#     4   9  19  37  55  72 108 148 182 227 293 336
#     4   9  17  31  55  81 109 152 194 222 276 352
#     4   9  16  27  49  82 116 148 185 234 286 333
#     4  10  18  32  55  81 115 151 191 232 283 339
#     4  11  21  37  59  83 108 148 195 237 286 350
#     4  10  21  38  58  82 119 149 181 243 296 332
#     4   9  19  35  53  80 119 153 179 237 291 330
#
# _framework density 9.2181069999999998
#
# number of rings (size 3 to 8) (size 9 to 14) (size 15 to 20)
#    0.000    2.429    0.000    4.714    0.000    3.429 
#    5.143    7.143    0.000    0.000    0.000    1.000 
#    0.000    0.000    0.000    0.000    0.000    0.000 
#
# Total GULP energy -312329.762378 kJ/mol
# GULP energy per Si atom -5577.317185 kJ/mol
# Density = 0.919713 g / cm^3
# Si number density = 9.218107 Si / 1000 Ang^3
#
#
#
# Elastic Constant Matrix: (Units=GPa)
#
#
# Indices 1 2 3 4 5 6 
#
# 1 114.9223 41.9571 54.9416 0.0000 0.0000 0.0000
# 2 41.9571 81.5625 46.6655 0.0000 0.0000 0.0000
# 3 54.9416 46.6655 136.3859 0.0000 0.0000 0.0000
# 4 0.0000 0.0000 0.0000 25.5049 0.0000 0.0000
# 5 0.0000 0.0000 0.0000 0.0000 5.1884 0.0000
# 6 0.0000 0.0000 0.0000 0.0000 0.0000 27.6055
#
#
#
# Elastic Compliance Matrix: (Units=1/GPa)
#
#
# Indices 1 2 3 4 5 6 
#
# 1 0.011818 -0.004172 -0.003333 0.000000 0.000000 0.000000
# 2 -0.004172 0.016718 -0.004039 0.000000 0.000000 0.000000
# 3 -0.003333 -0.004039 0.010057 0.000000 0.000000 0.000000
# 4 0.000000 0.000000 0.000000 0.039208 0.000000 0.000000
# 5 0.000000 0.000000 0.000000 0.000000 0.192739 0.000000
# 6 0.000000 0.000000 0.000000 0.000000 0.000000 0.036225
#
#
# Mechanical properties :
#
#
# Convention : Reuss Voigt Hill
#
# Bulk Modulus (GPa) = 64.50274 68.88879 66.69576
# Shear Modulus (GPa) = 14.92433 24.28020 19.60226
#
# Velocity S-wave (km/s) = 2.84828 3.63296 3.26429
# Velocity P-wave (km/s) = 6.77347 7.41923 7.10369
#
# Compressibility (1/GPa) = 0.01550322
#
# Stress axis : x y z
#
# Youngs Moduli (GPa) = 84.61366 59.81569 99.43305
#
# Poissons Ratio (x) = 0.24958 0.33144
# Poissons Ratio (y) = 0.35305 0.40165
# Poissons Ratio (z) = 0.28204 0.24162
#
# Static dielectric constant tensor:
#      x y z
#    x 1.633580 0.000000 0.000000 
#    y 0.000000 1.632990 0.000000 
#    z 0.000000 0.000000 1.684920 
# 
# From -- ./inp_files/64641.got.cif
#   From: 2010.05.17/outbox.ucp.g08.bks.cvg/sg66_33_cif.got.tgz:64641.got - 2010.06.11 16:44:13.
