data_PCOD9500766
_publ_section_title
;
Structure prediction by ZEFSAII (Michael W. Deem and Ramdas Pophale) SiO2 
 PCOD9500766
Probable space group: C M M A
;
_chemical_formula_sum "Si O2"
_cell_formula_units_Z 112
_cell_length_a 25.647258
_cell_length_b 16.417500
_cell_length_c 16.304887
_cell_angle_alpha 90.000000
_cell_angle_beta 90.000000
_cell_angle_gamma 90.000000
_cell_volume 6865.398628
_symmetry_space_group_name_H-M "C M M A"
_symmetry_group_IT_number 67
_symmetry_cell_setting 'orthorhombic'
loop_
_space_group_symop_operation_xyz
x,y,z
-x,1/2-y,z
x,-y,-z
-x,1/2+y,-z
-x,-y,-z
x,1/2+y,-z
-x,y,z
x,1/2-y,z
1/2+x,1/2+y,z
1/2-x,-y,z
1/2+x,1/2-y,-z
1/2-x,y,-z
1/2-x,1/2-y,-z
1/2+x,y,-z
1/2-x,1/2+y,z
1/2+x,-y,z
loop_
_atom_site_type_symbol
_atom_site_label
_atom_site_fract_x
_atom_site_fract_y
_atom_site_fract_z
Si Si1 0.741576 0.095589 0.631439
Si Si2 0.346058 0.846640 0.868872
Si Si3 0.669717 0.847477 0.515376
Si Si4 0.692956 0.594061 0.026444
Si Si5 0.231577 0.652842 0.812545
Si Si6 0.442224 0.349188 0.236565
Si Si7 0.057911 0.650907 0.427839
O O1 0.699106 0.111572 0.560655
O O2 0.795431 0.133538 0.595976
O O3 0.724220 0.134110 0.717207
O O4 0.750000 0.000000 0.642295
O O5 0.345163 0.750000 0.855963
O O6 0.290466 0.877274 0.834333
O O7 0.395140 0.880071 0.819132
O O8 0.347630 0.863389 0.965951
O O9 0.670726 0.750000 0.503464
O O10 0.610100 0.875634 0.525749
O O11 0.692472 0.609579 0.123302
O O12 0.691881 0.500000 0.000000
O O13 0.750000 0.628184 0.000000
O O14 0.228526 0.750000 0.826547
O O15 0.500000 0.374976 0.209152
O O16 0.441535 0.250000 0.234146
O O17 0.436050 0.371411 0.331996
O O18 0.057860 0.750000 0.430940
O O19 0.000000 0.624076 0.455760
#
# Coordination Sequence:
#
# PCOD9500766 Si02
#       7
#    16  16  16  16  16  16  16
#     4  11  22  31  46  66  98 128 161 198 240 284
#     4   9  16  26  43  65  89 117 147 184 227 274
#     4  10  18  32  49  68  96 127 159 196 236 292
#     4   9  18  29  44  62  93 117 150 183 227 272
#     4  10  19  31  47  67  90 124 160 192 226 273
#     4   8  13  22  38  64  93 115 143 186 233 276
#     4   8  14  25  44  70  95 119 151 195 238 276
#
# _framework density 16.313692
#
# number of rings (size 3 to 8) (size 9 to 14) (size 15 to 20)
#    0.000    2.714    0.000    4.714    4.000    4.000 
#    0.000    0.000    0.000    2.143    0.000    1.000 
#    0.000    5.714    0.000    0.000    0.000    0.000 
#
# Total GULP energy -311798.229445 kJ/mol
# GULP energy per Si atom -5567.825526 kJ/mol
# Density = 1.627656 g / cm^3
# Si number density = 16.313692 Si / 1000 Ang^3
#
#
#
# Elastic Constant Matrix: (Units=GPa)
#
#
# Indices 1 2 3 4 5 6 
#
# 1 93.9288 5.7036 30.3075 0.0000 0.0000 0.0000
# 2 5.7036 32.8017 8.2016 0.0000 0.0000 0.0000
# 3 30.3075 8.2016 82.4056 0.0000 0.0000 0.0000
# 4 0.0000 0.0000 0.0000 24.1606 0.0000 0.0000
# 5 0.0000 0.0000 0.0000 0.0000 23.7211 0.0000
# 6 0.0000 0.0000 0.0000 0.0000 0.0000 0.6127
#
#
#
# Elastic Compliance Matrix: (Units=1/GPa)
#
#
# Indices 1 2 3 4 5 6 
#
# 1 0.012113 -0.001018 -0.004354 0.000000 0.000000 0.000000
# 2 -0.001018 0.031350 -0.002746 0.000000 0.000000 0.000000
# 3 -0.004354 -0.002746 0.014010 0.000000 0.000000 0.000000
# 4 0.000000 0.000000 0.000000 0.041390 0.000000 0.000000
# 5 0.000000 0.000000 0.000000 0.000000 0.042157 0.000000
# 6 0.000000 0.000000 0.000000 0.000000 0.000000 1.632123
#
#
# Mechanical properties :
#
#
# Convention : Reuss Voigt Hill
#
# Bulk Modulus (GPa) = 24.24954 33.06240 28.65597
# Shear Modulus (GPa) = 2.77297 20.69379 11.73338
#
# Velocity S-wave (km/s) = 1.30517 3.56545 2.68477
# Velocity P-wave (km/s) = 4.14344 6.10415 5.21674
#
# Compressibility (1/GPa) = 0.04123789
#
# Stress axis : x y z
#
# Youngs Moduli (GPa) = 82.55645 31.89821 71.37967
#
# Poissons Ratio (x) = 0.03246 0.31076
# Poissons Ratio (y) = 0.08401 0.19600
# Poissons Ratio (z) = 0.35942 0.08759
#
# Static dielectric constant tensor:
#      x y z
#    x 1.568730 0.000000 0.000000 
#    y 0.000000 1.556430 0.000000 
#    z 0.000000 0.000000 1.573720 
# 
# From -- ./inp_files/30831.got.cif
#   From: 2010.05.17/outbox.cif.g08.bks.cpg/sg67_16_cif.got.tgz:30831.got - 2010.06.03 18:28:57.
