data_PCOD9500973
_publ_section_title
;
Structure prediction by ZEFSAII (Michael W. Deem and Ramdas Pophale) SiO2 
 PCOD9500973
Probable space group: C M M A
;
_chemical_formula_sum "Si O2"
_cell_formula_units_Z 88
_cell_length_a 8.489279
_cell_length_b 28.116248
_cell_length_c 19.323164
_cell_angle_alpha 90.000000
_cell_angle_beta 90.000000
_cell_angle_gamma 90.000000
_cell_volume 4612.181741
_symmetry_space_group_name_H-M "C M M A"
_symmetry_group_IT_number 67
_symmetry_cell_setting 'orthorhombic'
loop_
_space_group_symop_operation_xyz
x,y,z
-x,1/2-y,z
x,-y,-z
-x,1/2+y,-z
-x,-y,-z
x,1/2+y,-z
-x,y,z
x,1/2-y,z
1/2+x,1/2+y,z
1/2-x,-y,z
1/2+x,1/2-y,-z
1/2-x,y,-z
1/2-x,1/2-y,-z
1/2+x,y,-z
1/2-x,1/2+y,z
1/2+x,-y,z
loop_
_atom_site_type_symbol
_atom_site_label
_atom_site_fract_x
_atom_site_fract_y
_atom_site_fract_z
Si Si1 0.687097 0.448601 0.169456
Si Si2 0.809601 0.250000 0.077996
Si Si3 0.310851 0.949630 0.326991
Si Si4 0.689608 0.638312 0.422512
Si Si5 0.690360 0.651910 0.154301
Si Si6 0.308048 0.696915 0.295685
O O1 0.500000 0.450148 0.168013
O O2 0.750000 0.500000 0.143555
O O3 0.744681 0.444649 0.249347
O O4 0.745144 0.399822 0.133237
O O5 0.759914 0.300045 0.113678
O O6 0.000000 0.250000 0.081113
O O7 0.750000 0.250000 0.000000
O O8 0.500000 0.948939 0.321385
O O9 0.262120 0.908678 0.380039
O O10 0.250000 0.000000 0.353737
O O11 0.500000 0.638793 0.425059
O O12 0.750000 0.640488 0.500000
O O13 0.742340 0.680591 0.371520
O O14 0.500000 0.649519 0.151502
O O15 0.739208 0.662072 0.233939
O O16 0.500000 0.696686 0.295168
O O17 0.255625 0.750000 0.279406
#
# Coordination Sequence:
#
# PCOD9500973 Si02
#       6
#    16   8  16  16  16  16
#     4  11  21  33  54  85 117 150 188 241 291 336
#     4  10  22  38  64  96 129 164 190 227 276 333
#     4  10  19  33  51  72 100 136 179 230 283 341
#     4  10  21  34  49  69  98 137 180 233 283 335
#     4  10  18  35  61  87 115 154 197 231 275 334
#     4   9  16  31  55  77  99 135 186 229 270 332
#
# _framework density 19.079908
#
# number of rings (size 3 to 8) (size 9 to 14) (size 15 to 20)
#    0.000    2.000    2.727    3.273    0.000    2.909 
#    0.000    1.818    0.000    1.636    0.000    3.818 
#    0.000    0.000    0.000    0.000    0.000    0.000 
#
# Total GULP energy -245338.368269 kJ/mol
# GULP energy per Si atom -5575.872006 kJ/mol
# Density = 1.903648 g / cm^3
# Si number density = 19.079908 Si / 1000 Ang^3
#
#
#
# Elastic Constant Matrix: (Units=GPa)
#
#
# Indices 1 2 3 4 5 6 
#
# 1 42.1552 34.3921 13.0237 0.0000 0.0000 0.0000
# 2 34.3921 170.3705 35.2509 0.0000 0.0000 0.0000
# 3 13.0237 35.2509 55.3350 0.0000 0.0000 0.0000
# 4 0.0000 0.0000 0.0000 19.7702 0.0000 0.0000
# 5 0.0000 0.0000 0.0000 0.0000 22.9377 0.0000
# 6 0.0000 0.0000 0.0000 0.0000 0.0000 25.7949
#
#
#
# Elastic Compliance Matrix: (Units=1/GPa)
#
#
# Indices 1 2 3 4 5 6 
#
# 1 0.028997 -0.005116 -0.003566 0.000000 0.000000 0.000000
# 2 -0.005116 0.007663 -0.003678 0.000000 0.000000 0.000000
# 3 -0.003566 -0.003678 0.021254 0.000000 0.000000 0.000000
# 4 0.000000 0.000000 0.000000 0.050581 0.000000 0.000000
# 5 0.000000 0.000000 0.000000 0.000000 0.043596 0.000000
# 6 0.000000 0.000000 0.000000 0.000000 0.000000 0.038767
#
#
# Mechanical properties :
#
#
# Convention : Reuss Voigt Hill
#
# Bulk Modulus (GPa) = 30.12450 48.13269 39.12860
# Shear Modulus (GPa) = 22.06111 26.04682 24.05396
#
# Velocity S-wave (km/s) = 3.40405 3.69879 3.55448
# Velocity P-wave (km/s) = 5.59223 6.59720 6.11539
#
# Compressibility (1/GPa) = 0.03319557
#
# Stress axis : x y z
#
# Youngs Moduli (GPa) = 34.48606 130.49341 47.05021
#
# Poissons Ratio (x) = 0.66758 0.16777
# Poissons Ratio (y) = 0.17642 0.17304
# Poissons Ratio (z) = 0.12297 0.47992
#
# Static dielectric constant tensor:
#      x y z
#    x 1.657360 0.000000 0.000000 
#    y 0.000000 1.709200 0.000000 
#    z 0.000000 0.000000 1.633760 
# 
# From -- ./inp_files/32435.got.cif
#   From: 2010.05.17/outbox.cif.g08.bks.cpg/sg67_17_cif.got.tgz:32435.got - 2010.06.03 18:28:57.
