data_PCOD9500303
_publ_section_title
;
Structure prediction by ZEFSAII (Michael W. Deem and Ramdas Pophale) SiO2 
 PCOD9500303
Probable space group: C M M A
;
_chemical_formula_sum "Si O2"
_cell_formula_units_Z 128
_cell_length_a 21.636341
_cell_length_b 14.112063
_cell_length_c 19.131899
_cell_angle_alpha 90.000000
_cell_angle_beta 90.000000
_cell_angle_gamma 90.000000
_cell_volume 5841.607909
_symmetry_space_group_name_H-M "C M M A"
_symmetry_group_IT_number 67
_symmetry_cell_setting 'orthorhombic'
loop_
_space_group_symop_operation_xyz
x,y,z
-x,1/2-y,z
x,-y,-z
-x,1/2+y,-z
-x,-y,-z
x,1/2+y,-z
-x,y,z
x,1/2-y,z
1/2+x,1/2+y,z
1/2-x,-y,z
1/2+x,1/2-y,-z
1/2-x,y,-z
1/2-x,1/2-y,-z
1/2+x,y,-z
1/2-x,1/2+y,z
1/2+x,-y,z
loop_
_atom_site_type_symbol
_atom_site_label
_atom_site_fract_x
_atom_site_fract_y
_atom_site_fract_z
Si Si1 0.204159 0.865380 0.061736
Si Si2 0.070123 0.637110 0.562291
Si Si3 0.753776 0.864712 0.215749
Si Si4 0.841024 0.354826 0.319800
Si Si5 0.891026 0.365164 0.742118
Si Si6 0.431051 0.634386 0.897253
Si Si7 0.234928 0.388350 0.578084
Si Si8 0.908846 0.859144 0.406339
O O1 0.201782 0.750000 0.060159
O O2 0.234876 0.891658 0.135752
O O3 0.131864 0.896518 0.062725
O O4 0.250000 0.894848 0.000000
O O5 0.086615 0.750000 0.557244
O O6 0.113564 0.597048 0.623599
O O7 0.073819 0.600401 0.482378
O O8 0.000000 0.628836 0.585278
O O9 0.749529 0.750000 0.217942
O O10 0.689801 0.899720 0.250730
O O11 0.817989 0.889766 0.254564
O O12 0.866941 0.250000 0.302155
O O13 0.779790 0.344263 0.366080
O O14 0.893241 0.250000 0.740350
O O15 0.921100 0.393486 0.815721
O O16 0.923912 0.398125 0.670721
O O17 0.500000 0.603818 0.920593
O O18 0.430890 0.750000 0.899018
O O19 0.250000 0.500000 0.581008
O O20 0.250000 0.356914 0.500000
O O21 0.164980 0.363568 0.592221
O O22 0.930301 0.750000 0.407449
#
# Coordination Sequence:
#
# PCOD9500303 Si02
#       8
#    16  16  16  16  16  16  16  16
#     4   8  13  21  33  51  79 108 134 168 204 245
#     4   9  18  28  39  59  80 101 137 181 218 249
#     4   8  13  21  36  58  75  94 131 166 199 246
#     4  10  17  28  47  61  77 107 140 175 212 254
#     4   8  13  20  33  54  75  94 125 167 199 241
#     4   8  13  20  30  48  76 110 140 166 204 249
#     4  11  21  29  40  62  88 106 134 179 219 254
#     4  10  17  27  44  60  80 109 140 172 213 264
#
# _framework density 21.911774999999999
#
# number of rings (size 3 to 8) (size 9 to 14) (size 15 to 20)
#    0.000    3.000    2.500    1.875    0.000    1.000 
#    0.000    2.500    0.000    2.250    0.000    5.250 
#    0.000    0.500    0.000    0.000    0.000    1.250 
#
# Total GULP energy -356668.881455 kJ/mol
# GULP energy per Si atom -5572.951273 kJ/mol
# Density = 2.186190 g / cm^3
# Si number density = 21.911775 Si / 1000 Ang^3
#
#
#
# Elastic Constant Matrix: (Units=GPa)
#
#
# Indices 1 2 3 4 5 6 
#
# 1 133.4017 -1.6716 83.3310 0.0000 0.0000 0.0000
# 2 -1.6716 78.1087 8.4977 0.0000 0.0000 0.0000
# 3 83.3310 8.4977 121.7229 0.0000 0.0000 0.0000
# 4 0.0000 0.0000 0.0000 -13.4589 0.0000 0.0000
# 5 0.0000 0.0000 0.0000 0.0000 -0.3665 0.0000
# 6 0.0000 0.0000 0.0000 0.0000 0.0000 -13.2533
#
#
#
# Elastic Compliance Matrix: (Units=1/GPa)
#
#
# Indices 1 2 3 4 5 6 
#
# 1 0.013222 0.001277 -0.009141 0.000000 0.000000 0.000000
# 2 0.001277 0.013024 -0.001784 0.000000 0.000000 0.000000
# 3 -0.009141 -0.001784 0.014598 0.000000 0.000000 0.000000
# 4 0.000000 0.000000 0.000000 -0.074300 0.000000 0.000000
# 5 0.000000 0.000000 0.000000 0.000000 -2.728790 0.000000
# 6 0.000000 0.000000 0.000000 0.000000 0.000000 -0.075453
#
#
# Mechanical properties :
#
#
# Convention : Reuss Voigt Hill
#
# Bulk Modulus (GPa) = 46.40504 57.06083 51.73293
# Shear Modulus (GPa) = -1.77859 10.78937 4.50539
#
# Velocity S-wave (km/s) = -0.90192 2.22142 1.43548
# Velocity P-wave (km/s) = 4.48770 5.71641 5.13891
#
# Compressibility (1/GPa) = 0.02154939
#
# Stress axis : x y z
#
# Youngs Moduli (GPa) = 75.63018 76.78087 68.50327
#
# Poissons Ratio (x) = -0.09808 0.62619
# Poissons Ratio (y) = -0.09661 0.12220
# Poissons Ratio (z) = 0.69134 0.13696
#
# Static dielectric constant tensor:
#      x y z
#    x 1.795590 0.000000 0.000000 
#    y 0.000000 1.833140 0.000000 
#    z 0.000000 0.000000 1.856220 
# 
# From -- ./inp_files/35651.got.cif
#   From: 2010.05.17/outbox.cif.g08.bks.cpg/sg67_18_cif.got.tgz:35651.got - 2010.06.03 18:28:57.
