data_PCOD9500549
_publ_section_title
;
Structure prediction by ZEFSAII (Michael W. Deem and Ramdas Pophale) SiO2 
 PCOD9500549
Probable space group: C M M A
;
_chemical_formula_sum "Si O2"
_cell_formula_units_Z 84
_cell_length_a 31.595526
_cell_length_b 7.486322
_cell_length_c 15.807725
_cell_angle_alpha 90.000000
_cell_angle_beta 90.000000
_cell_angle_gamma 90.000000
_cell_volume 3739.068873
_symmetry_space_group_name_H-M "C M M A"
_symmetry_group_IT_number 67
_symmetry_cell_setting 'orthorhombic'
loop_
_space_group_symop_operation_xyz
x,y,z
-x,1/2-y,z
x,-y,-z
-x,1/2+y,-z
-x,-y,-z
x,1/2+y,-z
-x,y,z
x,1/2-y,z
1/2+x,1/2+y,z
1/2-x,-y,z
1/2+x,1/2-y,-z
1/2-x,y,-z
1/2-x,1/2-y,-z
1/2+x,y,-z
1/2-x,1/2+y,z
1/2+x,-y,z
loop_
_atom_site_type_symbol
_atom_site_label
_atom_site_fract_x
_atom_site_fract_y
_atom_site_fract_z
Si Si1 0.500000 0.000000 0.500000
Si Si2 0.167177 0.536585 0.594898
Si Si3 0.633516 0.536269 0.095643
Si Si4 0.797679 0.463885 0.229943
Si Si5 0.952455 0.467668 0.173031
Si Si6 0.928024 0.032168 0.365049
O O1 0.536836 0.034366 0.429005
O O2 0.182304 0.500000 0.500000
O O3 0.165437 0.750000 0.601989
O O4 0.194206 0.468708 0.674441
O O5 0.118838 0.472893 0.608361
O O6 0.632030 0.750000 0.106324
O O7 0.666876 0.467477 0.164969
O O8 0.585893 0.470008 0.113820
O O9 0.646691 0.500000 0.000000
O O10 0.802510 0.250000 0.232260
O O11 0.750000 0.500000 0.202321
O O12 0.953586 0.250000 0.170258
O O13 0.939335 0.515611 0.268939
O O14 0.000000 0.529925 0.153436
O O15 0.930070 0.250000 0.369973
#
# Coordination Sequence:
#
# PCOD9500549 Si02
#       6
#     4  16  16  16  16  16
#     4  12  18  24  48  82 108 136 188 240 280 308
#     4  10  20  36  56  81 112 149 187 228 276 331
#     4  10  21  38  60  86 114 146 185 234 286 340
#     4  10  22  40  62  84 113 147 187 233 283 342
#     4   9  16  30  54  80 106 143 188 226 267 328
#     4  10  18  29  47  74 108 145 187 228 269 322
#
# _framework density 22.465485000000001
#
# number of rings (size 3 to 8) (size 9 to 14) (size 15 to 20)
#    0.000    2.095    3.810    0.286    0.000    2.667 
#    0.000    3.810    0.000    2.286    0.000    0.000 
#    0.000    0.000    0.000    0.000    0.000    0.000 
#
# Total GULP energy -234169.619280 kJ/mol
# GULP energy per Si atom -5575.467126 kJ/mol
# Density = 2.241435 g / cm^3
# Si number density = 22.465485 Si / 1000 Ang^3
#
#
#
# Elastic Constant Matrix: (Units=GPa)
#
#
# Indices 1 2 3 4 5 6 
#
# 1 115.2848 3.2628 66.9282 0.0000 0.0000 0.0000
# 2 3.2628 61.1314 2.4074 0.0000 0.0000 0.0000
# 3 66.9282 2.4074 133.7601 0.0000 0.0000 0.0000
# 4 0.0000 0.0000 0.0000 -6.9117 0.0000 0.0000
# 5 0.0000 0.0000 0.0000 0.0000 21.2170 0.0000
# 6 0.0000 0.0000 0.0000 0.0000 0.0000 15.1124
#
#
#
# Elastic Compliance Matrix: (Units=1/GPa)
#
#
# Indices 1 2 3 4 5 6 
#
# 1 0.012236 -0.000412 -0.006115 0.000000 0.000000 0.000000
# 2 -0.000412 0.016384 -0.000089 0.000000 0.000000 0.000000
# 3 -0.006115 -0.000089 0.010537 0.000000 0.000000 0.000000
# 4 0.000000 0.000000 0.000000 -0.144683 0.000000 0.000000
# 5 0.000000 0.000000 0.000000 0.000000 0.047132 0.000000
# 6 0.000000 0.000000 0.000000 0.000000 0.000000 0.066171
#
#
# Mechanical properties :
#
#
# Convention : Reuss Voigt Hill
#
# Bulk Modulus (GPa) = 38.57233 50.59703 44.58468
# Shear Modulus (GPa) = 168.63277 21.72208 95.17742
#
# Velocity S-wave (km/s) = 8.67329 3.11289 6.51598
# Velocity P-wave (km/s) = 10.84012 5.95744 8.74641
#
# Compressibility (1/GPa) = 0.02592532
#
# Stress axis : x y z
#
# Youngs Moduli (GPa) = 81.72725 61.03633 94.90076
#
# Poissons Ratio (x) = 0.02516 0.58031
# Poissons Ratio (y) = 0.03369 0.00841
# Poissons Ratio (z) = 0.49975 0.00541
#
# Static dielectric constant tensor:
#      x y z
#    x 1.793200 0.000000 0.000000 
#    y 0.000000 1.908650 0.000000 
#    z 0.000000 0.000000 1.799200 
# 
# From -- ./inp_files/23582.got.cif
#   From: 2010.05.17/outbox.cif.g08.bks.cpg/sg67_12_cif.got.tgz:23582.got - 2010.06.03 18:28:57.
