data_PCOD9500510
_publ_section_title
;
Structure prediction by ZEFSAII (Michael W. Deem and Ramdas Pophale) SiO2 
 PCOD9500510
Probable space group: C M M A
;
_chemical_formula_sum "Si O2"
_cell_formula_units_Z 120
_cell_length_a 14.191278
_cell_length_b 20.634551
_cell_length_c 20.816932
_cell_angle_alpha 90.000000
_cell_angle_beta 90.000000
_cell_angle_gamma 90.000000
_cell_volume 6095.835721
_symmetry_space_group_name_H-M "C M M A"
_symmetry_group_IT_number 67
_symmetry_cell_setting 'orthorhombic'
loop_
_space_group_symop_operation_xyz
x,y,z
-x,1/2-y,z
x,-y,-z
-x,1/2+y,-z
-x,-y,-z
x,1/2+y,-z
-x,y,z
x,1/2-y,z
1/2+x,1/2+y,z
1/2-x,-y,z
1/2+x,1/2-y,-z
1/2-x,y,-z
1/2-x,1/2-y,-z
1/2+x,y,-z
1/2-x,1/2+y,z
1/2+x,-y,z
loop_
_atom_site_type_symbol
_atom_site_label
_atom_site_fract_x
_atom_site_fract_y
_atom_site_fract_z
Si Si1 0.109440 0.091650 0.041307
Si Si2 0.613181 0.175237 0.463930
Si Si3 0.798643 0.328648 0.669088
Si Si4 0.393230 0.328639 0.605793
Si Si5 0.250000 0.500000 0.117756
Si Si6 0.895233 0.326593 0.166028
Si Si7 0.699393 0.880781 0.802559
Si Si8 0.386524 0.321528 0.074014
O O1 0.109340 0.151483 0.091700
O O2 0.000000 0.070071 0.035895
O O3 0.175776 0.038119 0.073163
O O4 0.143239 0.121139 0.973924
O O5 0.500000 0.175444 0.461861
O O6 0.646701 0.250000 0.464328
O O7 0.651564 0.149329 0.396881
O O8 0.637017 0.147681 0.534306
O O9 0.810023 0.250000 0.677613
O O10 0.688112 0.342537 0.656372
O O11 0.836252 0.365725 0.731516
O O12 0.500000 0.350439 0.620248
O O13 0.397238 0.250000 0.601218
O O14 0.305594 0.451146 0.165119
O O15 0.882795 0.250000 0.172533
O O16 0.810076 0.363157 0.199014
O O17 0.000000 0.343655 0.189754
O O18 0.652172 0.834162 0.855212
O O19 0.500000 0.322783 0.074396
O O20 0.356256 0.250000 0.051899
#
# Coordination Sequence:
#
# PCOD9500510 Si02
#       8
#    16  16  16  16   8  16  16  16
#     4   9  19  37  60  80  99 130 171 215 261 305
#     4   8  14  25  42  67 100 134 166 202 246 301
#     4  10  18  28  45  70 101 135 168 203 252 312
#     4   8  14  25  43  70 102 132 163 202 248 300
#     4  10  24  41  56  76 103 138 186 230 259 292
#     4   9  17  31  52  76 100 125 158 205 261 316
#     4  11  23  36  50  73 106 143 177 211 255 310
#     4  10  21  37  58  84 109 129 157 206 268 328
#
# _framework density 19.685569999999998
#
# number of rings (size 3 to 8) (size 9 to 14) (size 15 to 20)
#    0.000    2.667    0.000    2.800    0.000    8.000 
#    0.000    7.333    0.000    0.800    0.000    1.867 
#    0.000    2.133    0.000    0.000    0.000    0.000 
#
# Total GULP energy -334667.681286 kJ/mol
# GULP energy per Si atom -5577.794688 kJ/mol
# Density = 1.964076 g / cm^3
# Si number density = 19.685570 Si / 1000 Ang^3
#
#
#
# Elastic Constant Matrix: (Units=GPa)
#
#
# Indices 1 2 3 4 5 6 
#
# 1 38.6830 17.9833 27.5041 0.0000 0.0000 0.0000
# 2 17.9833 59.2495 30.0906 0.0000 0.0000 0.0000
# 3 27.5041 30.0906 127.7673 0.0000 0.0000 0.0000
# 4 0.0000 0.0000 0.0000 17.8958 0.0000 0.0000
# 5 0.0000 0.0000 0.0000 0.0000 13.0135 0.0000
# 6 0.0000 0.0000 0.0000 0.0000 0.0000 16.2343
#
#
#
# Elastic Compliance Matrix: (Units=1/GPa)
#
#
# Indices 1 2 3 4 5 6 
#
# 1 0.033086 -0.007298 -0.005404 0.000000 0.000000 0.000000
# 2 -0.007298 0.020780 -0.003323 0.000000 0.000000 0.000000
# 3 -0.005404 -0.003323 0.009773 0.000000 0.000000 0.000000
# 4 0.000000 0.000000 0.000000 0.055879 0.000000 0.000000
# 5 0.000000 0.000000 0.000000 0.000000 0.076843 0.000000
# 6 0.000000 0.000000 0.000000 0.000000 0.000000 0.061598
#
#
# Mechanical properties :
#
#
# Convention : Reuss Voigt Hill
#
# Bulk Modulus (GPa) = 31.65569 41.87286 36.76428
# Shear Modulus (GPa) = 16.63681 19.43683 18.03682
#
# Velocity S-wave (km/s) = 2.91026 3.14564 3.03024
# Velocity P-wave (km/s) = 5.23530 5.87456 5.56412
#
# Compressibility (1/GPa) = 0.03158989
#
# Stress axis : x y z
#
# Youngs Moduli (GPa) = 30.22433 48.12206 102.32742
#
# Poissons Ratio (x) = 0.35119 0.55293
# Poissons Ratio (y) = 0.22058 0.34004
# Poissons Ratio (z) = 0.16332 0.15991
#
# Static dielectric constant tensor:
#      x y z
#    x 1.732680 0.000000 0.000000 
#    y 0.000000 1.693920 0.000000 
#    z 0.000000 0.000000 1.728720 
# 
# From -- ./inp_files/38721.got.cif
#   From: 2010.05.17/outbox.cif.g08.bks.cpg/sg67_20_cif.got.tgz:38721.got - 2010.06.03 18:28:57.
