data_PCOD9500294
_publ_section_title
;
Structure prediction by ZEFSAII (Michael W. Deem and Ramdas Pophale) SiO2 
 PCOD9500294
Probable space group: C M M A
;
_chemical_formula_sum "Si O2"
_cell_formula_units_Z 56
_cell_length_a 19.792894
_cell_length_b 8.684845
_cell_length_c 20.247318
_cell_angle_alpha 90.000000
_cell_angle_beta 90.000000
_cell_angle_gamma 90.000000
_cell_volume 3480.477853
_symmetry_space_group_name_H-M "C M M A"
_symmetry_group_IT_number 67
_symmetry_cell_setting 'orthorhombic'
loop_
_space_group_symop_operation_xyz
x,y,z
-x,1/2-y,z
x,-y,-z
-x,1/2+y,-z
-x,-y,-z
x,1/2+y,-z
-x,y,z
x,1/2-y,z
1/2+x,1/2+y,z
1/2-x,-y,z
1/2+x,1/2-y,-z
1/2-x,y,-z
1/2-x,1/2-y,-z
1/2+x,y,-z
1/2-x,1/2+y,z
1/2+x,-y,z
loop_
_atom_site_type_symbol
_atom_site_label
_atom_site_fract_x
_atom_site_fract_y
_atom_site_fract_z
Si Si1 0.076032 0.569708 0.188776
Si Si2 0.674462 0.433194 0.704566
Si Si3 0.500000 0.933721 0.073281
Si Si4 0.826750 0.934152 0.432392
O O1 0.093335 0.750000 0.183742
O O2 0.128834 0.481662 0.233793
O O3 0.063397 0.497117 0.116373
O O4 0.000000 0.558605 0.218860
O O5 0.678356 0.250000 0.697335
O O6 0.750000 0.500000 0.713275
O O7 0.644531 0.506088 0.636997
O O8 0.500000 0.750000 0.072860
O O9 0.500000 0.000000 0.000000
O O10 0.825057 0.750000 0.434285
O O11 0.858142 0.000000 0.500000
O O12 0.750000 0.000000 0.431459
#
# Coordination Sequence:
#
# PCOD9500294 Si02
#       4
#    16  16   8  16
#     4   9  19  34  52  75 102 131 165 205 246 291
#     4  11  20  31  49  73 102 133 168 207 252 298
#     4  10  18  32  54  80 103 130 165 202 240 284
#     4  10  17  27  42  63  92 125 165 207 250 293
#
# _framework density 16.089745000000001
#
# number of rings (size 3 to 8) (size 9 to 14) (size 15 to 20)
#    0.857    1.143    0.000    9.429    0.000    0.000 
#    0.000    0.000    0.000    1.714    0.000    6.000 
#    0.000    0.000    0.000    0.000    0.000    0.000 
#
# Total GULP energy -155881.998522 kJ/mol
# GULP energy per Si atom -5567.214233 kJ/mol
# Density = 1.605312 g / cm^3
# Si number density = 16.089745 Si / 1000 Ang^3
#
#
#
# Elastic Constant Matrix: (Units=GPa)
#
#
# Indices 1 2 3 4 5 6 
#
# 1 30.9888 29.8680 40.1712 0.0000 0.0000 0.0000
# 2 29.8680 181.6955 66.7532 0.0000 0.0000 0.0000
# 3 40.1712 66.7532 154.2217 0.0000 0.0000 0.0000
# 4 0.0000 0.0000 0.0000 -21.5160 0.0000 0.0000
# 5 0.0000 0.0000 0.0000 0.0000 35.4890 0.0000
# 6 0.0000 0.0000 0.0000 0.0000 0.0000 20.2372
#
#
#
# Elastic Compliance Matrix: (Units=1/GPa)
#
#
# Indices 1 2 3 4 5 6 
#
# 1 0.051267 -0.004187 -0.011541 0.000000 0.000000 0.000000
# 2 -0.004187 0.006886 -0.001890 0.000000 0.000000 0.000000
# 3 -0.011541 -0.001890 0.010309 0.000000 0.000000 0.000000
# 4 0.000000 0.000000 0.000000 -0.046477 0.000000 0.000000
# 5 0.000000 0.000000 0.000000 0.000000 0.028178 0.000000
# 6 0.000000 0.000000 0.000000 0.000000 0.000000 0.049414
#
#
# Mechanical properties :
#
#
# Convention : Reuss Voigt Hill
#
# Bulk Modulus (GPa) = 30.09836 71.16565 50.63201
# Shear Modulus (GPa) = 34.27262 22.18292 28.22777
#
# Velocity S-wave (km/s) = 4.62030 3.71711 4.19309
# Velocity P-wave (km/s) = 6.87096 7.92143 7.41482
#
# Compressibility (1/GPa) = 0.03322440
#
# Stress axis : x y z
#
# Youngs Moduli (GPa) = 19.50573 145.21334 97.00706
#
# Poissons Ratio (x) = 0.60805 1.11960
# Poissons Ratio (y) = 0.08168 0.18335
# Poissons Ratio (z) = 0.22512 0.27446
#
# Static dielectric constant tensor:
#      x y z
#    x 1.532630 0.000000 0.000000 
#    y 0.000000 1.533540 0.000000 
#    z 0.000000 0.000000 1.570230 
# 
# From -- ./inp_files/39202.got.cif
#   From: 2010.05.17/outbox.cif.g08.bks.cpg/sg67_20_cif.got.tgz:39202.got - 2010.06.03 18:28:57.
