data_PCOD9500737
_publ_section_title
;
Structure prediction by ZEFSAII (Michael W. Deem and Ramdas Pophale) SiO2 
 PCOD9500737
Probable space group: C M M A
;
_chemical_formula_sum "Si O2"
_cell_formula_units_Z 88
_cell_length_a 24.212503
_cell_length_b 19.967803
_cell_length_c 9.668924
_cell_angle_alpha 90.000000
_cell_angle_beta 90.000000
_cell_angle_gamma 90.000000
_cell_volume 4674.639424
_symmetry_space_group_name_H-M "C M M A"
_symmetry_group_IT_number 67
_symmetry_cell_setting 'orthorhombic'
loop_
_space_group_symop_operation_xyz
x,y,z
-x,1/2-y,z
x,-y,-z
-x,1/2+y,-z
-x,-y,-z
x,1/2+y,-z
-x,y,z
x,1/2-y,z
1/2+x,1/2+y,z
1/2-x,-y,z
1/2+x,1/2-y,-z
1/2-x,y,-z
1/2-x,1/2-y,-z
1/2+x,y,-z
1/2-x,1/2+y,z
1/2+x,-y,z
loop_
_atom_site_type_symbol
_atom_site_label
_atom_site_fract_x
_atom_site_fract_y
_atom_site_fract_z
Si Si1 0.379987 0.882722 0.872516
Si Si2 0.611456 0.510206 0.646990
Si Si3 0.000000 0.826788 0.719181
Si Si4 0.000000 0.171386 0.822837
Si Si5 0.316096 0.750000 0.851867
Si Si6 0.500000 0.091422 0.437349
Si Si7 0.384678 0.373056 0.811934
Si Si8 0.190612 0.750000 0.811762
O O1 0.365914 0.941846 0.767342
O O2 0.445083 0.865753 0.873046
O O3 0.349574 0.816557 0.818078
O O4 0.366858 0.894742 0.033534
O O5 0.641530 0.500000 0.500000
O O6 0.553556 0.547198 0.604139
O O7 0.608668 0.437527 0.715933
O O8 0.000000 0.880236 0.592771
O O9 0.055097 0.838474 0.808447
O O10 0.000000 0.750000 0.668715
O O11 0.000000 0.250000 0.856546
O O12 0.000000 0.157275 0.658638
O O13 0.255699 0.750000 0.785321
O O14 0.313253 0.750000 0.020019
O O15 0.341198 0.316644 0.763104
#
# Coordination Sequence:
#
# PCOD9500737 Si02
#       8
#    16  16   8   8   8   8  16   8
#     4  10  21  34  59  88 114 149 181 240 288 338
#     4  11  21  37  56  79 117 156 193 225 274 345
#     4  12  21  33  56  89 122 157 184 239 284 343
#     4  10  18  31  52  86 115 142 182 228 270 347
#     4   9  18  39  62  83 116 143 190 234 301 344
#     4  10  21  35  50  80 119 163 193 208 280 338
#     4  11  21  35  56  87 117 144 192 235 288 336
#     4   9  20  37  60  87 110 149 186 246 287 348
#
# _framework density 18.82498
#
# number of rings (size 3 to 8) (size 9 to 14) (size 15 to 20)
#    0.000    1.636    3.636    2.182    0.000    0.727 
#    0.000    5.455    0.000    7.636    0.000    0.000 
#    0.000    0.000    0.000    0.000    0.000    0.000 
#
# Total GULP energy -245220.738273 kJ/mol
# GULP energy per Si atom -5573.198597 kJ/mol
# Density = 1.878213 g / cm^3
# Si number density = 18.824980 Si / 1000 Ang^3
#
#
#
# Elastic Constant Matrix: (Units=GPa)
#
#
# Indices 1 2 3 4 5 6 
#
# 1 79.1025 32.6784 2.7191 0.0000 0.0000 0.0000
# 2 32.6784 138.9294 46.4599 0.0000 0.0000 0.0000
# 3 2.7191 46.4599 87.9397 0.0000 0.0000 0.0000
# 4 0.0000 0.0000 0.0000 29.3702 0.0000 0.0000
# 5 0.0000 0.0000 0.0000 0.0000 3.4679 0.0000
# 6 0.0000 0.0000 0.0000 0.0000 0.0000 -9.1507
#
#
#
# Elastic Compliance Matrix: (Units=1/GPa)
#
#
# Indices 1 2 3 4 5 6 
#
# 1 0.014187 -0.003875 0.001609 0.000000 0.000000 0.000000
# 2 -0.003875 0.009801 -0.005058 0.000000 0.000000 0.000000
# 3 0.001609 -0.005058 0.013994 0.000000 0.000000 0.000000
# 4 0.000000 0.000000 0.000000 0.034048 0.000000 0.000000
# 5 0.000000 0.000000 0.000000 0.000000 0.288362 0.000000
# 6 0.000000 0.000000 0.000000 0.000000 0.000000 -0.109281
#
#
# Mechanical properties :
#
#
# Convention : Reuss Voigt Hill
#
# Bulk Modulus (GPa) = 42.85773 52.18739 47.52256
# Shear Modulus (GPa) = 18.27900 19.67841 18.97871
#
# Velocity S-wave (km/s) = 3.11946 3.23667 3.17861
# Velocity P-wave (km/s) = 5.98252 6.46147 6.22661
#
# Compressibility (1/GPa) = 0.02333301
#
# Stress axis : x y z
#
# Youngs Moduli (GPa) = 70.48533 102.03172 71.45926
#
# Poissons Ratio (x) = 0.39537 -0.11495
# Poissons Ratio (y) = 0.27313 0.36145
# Poissons Ratio (z) = -0.11338 0.51609
#
# Static dielectric constant tensor:
#      x y z
#    x 1.648930 0.000000 0.000000 
#    y 0.000000 1.649040 0.000000 
#    z 0.000000 0.000000 1.685750 
# 
# From -- ./inp_files/12522.got.cif
#   From: 2010.05.17/outbox.cif.g08.bks.cpg/sg67_7_cif.got.tgz:12522.got - 2010.06.03 18:28:57.
