data_PCOD9500116
_publ_section_title
;
Structure prediction by ZEFSAII (Michael W. Deem and Ramdas Pophale) SiO2 
 PCOD9500116
Probable space group: C C C M
;
_chemical_formula_sum "Si O2"
_cell_formula_units_Z 48
_cell_length_a 24.000000
_cell_length_b 24.000000
_cell_length_c 9.000000
_cell_angle_alpha 90.000000
_cell_angle_beta 90.000000
_cell_angle_gamma 90.000000
_cell_volume 5184.000000
_symmetry_space_group_name_H-M "C C C M"
_symmetry_group_IT_number 66
_symmetry_cell_setting 'orthorhombic'
loop_
_space_group_symop_operation_xyz
x,y,z
-x,-y,z
x,-y,1/2-z
-x,y,1/2-z
-x,-y,-z
x,y,-z
-x,y,1/2+z
x,-y,1/2+z
1/2+x,1/2+y,z
1/2-x,1/2-y,z
1/2+x,1/2-y,1/2-z
1/2-x,1/2+y,1/2-z
1/2-x,1/2-y,-z
1/2+x,1/2+y,-z
1/2-x,1/2+y,1/2+z
1/2+x,1/2-y,1/2+z
loop_
_atom_site_type_symbol
_atom_site_label
_atom_site_fract_x
_atom_site_fract_y
_atom_site_fract_z
Si Si1 0.142300 0.647206 0.824576
Si Si2 0.646992 0.265969 0.323113
Si Si3 0.273027 0.346462 0.324179
Si Si4 0.059289 0.151514 0.324468
Si Si5 0.643778 0.558412 0.326467
Si Si6 0.059096 0.560869 0.320757
O O1 0.133741 0.707927 0.755477
O O2 0.208637 0.639226 0.809775
O O3 0.106714 0.602511 0.734330
O O4 0.128127 0.645330 0.000000
O O5 0.647278 0.260690 0.500000
O O6 0.704420 0.293411 0.264814
O O7 0.600301 0.308096 0.263997
O O8 0.285081 0.336353 0.500000
O O9 0.309283 0.398861 0.271247
O O10 0.058771 0.165426 0.500000
O O11 0.085442 0.090148 0.309544
O O12 0.000000 0.154834 0.250000
O O13 0.645012 0.500000 0.250000
O O14 0.654525 0.550683 0.500000
O O15 0.069696 0.500000 0.250000
O O16 0.055665 0.557844 0.500000
O O17 0.000000 0.579427 0.250000
#
# Coordination Sequence:
#
# PCOD9500116 Si02
#       6
#    16  16  16  16  16  16
#     4  11  22  38  61  87 115 150 190 230 277 334
#     4  11  22  36  56  84 116 149 187 232 282 335
#     4   9  20  38  57  80 114 153 188 229 282 333
#     4  10  21  38  57  79 109 146 188 233 283 335
#     4   9  19  35  54  78 109 145 185 228 275 326
#     4  11  23  42  64  87 116 149 187 231 282 335
#
# _framework density 9.2592590000000001
#
# number of rings (size 3 to 8) (size 9 to 14) (size 15 to 20)
#    0.000    1.833    0.000    6.000    0.000    8.333 
#    0.000    6.667    0.000    0.000    0.000    0.000 
#    0.000    0.000    0.000    0.000    0.000    0.000 
#
# Total GULP energy -267903.462830 kJ/mol
# GULP energy per Si atom -5581.322142 kJ/mol
# Density = 0.923818 g / cm^3
# Si number density = 9.259259 Si / 1000 Ang^3
#
#
#
# Elastic Constant Matrix: (Units=GPa)
#
#
# Indices 1 2 3 4 5 6 
#
# 1 84.0785 50.1120 67.8636 0.0000 0.0000 0.0000
# 2 50.1120 78.8002 52.4985 0.0000 0.0000 0.0000
# 3 67.8636 52.4985 122.3660 0.0000 0.0000 0.0000
# 4 0.0000 0.0000 0.0000 30.4787 0.0000 0.0000
# 5 0.0000 0.0000 0.0000 0.0000 26.5048 0.0000
# 6 0.0000 0.0000 0.0000 0.0000 0.0000 10.0229
#
#
#
# Elastic Compliance Matrix: (Units=1/GPa)
#
#
# Indices 1 2 3 4 5 6 
#
# 1 0.025901 -0.009664 -0.010219 0.000000 0.000000 0.000000
# 2 -0.009664 0.021375 -0.003811 0.000000 0.000000 0.000000
# 3 -0.010219 -0.003811 0.015475 0.000000 0.000000 0.000000
# 4 0.000000 0.000000 0.000000 0.032810 0.000000 0.000000
# 5 0.000000 0.000000 0.000000 0.000000 0.037729 0.000000
# 6 0.000000 0.000000 0.000000 0.000000 0.000000 0.099772
#
#
# Mechanical properties :
#
#
# Convention : Reuss Voigt Hill
#
# Bulk Modulus (GPa) = 65.08800 69.57697 67.33249
# Shear Modulus (GPa) = 17.50888 21.05266 19.28077
#
# Velocity S-wave (km/s) = 3.07820 3.37537 3.23020
# Velocity P-wave (km/s) = 6.91792 7.26938 7.09583
#
# Compressibility (1/GPa) = 0.01536382
#
# Stress axis : x y z
#
# Youngs Moduli (GPa) = 38.60799 46.78423 64.62242
#
# Poissons Ratio (x) = 0.45211 0.66036
# Poissons Ratio (y) = 0.37309 0.24627
# Poissons Ratio (z) = 0.39453 0.17829
#
# Static dielectric constant tensor:
#      x y z
#    x 0.504020 0.000000 0.000000 
#    y 0.000000 1.636290 0.000000 
#    z 0.000000 0.000000 1.616690 
# 
# From -- ./inp_files/8037.got.cif
#   From: 2010.05.17/outbox.ucp.g08.bks.cvg/sg66_5_cif.got.tgz:8037.got - 2010.06.11 16:44:13.
