data_PCOD9500712
_publ_section_title
;
Structure prediction by ZEFSAII (Michael W. Deem and Ramdas Pophale) SiO2 
 PCOD9500712
Probable space group: C M M A
;
_chemical_formula_sum "Si O2"
_cell_formula_units_Z 96
_cell_length_a 10.986593
_cell_length_b 25.115709
_cell_length_c 18.457574
_cell_angle_alpha 90.000000
_cell_angle_beta 90.000000
_cell_angle_gamma 90.000000
_cell_volume 5093.110481
_symmetry_space_group_name_H-M "C M M A"
_symmetry_group_IT_number 67
_symmetry_cell_setting 'orthorhombic'
loop_
_space_group_symop_operation_xyz
x,y,z
-x,1/2-y,z
x,-y,-z
-x,1/2+y,-z
-x,-y,-z
x,1/2+y,-z
-x,y,z
x,1/2-y,z
1/2+x,1/2+y,z
1/2-x,-y,z
1/2+x,1/2-y,-z
1/2-x,y,-z
1/2-x,1/2-y,-z
1/2+x,y,-z
1/2-x,1/2+y,z
1/2+x,-y,z
loop_
_atom_site_type_symbol
_atom_site_label
_atom_site_fract_x
_atom_site_fract_y
_atom_site_fract_z
Si Si1 0.634165 0.058348 0.961898
Si Si2 0.252923 0.188808 0.856854
Si Si3 0.861450 0.537916 0.790328
Si Si4 0.639549 0.653268 0.282274
Si Si5 0.500000 0.311705 0.924043
Si Si6 0.140658 0.185711 0.445795
Si Si7 0.000000 0.188454 0.903958
O O1 0.500000 0.082621 0.974346
O O2 0.651371 0.049367 0.876360
O O3 0.750000 0.085296 0.000000
O O4 0.628029 0.000000 0.000000
O O5 0.246500 0.250000 0.883413
O O6 0.274429 0.185947 0.771346
O O7 0.374384 0.165021 0.893081
O O8 0.125186 0.162715 0.877305
O O9 0.750000 0.500000 0.769476
O O10 0.852797 0.592625 0.745357
O O11 0.000000 0.516664 0.780149
O O12 0.500000 0.671584 0.270022
O O13 0.664196 0.661091 0.366617
O O14 0.500000 0.250000 0.896586
O O15 0.500000 0.308350 0.009915
O O16 0.143904 0.250000 0.438879
O O17 0.250000 0.170331 0.500000
O O18 0.000000 0.171939 0.467445
O O19 0.000000 0.250000 0.875344
#
# Coordination Sequence:
#
# PCOD9500712 Si02
#       7
#    16  16  16  16   8  16   8
#     4   9  15  26  48  69  90 127 171 222 278 324
#     4  10  18  31  51  72 101 138 177 219 268 319
#     4  10  20  35  54  74 103 140 182 228 277 322
#     4  10  20  35  56  80 109 140 182 221 263 330
#     4   9  16  28  50  66  88 140 190 219 256 316
#     4   9  18  35  60  89 118 146 175 210 260 324
#     4   9  18  30  44  68 100 138 178 223 270 306
#
# _framework density 18.848991999999999
#
# number of rings (size 3 to 8) (size 9 to 14) (size 15 to 20)
#    0.000    2.500    2.500    1.000    0.000    2.667 
#    3.000    1.667    0.000    0.500    0.000    3.500 
#    0.000    0.000    0.000    0.000    0.000    0.000 
#
# Total GULP energy -267830.452580 kJ/mol
# GULP energy per Si atom -5579.801095 kJ/mol
# Density = 1.880609 g / cm^3
# Si number density = 18.848992 Si / 1000 Ang^3
#
#
#
# Elastic Constant Matrix: (Units=GPa)
#
#
# Indices 1 2 3 4 5 6 
#
# 1 194.8042 25.1637 75.8733 0.0000 0.0000 0.0000
# 2 25.1637 39.7075 11.7310 0.0000 0.0000 0.0000
# 3 75.8733 11.7310 113.4366 0.0000 0.0000 0.0000
# 4 0.0000 0.0000 0.0000 24.0747 0.0000 0.0000
# 5 0.0000 0.0000 0.0000 0.0000 22.9064 0.0000
# 6 0.0000 0.0000 0.0000 0.0000 0.0000 19.7860
#
#
#
# Elastic Compliance Matrix: (Units=1/GPa)
#
#
# Indices 1 2 3 4 5 6 
#
# 1 0.007339 -0.003301 -0.004567 0.000000 0.000000 0.000000
# 2 -0.003301 0.027463 -0.000632 0.000000 0.000000 0.000000
# 3 -0.004567 -0.000632 0.011936 0.000000 0.000000 0.000000
# 4 0.000000 0.000000 0.000000 0.041537 0.000000 0.000000
# 5 0.000000 0.000000 0.000000 0.000000 0.043656 0.000000
# 6 0.000000 0.000000 0.000000 0.000000 0.000000 0.050541
#
#
# Mechanical properties :
#
#
# Convention : Reuss Voigt Hill
#
# Bulk Modulus (GPa) = 33.62878 63.72047 48.67462
# Shear Modulus (GPa) = 23.87954 29.03211 26.45583
#
# Velocity S-wave (km/s) = 3.56320 3.92886 3.75049
# Velocity P-wave (km/s) = 5.89986 7.37973 6.68090
#
# Compressibility (1/GPa) = 0.02973644
#
# Stress axis : x y z
#
# Youngs Moduli (GPa) = 136.26506 36.41262 83.78295
#
# Poissons Ratio (x) = 0.12021 0.38265
# Poissons Ratio (y) = 0.44987 0.05294
# Poissons Ratio (z) = 0.62234 0.02301
#
# Static dielectric constant tensor:
#      x y z
#    x 1.735330 0.000000 0.000000 
#    y 0.000000 1.721720 0.000000 
#    z 0.000000 0.000000 1.616950 
# 
# From -- ./inp_files/26397.got.cif
#   From: 2010.05.17/outbox.cif.g08.bks.cpg/sg67_14_cif.got.tgz:26397.got - 2010.06.03 18:28:57.
