data_PCOD9500358
_publ_section_title
;
Structure prediction by ZEFSAII (Michael W. Deem and Ramdas Pophale) SiO2 
 PCOD9500358
Probable space group: C M M A
;
_chemical_formula_sum "Si O2"
_cell_formula_units_Z 80
_cell_length_a 14.989328
_cell_length_b 8.816266
_cell_length_c 27.581675
_cell_angle_alpha 90.000000
_cell_angle_beta 90.000000
_cell_angle_gamma 90.000000
_cell_volume 3644.915671
_symmetry_space_group_name_H-M "C M M A"
_symmetry_group_IT_number 67
_symmetry_cell_setting 'orthorhombic'
loop_
_space_group_symop_operation_xyz
x,y,z
-x,1/2-y,z
x,-y,-z
-x,1/2+y,-z
-x,-y,-z
x,1/2+y,-z
-x,y,z
x,1/2-y,z
1/2+x,1/2+y,z
1/2-x,-y,z
1/2+x,1/2-y,-z
1/2-x,y,-z
1/2-x,1/2-y,-z
1/2+x,y,-z
1/2-x,1/2+y,z
1/2+x,-y,z
loop_
_atom_site_type_symbol
_atom_site_label
_atom_site_fract_x
_atom_site_fract_y
_atom_site_fract_z
Si Si1 0.390917 0.425266 0.050069
Si Si2 0.894253 0.431843 0.149550
Si Si3 0.605638 0.421257 0.745798
Si Si4 0.851295 0.432201 0.450635
Si Si5 0.348506 0.429748 0.353264
O O1 0.500000 0.436876 0.049839
O O2 0.367122 0.250000 0.050238
O O3 0.357768 0.500517 0.099820
O O4 0.360322 0.500000 0.000000
O O5 0.886440 0.250000 0.148465
O O6 0.858589 0.480925 0.202464
O O7 0.000000 0.470043 0.148697
O O8 0.500000 0.404610 0.753289
O O9 0.641627 0.250000 0.735891
O O10 0.615183 0.526235 0.699260
O O11 0.891828 0.500000 0.500000
O O12 0.848901 0.250000 0.452213
O O13 0.750000 0.500000 0.449997
O O14 0.892551 0.490777 0.400187
O O15 0.347523 0.250000 0.360654
O O16 0.250000 0.500000 0.351547
#
# Coordination Sequence:
#
# PCOD9500358 Si02
#       5
#    16  16  16  16  16
#     4   9  15  21  31  49  75 107 143 183 226 271
#     4   8  14  25  40  57  80 112 148 184 225 275
#     4   9  18  33  51  70  95 128 162 196 238 287
#     4  10  17  28  46  69  96 123 154 191 235 282
#     4  11  21  33  50  73 100 128 161 199 238 279
#
# _framework density 21.948381999999999
#
# number of rings (size 3 to 8) (size 9 to 14) (size 15 to 20)
#    0.000    2.600    0.000    7.200    0.000    3.600 
#    0.000    2.000    0.000    0.600    0.000    0.000 
#    0.000    0.800    0.000    8.400    0.000   11.600 
#
# Total GULP energy -223089.820845 kJ/mol
# GULP energy per Si atom -5577.245521 kJ/mol
# Density = 2.189843 g / cm^3
# Si number density = 21.948382 Si / 1000 Ang^3
#
#
#
# Elastic Constant Matrix: (Units=GPa)
#
#
# Indices 1 2 3 4 5 6 
#
# 1 42.5135 10.7059 16.4141 0.0000 0.0000 0.0000
# 2 10.7059 124.0284 95.3853 0.0000 0.0000 0.0000
# 3 16.4141 95.3853 255.6738 0.0000 0.0000 0.0000
# 4 0.0000 0.0000 0.0000 38.4186 0.0000 0.0000
# 5 0.0000 0.0000 0.0000 0.0000 109.3891 0.0000
# 6 0.0000 0.0000 0.0000 0.0000 0.0000 3.9117
#
#
#
# Elastic Compliance Matrix: (Units=1/GPa)
#
#
# Indices 1 2 3 4 5 6 
#
# 1 0.024259 -0.001257 -0.001089 0.000000 0.000000 0.000000
# 2 -0.001257 0.011372 -0.004162 0.000000 0.000000 0.000000
# 3 -0.001089 -0.004162 0.005534 0.000000 0.000000 0.000000
# 4 0.000000 0.000000 0.000000 0.026029 0.000000 0.000000
# 5 0.000000 0.000000 0.000000 0.000000 0.009142 0.000000
# 6 0.000000 0.000000 0.000000 0.000000 0.000000 0.255641
#
#
# Mechanical properties :
#
#
# Convention : Reuss Voigt Hill
#
# Bulk Modulus (GPa) = 35.52400 74.13626 54.83013
# Shear Modulus (GPa) = 14.10938 50.32457 32.21697
#
# Velocity S-wave (km/s) = 2.53819 4.79358 3.83541
# Velocity P-wave (km/s) = 4.98099 8.03049 6.68203
#
# Compressibility (1/GPa) = 0.02814999
#
# Stress axis : x y z
#
# Youngs Moduli (GPa) = 41.22230 87.93619 180.70764
#
# Poissons Ratio (x) = 0.11052 0.19670
# Poissons Ratio (y) = 0.05181 0.75208
# Poissons Ratio (z) = 0.04487 0.36598
#
# Static dielectric constant tensor:
#      x y z
#    x 1.894480 0.000000 0.000000 
#    y 0.000000 1.746600 0.000000 
#    z 0.000000 0.000000 1.898190 
# 
# From -- ./inp_files/43261.got.cif
#   From: 2010.05.17/outbox.cif.g08.bks.cpg/sg67_22_cif.got.tgz:43261.got - 2010.06.03 18:28:57.
