data_PCOD9500060
_publ_section_title
;
Structure prediction by ZEFSAII (Michael W. Deem and Ramdas Pophale) SiO2 
 PCOD9500060
Probable space group: C C C M
;
_chemical_formula_sum "Si O2"
_cell_formula_units_Z 58
_cell_length_a 27.000000
_cell_length_b 24.000000
_cell_length_c 9.000000
_cell_angle_alpha 90.000000
_cell_angle_beta 90.000000
_cell_angle_gamma 90.000000
_cell_volume 5832.000000
_symmetry_space_group_name_H-M "C C C M"
_symmetry_group_IT_number 66
_symmetry_cell_setting 'orthorhombic'
loop_
_space_group_symop_operation_xyz
x,y,z
-x,-y,z
x,-y,1/2-z
-x,y,1/2-z
-x,-y,-z
x,y,-z
-x,y,1/2+z
x,-y,1/2+z
1/2+x,1/2+y,z
1/2-x,1/2-y,z
1/2+x,1/2-y,1/2-z
1/2-x,1/2+y,1/2-z
1/2-x,1/2-y,-z
1/2+x,1/2+y,-z
1/2-x,1/2+y,1/2+z
1/2+x,1/2-y,1/2+z
loop_
_atom_site_type_symbol
_atom_site_label
_atom_site_fract_x
_atom_site_fract_y
_atom_site_fract_z
Si Si1 0.567679 0.096988 0.331965
Si Si2 0.820822 0.271326 0.678694
Si Si3 0.500000 0.000000 0.750000
Si Si4 0.330689 0.052213 0.833504
Si Si5 0.920987 0.298127 0.176343
Si Si6 0.244280 0.140265 0.831702
Si Si7 0.655949 0.347407 0.823863
Si Si8 0.549174 0.672794 0.322799
O O1 0.574956 0.118860 0.500000
O O2 0.533543 0.043147 0.338561
O O3 0.619011 0.074606 0.263698
O O4 0.550634 0.147229 0.227585
O O5 0.820828 0.270531 0.500000
O O6 0.868867 0.302743 0.739436
O O7 0.771876 0.304313 0.725990
O O8 0.828772 0.210623 0.746823
O O9 0.289604 0.098563 0.839407
O O10 0.310007 0.000000 0.750000
O O11 0.344794 0.035497 0.000000
O O12 0.943532 0.238098 0.219859
O O13 0.914014 0.296733 0.000000
O O14 0.200294 0.115209 0.734223
O O15 0.226255 0.150251 0.000000
O O16 0.599645 0.358493 0.779312
O O17 0.656983 0.341042 0.000000
O O18 0.500000 0.650401 0.250000
O O19 0.544583 0.671221 0.500000
#
# Coordination Sequence:
#
# PCOD9500060 Si02
#       8
#    16  16   4  16  16  16  16  16
#     4  11  23  40  56  72  97 131 172 227 283 326
#     4  10  18  32  52  75 104 138 171 209 258 313
#     4  12  26  40  56  78  94 128 184 238 288 328
#     4  10  21  39  57  76 101 132 174 220 270 325
#     4  10  21  35  52  75 100 130 173 220 264 316
#     4  10  20  34  52  75 102 136 173 210 258 320
#     4  10  21  34  49  77 110 135 170 215 255 306
#     4   9  20  36  51  73 103 136 171 208 249 299
#
# _framework density 9.9451300000000007
#
# number of rings (size 3 to 8) (size 9 to 14) (size 15 to 20)
#    0.000    1.931    2.069    2.690    0.966    8.276 
#    0.000    0.000    0.000    0.000    0.000    0.000 
#    0.000    0.552    0.000    6.069    0.000    4.414 
#
# Total GULP energy -322913.807337 kJ/mol
# GULP energy per Si atom -5567.479437 kJ/mol
# Density = 0.992249 g / cm^3
# Si number density = 9.945130 Si / 1000 Ang^3
#
#
#
# Elastic Constant Matrix: (Units=GPa)
#
#
# Indices 1 2 3 4 5 6 
#
# 1 155.5276 3.8867 40.1119 0.0000 0.0000 0.0000
# 2 3.8867 23.2397 -0.8088 0.0000 0.0000 0.0000
# 3 40.1119 -0.8088 25.9930 0.0000 0.0000 0.0000
# 4 0.0000 0.0000 0.0000 9.4661 0.0000 0.0000
# 5 0.0000 0.0000 0.0000 0.0000 -71.6752 0.0000
# 6 0.0000 0.0000 0.0000 0.0000 0.0000 14.1267
#
#
#
# Elastic Compliance Matrix: (Units=1/GPa)
#
#
# Indices 1 2 3 4 5 6 
#
# 1 0.010812 -0.002391 -0.016759 0.000000 0.000000 0.000000
# 2 -0.002391 0.043605 0.005047 0.000000 0.000000 0.000000
# 3 -0.016759 0.005047 0.064491 0.000000 0.000000 0.000000
# 4 0.000000 0.000000 0.000000 0.105640 0.000000 0.000000
# 5 0.000000 0.000000 0.000000 0.000000 -0.013952 0.000000
# 6 0.000000 0.000000 0.000000 0.000000 0.000000 0.070788
#
#
# Mechanical properties :
#
#
# Convention : Reuss Voigt Hill
#
# Bulk Modulus (GPa) = 11.02510 32.34887 21.68698
# Shear Modulus (GPa) = 14.71350 1.15490 7.93420
#
# Velocity S-wave (km/s) = 2.72276 0.76282 1.99941
# Velocity P-wave (km/s) = 3.92932 4.13217 4.03202
#
# Compressibility (1/GPa) = 0.09070215
#
# Stress axis : x y z
#
# Youngs Moduli (GPa) = 92.49188 22.93291 15.50606
#
# Poissons Ratio (x) = 0.05484 0.25986
# Poissons Ratio (y) = 0.22119 -0.07827
# Poissons Ratio (z) = 1.55006 -0.11575
#
# Static dielectric constant tensor:
#      x y z
#    x 1.907180 0.000000 0.000000 
#    y 0.000000 1.811430 0.000000 
#    z 0.000000 0.000000 1.664930 
# 
# From -- ./inp_files/9618.got.cif
#   From: 2010.05.17/outbox.ucp.g08.bks.cvg/sg66_5_cif.got.tgz:9618.got - 2010.06.11 16:44:13.
