data_PCOD9500069
_publ_section_title
;
Structure prediction by ZEFSAII (Michael W. Deem and Ramdas Pophale) SiO2 
 PCOD9500069
Probable space group: C C C M
;
_chemical_formula_sum "Si O2"
_cell_formula_units_Z 48
_cell_length_a 21.000000
_cell_length_b 27.000000
_cell_length_c 9.000000
_cell_angle_alpha 90.000000
_cell_angle_beta 90.000000
_cell_angle_gamma 90.000000
_cell_volume 5103.000000
_symmetry_space_group_name_H-M "C C C M"
_symmetry_group_IT_number 66
_symmetry_cell_setting 'orthorhombic'
loop_
_space_group_symop_operation_xyz
x,y,z
-x,-y,z
x,-y,1/2-z
-x,y,1/2-z
-x,-y,-z
x,y,-z
-x,y,1/2+z
x,-y,1/2+z
1/2+x,1/2+y,z
1/2-x,1/2-y,z
1/2+x,1/2-y,1/2-z
1/2-x,1/2+y,1/2-z
1/2-x,1/2-y,-z
1/2+x,1/2+y,-z
1/2-x,1/2+y,1/2+z
1/2+x,1/2-y,1/2+z
loop_
_atom_site_type_symbol
_atom_site_label
_atom_site_fract_x
_atom_site_fract_y
_atom_site_fract_z
Si Si1 0.807570 0.889512 0.825323
Si Si2 0.933617 0.385706 0.678961
Si Si3 0.310913 0.054956 0.681805
Si Si4 0.710500 0.799351 0.160843
Si Si5 0.069467 0.834626 0.819412
Si Si6 0.591224 0.782804 0.671938
O O1 0.760289 0.927731 0.737896
O O2 0.760714 0.842657 0.827399
O O3 0.873459 0.868960 0.749806
O O4 0.818620 0.904167 0.000000
O O5 0.933174 0.391950 0.500000
O O6 0.869103 0.410657 0.750547
O O7 0.934541 0.327278 0.724973
O O8 0.000000 0.406304 0.750000
O O9 0.313576 0.055746 0.500000
O O10 0.321102 0.000000 0.750000
O O11 0.750000 0.750000 0.151181
O O12 0.665753 0.793005 0.301837
O O13 0.675643 0.805484 0.000000
O O14 0.079369 0.775083 0.786452
O O15 0.000000 0.847492 0.750000
O O16 0.069486 0.839472 0.000000
O O17 0.572216 0.789603 0.500000
#
# Coordination Sequence:
#
# PCOD9500069 Si02
#       6
#    16  16  16  16  16  16
#     4  11  22  39  64  92 123 162 205 256 314 371
#     4  12  25  42  63  90 126 168 212 257 308 363
#     4  12  26  46  70  96 123 155 202 257 314 373
#     4  10  19  32  54  84 119 161 205 249 298 356
#     4  11  24  39  58  89 128 171 214 258 307 368
#     4  11  22  35  56  87 125 169 213 254 298 355
#
# _framework density 9.4062319999999993
#
# number of rings (size 3 to 8) (size 9 to 14) (size 15 to 20)
#    0.000    0.833    3.333    5.000    0.000    4.667 
#    0.000    1.667    0.000    0.500    0.000    3.500 
#    0.000    0.000    0.000    0.000    0.000    0.000 
#
# Total GULP energy -267580.631721 kJ/mol
# GULP energy per Si atom -5574.596494 kJ/mol
# Density = 0.938482 g / cm^3
# Si number density = 9.406232 Si / 1000 Ang^3
#
#
#
# Elastic Constant Matrix: (Units=GPa)
#
#
# Indices 1 2 3 4 5 6 
#
# 1 145.6317 39.0070 65.3349 0.0000 0.0000 0.0000
# 2 39.0070 73.2056 38.3043 0.0000 0.0000 0.0000
# 3 65.3349 38.3043 161.6622 0.0000 0.0000 0.0000
# 4 0.0000 0.0000 0.0000 30.3780 0.0000 0.0000
# 5 0.0000 0.0000 0.0000 0.0000 36.6322 0.0000
# 6 0.0000 0.0000 0.0000 0.0000 0.0000 22.7414
#
#
#
# Elastic Compliance Matrix: (Units=1/GPa)
#
#
# Indices 1 2 3 4 5 6 
#
# 1 0.009042 -0.003317 -0.002868 0.000000 0.000000 0.000000
# 2 -0.003317 0.016810 -0.002642 0.000000 0.000000 0.000000
# 3 -0.002868 -0.002642 0.007971 0.000000 0.000000 0.000000
# 4 0.000000 0.000000 0.000000 0.032919 0.000000 0.000000
# 5 0.000000 0.000000 0.000000 0.000000 0.027298 0.000000
# 6 0.000000 0.000000 0.000000 0.000000 0.000000 0.043973
#
#
# Mechanical properties :
#
#
# Convention : Reuss Voigt Hill
#
# Bulk Modulus (GPa) = 61.85216 73.97685 67.91451
# Shear Modulus (GPa) = 31.04478 33.80721 32.42599
#
# Velocity S-wave (km/s) = 4.06670 4.24378 4.15618
# Velocity P-wave (km/s) = 7.41623 7.96377 7.69487
#
# Compressibility (1/GPa) = 0.01616758
#
# Stress axis : x y z
#
# Youngs Moduli (GPa) = 110.59606 59.48741 125.45407
#
# Poissons Ratio (x) = 0.19733 0.35984
# Poissons Ratio (y) = 0.36686 0.33151
# Poissons Ratio (z) = 0.31722 0.15719
#
# Static dielectric constant tensor:
#      x y z
#    x 1.697990 0.000000 0.000000 
#    y 0.000000 1.627110 0.000000 
#    z 0.000000 0.000000 1.699970 
# 
# From -- ./inp_files/7970.got.cif
#   From: 2010.05.17/outbox.ucp.g08.bks.cvg/sg66_4_cif.got.tgz:7970.got - 2010.06.11 16:44:13.
