data_PCOD9500495
_publ_section_title
;
Structure prediction by ZEFSAII (Michael W. Deem and Ramdas Pophale) SiO2 
 PCOD9500495
Probable space group: C M M A
;
_chemical_formula_sum "Si O2"
_cell_formula_units_Z 104
_cell_length_a 28.417755
_cell_length_b 8.898140
_cell_length_c 23.826535
_cell_angle_alpha 90.000000
_cell_angle_beta 90.000000
_cell_angle_gamma 90.000000
_cell_volume 6024.900644
_symmetry_space_group_name_H-M "C M M A"
_symmetry_group_IT_number 67
_symmetry_cell_setting 'orthorhombic'
loop_
_space_group_symop_operation_xyz
x,y,z
-x,1/2-y,z
x,-y,-z
-x,1/2+y,-z
-x,-y,-z
x,1/2+y,-z
-x,y,z
x,1/2-y,z
1/2+x,1/2+y,z
1/2-x,-y,z
1/2+x,1/2-y,-z
1/2-x,y,-z
1/2-x,1/2-y,-z
1/2+x,y,-z
1/2-x,1/2+y,z
1/2+x,-y,z
loop_
_atom_site_type_symbol
_atom_site_label
_atom_site_fract_x
_atom_site_fract_y
_atom_site_fract_z
Si Si1 0.944915 0.567991 0.264299
Si Si2 0.000000 0.929664 0.062316
Si Si3 0.404476 0.428585 0.939066
Si Si4 0.628300 0.578337 0.644185
Si Si5 0.299620 0.069829 0.562121
Si Si6 0.297196 0.080344 0.254759
Si Si7 0.629788 0.427918 0.821162
O O1 0.942278 0.750000 0.261140
O O2 0.919006 0.525636 0.323282
O O3 0.913448 0.503133 0.213379
O O4 0.000000 0.524764 0.261767
O O5 0.000000 0.750000 0.062052
O O6 0.047896 0.996525 0.085390
O O7 0.000000 0.000000 0.000000
O O8 0.411567 0.250000 0.946971
O O9 0.369371 0.455750 0.887922
O O10 0.393936 0.500000 0.000000
O O11 0.621206 0.750000 0.623390
O O12 0.654657 0.478832 0.597876
O O13 0.666136 0.584406 0.694434
O O14 0.295251 0.250000 0.560204
O O15 0.304585 0.000000 0.500000
O O16 0.250000 0.000000 0.584548
O O17 0.287389 0.250000 0.236850
O O18 0.250000 0.000000 0.272764
O O19 0.322917 0.989655 0.206053
O O20 0.625273 0.250000 0.812900
#
# Coordination Sequence:
#
# PCOD9500495 Si02
#       7
#    16   8  16  16  16  16  16
#     4   9  19  35  54  76 102 135 173 211 255 303
#     4  10  18  28  44  64  88 120 156 194 235 286
#     4  10  20  33  48  68  96 128 164 204 250 301
#     4   9  18  33  52  76 105 135 169 207 248 298
#     4  11  21  33  51  76 107 140 173 209 253 301
#     4  10  20  34  54  77 103 133 166 206 252 302
#     4  10  21  34  50  74 102 131 166 208 253 302
#
# _framework density 17.261695
#
# number of rings (size 3 to 8) (size 9 to 14) (size 15 to 20)
#    0.000    2.154    0.000    6.231    1.077    7.077 
#    0.000    0.000    0.000    0.923    0.000    3.231 
#    0.000    0.000    0.000    0.000    0.000    0.000 
#
# Total GULP energy -289730.588308 kJ/mol
# GULP energy per Si atom -5571.742083 kJ/mol
# Density = 1.722241 g / cm^3
# Si number density = 17.261695 Si / 1000 Ang^3
#
#
#
# Elastic Constant Matrix: (Units=GPa)
#
#
# Indices 1 2 3 4 5 6 
#
# 1 55.6209 16.5272 13.9462 0.0000 0.0000 0.0000
# 2 16.5272 75.7603 39.8192 0.0000 0.0000 0.0000
# 3 13.9462 39.8192 71.0107 0.0000 0.0000 0.0000
# 4 0.0000 0.0000 0.0000 22.9046 0.0000 0.0000
# 5 0.0000 0.0000 0.0000 0.0000 22.3584 0.0000
# 6 0.0000 0.0000 0.0000 0.0000 0.0000 23.2778
#
#
#
# Elastic Compliance Matrix: (Units=1/GPa)
#
#
# Indices 1 2 3 4 5 6 
#
# 1 0.019431 -0.003166 -0.002041 0.000000 0.000000 0.000000
# 2 -0.003166 0.019231 -0.010162 0.000000 0.000000 0.000000
# 3 -0.002041 -0.010162 0.020182 0.000000 0.000000 0.000000
# 4 0.000000 0.000000 0.000000 0.043659 0.000000 0.000000
# 5 0.000000 0.000000 0.000000 0.000000 0.044726 0.000000
# 6 0.000000 0.000000 0.000000 0.000000 0.000000 0.042959
#
#
# Mechanical properties :
#
#
# Convention : Reuss Voigt Hill
#
# Bulk Modulus (GPa) = 35.57966 38.10856 36.84411
# Shear Modulus (GPa) = 21.71117 22.51478 22.11298
#
# Velocity S-wave (km/s) = 3.55035 3.61546 3.58305
# Velocity P-wave (km/s) = 6.12073 6.28916 6.20552
#
# Compressibility (1/GPa) = 0.02810594
#
# Stress axis : x y z
#
# Youngs Moduli (GPa) = 51.46315 51.99817 49.55011
#
# Poissons Ratio (x) = 0.16465 0.10112
# Poissons Ratio (y) = 0.16295 0.50354
# Poissons Ratio (z) = 0.10502 0.52841
#
# Static dielectric constant tensor:
#      x y z
#    x 1.607550 0.000000 0.000000 
#    y 0.000000 1.612100 0.000000 
#    z 0.000000 0.000000 1.579070 
# 
# From -- ./inp_files/42786.got.cif
#   From: 2010.05.17/outbox.cif.g08.bks.cpg/sg67_22_cif.got.tgz:42786.got - 2010.06.03 18:28:57.
