data_PCOD9500583
_publ_section_title
;
Structure prediction by ZEFSAII (Michael W. Deem and Ramdas Pophale) SiO2 
 PCOD9500583
Probable space group: C M M A
;
_chemical_formula_sum "Si O2"
_cell_formula_units_Z 112
_cell_length_a 15.109117
_cell_length_b 22.964616
_cell_length_c 15.369266
_cell_angle_alpha 90.000000
_cell_angle_beta 90.000000
_cell_angle_gamma 90.000000
_cell_volume 5332.752146
_symmetry_space_group_name_H-M "C M M A"
_symmetry_group_IT_number 67
_symmetry_cell_setting 'orthorhombic'
loop_
_space_group_symop_operation_xyz
x,y,z
-x,1/2-y,z
x,-y,-z
-x,1/2+y,-z
-x,-y,-z
x,1/2+y,-z
-x,y,z
x,1/2-y,z
1/2+x,1/2+y,z
1/2-x,-y,z
1/2+x,1/2-y,-z
1/2-x,y,-z
1/2-x,1/2-y,-z
1/2+x,y,-z
1/2-x,1/2+y,z
1/2+x,-y,z
loop_
_atom_site_type_symbol
_atom_site_label
_atom_site_fract_x
_atom_site_fract_y
_atom_site_fract_z
Si Si1 0.349740 0.940647 0.461233
Si Si2 0.151826 0.480593 0.264330
Si Si3 0.758503 0.315812 0.259089
Si Si4 0.854801 0.066127 0.979486
Si Si5 0.656824 0.814225 0.448822
Si Si6 0.901752 0.398501 0.782092
Si Si7 0.596918 0.127018 0.852167
O O1 0.250000 0.938215 0.500000
O O2 0.342527 0.951828 0.358488
O O3 0.388375 0.875603 0.475187
O O4 0.391150 0.000000 0.500000
O O5 0.250000 0.500000 0.234668
O O6 0.098911 0.540296 0.268238
O O7 0.112043 0.434164 0.198194
O O8 0.726666 0.250000 0.251006
O O9 0.815100 0.319986 0.347722
O O10 0.675315 0.358737 0.257033
O O11 0.824403 0.332578 0.181162
O O12 0.876547 0.084303 0.881356
O O13 0.750000 0.067218 0.000000
O O14 0.896983 0.111065 0.047011
O O15 0.885232 0.000000 0.000000
O O16 0.614264 0.750000 0.461599
O O17 0.750000 0.812176 0.500000
O O18 0.000000 0.372597 0.779496
O O19 0.500000 0.150362 0.829792
#
# Coordination Sequence:
#
# PCOD9500583 Si02
#       7
#    16  16  16  16  16  16  16
#     4  10  18  29  55  93 120 165 210 263 311 377
#     4  12  19  36  60  92 128 163 206 254 317 378
#     4  11  24  44  67  89 123 170 219 266 310 371
#     4  11  21  39  63  93 128 165 206 258 319 385
#     4   9  18  34  59  91 119 161 218 259 311 377
#     4  12  25  40  63  96 130 165 208 262 324 386
#     4  12  24  39  63  96 130 162 207 262 321 381
#
# _framework density 21.002289999999999
#
# number of rings (size 3 to 8) (size 9 to 14) (size 15 to 20)
#    0.000    1.000    7.143    0.857    2.000    1.143 
#    0.000    1.429    0.000    6.000    0.000    4.000 
#    0.000    0.000    0.000    0.000    0.000    0.000 
#
# Total GULP energy -312809.499393 kJ/mol
# GULP energy per Si atom -5585.883918 kJ/mol
# Density = 2.095449 g / cm^3
# Si number density = 21.002290 Si / 1000 Ang^3
#
#
#
# Elastic Constant Matrix: (Units=GPa)
#
#
# Indices 1 2 3 4 5 6 
#
# 1 78.3042 3.4744 -11.3168 0.0000 0.0000 0.0000
# 2 3.4744 152.2626 17.1319 0.0000 0.0000 0.0000
# 3 -11.3168 17.1319 50.4436 0.0000 0.0000 0.0000
# 4 0.0000 0.0000 0.0000 26.8037 0.0000 0.0000
# 5 0.0000 0.0000 0.0000 0.0000 -23.8465 0.0000
# 6 0.0000 0.0000 0.0000 0.0000 0.0000 -9.4623
#
#
#
# Elastic Compliance Matrix: (Units=1/GPa)
#
#
# Indices 1 2 3 4 5 6 
#
# 1 0.013263 -0.000663 0.003201 0.000000 0.000000 0.000000
# 2 -0.000663 0.006862 -0.002479 0.000000 0.000000 0.000000
# 3 0.003201 -0.002479 0.021384 0.000000 0.000000 0.000000
# 4 0.000000 0.000000 0.000000 0.037308 0.000000 0.000000
# 5 0.000000 0.000000 0.000000 0.000000 -0.041935 0.000000
# 6 0.000000 0.000000 0.000000 0.000000 0.000000 -0.105683
#
#
# Mechanical properties :
#
#
# Convention : Reuss Voigt Hill
#
# Bulk Modulus (GPa) = 24.02356 33.28771 28.65564
# Shear Modulus (GPa) = -90.83736 16.81372 -37.01182
#
# Velocity S-wave (km/s) = -6.58370 2.83250 -4.20250
# Velocity P-wave (km/s) = 6.80662 5.15571 3.14235
#
# Compressibility (1/GPa) = 0.04162581
#
# Stress axis : x y z
#
# Youngs Moduli (GPa) = 75.39967 145.73734 46.76369
#
# Poissons Ratio (x) = 0.09659 -0.14967
# Poissons Ratio (y) = 0.04997 0.11593
# Poissons Ratio (z) = -0.24132 0.36129
#
# Static dielectric constant tensor:
#      x y z
#    x 1.759490 0.000000 0.000000 
#    y 0.000000 1.786070 0.000000 
#    z 0.000000 0.000000 1.763150 
# 
# From -- ./inp_files/27560.got.cif
#   From: 2010.05.17/outbox.cif.g08.bks.cpg/sg67_14_cif.got.tgz:27560.got - 2010.06.03 18:28:57.
