data_PCOD9500150
_publ_section_title
;
Structure prediction by ZEFSAII (Michael W. Deem and Ramdas Pophale) SiO2 
 PCOD9500150
Probable space group: C M M A
;
_chemical_formula_sum "Si O2"
_cell_formula_units_Z 88
_cell_length_a 17.158696
_cell_length_b 14.002090
_cell_length_c 19.010487
_cell_angle_alpha 90.000000
_cell_angle_beta 90.000000
_cell_angle_gamma 90.000000
_cell_volume 4567.414089
_symmetry_space_group_name_H-M "C M M A"
_symmetry_group_IT_number 67
_symmetry_cell_setting 'orthorhombic'
loop_
_space_group_symop_operation_xyz
x,y,z
-x,1/2-y,z
x,-y,-z
-x,1/2+y,-z
-x,-y,-z
x,1/2+y,-z
-x,y,z
x,1/2-y,z
1/2+x,1/2+y,z
1/2-x,-y,z
1/2+x,1/2-y,-z
1/2-x,y,-z
1/2-x,1/2-y,-z
1/2+x,y,-z
1/2-x,1/2+y,z
1/2+x,-y,z
loop_
_atom_site_type_symbol
_atom_site_label
_atom_site_fract_x
_atom_site_fract_y
_atom_site_fract_z
Si Si1 0.878843 0.500000 0.500000
Si Si2 0.406014 0.033068 0.114763
Si Si3 0.405004 0.144505 0.978760
Si Si4 0.695313 0.144105 0.393922
Si Si5 0.342839 0.518711 0.730492
Si Si6 0.382418 0.361982 0.623108
O O1 0.828936 0.430789 0.548253
O O2 0.914997 0.425368 0.442368
O O3 0.500000 0.034060 0.118042
O O4 0.373933 0.041081 0.192633
O O5 0.380753 0.933713 0.078206
O O6 0.382012 0.112156 0.057265
O O7 0.500000 0.143905 0.978213
O O8 0.377309 0.250000 0.962122
O O9 0.670400 0.250000 0.413649
O O10 0.654050 0.107899 0.322885
O O11 0.788508 0.142675 0.387038
O O12 0.250000 0.500000 0.735085
O O13 0.387245 0.428742 0.693267
O O14 0.408225 0.250000 0.627564
#
# Coordination Sequence:
#
# PCOD9500150 Si02
#       6
#     8  16  16  16  16  16
#     4  10  15  22  38  60  85 114 149 186 219 252
#     4   9  17  30  49  69  86 110 146 181 211 250
#     4   8  15  29  48  68  88 110 140 180 220 252
#     4   9  16  25  38  58  85 116 147 179 217 258
#     4   9  18  30  42  61  92 122 142 169 216 264
#     4   9  16  25  38  58  85 116 147 179 217 258
#
# _framework density 19.266919999999999
#
# number of rings (size 3 to 8) (size 9 to 14) (size 15 to 20)
#    0.000    3.091    0.000    4.364    0.000    2.909 
#    0.000    1.818    0.000    1.091    0.000   10.182 
#    0.000   11.636    0.000    0.000    0.000    0.000 
#
# Total GULP energy -244984.689713 kJ/mol
# GULP energy per Si atom -5567.833857 kJ/mol
# Density = 1.922307 g / cm^3
# Si number density = 19.266920 Si / 1000 Ang^3
#
#
#
# Elastic Constant Matrix: (Units=GPa)
#
#
# Indices 1 2 3 4 5 6 
#
# 1 22.9995 19.5913 19.0626 0.0000 0.0000 0.0000
# 2 19.5913 108.8238 17.7380 0.0000 0.0000 0.0000
# 3 19.0626 17.7380 112.3565 0.0000 0.0000 0.0000
# 4 0.0000 0.0000 0.0000 5.5195 0.0000 0.0000
# 5 0.0000 0.0000 0.0000 0.0000 38.4424 0.0000
# 6 0.0000 0.0000 0.0000 0.0000 0.0000 -4.7798
#
#
#
# Elastic Compliance Matrix: (Units=1/GPa)
#
#
# Indices 1 2 3 4 5 6 
#
# 1 0.058234 -0.009108 -0.008442 0.000000 0.000000 0.000000
# 2 -0.009108 0.010856 -0.000169 0.000000 0.000000 0.000000
# 3 -0.008442 -0.000169 0.010359 0.000000 0.000000 0.000000
# 4 0.000000 0.000000 0.000000 0.181176 0.000000 0.000000
# 5 0.000000 0.000000 0.000000 0.000000 0.026013 0.000000
# 6 0.000000 0.000000 0.000000 0.000000 0.000000 -0.209215
#
#
# Mechanical properties :
#
#
# Convention : Reuss Voigt Hill
#
# Bulk Modulus (GPa) = 22.72082 39.66264 31.19173
# Shear Modulus (GPa) = 39.20552 20.35562 29.78057
#
# Velocity S-wave (km/s) = 4.51584 3.25392 3.93578
# Velocity P-wave (km/s) = 6.24569 5.89473 6.07275
#
# Compressibility (1/GPa) = 0.04401250
#
# Stress axis : x y z
#
# Youngs Moduli (GPa) = 17.17195 92.11232 96.53245
#
# Poissons Ratio (x) = 0.83894 0.81496
# Poissons Ratio (y) = 0.15640 0.01628
# Poissons Ratio (z) = 0.14497 0.01554
#
# Static dielectric constant tensor:
#      x y z
#    x 1.688850 0.000000 0.000000 
#    y 0.000000 1.690540 0.000000 
#    z 0.000000 0.000000 1.662550 
# 
# From -- ./inp_files/33618.got.cif
#   From: 2010.05.17/outbox.cif.g08.bks.cpg/sg67_17_cif.got.tgz:33618.got - 2010.06.03 18:28:57.
