data_PCOD9500256
_publ_section_title
;
Structure prediction by ZEFSAII (Michael W. Deem and Ramdas Pophale) SiO2 
 PCOD9500256
Probable space group: C M M A
;
_chemical_formula_sum "Si O2"
_cell_formula_units_Z 60
_cell_length_a 19.596813
_cell_length_b 5.666369
_cell_length_c 22.960593
_cell_angle_alpha 90.000000
_cell_angle_beta 90.000000
_cell_angle_gamma 90.000000
_cell_volume 2549.607932
_symmetry_space_group_name_H-M "C M M A"
_symmetry_group_IT_number 67
_symmetry_cell_setting 'orthorhombic'
loop_
_space_group_symop_operation_xyz
x,y,z
-x,1/2-y,z
x,-y,-z
-x,1/2+y,-z
-x,-y,-z
x,1/2+y,-z
-x,y,z
x,1/2-y,z
1/2+x,1/2+y,z
1/2-x,-y,z
1/2+x,1/2-y,-z
1/2-x,y,-z
1/2-x,1/2-y,-z
1/2+x,y,-z
1/2-x,1/2+y,z
1/2+x,-y,z
loop_
_atom_site_type_symbol
_atom_site_label
_atom_site_fract_x
_atom_site_fract_y
_atom_site_fract_z
Si Si1 0.141825 0.250000 0.001558
Si Si2 0.328184 0.750000 0.477652
Si Si3 0.000000 0.750000 0.032936
Si Si4 0.577609 0.250000 0.176924
Si Si5 0.606158 0.750000 0.688587
Si Si6 0.753562 0.250000 0.255353
Si Si7 0.873763 0.750000 0.652206
Si Si8 0.416926 0.250000 0.869214
O O1 0.105456 0.250000 0.064405
O O2 0.177959 0.500000 0.000000
O O3 0.081596 0.250000 0.951710
O O4 0.358479 0.500000 0.500000
O O5 0.250000 0.750000 0.500000
O O6 0.332748 0.750000 0.408087
O O7 0.000000 0.500000 0.000000
O O8 0.500000 0.250000 0.151516
O O9 0.575854 0.250000 0.246761
O O10 0.607158 0.505808 0.160062
O O11 0.688862 0.750000 0.699917
O O12 0.588512 0.502576 0.657567
O O13 0.750000 0.500000 0.222847
O O14 0.822176 0.250000 0.293050
O O15 0.500000 0.250000 0.865731
#
# Coordination Sequence:
#
# PCOD9500256 Si02
#       8
#     8   8   4   8   8   8   8   8
#     4  10  17  25  39  60  83 110 147 184 223 284
#     4  10  21  27  43  67 105 137 140 162 211 266
#     4   8  14  20  30  48  72  94 126 168 200 246
#     4  10  21  34  46  64  87 119 165 211 244 257
#     4  10  19  31  49  62  88 123 163 196 220 268
#     4   8  16  25  44  62  87 113 146 175 211 262
#     4  10  19  31  47  70  96 126 151 173 220 282
#     4  10  19  30  44  60  87 118 150 200 250 276
#
# _framework density 23.533031999999999
#
# number of rings (size 3 to 8) (size 9 to 14) (size 15 to 20)
#    0.000    2.400    0.667    2.400   11.200    0.000 
#    0.000    0.000    0.000    0.000    0.000    0.000 
#    0.000   10.667    0.000    0.000    0.000  420.000 
#
# Total GULP energy -167052.728274 kJ/mol
# GULP energy per Si atom -5568.424276 kJ/mol
# Density = 2.347947 g / cm^3
# Si number density = 23.533032 Si / 1000 Ang^3
#
#
#
# Elastic Constant Matrix: (Units=GPa)
#
#
# Indices 1 2 3 4 5 6 
#
# 1 56.2696 16.5623 12.1636 0.0000 0.0000 0.0000
# 2 16.5623 338.3553 50.1545 0.0000 0.0000 0.0000
# 3 12.1636 50.1545 87.5744 0.0000 0.0000 0.0000
# 4 0.0000 0.0000 0.0000 125.5940 0.0000 0.0000
# 5 0.0000 0.0000 0.0000 0.0000 35.1077 0.0000
# 6 0.0000 0.0000 0.0000 0.0000 0.0000 -18.0114
#
#
#
# Elastic Compliance Matrix: (Units=1/GPa)
#
#
# Indices 1 2 3 4 5 6 
#
# 1 0.018422 -0.000571 -0.002232 0.000000 0.000000 0.000000
# 2 -0.000571 0.003247 -0.001780 0.000000 0.000000 0.000000
# 3 -0.002232 -0.001780 0.012749 0.000000 0.000000 0.000000
# 4 0.000000 0.000000 0.000000 0.007962 0.000000 0.000000
# 5 0.000000 0.000000 0.000000 0.000000 0.028484 0.000000
# 6 0.000000 0.000000 0.000000 0.000000 0.000000 -0.055520
#
#
# Mechanical properties :
#
#
# Convention : Reuss Voigt Hill
#
# Bulk Modulus (GPa) = 39.60140 71.10668 55.35404
# Shear Modulus (GPa) = 151.85142 55.42599 103.63871
#
# Velocity S-wave (km/s) = 8.04158 4.85835 6.64344
# Velocity P-wave (km/s) = 10.15319 7.85829 9.07854
#
# Compressibility (1/GPa) = 0.02525163
#
# Stress axis : x y z
#
# Youngs Moduli (GPa) = 54.28271 307.94432 78.44045
#
# Poissons Ratio (x) = 0.17582 0.17506
# Poissons Ratio (y) = 0.03099 0.13966
# Poissons Ratio (z) = 0.12114 0.54829
#
# Static dielectric constant tensor:
#      x y z
#    x 1.899400 0.000000 0.000000 
#    y 0.000000 2.009440 0.000000 
#    z 0.000000 0.000000 1.831860 
# 
# From -- ./inp_files/39471.got.cif
#   From: 2010.05.17/outbox.cif.g08.bks.cpg/sg67_20_cif.got.tgz:39471.got - 2010.06.03 18:28:57.
