data_PCOD9500179
_publ_section_title
;
Structure prediction by ZEFSAII (Michael W. Deem and Ramdas Pophale) SiO2 
 PCOD9500179
Probable space group: C M M A
;
_chemical_formula_sum "Si O2"
_cell_formula_units_Z 96
_cell_length_a 19.563272
_cell_length_b 8.731270
_cell_length_c 32.229720
_cell_angle_alpha 90.000000
_cell_angle_beta 90.000000
_cell_angle_gamma 90.000000
_cell_volume 5505.229698
_symmetry_space_group_name_H-M "C M M A"
_symmetry_group_IT_number 67
_symmetry_cell_setting 'orthorhombic'
loop_
_space_group_symop_operation_xyz
x,y,z
-x,1/2-y,z
x,-y,-z
-x,1/2+y,-z
-x,-y,-z
x,1/2+y,-z
-x,y,z
x,1/2-y,z
1/2+x,1/2+y,z
1/2-x,-y,z
1/2+x,1/2-y,-z
1/2-x,y,-z
1/2-x,1/2-y,-z
1/2+x,y,-z
1/2-x,1/2+y,z
1/2+x,-y,z
loop_
_atom_site_type_symbol
_atom_site_label
_atom_site_fract_x
_atom_site_fract_y
_atom_site_fract_z
Si Si1 0.672291 0.933238 0.042445
Si Si2 0.673621 0.567135 0.781366
Si Si3 0.172911 0.566313 0.126759
Si Si4 0.080971 0.066633 0.384566
Si Si5 0.325630 0.432146 0.455903
Si Si6 0.579291 0.434658 0.709773
O O1 0.674890 0.750000 0.041079
O O2 0.750000 0.000000 0.043106
O O3 0.640459 0.991482 0.085739
O O4 0.640928 0.000000 0.000000
O O5 0.678401 0.750000 0.778958
O O6 0.750000 0.500000 0.777986
O O7 0.644421 0.529693 0.827493
O O8 0.626866 0.504451 0.744795
O O9 0.175337 0.750000 0.121550
O O10 0.250000 0.500000 0.128645
O O11 0.091369 0.250000 0.388418
O O12 0.099343 0.021486 0.337303
O O13 0.000000 0.037936 0.389825
O O14 0.125044 0.981927 0.418875
O O15 0.349866 0.500000 0.500000
O O16 0.321207 0.250000 0.459046
O O17 0.250000 0.500000 0.448607
O O18 0.500000 0.479100 0.715859
O O19 0.582603 0.250000 0.711778
#
# Coordination Sequence:
#
# PCOD9500179 Si02
#       6
#    16  16  16  16  16  16
#     4  10  16  22  33  50  75 110 149 188 232 283
#     4  10  20  32  49  72  99 131 166 207 250 297
#     4   9  16  26  38  56  83 115 152 193 238 284
#     4   9  19  37  58  79 104 134 169 209 252 297
#     4  11  22  37  57  80 108 140 173 209 250 295
#     4   9  19  36  56  76 101 133 167 207 253 298
#
# _framework density 17.437964000000001
#
# number of rings (size 3 to 8) (size 9 to 14) (size 15 to 20)
#    0.000    2.333    0.000    7.000    0.000    4.333 
#    0.000    1.667    0.000    0.000    0.000    0.000 
#    0.000    0.667    0.000    2.167    0.000    8.667 
#
# Total GULP energy -267595.758113 kJ/mol
# GULP energy per Si atom -5574.911627 kJ/mol
# Density = 1.739827 g / cm^3
# Si number density = 17.437964 Si / 1000 Ang^3
#
#
#
# Elastic Constant Matrix: (Units=GPa)
#
#
# Indices 1 2 3 4 5 6 
#
# 1 35.0051 33.9643 70.8763 0.0000 0.0000 0.0000
# 2 33.9643 107.4094 85.1292 0.0000 0.0000 0.0000
# 3 70.8763 85.1292 206.1537 0.0000 0.0000 0.0000
# 4 0.0000 0.0000 0.0000 32.5703 0.0000 0.0000
# 5 0.0000 0.0000 0.0000 0.0000 -22.7472 0.0000
# 6 0.0000 0.0000 0.0000 0.0000 0.0000 18.6505
#
#
#
# Elastic Compliance Matrix: (Units=1/GPa)
#
#
# Indices 1 2 3 4 5 6 
#
# 1 0.096783 -0.006291 -0.030677 0.000000 0.000000 0.000000
# 2 -0.006291 0.014249 -0.003721 0.000000 0.000000 0.000000
# 3 -0.030677 -0.003721 0.016934 0.000000 0.000000 0.000000
# 4 0.000000 0.000000 0.000000 0.030703 0.000000 0.000000
# 5 0.000000 0.000000 0.000000 0.000000 -0.043962 0.000000
# 6 0.000000 0.000000 0.000000 0.000000 0.000000 0.053618
#
#
# Mechanical properties :
#
#
# Convention : Reuss Voigt Hill
#
# Bulk Modulus (GPa) = 21.46431 80.94531 51.20481
# Shear Modulus (GPa) = 18.85141 16.26795 17.55968
#
# Velocity S-wave (km/s) = 3.29151 3.05766 3.17674
# Velocity P-wave (km/s) = 5.17504 7.68020 6.54853
#
# Compressibility (1/GPa) = 0.04658897
#
# Stress axis : x y z
#
# Youngs Moduli (GPa) = 10.33234 70.18249 59.05264
#
# Poissons Ratio (x) = 0.44151 1.81154
# Poissons Ratio (y) = 0.06500 0.21973
# Poissons Ratio (z) = 0.31696 0.26115
#
# Static dielectric constant tensor:
#      x y z
#    x 1.560110 0.000000 0.000000 
#    y 0.000000 1.582870 0.000000 
#    z 0.000000 0.000000 1.643670 
# 
# From -- ./inp_files/44613.got.cif
#   From: 2010.05.17/outbox.cif.g08.bks.cpg/sg67_23_cif.got.tgz:44613.got - 2010.06.03 18:28:57.
