data_PCOD9500950
_publ_section_title
;
Structure prediction by ZEFSAII (Michael W. Deem and Ramdas Pophale) SiO2 
 PCOD9500950
Probable space group: C M M A
;
_chemical_formula_sum "Si O2"
_cell_formula_units_Z 72
_cell_length_a 15.173253
_cell_length_b 14.719174
_cell_length_c 15.119705
_cell_angle_alpha 90.000000
_cell_angle_beta 90.000000
_cell_angle_gamma 90.000000
_cell_volume 3376.800911
_symmetry_space_group_name_H-M "C M M A"
_symmetry_group_IT_number 67
_symmetry_cell_setting 'orthorhombic'
loop_
_space_group_symop_operation_xyz
x,y,z
-x,1/2-y,z
x,-y,-z
-x,1/2+y,-z
-x,-y,-z
x,1/2+y,-z
-x,y,z
x,1/2-y,z
1/2+x,1/2+y,z
1/2-x,-y,z
1/2+x,1/2-y,-z
1/2-x,y,-z
1/2-x,1/2-y,-z
1/2+x,y,-z
1/2-x,1/2+y,z
1/2+x,-y,z
loop_
_atom_site_type_symbol
_atom_site_label
_atom_site_fract_x
_atom_site_fract_y
_atom_site_fract_z
Si Si1 0.204784 0.407448 0.362258
Si Si2 0.604791 0.750000 0.869683
Si Si3 0.607781 0.602809 0.005922
Si Si4 0.145738 0.250000 0.478218
Si Si5 0.344374 0.250000 0.332649
Si Si6 0.894865 0.146655 0.204476
O O1 0.250000 0.500000 0.396330
O O2 0.139636 0.345203 0.424239
O O3 0.284491 0.339763 0.339270
O O4 0.152487 0.421908 0.270824
O O5 0.500000 0.750000 0.883467
O O6 0.617330 0.750000 0.765283
O O7 0.639451 0.663107 0.923986
O O8 0.500000 0.602924 0.003765
O O9 0.632085 0.639659 0.102457
O O10 0.637760 0.500000 0.000000
O O11 0.250000 0.250000 0.500000
O O12 0.101597 0.250000 0.574705
O O13 0.875330 0.250000 0.234869
O O14 0.000000 0.133674 0.208468
#
# Coordination Sequence:
#
# PCOD9500950 Si02
#       6
#    16   8  16   8   8  16
#     4  10  20  36  58  83 111 143 185 233 289 337
#     4  10  20  36  55  80 113 154 187 228 275 324
#     4   9  18  32  53  77 108 150 190 217 264 339
#     4   8  18  37  56  79 104 145 195 218 280 350
#     4  10  22  37  54  81 111 143 196 232 280 332
#     4  10  18  34  58  85 111 145 190 235 279 333
#
# _framework density 21.321954999999999
#
# number of rings (size 3 to 8) (size 9 to 14) (size 15 to 20)
#    0.000    2.667    3.333    0.000    3.111    4.000 
#    0.000    3.333    0.000    0.000    0.000   18.667 
#    0.000    0.000    0.000    0.000    0.000    0.000 
#
# Total GULP energy -200532.756186 kJ/mol
# GULP energy per Si atom -5570.354339 kJ/mol
# Density = 2.127343 g / cm^3
# Si number density = 21.321955 Si / 1000 Ang^3
#
#
#
# Elastic Constant Matrix: (Units=GPa)
#
#
# Indices 1 2 3 4 5 6 
#
# 1 32.4183 18.5392 16.8408 0.0000 0.0000 0.0000
# 2 18.5392 134.7699 65.7508 0.0000 0.0000 0.0000
# 3 16.8408 65.7508 167.9071 0.0000 0.0000 0.0000
# 4 0.0000 0.0000 0.0000 4.9240 0.0000 0.0000
# 5 0.0000 0.0000 0.0000 0.0000 27.8657 0.0000
# 6 0.0000 0.0000 0.0000 0.0000 0.0000 6.7990
#
#
#
# Elastic Compliance Matrix: (Units=1/GPa)
#
#
# Indices 1 2 3 4 5 6 
#
# 1 0.033990 -0.003724 -0.001951 0.000000 0.000000 0.000000
# 2 -0.003724 0.009580 -0.003378 0.000000 0.000000 0.000000
# 3 -0.001951 -0.003378 0.007474 0.000000 0.000000 0.000000
# 4 0.000000 0.000000 0.000000 0.203085 0.000000 0.000000
# 5 0.000000 0.000000 0.000000 0.000000 0.035886 0.000000
# 6 0.000000 0.000000 0.000000 0.000000 0.000000 0.147080
#
#
# Mechanical properties :
#
#
# Convention : Reuss Voigt Hill
#
# Bulk Modulus (GPa) = 30.35948 59.70634 45.03291
# Shear Modulus (GPa) = 10.72544 23.51538 17.12041
#
# Velocity S-wave (km/s) = 2.24525 3.32455 2.83671
# Velocity P-wave (km/s) = 4.58160 6.54217 5.64761
#
# Compressibility (1/GPa) = 0.03293864
#
# Stress axis : x y z
#
# Youngs Moduli (GPa) = 29.42055 104.37963 133.79403
#
# Poissons Ratio (x) = 0.38870 0.26102
# Poissons Ratio (y) = 0.10956 0.45197
# Poissons Ratio (z) = 0.05740 0.35260
#
# Static dielectric constant tensor:
#      x y z
#    x 1.788270 0.000000 0.000000 
#    y 0.000000 1.796380 0.000000 
#    z 0.000000 0.000000 1.851260 
# 
# From -- ./inp_files/28316.got.cif
#   From: 2010.05.17/outbox.cif.g08.bks.cpg/sg67_15_cif.got.tgz:28316.got - 2010.06.03 18:28:57.
