data_PCOD9500165
_publ_section_title
;
Structure prediction by ZEFSAII (Michael W. Deem and Ramdas Pophale) SiO2 
 PCOD9500165
Probable space group: C M M A
;
_chemical_formula_sum "Si O2"
_cell_formula_units_Z 48
_cell_length_a 5.508686
_cell_length_b 14.662769
_cell_length_c 28.453538
_cell_angle_alpha 90.000000
_cell_angle_beta 90.000000
_cell_angle_gamma 90.000000
_cell_volume 2298.265968
_symmetry_space_group_name_H-M "C M M A"
_symmetry_group_IT_number 67
_symmetry_cell_setting 'orthorhombic'
loop_
_space_group_symop_operation_xyz
x,y,z
-x,1/2-y,z
x,-y,-z
-x,1/2+y,-z
-x,-y,-z
x,1/2+y,-z
-x,y,z
x,1/2-y,z
1/2+x,1/2+y,z
1/2-x,-y,z
1/2+x,1/2-y,-z
1/2-x,y,-z
1/2-x,1/2-y,-z
1/2+x,y,-z
1/2-x,1/2+y,z
1/2+x,-y,z
loop_
_atom_site_type_symbol
_atom_site_label
_atom_site_fract_x
_atom_site_fract_y
_atom_site_fract_z
Si Si1 0.000000 0.442545 0.875921
Si Si2 0.500000 0.358571 0.023320
Si Si3 0.000000 0.604259 0.231475
Si Si4 0.000000 0.058010 0.374743
Si Si5 0.500000 0.392669 0.730115
Si Si6 0.500000 0.394079 0.519209
O O1 0.750000 0.500000 0.877999
O O2 0.000000 0.379221 0.921513
O O3 0.000000 0.396984 0.824706
O O4 0.500000 0.250000 0.016011
O O5 0.250000 0.393929 0.000000
O O6 0.249868 0.645487 0.249949
O O7 0.000000 0.499531 0.252145
O O8 0.000000 0.108086 0.424589
O O9 0.000000 0.112163 0.326044
O O10 0.750000 0.000000 0.374089
O O11 0.500000 0.500000 0.500000
O O12 0.250000 0.354464 0.500000
#
# Coordination Sequence:
#
# PCOD9500165 Si02
#       6
#     8   8   8   8   8   8
#     4  12  21  32  55  80 100 123 157 197 238 276
#     4  10  23  42  57  73 102 135 160 188 231 281
#     4  10  16  27  38  59  86 106 127 170 221 262
#     4  12  16  20  31  42  55  91 127 151 211 269
#     4  10  16  25  36  51  80 107 127 165 221 277
#     4  10  16  22  26  35  53  75 115 173 211 235
#
# _framework density 20.88531
#
# number of rings (size 3 to 8) (size 9 to 14) (size 15 to 20)
#    0.000    1.333   10.000    1.000    0.000    2.000 
#    0.000    0.000    0.000    0.000    0.000    0.000 
#    0.000    0.000    0.000    0.000    0.000    0.000 
#
# Total GULP energy -133931.847641 kJ/mol
# GULP energy per Si atom -5580.493652 kJ/mol
# Density = 2.083777 g / cm^3
# Si number density = 20.885310 Si / 1000 Ang^3
#
#
#
# Elastic Constant Matrix: (Units=GPa)
#
#
# Indices 1 2 3 4 5 6 
#
# 1 259.1986 24.3988 61.4592 0.0000 0.0000 0.0000
# 2 24.3988 51.7938 14.4212 0.0000 0.0000 0.0000
# 3 61.4592 14.4212 180.9611 0.0000 0.0000 0.0000
# 4 0.0000 0.0000 0.0000 -23.0788 0.0000 0.0000
# 5 0.0000 0.0000 0.0000 0.0000 63.2463 0.0000
# 6 0.0000 0.0000 0.0000 0.0000 0.0000 -16.0796
#
#
#
# Elastic Compliance Matrix: (Units=1/GPa)
#
#
# Indices 1 2 3 4 5 6 
#
# 1 0.004332 -0.001668 -0.001338 0.000000 0.000000 0.000000
# 2 -0.001668 0.020388 -0.001058 0.000000 0.000000 0.000000
# 3 -0.001338 -0.001058 0.006065 0.000000 0.000000 0.000000
# 4 0.000000 0.000000 0.000000 -0.043330 0.000000 0.000000
# 5 0.000000 0.000000 0.000000 0.000000 0.015811 0.000000
# 6 0.000000 0.000000 0.000000 0.000000 0.000000 -0.062190
#
#
# Mechanical properties :
#
#
# Convention : Reuss Voigt Hill
#
# Bulk Modulus (GPa) = 44.13946 76.94577 60.54262
# Shear Modulus (GPa) = -115.62741 30.92921 -42.34910
#
# Velocity S-wave (km/s) = -7.44871 3.85243 -4.50788
# Velocity P-wave (km/s) = 7.26619 7.53063 1.39871
#
# Compressibility (1/GPa) = 0.02265547
#
# Stress axis : x y z
#
# Youngs Moduli (GPa) = 230.81646 49.04892 164.88166
#
# Poissons Ratio (x) = 0.08183 0.22069
# Poissons Ratio (y) = 0.38506 0.17447
# Poissons Ratio (z) = 0.30894 0.05190
#
# Static dielectric constant tensor:
#      x y z
#    x 1.711530 0.000000 0.000000 
#    y 0.000000 1.748260 0.000000 
#    z 0.000000 0.000000 1.733610 
# 
# From -- ./inp_files/43022.got.cif
#   From: 2010.05.17/outbox.cif.g08.bks.cpg/sg67_22_cif.got.tgz:43022.got - 2010.06.03 18:28:57.
