data_PCOD9500482
_publ_section_title
;
Structure prediction by ZEFSAII (Michael W. Deem and Ramdas Pophale) SiO2 
 PCOD9500482
Probable space group: C M M A
;
_chemical_formula_sum "Si O2"
_cell_formula_units_Z 96
_cell_length_a 28.491064
_cell_length_b 8.339661
_cell_length_c 24.712833
_cell_angle_alpha 90.000000
_cell_angle_beta 90.000000
_cell_angle_gamma 90.000000
_cell_volume 5871.912833
_symmetry_space_group_name_H-M "C M M A"
_symmetry_group_IT_number 67
_symmetry_cell_setting 'orthorhombic'
loop_
_space_group_symop_operation_xyz
x,y,z
-x,1/2-y,z
x,-y,-z
-x,1/2+y,-z
-x,-y,-z
x,1/2+y,-z
-x,y,z
x,1/2-y,z
1/2+x,1/2+y,z
1/2-x,-y,z
1/2+x,1/2-y,-z
1/2-x,y,-z
1/2-x,1/2-y,-z
1/2+x,y,-z
1/2-x,1/2+y,z
1/2+x,-y,z
loop_
_atom_site_type_symbol
_atom_site_label
_atom_site_fract_x
_atom_site_fract_y
_atom_site_fract_z
Si Si1 0.552835 0.945637 0.273840
Si Si2 0.894614 0.056638 0.164804
Si Si3 0.196552 0.057764 0.440791
Si Si4 0.645324 0.554351 0.333354
Si Si5 0.802272 0.943140 0.775343
Si Si6 0.946301 0.941303 0.059247
O O1 0.500000 0.001555 0.284187
O O2 0.552344 0.750000 0.274496
O O3 0.571034 0.992973 0.214134
O O4 0.592947 0.996529 0.316202
O O5 0.894691 0.250000 0.163917
O O6 0.842355 0.003664 0.182323
O O7 0.913460 0.996774 0.107886
O O8 0.196804 0.250000 0.440773
O O9 0.164522 0.999805 0.391116
O O10 0.181024 0.000000 0.500000
O O11 0.250000 0.000000 0.432602
O O12 0.645318 0.750000 0.333871
O O13 0.679777 0.504985 0.284277
O O14 0.802512 0.750000 0.775275
O O15 0.750000 0.000000 0.786590
O O16 0.947519 0.750000 0.058699
O O17 0.000000 0.001341 0.068077
O O18 0.931140 0.000000 0.000000
#
# Coordination Sequence:
#
# PCOD9500482 Si02
#       6
#    16  16  16  16  16  16
#     4   8  13  23  42  66  88 111 141 176 213 253
#     4   9  17  29  46  68  92 117 145 179 218 259
#     4  10  18  28  42  60  84 111 141 177 215 256
#     4   8  15  26  40  61  87 113 142 177 214 255
#     4   9  17  29  45  66  91 117 146 179 217 261
#     4  10  20  32  47  68  93 120 149 180 215 257
#
# _framework density 16.349015999999999
#
# number of rings (size 3 to 8) (size 9 to 14) (size 15 to 20)
#    0.000    3.000    0.000    4.500    0.000    2.333 
#    0.000    0.833    0.000    3.000    0.000    3.500 
#    0.000    0.000    0.000    0.000    0.000    0.667 
#
# Total GULP energy -267447.004486 kJ/mol
# GULP energy per Si atom -5571.812593 kJ/mol
# Density = 1.631180 g / cm^3
# Si number density = 16.349016 Si / 1000 Ang^3
#
#
#
# Elastic Constant Matrix: (Units=GPa)
#
#
# Indices 1 2 3 4 5 6 
#
# 1 137.1581 16.7707 98.0326 0.0000 0.0000 0.0000
# 2 16.7707 15.5918 21.8080 0.0000 0.0000 0.0000
# 3 98.0326 21.8080 165.3690 0.0000 0.0000 0.0000
# 4 0.0000 0.0000 0.0000 15.6068 0.0000 0.0000
# 5 0.0000 0.0000 0.0000 0.0000 24.8050 0.0000
# 6 0.0000 0.0000 0.0000 0.0000 0.0000 17.2334
#
#
#
# Elastic Compliance Matrix: (Units=1/GPa)
#
#
# Indices 1 2 3 4 5 6 
#
# 1 0.012840 -0.003880 -0.007100 0.000000 0.000000 0.000000
# 2 -0.003880 0.079814 -0.008225 0.000000 0.000000 0.000000
# 3 -0.007100 -0.008225 0.011341 0.000000 0.000000 0.000000
# 4 0.000000 0.000000 0.000000 0.064075 0.000000 0.000000
# 5 0.000000 0.000000 0.000000 0.000000 0.040314 0.000000
# 6 0.000000 0.000000 0.000000 0.000000 0.000000 0.058027
#
#
# Mechanical properties :
#
#
# Convention : Reuss Voigt Hill
#
# Bulk Modulus (GPa) = 15.24757 65.70461 40.47609
# Shear Modulus (GPa) = 15.30534 23.62954 19.46744
#
# Velocity S-wave (km/s) = 3.06300 3.80586 3.45445
# Velocity P-wave (km/s) = 4.67502 7.71937 6.38140
#
# Compressibility (1/GPa) = 0.06558423
#
# Stress axis : x y z
#
# Youngs Moduli (GPa) = 77.88202 12.52906 88.17791
#
# Poissons Ratio (x) = 0.04862 0.62606
# Poissons Ratio (y) = 0.30220 0.72528
# Poissons Ratio (z) = 0.55296 0.10305
#
# Static dielectric constant tensor:
#      x y z
#    x 1.549340 0.000000 0.000000 
#    y 0.000000 1.571570 0.000000 
#    z 0.000000 0.000000 1.538020 
# 
# From -- ./inp_files/42695.got.cif
#   From: 2010.05.17/outbox.cif.g08.bks.cpg/sg67_22_cif.got.tgz:42695.got - 2010.06.03 18:28:57.
