data_PCOD9500312
_publ_section_title
;
Structure prediction by ZEFSAII (Michael W. Deem and Ramdas Pophale) SiO2 
 PCOD9500312
Probable space group: C M M A
;
_chemical_formula_sum "Si O2"
_cell_formula_units_Z 104
_cell_length_a 27.424057
_cell_length_b 8.679926
_cell_length_c 25.482798
_cell_angle_alpha 90.000000
_cell_angle_beta 90.000000
_cell_angle_gamma 90.000000
_cell_volume 6065.894284
_symmetry_space_group_name_H-M "C M M A"
_symmetry_group_IT_number 67
_symmetry_cell_setting 'orthorhombic'
loop_
_space_group_symop_operation_xyz
x,y,z
-x,1/2-y,z
x,-y,-z
-x,1/2+y,-z
-x,-y,-z
x,1/2+y,-z
-x,y,z
x,1/2-y,z
1/2+x,1/2+y,z
1/2-x,-y,z
1/2+x,1/2-y,-z
1/2-x,y,-z
1/2-x,1/2-y,-z
1/2+x,y,-z
1/2-x,1/2+y,z
1/2+x,-y,z
loop_
_atom_site_type_symbol
_atom_site_label
_atom_site_fract_x
_atom_site_fract_y
_atom_site_fract_z
Si Si1 0.596392 0.436718 0.383521
Si Si2 0.500000 0.065264 0.558703
Si Si3 0.056623 0.065498 0.726836
Si Si4 0.442381 0.423544 0.834815
Si Si5 0.798637 0.434245 0.940612
Si Si6 0.900730 0.934533 0.941721
Si Si7 0.697373 0.935832 0.559103
O O1 0.593066 0.250000 0.386759
O O2 0.549525 0.504947 0.413687
O O3 0.588885 0.483538 0.322746
O O4 0.649021 0.480192 0.407730
O O5 0.500000 0.250000 0.558720
O O6 0.500000 0.000000 0.500000
O O7 0.055275 0.250000 0.727153
O O8 0.000000 0.013220 0.718771
O O9 0.075707 0.012356 0.783606
O O10 0.500000 0.415990 0.827265
O O11 0.421996 0.250000 0.834037
O O12 0.435247 0.483252 0.893974
O O13 0.798627 0.250000 0.941576
O O14 0.750000 0.500000 0.914388
O O15 0.848826 0.503615 0.920943
O O16 0.798178 0.500000 0.000000
O O17 0.900216 0.750000 0.947377
O O18 0.910771 0.000000 0.000000
O O19 0.700049 0.750000 0.557570
O O20 0.691065 0.000000 0.500000
O O21 0.750000 0.000000 0.578226
#
# Coordination Sequence:
#
# PCOD9500312 Si02
#       7
#    16   8  16  16  16  16  16
#     4  10  20  36  55  77 107 140 175 219 266 312
#     4  12  24  34  50  78 112 146 173 210 261 314
#     4   9  17  32  54  75  98 128 166 211 255 305
#     4   9  19  34  50  70  99 131 166 209 252 296
#     4  10  17  27  44  66  92 120 152 189 232 289
#     4  10  19  31  47  69  98 129 162 204 251 300
#     4  10  20  34  54  76 105 142 180 222 261 307
#
# _framework density 17.145040000000002
#
# number of rings (size 3 to 8) (size 9 to 14) (size 15 to 20)
#    0.000    2.154    0.769    5.308    0.000    4.615 
#    0.000    0.000    0.000    0.923    0.000    4.308 
#    0.000    0.000    0.000    0.000    0.000    0.000 
#
# Total GULP energy -289495.686020 kJ/mol
# GULP energy per Si atom -5567.224731 kJ/mol
# Density = 1.710602 g / cm^3
# Si number density = 17.145040 Si / 1000 Ang^3
#
#
#
# Elastic Constant Matrix: (Units=GPa)
#
#
# Indices 1 2 3 4 5 6 
#
# 1 97.1961 33.4864 60.9974 0.0000 0.0000 0.0000
# 2 33.4864 51.4523 39.7259 0.0000 0.0000 0.0000
# 3 60.9974 39.7259 129.6946 0.0000 0.0000 0.0000
# 4 0.0000 0.0000 0.0000 25.1851 0.0000 0.0000
# 5 0.0000 0.0000 0.0000 0.0000 20.4428 0.0000
# 6 0.0000 0.0000 0.0000 0.0000 0.0000 19.9215
#
#
#
# Elastic Compliance Matrix: (Units=1/GPa)
#
#
# Indices 1 2 3 4 5 6 
#
# 1 0.015891 -0.005988 -0.005640 0.000000 0.000000 0.000000
# 2 -0.005988 0.027712 -0.005672 0.000000 0.000000 0.000000
# 3 -0.005640 -0.005672 0.012100 0.000000 0.000000 0.000000
# 4 0.000000 0.000000 0.000000 0.039706 0.000000 0.000000
# 5 0.000000 0.000000 0.000000 0.000000 0.048917 0.000000
# 6 0.000000 0.000000 0.000000 0.000000 0.000000 0.050197
#
#
# Mechanical properties :
#
#
# Convention : Reuss Voigt Hill
#
# Bulk Modulus (GPa) = 47.38474 60.75138 54.06806
# Shear Modulus (GPa) = 21.17247 22.71879 21.94563
#
# Velocity S-wave (km/s) = 3.51793 3.64413 3.58159
# Velocity P-wave (km/s) = 6.64821 7.29500 6.97910
#
# Compressibility (1/GPa) = 0.02110384
#
# Stress axis : x y z
#
# Youngs Moduli (GPa) = 62.93028 36.08568 82.64346
#
# Poissons Ratio (x) = 0.21607 0.46607
# Poissons Ratio (y) = 0.37681 0.46876
# Poissons Ratio (z) = 0.35490 0.20468
#
# Static dielectric constant tensor:
#      x y z
#    x 1.659270 0.000000 0.000000 
#    y 0.000000 1.601300 0.000000 
#    z 0.000000 0.000000 1.568990 
# 
# From -- ./inp_files/42948.got.cif
#   From: 2010.05.17/outbox.cif.g08.bks.cpg/sg67_22_cif.got.tgz:42948.got - 2010.06.03 18:28:57.
