data_PCOD9500622
_publ_section_title
;
Structure prediction by ZEFSAII (Michael W. Deem and Ramdas Pophale) SiO2 
 PCOD9500622
Probable space group: C M M A
;
_chemical_formula_sum "Si O2"
_cell_formula_units_Z 104
_cell_length_a 31.009218
_cell_length_b 21.084408
_cell_length_c 8.999326
_cell_angle_alpha 90.000000
_cell_angle_beta 90.000000
_cell_angle_gamma 90.000000
_cell_volume 5883.858368
_symmetry_space_group_name_H-M "C M M A"
_symmetry_group_IT_number 67
_symmetry_cell_setting 'orthorhombic'
loop_
_space_group_symop_operation_xyz
x,y,z
-x,1/2-y,z
x,-y,-z
-x,1/2+y,-z
-x,-y,-z
x,1/2+y,-z
-x,y,z
x,1/2-y,z
1/2+x,1/2+y,z
1/2-x,-y,z
1/2+x,1/2-y,-z
1/2-x,y,-z
1/2-x,1/2-y,-z
1/2+x,y,-z
1/2-x,1/2+y,z
1/2+x,-y,z
loop_
_atom_site_type_symbol
_atom_site_label
_atom_site_fract_x
_atom_site_fract_y
_atom_site_fract_z
Si Si1 0.747395 0.172885 0.171258
Si Si2 0.165035 0.173277 0.325601
Si Si3 0.077741 0.674750 0.840495
Si Si4 0.500000 0.472564 0.166446
Si Si5 0.657115 0.172889 0.328016
Si Si6 0.070277 0.635584 0.182503
Si Si7 0.000000 0.103603 0.320982
Si Si8 0.000000 0.682842 0.395881
O O1 0.748828 0.250000 0.170344
O O2 0.789417 0.150326 0.260879
O O3 0.702564 0.156705 0.250825
O O4 0.750000 0.152093 0.000000
O O5 0.166777 0.250000 0.322446
O O6 0.124611 0.155482 0.222548
O O7 0.158326 0.156480 0.497573
O O8 0.072268 0.750000 0.814361
O O9 0.041587 0.635676 0.754224
O O10 0.072797 0.661218 0.015015
O O11 0.457326 0.429210 0.181763
O O12 0.500000 0.529695 0.283074
O O13 0.500000 0.500000 0.000000
O O14 0.650835 0.250000 0.313728
O O15 0.618010 0.136947 0.248791
O O16 0.041366 0.678963 0.290367
O O17 0.000000 0.124290 0.491950
O O18 0.000000 0.750000 0.479704
#
# Coordination Sequence:
#
# PCOD9500622 Si02
#       8
#    16  16  16   8  16  16   8   8
#     4   9  16  27  45  71 109 152 185 215 263 338
#     4   9  18  30  46  74 113 151 180 216 271 341
#     4  11  20  32  53  80 108 141 183 225 281 339
#     4  11  23  45  58  76 106 146 198 240 273 329
#     4  10  18  30  48  76 111 144 184 229 282 337
#     4  11  22  35  56  76 108 149 184 232 277 327
#     4  12  23  38  58  77 106 144 183 233 280 324
#     4  11  22  36  54  83 115 139 173 225 288 344
#
# _framework density 17.675477000000001
#
# number of rings (size 3 to 8) (size 9 to 14) (size 15 to 20)
#    0.000    1.692    1.538    4.846    0.000    6.769 
#    0.000    0.000    0.000    0.000    0.000    1.077 
#    0.000    2.462    0.000    0.000    0.000    0.000 
#
# Total GULP energy -290205.963388 kJ/mol
# GULP energy per Si atom -5580.883911 kJ/mol
# Density = 1.763525 g / cm^3
# Si number density = 17.675477 Si / 1000 Ang^3
#
#
#
# Elastic Constant Matrix: (Units=GPa)
#
#
# Indices 1 2 3 4 5 6 
#
# 1 158.6528 38.1221 53.7771 0.0000 0.0000 0.0000
# 2 38.1221 69.4580 24.1762 0.0000 0.0000 0.0000
# 3 53.7771 24.1762 109.7807 0.0000 0.0000 0.0000
# 4 0.0000 0.0000 0.0000 21.4981 0.0000 0.0000
# 5 0.0000 0.0000 0.0000 0.0000 74.5227 0.0000
# 6 0.0000 0.0000 0.0000 0.0000 0.0000 8.9912
#
#
#
# Elastic Compliance Matrix: (Units=1/GPa)
#
#
# Indices 1 2 3 4 5 6 
#
# 1 0.008228 -0.003371 -0.003288 0.000000 0.000000 0.000000
# 2 -0.003371 0.016974 -0.002087 0.000000 0.000000 0.000000
# 3 -0.003288 -0.002087 0.011179 0.000000 0.000000 0.000000
# 4 0.000000 0.000000 0.000000 0.046516 0.000000 0.000000
# 5 0.000000 0.000000 0.000000 0.000000 0.013419 0.000000
# 6 0.000000 0.000000 0.000000 0.000000 0.000000 0.111220
#
#
# Mechanical properties :
#
#
# Convention : Reuss Voigt Hill
#
# Bulk Modulus (GPa) = 52.94077 63.33805 58.13941
# Shear Modulus (GPa) = 21.61478 35.79014 28.70246
#
# Velocity S-wave (km/s) = 3.50075 4.50471 4.03408
# Velocity P-wave (km/s) = 6.80859 7.93525 7.39341
#
# Compressibility (1/GPa) = 0.01888903
#
# Stress axis : x y z
#
# Youngs Moduli (GPa) = 121.54152 58.91433 89.45181
#
# Poissons Ratio (x) = 0.19862 0.29411
# Poissons Ratio (y) = 0.40976 0.18664
# Poissons Ratio (z) = 0.39962 0.12293
#
# Static dielectric constant tensor:
#      x y z
#    x 1.601470 0.000000 0.000000 
#    y 0.000000 1.591620 0.000000 
#    z 0.000000 0.000000 1.609000 
# 
# From -- ./inp_files/13828.got.cif
#   From: 2010.05.17/outbox.cif.g08.bks.cpg/sg67_7_cif.got.tgz:13828.got - 2010.06.03 18:28:57.
