data_PCOD9500098
_publ_section_title
;
Structure prediction by ZEFSAII (Michael W. Deem and Ramdas Pophale) SiO2 
 PCOD9500098
Probable space group: C C C M
;
_chemical_formula_sum "Si O2"
_cell_formula_units_Z 60
_cell_length_a 12.000000
_cell_length_b 21.000000
_cell_length_c 24.000000
_cell_angle_alpha 90.000000
_cell_angle_beta 90.000000
_cell_angle_gamma 90.000000
_cell_volume 6048.000000
_symmetry_space_group_name_H-M "C C C M"
_symmetry_group_IT_number 66
_symmetry_cell_setting 'orthorhombic'
loop_
_space_group_symop_operation_xyz
x,y,z
-x,-y,z
x,-y,1/2-z
-x,y,1/2-z
-x,-y,-z
x,y,-z
-x,y,1/2+z
x,-y,1/2+z
1/2+x,1/2+y,z
1/2-x,1/2-y,z
1/2+x,1/2-y,1/2-z
1/2-x,1/2+y,1/2-z
1/2-x,1/2-y,-z
1/2+x,1/2+y,-z
1/2-x,1/2+y,1/2+z
1/2+x,1/2-y,1/2+z
loop_
_atom_site_type_symbol
_atom_site_label
_atom_site_fract_x
_atom_site_fract_y
_atom_site_fract_z
Si Si1 0.495792 0.072922 0.113045
Si Si2 0.333234 0.935883 0.717933
Si Si3 0.847984 0.327247 0.563639
Si Si4 0.250000 0.250000 0.382972
Si Si5 0.125813 0.003340 0.839368
Si Si6 0.877236 0.897232 0.066964
Si Si7 0.988057 0.778423 0.566841
Si Si8 0.281506 0.882613 0.170465
O O1 0.415737 0.077413 0.167436
O O2 0.439386 0.117279 0.067635
O O3 0.617165 0.095172 0.131195
O O4 0.500000 0.000000 0.095415
O O5 0.210035 0.952203 0.695531
O O6 0.324449 0.884367 0.766096
O O7 0.371275 0.000000 0.750000
O O8 0.822537 0.310562 0.500000
O O9 0.733101 0.357339 0.585039
O O10 0.912514 0.267136 0.589744
O O11 0.133690 0.246011 0.416494
O O12 0.247751 0.186999 0.346486
O O13 0.121000 0.036846 0.899930
O O14 0.184723 0.934811 0.837439
O O15 0.000000 0.000000 0.818159
O O16 0.981335 0.851296 0.081396
O O17 0.873071 0.906605 0.000000
O O18 0.994722 0.774931 0.500000
#
# Coordination Sequence:
#
# PCOD9500098 Si02
#       8
#    16  16  16   8  16  16  16  16
#     4  12  19  37  64  90 116 152 198 248 300 350
#     4  10  21  37  62  86 110 151 199 249 289 353
#     4  10  20  36  59  90 122 153 197 248 299 355
#     4  12  23  42  58  86 126 158 195 248 298 362
#     4  11  22  39  61  89 119 157 200 243 300 356
#     4  10  20  38  62  90 121 154 200 251 297 354
#     4  10  21  38  61  85 118 166 204 234 291 368
#     4  11  24  38  62  87 117 158 197 246 301 356
#
# _framework density 9.9206350000000008
#
# number of rings (size 3 to 8) (size 9 to 14) (size 15 to 20)
#    0.000    1.333    5.333    1.800    0.000    4.533 
#    0.000    3.333    2.933    0.000    0.000    0.000 
#    0.000    0.000    0.000    0.000    0.000    0.000 
#
# Total GULP energy -334738.850291 kJ/mol
# GULP energy per Si atom -5578.980838 kJ/mol
# Density = 0.989806 g / cm^3
# Si number density = 9.920635 Si / 1000 Ang^3
#
#
#
# Elastic Constant Matrix: (Units=GPa)
#
#
# Indices 1 2 3 4 5 6 
#
# 1 101.9199 8.7641 -0.6106 0.0000 0.0000 0.0000
# 2 8.7641 84.8875 18.4590 0.0000 0.0000 0.0000
# 3 -0.6106 18.4590 39.1404 0.0000 0.0000 0.0000
# 4 0.0000 0.0000 0.0000 21.2797 0.0000 0.0000
# 5 0.0000 0.0000 0.0000 0.0000 22.3242 0.0000
# 6 0.0000 0.0000 0.0000 0.0000 0.0000 26.6533
#
#
#
# Elastic Compliance Matrix: (Units=1/GPa)
#
#
# Indices 1 2 3 4 5 6 
#
# 1 0.009917 -0.001178 0.000710 0.000000 0.000000 0.000000
# 2 -0.001178 0.013266 -0.006275 0.000000 0.000000 0.000000
# 3 0.000710 -0.006275 0.028519 0.000000 0.000000 0.000000
# 4 0.000000 0.000000 0.000000 0.046993 0.000000 0.000000
# 5 0.000000 0.000000 0.000000 0.000000 0.044794 0.000000
# 6 0.000000 0.000000 0.000000 0.000000 0.000000 0.037519
#
#
# Mechanical properties :
#
#
# Convention : Reuss Voigt Hill
#
# Bulk Modulus (GPa) = 26.16617 31.01922 28.59269
# Shear Modulus (GPa) = 24.12726 27.34046 25.73386
#
# Velocity S-wave (km/s) = 3.49092 3.71611 3.60528
# Velocity P-wave (km/s) = 5.42818 5.83783 5.63673
#
# Compressibility (1/GPa) = 0.03821729
#
# Stress axis : x y z
#
# Youngs Moduli (GPa) = 100.83480 75.37801 35.06379
#
# Poissons Ratio (x) = 0.08882 -0.02491
# Poissons Ratio (y) = 0.11882 0.22002
# Poissons Ratio (z) = -0.07164 0.47300
#
# Static dielectric constant tensor:
#      x y z
#    x 1.720850 0.000000 0.000000 
#    y 0.000000 1.724680 0.000000 
#    z 0.000000 0.000000 1.704680 
# 
# From -- ./inp_files/57238.got.cif
#   From: 2010.05.17/outbox.ucp.g08.bks.cvg/sg66_29_cif.got.tgz:57238.got - 2010.06.11 16:44:13.
