data_PCOD9500466
_publ_section_title
;
Structure prediction by ZEFSAII (Michael W. Deem and Ramdas Pophale) SiO2 
 PCOD9500466
Probable space group: C M M A
;
_chemical_formula_sum "Si O2"
_cell_formula_units_Z 120
_cell_length_a 25.947826
_cell_length_b 24.514179
_cell_length_c 11.367925
_cell_angle_alpha 90.000000
_cell_angle_beta 90.000000
_cell_angle_gamma 90.000000
_cell_volume 7231.019448
_symmetry_space_group_name_H-M "C M M A"
_symmetry_group_IT_number 67
_symmetry_cell_setting 'orthorhombic'
loop_
_space_group_symop_operation_xyz
x,y,z
-x,1/2-y,z
x,-y,-z
-x,1/2+y,-z
-x,-y,-z
x,1/2+y,-z
-x,y,z
x,1/2-y,z
1/2+x,1/2+y,z
1/2-x,-y,z
1/2+x,1/2-y,-z
1/2-x,y,-z
1/2-x,1/2-y,-z
1/2+x,y,-z
1/2-x,1/2+y,z
1/2+x,-y,z
loop_
_atom_site_type_symbol
_atom_site_label
_atom_site_fract_x
_atom_site_fract_y
_atom_site_fract_z
Si Si1 0.805681 0.528251 0.772748
Si Si2 0.882573 0.813278 0.216478
Si Si3 0.614316 0.464980 0.391482
Si Si4 0.128474 0.500000 0.000000
Si Si5 0.720275 0.853236 0.326167
Si Si6 0.774772 0.312824 0.887725
Si Si7 0.167142 0.147682 0.555746
Si Si8 0.060131 0.422041 0.837234
O O1 0.750000 0.500000 0.784460
O O2 0.839547 0.496613 0.675207
O O3 0.797743 0.589450 0.726905
O O4 0.836021 0.524494 0.896063
O O5 0.894099 0.750000 0.187668
O O6 0.829909 0.834300 0.153308
O O7 0.866426 0.816259 0.354491
O O8 0.924064 0.858484 0.180360
O O9 0.593455 0.500000 0.500000
O O10 0.638510 0.410008 0.444824
O O11 0.574658 0.449570 0.288331
O O12 0.093536 0.453666 0.936314
O O13 0.733828 0.814974 0.217129
O O14 0.776271 0.860448 0.387120
O O15 0.680273 0.832698 0.424352
O O16 0.785922 0.250000 0.916656
O O17 0.750000 0.341376 0.000000
O O18 0.000000 0.427250 0.862780
#
# Coordination Sequence:
#
# PCOD9500466 Si02
#       8
#    16  16  16   8  16  16  16  16
#     4  11  20  29  46  76 108 142 169 201 239 307
#     4   9  19  35  54  77 103 132 171 219 265 316
#     4  10  18  31  49  73 105 133 166 201 259 308
#     4  10  24  36  50  74 106 142 174 212 272 314
#     4  10  18  26  47  69 101 143 173 197 234 295
#     4   9  19  32  46  68 104 140 167 203 245 295
#     4   9  17  29  44  73 104 137 165 201 246 293
#     4  10  22  39  56  74  98 131 176 229 279 318
#
# _framework density 16.59517
#
# number of rings (size 3 to 8) (size 9 to 14) (size 15 to 20)
#    0.000    2.267    2.667    0.400    3.733    1.333 
#    0.000    2.667    0.000    0.000    0.000    0.000 
#    0.000    0.000    0.000    0.000    0.000    0.000 
#
# Total GULP energy -334110.160647 kJ/mol
# GULP energy per Si atom -5568.502677 kJ/mol
# Density = 1.655740 g / cm^3
# Si number density = 16.595170 Si / 1000 Ang^3
#
#
#
# Elastic Constant Matrix: (Units=GPa)
#
#
# Indices 1 2 3 4 5 6 
#
# 1 59.5394 20.1123 23.8989 0.0000 0.0000 0.0000
# 2 20.1123 59.6100 14.7925 0.0000 0.0000 0.0000
# 3 23.8989 14.7925 87.2702 0.0000 0.0000 0.0000
# 4 0.0000 0.0000 0.0000 10.7174 0.0000 0.0000
# 5 0.0000 0.0000 0.0000 0.0000 8.9503 0.0000
# 6 0.0000 0.0000 0.0000 0.0000 0.0000 13.6499
#
#
#
# Elastic Compliance Matrix: (Units=1/GPa)
#
#
# Indices 1 2 3 4 5 6 
#
# 1 0.020628 -0.005802 -0.004666 0.000000 0.000000 0.000000
# 2 -0.005802 0.019144 -0.001656 0.000000 0.000000 0.000000
# 3 -0.004666 -0.001656 0.013017 0.000000 0.000000 0.000000
# 4 0.000000 0.000000 0.000000 0.093307 0.000000 0.000000
# 5 0.000000 0.000000 0.000000 0.000000 0.111728 0.000000
# 6 0.000000 0.000000 0.000000 0.000000 0.000000 0.073261
#
#
# Mechanical properties :
#
#
# Convention : Reuss Voigt Hill
#
# Bulk Modulus (GPa) = 35.03606 36.00298 35.51952
# Shear Modulus (GPa) = 13.70438 16.50457 15.10448
#
# Velocity S-wave (km/s) = 2.87680 3.15706 3.02018
# Velocity P-wave (km/s) = 5.67386 5.91872 5.79758
#
# Compressibility (1/GPa) = 0.02854202
#
# Stress axis : x y z
#
# Youngs Moduli (GPa) = 48.47706 52.23484 76.82239
#
# Poissons Ratio (x) = 0.30308 0.35842
# Poissons Ratio (y) = 0.28127 0.12722
# Poissons Ratio (z) = 0.22617 0.08650
#
# Static dielectric constant tensor:
#      x y z
#    x 1.541170 0.000000 0.000000 
#    y 0.000000 1.564830 0.000000 
#    z 0.000000 0.000000 1.602040 
# 
# From -- ./inp_files/22335.got.cif
#   From: 2010.05.17/outbox.cif.g08.bks.cpg/sg67_12_cif.got.tgz:22335.got - 2010.06.03 18:28:57.
