data_PCOD9500936
_publ_section_title
;
Structure prediction by ZEFSAII (Michael W. Deem and Ramdas Pophale) SiO2 
 PCOD9500936
Probable space group: C M M A
;
_chemical_formula_sum "Si O2"
_cell_formula_units_Z 88
_cell_length_a 27.983924
_cell_length_b 10.268887
_cell_length_c 16.909826
_cell_angle_alpha 90.000000
_cell_angle_beta 90.000000
_cell_angle_gamma 90.000000
_cell_volume 4859.271068
_symmetry_space_group_name_H-M "C M M A"
_symmetry_group_IT_number 67
_symmetry_cell_setting 'orthorhombic'
loop_
_space_group_symop_operation_xyz
x,y,z
-x,1/2-y,z
x,-y,-z
-x,1/2+y,-z
-x,-y,-z
x,1/2+y,-z
-x,y,z
x,1/2-y,z
1/2+x,1/2+y,z
1/2-x,-y,z
1/2+x,1/2-y,-z
1/2-x,y,-z
1/2-x,1/2-y,-z
1/2+x,y,-z
1/2-x,1/2+y,z
1/2+x,-y,z
loop_
_atom_site_type_symbol
_atom_site_label
_atom_site_fract_x
_atom_site_fract_y
_atom_site_fract_z
Si Si1 0.136366 0.518583 0.302188
Si Si2 0.945494 0.402807 0.574250
Si Si3 0.206216 0.250000 0.749011
Si Si4 0.317601 0.750000 0.274122
Si Si5 0.000000 0.603109 0.068844
Si Si6 0.830286 0.250000 0.921849
Si Si7 0.600247 0.481740 0.127031
Si Si8 0.644366 0.250000 0.907916
O O1 0.097603 0.562463 0.366524
O O2 0.177120 0.625985 0.284300
O O3 0.160780 0.378673 0.314499
O O4 0.108826 0.504676 0.219623
O O5 0.942180 0.500000 0.500000
O O6 0.941192 0.250000 0.551758
O O7 0.000000 0.418828 0.607472
O O8 0.260591 0.250000 0.722076
O O9 0.205178 0.250000 0.846027
O O10 0.331249 0.750000 0.179347
O O11 0.951960 0.574890 0.115681
O O12 0.000000 0.750000 0.039176
O O13 0.000000 0.500000 0.000000
O O14 0.862267 0.377714 0.906779
O O15 0.819844 0.250000 0.016213
O O16 0.611434 0.621284 0.088200
#
# Coordination Sequence:
#
# PCOD9500936 Si02
#       8
#    16  16   8   8   8   8  16   8
#     4  10  21  40  60  89 118 157 195 240 293 348
#     4  10  22  40  67  97 125 154 187 232 288 353
#     4  10  20  37  61  87 115 155 212 246 301 347
#     4  10  22  37  59  87 119 161 200 252 299 349
#     4  12  24  34  50  74 107 148 196 245 292 343
#     4  10  18  34  54  77 108 148 199 254 296 350
#     4  10  22  34  52  76 107 153 196 239 287 349
#     4  10  20  36  52  75 114 148 197 252 312 338
#
# _framework density 18.109711999999998
#
# number of rings (size 3 to 8) (size 9 to 14) (size 15 to 20)
#    0.000    1.818    1.818    2.182    3.818    0.364 
#    0.000    0.000    0.000    9.818    0.000    0.000 
#    0.000    0.000    0.000    0.000    0.000    0.000 
#
# Total GULP energy -245351.128945 kJ/mol
# GULP energy per Si atom -5576.162021 kJ/mol
# Density = 1.806849 g / cm^3
# Si number density = 18.109712 Si / 1000 Ang^3
#
#
#
# Elastic Constant Matrix: (Units=GPa)
#
#
# Indices 1 2 3 4 5 6 
#
# 1 95.3611 48.4036 31.6696 0.0000 0.0000 0.0000
# 2 48.4036 167.8617 32.0467 0.0000 0.0000 0.0000
# 3 31.6696 32.0467 59.5879 0.0000 0.0000 0.0000
# 4 0.0000 0.0000 0.0000 13.1938 0.0000 0.0000
# 5 0.0000 0.0000 0.0000 0.0000 16.6267 0.0000
# 6 0.0000 0.0000 0.0000 0.0000 0.0000 31.4821
#
#
#
# Elastic Compliance Matrix: (Units=1/GPa)
#
#
# Indices 1 2 3 4 5 6 
#
# 1 0.013890 -0.002893 -0.005826 0.000000 0.000000 0.000000
# 2 -0.002893 0.007241 -0.002357 0.000000 0.000000 0.000000
# 3 -0.005826 -0.002357 0.021146 0.000000 0.000000 0.000000
# 4 0.000000 0.000000 0.000000 0.075793 0.000000 0.000000
# 5 0.000000 0.000000 0.000000 0.000000 0.060144 0.000000
# 6 0.000000 0.000000 0.000000 0.000000 0.000000 0.031764
#
#
# Mechanical properties :
#
#
# Convention : Reuss Voigt Hill
#
# Bulk Modulus (GPa) = 49.68952 60.78340 55.23646
# Shear Modulus (GPa) = 20.93455 26.30656 23.62056
#
# Velocity S-wave (km/s) = 3.40367 3.81546 3.61543
# Velocity P-wave (km/s) = 6.55318 7.28335 6.92789
#
# Compressibility (1/GPa) = 0.02012497
#
# Stress axis : x y z
#
# Youngs Moduli (GPa) = 71.99558 138.09434 47.29007
#
# Poissons Ratio (x) = 0.39949 0.27553
# Poissons Ratio (y) = 0.20827 0.11146
# Poissons Ratio (z) = 0.41947 0.32549
#
# Static dielectric constant tensor:
#      x y z
#    x 1.582450 0.000000 0.000000 
#    y 0.000000 1.613710 0.000000 
#    z 0.000000 0.000000 1.629610 
# 
# From -- ./inp_files/36253.got.cif
#   From: 2010.05.17/outbox.cif.g08.bks.cpg/sg67_19_cif.got.tgz:36253.got - 2010.06.03 18:28:57.
