data_PCOD9500472
_publ_section_title
;
Structure prediction by ZEFSAII (Michael W. Deem and Ramdas Pophale) SiO2 
 PCOD9500472
Probable space group: C M M A
;
_chemical_formula_sum "Si O2"
_cell_formula_units_Z 96
_cell_length_a 34.097396
_cell_length_b 7.550634
_cell_length_c 19.303699
_cell_angle_alpha 90.000000
_cell_angle_beta 90.000000
_cell_angle_gamma 90.000000
_cell_volume 4969.871614
_symmetry_space_group_name_H-M "C M M A"
_symmetry_group_IT_number 67
_symmetry_cell_setting 'orthorhombic'
loop_
_space_group_symop_operation_xyz
x,y,z
-x,1/2-y,z
x,-y,-z
-x,1/2+y,-z
-x,-y,-z
x,1/2+y,-z
-x,y,z
x,1/2-y,z
1/2+x,1/2+y,z
1/2-x,-y,z
1/2+x,1/2-y,-z
1/2-x,y,-z
1/2-x,1/2-y,-z
1/2+x,y,-z
1/2-x,1/2+y,z
1/2+x,-y,z
loop_
_atom_site_type_symbol
_atom_site_label
_atom_site_fract_x
_atom_site_fract_y
_atom_site_fract_z
Si Si1 0.000000 0.537205 0.582443
Si Si2 0.585342 0.462863 0.918893
Si Si3 0.294564 0.961888 0.288370
Si Si4 0.661864 0.038504 0.578492
Si Si5 0.872367 0.033597 0.214571
Si Si6 0.000000 0.461407 0.081837
Si Si7 0.918011 0.966123 0.648418
O O1 0.000000 0.500000 0.500000
O O2 0.960028 0.472336 0.619756
O O3 0.000000 0.750000 0.589443
O O4 0.584028 0.250000 0.914518
O O5 0.615913 0.526786 0.861897
O O6 0.542233 0.530385 0.895480
O O7 0.592381 0.500000 0.000000
O O8 0.297693 0.750000 0.289126
O O9 0.307029 0.027896 0.364870
O O10 0.329311 0.026239 0.238331
O O11 0.250000 0.000000 0.269967
O O12 0.660371 0.250000 0.585624
O O13 0.618142 0.975559 0.599265
O O14 0.671937 0.000000 0.500000
O O15 0.872196 0.250000 0.214542
O O16 0.903953 0.982902 0.274076
O O17 0.000000 0.250000 0.093900
O O18 0.000000 0.500000 0.000000
O O19 0.919168 0.750000 0.647673
#
# Coordination Sequence:
#
# PCOD9500472 Si02
#       7
#     8  16  16  16  16   8  16
#     4  10  18  27  43  65  88 116 152 190 219 247
#     4   9  16  27  45  68  93 119 146 177 213 253
#     4   9  18  32  48  65  85 110 141 177 217 260
#     4   9  17  29  44  62  86 113 140 174 216 259
#     4   8  15  29  47  65  87 115 145 178 216 256
#     4   8  14  23  37  61  89 114 139 166 198 237
#     4   8  15  27  42  62  86 114 149 183 213 248
#
# _framework density 19.316393999999999
#
# number of rings (size 3 to 8) (size 9 to 14) (size 15 to 20)
#    0.000    3.333    0.000    2.500    0.000    1.667 
#    0.000    5.833    0.000    3.500    0.000    4.667 
#    0.000    0.000    0.000    0.000    0.000    0.000 
#
# Total GULP energy -267327.719373 kJ/mol
# GULP energy per Si atom -5569.327487 kJ/mol
# Density = 1.927243 g / cm^3
# Si number density = 19.316394 Si / 1000 Ang^3
#
#
#
# Elastic Constant Matrix: (Units=GPa)
#
#
# Indices 1 2 3 4 5 6 
#
# 1 163.8395 7.1274 95.0833 0.0000 0.0000 0.0000
# 2 7.1274 43.9889 2.3115 0.0000 0.0000 0.0000
# 3 95.0833 2.3115 142.6361 0.0000 0.0000 0.0000
# 4 0.0000 0.0000 0.0000 13.9155 0.0000 0.0000
# 5 0.0000 0.0000 0.0000 0.0000 15.2530 0.0000
# 6 0.0000 0.0000 0.0000 0.0000 0.0000 8.9354
#
#
#
# Elastic Compliance Matrix: (Units=1/GPa)
#
#
# Indices 1 2 3 4 5 6 
#
# 1 0.010026 -0.001274 -0.006663 0.000000 0.000000 0.000000
# 2 -0.001274 0.022914 0.000478 0.000000 0.000000 0.000000
# 3 -0.006663 0.000478 0.011444 0.000000 0.000000 0.000000
# 4 0.000000 0.000000 0.000000 0.071863 0.000000 0.000000
# 5 0.000000 0.000000 0.000000 0.000000 0.065561 0.000000
# 6 0.000000 0.000000 0.000000 0.000000 0.000000 0.111915
#
#
# Mechanical properties :
#
#
# Convention : Reuss Voigt Hill
#
# Bulk Modulus (GPa) = 33.93634 62.16766 48.05200
# Shear Modulus (GPa) = 15.70045 24.01691 19.85868
#
# Velocity S-wave (km/s) = 2.85407 3.52993 3.20984
# Velocity P-wave (km/s) = 5.33552 6.99054 6.21834
#
# Compressibility (1/GPa) = 0.02946694
#
# Stress axis : x y z
#
# Youngs Moduli (GPa) = 99.74549 43.64074 87.37876
#
# Poissons Ratio (x) = 0.05561 0.58216
# Poissons Ratio (y) = 0.12711 -0.04178
# Poissons Ratio (z) = 0.66456 -0.02087
#
# Static dielectric constant tensor:
#      x y z
#    x 1.695190 0.000000 0.000000 
#    y 0.000000 1.787330 0.000000 
#    z 0.000000 0.000000 1.664480 
# 
# From -- ./inp_files/26400.got.cif
#   From: 2010.05.17/outbox.cif.g08.bks.cpg/sg67_14_cif.got.tgz:26400.got - 2010.06.03 18:28:57.
