data_PCOD9500354
_publ_section_title
;
Structure prediction by ZEFSAII (Michael W. Deem and Ramdas Pophale) SiO2 
 PCOD9500354
Probable space group: C M M A
;
_chemical_formula_sum "Si O2"
_cell_formula_units_Z 112
_cell_length_a 16.069318
_cell_length_b 27.544315
_cell_length_c 12.764578
_cell_angle_alpha 90.000000
_cell_angle_beta 90.000000
_cell_angle_gamma 90.000000
_cell_volume 5649.836540
_symmetry_space_group_name_H-M "C M M A"
_symmetry_group_IT_number 67
_symmetry_cell_setting 'orthorhombic'
loop_
_space_group_symop_operation_xyz
x,y,z
-x,1/2-y,z
x,-y,-z
-x,1/2+y,-z
-x,-y,-z
x,1/2+y,-z
-x,y,z
x,1/2-y,z
1/2+x,1/2+y,z
1/2-x,-y,z
1/2+x,1/2-y,-z
1/2-x,y,-z
1/2-x,1/2-y,-z
1/2+x,y,-z
1/2-x,1/2+y,z
1/2+x,-y,z
loop_
_atom_site_type_symbol
_atom_site_label
_atom_site_fract_x
_atom_site_fract_y
_atom_site_fract_z
Si Si1 0.337834 0.025575 0.329034
Si Si2 0.261323 0.875443 0.613230
Si Si3 0.404557 0.302867 0.999587
Si Si4 0.090084 0.428508 0.330968
Si Si5 0.185625 0.352977 0.830087
Si Si6 0.856374 0.402504 0.103491
Si Si7 0.095872 0.557762 0.113473
O O1 0.325976 0.078406 0.381354
O O2 0.354230 0.030544 0.204446
O O3 0.250000 0.000000 0.344717
O O4 0.401778 0.984657 0.366202
O O5 0.250000 0.852376 0.500000
O O6 0.170407 0.898600 0.633295
O O7 0.289556 0.842779 0.711054
O O8 0.500000 0.303180 0.038846
O O9 0.391550 0.250000 0.948702
O O10 0.336279 0.310123 0.091195
O O11 0.394836 0.350005 0.926453
O O12 0.100077 0.424631 0.204887
O O13 0.000000 0.409203 0.362412
O O14 0.260995 0.387562 0.871802
O O15 0.104663 0.387079 0.842380
O O16 0.868898 0.437912 0.004251
O O17 0.000000 0.542432 0.110427
#
# Coordination Sequence:
#
# PCOD9500354 Si02
#       7
#    16  16  16  16  16  16  16
#     4   9  19  31  44  64  91 124 160 202 242 284
#     4   9  19  36  52  66  90 124 165 209 254 295
#     4  10  19  31  50  78 107 131 156 190 236 290
#     4  10  19  32  47  67  94 124 162 204 245 286
#     4   9  18  31  49  70  94 126 158 195 239 288
#     4  10  19  31  47  67  97 132 159 188 230 286
#     4  10  17  28  45  66  92 123 158 192 232 282
#
# _framework density 19.823581999999998
#
# number of rings (size 3 to 8) (size 9 to 14) (size 15 to 20)
#    0.000    2.429    0.000    5.571    0.000    4.286 
#    0.000   10.000    0.000    0.429    0.000    0.000 
#    0.000    9.143    0.000    0.000    0.000    0.000 
#
# Total GULP energy -311757.211606 kJ/mol
# GULP energy per Si atom -5567.093064 kJ/mol
# Density = 1.977846 g / cm^3
# Si number density = 19.823582 Si / 1000 Ang^3
#
#
#
# Elastic Constant Matrix: (Units=GPa)
#
#
# Indices 1 2 3 4 5 6 
#
# 1 77.6696 1.9090 3.1104 0.0000 0.0000 0.0000
# 2 1.9090 51.2410 -11.6914 0.0000 0.0000 0.0000
# 3 3.1104 -11.6914 78.6258 0.0000 0.0000 0.0000
# 4 0.0000 0.0000 0.0000 11.4508 0.0000 0.0000
# 5 0.0000 0.0000 0.0000 0.0000 1.8257 0.0000
# 6 0.0000 0.0000 0.0000 0.0000 0.0000 228.3961
#
#
#
# Elastic Compliance Matrix: (Units=1/GPa)
#
#
# Indices 1 2 3 4 5 6 
#
# 1 0.012914 -0.000619 -0.000603 0.000000 0.000000 0.000000
# 2 -0.000619 0.020231 0.003033 0.000000 0.000000 0.000000
# 3 -0.000603 0.003033 0.013193 0.000000 0.000000 0.000000
# 4 0.000000 0.000000 0.000000 0.087330 0.000000 0.000000
# 5 0.000000 0.000000 0.000000 0.000000 0.547746 0.000000
# 6 0.000000 0.000000 0.000000 0.000000 0.000000 0.004378
#
#
# Mechanical properties :
#
#
# Convention : Reuss Voigt Hill
#
# Bulk Modulus (GPa) = 20.01580 21.57694 20.79637
# Shear Modulus (GPa) = 7.15487 62.61507 34.88497
#
# Velocity S-wave (km/s) = 1.90187 5.62625 4.19951
# Velocity P-wave (km/s) = 3.86545 7.28796 5.83336
#
# Compressibility (1/GPa) = 0.04996054
#
# Stress axis : x y z
#
# Youngs Moduli (GPa) = 77.43292 49.43004 75.79617
#
# Poissons Ratio (x) = 0.03058 0.04570
# Poissons Ratio (y) = 0.04791 -0.22987
# Poissons Ratio (z) = 0.04668 -0.14991
#
# Static dielectric constant tensor:
#      x y z
#    x 1.744560 0.000000 0.000000 
#    y 0.000000 1.731250 0.000000 
#    z 0.000000 0.000000 1.758670 
# 
# From -- ./inp_files/27897.got.cif
#   From: 2010.05.17/outbox.cif.g08.bks.cpg/sg67_14_cif.got.tgz:27897.got - 2010.06.03 18:28:57.
