data_PCOD9500079
_publ_section_title
;
Structure prediction by ZEFSAII (Michael W. Deem and Ramdas Pophale) SiO2 
 PCOD9500079
Probable space group: C C C M
;
_chemical_formula_sum "Si O2"
_cell_formula_units_Z 34
_cell_length_a 9.000000
_cell_length_b 21.000000
_cell_length_c 18.000000
_cell_angle_alpha 90.000000
_cell_angle_beta 90.000000
_cell_angle_gamma 90.000000
_cell_volume 3402.000000
_symmetry_space_group_name_H-M "C C C M"
_symmetry_group_IT_number 66
_symmetry_cell_setting 'orthorhombic'
loop_
_space_group_symop_operation_xyz
x,y,z
-x,-y,z
x,-y,1/2-z
-x,y,1/2-z
-x,-y,-z
x,y,-z
-x,y,1/2+z
x,-y,1/2+z
1/2+x,1/2+y,z
1/2-x,1/2-y,z
1/2+x,1/2-y,1/2-z
1/2-x,1/2+y,1/2-z
1/2-x,1/2-y,-z
1/2+x,1/2+y,-z
1/2-x,1/2+y,1/2+z
1/2+x,1/2-y,1/2+z
loop_
_atom_site_type_symbol
_atom_site_label
_atom_site_fract_x
_atom_site_fract_y
_atom_site_fract_z
Si Si1 0.000000 0.000000 0.250000
Si Si2 0.935268 0.204953 0.582429
Si Si3 0.949163 0.644876 0.914017
Si Si4 0.738603 0.678325 0.348251
Si Si5 0.206852 0.107064 0.805654
O O1 0.893327 0.044210 0.300398
O O2 0.886775 0.185083 0.500000
O O3 0.902869 0.279961 0.590798
O O4 0.872661 0.162394 0.647873
O O5 0.109722 0.190550 0.592025
O O6 0.859889 0.603729 0.852778
O O7 0.119554 0.651097 0.890508
O O8 0.932015 0.624359 0.000000
O O9 0.750000 0.750000 0.314536
O O10 0.716340 0.631873 0.278626
#
# Coordination Sequence:
#
# PCOD9500079 Si02
#       5
#     4  16  16  16  16
#     4  12  28  44  60  80 120 176 228 270 300 344
#     4  10  19  35  62  95 131 159 189 249 319 380
#     4  10  21  36  62 100 128 151 192 256 329 384
#     4  10  19  35  62  96 129 157 190 248 319 382
#     4  12  22  40  60  82 120 167 221 253 296 361
#
# _framework density 9.9941209999999998
#
# number of rings (size 3 to 8) (size 9 to 14) (size 15 to 20)
#    0.000    1.412    2.353    4.235    0.000    8.471 
#    0.000    4.706    0.000    1.412    0.000    0.000 
#    0.000    0.000    0.000    0.000    0.000    0.000 
#
# Total GULP energy -189520.942476 kJ/mol
# GULP energy per Si atom -5574.145367 kJ/mol
# Density = 0.997137 g / cm^3
# Si number density = 9.994121 Si / 1000 Ang^3
#
#
#
# Elastic Constant Matrix: (Units=GPa)
#
#
# Indices 1 2 3 4 5 6 
#
# 1 111.6910 33.4830 34.4973 0.0000 0.0000 0.0000
# 2 33.4830 39.8864 39.7142 0.0000 0.0000 0.0000
# 3 34.4973 39.7142 114.9503 0.0000 0.0000 0.0000
# 4 0.0000 0.0000 0.0000 71.6520 0.0000 0.0000
# 5 0.0000 0.0000 0.0000 0.0000 12.6372 0.0000
# 6 0.0000 0.0000 0.0000 0.0000 0.0000 37.5301
#
#
#
# Elastic Compliance Matrix: (Units=1/GPa)
#
#
# Indices 1 2 3 4 5 6 
#
# 1 0.011967 -0.009862 -0.000184 0.000000 0.000000 0.000000
# 2 -0.009862 0.046346 -0.013052 0.000000 0.000000 0.000000
# 3 -0.000184 -0.013052 0.013264 0.000000 0.000000 0.000000
# 4 0.000000 0.000000 0.000000 0.013956 0.000000 0.000000
# 5 0.000000 0.000000 0.000000 0.000000 0.079131 0.000000
# 6 0.000000 0.000000 0.000000 0.000000 0.000000 0.026645
#
#
# Mechanical properties :
#
#
# Convention : Reuss Voigt Hill
#
# Bulk Modulus (GPa) = 39.40169 53.54631 46.47400
# Shear Modulus (GPa) = 20.32790 34.95274 27.64032
#
# Velocity S-wave (km/s) = 3.19249 4.18624 3.72267
# Velocity P-wave (km/s) = 5.77448 7.08613 6.46366
#
# Compressibility (1/GPa) = 0.02537962
#
# Stress axis : x y z
#
# Youngs Moduli (GPa) = 83.56556 21.57664 75.39155
#
# Poissons Ratio (x) = 0.21280 0.01386
# Poissons Ratio (y) = 0.82416 0.98404
# Poissons Ratio (z) = 0.01537 0.28163
#
# Static dielectric constant tensor:
#      x y z
#    x 1.921920 0.000000 0.000000 
#    y 0.000000 1.673170 0.000000 
#    z 0.000000 0.000000 1.660960 
# 
# From -- ./inp_files/36478.got.cif
#   From: 2010.05.17/outbox.ucp.g08.bks.cvg/sg66_19_cif.got.tgz:36478.got - 2010.06.11 16:44:13.
