data_PCOD9500574
_publ_section_title
;
Structure prediction by ZEFSAII (Michael W. Deem and Ramdas Pophale) SiO2 
 PCOD9500574
Probable space group: C M M A
;
_chemical_formula_sum "Si O2"
_cell_formula_units_Z 96
_cell_length_a 26.628591
_cell_length_b 15.931217
_cell_length_c 13.255807
_cell_angle_alpha 90.000000
_cell_angle_beta 90.000000
_cell_angle_gamma 90.000000
_cell_volume 5623.456146
_symmetry_space_group_name_H-M "C M M A"
_symmetry_group_IT_number 67
_symmetry_cell_setting 'orthorhombic'
loop_
_space_group_symop_operation_xyz
x,y,z
-x,1/2-y,z
x,-y,-z
-x,1/2+y,-z
-x,-y,-z
x,1/2+y,-z
-x,y,z
x,1/2-y,z
1/2+x,1/2+y,z
1/2-x,-y,z
1/2+x,1/2-y,-z
1/2-x,y,-z
1/2-x,1/2-y,-z
1/2+x,y,-z
1/2-x,1/2+y,z
1/2+x,-y,z
loop_
_atom_site_type_symbol
_atom_site_label
_atom_site_fract_x
_atom_site_fract_y
_atom_site_fract_z
Si Si1 0.559262 0.502697 0.730188
Si Si2 0.559166 0.845923 0.574238
Si Si3 0.882107 0.348449 0.365839
Si Si4 0.776021 0.652023 0.101120
Si Si5 0.789032 0.430950 0.269987
Si Si6 0.138972 0.468643 0.886167
O O1 0.500000 0.494293 0.738056
O O2 0.570031 0.578047 0.650614
O O3 0.583014 0.414286 0.694759
O O4 0.585316 0.529435 0.833919
O O5 0.500000 0.854608 0.542923
O O6 0.564146 0.750000 0.615158
O O7 0.596361 0.852753 0.479292
O O8 0.885133 0.250000 0.334431
O O9 0.825594 0.383023 0.347210
O O10 0.776598 0.750000 0.089277
O O11 0.744527 0.628912 0.200118
O O12 0.832219 0.618984 0.111177
O O13 0.750000 0.613879 0.000000
O O14 0.750000 0.500000 0.313496
O O15 0.825307 0.476551 0.188125
O O16 0.137271 0.500000 0.000000
#
# Coordination Sequence:
#
# PCOD9500574 Si02
#       6
#    16  16  16  16  16  16
#     4  10  21  35  53  78 108 142 180 222 269 326
#     4   9  18  34  57  81 105 138 181 226 271 322
#     4  10  19  32  54  83 111 138 176 224 273 322
#     4  10  18  29  51  76  98 130 173 219 265 313
#     4   9  18  31  51  76 107 140 173 218 267 322
#     4  10  19  33  50  73 101 137 174 215 262 316
#
# _framework density 17.071352000000001
#
# number of rings (size 3 to 8) (size 9 to 14) (size 15 to 20)
#    0.000    2.333    1.667    1.500    0.000    3.333 
#    0.000    0.000    0.000   17.000    0.000   32.667 
#    0.000    0.000    0.000    0.000    0.000    0.000 
#
# Total GULP energy -267273.250502 kJ/mol
# GULP energy per Si atom -5568.192719 kJ/mol
# Density = 1.703250 g / cm^3
# Si number density = 17.071352 Si / 1000 Ang^3
#
#
#
# Elastic Constant Matrix: (Units=GPa)
#
#
# Indices 1 2 3 4 5 6 
#
# 1 95.9972 58.2341 37.3180 0.0000 0.0000 0.0000
# 2 58.2341 111.2989 29.9534 0.0000 0.0000 0.0000
# 3 37.3180 29.9534 31.4884 0.0000 0.0000 0.0000
# 4 0.0000 0.0000 0.0000 16.0963 0.0000 0.0000
# 5 0.0000 0.0000 0.0000 0.0000 25.9236 0.0000
# 6 0.0000 0.0000 0.0000 0.0000 0.0000 26.0320
#
#
#
# Elastic Compliance Matrix: (Units=1/GPa)
#
#
# Indices 1 2 3 4 5 6 
#
# 1 0.021964 -0.006031 -0.020294 0.000000 0.000000 0.000000
# 2 -0.006031 0.013732 -0.005916 0.000000 0.000000 0.000000
# 3 -0.020294 -0.005916 0.061436 0.000000 0.000000 0.000000
# 4 0.000000 0.000000 0.000000 0.062126 0.000000 0.000000
# 5 0.000000 0.000000 0.000000 0.000000 0.038575 0.000000
# 6 0.000000 0.000000 0.000000 0.000000 0.000000 0.038414
#
#
# Mechanical properties :
#
#
# Convention : Reuss Voigt Hill
#
# Bulk Modulus (GPa) = 30.62599 54.42174 42.52387
# Shear Modulus (GPa) = 16.04551 21.16231 18.60391
#
# Velocity S-wave (km/s) = 3.06912 3.52467 3.30475
# Velocity P-wave (km/s) = 5.52614 6.96510 6.28693
#
# Compressibility (1/GPa) = 0.03265200
#
# Stress axis : x y z
#
# Youngs Moduli (GPa) = 45.52802 72.82136 16.27698
#
# Poissons Ratio (x) = 0.43916 0.33033
# Poissons Ratio (y) = 0.27456 0.09629
# Poissons Ratio (z) = 0.92396 0.43079
#
# Static dielectric constant tensor:
#      x y z
#    x 1.580480 0.000000 0.000000 
#    y 0.000000 1.593290 0.000000 
#    z 0.000000 0.000000 1.568770 
# 
# From -- ./inp_files/22920.got.cif
#   From: 2010.05.17/outbox.cif.g08.bks.cpg/sg67_12_cif.got.tgz:22920.got - 2010.06.03 18:28:57.
