data_PCOD9500507
_publ_section_title
;
Structure prediction by ZEFSAII (Michael W. Deem and Ramdas Pophale) SiO2 
 PCOD9500507
Probable space group: C M M A
;
_chemical_formula_sum "Si O2"
_cell_formula_units_Z 96
_cell_length_a 14.238634
_cell_length_b 14.290917
_cell_length_c 21.744293
_cell_angle_alpha 90.000000
_cell_angle_beta 90.000000
_cell_angle_gamma 90.000000
_cell_volume 4424.596945
_symmetry_space_group_name_H-M "C M M A"
_symmetry_group_IT_number 67
_symmetry_cell_setting 'orthorhombic'
loop_
_space_group_symop_operation_xyz
x,y,z
-x,1/2-y,z
x,-y,-z
-x,1/2+y,-z
-x,-y,-z
x,1/2+y,-z
-x,y,z
x,1/2-y,z
1/2+x,1/2+y,z
1/2-x,-y,z
1/2+x,1/2-y,-z
1/2-x,y,-z
1/2-x,1/2-y,-z
1/2+x,y,-z
1/2-x,1/2+y,z
1/2+x,-y,z
loop_
_atom_site_type_symbol
_atom_site_label
_atom_site_fract_x
_atom_site_fract_y
_atom_site_fract_z
Si Si1 0.894091 0.360651 0.783330
Si Si2 0.607898 0.612172 0.422206
Si Si3 0.803886 0.364628 0.909361
Si Si4 0.893869 0.635686 0.960346
Si Si5 0.236825 0.388618 0.667201
Si Si6 0.608269 0.886118 0.557506
O O1 0.905018 0.250000 0.792361
O O2 0.853667 0.398998 0.847523
O O3 0.814250 0.369149 0.731212
O O4 0.000000 0.397317 0.767729
O O5 0.500000 0.638478 0.416522
O O6 0.663825 0.642398 0.361773
O O7 0.611595 0.499118 0.432233
O O8 0.642811 0.642337 0.489834
O O9 0.802764 0.250000 0.908175
O O10 0.694958 0.393813 0.918446
O O11 0.863007 0.390332 0.970172
O O12 0.895646 0.750000 0.958350
O O13 0.000000 0.603714 0.945896
O O14 0.250000 0.500000 0.666967
O O15 0.166943 0.352540 0.614681
O O16 0.500000 0.859125 0.561411
#
# Coordination Sequence:
#
# PCOD9500507 Si02
#       6
#    16  16  16  16  16  16
#     4  10  20  33  48  67  95 129 160 189 226 276
#     4   8  14  24  40  63  88 113 144 189 240 278
#     4   8  14  24  39  62  91 121 152 187 230 277
#     4   8  12  20  38  63  88 113 146 192 239 275
#     4  10  18  28  45  68  92 118 153 194 232 269
#     4   8  13  23  41  65  88 109 143 193 241 276
#
# _framework density 21.696891999999998
#
# number of rings (size 3 to 8) (size 9 to 14) (size 15 to 20)
#    0.000    3.333    0.000    3.500    0.000    4.667 
#    0.000    0.833    0.000    3.500    0.000    4.667 
#    0.000    6.667    0.000    0.000    0.000    0.000 
#
# Total GULP energy -267395.046762 kJ/mol
# GULP energy per Si atom -5570.730141 kJ/mol
# Density = 2.164751 g / cm^3
# Si number density = 21.696892 Si / 1000 Ang^3
#
#
#
# Elastic Constant Matrix: (Units=GPa)
#
#
# Indices 1 2 3 4 5 6 
#
# 1 159.4796 7.3211 67.8047 0.0000 0.0000 0.0000
# 2 7.3211 72.3942 5.9157 0.0000 0.0000 0.0000
# 3 67.8047 5.9157 123.6501 0.0000 0.0000 0.0000
# 4 0.0000 0.0000 0.0000 17.3711 0.0000 0.0000
# 5 0.0000 0.0000 0.0000 0.0000 29.9619 0.0000
# 6 0.0000 0.0000 0.0000 0.0000 0.0000 -11.8594
#
#
#
# Elastic Compliance Matrix: (Units=1/GPa)
#
#
# Indices 1 2 3 4 5 6 
#
# 1 0.008192 -0.000463 -0.004470 0.000000 0.000000 0.000000
# 2 -0.000463 0.013894 -0.000411 0.000000 0.000000 0.000000
# 3 -0.004470 -0.000411 0.010558 0.000000 0.000000 0.000000
# 4 0.000000 0.000000 0.000000 0.057567 0.000000 0.000000
# 5 0.000000 0.000000 0.000000 0.000000 0.033376 0.000000
# 6 0.000000 0.000000 0.000000 0.000000 0.000000 -0.084321
#
#
# Mechanical properties :
#
#
# Convention : Reuss Voigt Hill
#
# Bulk Modulus (GPa) = 45.54554 57.51188 51.52871
# Shear Modulus (GPa) = 87.30215 25.39354 56.34784
#
# Velocity S-wave (km/s) = 6.35016 3.42479 5.10165
# Velocity P-wave (km/s) = 8.64889 6.49642 7.64875
#
# Compressibility (1/GPa) = 0.02195605
#
# Stress axis : x y z
#
# Youngs Moduli (GPa) = 122.06776 71.97527 94.71306
#
# Poissons Ratio (x) = 0.03334 0.42338
# Poissons Ratio (y) = 0.05654 0.03890
# Poissons Ratio (z) = 0.54565 0.02956
#
# Static dielectric constant tensor:
#      x y z
#    x 1.817850 0.000000 0.000000 
#    y 0.000000 1.895780 0.000000 
#    z 0.000000 0.000000 1.774440 
# 
# From -- ./inp_files/38388.got.cif
#   From: 2010.05.17/outbox.cif.g08.bks.cpg/sg67_20_cif.got.tgz:38388.got - 2010.06.03 18:28:57.
