data_PCOD9500661
_publ_section_title
;
Structure prediction by ZEFSAII (Michael W. Deem and Ramdas Pophale) SiO2 
 PCOD9500661
Probable space group: C M M A
;
_chemical_formula_sum "Si O2"
_cell_formula_units_Z 64
_cell_length_a 28.767537
_cell_length_b 5.630654
_cell_length_c 15.152607
_cell_angle_alpha 90.000000
_cell_angle_beta 90.000000
_cell_angle_gamma 90.000000
_cell_volume 2454.419998
_symmetry_space_group_name_H-M "C M M A"
_symmetry_group_IT_number 67
_symmetry_cell_setting 'orthorhombic'
loop_
_space_group_symop_operation_xyz
x,y,z
-x,1/2-y,z
x,-y,-z
-x,1/2+y,-z
-x,-y,-z
x,1/2+y,-z
-x,y,z
x,1/2-y,z
1/2+x,1/2+y,z
1/2-x,-y,z
1/2+x,1/2-y,-z
1/2-x,y,-z
1/2-x,1/2-y,-z
1/2+x,y,-z
1/2-x,1/2+y,z
1/2+x,-y,z
loop_
_atom_site_type_symbol
_atom_site_label
_atom_site_fract_x
_atom_site_fract_y
_atom_site_fract_z
Si Si1 0.137416 0.250000 0.513260
Si Si2 0.550380 0.250000 0.073303
Si Si3 0.315979 0.250000 0.183970
Si Si4 0.577347 0.750000 0.114354
Si Si5 0.408318 0.750000 0.701010
Si Si6 0.178096 0.250000 0.179785
Si Si7 0.741121 0.250000 0.657106
Si Si8 0.554428 0.750000 0.366162
O O1 0.162110 0.500000 0.500000
O O2 0.123054 0.250000 0.613856
O O3 0.091620 0.250000 0.448127
O O4 0.500000 0.250000 0.027967
O O5 0.553305 0.494688 0.125608
O O6 0.586362 0.250000 0.992440
O O7 0.369338 0.250000 0.220815
O O8 0.307165 0.500768 0.138113
O O9 0.280061 0.250000 0.264991
O O10 0.623221 0.750000 0.170632
O O11 0.436164 0.499150 0.686586
O O12 0.193726 0.250000 0.283307
O O13 0.750000 0.500000 0.611336
O O14 0.500000 0.750000 0.393960
#
# Coordination Sequence:
#
# PCOD9500661 Si02
#       8
#     8   8   8   8   8   8   8   8
#     4   8  16  27  42  66  89 114 157 202 244 288
#     4  10  19  33  53  77 100 129 171 207 241 281
#     4  10  19  33  50  71  99 129 162 200 240 293
#     4  10  18  30  51  77 101 129 162 208 245 276
#     4  10  19  30  47  68  94 125 164 204 242 288
#     4  10  19  32  52  76 100 125 162 200 241 293
#     4   8  16  30  49  72  93 118 155 198 236 284
#     4  10  19  31  48  67  91 125 165 207 250 293
#
# _framework density 26.075406999999998
#
# number of rings (size 3 to 8) (size 9 to 14) (size 15 to 20)
#    0.000    2.500    0.000    3.750    0.000    4.500 
#    0.000    0.000    0.000   19.500    0.000   94.500 
#    0.000  243.000    0.000    0.000    0.000    0.000 
#
# Total GULP energy -178424.390659 kJ/mol
# GULP energy per Si atom -5575.762208 kJ/mol
# Density = 2.601606 g / cm^3
# Si number density = 26.075407 Si / 1000 Ang^3
#
#
#
# Elastic Constant Matrix: (Units=GPa)
#
#
# Indices 1 2 3 4 5 6 
#
# 1 138.9044 37.0707 17.3261 0.0000 0.0000 0.0000
# 2 37.0707 347.4156 11.3195 0.0000 0.0000 0.0000
# 3 17.3261 11.3195 48.6014 0.0000 0.0000 0.0000
# 4 0.0000 0.0000 0.0000 -15.5097 0.0000 0.0000
# 5 0.0000 0.0000 0.0000 0.0000 10.4636 0.0000
# 6 0.0000 0.0000 0.0000 0.0000 0.0000 23.4830
#
#
#
# Elastic Compliance Matrix: (Units=1/GPa)
#
#
# Indices 1 2 3 4 5 6 
#
# 1 0.007718 -0.000740 -0.002579 0.000000 0.000000 0.000000
# 2 -0.000740 0.002971 -0.000428 0.000000 0.000000 0.000000
# 3 -0.002579 -0.000428 0.021595 0.000000 0.000000 0.000000
# 4 0.000000 0.000000 0.000000 -0.064476 0.000000 0.000000
# 5 0.000000 0.000000 0.000000 0.000000 0.095569 0.000000
# 6 0.000000 0.000000 0.000000 0.000000 0.000000 0.042584
#
#
# Mechanical properties :
#
#
# Convention : Reuss Voigt Hill
#
# Bulk Modulus (GPa) = 40.33893 74.03935 57.18914
# Shear Modulus (GPa) = 41.07811 34.96772 38.02291
#
# Velocity S-wave (km/s) = 3.97338 3.66597 3.82277
# Velocity P-wave (km/s) = 6.04600 6.80993 6.43930
#
# Compressibility (1/GPa) = 0.02478995
#
# Stress axis : x y z
#
# Youngs Moduli (GPa) = 129.56247 336.55680 46.30747
#
# Poissons Ratio (x) = 0.24890 0.11944
# Poissons Ratio (y) = 0.09582 0.01984
# Poissons Ratio (z) = 0.33418 0.14418
#
# Static dielectric constant tensor:
#      x y z
#    x 2.090200 0.000000 0.000000 
#    y 0.000000 2.173240 0.000000 
#    z 0.000000 0.000000 2.006800 
# 
# From -- ./inp_files/36029.got.cif
#   From: 2010.05.17/outbox.cif.g08.bks.cpg/sg67_19_cif.got.tgz:36029.got - 2010.06.03 18:28:57.
