data_PCOD9500679
_publ_section_title
;
Structure prediction by ZEFSAII (Michael W. Deem and Ramdas Pophale) SiO2 
 PCOD9500679
Probable space group: C M M A
;
_chemical_formula_sum "Si O2"
_cell_formula_units_Z 72
_cell_length_a 8.919696
_cell_length_b 21.339445
_cell_length_c 20.048094
_cell_angle_alpha 90.000000
_cell_angle_beta 90.000000
_cell_angle_gamma 90.000000
_cell_volume 3815.981522
_symmetry_space_group_name_H-M "C M M A"
_symmetry_group_IT_number 67
_symmetry_cell_setting 'orthorhombic'
loop_
_space_group_symop_operation_xyz
x,y,z
-x,1/2-y,z
x,-y,-z
-x,1/2+y,-z
-x,-y,-z
x,1/2+y,-z
-x,y,z
x,1/2-y,z
1/2+x,1/2+y,z
1/2-x,-y,z
1/2+x,1/2-y,-z
1/2-x,y,-z
1/2-x,1/2-y,-z
1/2+x,y,-z
1/2-x,1/2+y,z
1/2+x,-y,z
loop_
_atom_site_type_symbol
_atom_site_label
_atom_site_fract_x
_atom_site_fract_y
_atom_site_fract_z
Si Si1 0.820602 0.250000 0.074165
Si Si2 0.171055 0.174223 0.567464
Si Si3 0.823476 0.064745 0.790726
Si Si4 0.822942 0.122762 0.928128
Si Si5 0.320420 0.322584 0.709092
O O1 0.755899 0.185292 0.101193
O O2 0.000000 0.250000 0.074280
O O3 0.750000 0.250000 0.000000
O O4 0.164146 0.250000 0.562029
O O5 0.250000 0.150938 0.500000
O O6 0.265242 0.162265 0.634119
O O7 0.000000 0.151456 0.573594
O O8 0.804666 0.071689 0.870784
O O9 0.750494 0.125158 0.756300
O O10 0.000000 0.064757 0.776664
O O11 0.750000 0.000000 0.768028
O O12 0.000000 0.135034 0.938263
O O13 0.750000 0.108044 0.000000
O O14 0.500000 0.324946 0.713044
O O15 0.274795 0.250000 0.724222
#
# Coordination Sequence:
#
# PCOD9500679 Si02
#       5
#     8  16  16  16  16
#     4  10  18  30  52  80 110 140 173 220 277 334
#     4   9  16  28  50  82 119 155 191 235 285 333
#     4  11  25  42  60  82 113 152 193 239 292 348
#     4  10  21  37  57  82 110 144 185 234 288 345
#     4  10  21  37  59  88 119 153 195 239 286 341
#
# _framework density 18.868016999999998
#
# number of rings (size 3 to 8) (size 9 to 14) (size 15 to 20)
#    0.000    2.000    0.000    5.000    1.556    8.000 
#    0.000    2.222    0.000    0.667    0.000    4.667 
#    0.000    0.000    0.000    0.000    0.000    0.000 
#
# Total GULP energy -200864.106811 kJ/mol
# GULP energy per Si atom -5579.558523 kJ/mol
# Density = 1.882507 g / cm^3
# Si number density = 18.868017 Si / 1000 Ang^3
#
#
#
# Elastic Constant Matrix: (Units=GPa)
#
#
# Indices 1 2 3 4 5 6 
#
# 1 133.3453 67.8782 57.1072 0.0000 0.0000 0.0000
# 2 67.8782 97.0150 55.0641 0.0000 0.0000 0.0000
# 3 57.1072 55.0641 100.5790 0.0000 0.0000 0.0000
# 4 0.0000 0.0000 0.0000 5.5827 0.0000 0.0000
# 5 0.0000 0.0000 0.0000 0.0000 30.8168 0.0000
# 6 0.0000 0.0000 0.0000 0.0000 0.0000 20.5699
#
#
#
# Elastic Compliance Matrix: (Units=1/GPa)
#
#
# Indices 1 2 3 4 5 6 
#
# 1 0.012365 -0.006770 -0.003314 0.000000 0.000000 0.000000
# 2 -0.006770 0.018662 -0.006373 0.000000 0.000000 0.000000
# 3 -0.003314 -0.006373 0.015313 0.000000 0.000000 0.000000
# 4 0.000000 0.000000 0.000000 0.179125 0.000000 0.000000
# 5 0.000000 0.000000 0.000000 0.000000 0.032450 0.000000
# 6 0.000000 0.000000 0.000000 0.000000 0.000000 0.048615
#
#
# Mechanical properties :
#
#
# Convention : Reuss Voigt Hill
#
# Bulk Modulus (GPa) = 74.48515 76.78202 75.63359
# Shear Modulus (GPa) = 14.53833 21.45320 17.99576
#
# Velocity S-wave (km/s) = 2.77885 3.37562 3.09167
# Velocity P-wave (km/s) = 7.06107 7.48169 7.27442
#
# Compressibility (1/GPa) = 0.01342549
#
# Stress axis : x y z
#
# Youngs Moduli (GPa) = 80.87324 53.58567 65.30427
#
# Poissons Ratio (x) = 0.36280 0.21642
# Poissons Ratio (y) = 0.54754 0.41616
# Poissons Ratio (z) = 0.26802 0.34148
#
# Static dielectric constant tensor:
#      x y z
#    x 1.638660 0.000000 0.000000 
#    y 0.000000 1.663760 0.000000 
#    z 0.000000 0.000000 1.696930 
# 
# From -- ./inp_files/36732.got.cif
#   From: 2010.05.17/outbox.cif.g08.bks.cpg/sg67_19_cif.got.tgz:36732.got - 2010.06.03 18:28:57.
