data_PCOD9500735
_publ_section_title
;
Structure prediction by ZEFSAII (Michael W. Deem and Ramdas Pophale) SiO2 
 PCOD9500735
Probable space group: C M M A
;
_chemical_formula_sum "Si O2"
_cell_formula_units_Z 112
_cell_length_a 14.889387
_cell_length_b 20.038877
_cell_length_c 18.500632
_cell_angle_alpha 90.000000
_cell_angle_beta 90.000000
_cell_angle_gamma 90.000000
_cell_volume 5519.970570
_symmetry_space_group_name_H-M "C M M A"
_symmetry_group_IT_number 67
_symmetry_cell_setting 'orthorhombic'
loop_
_space_group_symop_operation_xyz
x,y,z
-x,1/2-y,z
x,-y,-z
-x,1/2+y,-z
-x,-y,-z
x,1/2+y,-z
-x,y,z
x,1/2-y,z
1/2+x,1/2+y,z
1/2-x,-y,z
1/2+x,1/2-y,-z
1/2-x,y,-z
1/2-x,1/2-y,-z
1/2+x,y,-z
1/2-x,1/2+y,z
1/2+x,-y,z
loop_
_atom_site_type_symbol
_atom_site_label
_atom_site_fract_x
_atom_site_fract_y
_atom_site_fract_z
Si Si1 0.859681 0.670709 0.871174
Si Si2 0.396886 0.118974 0.714780
Si Si3 0.109034 0.967625 0.292048
Si Si4 0.697700 0.073532 0.150018
Si Si5 0.360449 0.923082 0.996143
Si Si6 0.889730 0.324058 0.436301
Si Si7 0.609451 0.063849 0.453630
O O1 0.860577 0.750000 0.886672
O O2 0.899941 0.656976 0.791355
O O3 0.764577 0.635374 0.857508
O O4 0.893941 0.626446 0.940504
O O5 0.500000 0.107212 0.694306
O O6 0.358321 0.155212 0.644308
O O7 0.359925 0.044221 0.721457
O O8 0.152742 0.927613 0.227387
O O9 0.138265 0.943497 0.371047
O O10 0.000000 0.964415 0.287693
O O11 0.624301 0.089250 0.088260
O O12 0.750000 0.000000 0.138290
O O13 0.250000 0.920954 0.000000
O O14 0.389220 0.000000 0.000000
O O15 0.859541 0.250000 0.451608
O O16 0.861325 0.373356 0.499614
O O17 0.000000 0.324262 0.435953
O O18 0.500000 0.063966 0.451649
O O19 0.636886 0.000000 0.500000
#
# Coordination Sequence:
#
# PCOD9500735 Si02
#       7
#    16  16  16  16  16  16  16
#     4  11  22  34  55  84 108 138 176 217 266 316
#     4  10  18  31  52  81 115 141 169 216 271 322
#     4  10  19  32  55  84 107 136 179 222 264 308
#     4  11  19  35  57  76 105 141 175 217 258 307
#     4   9  15  31  53  75  97 134 174 213 252 294
#     4   9  16  26  44  71 104 141 174 211 262 311
#     4   9  15  27  47  72 102 133 174 221 253 297
#
# _framework density 20.289964000000001
#
# number of rings (size 3 to 8) (size 9 to 14) (size 15 to 20)
#    0.000    2.143    5.714    0.429    0.000    3.429 
#    0.000    1.429    0.000    6.857    0.000    2.000 
#    0.000    0.000    0.000    0.000    0.000    0.000 
#
# Total GULP energy -311737.716923 kJ/mol
# GULP energy per Si atom -5566.744945 kJ/mol
# Density = 2.024378 g / cm^3
# Si number density = 20.289964 Si / 1000 Ang^3
#
#
#
# Elastic Constant Matrix: (Units=GPa)
#
#
# Indices 1 2 3 4 5 6 
#
# 1 32.2550 15.9544 22.1982 0.0000 0.0000 0.0000
# 2 15.9544 150.8174 90.0022 0.0000 0.0000 0.0000
# 3 22.1982 90.0022 212.8383 0.0000 0.0000 0.0000
# 4 0.0000 0.0000 0.0000 28.2009 0.0000 0.0000
# 5 0.0000 0.0000 0.0000 0.0000 7.8884 0.0000
# 6 0.0000 0.0000 0.0000 0.0000 0.0000-2744.7464
#
#
#
# Elastic Compliance Matrix: (Units=1/GPa)
#
#
# Indices 1 2 3 4 5 6 
#
# 1 0.033833 -0.001971 -0.002695 0.000000 0.000000 0.000000
# 2 -0.001971 0.008983 -0.003593 0.000000 0.000000 0.000000
# 3 -0.002695 -0.003593 0.006499 0.000000 0.000000 0.000000
# 4 0.000000 0.000000 0.000000 0.035460 0.000000 0.000000
# 5 0.000000 0.000000 0.000000 0.000000 0.126768 0.000000
# 6 0.000000 0.000000 0.000000 0.000000 0.000000 -0.000364
#
#
# Mechanical properties :
#
#
# Convention : Reuss Voigt Hill
#
# Bulk Modulus (GPa) = 30.49087 72.46894 51.47991
# Shear Modulus (GPa) = 20.95305 -523.88102 -251.46398
#
# Velocity S-wave (km/s) = 3.21702 -16.08595 -11.14469
# Velocity P-wave (km/s) = 5.37207 17.58454 11.83970
#
# Compressibility (1/GPa) = 0.03279670
#
# Stress axis : x y z
#
# Youngs Moduli (GPa) = 29.55723 111.31785 153.87073
#
# Poissons Ratio (x) = 0.21936 0.41473
# Poissons Ratio (y) = 0.05824 0.55289
# Poissons Ratio (z) = 0.07967 0.39999
#
# Static dielectric constant tensor:
#      x y z
#    x 1.804320 0.000000 0.000000 
#    y 0.000000 1.723980 0.000000 
#    z 0.000000 0.000000 1.808410 
# 
# From -- ./inp_files/35124.got.cif
#   From: 2010.05.17/outbox.cif.g08.bks.cpg/sg67_18_cif.got.tgz:35124.got - 2010.06.03 18:28:57.
