data_PCOD9500745
_publ_section_title
;
Structure prediction by ZEFSAII (Michael W. Deem and Ramdas Pophale) SiO2 
 PCOD9500745
Probable space group: C M M A
;
_chemical_formula_sum "Si O2"
_cell_formula_units_Z 96
_cell_length_a 22.846539
_cell_length_b 17.398685
_cell_length_c 11.314901
_cell_angle_alpha 90.000000
_cell_angle_beta 90.000000
_cell_angle_gamma 90.000000
_cell_volume 4497.670154
_symmetry_space_group_name_H-M "C M M A"
_symmetry_group_IT_number 67
_symmetry_cell_setting 'orthorhombic'
loop_
_space_group_symop_operation_xyz
x,y,z
-x,1/2-y,z
x,-y,-z
-x,1/2+y,-z
-x,-y,-z
x,1/2+y,-z
-x,y,z
x,1/2-y,z
1/2+x,1/2+y,z
1/2-x,-y,z
1/2+x,1/2-y,-z
1/2-x,y,-z
1/2-x,1/2-y,-z
1/2+x,y,-z
1/2-x,1/2+y,z
1/2+x,-y,z
loop_
_atom_site_type_symbol
_atom_site_label
_atom_site_fract_x
_atom_site_fract_y
_atom_site_fract_z
Si Si1 0.905979 0.159292 0.192988
Si Si2 0.436307 0.842470 0.928469
Si Si3 0.267400 0.161090 0.861643
Si Si4 0.895732 0.457587 0.384696
Si Si5 0.819705 0.667725 0.493173
Si Si6 0.340853 0.400157 0.250956
O O1 0.918133 0.250000 0.214737
O O2 0.835539 0.151163 0.169873
O O3 0.927048 0.102696 0.296882
O O4 0.932627 0.137357 0.066326
O O5 0.500000 0.865917 0.880219
O O6 0.431946 0.750000 0.922574
O O7 0.382904 0.875943 0.855249
O O8 0.252441 0.250000 0.828785
O O9 0.225791 0.102486 0.792830
O O10 0.250000 0.153980 0.000000
O O11 0.924211 0.500000 0.500000
O O12 0.845691 0.404194 0.440266
O O13 0.865647 0.521597 0.303799
O O14 0.838776 0.750000 0.544242
O O15 0.750000 0.664995 0.500000
O O16 0.841749 0.659763 0.359335
#
# Coordination Sequence:
#
# PCOD9500745 Si02
#       6
#    16  16  16  16  16  16
#     4  10  20  37  60  84 115 153 196 239 289 357
#     4  10  21  39  64  90 114 147 194 247 300 358
#     4  10  18  31  53  82 117 153 185 227 283 350
#     4  10  23  37  53  81 119 157 194 240 292 350
#     4  10  20  35  58  85 117 162 206 242 286 347
#     4  11  21  35  56  88 124 153 188 242 305 359
#
# _framework density 21.344384000000002
#
# number of rings (size 3 to 8) (size 9 to 14) (size 15 to 20)
#    0.000    1.833    1.667    3.000    0.000    9.667 
#    0.000    2.500    0.000    9.000    0.000    9.333 
#    0.000    0.000    0.000    0.000    0.000    0.000 
#
# Total GULP energy -267991.243468 kJ/mol
# GULP energy per Si atom -5583.150906 kJ/mol
# Density = 2.129580 g / cm^3
# Si number density = 21.344384 Si / 1000 Ang^3
#
#
#
# Elastic Constant Matrix: (Units=GPa)
#
#
# Indices 1 2 3 4 5 6 
#
# 1 71.0274 16.1151 18.4268 0.0000 0.0000 0.0000
# 2 16.1151 78.8884 46.1365 0.0000 0.0000 0.0000
# 3 18.4268 46.1365 110.6921 0.0000 0.0000 0.0000
# 4 0.0000 0.0000 0.0000 -82.8471 0.0000 0.0000
# 5 0.0000 0.0000 0.0000 0.0000 -4.8301 0.0000
# 6 0.0000 0.0000 0.0000 0.0000 0.0000 -14.3591
#
#
#
# Elastic Compliance Matrix: (Units=1/GPa)
#
#
# Indices 1 2 3 4 5 6 
#
# 1 0.014977 -0.002118 -0.001611 0.000000 0.000000 0.000000
# 2 -0.002118 0.017061 -0.006759 0.000000 0.000000 0.000000
# 3 -0.001611 -0.006759 0.012119 0.000000 0.000000 0.000000
# 4 0.000000 0.000000 0.000000 -0.012070 0.000000 0.000000
# 5 0.000000 0.000000 0.000000 0.000000 -0.207034 0.000000
# 6 0.000000 0.000000 0.000000 0.000000 0.000000 -0.069642
#
#
# Mechanical properties :
#
#
# Convention : Reuss Voigt Hill
#
# Bulk Modulus (GPa) = 43.13290 46.88496 45.00893
# Shear Modulus (GPa) = -23.16033 -8.41197 -15.78615
#
# Velocity S-wave (km/s) = -3.29763 -1.98737 -2.72250
# Velocity P-wave (km/s) = 2.39851 4.09237 3.35412
#
# Compressibility (1/GPa) = 0.02318416
#
# Stress axis : x y z
#
# Youngs Moduli (GPa) = 66.76732 58.61179 82.51359
#
# Poissons Ratio (x) = 0.12412 0.13290
# Poissons Ratio (y) = 0.14139 0.55768
# Poissons Ratio (z) = 0.10754 0.39614
#
# Static dielectric constant tensor:
#      x y z
#    x 1.734670 0.000000 0.000000 
#    y 0.000000 1.759110 0.000000 
#    z 0.000000 0.000000 1.812900 
# 
# From -- ./inp_files/22906.got.cif
#   From: 2010.05.17/outbox.cif.g08.bks.cpg/sg67_12_cif.got.tgz:22906.got - 2010.06.03 18:28:57.
