data_PCOD9500497
_publ_section_title
;
Structure prediction by ZEFSAII (Michael W. Deem and Ramdas Pophale) SiO2 
 PCOD9500497
Probable space group: C M M A
;
_chemical_formula_sum "Si O2"
_cell_formula_units_Z 128
_cell_length_a 25.390257
_cell_length_b 16.199234
_cell_length_c 19.888084
_cell_angle_alpha 90.000000
_cell_angle_beta 90.000000
_cell_angle_gamma 90.000000
_cell_volume 8180.022935
_symmetry_space_group_name_H-M "C M M A"
_symmetry_group_IT_number 67
_symmetry_cell_setting 'orthorhombic'
loop_
_space_group_symop_operation_xyz
x,y,z
-x,1/2-y,z
x,-y,-z
-x,1/2+y,-z
-x,-y,-z
x,1/2+y,-z
-x,y,z
x,1/2-y,z
1/2+x,1/2+y,z
1/2-x,-y,z
1/2+x,1/2-y,-z
1/2-x,y,-z
1/2-x,1/2-y,-z
1/2+x,y,-z
1/2-x,1/2+y,z
1/2+x,-y,z
loop_
_atom_site_type_symbol
_atom_site_label
_atom_site_fract_x
_atom_site_fract_y
_atom_site_fract_z
Si Si1 0.436073 0.656898 0.067890
Si Si2 0.118597 0.492038 0.308519
Si Si3 0.160888 0.345715 0.488927
Si Si4 0.280710 0.085576 0.636156
Si Si5 0.936027 0.342957 0.912280
Si Si6 0.936104 0.492164 0.165760
Si Si7 0.059891 0.067843 0.440743
Si Si8 0.173517 0.655565 0.353878
O O1 0.500000 0.656539 0.068123
O O2 0.419591 0.750000 0.087955
O O3 0.419775 0.583028 0.116725
O O4 0.420233 0.643406 0.990154
O O5 0.168148 0.429939 0.317997
O O6 0.088866 0.481421 0.238776
O O7 0.080682 0.472803 0.371783
O O8 0.141454 0.585182 0.314853
O O9 0.174076 0.250000 0.482422
O O10 0.198463 0.393888 0.438123
O O11 0.101797 0.363820 0.463863
O O12 0.166924 0.367391 0.567009
O O13 0.236087 0.148965 0.659953
O O14 0.250000 0.000000 0.633803
O O15 0.919147 0.250000 0.891963
O O16 0.919753 0.419789 0.866452
O O17 0.000000 0.342621 0.911561
O O18 0.000000 0.491550 0.170351
O O19 0.000000 0.097273 0.433235
O O20 0.061256 0.000000 0.500000
O O21 0.155519 0.750000 0.344080
#
# Coordination Sequence:
#
# PCOD9500497 Si02
#       8
#    16  16  16  16  16  16  16  16
#     4   8  14  26  44  66  91 122 158 192 225 262
#     4  10  20  32  45  67  91 122 159 191 226 277
#     4  10  19  31  49  73  89 104 143 197 245 285
#     4   9  19  31  49  67  87 112 142 187 243 296
#     4   8  14  25  43  67  94 124 158 190 221 261
#     4  10  18  28  44  66  97 132 163 188 219 263
#     4  10  19  33  49  61  85 126 163 191 220 259
#     4  10  19  32  48  67  88 109 140 192 254 299
#
# _framework density 15.647876999999999
#
# number of rings (size 3 to 8) (size 9 to 14) (size 15 to 20)
#    0.000    2.625    1.250    2.250    0.000    4.750 
#    0.000    3.125    0.000    4.125    0.000    0.000 
#    0.000   18.000    0.000   29.250    0.000    2.250 
#
# Total GULP energy -356445.899611 kJ/mol
# GULP energy per Si atom -5569.467181 kJ/mol
# Density = 1.561226 g / cm^3
# Si number density = 15.647877 Si / 1000 Ang^3
#
#
#
# Elastic Constant Matrix: (Units=GPa)
#
#
# Indices 1 2 3 4 5 6 
#
# 1 50.1060 7.9067 20.4026 0.0000 0.0000 0.0000
# 2 7.9067 60.3816 44.2076 0.0000 0.0000 0.0000
# 3 20.4026 44.2076 87.6234 0.0000 0.0000 0.0000
# 4 0.0000 0.0000 0.0000 10.8646 0.0000 0.0000
# 5 0.0000 0.0000 0.0000 0.0000 8.4544 0.0000
# 6 0.0000 0.0000 0.0000 0.0000 0.0000 6.1519
#
#
#
# Elastic Compliance Matrix: (Units=1/GPa)
#
#
# Indices 1 2 3 4 5 6 
#
# 1 0.022121 0.001387 -0.005850 0.000000 0.000000 0.000000
# 2 0.001387 0.026349 -0.013616 0.000000 0.000000 0.000000
# 3 -0.005850 -0.013616 0.019644 0.000000 0.000000 0.000000
# 4 0.000000 0.000000 0.000000 0.092042 0.000000 0.000000
# 5 0.000000 0.000000 0.000000 0.000000 0.118282 0.000000
# 6 0.000000 0.000000 0.000000 0.000000 0.000000 0.162551
#
#
# Mechanical properties :
#
#
# Convention : Reuss Voigt Hill
#
# Bulk Modulus (GPa) = 31.29487 38.12721 34.71104
# Shear Modulus (GPa) = 10.25008 13.46711 11.85860
#
# Velocity S-wave (km/s) = 2.56216 2.93684 2.75588
# Velocity P-wave (km/s) = 5.36617 5.99322 5.68834
#
# Compressibility (1/GPa) = 0.03195412
#
# Stress axis : x y z
#
# Youngs Moduli (GPa) = 45.20578 37.95247 50.90526
#
# Poissons Ratio (x) = -0.05262 0.29781
# Poissons Ratio (y) = -0.06268 0.69314
# Poissons Ratio (z) = 0.26447 0.51677
#
# Static dielectric constant tensor:
#      x y z
#    x 1.527270 0.000000 0.000000 
#    y 0.000000 1.549590 0.000000 
#    z 0.000000 0.000000 1.502030 
# 
# From -- ./inp_files/35636.got.cif
#   From: 2010.05.17/outbox.cif.g08.bks.cpg/sg67_18_cif.got.tgz:35636.got - 2010.06.03 18:28:57.
