data_PCOD9500628
_publ_section_title
;
Structure prediction by ZEFSAII (Michael W. Deem and Ramdas Pophale) SiO2 
 PCOD9500628
Probable space group: C M M A
;
_chemical_formula_sum "Si O2"
_cell_formula_units_Z 104
_cell_length_a 15.860273
_cell_length_b 16.263933
_cell_length_c 19.501545
_cell_angle_alpha 90.000000
_cell_angle_beta 90.000000
_cell_angle_gamma 90.000000
_cell_volume 5030.431673
_symmetry_space_group_name_H-M "C M M A"
_symmetry_group_IT_number 67
_symmetry_cell_setting 'orthorhombic'
loop_
_space_group_symop_operation_xyz
x,y,z
-x,1/2-y,z
x,-y,-z
-x,1/2+y,-z
-x,-y,-z
x,1/2+y,-z
-x,y,z
x,1/2-y,z
1/2+x,1/2+y,z
1/2-x,-y,z
1/2+x,1/2-y,-z
1/2-x,y,-z
1/2-x,1/2-y,-z
1/2+x,y,-z
1/2-x,1/2+y,z
1/2+x,-y,z
loop_
_atom_site_type_symbol
_atom_site_label
_atom_site_fract_x
_atom_site_fract_y
_atom_site_fract_z
Si Si1 0.176380 0.435599 0.797858
Si Si2 0.124216 0.158745 0.341973
Si Si3 0.500000 0.843290 0.937756
Si Si4 0.000000 0.494772 0.832583
Si Si5 0.172629 0.159530 0.664642
Si Si6 0.813939 0.346339 0.942996
Si Si7 0.000000 0.659428 0.784777
Si Si8 0.353212 0.496989 0.420501
O O1 0.250000 0.500000 0.778998
O O2 0.165939 0.362249 0.744453
O O3 0.191094 0.399052 0.873607
O O4 0.087136 0.480732 0.793969
O O5 0.098121 0.250000 0.368478
O O6 0.225795 0.159784 0.343747
O O7 0.080006 0.152414 0.267410
O O8 0.105820 0.075928 0.383768
O O9 0.500000 0.750000 0.905002
O O10 0.500000 0.922605 0.888464
O O11 0.409232 0.849027 0.972631
O O12 0.000000 0.592047 0.844426
O O13 0.140147 0.250000 0.647938
O O14 0.130199 0.087816 0.619823
O O15 0.795173 0.250000 0.927810
O O16 0.750000 0.376880 0.000000
O O17 0.000000 0.750000 0.814744
O O18 0.377322 0.500000 0.500000
O O19 0.250000 0.500000 0.418143
#
# Coordination Sequence:
#
# PCOD9500628 Si02
#       8
#    16  16   8   8  16  16   8  16
#     4  11  21  35  56  80 110 145 185 233 281 334
#     4   9  18  31  48  69  97 133 173 219 273 329
#     4   8  16  32  55  83 114 147 184 226 273 330
#     4  10  20  34  53  79 110 145 182 227 284 332
#     4  10  19  32  51  77 106 138 178 227 280 330
#     4   9  18  34  56  82 112 148 188 229 278 334
#     4  10  18  30  49  72 100 138 181 224 273 332
#     4   9  17  30  48  71 100 134 176 225 275 332
#
# _framework density 20.674171000000001
#
# number of rings (size 3 to 8) (size 9 to 14) (size 15 to 20)
#    0.000    2.462    0.000    3.692    0.000    1.538 
#    0.000    5.000    0.000    2.769    0.000    5.385 
#    0.000    5.538    0.000    0.000    0.000    0.000 
#
# Total GULP energy -289593.436842 kJ/mol
# GULP energy per Si atom -5569.104555 kJ/mol
# Density = 2.062712 g / cm^3
# Si number density = 20.674171 Si / 1000 Ang^3
#
#
#
# Elastic Constant Matrix: (Units=GPa)
#
#
# Indices 1 2 3 4 5 6 
#
# 1 61.4187 38.5770 13.4781 0.0000 0.0000 0.0000
# 2 38.5770 170.4750 55.4999 0.0000 0.0000 0.0000
# 3 13.4781 55.4999 69.5174 0.0000 0.0000 0.0000
# 4 0.0000 0.0000 0.0000 4.4789 0.0000 0.0000
# 5 0.0000 0.0000 0.0000 0.0000 22.7612 0.0000
# 6 0.0000 0.0000 0.0000 0.0000 0.0000 9.8786
#
#
#
# Elastic Compliance Matrix: (Units=1/GPa)
#
#
# Indices 1 2 3 4 5 6 
#
# 1 0.018985 -0.004186 -0.000339 0.000000 0.000000 0.000000
# 2 -0.004186 0.008849 -0.006253 0.000000 0.000000 0.000000
# 3 -0.000339 -0.006253 0.019443 0.000000 0.000000 0.000000
# 4 0.000000 0.000000 0.000000 0.223269 0.000000 0.000000
# 5 0.000000 0.000000 0.000000 0.000000 0.043935 0.000000
# 6 0.000000 0.000000 0.000000 0.000000 0.000000 0.101229
#
#
# Mechanical properties :
#
#
# Convention : Reuss Voigt Hill
#
# Bulk Modulus (GPa) = 38.87871 57.39123 48.13497
# Shear Modulus (GPa) = 11.21481 20.34747 15.78114
#
# Velocity S-wave (km/s) = 2.33159 3.14060 2.76583
# Velocity P-wave (km/s) = 5.10830 6.40088 5.79077
#
# Compressibility (1/GPa) = 0.02572102
#
# Stress axis : x y z
#
# Youngs Moduli (GPa) = 52.67261 113.00814 51.43284
#
# Poissons Ratio (x) = 0.47303 0.01744
# Poissons Ratio (y) = 0.22048 0.32161
# Poissons Ratio (z) = 0.01786 0.70665
#
# Static dielectric constant tensor:
#      x y z
#    x 1.754830 0.000000 0.000000 
#    y 0.000000 1.779140 0.000000 
#    z 0.000000 0.000000 1.718170 
# 
# From -- ./inp_files/39032.got.cif
#   From: 2010.05.17/outbox.cif.g08.bks.cpg/sg67_20_cif.got.tgz:39032.got - 2010.06.03 18:28:57.
