data_PCOD9500738
_publ_section_title
;
Structure prediction by ZEFSAII (Michael W. Deem and Ramdas Pophale) SiO2 
 PCOD9500738
Probable space group: C M M A
;
_chemical_formula_sum "Si O2"
_cell_formula_units_Z 92
_cell_length_a 14.390176
_cell_length_b 13.605353
_cell_length_c 22.587032
_cell_angle_alpha 90.000000
_cell_angle_beta 90.000000
_cell_angle_gamma 90.000000
_cell_volume 4422.166468
_symmetry_space_group_name_H-M "C M M A"
_symmetry_group_IT_number 67
_symmetry_cell_setting 'orthorhombic'
loop_
_space_group_symop_operation_xyz
x,y,z
-x,1/2-y,z
x,-y,-z
-x,1/2+y,-z
-x,-y,-z
x,1/2+y,-z
-x,y,z
x,1/2-y,z
1/2+x,1/2+y,z
1/2-x,-y,z
1/2+x,1/2-y,-z
1/2-x,y,-z
1/2-x,1/2-y,-z
1/2+x,y,-z
1/2-x,1/2+y,z
1/2+x,-y,z
loop_
_atom_site_type_symbol
_atom_site_label
_atom_site_fract_x
_atom_site_fract_y
_atom_site_fract_z
Si Si1 0.500000 0.575460 0.270311
Si Si2 0.185782 0.136953 0.209735
Si Si3 0.887353 0.870169 0.918062
Si Si4 0.000000 0.869664 0.594386
Si Si5 0.198864 0.368971 0.440566
Si Si6 0.795408 0.635424 0.319949
Si Si7 0.000000 0.862261 0.288732
Si Si8 0.750000 0.500000 0.000000
O O1 0.591699 0.628473 0.247605
O O2 0.500000 0.582813 0.340902
O O3 0.500000 0.461257 0.249590
O O4 0.210633 0.250000 0.197409
O O5 0.155316 0.097240 0.145809
O O6 0.264690 0.098414 0.254896
O O7 0.879762 0.750000 0.923927
O O8 0.000000 0.891223 0.921112
O O9 0.821375 0.928683 0.963801
O O10 0.907708 0.899119 0.560494
O O11 0.000000 0.750000 0.602331
O O12 0.201444 0.250000 0.440151
O O13 0.250000 0.398821 0.500000
O O14 0.244313 0.400327 0.378396
O O15 0.770458 0.750000 0.317071
O O16 0.905609 0.628271 0.325584
O O17 0.000000 0.750000 0.262923
#
# Coordination Sequence:
#
# PCOD9500738 Si02
#       8
#     8  16  16   8  16  16   8   4
#     4  12  20  32  62  90 112 149 198 250 313 348
#     4  10  19  36  64  96 120 149 199 259 310 356
#     4  10  22  41  66  95 131 173 217 266 317 371
#     4  10  18  31  52  86 119 138 188 257 300 349
#     4   9  17  29  51  82 113 151 190 233 298 366
#     4   9  18  35  56  78 115 157 196 244 298 355
#     4  10  24  39  50  74 117 162 196 235 295 378
#     4  12  24  40  64  96 136 172 218 252 312 384
#
# _framework density 20.804282000000001
#
# number of rings (size 3 to 8) (size 9 to 14) (size 15 to 20)
#    0.000    2.087    2.609    1.304    0.000    2.783 
#    0.000    3.478    1.913    4.174    0.000    0.000 
#    0.000    0.000    0.000    0.000    0.000    0.000 
#
# Total GULP energy -256299.991037 kJ/mol
# GULP energy per Si atom -5571.738936 kJ/mol
# Density = 2.075693 g / cm^3
# Si number density = 20.804282 Si / 1000 Ang^3
#
#
#
# Elastic Constant Matrix: (Units=GPa)
#
#
# Indices 1 2 3 4 5 6 
#
# 1 161.8340 28.0213 99.2450 0.0000 0.0000 0.0000
# 2 28.0213 88.8904 25.3849 0.0000 0.0000 0.0000
# 3 99.2450 25.3849 148.8515 0.0000 0.0000 0.0000
# 4 0.0000 0.0000 0.0000 -599.8728 0.0000 0.0000
# 5 0.0000 0.0000 0.0000 0.0000 18.6342 0.0000
# 6 0.0000 0.0000 0.0000 0.0000 0.0000 65.4756
#
#
#
# Elastic Compliance Matrix: (Units=1/GPa)
#
#
# Indices 1 2 3 4 5 6 
#
# 1 0.010615 -0.001393 -0.006840 0.000000 0.000000 0.000000
# 2 -0.001393 0.012009 -0.001119 0.000000 0.000000 0.000000
# 3 -0.006840 -0.001119 0.011469 0.000000 0.000000 0.000000
# 4 0.000000 0.000000 0.000000 -0.001667 0.000000 0.000000
# 5 0.000000 0.000000 0.000000 0.000000 0.053665 0.000000
# 6 0.000000 0.000000 0.000000 0.000000 0.000000 0.015273
#
#
# Mechanical properties :
#
#
# Convention : Reuss Voigt Hill
#
# Bulk Modulus (GPa) = 64.98190 78.31981 71.65085
# Shear Modulus (GPa) = 39.93711 -86.69095 -23.37692
#
# Velocity S-wave (km/s) = 4.38614 -6.46222 -3.35574
# Velocity P-wave (km/s) = 7.54677 4.23705 4.41594
#
# Compressibility (1/GPa) = 0.01538890
#
# Stress axis : x y z
#
# Youngs Moduli (GPa) = 94.20752 83.27417 87.18913
#
# Poissons Ratio (x) = 0.11599 0.59636
# Poissons Ratio (y) = 0.13122 0.09758
# Poissons Ratio (z) = 0.64436 0.09320
#
# Static dielectric constant tensor:
#      x y z
#    x 1.738380 0.000000 0.000000 
#    y 0.000000 1.795280 0.000000 
#    z 0.000000 0.000000 1.722410 
# 
# From -- ./inp_files/38584.got.cif
#   From: 2010.05.17/outbox.cif.g08.bks.cpg/sg67_20_cif.got.tgz:38584.got - 2010.06.03 18:28:57.
