data_PCOD9500971
_publ_section_title
;
Structure prediction by ZEFSAII (Michael W. Deem and Ramdas Pophale) SiO2 
 PCOD9500971
Probable space group: C M M A
;
_chemical_formula_sum "Si O2"
_cell_formula_units_Z 80
_cell_length_a 24.434458
_cell_length_b 8.437111
_cell_length_c 21.057980
_cell_angle_alpha 90.000000
_cell_angle_beta 90.000000
_cell_angle_gamma 90.000000
_cell_volume 4341.233860
_symmetry_space_group_name_H-M "C M M A"
_symmetry_group_IT_number 67
_symmetry_cell_setting 'orthorhombic'
loop_
_space_group_symop_operation_xyz
x,y,z
-x,1/2-y,z
x,-y,-z
-x,1/2+y,-z
-x,-y,-z
x,1/2+y,-z
-x,y,z
x,1/2-y,z
1/2+x,1/2+y,z
1/2-x,-y,z
1/2+x,1/2-y,-z
1/2-x,y,-z
1/2-x,1/2-y,-z
1/2+x,y,-z
1/2-x,1/2+y,z
1/2+x,-y,z
loop_
_atom_site_type_symbol
_atom_site_label
_atom_site_fract_x
_atom_site_fract_y
_atom_site_fract_z
Si Si1 0.188473 0.559701 0.069993
Si Si2 0.500000 0.558506 0.377947
Si Si3 0.811865 0.440037 0.686966
Si Si4 0.000000 0.058124 0.766890
Si Si5 0.382807 0.060150 0.569698
Si Si6 0.381510 0.443315 0.190088
O O1 0.189523 0.750000 0.069234
O O2 0.250000 0.500000 0.083265
O O3 0.147694 0.504891 0.125372
O O4 0.172899 0.500000 0.000000
O O5 0.500000 0.750000 0.377265
O O6 0.500000 0.498680 0.305775
O O7 0.555577 0.504927 0.412420
O O8 0.811849 0.250000 0.686620
O O9 0.750000 0.500000 0.690269
O O10 0.842112 0.499762 0.623934
O O11 0.846193 0.493855 0.748745
O O12 0.944068 0.004779 0.800507
O O13 0.000000 0.250000 0.766201
O O14 0.382395 0.250000 0.569935
O O15 0.367914 0.000000 0.500000
O O16 0.381463 0.250000 0.189733
#
# Coordination Sequence:
#
# PCOD9500971 Si02
#       6
#    16   8  16   8  16  16
#     4  10  19  34  54  82 113 147 186 226 271 322
#     4  10  21  37  57  85 115 141 179 231 281 324
#     4  11  22  38  58  83 110 145 186 230 281 335
#     4  10  18  35  60  83 108 145 184 225 272 332
#     4  11  23  39  58  83 113 146 183 229 278 333
#     4   9  19  34  57  84 111 143 185 227 273 327
#
# _framework density 18.427941000000001
#
# number of rings (size 3 to 8) (size 9 to 14) (size 15 to 20)
#    0.000    1.800    2.000    3.300    0.000    1.200 
#    0.000    7.500    0.000    0.000    0.000    0.000 
#    0.000    0.000    0.000    0.000    0.000    0.000 
#
# Total GULP energy -223443.061232 kJ/mol
# GULP energy per Si atom -5586.076531 kJ/mol
# Density = 1.838600 g / cm^3
# Si number density = 18.427941 Si / 1000 Ang^3
#
#
#
# Elastic Constant Matrix: (Units=GPa)
#
#
# Indices 1 2 3 4 5 6 
#
# 1 168.4409 26.2648 108.5551 0.0000 0.0000 0.0000
# 2 26.2648 36.6385 25.4312 0.0000 0.0000 0.0000
# 3 108.5551 25.4312 178.3561 0.0000 0.0000 0.0000
# 4 0.0000 0.0000 0.0000 22.8732 0.0000 0.0000
# 5 0.0000 0.0000 0.0000 0.0000 42.2619 0.0000
# 6 0.0000 0.0000 0.0000 0.0000 0.0000 4.6015
#
#
#
# Elastic Compliance Matrix: (Units=1/GPa)
#
#
# Indices 1 2 3 4 5 6 
#
# 1 0.010117 -0.003306 -0.005686 0.000000 0.000000 0.000000
# 2 -0.003306 0.031372 -0.002461 0.000000 0.000000 0.000000
# 3 -0.005686 -0.002461 0.009419 0.000000 0.000000 0.000000
# 4 0.000000 0.000000 0.000000 0.043719 0.000000 0.000000
# 5 0.000000 0.000000 0.000000 0.000000 0.023662 0.000000
# 6 0.000000 0.000000 0.000000 0.000000 0.000000 0.217321
#
#
# Mechanical properties :
#
#
# Convention : Reuss Voigt Hill
#
# Bulk Modulus (GPa) = 35.71294 78.21531 56.96413
# Shear Modulus (GPa) = 13.59254 28.82626 21.20940
#
# Velocity S-wave (km/s) = 2.71883 3.95937 3.39623
# Velocity P-wave (km/s) = 5.41091 7.96481 6.80868
#
# Compressibility (1/GPa) = 0.02800105
#
# Stress axis : x y z
#
# Youngs Moduli (GPa) = 98.84527 31.87583 106.17314
#
# Poissons Ratio (x) = 0.10537 0.60372
# Poissons Ratio (y) = 0.32674 0.26132
# Poissons Ratio (z) = 0.56205 0.07846
#
# Static dielectric constant tensor:
#      x y z
#    x 1.625560 0.000000 0.000000 
#    y 0.000000 1.628710 0.000000 
#    z 0.000000 0.000000 1.605910 
# 
# From -- ./inp_files/39528.got.cif
#   From: 2010.05.17/outbox.cif.g08.bks.cpg/sg67_20_cif.got.tgz:39528.got - 2010.06.03 18:28:57.
