data_PCOD9500373
_publ_section_title
;
Structure prediction by ZEFSAII (Michael W. Deem and Ramdas Pophale) SiO2 
 PCOD9500373
Probable space group: C M M A
;
_chemical_formula_sum "Si O2"
_cell_formula_units_Z 48
_cell_length_a 32.063759
_cell_length_b 8.629550
_cell_length_c 9.704075
_cell_angle_alpha 90.000000
_cell_angle_beta 90.000000
_cell_angle_gamma 90.000000
_cell_volume 2685.076907
_symmetry_space_group_name_H-M "C M M A"
_symmetry_group_IT_number 67
_symmetry_cell_setting 'orthorhombic'
loop_
_space_group_symop_operation_xyz
x,y,z
-x,1/2-y,z
x,-y,-z
-x,1/2+y,-z
-x,-y,-z
x,1/2+y,-z
-x,y,z
x,1/2-y,z
1/2+x,1/2+y,z
1/2-x,-y,z
1/2+x,1/2-y,-z
1/2-x,y,-z
1/2-x,1/2-y,-z
1/2+x,y,-z
1/2-x,1/2+y,z
1/2+x,-y,z
loop_
_atom_site_type_symbol
_atom_site_label
_atom_site_fract_x
_atom_site_fract_y
_atom_site_fract_z
Si Si1 0.620278 0.065233 0.844963
Si Si2 0.292886 0.435183 0.156975
Si Si3 0.548004 0.435577 0.345898
O O1 0.623682 0.250000 0.851102
O O2 0.663430 0.995961 0.783934
O O3 0.581156 0.012586 0.755071
O O4 0.615512 0.000000 0.000000
O O5 0.291978 0.250000 0.154007
O O6 0.250000 0.500000 0.220748
O O7 0.293367 0.500000 0.000000
O O8 0.553918 0.500000 0.500000
O O9 0.500000 0.469990 0.305502
O O10 0.553282 0.250000 0.345617
#
# Coordination Sequence:
#
# PCOD9500373 Si02
#       3
#    16  16  16
#     4  11  21  34  53  79 109 140 176 219 265 309
#     4  10  17  28  46  71 103 137 173 212 257 308
#     4  10  21  38  58  79 104 137 176 216 261 315
#
# _framework density 17.876583
#
# number of rings (size 3 to 8) (size 9 to 14) (size 15 to 20)
#    0.000    1.667    0.000   10.000    0.000    2.667 
#    0.000    0.000    0.000    1.000    0.000    7.000 
#    0.000    0.000    0.000    0.000    0.000    0.000 
#
# Total GULP energy -133965.512362 kJ/mol
# GULP energy per Si atom -5581.896348 kJ/mol
# Density = 1.783589 g / cm^3
# Si number density = 17.876583 Si / 1000 Ang^3
#
#
#
# Elastic Constant Matrix: (Units=GPa)
#
#
# Indices 1 2 3 4 5 6 
#
# 1 183.3751 95.6781 67.5080 0.0000 0.0000 0.0000
# 2 95.6781 187.0700 37.3649 0.0000 0.0000 0.0000
# 3 67.5080 37.3649 39.8145 0.0000 0.0000 0.0000
# 4 0.0000 0.0000 0.0000 24.5785 0.0000 0.0000
# 5 0.0000 0.0000 0.0000 0.0000 -18.5811 0.0000
# 6 0.0000 0.0000 0.0000 0.0000 0.0000 45.1866
#
#
#
# Elastic Compliance Matrix: (Units=1/GPa)
#
#
# Indices 1 2 3 4 5 6 
#
# 1 0.016119 -0.003428 -0.024114 0.000000 0.000000 0.000000
# 2 -0.003428 0.007308 -0.001046 0.000000 0.000000 0.000000
# 3 -0.024114 -0.001046 0.066986 0.000000 0.000000 0.000000
# 4 0.000000 0.000000 0.000000 0.040686 0.000000 0.000000
# 5 0.000000 0.000000 0.000000 0.000000 -0.053818 0.000000
# 6 0.000000 0.000000 0.000000 0.000000 0.000000 0.022130
#
#
# Mechanical properties :
#
#
# Convention : Reuss Voigt Hill
#
# Bulk Modulus (GPa) = 30.08774 90.15131 60.11952
# Shear Modulus (GPa) = 29.82117 24.21737 27.01927
#
# Velocity S-wave (km/s) = 4.08875 3.68461 3.89193
# Velocity P-wave (km/s) = 6.25763 8.28500 7.34163
#
# Compressibility (1/GPa) = 0.03323613
#
# Stress axis : x y z
#
# Youngs Moduli (GPa) = 62.03745 136.84216 14.92857
#
# Poissons Ratio (x) = 0.46906 0.35999
# Poissons Ratio (y) = 0.21265 0.01562
# Poissons Ratio (z) = 1.49600 0.14315
#
# Static dielectric constant tensor:
#      x y z
#    x 1.663640 0.000000 0.000000 
#    y 0.000000 1.641280 0.000000 
#    z 0.000000 0.000000 1.580420 
# 
# From -- ./inp_files/5576.got.cif
#   From: 2010.05.17/outbox.cif.g08.bks.cpg/sg67_3_cif.got.tgz:5576.got - 2010.06.03 18:28:57.
