data_PCOD9500853
_publ_section_title
;
Structure prediction by ZEFSAII (Michael W. Deem and Ramdas Pophale) SiO2 
 PCOD9500853
Probable space group: C M M A
;
_chemical_formula_sum "Si O2"
_cell_formula_units_Z 80
_cell_length_a 24.510600
_cell_length_b 7.847113
_cell_length_c 21.194428
_cell_angle_alpha 90.000000
_cell_angle_beta 90.000000
_cell_angle_gamma 90.000000
_cell_volume 4076.482191
_symmetry_space_group_name_H-M "C M M A"
_symmetry_group_IT_number 67
_symmetry_cell_setting 'orthorhombic'
loop_
_space_group_symop_operation_xyz
x,y,z
-x,1/2-y,z
x,-y,-z
-x,1/2+y,-z
-x,-y,-z
x,1/2+y,-z
-x,y,z
x,1/2-y,z
1/2+x,1/2+y,z
1/2-x,-y,z
1/2+x,1/2-y,-z
1/2-x,y,-z
1/2-x,1/2-y,-z
1/2+x,y,-z
1/2-x,1/2+y,z
1/2+x,-y,z
loop_
_atom_site_type_symbol
_atom_site_label
_atom_site_fract_x
_atom_site_fract_y
_atom_site_fract_z
Si Si1 0.000000 0.956548 0.595007
Si Si2 0.879747 0.044721 0.431997
Si Si3 0.813180 0.955364 0.691085
Si Si4 0.888118 0.045651 0.196768
Si Si5 0.061662 0.547769 0.071920
Si Si6 0.500000 0.956924 0.257234
O O1 0.942275 0.021591 0.569330
O O2 0.000000 0.750000 0.587317
O O3 0.000000 0.993971 0.669172
O O4 0.882062 0.250000 0.427257
O O5 0.846764 0.983136 0.370509
O O6 0.855054 0.000000 0.500000
O O7 0.817488 0.750000 0.690529
O O8 0.840454 0.017086 0.756775
O O9 0.750000 0.000000 0.686868
O O10 0.887944 0.250000 0.202362
O O11 0.945100 0.978822 0.225352
O O12 0.893526 0.007732 0.122854
O O13 0.058152 0.750000 0.075639
O O14 0.000000 0.476989 0.085976
O O15 0.074474 0.500000 0.000000
O O16 0.500000 0.750000 0.251651
#
# Coordination Sequence:
#
# PCOD9500853 Si02
#       6
#     8  16  16  16  16   8
#     4   9  15  29  52  77 105 133 168 212 260 322
#     4  10  20  34  53  77 104 136 173 215 266 321
#     4  10  22  38  56  77 101 136 182 225 268 316
#     4  10  18  32  56  80 103 137 178 218 263 314
#     4  10  20  32  49  79 117 150 176 206 251 308
#     4   9  14  25  51  79 100 129 169 214 259 312
#
# _framework density 19.624763999999999
#
# number of rings (size 3 to 8) (size 9 to 14) (size 15 to 20)
#    0.000    2.200    3.000    0.900    0.000    2.800 
#    0.000    2.000    0.000    1.800    0.000    4.200 
#    0.000    0.000    0.000    0.000    0.000    0.000 
#
# Total GULP energy -223089.591570 kJ/mol
# GULP energy per Si atom -5577.239789 kJ/mol
# Density = 1.958010 g / cm^3
# Si number density = 19.624764 Si / 1000 Ang^3
#
#
#
# Elastic Constant Matrix: (Units=GPa)
#
#
# Indices 1 2 3 4 5 6 
#
# 1 117.8374 10.2831 82.7025 0.0000 0.0000 0.0000
# 2 10.2831 26.6859 6.0515 0.0000 0.0000 0.0000
# 3 82.7025 6.0515 166.0178 0.0000 0.0000 0.0000
# 4 0.0000 0.0000 0.0000 21.5853 0.0000 0.0000
# 5 0.0000 0.0000 0.0000 0.0000 -0.9631 0.0000
# 6 0.0000 0.0000 0.0000 0.0000 0.0000 18.8673
#
#
#
# Elastic Compliance Matrix: (Units=1/GPa)
#
#
# Indices 1 2 3 4 5 6 
#
# 1 0.013397 -0.003679 -0.006540 0.000000 0.000000 0.000000
# 2 -0.003679 0.038796 0.000419 0.000000 0.000000 0.000000
# 3 -0.006540 0.000419 0.009266 0.000000 0.000000 0.000000
# 4 0.000000 0.000000 0.000000 0.046328 0.000000 0.000000
# 5 0.000000 0.000000 0.000000 0.000000 -1.038365 0.000000
# 6 0.000000 0.000000 0.000000 0.000000 0.000000 0.053002
#
#
# Mechanical properties :
#
#
# Convention : Reuss Voigt Hill
#
# Bulk Modulus (GPa) = 23.89015 56.51279 40.20147
# Shear Modulus (GPa) = -5.92401 21.99817 8.03708
#
# Velocity S-wave (km/s) = -1.73931 3.35168 2.02590
# Velocity P-wave (km/s) = 2.85767 6.62099 5.09921
#
# Compressibility (1/GPa) = 0.04185826
#
# Stress axis : x y z
#
# Youngs Moduli (GPa) = 74.64256 25.77591 107.92157
#
# Poissons Ratio (x) = 0.09484 0.70578
# Poissons Ratio (y) = 0.27465 -0.04520
# Poissons Ratio (z) = 0.48814 -0.01080
#
# Static dielectric constant tensor:
#      x y z
#    x 1.683300 0.000000 0.000000 
#    y 0.000000 1.720190 0.000000 
#    z 0.000000 0.000000 1.718090 
# 
# From -- ./inp_files/36885.got.cif
#   From: 2010.05.17/outbox.cif.g08.bks.cpg/sg67_19_cif.got.tgz:36885.got - 2010.06.03 18:28:57.
