data_PCOD9500669
_publ_section_title
;
Structure prediction by ZEFSAII (Michael W. Deem and Ramdas Pophale) SiO2 
 PCOD9500669
Probable space group: C M M A
;
_chemical_formula_sum "Si O2"
_cell_formula_units_Z 96
_cell_length_a 18.784399
_cell_length_b 19.270484
_cell_length_c 15.473896
_cell_angle_alpha 90.000000
_cell_angle_beta 90.000000
_cell_angle_gamma 90.000000
_cell_volume 5601.309894
_symmetry_space_group_name_H-M "C M M A"
_symmetry_group_IT_number 67
_symmetry_cell_setting 'orthorhombic'
loop_
_space_group_symop_operation_xyz
x,y,z
-x,1/2-y,z
x,-y,-z
-x,1/2+y,-z
-x,-y,-z
x,1/2+y,-z
-x,y,z
x,1/2-y,z
1/2+x,1/2+y,z
1/2-x,-y,z
1/2+x,1/2-y,-z
1/2-x,y,-z
1/2-x,1/2-y,-z
1/2+x,y,-z
1/2-x,1/2+y,z
1/2+x,-y,z
loop_
_atom_site_type_symbol
_atom_site_label
_atom_site_fract_x
_atom_site_fract_y
_atom_site_fract_z
Si Si1 0.916364 0.949188 0.079957
Si Si2 0.715446 0.827686 0.595015
Si Si3 0.332592 0.022928 0.402485
Si Si4 0.310355 0.329700 0.763740
Si Si5 0.799998 0.668951 0.083712
Si Si6 0.916114 0.545864 0.753297
O O1 0.866099 0.882567 0.078900
O O2 0.000000 0.930706 0.073506
O O3 0.905431 0.992511 0.167770
O O4 0.899292 0.000000 0.000000
O O5 0.684033 0.750000 0.603539
O O6 0.750000 0.833343 0.500000
O O7 0.664839 0.893736 0.605552
O O8 0.776007 0.833752 0.668335
O O9 0.350050 0.000000 0.500000
O O10 0.250000 0.000000 0.387476
O O11 0.382063 0.986744 0.332612
O O12 0.332448 0.250000 0.779451
O O13 0.248068 0.346284 0.832137
O O14 0.373914 0.383540 0.772774
O O15 0.821447 0.750000 0.087595
O O16 0.750000 0.659872 0.000000
O O17 0.000000 0.558041 0.743427
#
# Coordination Sequence:
#
# PCOD9500669 Si02
#       6
#    16  16  16  16  16  16
#     4  10  22  38  55  79 111 145 182 223 273 326
#     4  10  18  30  51  79 106 134 175 221 264 315
#     4  11  19  34  56  81 107 142 183 223 270 326
#     4  10  20  34  53  78 107 140 177 222 271 321
#     4  10  21  36  56  83 108 137 182 227 268 320
#     4  11  23  36  54  80 109 143 182 225 273 326
#
# _framework density 17.138847999999999
#
# number of rings (size 3 to 8) (size 9 to 14) (size 15 to 20)
#    0.000    1.667    3.333    2.000    0.000    2.667 
#    0.000    0.000    0.000    7.500    0.000    0.000 
#    0.000    0.000    0.000    0.000    0.000    0.000 
#
# Total GULP energy -267961.510975 kJ/mol
# GULP energy per Si atom -5582.531479 kJ/mol
# Density = 1.709984 g / cm^3
# Si number density = 17.138848 Si / 1000 Ang^3
#
#
#
# Elastic Constant Matrix: (Units=GPa)
#
#
# Indices 1 2 3 4 5 6 
#
# 1 103.7765 92.9920 67.8510 0.0000 0.0000 0.0000
# 2 92.9920 149.5608 39.5289 0.0000 0.0000 0.0000
# 3 67.8510 39.5289 112.2983 0.0000 0.0000 0.0000
# 4 0.0000 0.0000 0.0000 -3.4879 0.0000 0.0000
# 5 0.0000 0.0000 0.0000 0.0000 20.4806 0.0000
# 6 0.0000 0.0000 0.0000 0.0000 0.0000 53.4867
#
#
#
# Elastic Compliance Matrix: (Units=1/GPa)
#
#
# Indices 1 2 3 4 5 6 
#
# 1 0.036269 -0.018478 -0.015410 0.000000 0.000000 0.000000
# 2 -0.018478 0.016786 0.005256 0.000000 0.000000 0.000000
# 3 -0.015410 0.005256 0.016365 0.000000 0.000000 0.000000
# 4 0.000000 0.000000 0.000000 -0.286709 0.000000 0.000000
# 5 0.000000 0.000000 0.000000 0.000000 0.048827 0.000000
# 6 0.000000 0.000000 0.000000 0.000000 0.000000 0.018696
#
#
# Mechanical properties :
#
#
# Convention : Reuss Voigt Hill
#
# Bulk Modulus (GPa) = 82.25859 85.15326 83.70593
# Shear Modulus (GPa) = -56.52959 25.11347 -15.70806
#
# Velocity S-wave (km/s) = -5.74934 3.83207 -3.03069
# Velocity P-wave (km/s) = 2.00658 8.32898 6.05798
#
# Compressibility (1/GPa) = 0.01215679
#
# Stress axis : x y z
#
# Youngs Moduli (GPa) = 27.57165 59.57250 61.10470
#
# Poissons Ratio (x) = 1.10079 0.94160
# Poissons Ratio (y) = 0.50947 -0.32116
# Poissons Ratio (z) = 0.42487 -0.31310
#
# Static dielectric constant tensor:
#      x y z
#    x 1.535410 0.000000 0.000000 
#    y 0.000000 1.593520 0.000000 
#    z 0.000000 0.000000 1.578400 
# 
# From -- ./inp_files/27134.got.cif
#   From: 2010.05.17/outbox.cif.g08.bks.cpg/sg67_14_cif.got.tgz:27134.got - 2010.06.03 18:28:57.
