data_PCOD9500943
_publ_section_title
;
Structure prediction by ZEFSAII (Michael W. Deem and Ramdas Pophale) SiO2 
 PCOD9500943
Probable space group: C M M A
;
_chemical_formula_sum "Si O2"
_cell_formula_units_Z 84
_cell_length_a 16.041781
_cell_length_b 22.395474
_cell_length_c 12.559026
_cell_angle_alpha 90.000000
_cell_angle_beta 90.000000
_cell_angle_gamma 90.000000
_cell_volume 4511.996991
_symmetry_space_group_name_H-M "C M M A"
_symmetry_group_IT_number 67
_symmetry_cell_setting 'orthorhombic'
loop_
_space_group_symop_operation_xyz
x,y,z
-x,1/2-y,z
x,-y,-z
-x,1/2+y,-z
-x,-y,-z
x,1/2+y,-z
-x,y,z
x,1/2-y,z
1/2+x,1/2+y,z
1/2-x,-y,z
1/2+x,1/2-y,-z
1/2-x,y,-z
1/2-x,1/2-y,-z
1/2+x,y,-z
1/2-x,1/2+y,z
1/2+x,-y,z
loop_
_atom_site_type_symbol
_atom_site_label
_atom_site_fract_x
_atom_site_fract_y
_atom_site_fract_z
Si Si1 0.099199 0.320999 0.527384
Si Si2 0.852662 0.847753 0.698967
Si Si3 0.000000 0.750000 0.734078
Si Si4 0.833381 0.681458 0.243542
Si Si5 0.600866 0.083035 0.088559
Si Si6 0.399296 0.951344 0.149679
O O1 0.118185 0.250000 0.517905
O O2 0.144464 0.352195 0.429198
O O3 0.124551 0.339463 0.645593
O O4 0.000000 0.327459 0.513035
O O5 0.764910 0.821889 0.736840
O O6 0.865484 0.911107 0.755841
O O7 0.926934 0.802464 0.729847
O O8 0.859274 0.750000 0.224572
O O9 0.860336 0.638775 0.148398
O O10 0.500000 0.086950 0.093180
O O11 0.626376 0.020631 0.144324
O O12 0.624351 0.077462 0.964433
O O13 0.500000 0.950825 0.154499
#
# Coordination Sequence:
#
# PCOD9500943 Si02
#       6
#    16  16   4  16  16  16
#     4  10  18  34  56  80 114 151 184 222 281 344
#     4  12  20  36  58  87 111 147 193 234 280 328
#     4  12  20  36  58  84 118 148 190 236 278 332
#     4  11  23  35  54  86 120 149 181 233 284 336
#     4   9  20  41  59  83 111 151 192 226 282 343
#     4   9  19  38  65  80 108 151 192 233 274 335
#
# _framework density 18.617032999999999
#
# number of rings (size 3 to 8) (size 9 to 14) (size 15 to 20)
#    0.000    1.714    3.810    2.286    0.000    4.190 
#    1.714    3.810    0.000    5.714    0.000    0.000 
#    0.000    0.000    0.000    0.000    0.000    0.000 
#
# Total GULP energy -233986.895491 kJ/mol
# GULP energy per Si atom -5571.116559 kJ/mol
# Density = 1.857466 g / cm^3
# Si number density = 18.617033 Si / 1000 Ang^3
#
#
#
# Elastic Constant Matrix: (Units=GPa)
#
#
# Indices 1 2 3 4 5 6 
#
# 1 29.7600 11.2382 16.4739 0.0000 0.0000 0.0000
# 2 11.2382 78.3007 52.2896 0.0000 0.0000 0.0000
# 3 16.4739 52.2896 67.1414 0.0000 0.0000 0.0000
# 4 0.0000 0.0000 0.0000 34.0634 0.0000 0.0000
# 5 0.0000 0.0000 0.0000 0.0000 17.0329 0.0000
# 6 0.0000 0.0000 0.0000 0.0000 0.0000 20.0661
#
#
#
# Elastic Compliance Matrix: (Units=1/GPa)
#
#
# Indices 1 2 3 4 5 6 
#
# 1 0.038986 0.001651 -0.010852 0.000000 0.000000 0.000000
# 2 0.001651 0.026681 -0.021185 0.000000 0.000000 0.000000
# 3 -0.010852 -0.021185 0.034055 0.000000 0.000000 0.000000
# 4 0.000000 0.000000 0.000000 0.029357 0.000000 0.000000
# 5 0.000000 0.000000 0.000000 0.000000 0.058710 0.000000
# 6 0.000000 0.000000 0.000000 0.000000 0.000000 0.049835
#
#
# Mechanical properties :
#
#
# Convention : Reuss Voigt Hill
#
# Bulk Modulus (GPa) = 25.67243 37.24503 31.45873
# Shear Modulus (GPa) = 16.05763 20.57917 18.31840
#
# Velocity S-wave (km/s) = 2.94006 3.32835 3.14022
# Velocity P-wave (km/s) = 5.03438 5.90084 5.48475
#
# Compressibility (1/GPa) = 0.03895229
#
# Stress axis : x y z
#
# Youngs Moduli (GPa) = 25.65048 37.47920 29.36422
#
# Poissons Ratio (x) = -0.06189 0.31865
# Poissons Ratio (y) = -0.04236 0.62207
# Poissons Ratio (z) = 0.27835 0.79398
#
# Static dielectric constant tensor:
#      x y z
#    x 1.650260 0.000000 0.000000 
#    y 0.000000 1.621950 0.000000 
#    z 0.000000 0.000000 1.647260 
# 
# From -- ./inp_files/18106.got.cif
#   From: 2010.05.17/outbox.cif.g08.bks.cpg/sg67_10_cif.got.tgz:18106.got - 2010.06.03 18:28:57.
