data_PCOD9500600
_publ_section_title
;
Structure prediction by ZEFSAII (Michael W. Deem and Ramdas Pophale) SiO2 
 PCOD9500600
Probable space group: C M M A
;
_chemical_formula_sum "Si O2"
_cell_formula_units_Z 104
_cell_length_a 27.100034
_cell_length_b 9.033136
_cell_length_c 25.184203
_cell_angle_alpha 90.000000
_cell_angle_beta 90.000000
_cell_angle_gamma 90.000000
_cell_volume 6165.049898
_symmetry_space_group_name_H-M "C M M A"
_symmetry_group_IT_number 67
_symmetry_cell_setting 'orthorhombic'
loop_
_space_group_symop_operation_xyz
x,y,z
-x,1/2-y,z
x,-y,-z
-x,1/2+y,-z
-x,-y,-z
x,1/2+y,-z
-x,y,z
x,1/2-y,z
1/2+x,1/2+y,z
1/2-x,-y,z
1/2+x,1/2-y,-z
1/2-x,y,-z
1/2-x,1/2-y,-z
1/2+x,y,-z
1/2-x,1/2+y,z
1/2+x,-y,z
loop_
_atom_site_type_symbol
_atom_site_label
_atom_site_fract_x
_atom_site_fract_y
_atom_site_fract_z
Si Si1 0.302288 0.069774 0.558546
Si Si2 0.058782 0.427414 0.265916
Si Si3 0.500000 0.929505 0.442206
Si Si4 0.592297 0.076071 0.942363
Si Si5 0.058001 0.914393 0.159421
Si Si6 0.901467 0.070484 0.378122
Si Si7 0.704204 0.423259 0.942275
O O1 0.298697 0.250000 0.555348
O O2 0.349461 0.029267 0.595025
O O3 0.310580 0.000000 0.500000
O O4 0.250000 0.000000 0.577169
O O5 0.062939 0.250000 0.260894
O O6 0.076968 0.500493 0.211311
O O7 0.089001 0.478103 0.317591
O O8 0.000000 0.457499 0.274672
O O9 0.500000 0.750000 0.445287
O O10 0.550166 0.974819 0.411745
O O11 0.500000 0.000000 0.500000
O O12 0.581739 0.250000 0.948137
O O13 0.648914 0.059324 0.922154
O O14 0.562276 0.000966 0.895672
O O15 0.586496 0.000000 0.000000
O O16 0.079725 0.750000 0.153994
O O17 0.000000 0.900713 0.169727
O O18 0.902165 0.250000 0.377430
O O19 0.714332 0.250000 0.947949
O O20 0.750000 0.500000 0.913189
O O21 0.701602 0.500000 0.000000
#
# Coordination Sequence:
#
# PCOD9500600 Si02
#       7
#    16  16   8  16  16  16  16
#     4  10  19  32  49  71 100 136 176 214 250 295
#     4   9  16  31  54  74  92 121 161 202 246 300
#     4  10  18  30  46  72 106 134 159 194 245 300
#     4  10  20  33  50  73  99 129 164 201 244 297
#     4  10  21  35  50  71  99 129 162 204 250 297
#     4   9  17  30  51  74  98 129 166 206 249 299
#     4   9  16  26  43  67  93 120 151 185 225 277
#
# _framework density 16.869288000000001
#
# number of rings (size 3 to 8) (size 9 to 14) (size 15 to 20)
#    0.000    2.462    0.769    3.231    0.000    3.077 
#    0.000    3.077    0.000    0.923    0.000    2.154 
#    0.000    0.000    0.000    0.000    0.000    0.000 
#
# Total GULP energy -289497.857152 kJ/mol
# GULP energy per Si atom -5567.266484 kJ/mol
# Density = 1.683089 g / cm^3
# Si number density = 16.869288 Si / 1000 Ang^3
#
#
#
# Elastic Constant Matrix: (Units=GPa)
#
#
# Indices 1 2 3 4 5 6 
#
# 1 80.0356 36.8117 51.2433 0.0000 0.0000 0.0000
# 2 36.8117 72.5297 45.0091 0.0000 0.0000 0.0000
# 3 51.2433 45.0091 125.7784 0.0000 0.0000 0.0000
# 4 0.0000 0.0000 0.0000 19.2533 0.0000 0.0000
# 5 0.0000 0.0000 0.0000 0.0000 19.8003 0.0000
# 6 0.0000 0.0000 0.0000 0.0000 0.0000 19.1200
#
#
#
# Elastic Compliance Matrix: (Units=1/GPa)
#
#
# Indices 1 2 3 4 5 6 
#
# 1 0.018829 -0.006165 -0.005465 0.000000 0.000000 0.000000
# 2 -0.006165 0.019742 -0.004553 0.000000 0.000000 0.000000
# 3 -0.005465 -0.004553 0.011806 0.000000 0.000000 0.000000
# 4 0.000000 0.000000 0.000000 0.051939 0.000000 0.000000
# 5 0.000000 0.000000 0.000000 0.000000 0.050504 0.000000
# 6 0.000000 0.000000 0.000000 0.000000 0.000000 0.052301
#
#
# Mechanical properties :
#
#
# Convention : Reuss Voigt Hill
#
# Bulk Modulus (GPa) = 55.52088 60.49689 58.00889
# Shear Modulus (GPa) = 20.53464 21.32003 20.92734
#
# Velocity S-wave (km/s) = 3.49274 3.55891 3.52598
# Velocity P-wave (km/s) = 7.01780 7.26827 7.14413
#
# Compressibility (1/GPa) = 0.01801124
#
# Stress axis : x y z
#
# Youngs Moduli (GPa) = 53.10959 50.65399 84.70171
#
# Poissons Ratio (x) = 0.31229 0.46289
# Poissons Ratio (y) = 0.32743 0.38563
# Poissons Ratio (z) = 0.29024 0.23062
#
# Static dielectric constant tensor:
#      x y z
#    x 1.627100 0.000000 0.000000 
#    y 0.000000 1.587220 0.000000 
#    z 0.000000 0.000000 1.555750 
# 
# From -- ./inp_files/42951.got.cif
#   From: 2010.05.17/outbox.cif.g08.bks.cpg/sg67_22_cif.got.tgz:42951.got - 2010.06.03 18:28:57.
