data_PCOD9500164
_publ_section_title
;
Structure prediction by ZEFSAII (Michael W. Deem and Ramdas Pophale) SiO2 
 PCOD9500164
Probable space group: C M M A
;
_chemical_formula_sum "Si O2"
_cell_formula_units_Z 80
_cell_length_a 8.738949
_cell_length_b 14.994631
_cell_length_c 27.598082
_cell_angle_alpha 90.000000
_cell_angle_beta 90.000000
_cell_angle_gamma 90.000000
_cell_volume 3616.378581
_symmetry_space_group_name_H-M "C M M A"
_symmetry_group_IT_number 67
_symmetry_cell_setting 'orthorhombic'
loop_
_space_group_symop_operation_xyz
x,y,z
-x,1/2-y,z
x,-y,-z
-x,1/2+y,-z
-x,-y,-z
x,1/2+y,-z
-x,y,z
x,1/2-y,z
1/2+x,1/2+y,z
1/2-x,-y,z
1/2+x,1/2-y,-z
1/2-x,y,-z
1/2-x,1/2-y,-z
1/2+x,y,-z
1/2-x,1/2+y,z
1/2+x,-y,z
loop_
_atom_site_type_symbol
_atom_site_label
_atom_site_fract_x
_atom_site_fract_y
_atom_site_fract_z
Si Si1 0.683284 0.898508 0.549544
Si Si2 0.816084 0.399016 0.351844
Si Si3 0.669676 0.644756 0.047930
Si Si4 0.181337 0.099263 0.851938
Si Si5 0.316828 0.600833 0.245655
O O1 0.500000 0.900729 0.548006
O O2 0.750000 0.858063 0.500000
O O3 0.741864 0.857730 0.600097
O O4 0.750000 0.000000 0.550242
O O5 0.750000 0.500000 0.349742
O O6 0.781503 0.359158 0.298704
O O7 0.000000 0.401934 0.357538
O O8 0.500000 0.605371 0.055270
O O9 0.652036 0.750000 0.039172
O O10 0.766315 0.637452 0.096794
O O11 0.750000 0.606839 0.000000
O O12 0.249044 0.143011 0.803084
O O13 0.000000 0.097843 0.848253
O O14 0.250000 0.000000 0.852567
O O15 0.500000 0.596660 0.241162
O O16 0.250000 0.500000 0.247024
#
# Coordination Sequence:
#
# PCOD9500164 Si02
#       5
#    16  16  16  16  16
#     4  10  16  21  28  38  56  83 120 166 212 258
#     4   9  15  22  32  46  65  92 127 168 214 263
#     4  10  21  38  58  78 101 128 159 194 234 282
#     4  11  21  33  51  74 101 129 161 199 238 281
#     4   9  16  26  40  58  82 110 142 181 226 273
#
# _framework density 22.121576999999998
#
# number of rings (size 3 to 8) (size 9 to 14) (size 15 to 20)
#    0.000    2.200    0.000    8.400    0.000    4.000 
#    0.000    2.000    0.000    0.000    0.000    0.000 
#    0.000    0.000    0.000    0.000    0.000    1.000 
#
# Total GULP energy -223184.613580 kJ/mol
# GULP energy per Si atom -5579.615340 kJ/mol
# Density = 2.207123 g / cm^3
# Si number density = 22.121577 Si / 1000 Ang^3
#
#
#
# Elastic Constant Matrix: (Units=GPa)
#
#
# Indices 1 2 3 4 5 6 
#
# 1 187.4519 8.3711 109.7719 0.0000 0.0000 0.0000
# 2 8.3711 48.2737 14.6471 0.0000 0.0000 0.0000
# 3 109.7719 14.6471 264.9117 0.0000 0.0000 0.0000
# 4 0.0000 0.0000 0.0000 -2.3952 0.0000 0.0000
# 5 0.0000 0.0000 0.0000 0.0000 -31.0689 0.0000
# 6 0.0000 0.0000 0.0000 0.0000 0.0000 -0.2312
#
#
#
# Elastic Compliance Matrix: (Units=1/GPa)
#
#
# Indices 1 2 3 4 5 6 
#
# 1 0.007050 -0.000342 -0.002902 0.000000 0.000000 0.000000
# 2 -0.000342 0.021085 -0.001024 0.000000 0.000000 0.000000
# 3 -0.002902 -0.001024 0.005034 0.000000 0.000000 0.000000
# 4 0.000000 0.000000 0.000000 -0.417495 0.000000 0.000000
# 5 0.000000 0.000000 0.000000 0.000000 -0.032187 0.000000
# 6 0.000000 0.000000 0.000000 0.000000 0.000000 -4.326138
#
#
# Mechanical properties :
#
#
# Convention : Reuss Voigt Hill
#
# Bulk Modulus (GPa) = 40.59699 85.13526 62.86613
# Shear Modulus (GPa) = -1.05800 17.78408 8.36304
#
# Velocity S-wave (km/s) = -0.69232 2.83843 1.94646
# Velocity P-wave (km/s) = 4.21338 7.02218 5.79066
#
# Compressibility (1/GPa) = 0.02463237
#
# Stress axis : x y z
#
# Youngs Moduli (GPa) = 141.85391 47.42648 198.64665
#
# Poissons Ratio (x) = 0.01621 0.57651
# Poissons Ratio (y) = 0.04849 0.20345
# Poissons Ratio (z) = 0.41169 0.04857
#
# Static dielectric constant tensor:
#      x y z
#    x 1.758820 0.000000 0.000000 
#    y 0.000000 1.822950 0.000000 
#    z 0.000000 0.000000 1.903710 
# 
# From -- ./inp_files/43233.got.cif
#   From: 2010.05.17/outbox.cif.g08.bks.cpg/sg67_22_cif.got.tgz:43233.got - 2010.06.03 18:28:57.
