data_PCOD9500304
_publ_section_title
;
Structure prediction by ZEFSAII (Michael W. Deem and Ramdas Pophale) SiO2 
 PCOD9500304
Probable space group: C M M A
;
_chemical_formula_sum "Si O2"
_cell_formula_units_Z 64
_cell_length_a 8.680131
_cell_length_b 31.638133
_cell_length_c 15.704378
_cell_angle_alpha 90.000000
_cell_angle_beta 90.000000
_cell_angle_gamma 90.000000
_cell_volume 4312.785583
_symmetry_space_group_name_H-M "C M M A"
_symmetry_group_IT_number 67
_symmetry_cell_setting 'orthorhombic'
loop_
_space_group_symop_operation_xyz
x,y,z
-x,1/2-y,z
x,-y,-z
-x,1/2+y,-z
-x,-y,-z
x,1/2+y,-z
-x,y,z
x,1/2-y,z
1/2+x,1/2+y,z
1/2-x,-y,z
1/2+x,1/2-y,-z
1/2-x,y,-z
1/2-x,1/2-y,-z
1/2+x,y,-z
1/2-x,1/2+y,z
1/2+x,-y,z
loop_
_atom_site_type_symbol
_atom_site_label
_atom_site_fract_x
_atom_site_fract_y
_atom_site_fract_z
Si Si1 0.684977 0.452701 0.235257
Si Si2 0.184649 0.203950 0.096294
Si Si3 0.684250 0.047975 0.587190
Si Si4 0.815966 0.616443 0.095245
O O1 0.500000 0.455165 0.243690
O O2 0.750000 0.500000 0.222365
O O3 0.755190 0.434501 0.323167
O O4 0.724407 0.422359 0.156661
O O5 0.224970 0.250000 0.134804
O O6 0.252922 0.160740 0.132800
O O7 0.000000 0.200812 0.093180
O O8 0.250000 0.204746 0.000000
O O9 0.500000 0.046965 0.584764
O O10 0.750000 0.067659 0.500000
O O11 0.750000 0.000000 0.588280
O O12 0.000000 0.619278 0.089045
O O13 0.750000 0.610796 0.000000
#
# Coordination Sequence:
#
# PCOD9500304 Si02
#       4
#    16  16  16  16
#     4  10  20  32  44  61  84 113 148 181 213 249
#     4   9  16  26  42  62  82 105 135 172 214 257
#     4  10  17  27  44  63  83 107 135 172 215 256
#     4  10  20  31  44  61  84 114 147 181 213 250
#
# _framework density 14.839598000000001
#
# number of rings (size 3 to 8) (size 9 to 14) (size 15 to 20)
#    0.000    2.250    0.000    8.250    0.000    6.000 
#    0.000    2.500    0.000    0.000    0.000    0.000 
#    0.000    1.000    0.000    3.250    0.000    5.750 
#
# Total GULP energy -178194.984228 kJ/mol
# GULP energy per Si atom -5568.593257 kJ/mol
# Density = 1.480582 g / cm^3
# Si number density = 14.839598 Si / 1000 Ang^3
#
#
#
# Elastic Constant Matrix: (Units=GPa)
#
#
# Indices 1 2 3 4 5 6 
#
# 1 82.2047 39.1548 42.8640 0.0000 0.0000 0.0000
# 2 39.1548 92.4100 53.0739 0.0000 0.0000 0.0000
# 3 42.8640 53.0739 90.0378 0.0000 0.0000 0.0000
# 4 0.0000 0.0000 0.0000 -0.0789 0.0000 0.0000
# 5 0.0000 0.0000 0.0000 0.0000 15.6181 0.0000
# 6 0.0000 0.0000 0.0000 0.0000 0.0000 -2.1707
#
#
#
# Elastic Compliance Matrix: (Units=1/GPa)
#
#
# Indices 1 2 3 4 5 6 
#
# 1 0.017052 -0.003874 -0.005834 0.000000 0.000000 0.000000
# 2 -0.003874 0.017240 -0.008318 0.000000 0.000000 0.000000
# 3 -0.005834 -0.008318 0.018787 0.000000 0.000000 0.000000
# 4 0.000000 0.000000 0.000000-12.682093 0.000000 0.000000
# 5 0.000000 0.000000 0.000000 0.000000 0.064028 0.000000
# 6 0.000000 0.000000 0.000000 0.000000 0.000000 -0.460679
#
#
# Mechanical properties :
#
#
# Convention : Reuss Voigt Hill
#
# Bulk Modulus (GPa) = 58.73246 59.42644 59.07945
# Shear Modulus (GPa) = -0.38509 11.31102 5.46296
#
# Velocity S-wave (km/s) = -0.50997 2.76383 1.92076
# Velocity P-wave (km/s) = 6.27036 7.09350 6.69459
#
# Compressibility (1/GPa) = 0.01702636
#
# Stress axis : x y z
#
# Youngs Moduli (GPa) = 58.64305 58.00389 53.22818
#
# Poissons Ratio (x) = 0.22473 0.31054
# Poissons Ratio (y) = 0.22721 0.44275
# Poissons Ratio (z) = 0.34214 0.48247
#
# Static dielectric constant tensor:
#      x y z
#    x 1.496880 0.000000 0.000000 
#    y 0.000000 1.513820 0.000000 
#    z 0.000000 0.000000 1.513510 
# 
# From -- ./inp_files/32022.got.cif
#   From: 2010.05.17/outbox.cif.g08.bks.cpg/sg67_17_cif.got.tgz:32022.got - 2010.06.03 18:28:57.
