data_PCOD9500868
_publ_section_title
;
Structure prediction by ZEFSAII (Michael W. Deem and Ramdas Pophale) SiO2 
 PCOD9500868
Probable space group: C M M A
;
_chemical_formula_sum "Si O2"
_cell_formula_units_Z 56
_cell_length_a 23.171124
_cell_length_b 11.755239
_cell_length_c 8.916398
_cell_angle_alpha 90.000000
_cell_angle_beta 90.000000
_cell_angle_gamma 90.000000
_cell_volume 2428.667216
_symmetry_space_group_name_H-M "C M M A"
_symmetry_group_IT_number 67
_symmetry_cell_setting 'orthorhombic'
loop_
_space_group_symop_operation_xyz
x,y,z
-x,1/2-y,z
x,-y,-z
-x,1/2+y,-z
-x,-y,-z
x,1/2+y,-z
-x,y,z
x,1/2-y,z
1/2+x,1/2+y,z
1/2-x,-y,z
1/2+x,1/2-y,-z
1/2-x,y,-z
1/2-x,1/2-y,-z
1/2+x,y,-z
1/2-x,1/2+y,z
1/2+x,-y,z
loop_
_atom_site_type_symbol
_atom_site_label
_atom_site_fract_x
_atom_site_fract_y
_atom_site_fract_z
Si Si1 0.500000 0.066536 0.698663
Si Si2 0.500000 0.250000 0.443179
Si Si3 0.000000 0.250000 0.040184
Si Si4 0.772178 0.378542 0.174143
Si Si5 0.898736 0.250000 0.795941
Si Si6 0.886698 0.993575 0.171239
O O1 0.500000 0.141553 0.551522
O O2 0.500000 0.145817 0.846076
O O3 0.559433 0.000357 0.718029
O O4 0.442166 0.250000 0.344287
O O5 0.943722 0.250000 0.935374
O O6 0.761880 0.250000 0.233141
O O7 0.750000 0.500000 0.241038
O O8 0.840835 0.405407 0.183526
O O9 0.750000 0.378514 0.000000
O O10 0.862312 0.134124 0.804699
O O11 0.907453 0.000000 0.000000
#
# Coordination Sequence:
#
# PCOD9500868 Si02
#       6
#     8   4   4  16   8  16
#     4  11  23  39  63  92 132 183 214 278 333 412
#     4  10  26  46  62  88 142 192 230 270 336 410
#     4  10  18  32  56  86 122 160 214 258 332 374
#     4  10  22  37  59  93 142 174 210 271 350 409
#     4  11  24  38  59  93 131 172 225 276 320 406
#     4  12  23  36  64  99 138 171 220 276 349 402
#
# _framework density 23.057915000000001
#
# number of rings (size 3 to 8) (size 9 to 14) (size 15 to 20)
#    0.000    1.143    5.714    2.143    8.000    2.286 
#    0.000    0.000    0.000    0.000    0.000    6.000 
#    0.000    0.000    0.000    0.000    0.000    0.000 
#
# Total GULP energy -156302.860529 kJ/mol
# GULP energy per Si atom -5582.245019 kJ/mol
# Density = 2.300543 g / cm^3
# Si number density = 23.057915 Si / 1000 Ang^3
#
#
#
# Elastic Constant Matrix: (Units=GPa)
#
#
# Indices 1 2 3 4 5 6 
#
# 1 80.9403 39.8137 17.0260 0.0000 0.0000 0.0000
# 2 39.8137 215.6108 26.9677 0.0000 0.0000 0.0000
# 3 17.0260 26.9677 76.5250 0.0000 0.0000 0.0000
# 4 0.0000 0.0000 0.0000 10.0021 0.0000 0.0000
# 5 0.0000 0.0000 0.0000 0.0000 -5.4707 0.0000
# 6 0.0000 0.0000 0.0000 0.0000 0.0000 47.6775
#
#
#
# Elastic Compliance Matrix: (Units=1/GPa)
#
#
# Indices 1 2 3 4 5 6 
#
# 1 0.013966 -0.002291 -0.002300 0.000000 0.000000 0.000000
# 2 -0.002291 0.005228 -0.001333 0.000000 0.000000 0.000000
# 3 -0.002300 -0.001333 0.014049 0.000000 0.000000 0.000000
# 4 0.000000 0.000000 0.000000 0.099979 0.000000 0.000000
# 5 0.000000 0.000000 0.000000 0.000000 -0.182792 0.000000
# 6 0.000000 0.000000 0.000000 0.000000 0.000000 0.020974
#
#
# Mechanical properties :
#
#
# Convention : Reuss Voigt Hill
#
# Bulk Modulus (GPa) = 46.73929 60.07675 53.40802
# Shear Modulus (GPa) = -519.86099 29.72637 -245.06731
#
# Velocity S-wave (km/s) = -15.03158 3.59444 -10.32057
# Velocity P-wave (km/s) = 16.76156 6.58316 10.89982
#
# Compressibility (1/GPa) = 0.02139528
#
# Stress axis : x y z
#
# Youngs Moduli (GPa) = 71.60475 191.28770 71.18003
#
# Poissons Ratio (x) = 0.43827 0.16370
# Poissons Ratio (y) = 0.16406 0.09485
# Poissons Ratio (z) = 0.16467 0.25489
#
# Static dielectric constant tensor:
#      x y z
#    x 2.022650 0.000000 0.000000 
#    y 0.000000 1.965190 0.000000 
#    z 0.000000 0.000000 1.783710 
# 
# From -- ./inp_files/6563.got.cif
#   From: 2010.05.17/outbox.cif.g08.bks.cpg/sg67_4_cif.got.tgz:6563.got - 2010.06.03 18:28:57.
