data_PCOD9500350
_publ_section_title
;
Structure prediction by ZEFSAII (Michael W. Deem and Ramdas Pophale) SiO2 
 PCOD9500350
Probable space group: C M M A
;
_chemical_formula_sum "Si O2"
_cell_formula_units_Z 96
_cell_length_a 8.877187
_cell_length_b 30.992292
_cell_length_c 26.266872
_cell_angle_alpha 90.000000
_cell_angle_beta 90.000000
_cell_angle_gamma 90.000000
_cell_volume 7226.656654
_symmetry_space_group_name_H-M "C M M A"
_symmetry_group_IT_number 67
_symmetry_cell_setting 'orthorhombic'
loop_
_space_group_symop_operation_xyz
x,y,z
-x,1/2-y,z
x,-y,-z
-x,1/2+y,-z
-x,-y,-z
x,1/2+y,-z
-x,y,z
x,1/2-y,z
1/2+x,1/2+y,z
1/2-x,-y,z
1/2+x,1/2-y,-z
1/2-x,y,-z
1/2-x,1/2-y,-z
1/2+x,y,-z
1/2-x,1/2+y,z
1/2+x,-y,z
loop_
_atom_site_type_symbol
_atom_site_label
_atom_site_fract_x
_atom_site_fract_y
_atom_site_fract_z
Si Si1 0.825962 0.697446 0.447383
Si Si2 0.173816 0.302581 0.342194
Si Si3 0.681599 0.456234 0.942611
Si Si4 0.677064 0.301536 0.867837
Si Si5 0.179959 0.132340 0.943695
Si Si6 0.172001 0.302415 0.762153
O O1 0.820090 0.750000 0.447499
O O2 0.750000 0.683065 0.500000
O O3 0.743868 0.683168 0.395808
O O4 0.000000 0.684926 0.446173
O O5 0.179074 0.250000 0.342327
O O6 0.263164 0.317088 0.292081
O O7 0.000000 0.315165 0.338547
O O8 0.500000 0.457456 0.944042
O O9 0.750000 0.500000 0.918931
O O10 0.743966 0.411225 0.921097
O O11 0.750000 0.455536 0.000000
O O12 0.500000 0.310247 0.875422
O O13 0.700735 0.250000 0.873221
O O14 0.774572 0.327933 0.908159
O O15 0.727405 0.314070 0.810736
O O16 0.000000 0.127066 0.947615
O O17 0.250000 0.138920 0.000000
O O18 0.171575 0.250000 0.760457
O O19 0.000000 0.316610 0.769405
#
# Coordination Sequence:
#
# PCOD9500350 Si02
#       6
#    16  16  16  16  16  16
#     4   9  15  21  28  39  56  77 100 128 165 210
#     4   9  15  22  32  45  60  79 104 135 171 211
#     4  10  17  28  45  65  86 105 125 148 178 216
#     4  10  20  33  46  59  76  99 127 159 194 230
#     4  11  21  33  47  63  82 103 127 154 187 227
#     4   9  16  26  39  53  67  85 112 146 182 218
#
# _framework density 13.284151
#
# number of rings (size 3 to 8) (size 9 to 14) (size 15 to 20)
#    0.000    2.333    0.000    6.500    0.000    7.333 
#    0.000    0.000    0.000    0.000    0.000    0.000 
#    0.000    0.000    0.000    0.000    0.000    0.000 
#
# Total GULP energy -267355.077213 kJ/mol
# GULP energy per Si atom -5569.897442 kJ/mol
# Density = 1.325392 g / cm^3
# Si number density = 13.284151 Si / 1000 Ang^3
#
#
#
# Elastic Constant Matrix: (Units=GPa)
#
#
# Indices 1 2 3 4 5 6 
#
# 1 111.8086 23.8546 31.3463 0.0000 0.0000 0.0000
# 2 23.8546 26.5638 18.6311 0.0000 0.0000 0.0000
# 3 31.3463 18.6311 68.2173 0.0000 0.0000 0.0000
# 4 0.0000 0.0000 0.0000 -0.4772 0.0000 0.0000
# 5 0.0000 0.0000 0.0000 0.0000 25.4740 0.0000
# 6 0.0000 0.0000 0.0000 0.0000 0.0000 12.3909
#
#
#
# Elastic Compliance Matrix: (Units=1/GPa)
#
#
# Indices 1 2 3 4 5 6 
#
# 1 0.011559 -0.008232 -0.003063 0.000000 0.000000 0.000000
# 2 -0.008232 0.052427 -0.010536 0.000000 0.000000 0.000000
# 3 -0.003063 -0.010536 0.018944 0.000000 0.000000 0.000000
# 4 0.000000 0.000000 0.000000 -2.095376 0.000000 0.000000
# 5 0.000000 0.000000 0.000000 0.000000 0.039256 0.000000
# 6 0.000000 0.000000 0.000000 0.000000 0.000000 0.080705
#
#
# Mechanical properties :
#
#
# Convention : Reuss Voigt Hill
#
# Bulk Modulus (GPa) = 25.46583 39.36152 32.41367
# Shear Modulus (GPa) = -2.72371 16.32803 6.80216
#
# Velocity S-wave (km/s) = -1.43345 3.50971 2.26531
# Velocity P-wave (km/s) = 4.05857 6.79108 5.59423
#
# Compressibility (1/GPa) = 0.03926831
#
# Stress axis : x y z
#
# Youngs Moduli (GPa) = 86.51366 19.07411 52.78668
#
# Poissons Ratio (x) = 0.15701 0.16170
# Poissons Ratio (y) = 0.71214 0.55617
# Poissons Ratio (z) = 0.26501 0.20097
#
# Static dielectric constant tensor:
#      x y z
#    x 1.448230 0.000000 0.000000 
#    y 0.000000 1.437020 0.000000 
#    z 0.000000 0.000000 1.435830 
# 
# From -- ./inp_files/40911.got.cif
#   From: 2010.05.17/outbox.cif.g08.bks.cpg/sg67_21_cif.got.tgz:40911.got - 2010.06.03 18:28:57.
