data_PCOD9500067
_publ_section_title
;
Structure prediction by ZEFSAII (Michael W. Deem and Ramdas Pophale) SiO2 
 PCOD9500067
Probable space group: C C C M
;
_chemical_formula_sum "Si O2"
_cell_formula_units_Z 58
_cell_length_a 24.000000
_cell_length_b 27.000000
_cell_length_c 9.000000
_cell_angle_alpha 90.000000
_cell_angle_beta 90.000000
_cell_angle_gamma 90.000000
_cell_volume 5832.000000
_symmetry_space_group_name_H-M "C C C M"
_symmetry_group_IT_number 66
_symmetry_cell_setting 'orthorhombic'
loop_
_space_group_symop_operation_xyz
x,y,z
-x,-y,z
x,-y,1/2-z
-x,y,1/2-z
-x,-y,-z
x,y,-z
-x,y,1/2+z
x,-y,1/2+z
1/2+x,1/2+y,z
1/2-x,1/2-y,z
1/2+x,1/2-y,1/2-z
1/2-x,1/2+y,1/2-z
1/2-x,1/2-y,-z
1/2+x,1/2+y,-z
1/2-x,1/2+y,1/2+z
1/2+x,1/2-y,1/2+z
loop_
_atom_site_type_symbol
_atom_site_label
_atom_site_fract_x
_atom_site_fract_y
_atom_site_fract_z
Si Si1 0.940813 0.206028 0.820594
Si Si2 0.942670 0.414078 0.180837
Si Si3 0.199429 0.950644 0.180596
Si Si4 0.321407 0.069167 0.668525
Si Si5 0.084031 0.309210 0.169034
Si Si6 0.293142 0.180385 0.254315
Si Si7 0.750000 0.250000 0.000000
Si Si8 0.333435 0.348232 0.175304
O O1 0.934867 0.262439 0.764494
O O2 0.884510 0.180080 0.755779
O O3 0.000000 0.187423 0.750000
O O4 0.941979 0.202355 0.000000
O O5 0.883601 0.439213 0.229076
O O6 0.935631 0.358891 0.248186
O O7 0.000000 0.434722 0.250000
O O8 0.944799 0.413430 0.000000
O O9 0.263946 0.949365 0.238468
O O10 0.171494 0.901411 0.244544
O O11 0.173645 0.000000 0.250000
O O12 0.198843 0.950191 0.000000
O O13 0.322499 0.050507 0.500000
O O14 0.309384 0.128112 0.669678
O O15 0.151771 0.309055 0.159417
O O16 0.062093 0.307339 0.000000
O O17 0.287776 0.223335 0.372742
O O18 0.230017 0.174048 0.190645
O O19 0.345219 0.351803 0.000000
#
# Coordination Sequence:
#
# PCOD9500067 Si02
#       8
#    16  16  16  16  16  16   4  16
#     4  12  26  42  59  78 108 152 198 240 286 337
#     4  10  19  32  51  75 106 149 200 245 287 331
#     4  10  20  37  63  93 119 145 181 227 293 360
#     4   8  16  32  50  75 111 144 185 228 279 338
#     4  11  22  36  53  77 112 150 197 247 287 331
#     4  10  21  31  54  81 115 148 192 231 288 333
#     4  12  20  28  50  76 112 148 194 224 280 334
#     4  11  23  40  61  87 120 151 190 239 290 345
#
# _framework density 9.9451300000000007
#
# number of rings (size 3 to 8) (size 9 to 14) (size 15 to 20)
#    0.000    1.655    0.690    4.552    5.793    0.000 
#    0.000    4.138    0.000    0.828    0.000    5.793 
#    0.000    0.000    0.000    0.000    0.000    0.000 
#
# Total GULP energy -322894.820073 kJ/mol
# GULP energy per Si atom -5567.152070 kJ/mol
# Density = 0.992249 g / cm^3
# Si number density = 9.945130 Si / 1000 Ang^3
#
#
#
# Elastic Constant Matrix: (Units=GPa)
#
#
# Indices 1 2 3 4 5 6 
#
# 1 112.1889 18.2665 29.2439 0.0000 0.0000 0.0000
# 2 18.2665 59.5339 20.5481 0.0000 0.0000 0.0000
# 3 29.2439 20.5481 135.0996 0.0000 0.0000 0.0000
# 4 0.0000 0.0000 0.0000 -0.3082 0.0000 0.0000
# 5 0.0000 0.0000 0.0000 0.0000 32.3056 0.0000
# 6 0.0000 0.0000 0.0000 0.0000 0.0000 2.0853
#
#
#
# Elastic Compliance Matrix: (Units=1/GPa)
#
#
# Indices 1 2 3 4 5 6 
#
# 1 0.009759 -0.002391 -0.001749 0.000000 0.000000 0.000000
# 2 -0.002391 0.018313 -0.002268 0.000000 0.000000 0.000000
# 3 -0.001749 -0.002268 0.008125 0.000000 0.000000 0.000000
# 4 0.000000 0.000000 0.000000 -3.244141 0.000000 0.000000
# 5 0.000000 0.000000 0.000000 0.000000 0.030954 0.000000
# 6 0.000000 0.000000 0.000000 0.000000 0.000000 0.479552
#
#
# Mechanical properties :
#
#
# Convention : Reuss Voigt Hill
#
# Bulk Modulus (GPa) = 42.76633 49.21549 45.99091
# Shear Modulus (GPa) = -1.86788 22.73412 10.43312
#
# Velocity S-wave (km/s) = -0.97012 3.38446 2.29276
# Velocity P-wave (km/s) = 4.50477 6.33009 5.49377
#
# Compressibility (1/GPa) = 0.02338288
#
# Stress axis : x y z
#
# Youngs Moduli (GPa) = 102.47348 54.60478 123.07043
#
# Poissons Ratio (x) = 0.13054 0.21522
# Poissons Ratio (y) = 0.24497 0.27911
# Poissons Ratio (z) = 0.17920 0.12384
#
# Static dielectric constant tensor:
#      x y z
#    x 1.738350 0.000000 0.000000 
#    y 0.000000 1.732770 0.000000 
#    z 0.000000 0.000000 1.677470 
# 
# From -- ./inp_files/9455.got.cif
#   From: 2010.05.17/outbox.ucp.g08.bks.cvg/sg66_5_cif.got.tgz:9455.got - 2010.06.11 16:44:13.
