data_PCOD9500596
_publ_section_title
;
Structure prediction by ZEFSAII (Michael W. Deem and Ramdas Pophale) SiO2 
 PCOD9500596
Probable space group: C M M A
;
_chemical_formula_sum "Si O2"
_cell_formula_units_Z 72
_cell_length_a 8.387006
_cell_length_b 32.322758
_cell_length_c 14.734983
_cell_angle_alpha 90.000000
_cell_angle_beta 90.000000
_cell_angle_gamma 90.000000
_cell_volume 3994.523712
_symmetry_space_group_name_H-M "C M M A"
_symmetry_group_IT_number 67
_symmetry_cell_setting 'orthorhombic'
loop_
_space_group_symop_operation_xyz
x,y,z
-x,1/2-y,z
x,-y,-z
-x,1/2+y,-z
-x,-y,-z
x,1/2+y,-z
-x,y,z
x,1/2-y,z
1/2+x,1/2+y,z
1/2-x,-y,z
1/2+x,1/2-y,-z
1/2-x,y,-z
1/2-x,1/2-y,-z
1/2+x,y,-z
1/2-x,1/2+y,z
1/2+x,-y,z
loop_
_atom_site_type_symbol
_atom_site_label
_atom_site_fract_x
_atom_site_fract_y
_atom_site_fract_z
Si Si1 0.307134 0.203970 0.603647
Si Si2 0.805162 0.623973 0.717457
Si Si3 0.690026 0.338165 0.897448
Si Si4 0.191276 0.454531 0.397404
Si Si5 0.689911 0.250000 0.104227
O O1 0.500000 0.203717 0.604780
O O2 0.254715 0.250000 0.635320
O O3 0.250000 0.199263 0.500000
O O4 0.252384 0.164839 0.662373
O O5 0.756184 0.628928 0.822250
O O6 0.752056 0.582360 0.667630
O O7 0.000000 0.623993 0.715953
O O8 0.500000 0.337757 0.901808
O O9 0.743851 0.293217 0.860033
O O10 0.750000 0.344166 0.000000
O O11 0.250000 0.500000 0.369592
O O12 0.250000 0.447012 0.500000
O O13 0.000000 0.454746 0.398394
O O14 0.500000 0.250000 0.106701
O O15 0.750000 0.250000 0.000000
#
# Coordination Sequence:
#
# PCOD9500596 Si02
#       5
#    16  16  16  16   8
#     4   9  17  30  47  67  94 128 163 195 235 286
#     4   9  19  32  51  74  97 131 169 203 244 303
#     4  10  19  33  51  71  97 132 170 212 254 295
#     4  10  19  34  54  79 105 131 164 203 252 302
#     4  10  18  30  46  68  95 128 167 210 251 292
#
# _framework density 18.024678000000002
#
# number of rings (size 3 to 8) (size 9 to 14) (size 15 to 20)
#    0.000    2.444    0.000    5.000    1.556    0.000 
#    0.000    7.778    0.000    0.667    0.000    4.667 
#    0.000    0.000    0.000    0.000    0.000    0.000 
#
# Total GULP energy -200779.149836 kJ/mol
# GULP energy per Si atom -5577.198607 kJ/mol
# Density = 1.798365 g / cm^3
# Si number density = 18.024678 Si / 1000 Ang^3
#
#
#
# Elastic Constant Matrix: (Units=GPa)
#
#
# Indices 1 2 3 4 5 6 
#
# 1 41.3178 25.0220 18.5222 0.0000 0.0000 0.0000
# 2 25.0220 153.0498 101.9860 0.0000 0.0000 0.0000
# 3 18.5222 101.9860 112.1571 0.0000 0.0000 0.0000
# 4 0.0000 0.0000 0.0000 32.3217 0.0000 0.0000
# 5 0.0000 0.0000 0.0000 0.0000 16.3972 0.0000
# 6 0.0000 0.0000 0.0000 0.0000 0.0000 13.0141
#
#
#
# Elastic Compliance Matrix: (Units=1/GPa)
#
#
# Indices 1 2 3 4 5 6 
#
# 1 0.026918 -0.003651 -0.001126 0.000000 0.000000 0.000000
# 2 -0.003651 0.017075 -0.014924 0.000000 0.000000 0.000000
# 3 -0.001126 -0.014924 0.022673 0.000000 0.000000 0.000000
# 4 0.000000 0.000000 0.000000 0.030939 0.000000 0.000000
# 5 0.000000 0.000000 0.000000 0.000000 0.060986 0.000000
# 6 0.000000 0.000000 0.000000 0.000000 0.000000 0.076840
#
#
# Mechanical properties :
#
#
# Convention : Reuss Voigt Hill
#
# Bulk Modulus (GPa) = 36.67677 66.39834 51.53755
# Shear Modulus (GPa) = 17.61059 23.07958 20.34508
#
# Velocity S-wave (km/s) = 3.12913 3.58221 3.36331
# Velocity P-wave (km/s) = 5.78339 7.35031 6.61342
#
# Compressibility (1/GPa) = 0.02726521
#
# Stress axis : x y z
#
# Youngs Moduli (GPa) = 37.14967 58.56364 44.10598
#
# Poissons Ratio (x) = 0.21379 0.04966
# Poissons Ratio (y) = 0.13562 0.65824
# Poissons Ratio (z) = 0.04182 0.87401
#
# Static dielectric constant tensor:
#      x y z
#    x 1.601430 0.000000 0.000000 
#    y 0.000000 1.633050 0.000000 
#    z 0.000000 0.000000 1.618970 
# 
# From -- ./inp_files/25332.got.cif
#   From: 2010.05.17/outbox.cif.g08.bks.cpg/sg67_13_cif.got.tgz:25332.got - 2010.06.03 18:28:57.
