data_PCOD9500641
_publ_section_title
;
Structure prediction by ZEFSAII (Michael W. Deem and Ramdas Pophale) SiO2 
 PCOD9500641
Probable space group: C M M A
;
_chemical_formula_sum "Si O2"
_cell_formula_units_Z 120
_cell_length_a 27.813308
_cell_length_b 8.591978
_cell_length_c 28.932594
_cell_angle_alpha 90.000000
_cell_angle_beta 90.000000
_cell_angle_gamma 90.000000
_cell_volume 6914.060481
_symmetry_space_group_name_H-M "C M M A"
_symmetry_group_IT_number 67
_symmetry_cell_setting 'orthorhombic'
loop_
_space_group_symop_operation_xyz
x,y,z
-x,1/2-y,z
x,-y,-z
-x,1/2+y,-z
-x,-y,-z
x,1/2+y,-z
-x,y,z
x,1/2-y,z
1/2+x,1/2+y,z
1/2-x,-y,z
1/2+x,1/2-y,-z
1/2-x,y,-z
1/2-x,1/2-y,-z
1/2+x,y,-z
1/2-x,1/2+y,z
1/2+x,-y,z
loop_
_atom_site_type_symbol
_atom_site_label
_atom_site_fract_x
_atom_site_fract_y
_atom_site_fract_z
Si Si1 0.803026 0.062100 0.609852
Si Si2 0.302827 0.936406 0.898661
Si Si3 0.602087 0.437694 0.447642
Si Si4 0.393383 0.563901 0.049773
Si Si5 0.697570 0.437951 0.283930
Si Si6 0.553821 0.437690 0.857263
Si Si7 0.000000 0.563483 0.552735
Si Si8 0.142996 0.562615 0.194448
O O1 0.800534 0.250000 0.608390
O O2 0.849413 0.015127 0.579681
O O3 0.811678 0.012696 0.663211
O O4 0.750000 0.000000 0.595777
O O5 0.303126 0.750000 0.900773
O O6 0.321162 0.984721 0.847324
O O7 0.250000 0.000000 0.907002
O O8 0.341132 0.002098 0.935059
O O9 0.606167 0.500000 0.500000
O O10 0.599317 0.250000 0.448121
O O11 0.551156 0.502030 0.427822
O O12 0.392522 0.750000 0.048226
O O13 0.428238 0.514139 0.091674
O O14 0.407475 0.500000 0.000000
O O15 0.698227 0.250000 0.283684
O O16 0.750000 0.500000 0.271039
O O17 0.660963 0.491287 0.244431
O O18 0.500000 0.491972 0.848784
O O19 0.554802 0.250000 0.856284
O O20 0.591436 0.500254 0.820338
O O21 0.000000 0.500000 0.500000
O O22 0.000000 0.750000 0.552616
O O23 0.141923 0.750000 0.194686
#
# Coordination Sequence:
#
# PCOD9500641 Si02
#       8
#    16  16  16  16  16  16   8  16
#     4   9  19  33  50  72 102 137 171 207 251 303
#     4  10  19  31  47  70  97 124 154 189 230 277
#     4  10  19  32  50  73 100 134 173 214 258 304
#     4  10  20  34  50  69  94 123 156 192 231 276
#     4   9  17  31  50  74 101 129 162 198 238 286
#     4   9  19  35  53  72  95 124 156 192 236 283
#     4  10  18  30  50  74  96 124 164 212 258 300
#     4   9  18  31  50  74  98 122 154 196 236 280
#
# _framework density 17.355937999999998
#
# number of rings (size 3 to 8) (size 9 to 14) (size 15 to 20)
#    0.000    2.533    0.000    3.000    0.000    3.733 
#    0.000    2.667    1.467    0.000    0.000    0.000 
#    0.000    0.000    0.000    0.000    0.000    0.000 
#
# Total GULP energy -334498.820114 kJ/mol
# GULP energy per Si atom -5574.980335 kJ/mol
# Density = 1.731643 g / cm^3
# Si number density = 17.355938 Si / 1000 Ang^3
#
#
#
# Elastic Constant Matrix: (Units=GPa)
#
#
# Indices 1 2 3 4 5 6 
#
# 1 142.7086 25.5629 73.2204 0.0000 0.0000 0.0000
# 2 25.5629 31.6751 19.7738 0.0000 0.0000 0.0000
# 3 73.2204 19.7738 82.6861 0.0000 0.0000 0.0000
# 4 0.0000 0.0000 0.0000 18.9238 0.0000 0.0000
# 5 0.0000 0.0000 0.0000 0.0000 8.8670 0.0000
# 6 0.0000 0.0000 0.0000 0.0000 0.0000 27.8041
#
#
#
# Elastic Compliance Matrix: (Units=1/GPa)
#
#
# Indices 1 2 3 4 5 6 
#
# 1 0.013251 -0.003960 -0.010787 0.000000 0.000000 0.000000
# 2 -0.003960 0.038294 -0.005651 0.000000 0.000000 0.000000
# 3 -0.010787 -0.005651 0.022998 0.000000 0.000000 0.000000
# 4 0.000000 0.000000 0.000000 0.052843 0.000000 0.000000
# 5 0.000000 0.000000 0.000000 0.000000 0.112778 0.000000
# 6 0.000000 0.000000 0.000000 0.000000 0.000000 0.035966
#
#
# Mechanical properties :
#
#
# Convention : Reuss Voigt Hill
#
# Bulk Modulus (GPa) = 29.63280 54.90933 42.27107
# Shear Modulus (GPa) = 15.23571 20.35316 17.79444
#
# Velocity S-wave (km/s) = 2.96605 3.42817 3.20545
# Velocity P-wave (km/s) = 5.37034 6.88300 6.17318
#
# Compressibility (1/GPa) = 0.03374639
#
# Stress axis : x y z
#
# Youngs Moduli (GPa) = 75.46385 26.11359 43.48243
#
# Poissons Ratio (x) = 0.10341 0.46906
# Poissons Ratio (y) = 0.29884 0.24572
# Poissons Ratio (z) = 0.81406 0.14757
#
# Static dielectric constant tensor:
#      x y z
#    x 1.586220 0.000000 0.000000 
#    y 0.000000 1.595230 0.000000 
#    z 0.000000 0.000000 1.587470 
# 
# From -- ./inp_files/45005.got.cif
#   From: 2010.05.17/outbox.cif.g08.bks.cpg/sg67_23_cif.got.tgz:45005.got - 2010.06.03 18:28:57.
