data_PCOD9500330
_publ_section_title
;
Structure prediction by ZEFSAII (Michael W. Deem and Ramdas Pophale) SiO2 
 PCOD9500330
Probable space group: C M M A
;
_chemical_formula_sum "Si O2"
_cell_formula_units_Z 88
_cell_length_a 28.428650
_cell_length_b 8.671881
_cell_length_c 19.528172
_cell_angle_alpha 90.000000
_cell_angle_beta 90.000000
_cell_angle_gamma 90.000000
_cell_volume 4814.277700
_symmetry_space_group_name_H-M "C M M A"
_symmetry_group_IT_number 67
_symmetry_cell_setting 'orthorhombic'
loop_
_space_group_symop_operation_xyz
x,y,z
-x,1/2-y,z
x,-y,-z
-x,1/2+y,-z
-x,-y,-z
x,1/2+y,-z
-x,y,z
x,1/2-y,z
1/2+x,1/2+y,z
1/2-x,-y,z
1/2+x,1/2-y,-z
1/2-x,y,-z
1/2-x,1/2-y,-z
1/2+x,y,-z
1/2-x,1/2+y,z
1/2+x,-y,z
loop_
_atom_site_type_symbol
_atom_site_label
_atom_site_fract_x
_atom_site_fract_y
_atom_site_fract_z
Si Si1 0.296305 0.567718 0.209121
Si Si2 0.391950 0.566969 0.806471
Si Si3 0.443646 0.425575 0.929220
Si Si4 0.403156 0.437249 0.351869
Si Si5 0.799234 0.934303 0.363295
Si Si6 0.500000 0.062772 0.423682
O O1 0.292579 0.750000 0.219086
O O2 0.250000 0.500000 0.174178
O O3 0.344244 0.520190 0.173371
O O4 0.298693 0.484152 0.283420
O O5 0.383966 0.750000 0.805067
O O6 0.429770 0.522646 0.862820
O O7 0.404470 0.518658 0.728554
O O8 0.500000 0.421563 0.933379
O O9 0.426656 0.250000 0.922213
O O10 0.425982 0.500000 0.000000
O O11 0.402746 0.250000 0.354049
O O12 0.352414 0.485851 0.384498
O O13 0.451307 0.488908 0.387592
O O14 0.796944 0.750000 0.368732
O O15 0.750000 0.000000 0.393424
O O16 0.500000 0.250000 0.423165
O O17 0.500000 0.000000 0.500000
#
# Coordination Sequence:
#
# PCOD9500330 Si02
#       6
#    16  16  16  16  16   8
#     4  10  17  27  44  69 102 136 167 207 255 305
#     4  10  19  32  52  78 102 132 172 215 259 307
#     4  10  21  36  52  73 102 137 173 213 259 309
#     4   8  17  31  51  75 102 133 172 210 256 311
#     4   9  15  26  44  71 100 131 165 208 257 309
#     4  10  20  38  56  74 101 138 173 210 253 308
#
# _framework density 18.278963000000001
#
# number of rings (size 3 to 8) (size 9 to 14) (size 15 to 20)
#    0.000    2.545    0.000    5.455    1.273    1.091 
#    0.000    5.455    0.000    1.091    0.000    7.636 
#    0.000    0.000    0.000    0.000    0.000    0.000 
#
# Total GULP energy -244977.285504 kJ/mol
# GULP energy per Si atom -5567.665580 kJ/mol
# Density = 1.823736 g / cm^3
# Si number density = 18.278963 Si / 1000 Ang^3
#
#
#
# Elastic Constant Matrix: (Units=GPa)
#
#
# Indices 1 2 3 4 5 6 
#
# 1 132.6661 33.1039 49.2396 0.0000 0.0000 0.0000
# 2 33.1039 55.7844 13.8686 0.0000 0.0000 0.0000
# 3 49.2396 13.8686 56.2163 0.0000 0.0000 0.0000
# 4 0.0000 0.0000 0.0000 19.0305 0.0000 0.0000
# 5 0.0000 0.0000 0.0000 0.0000 -10.2284 0.0000
# 6 0.0000 0.0000 0.0000 0.0000 0.0000 26.3929
#
#
#
# Elastic Compliance Matrix: (Units=1/GPa)
#
#
# Indices 1 2 3 4 5 6 
#
# 1 0.012323 -0.004932 -0.009577 0.000000 0.000000 0.000000
# 2 -0.004932 0.021071 -0.000879 0.000000 0.000000 0.000000
# 3 -0.009577 -0.000879 0.026393 0.000000 0.000000 0.000000
# 4 0.000000 0.000000 0.000000 0.052547 0.000000 0.000000
# 5 0.000000 0.000000 0.000000 0.000000 -0.097767 0.000000
# 6 0.000000 0.000000 0.000000 0.000000 0.000000 0.037889
#
#
# Mechanical properties :
#
#
# Convention : Reuss Voigt Hill
#
# Bulk Modulus (GPa) = 34.46710 48.56568 41.51639
# Shear Modulus (GPa) = 53.82037 16.93599 35.37818
#
# Velocity S-wave (km/s) = 5.43211 3.04720 4.40416
# Velocity P-wave (km/s) = 7.63157 6.24559 6.97310
#
# Compressibility (1/GPa) = 0.02901317
#
# Stress axis : x y z
#
# Youngs Moduli (GPa) = 81.15031 47.45807 37.88820
#
# Poissons Ratio (x) = 0.23405 0.36285
# Poissons Ratio (y) = 0.40022 0.03329
# Poissons Ratio (z) = 0.77716 0.04169
#
# Static dielectric constant tensor:
#      x y z
#    x 1.722500 0.000000 0.000000 
#    y 0.000000 1.634360 0.000000 
#    z 0.000000 0.000000 1.590860 
# 
# From -- ./inp_files/36199.got.cif
#   From: 2010.05.17/outbox.cif.g08.bks.cpg/sg67_19_cif.got.tgz:36199.got - 2010.06.03 18:28:57.
