data_PCOD9500197
_publ_section_title
;
Structure prediction by ZEFSAII (Michael W. Deem and Ramdas Pophale) SiO2 
 PCOD9500197
Probable space group: C M M A
;
_chemical_formula_sum "Si O2"
_cell_formula_units_Z 64
_cell_length_a 15.172089
_cell_length_b 8.666158
_cell_length_c 21.879831
_cell_angle_alpha 90.000000
_cell_angle_beta 90.000000
_cell_angle_gamma 90.000000
_cell_volume 2876.841583
_symmetry_space_group_name_H-M "C M M A"
_symmetry_group_IT_number 67
_symmetry_cell_setting 'orthorhombic'
loop_
_space_group_symop_operation_xyz
x,y,z
-x,1/2-y,z
x,-y,-z
-x,1/2+y,-z
-x,-y,-z
x,1/2+y,-z
-x,y,z
x,1/2-y,z
1/2+x,1/2+y,z
1/2-x,-y,z
1/2+x,1/2-y,-z
1/2-x,y,-z
1/2-x,1/2-y,-z
1/2+x,y,-z
1/2-x,1/2+y,z
1/2+x,-y,z
loop_
_atom_site_type_symbol
_atom_site_label
_atom_site_fract_x
_atom_site_fract_y
_atom_site_fract_z
Si Si1 0.604188 0.578376 0.061050
Si Si2 0.348411 0.067323 0.187134
Si Si3 0.149274 0.934926 0.437098
Si Si4 0.149353 0.934460 0.688519
O O1 0.500000 0.595547 0.050587
O O2 0.642322 0.750000 0.071028
O O3 0.612591 0.478267 0.121966
O O4 0.641677 0.500000 0.000000
O O5 0.347576 0.250000 0.195769
O O6 0.250000 0.000000 0.183957
O O7 0.390913 0.989849 0.247264
O O8 0.150788 0.750000 0.437933
O O9 0.109361 0.000000 0.500000
O O10 0.250000 0.000000 0.436684
O O11 0.109345 0.996503 0.373663
O O12 0.151283 0.750000 0.685330
O O13 0.250000 0.000000 0.690031
#
# Coordination Sequence:
#
# PCOD9500197 Si02
#       4
#    16  16  16  16
#     4  10  21  38  58  79 103 131 164 203 248 297
#     4  11  21  34  52  75 103 134 169 207 250 298
#     4  10  16  23  34  52  79 115 157 197 239 287
#     4  10  17  27  41  60  88 122 159 199 245 292
#
# _framework density 22.246621000000001
#
# number of rings (size 3 to 8) (size 9 to 14) (size 15 to 20)
#    0.000    1.750    0.000   11.250    0.000    2.000 
#    0.000    2.500    0.000    0.000    0.000    0.000 
#    0.000    1.000    0.000    3.750    0.000   14.000 
#
# Total GULP energy -178717.151629 kJ/mol
# GULP energy per Si atom -5584.910988 kJ/mol
# Density = 2.219599 g / cm^3
# Si number density = 22.246621 Si / 1000 Ang^3
#
#
#
# Elastic Constant Matrix: (Units=GPa)
#
#
# Indices 1 2 3 4 5 6 
#
# 1 38.2994 7.4646 11.7932 0.0000 0.0000 0.0000
# 2 7.4646 247.1264 93.7084 0.0000 0.0000 0.0000
# 3 11.7932 93.7084 229.8471 0.0000 0.0000 0.0000
# 4 0.0000 0.0000 0.0000 -61.3540 0.0000 0.0000
# 5 0.0000 0.0000 0.0000 0.0000 18.3453 0.0000
# 6 0.0000 0.0000 0.0000 0.0000 0.0000 9.4710
#
#
#
# Elastic Compliance Matrix: (Units=1/GPa)
#
#
# Indices 1 2 3 4 5 6 
#
# 1 0.026553 -0.000338 -0.001225 0.000000 0.000000 0.000000
# 2 -0.000338 0.004791 -0.001936 0.000000 0.000000 0.000000
# 3 -0.001225 -0.001936 0.005203 0.000000 0.000000 0.000000
# 4 0.000000 0.000000 0.000000 -0.016299 0.000000 0.000000
# 5 0.000000 0.000000 0.000000 0.000000 0.054510 0.000000
# 6 0.000000 0.000000 0.000000 0.000000 0.000000 0.105586
#
#
# Mechanical properties :
#
#
# Convention : Reuss Voigt Hill
#
# Bulk Modulus (GPa) = 33.84083 82.35614 58.09848
# Shear Modulus (GPa) = 25.35630 20.11290 22.73460
#
# Velocity S-wave (km/s) = 3.37973 3.01007 3.20024
# Velocity P-wave (km/s) = 5.52040 7.01289 6.31092
#
# Compressibility (1/GPa) = 0.02955010
#
# Stress axis : x y z
#
# Youngs Moduli (GPa) = 37.66048 208.73433 192.20375
#
# Poissons Ratio (x) = 0.07047 0.23540
# Poissons Ratio (y) = 0.01272 0.37208
# Poissons Ratio (z) = 0.04612 0.40408
#
# Static dielectric constant tensor:
#      x y z
#    x 1.834210 0.000000 0.000000 
#    y 0.000000 1.772310 0.000000 
#    z 0.000000 0.000000 1.901070 
# 
# From -- ./inp_files/34641.got.cif
#   From: 2010.05.17/outbox.cif.g08.bks.cpg/sg67_18_cif.got.tgz:34641.got - 2010.06.03 18:28:57.
