data_PCOD9500522
_publ_section_title
;
Structure prediction by ZEFSAII (Michael W. Deem and Ramdas Pophale) SiO2 
 PCOD9500522
Probable space group: C M M A
;
_chemical_formula_sum "Si O2"
_cell_formula_units_Z 112
_cell_length_a 29.380240
_cell_length_b 14.552151
_cell_length_c 12.173521
_cell_angle_alpha 90.000000
_cell_angle_beta 90.000000
_cell_angle_gamma 90.000000
_cell_volume 5204.736422
_symmetry_space_group_name_H-M "C M M A"
_symmetry_group_IT_number 67
_symmetry_cell_setting 'orthorhombic'
loop_
_space_group_symop_operation_xyz
x,y,z
-x,1/2-y,z
x,-y,-z
-x,1/2+y,-z
-x,-y,-z
x,1/2+y,-z
-x,y,z
x,1/2-y,z
1/2+x,1/2+y,z
1/2-x,-y,z
1/2+x,1/2-y,-z
1/2-x,y,-z
1/2-x,1/2-y,-z
1/2+x,y,-z
1/2-x,1/2+y,z
1/2+x,-y,z
loop_
_atom_site_type_symbol
_atom_site_label
_atom_site_fract_x
_atom_site_fract_y
_atom_site_fract_z
Si Si1 0.869622 0.615180 0.397094
Si Si2 0.367867 0.140865 0.971594
Si Si3 0.051166 0.056540 0.168542
Si Si4 0.263880 0.143777 0.381824
Si Si5 0.918964 0.351364 0.820030
Si Si6 0.384143 0.600087 0.357874
Si Si7 0.698743 0.145584 0.798873
O O1 0.817901 0.643696 0.376679
O O2 0.902706 0.652650 0.304598
O O3 0.885149 0.640128 0.520012
O O4 0.870455 0.505615 0.378534
O O5 0.369904 0.250000 0.946290
O O6 0.411977 0.093005 0.918376
O O7 0.322778 0.104166 0.910435
O O8 0.374772 0.132767 0.101552
O O9 0.070156 0.094729 0.285236
O O10 0.000000 0.087148 0.145638
O O11 0.052747 0.945147 0.168574
O O12 0.247525 0.250000 0.384744
O O13 0.250000 0.102981 0.500000
O O14 0.238814 0.103452 0.275019
O O15 0.938064 0.250000 0.850963
O O16 0.344751 0.644371 0.283687
O O17 0.712797 0.250000 0.826986
#
# Coordination Sequence:
#
# PCOD9500522 Si02
#       7
#    16  16  16  16  16  16  16
#     4  10  19  33  50  75 109 141 178 219 264 322
#     4   9  19  36  57  80 111 147 183 227 281 337
#     4  10  21  38  61  84 106 137 183 239 286 331
#     4  10  18  28  48  78 106 136 178 225 266 312
#     4  10  21  36  55  80 111 151 188 221 275 341
#     4   9  19  34  51  76 104 138 174 215 279 331
#     4   9  17  31  49  73 105 138 175 221 270 313
#
# _framework density 21.518861000000001
#
# number of rings (size 3 to 8) (size 9 to 14) (size 15 to 20)
#    0.000    2.429    1.429    0.857    0.000    2.857 
#    0.000    7.857    0.000    3.429    0.000    6.000 
#    0.000    0.000    0.000    0.000    0.000    0.000 
#
# Total GULP energy -312149.566095 kJ/mol
# GULP energy per Si atom -5574.099395 kJ/mol
# Density = 2.146988 g / cm^3
# Si number density = 21.518861 Si / 1000 Ang^3
#
#
#
# Elastic Constant Matrix: (Units=GPa)
#
#
# Indices 1 2 3 4 5 6 
#
# 1 29.1638 1.9304 -7.8337 0.0000 0.0000 0.0000
# 2 1.9304 73.0781 -1.7606 0.0000 0.0000 0.0000
# 3 -7.8337 -1.7606 93.3089 0.0000 0.0000 0.0000
# 4 0.0000 0.0000 0.0000 6.9235 0.0000 0.0000
# 5 0.0000 0.0000 0.0000 0.0000 4.6665 0.0000
# 6 0.0000 0.0000 0.0000 0.0000 0.0000 17.4122
#
#
#
# Elastic Compliance Matrix: (Units=1/GPa)
#
#
# Indices 1 2 3 4 5 6 
#
# 1 0.035134 -0.000857 0.002933 0.000000 0.000000 0.000000
# 2 -0.000857 0.013711 0.000187 0.000000 0.000000 0.000000
# 3 0.002933 0.000187 0.010967 0.000000 0.000000 0.000000
# 4 0.000000 0.000000 0.000000 0.144437 0.000000 0.000000
# 5 0.000000 0.000000 0.000000 0.000000 0.214295 0.000000
# 6 0.000000 0.000000 0.000000 0.000000 0.000000 0.057431
#
#
# Mechanical properties :
#
#
# Convention : Reuss Voigt Hill
#
# Bulk Modulus (GPa) = 15.54305 20.02477 17.78391
# Shear Modulus (GPa) = 10.14415 19.34807 14.74611
#
# Velocity S-wave (km/s) = 2.17355 3.00179 2.62060
# Velocity P-wave (km/s) = 3.67937 4.61954 4.17600
#
# Compressibility (1/GPa) = 0.06433743
#
# Stress axis : x y z
#
# Youngs Moduli (GPa) = 28.46260 72.93345 91.18355
#
# Poissons Ratio (x) = 0.06253 -0.26748
# Poissons Ratio (y) = 0.02440 -0.01703
# Poissons Ratio (z) = -0.08349 -0.01362
#
# Static dielectric constant tensor:
#      x y z
#    x 1.738790 0.000000 0.000000 
#    y 0.000000 1.892390 0.000000 
#    z 0.000000 0.000000 1.831500 
# 
# From -- ./inp_files/23808.got.cif
#   From: 2010.05.17/outbox.cif.g08.bks.cpg/sg67_12_cif.got.tgz:23808.got - 2010.06.03 18:28:57.
