data_PCOD9500371
_publ_section_title
;
Structure prediction by ZEFSAII (Michael W. Deem and Ramdas Pophale) SiO2 
 PCOD9500371
Probable space group: C M M A
;
_chemical_formula_sum "Si O2"
_cell_formula_units_Z 56
_cell_length_a 8.568099
_cell_length_b 38.105451
_cell_length_c 9.180181
_cell_angle_alpha 90.000000
_cell_angle_beta 90.000000
_cell_angle_gamma 90.000000
_cell_volume 2997.249014
_symmetry_space_group_name_H-M "C M M A"
_symmetry_group_IT_number 67
_symmetry_cell_setting 'orthorhombic'
loop_
_space_group_symop_operation_xyz
x,y,z
-x,1/2-y,z
x,-y,-z
-x,1/2+y,-z
-x,-y,-z
x,1/2+y,-z
-x,y,z
x,1/2-y,z
1/2+x,1/2+y,z
1/2-x,-y,z
1/2+x,1/2-y,-z
1/2-x,y,-z
1/2-x,1/2-y,-z
1/2+x,y,-z
1/2-x,1/2+y,z
1/2+x,-y,z
loop_
_atom_site_type_symbol
_atom_site_label
_atom_site_fract_x
_atom_site_fract_y
_atom_site_fract_z
Si Si1 0.813415 0.536317 0.833272
Si Si2 0.186785 0.176739 0.334927
Si Si3 0.313218 0.390399 0.165028
Si Si4 0.813302 0.250000 0.666503
O O1 0.750000 0.500000 0.766516
O O2 0.750335 0.572841 0.769658
O O3 0.000000 0.536107 0.835613
O O4 0.750000 0.536509 0.000000
O O5 0.250000 0.174600 0.500000
O O6 0.250387 0.143190 0.250090
O O7 0.249636 0.213551 0.269568
O O8 0.000000 0.177261 0.336189
O O9 0.500000 0.391138 0.163647
O O10 0.250000 0.388118 0.000000
O O11 0.750000 0.250000 0.500000
O O12 0.000000 0.250000 0.665173
#
# Coordination Sequence:
#
# PCOD9500371 Si02
#       4
#    16  16  16   8
#     4  10  17  28  46  71 100 134 172 214 256 303
#     4  11  21  36  56  80 106 138 175 216 259 308
#     4  11  21  35  53  78 108 140 174 216 263 312
#     4  10  18  32  53  78 103 134 173 216 256 302
#
# _framework density 18.683800000000002
#
# number of rings (size 3 to 8) (size 9 to 14) (size 15 to 20)
#    0.000    1.429    0.000   13.286    0.000    0.000 
#    0.000    0.714    0.000    0.857    0.000    6.000 
#    0.000    0.000    0.000    0.000    0.000    0.000 
#
# Total GULP energy -156315.211832 kJ/mol
# GULP energy per Si atom -5582.686137 kJ/mol
# Density = 1.864128 g / cm^3
# Si number density = 18.683800 Si / 1000 Ang^3
#
#
#
# Elastic Constant Matrix: (Units=GPa)
#
#
# Indices 1 2 3 4 5 6 
#
# 1 246.8904 102.4750 22.6044 0.0000 0.0000 0.0000
# 2 102.4750 246.8967 44.5709 0.0000 0.0000 0.0000
# 3 22.6044 44.5709 21.9997 0.0000 0.0000 0.0000
# 4 0.0000 0.0000 0.0000 41.2009 0.0000 0.0000
# 5 0.0000 0.0000 0.0000 0.0000 20.3823 0.0000
# 6 0.0000 0.0000 0.0000 0.0000 0.0000 41.1771
#
#
#
# Elastic Compliance Matrix: (Units=1/GPa)
#
#
# Indices 1 2 3 4 5 6 
#
# 1 0.004922 -0.001782 -0.001448 0.000000 0.000000 0.000000
# 2 -0.001782 0.007031 -0.012413 0.000000 0.000000 0.000000
# 3 -0.001448 -0.012413 0.072092 0.000000 0.000000 0.000000
# 4 0.000000 0.000000 0.000000 0.024271 0.000000 0.000000
# 5 0.000000 0.000000 0.000000 0.000000 0.049062 0.000000
# 6 0.000000 0.000000 0.000000 0.000000 0.000000 0.024285
#
#
# Mechanical properties :
#
#
# Convention : Reuss Voigt Hill
#
# Bulk Modulus (GPa) = 18.95408 95.00972 56.98190
# Shear Modulus (GPa) = 21.68848 43.62783 32.65815
#
# Velocity S-wave (km/s) = 3.41077 4.83749 4.18537
# Velocity P-wave (km/s) = 5.06733 9.06441 7.34307
#
# Compressibility (1/GPa) = 0.05275909
#
# Stress axis : x y z
#
# Youngs Moduli (GPa) = 203.15023 142.23393 13.87110
#
# Poissons Ratio (x) = 0.25341 0.02009
# Poissons Ratio (y) = 0.36194 0.17219
# Poissons Ratio (z) = 0.29420 1.76560
#
# Static dielectric constant tensor:
#      x y z
#    x 1.613980 0.000000 0.000000 
#    y 0.000000 1.726150 0.000000 
#    z 0.000000 0.000000 1.615870 
# 
# From -- ./inp_files/15704.got.cif
#   From: 2010.05.17/outbox.cif.g08.bks.cpg/sg67_8_cif.got.tgz:15704.got - 2010.06.03 18:28:57.
