data_PCOD9500167
_publ_section_title
;
Structure prediction by ZEFSAII (Michael W. Deem and Ramdas Pophale) SiO2 
 PCOD9500167
Probable space group: C M M A
;
_chemical_formula_sum "Si O2"
_cell_formula_units_Z 80
_cell_length_a 15.016106
_cell_length_b 8.706285
_cell_length_c 27.685509
_cell_angle_alpha 90.000000
_cell_angle_beta 90.000000
_cell_angle_gamma 90.000000
_cell_volume 3619.451133
_symmetry_space_group_name_H-M "C M M A"
_symmetry_group_IT_number 67
_symmetry_cell_setting 'orthorhombic'
loop_
_space_group_symop_operation_xyz
x,y,z
-x,1/2-y,z
x,-y,-z
-x,1/2+y,-z
-x,-y,-z
x,1/2+y,-z
-x,y,z
x,1/2-y,z
1/2+x,1/2+y,z
1/2-x,-y,z
1/2+x,1/2-y,-z
1/2-x,y,-z
1/2-x,1/2-y,-z
1/2+x,y,-z
1/2-x,1/2+y,z
1/2+x,-y,z
loop_
_atom_site_type_symbol
_atom_site_label
_atom_site_fract_x
_atom_site_fract_y
_atom_site_fract_z
Si Si1 0.648388 0.065504 0.549663
Si Si2 0.148677 0.564814 0.747657
Si Si3 0.104914 0.418545 0.952454
Si Si4 0.150976 0.067082 0.147381
Si Si5 0.648458 0.565915 0.648870
O O1 0.649720 0.250000 0.549113
O O2 0.608202 0.000000 0.500000
O O3 0.750000 0.000000 0.549935
O O4 0.608196 0.002956 0.599690
O O5 0.150398 0.750000 0.742575
O O6 0.250000 0.500000 0.749656
O O7 0.109164 0.524857 0.800389
O O8 0.107897 0.491557 0.699445
O O9 0.145976 0.250000 0.946240
O O10 0.110851 0.507785 0.902294
O O11 0.000000 0.401053 0.961741
O O12 0.142905 0.500000 0.000000
O O13 0.153380 0.250000 0.146206
O O14 0.250000 0.000000 0.147663
O O15 0.650245 0.750000 0.646733
O O16 0.750000 0.500000 0.649889
#
# Coordination Sequence:
#
# PCOD9500167 Si02
#       5
#    16  16  16  16  16
#     4  10  16  22  29  39  57  83 120 166 212 257
#     4   9  16  26  39  57  80 107 138 175 219 264
#     4  10  21  37  56  76  99 127 159 194 233 280
#     4  10  20  33  51  74 100 127 158 197 238 281
#     4  10  16  22  32  46  65  93 128 167 212 260
#
# _framework density 22.102799000000001
#
# number of rings (size 3 to 8) (size 9 to 14) (size 15 to 20)
#    0.000    2.200    0.000    8.400    0.000    4.000 
#    0.000    2.000    0.000    0.000    0.000    0.000 
#    0.000    0.000    0.000    0.000    0.000    1.000 
#
# Total GULP energy -223133.644708 kJ/mol
# GULP energy per Si atom -5578.341118 kJ/mol
# Density = 2.205249 g / cm^3
# Si number density = 22.102799 Si / 1000 Ang^3
#
#
#
# Elastic Constant Matrix: (Units=GPa)
#
#
# Indices 1 2 3 4 5 6 
#
# 1 45.6111 5.7994 15.8581 0.0000 0.0000 0.0000
# 2 5.7994 184.5422 109.8819 0.0000 0.0000 0.0000
# 3 15.8581 109.8819 271.3199 0.0000 0.0000 0.0000
# 4 0.0000 0.0000 0.0000 -349.3206 0.0000 0.0000
# 5 0.0000 0.0000 0.0000 0.0000 61.2652 0.0000
# 6 0.0000 0.0000 0.0000 0.0000 0.0000 0.5585
#
#
#
# Elastic Compliance Matrix: (Units=1/GPa)
#
#
# Indices 1 2 3 4 5 6 
#
# 1 0.022381 0.000100 -0.001348 0.000000 0.000000 0.000000
# 2 0.000100 0.007141 -0.002898 0.000000 0.000000 0.000000
# 3 -0.001348 -0.002898 0.004938 0.000000 0.000000 0.000000
# 4 0.000000 0.000000 0.000000 -0.002863 0.000000 0.000000
# 5 0.000000 0.000000 0.000000 0.000000 0.016322 0.000000
# 6 0.000000 0.000000 0.000000 0.000000 0.000000 1.790402
#
#
# Mechanical properties :
#
#
# Convention : Reuss Voigt Hill
#
# Bulk Modulus (GPa) = 38.21699 84.95022 61.58360
# Shear Modulus (GPa) = 2.69493 -32.83711 -15.07109
#
# Velocity S-wave (km/s) = 1.10540 -3.85860 -2.61408
# Velocity P-wave (km/s) = 4.35400 4.32040 4.33723
#
# Compressibility (1/GPa) = 0.02616637
#
# Stress axis : x y z
#
# Youngs Moduli (GPa) = 44.68150 140.03243 202.50563
#
# Poissons Ratio (x) = -0.01394 0.27306
# Poissons Ratio (y) = -0.00445 0.58685
# Poissons Ratio (z) = 0.06025 0.40580
#
# Static dielectric constant tensor:
#      x y z
#    x 1.813480 0.000000 0.000000 
#    y 0.000000 1.765120 0.000000 
#    z 0.000000 0.000000 1.907930 
# 
# From -- ./inp_files/44425.got.cif
#   From: 2010.05.17/outbox.cif.g08.bks.cpg/sg67_23_cif.got.tgz:44425.got - 2010.06.03 18:28:57.
