data_PCOD9500050
_publ_section_title
;
Structure prediction by ZEFSAII (Michael W. Deem and Ramdas Pophale) SiO2 
 PCOD9500050
Probable space group: C C C M
;
_chemical_formula_sum "Si O2"
_cell_formula_units_Z 64
_cell_length_a 13.038698
_cell_length_b 12.646378
_cell_length_c 14.774165
_cell_angle_alpha 90.000000
_cell_angle_beta 90.000000
_cell_angle_gamma 90.000000
_cell_volume 2436.146100
_symmetry_space_group_name_H-M "C C C M"
_symmetry_group_IT_number 66
_symmetry_cell_setting 'orthorhombic'
loop_
_space_group_symop_operation_xyz
x,y,z
-x,-y,z
x,-y,1/2-z
-x,y,1/2-z
-x,-y,-z
x,y,-z
-x,y,1/2+z
x,-y,1/2+z
1/2+x,1/2+y,z
1/2-x,1/2-y,z
1/2+x,1/2-y,1/2-z
1/2-x,1/2+y,1/2-z
1/2-x,1/2-y,-z
1/2+x,1/2+y,-z
1/2-x,1/2+y,1/2+z
1/2+x,1/2-y,1/2+z
loop_
_atom_site_type_symbol
_atom_site_label
_atom_site_fract_x
_atom_site_fract_y
_atom_site_fract_z
Si Si1 0.601198 0.555485 0.393001
Si Si2 0.870209 0.282893 0.598168
Si Si3 0.872990 0.733710 0.702294
Si Si4 0.331377 0.973074 0.895107
O O1 0.500000 0.500000 0.355354
O O2 0.602054 0.537148 0.500000
O O3 0.597273 0.678217 0.369706
O O4 0.713022 0.514884 0.361962
O O5 0.912384 0.246807 0.500000
O O6 0.750000 0.250000 0.595424
O O7 0.911045 0.247055 0.695494
O O8 0.876790 0.410034 0.602779
O O9 0.750000 0.750000 0.708719
O O10 0.886194 0.614693 0.665802
O O11 0.329766 0.934388 0.000000
#
# Coordination Sequence:
#
# PCOD9500050 Si02
#       4
#    16  16  16  16
#     4   9  17  29  47  75 110 143 174 219 290 368
#     4   9  17  28  44  67  96 134 182 236 285 325
#     4   9  16  27  46  69 100 138 181 231 286 342
#     4   9  16  27  46  73 103 137 182 236 291 345
#
# _framework density 26.271004000000001
#
# number of rings (size 3 to 8) (size 9 to 14) (size 15 to 20)
#    0.000    3.000    0.000    1.500    0.000    3.000 
#    0.000    0.000    0.000   27.750    0.000   12.250 
#    0.000   24.000    0.000    4.000    0.000    5.250 
#
# Total GULP energy -179148.678922 kJ/mol
# GULP energy per Si atom -5598.396216 kJ/mol
# Density = 2.621121 g / cm^3
# Si number density = 26.271004 Si / 1000 Ang^3
#
#
#
# Elastic Constant Matrix: (Units=GPa)
#
#
# Indices 1 2 3 4 5 6 
#
# 1 87.7514 4.6359 22.0458 0.0000 0.0000 0.0000
# 2 4.6359 73.4067 -0.2618 0.0000 0.0000 0.0000
# 3 22.0458 -0.2618 114.2655 0.0000 0.0000 0.0000
# 4 0.0000 0.0000 0.0000 -25.9935 0.0000 0.0000
# 5 0.0000 0.0000 0.0000 0.0000 33.2081 0.0000
# 6 0.0000 0.0000 0.0000 0.0000 0.0000 33.1572
#
#
#
# Elastic Compliance Matrix: (Units=1/GPa)
#
#
# Indices 1 2 3 4 5 6 
#
# 1 0.012019 -0.000767 -0.002321 0.000000 0.000000 0.000000
# 2 -0.000767 0.013672 0.000179 0.000000 0.000000 0.000000
# 3 -0.002321 0.000179 0.009200 0.000000 0.000000 0.000000
# 4 0.000000 0.000000 0.000000 -0.038471 0.000000 0.000000
# 5 0.000000 0.000000 0.000000 0.000000 0.030113 0.000000
# 6 0.000000 0.000000 0.000000 0.000000 0.000000 0.030159
#
#
# Mechanical properties :
#
#
# Convention : Reuss Voigt Hill
#
# Bulk Modulus (GPa) = 34.39554 36.47373 35.43464
# Shear Modulus (GPa) = 69.25131 24.67461 46.96296
#
# Velocity S-wave (km/s) = 5.13980 3.06802 4.23263
# Velocity P-wave (km/s) = 6.95302 5.14433 6.11590
#
# Compressibility (1/GPa) = 0.02907354
#
# Stress axis : x y z
#
# Youngs Moduli (GPa) = 83.19880 73.14310 108.69916
#
# Poissons Ratio (x) = 0.05613 0.25226
# Poissons Ratio (y) = 0.06384 -0.01950
# Poissons Ratio (z) = 0.19308 -0.01312
#
# Static dielectric constant tensor:
#      x y z
#    x 2.197360 0.000000 0.000000 
#    y 0.000000 1.955170 0.000000 
#    z 0.000000 0.000000 2.026770 
# 
# From -- ./inp_files/29564.got.cif
#   From: 2010.05.17/outbox.cif.g08.bks.cpg/sg66_15_cif.got.tgz:29564.got - 2010.06.03 17:51:23.
