data_PCOD9500605
_publ_section_title
;
Structure prediction by ZEFSAII (Michael W. Deem and Ramdas Pophale) SiO2 
 PCOD9500605
Probable space group: C M M A
;
_chemical_formula_sum "Si O2"
_cell_formula_units_Z 48
_cell_length_a 40.078095
_cell_length_b 5.583356
_cell_length_c 9.435214
_cell_angle_alpha 90.000000
_cell_angle_beta 90.000000
_cell_angle_gamma 90.000000
_cell_volume 2111.320405
_symmetry_space_group_name_H-M "C M M A"
_symmetry_group_IT_number 67
_symmetry_cell_setting 'orthorhombic'
loop_
_space_group_symop_operation_xyz
x,y,z
-x,1/2-y,z
x,-y,-z
-x,1/2+y,-z
-x,-y,-z
x,1/2+y,-z
-x,y,z
x,1/2-y,z
1/2+x,1/2+y,z
1/2-x,-y,z
1/2+x,1/2-y,-z
1/2-x,y,-z
1/2-x,1/2-y,-z
1/2+x,y,-z
1/2-x,1/2+y,z
1/2+x,-y,z
loop_
_atom_site_type_symbol
_atom_site_label
_atom_site_fract_x
_atom_site_fract_y
_atom_site_fract_z
Si Si1 0.961355 0.250000 0.175444
Si Si2 0.763172 0.750000 0.662265
Si Si3 0.606135 0.750000 0.504273
Si Si4 0.661307 0.250000 0.744984
Si Si5 0.138499 0.750000 0.183688
Si Si6 0.064280 0.750000 0.140007
O O1 0.944212 0.500843 0.216977
O O2 0.000000 0.250000 0.213786
O O3 0.957021 0.250000 0.004085
O O4 0.750000 0.500000 0.726789
O O5 0.750000 0.750000 0.500000
O O6 0.803020 0.750000 0.668795
O O7 0.587231 0.500000 0.500000
O O8 0.632261 0.750000 0.374014
O O9 0.627031 0.750000 0.650355
O O10 0.657210 0.497192 0.832016
O O11 0.103360 0.750000 0.101725
#
# Coordination Sequence:
#
# PCOD9500605 Si02
#       6
#     8   8   8   8   8   8
#     4  10  19  33  53  73 105 127 141 182 231 292
#     4  10  21  27  43  62  84 121 178 196 228 283
#     4   8  16  25  41  53  82 118 156 180 233 254
#     4  10  19  31  42  61  94 127 165 197 240 269
#     4  10  19  28  45  63  93 127 156 199 228 271
#     4  10  18  30  47  74  97 126 160 175 228 290
#
# _framework density 22.734587999999999
#
# number of rings (size 3 to 8) (size 9 to 14) (size 15 to 20)
#    0.000    2.333    0.000    4.500   14.000    0.000 
#    0.000    0.000    0.000    0.000    0.000    0.000 
#    0.000  204.000    0.000  210.000    0.000    0.000 
#
# Total GULP energy -133861.008780 kJ/mol
# GULP energy per Si atom -5577.542033 kJ/mol
# Density = 2.268284 g / cm^3
# Si number density = 22.734588 Si / 1000 Ang^3
#
#
#
# Elastic Constant Matrix: (Units=GPa)
#
#
# Indices 1 2 3 4 5 6 
#
# 1 94.6317 28.4484 7.0700 0.0000 0.0000 0.0000
# 2 28.4484 263.3846 10.4586 0.0000 0.0000 0.0000
# 3 7.0700 10.4586 56.9038 0.0000 0.0000 0.0000
# 4 0.0000 0.0000 0.0000 -11.4763 0.0000 0.0000
# 5 0.0000 0.0000 0.0000 0.0000 23.8134 0.0000
# 6 0.0000 0.0000 0.0000 0.0000 0.0000 35.0191
#
#
#
# Elastic Compliance Matrix: (Units=1/GPa)
#
#
# Indices 1 2 3 4 5 6 
#
# 1 0.010997 -0.001142 -0.001156 0.000000 0.000000 0.000000
# 2 -0.001142 0.003943 -0.000583 0.000000 0.000000 0.000000
# 3 -0.001156 -0.000583 0.017824 0.000000 0.000000 0.000000
# 4 0.000000 0.000000 0.000000 -0.087136 0.000000 0.000000
# 5 0.000000 0.000000 0.000000 0.000000 0.041993 0.000000
# 6 0.000000 0.000000 0.000000 0.000000 0.000000 0.028556
#
#
# Mechanical properties :
#
#
# Convention : Reuss Voigt Hill
#
# Bulk Modulus (GPa) = 37.03412 56.31933 46.67673
# Shear Modulus (GPa) = 161.60056 34.06746 97.83401
#
# Velocity S-wave (km/s) = 8.44012 3.87523 6.56708
# Velocity P-wave (km/s) = 10.55017 6.69698 8.83616
#
# Compressibility (1/GPa) = 0.02700212
#
# Stress axis : x y z
#
# Youngs Moduli (GPa) = 90.93430 253.60060 56.10312
#
# Poissons Ratio (x) = 0.28958 0.06488
# Poissons Ratio (y) = 0.10384 0.03270
# Poissons Ratio (z) = 0.10516 0.14782
#
# Static dielectric constant tensor:
#      x y z
#    x 1.776100 0.000000 0.000000 
#    y 0.000000 1.967910 0.000000 
#    z 0.000000 0.000000 1.849630 
# 
# From -- ./inp_files/24182.got.cif
#   From: 2010.05.17/outbox.cif.g08.bks.cpg/sg67_13_cif.got.tgz:24182.got - 2010.06.03 18:28:57.
