data_PCOD9500088
_publ_section_title
;
Structure prediction by ZEFSAII (Michael W. Deem and Ramdas Pophale) SiO2 
 PCOD9500088
Probable space group: C C C M
;
_chemical_formula_sum "Si O2"
_cell_formula_units_Z 40
_cell_length_a 18.000000
_cell_length_b 27.000000
_cell_length_c 9.000000
_cell_angle_alpha 90.000000
_cell_angle_beta 90.000000
_cell_angle_gamma 90.000000
_cell_volume 4374.000000
_symmetry_space_group_name_H-M "C C C M"
_symmetry_group_IT_number 66
_symmetry_cell_setting 'orthorhombic'
loop_
_space_group_symop_operation_xyz
x,y,z
-x,-y,z
x,-y,1/2-z
-x,y,1/2-z
-x,-y,-z
x,y,-z
-x,y,1/2+z
x,-y,1/2+z
1/2+x,1/2+y,z
1/2-x,1/2-y,z
1/2+x,1/2-y,1/2-z
1/2-x,1/2+y,1/2-z
1/2-x,1/2-y,-z
1/2+x,1/2+y,-z
1/2-x,1/2+y,1/2+z
1/2+x,1/2-y,1/2+z
loop_
_atom_site_type_symbol
_atom_site_label
_atom_site_fract_x
_atom_site_fract_y
_atom_site_fract_z
Si Si1 0.130270 0.450369 0.177989
Si Si2 0.578364 0.734061 0.822043
Si Si3 0.795052 0.048504 0.822283
Si Si4 0.695745 0.659977 0.676989
Si Si5 0.141134 0.341180 0.821686
O O1 0.095541 0.500000 0.250000
O O2 0.214465 0.448938 0.242429
O O3 0.103262 0.394444 0.214594
O O4 0.130552 0.456268 0.000000
O O5 0.500000 0.720102 0.750000
O O6 0.643033 0.699334 0.756784
O O7 0.595508 0.791757 0.786356
O O8 0.575939 0.729066 0.000000
O O9 0.829820 0.102783 0.797729
O O10 0.832557 0.000000 0.750000
O O11 0.785797 0.041809 0.000000
O O12 0.696574 0.668612 0.500000
O O13 0.779544 0.663136 0.739912
O O14 0.154627 0.341798 0.000000
#
# Coordination Sequence:
#
# PCOD9500088 Si02
#       5
#    16  16  16  16  16
#     4   9  15  25  43  69 100 129 159 197 243 291
#     4  11  23  38  54  72  98 133 171 210 255 302
#     4   9  16  26  43  70 102 131 160 196 240 288
#     4  10  20  33  52  79 106 132 166 207 248 294
#     4   9  19  34  52  75 103 134 167 206 250 296
#
# _framework density 9.1449470000000002
#
# number of rings (size 3 to 8) (size 9 to 14) (size 15 to 20)
#    0.000    2.400    0.000    4.200    0.000    7.200 
#    0.000    0.000    0.000    1.200    0.000    8.400 
#    0.000    0.000    0.000    0.000    0.000    0.000 
#
# Total GULP energy -222965.835859 kJ/mol
# GULP energy per Si atom -5574.145896 kJ/mol
# Density = 0.912413 g / cm^3
# Si number density = 9.144947 Si / 1000 Ang^3
#
#
#
# Elastic Constant Matrix: (Units=GPa)
#
#
# Indices 1 2 3 4 5 6 
#
# 1 33.1352 8.1363 8.4298 0.0000 0.0000 0.0000
# 2 8.1363 106.3515 32.1078 0.0000 0.0000 0.0000
# 3 8.4298 32.1078 60.6384 0.0000 0.0000 0.0000
# 4 0.0000 0.0000 0.0000 36.1303 0.0000 0.0000
# 5 0.0000 0.0000 0.0000 0.0000 10.3787 0.0000
# 6 0.0000 0.0000 0.0000 0.0000 0.0000 -2.6231
#
#
#
# Elastic Compliance Matrix: (Units=1/GPa)
#
#
# Indices 1 2 3 4 5 6 
#
# 1 0.031434 -0.001292 -0.003686 0.000000 0.000000 0.000000
# 2 -0.001292 0.011245 -0.005775 0.000000 0.000000 0.000000
# 3 -0.003686 -0.005775 0.020061 0.000000 0.000000 0.000000
# 4 0.000000 0.000000 0.000000 0.027678 0.000000 0.000000
# 5 0.000000 0.000000 0.000000 0.000000 0.096351 0.000000
# 6 0.000000 0.000000 0.000000 0.000000 0.000000 -0.381232
#
#
# Mechanical properties :
#
#
# Convention : Reuss Voigt Hill
#
# Bulk Modulus (GPa) = 24.25087 33.05255 28.65171
# Shear Modulus (GPa) = -31.40456 18.87394 -6.26531
#
# Velocity S-wave (km/s) = -4.14822 3.21586 -1.85283
# Velocity P-wave (km/s) = 3.10736 5.64798 3.33497
#
# Compressibility (1/GPa) = 0.04123563
#
# Stress axis : x y z
#
# Youngs Moduli (GPa) = 31.81238 88.92859 49.84751
#
# Poissons Ratio (x) = 0.11491 0.18373
# Poissons Ratio (y) = 0.04110 0.28785
# Poissons Ratio (z) = 0.11725 0.51352
#
# Static dielectric constant tensor:
#      x y z
#    x 1.579250 0.000000 0.000000 
#    y 0.000000 1.707280 0.000000 
#    z 0.000000 0.000000 1.608690 
# 
# From -- ./inp_files/6677.got.cif
#   From: 2010.05.17/outbox.ucp.g08.bks.cvg/sg66_4_cif.got.tgz:6677.got - 2010.06.11 16:44:13.
