data_PCOD9500554
_publ_section_title
;
Structure prediction by ZEFSAII (Michael W. Deem and Ramdas Pophale) SiO2 
 PCOD9500554
Probable space group: C M M A
;
_chemical_formula_sum "Si O2"
_cell_formula_units_Z 112
_cell_length_a 28.767657
_cell_length_b 14.117361
_cell_length_c 12.370592
_cell_angle_alpha 90.000000
_cell_angle_beta 90.000000
_cell_angle_gamma 90.000000
_cell_volume 5023.986871
_symmetry_space_group_name_H-M "C M M A"
_symmetry_group_IT_number 67
_symmetry_cell_setting 'orthorhombic'
loop_
_space_group_symop_operation_xyz
x,y,z
-x,1/2-y,z
x,-y,-z
-x,1/2+y,-z
-x,-y,-z
x,1/2+y,-z
-x,y,z
x,1/2-y,z
1/2+x,1/2+y,z
1/2-x,-y,z
1/2+x,1/2-y,-z
1/2-x,y,-z
1/2-x,1/2-y,-z
1/2+x,y,-z
1/2-x,1/2+y,z
1/2+x,-y,z
loop_
_atom_site_type_symbol
_atom_site_label
_atom_site_fract_x
_atom_site_fract_y
_atom_site_fract_z
Si Si1 0.295317 0.139835 0.925353
Si Si2 0.833410 0.633784 0.338275
Si Si3 0.272578 0.365872 0.687235
Si Si4 0.446860 0.136851 0.726860
Si Si5 0.947606 0.889903 0.974134
Si Si6 0.633502 0.365976 0.565192
Si Si7 0.361589 0.143009 0.104661
O O1 0.307723 0.250000 0.903009
O O2 0.283308 0.099406 0.808780
O O3 0.250000 0.136512 0.000000
O O4 0.335380 0.099966 0.001578
O O5 0.834520 0.750000 0.339737
O O6 0.779180 0.605467 0.348317
O O7 0.864192 0.603553 0.440335
O O8 0.852580 0.600407 0.222027
O O9 0.270968 0.250000 0.687617
O O10 0.316573 0.392744 0.615323
O O11 0.500000 0.098738 0.716991
O O12 0.449824 0.250000 0.712040
O O13 0.430464 0.122929 0.850898
O O14 0.409378 0.101485 0.639763
O O15 0.000000 0.852402 0.976998
O O16 0.914226 0.850643 0.066112
O O17 0.949384 0.000000 0.000000
O O18 0.631924 0.250000 0.567198
O O19 0.341734 0.250000 0.113800
#
# Coordination Sequence:
#
# PCOD9500554 Si02
#       7
#    16  16  16  16  16  16  16
#     4   9  14  22  38  65  98 128 159 192 232 278
#     4   9  16  25  38  64 101 132 157 193 236 279
#     4   9  14  21  35  59  95 132 160 193 232 274
#     4   9  17  31  51  73  95 120 157 203 243 283
#     4  10  21  36  53  72  94 121 155 198 248 297
#     4   9  16  25  40  66  97 129 164 196 234 277
#     4  10  18  29  48  73 101 129 158 196 241 288
#
# _framework density 22.293051999999999
#
# number of rings (size 3 to 8) (size 9 to 14) (size 15 to 20)
#    0.000    2.714    1.429    1.714    0.000    4.857 
#    0.000    0.714    0.000    3.857    0.000    3.000 
#    0.000    2.571    0.000    0.000    0.000    0.000 
#
# Total GULP energy -312655.720144 kJ/mol
# GULP energy per Si atom -5583.137860 kJ/mol
# Density = 2.224231 g / cm^3
# Si number density = 22.293052 Si / 1000 Ang^3
#
#
#
# Elastic Constant Matrix: (Units=GPa)
#
#
# Indices 1 2 3 4 5 6 
#
# 1 118.7026 6.9952 87.9930 0.0000 0.0000 0.0000
# 2 6.9952 62.6152 1.3653 0.0000 0.0000 0.0000
# 3 87.9930 1.3653 127.2915 0.0000 0.0000 0.0000
# 4 0.0000 0.0000 0.0000 -1.5138 0.0000 0.0000
# 5 0.0000 0.0000 0.0000 0.0000 27.5912 0.0000
# 6 0.0000 0.0000 0.0000 0.0000 0.0000 10.5020
#
#
#
# Elastic Compliance Matrix: (Units=1/GPa)
#
#
# Indices 1 2 3 4 5 6 
#
# 1 0.017455 -0.001687 -0.012048 0.000000 0.000000 0.000000
# 2 -0.001687 0.016137 0.000993 0.000000 0.000000 0.000000
# 3 -0.012048 0.000993 0.016174 0.000000 0.000000 0.000000
# 4 0.000000 0.000000 0.000000 -0.660586 0.000000 0.000000
# 5 0.000000 0.000000 0.000000 0.000000 0.036243 0.000000
# 6 0.000000 0.000000 0.000000 0.000000 0.000000 0.095220
#
#
# Mechanical properties :
#
#
# Convention : Reuss Voigt Hill
#
# Bulk Modulus (GPa) = 41.18259 55.70178 48.44219
# Shear Modulus (GPa) = -11.21632 21.46628 5.12498
#
# Velocity S-wave (km/s) = -2.24549 3.10645 1.51786
# Velocity P-wave (km/s) = 3.43372 6.15688 4.98485
#
# Compressibility (1/GPa) = 0.02428210
#
# Stress axis : x y z
#
# Youngs Moduli (GPa) = 57.29059 61.96781 61.82866
#
# Poissons Ratio (x) = 0.10456 0.74491
# Poissons Ratio (y) = 0.09667 -0.06141
# Poissons Ratio (z) = 0.69023 -0.06155
#
# Static dielectric constant tensor:
#      x y z
#    x 1.832910 0.000000 0.000000 
#    y 0.000000 1.911760 0.000000 
#    z 0.000000 0.000000 1.814740 
# 
# From -- ./inp_files/21223.got.cif
#   From: 2010.05.17/outbox.cif.g08.bks.cpg/sg67_11_cif.got.tgz:21223.got - 2010.06.03 18:28:57.
