data_PCOD9500718
_publ_section_title
;
Structure prediction by ZEFSAII (Michael W. Deem and Ramdas Pophale) SiO2 
 PCOD9500718
Probable space group: C M M A
;
_chemical_formula_sum "Si O2"
_cell_formula_units_Z 112
_cell_length_a 20.717942
_cell_length_b 17.049131
_cell_length_c 18.485644
_cell_angle_alpha 90.000000
_cell_angle_beta 90.000000
_cell_angle_gamma 90.000000
_cell_volume 6529.552915
_symmetry_space_group_name_H-M "C M M A"
_symmetry_group_IT_number 67
_symmetry_cell_setting 'orthorhombic'
loop_
_space_group_symop_operation_xyz
x,y,z
-x,1/2-y,z
x,-y,-z
-x,1/2+y,-z
-x,-y,-z
x,1/2+y,-z
-x,y,z
x,1/2-y,z
1/2+x,1/2+y,z
1/2-x,-y,z
1/2+x,1/2-y,-z
1/2-x,y,-z
1/2-x,1/2-y,-z
1/2+x,y,-z
1/2-x,1/2+y,z
1/2+x,-y,z
loop_
_atom_site_type_symbol
_atom_site_label
_atom_site_fract_x
_atom_site_fract_y
_atom_site_fract_z
Si Si1 0.179953 0.589991 0.528764
Si Si2 0.074205 0.166128 0.838917
Si Si3 0.144528 0.394308 0.704008
Si Si4 0.924166 0.497942 0.914533
Si Si5 0.318766 0.539410 0.198850
Si Si6 0.287910 0.656848 0.320070
Si Si7 0.573472 0.658505 0.570577
O O1 0.173776 0.500000 0.500000
O O2 0.250000 0.617180 0.500000
O O3 0.180650 0.607022 0.614341
O O4 0.122938 0.638370 0.492484
O O5 0.084199 0.250000 0.875476
O O6 0.119409 0.158098 0.769912
O O7 0.083569 0.092241 0.889897
O O8 0.000000 0.162619 0.813149
O O9 0.155649 0.478559 0.740271
O O10 0.211459 0.360628 0.674179
O O11 0.093628 0.392647 0.639685
O O12 0.871525 0.542934 0.865151
O O13 0.000000 0.520400 0.901434
O O14 0.912215 0.500000 0.000000
O O15 0.250000 0.500000 0.175056
O O16 0.307211 0.619964 0.242303
O O17 0.300385 0.750000 0.326033
O O18 0.500000 0.643575 0.549129
O O19 0.579576 0.750000 0.591227
#
# Coordination Sequence:
#
# PCOD9500718 Si02
#       7
#    16  16  16  16  16  16  16
#     4  11  23  37  56  74 102 143 187 231 275 328
#     4   9  16  27  46  75 106 131 161 209 266 317
#     4  10  18  31  51  74 102 135 169 212 270 327
#     4   9  18  34  55  78 106 143 183 217 260 323
#     4   9  20  35  54  79 108 137 173 219 264 320
#     4  11  21  34  55  78 103 139 184 226 272 329
#     4  11  22  34  50  76 106 133 170 223 277 327
#
# _framework density 17.152782999999999
#
# number of rings (size 3 to 8) (size 9 to 14) (size 15 to 20)
#    0.000    2.000    1.429    3.000    4.000    2.857 
#    0.000    1.429    0.000    2.143    0.000    6.000 
#    0.000    0.000    0.000    0.000    0.000    0.000 
#
# Total GULP energy -312123.921575 kJ/mol
# GULP energy per Si atom -5573.641457 kJ/mol
# Density = 1.711374 g / cm^3
# Si number density = 17.152783 Si / 1000 Ang^3
#
#
#
# Elastic Constant Matrix: (Units=GPa)
#
#
# Indices 1 2 3 4 5 6 
#
# 1 93.7060 18.9204 50.3128 0.0000 0.0000 0.0000
# 2 18.9204 51.2656 19.5210 0.0000 0.0000 0.0000
# 3 50.3128 19.5210 97.5874 0.0000 0.0000 0.0000
# 4 0.0000 0.0000 0.0000 5.6977 0.0000 0.0000
# 5 0.0000 0.0000 0.0000 0.0000 29.9412 0.0000
# 6 0.0000 0.0000 0.0000 0.0000 0.0000 17.4108
#
#
#
# Elastic Compliance Matrix: (Units=1/GPa)
#
#
# Indices 1 2 3 4 5 6 
#
# 1 0.015126 -0.002828 -0.007233 0.000000 0.000000 0.000000
# 2 -0.002828 0.021643 -0.002871 0.000000 0.000000 0.000000
# 3 -0.007233 -0.002871 0.014551 0.000000 0.000000 0.000000
# 4 0.000000 0.000000 0.000000 0.175510 0.000000 0.000000
# 5 0.000000 0.000000 0.000000 0.000000 0.033399 0.000000
# 6 0.000000 0.000000 0.000000 0.000000 0.000000 0.057436
#
#
# Mechanical properties :
#
#
# Convention : Reuss Voigt Hill
#
# Bulk Modulus (GPa) = 39.28452 46.67415 42.97933
# Shear Modulus (GPa) = 14.20397 20.86358 17.53377
#
# Velocity S-wave (km/s) = 2.88077 3.49139 3.20067
# Velocity P-wave (km/s) = 5.83246 6.59719 6.22658
#
# Compressibility (1/GPa) = 0.02545532
#
# Stress axis : x y z
#
# Youngs Moduli (GPa) = 66.11037 46.20333 68.72587
#
# Poissons Ratio (x) = 0.13068 0.49708
# Poissons Ratio (y) = 0.18699 0.19733
# Poissons Ratio (z) = 0.47816 0.13266
#
# Static dielectric constant tensor:
#      x y z
#    x 1.595380 0.000000 0.000000 
#    y 0.000000 1.611670 0.000000 
#    z 0.000000 0.000000 1.573320 
# 
# From -- ./inp_files/35079.got.cif
#   From: 2010.05.17/outbox.cif.g08.bks.cpg/sg67_18_cif.got.tgz:35079.got - 2010.06.03 18:28:57.
