data_PCOD9500485
_publ_section_title
;
Structure prediction by ZEFSAII (Michael W. Deem and Ramdas Pophale) SiO2 
 PCOD9500485
Probable space group: C M M A
;
_chemical_formula_sum "Si O2"
_cell_formula_units_Z 104
_cell_length_a 28.310670
_cell_length_b 8.808204
_cell_length_c 23.972608
_cell_angle_alpha 90.000000
_cell_angle_beta 90.000000
_cell_angle_gamma 90.000000
_cell_volume 5977.957124
_symmetry_space_group_name_H-M "C M M A"
_symmetry_group_IT_number 67
_symmetry_cell_setting 'orthorhombic'
loop_
_space_group_symop_operation_xyz
x,y,z
-x,1/2-y,z
x,-y,-z
-x,1/2+y,-z
-x,-y,-z
x,1/2+y,-z
-x,y,z
x,1/2-y,z
1/2+x,1/2+y,z
1/2-x,-y,z
1/2+x,1/2-y,-z
1/2-x,y,-z
1/2-x,1/2-y,-z
1/2+x,y,-z
1/2-x,1/2+y,z
1/2+x,-y,z
loop_
_atom_site_type_symbol
_atom_site_label
_atom_site_fract_x
_atom_site_fract_y
_atom_site_fract_z
Si Si1 0.055194 0.566137 0.230824
Si Si2 0.500000 0.432147 0.562445
Si Si3 0.202886 0.420597 0.243239
Si Si4 0.374075 0.576116 0.145262
Si Si5 0.800390 0.067560 0.937774
Si Si6 0.097294 0.432024 0.561481
Si Si7 0.367873 0.568313 0.676920
O O1 0.056991 0.750000 0.228162
O O2 0.080666 0.500026 0.175356
O O3 0.087317 0.517537 0.284412
O O4 0.000000 0.521507 0.235712
O O5 0.500000 0.250000 0.562372
O O6 0.500000 0.500000 0.500000
O O7 0.452096 0.501860 0.585115
O O8 0.213619 0.250000 0.260456
O O9 0.250000 0.500000 0.223539
O O10 0.164707 0.418607 0.194363
O O11 0.178694 0.509458 0.293417
O O12 0.384319 0.750000 0.127949
O O13 0.346154 0.485185 0.097327
O O14 0.797063 0.250000 0.938629
O O15 0.750000 0.000000 0.916066
O O16 0.805046 0.000000 0.000000
O O17 0.106470 0.500000 0.500000
O O18 0.093766 0.250000 0.555791
O O19 0.131683 0.474840 0.611867
O O20 0.369512 0.750000 0.678448
#
# Coordination Sequence:
#
# PCOD9500485 Si02
#       7
#    16   8  16  16  16  16  16
#     4   9  18  33  53  75 100 134 174 214 255 300
#     4  10  18  28  42  62  88 120 156 194 233 282
#     4  10  20  33  52  75 102 131 164 207 252 300
#     4  10  20  34  52  77 107 139 174 210 252 301
#     4  11  21  34  53  79 111 144 177 213 256 303
#     4  10  19  31  48  68  95 128 163 202 248 301
#     4   9  19  33  51  73  98 130 167 205 250 304
#
# _framework density 17.397247
#
# number of rings (size 3 to 8) (size 9 to 14) (size 15 to 20)
#    0.000    2.154    0.000    5.308    1.077    4.615 
#    0.000    0.000    0.000    0.923    0.000    3.231 
#    0.000    0.000    0.000    0.000    0.000    0.000 
#
# Total GULP energy -289685.420710 kJ/mol
# GULP energy per Si atom -5570.873475 kJ/mol
# Density = 1.735765 g / cm^3
# Si number density = 17.397247 Si / 1000 Ang^3
#
#
#
# Elastic Constant Matrix: (Units=GPa)
#
#
# Indices 1 2 3 4 5 6 
#
# 1 54.8831 22.1332 14.7624 0.0000 0.0000 0.0000
# 2 22.1332 65.1245 35.2403 0.0000 0.0000 0.0000
# 3 14.7624 35.2403 79.2256 0.0000 0.0000 0.0000
# 4 0.0000 0.0000 0.0000 19.3453 0.0000 0.0000
# 5 0.0000 0.0000 0.0000 0.0000 22.9749 0.0000
# 6 0.0000 0.0000 0.0000 0.0000 0.0000 24.9169
#
#
#
# Elastic Compliance Matrix: (Units=1/GPa)
#
#
# Indices 1 2 3 4 5 6 
#
# 1 0.021172 -0.006665 -0.000980 0.000000 0.000000 0.000000
# 2 -0.006665 0.022321 -0.008687 0.000000 0.000000 0.000000
# 3 -0.000980 -0.008687 0.016669 0.000000 0.000000 0.000000
# 4 0.000000 0.000000 0.000000 0.051692 0.000000 0.000000
# 5 0.000000 0.000000 0.000000 0.000000 0.043526 0.000000
# 6 0.000000 0.000000 0.000000 0.000000 0.000000 0.040133
#
#
# Mechanical properties :
#
#
# Convention : Reuss Voigt Hill
#
# Bulk Modulus (GPa) = 36.36676 38.16723 37.26699
# Shear Modulus (GPa) = 21.06655 21.92058 21.49356
#
# Velocity S-wave (km/s) = 3.48359 3.55350 3.51872
# Velocity P-wave (km/s) = 6.09341 6.23079 6.16249
#
# Compressibility (1/GPa) = 0.02749764
#
# Stress axis : x y z
#
# Youngs Moduli (GPa) = 47.23188 44.80110 59.99253
#
# Poissons Ratio (x) = 0.29860 0.05882
# Poissons Ratio (y) = 0.31480 0.52113
# Poissons Ratio (z) = 0.04631 0.38917
#
# Static dielectric constant tensor:
#      x y z
#    x 1.604100 0.000000 0.000000 
#    y 0.000000 1.603890 0.000000 
#    z 0.000000 0.000000 1.579650 
# 
# From -- ./inp_files/42777.got.cif
#   From: 2010.05.17/outbox.cif.g08.bks.cpg/sg67_22_cif.got.tgz:42777.got - 2010.06.03 18:28:57.
