data_PCOD9500072
_publ_section_title
;
Structure prediction by ZEFSAII (Michael W. Deem and Ramdas Pophale) SiO2 
 PCOD9500072
Probable space group: C C C M
;
_chemical_formula_sum "Si O2"
_cell_formula_units_Z 48
_cell_length_a 27.000000
_cell_length_b 21.000000
_cell_length_c 9.000000
_cell_angle_alpha 90.000000
_cell_angle_beta 90.000000
_cell_angle_gamma 90.000000
_cell_volume 5103.000000
_symmetry_space_group_name_H-M "C C C M"
_symmetry_group_IT_number 66
_symmetry_cell_setting 'orthorhombic'
loop_
_space_group_symop_operation_xyz
x,y,z
-x,-y,z
x,-y,1/2-z
-x,y,1/2-z
-x,-y,-z
x,y,-z
-x,y,1/2+z
x,-y,1/2+z
1/2+x,1/2+y,z
1/2-x,1/2-y,z
1/2+x,1/2-y,1/2-z
1/2-x,1/2+y,1/2-z
1/2-x,1/2-y,-z
1/2+x,1/2+y,-z
1/2-x,1/2+y,1/2+z
1/2+x,1/2-y,1/2+z
loop_
_atom_site_type_symbol
_atom_site_label
_atom_site_fract_x
_atom_site_fract_y
_atom_site_fract_z
Si Si1 0.899165 0.698886 0.179682
Si Si2 0.445219 0.935557 0.320137
Si Si3 0.786118 0.691234 0.178945
Si Si4 0.948720 0.173049 0.322081
Si Si5 0.259326 0.566830 0.178615
Si Si6 0.132241 0.065431 0.178649
O O1 0.916577 0.628580 0.223050
O O2 0.842128 0.709623 0.218521
O O3 0.932944 0.756844 0.234352
O O4 0.901929 0.700577 0.000000
O O5 0.500000 0.930223 0.250000
O O6 0.447702 0.940560 0.500000
O O7 0.423017 0.000000 0.250000
O O8 0.750000 0.750000 0.213494
O O9 0.771278 0.627154 0.263633
O O10 0.783346 0.679972 0.000000
O O11 0.954762 0.175827 0.500000
O O12 0.904792 0.123378 0.292345
O O13 0.000000 0.152811 0.250000
O O14 0.241439 0.500000 0.250000
O O15 0.314816 0.576146 0.243672
O O16 0.259900 0.562640 0.000000
O O17 0.112401 0.000000 0.250000
O O18 0.138858 0.058991 0.000000
#
# Coordination Sequence:
#
# PCOD9500072 Si02
#       6
#    16  16  16  16  16  16
#     4   9  19  35  55  79 106 140 181 221 263 318
#     4  10  19  33  53  76 104 135 172 214 259 312
#     4  10  20  37  60  82 110 148 186 226 275 329
#     4  10  21  37  57  81 109 143 183 225 271 323
#     4  11  22  37  58  84 114 146 185 230 278 332
#     4  10  20  36  58  82 110 145 184 224 272 329
#
# _framework density 9.4062319999999993
#
# number of rings (size 3 to 8) (size 9 to 14) (size 15 to 20)
#    0.000    2.000    0.000    5.500    0.000    5.333 
#    0.000    6.667    0.000    0.000    0.000    0.000 
#    0.000    0.000    0.000    0.000    0.000    0.000 
#
# Total GULP energy -267984.813117 kJ/mol
# GULP energy per Si atom -5583.016940 kJ/mol
# Density = 0.938482 g / cm^3
# Si number density = 9.406232 Si / 1000 Ang^3
#
#
#
# Elastic Constant Matrix: (Units=GPa)
#
#
# Indices 1 2 3 4 5 6 
#
# 1 28.4364 -3.2288 2.5455 0.0000 0.0000 0.0000
# 2 -3.2288 54.2817 15.1134 0.0000 0.0000 0.0000
# 3 2.5455 15.1134 62.3363 0.0000 0.0000 0.0000
# 4 0.0000 0.0000 0.0000 29.2832 0.0000 0.0000
# 5 0.0000 0.0000 0.0000 0.0000 19.1604 0.0000
# 6 0.0000 0.0000 0.0000 0.0000 0.0000 25.4388
#
#
#
# Elastic Compliance Matrix: (Units=1/GPa)
#
#
# Indices 1 2 3 4 5 6 
#
# 1 0.035663 0.002710 -0.002113 0.000000 0.000000 0.000000
# 2 0.002710 0.019962 -0.004950 0.000000 0.000000 0.000000
# 3 -0.002113 -0.004950 0.017329 0.000000 0.000000 0.000000
# 4 0.000000 0.000000 0.000000 0.034149 0.000000 0.000000
# 5 0.000000 0.000000 0.000000 0.000000 0.052191 0.000000
# 6 0.000000 0.000000 0.000000 0.000000 0.000000 0.039310
#
#
# Mechanical properties :
#
#
# Convention : Reuss Voigt Hill
#
# Bulk Modulus (GPa) = 15.56526 19.32384 17.44455
# Shear Modulus (GPa) = 21.86013 23.48477 22.67245
#
# Velocity S-wave (km/s) = 3.41251 3.53705 3.47534
# Velocity P-wave (km/s) = 4.88046 5.19376 5.03954
#
# Compressibility (1/GPa) = 0.06424561
#
# Stress axis : x y z
#
# Youngs Moduli (GPa) = 28.04021 50.09544 57.70833
#
# Poissons Ratio (x) = -0.13575 0.12195
# Poissons Ratio (y) = -0.07598 0.28568
# Poissons Ratio (z) = 0.05926 0.24799
#
# Static dielectric constant tensor:
#      x y z
#    x 1.647080 0.000000 0.000000 
#    y 0.000000 1.667540 0.000000 
#    z 0.000000 0.000000 1.626710 
# 
# From -- ./inp_files/8048.got.cif
#   From: 2010.05.17/outbox.ucp.g08.bks.cvg/sg66_5_cif.got.tgz:8048.got - 2010.06.11 16:44:13.
