data_PCOD9500427
_publ_section_title
;
Structure prediction by ZEFSAII (Michael W. Deem and Ramdas Pophale) SiO2 
 PCOD9500427
Probable space group: C M M A
;
_chemical_formula_sum "Si O2"
_cell_formula_units_Z 84
_cell_length_a 14.526931
_cell_length_b 24.915630
_cell_length_c 11.253780
_cell_angle_alpha 90.000000
_cell_angle_beta 90.000000
_cell_angle_gamma 90.000000
_cell_volume 4073.279088
_symmetry_space_group_name_H-M "C M M A"
_symmetry_group_IT_number 67
_symmetry_cell_setting 'orthorhombic'
loop_
_space_group_symop_operation_xyz
x,y,z
-x,1/2-y,z
x,-y,-z
-x,1/2+y,-z
-x,-y,-z
x,1/2+y,-z
-x,y,z
x,1/2-y,z
1/2+x,1/2+y,z
1/2-x,-y,z
1/2+x,1/2-y,-z
1/2-x,y,-z
1/2-x,1/2-y,-z
1/2+x,y,-z
1/2-x,1/2+y,z
1/2+x,-y,z
loop_
_atom_site_type_symbol
_atom_site_label
_atom_site_fract_x
_atom_site_fract_y
_atom_site_fract_z
Si Si1 0.889480 0.690961 0.810873
Si Si2 0.387462 0.467821 0.175875
Si Si3 0.000000 0.250000 0.560142
Si Si4 0.111355 0.945116 0.438061
Si Si5 0.612814 0.418840 0.926819
Si Si6 0.148393 0.170413 0.466359
O O1 0.853543 0.750000 0.846751
O O2 0.854134 0.638475 0.879462
O O3 0.873879 0.683512 0.670305
O O4 0.000000 0.692006 0.828236
O O5 0.500000 0.467596 0.176346
O O6 0.355773 0.445257 0.301707
O O7 0.360036 0.529812 0.153323
O O8 0.359020 0.433394 0.061174
O O9 0.921120 0.296850 0.548039
O O10 0.139368 0.892799 0.509900
O O11 0.000000 0.945511 0.435880
O O12 0.141113 0.000000 0.500000
O O13 0.500000 0.417893 0.924859
O O14 0.250000 0.186828 0.500000
#
# Coordination Sequence:
#
# PCOD9500427 Si02
#       6
#    16  16   4  16  16  16
#     4  10  17  30  50  75 109 144 190 240 281 337
#     4   8  14  26  46  75 107 143 190 238 281 351
#     4  12  22  44  58  82 114 152 206 234 294 360
#     4  10  19  33  55  83 120 158 193 238 300 357
#     4   8  14  25  47  75 104 144 193 237 285 330
#     4  12  23  37  60  86 116 155 193 245 295 354
#
# _framework density 20.622205999999998
#
# number of rings (size 3 to 8) (size 9 to 14) (size 15 to 20)
#    0.000    2.286    2.857    2.571    0.000    3.429 
#    0.000    0.000    2.095    1.143    0.000    4.000 
#    0.000    0.000    0.000    0.000    0.000    0.000 
#
# Total GULP energy -234059.040198 kJ/mol
# GULP energy per Si atom -5572.834290 kJ/mol
# Density = 2.057527 g / cm^3
# Si number density = 20.622206 Si / 1000 Ang^3
#
#
#
# Elastic Constant Matrix: (Units=GPa)
#
#
# Indices 1 2 3 4 5 6 
#
# 1 56.4173 3.2040 -11.0437 0.0000 0.0000 0.0000
# 2 3.2040 178.8728 36.6476 0.0000 0.0000 0.0000
# 3 -11.0437 36.6476 48.8629 0.0000 0.0000 0.0000
# 4 0.0000 0.0000 0.0000 40.5017 0.0000 0.0000
# 5 0.0000 0.0000 0.0000 0.0000 -50.2503 0.0000
# 6 0.0000 0.0000 0.0000 0.0000 0.0000 11.6135
#
#
#
# Elastic Compliance Matrix: (Units=1/GPa)
#
#
# Indices 1 2 3 4 5 6 
#
# 1 0.018850 -0.001430 0.005333 0.000000 0.000000 0.000000
# 2 -0.001430 0.006714 -0.005359 0.000000 0.000000 0.000000
# 3 0.005333 -0.005359 0.025690 0.000000 0.000000 0.000000
# 4 0.000000 0.000000 0.000000 0.024690 0.000000 0.000000
# 5 0.000000 0.000000 0.000000 0.000000 -0.019900 0.000000
# 6 0.000000 0.000000 0.000000 0.000000 0.000000 0.086106
#
#
# Mechanical properties :
#
#
# Convention : Reuss Voigt Hill
#
# Bulk Modulus (GPa) = 20.68585 37.97431 29.33008
# Shear Modulus (GPa) = 31.02182 17.39599 24.20891
#
# Velocity S-wave (km/s) = 3.88273 2.90755 3.42997
# Velocity P-wave (km/s) = 5.49121 5.45216 5.47172
#
# Compressibility (1/GPa) = 0.04834223
#
# Stress axis : x y z
#
# Youngs Moduli (GPa) = 53.04968 148.93983 38.92565
#
# Poissons Ratio (x) = 0.21303 -0.20760
# Poissons Ratio (y) = 0.07588 0.20860
# Poissons Ratio (z) = -0.28292 0.79816
#
# Static dielectric constant tensor:
#      x y z
#    x 1.760640 0.000000 0.000000 
#    y 0.000000 1.725520 0.000000 
#    z 0.000000 0.000000 1.713250 
# 
# From -- ./inp_files/18119.got.cif
#   From: 2010.05.17/outbox.cif.g08.bks.cpg/sg67_10_cif.got.tgz:18119.got - 2010.06.03 18:28:57.
