data_PCOD9500176
_publ_section_title
;
Structure prediction by ZEFSAII (Michael W. Deem and Ramdas Pophale) SiO2 
 PCOD9500176
Probable space group: C M M A
;
_chemical_formula_sum "Si O2"
_cell_formula_units_Z 80
_cell_length_a 15.123644
_cell_length_b 8.692717
_cell_length_c 28.028091
_cell_angle_alpha 90.000000
_cell_angle_beta 90.000000
_cell_angle_gamma 90.000000
_cell_volume 3684.728603
_symmetry_space_group_name_H-M "C M M A"
_symmetry_group_IT_number 67
_symmetry_cell_setting 'orthorhombic'
loop_
_space_group_symop_operation_xyz
x,y,z
-x,1/2-y,z
x,-y,-z
-x,1/2+y,-z
-x,-y,-z
x,1/2+y,-z
-x,y,z
x,1/2-y,z
1/2+x,1/2+y,z
1/2-x,-y,z
1/2+x,1/2-y,-z
1/2-x,y,-z
1/2-x,1/2-y,-z
1/2+x,y,-z
1/2-x,1/2+y,z
1/2+x,-y,z
loop_
_atom_site_type_symbol
_atom_site_label
_atom_site_fract_x
_atom_site_fract_y
_atom_site_fract_z
Si Si1 0.604295 0.935573 0.049117
Si Si2 0.649202 0.935505 0.646538
Si Si3 0.604753 0.577826 0.151244
Si Si4 0.850848 0.434040 0.451088
Si Si5 0.348111 0.067180 0.250222
O O1 0.500000 0.979627 0.048180
O O2 0.609550 0.750000 0.048896
O O3 0.640048 0.988446 0.100931
O O4 0.643501 0.000000 0.000000
O O5 0.650797 0.750000 0.641887
O O6 0.750000 0.000000 0.648276
O O7 0.608702 0.007263 0.598695
O O8 0.609692 0.977460 0.698503
O O9 0.500000 0.592913 0.143332
O O10 0.642375 0.750000 0.158247
O O11 0.613765 0.487559 0.200182
O O12 0.891009 0.500000 0.500000
O O13 0.848689 0.250000 0.452444
O O14 0.750000 0.500000 0.450467
O O15 0.154509 0.750000 0.250268
O O16 0.250000 0.000000 0.250723
#
# Coordination Sequence:
#
# PCOD9500176 Si02
#       5
#    16  16  16  16  16
#     4   8  14  25  42  65  91 118 147 181 223 269
#     4   9  16  26  38  55  79 108 144 182 220 264
#     4   9  18  32  49  70  97 125 153 189 231 273
#     4  10  16  22  33  50  74 105 139 176 219 264
#     4  10  20  32  48  68  92 124 159 194 231 275
#
# _framework density 21.711231999999999
#
# number of rings (size 3 to 8) (size 9 to 14) (size 15 to 20)
#    0.000    2.800    0.000    6.000    0.000    3.600 
#    0.000    2.000    0.000    0.600    0.000    4.200 
#    0.000    0.800    0.000    2.600    0.000   10.400 
#
# Total GULP energy -222812.000262 kJ/mol
# GULP energy per Si atom -5570.300007 kJ/mol
# Density = 2.166182 g / cm^3
# Si number density = 21.711232 Si / 1000 Ang^3
#
#
#
# Elastic Constant Matrix: (Units=GPa)
#
#
# Indices 1 2 3 4 5 6 
#
# 1 38.3469 0.5650 19.9827 0.0000 0.0000 0.0000
# 2 0.5650 90.4722 82.1229 0.0000 0.0000 0.0000
# 3 19.9827 82.1229 294.6990 0.0000 0.0000 0.0000
# 4 0.0000 0.0000 0.0000 37.6608 0.0000 0.0000
# 5 0.0000 0.0000 0.0000 0.0000 22.2235 0.0000
# 6 0.0000 0.0000 0.0000 0.0000 0.0000 5.2943
#
#
#
# Elastic Compliance Matrix: (Units=1/GPa)
#
#
# Indices 1 2 3 4 5 6 
#
# 1 0.027306 0.002021 -0.002415 0.000000 0.000000 0.000000
# 2 0.002021 0.014945 -0.004302 0.000000 0.000000 0.000000
# 3 -0.002415 -0.004302 0.004756 0.000000 0.000000 0.000000
# 4 0.000000 0.000000 0.000000 0.026553 0.000000 0.000000
# 5 0.000000 0.000000 0.000000 0.000000 0.044997 0.000000
# 6 0.000000 0.000000 0.000000 0.000000 0.000000 0.188882
#
#
# Mechanical properties :
#
#
# Convention : Reuss Voigt Hill
#
# Bulk Modulus (GPa) = 26.58369 69.87326 48.22847
# Shear Modulus (GPa) = 15.18051 34.42553 24.80302
#
# Velocity S-wave (km/s) = 2.64711 3.98629 3.38362
# Velocity P-wave (km/s) = 4.64905 7.31028 6.12593
#
# Compressibility (1/GPa) = 0.03761705
#
# Stress axis : x y z
#
# Youngs Moduli (GPa) = 36.62148 66.91051 210.26860
#
# Poissons Ratio (x) = -0.13526 0.50777
# Poissons Ratio (y) = -0.07403 0.90454
# Poissons Ratio (z) = 0.08844 0.28784
#
# Static dielectric constant tensor:
#      x y z
#    x 1.853270 0.000000 0.000000 
#    y 0.000000 1.723050 0.000000 
#    z 0.000000 0.000000 1.915590 
# 
# From -- ./inp_files/44438.got.cif
#   From: 2010.05.17/outbox.cif.g08.bks.cpg/sg67_23_cif.got.tgz:44438.got - 2010.06.03 18:28:57.
