data_PCOD9500126
_publ_section_title
;
Structure prediction by ZEFSAII (Michael W. Deem and Ramdas Pophale) SiO2 
 PCOD9500126
Probable space group: C C C M
;
_chemical_formula_sum "Si O2"
_cell_formula_units_Z 34
_cell_length_a 18.000000
_cell_length_b 21.000000
_cell_length_c 9.000000
_cell_angle_alpha 90.000000
_cell_angle_beta 90.000000
_cell_angle_gamma 90.000000
_cell_volume 3402.000000
_symmetry_space_group_name_H-M "C C C M"
_symmetry_group_IT_number 66
_symmetry_cell_setting 'orthorhombic'
loop_
_space_group_symop_operation_xyz
x,y,z
-x,-y,z
x,-y,1/2-z
-x,y,1/2-z
-x,-y,-z
x,y,-z
-x,y,1/2+z
x,-y,1/2+z
1/2+x,1/2+y,z
1/2-x,1/2-y,z
1/2+x,1/2-y,1/2-z
1/2-x,1/2+y,1/2-z
1/2-x,1/2-y,-z
1/2+x,1/2+y,-z
1/2-x,1/2+y,1/2+z
1/2+x,1/2-y,1/2+z
loop_
_atom_site_type_symbol
_atom_site_label
_atom_site_fract_x
_atom_site_fract_y
_atom_site_fract_z
Si Si1 0.168801 0.219263 0.327684
Si Si2 0.500000 0.500000 0.250000
Si Si3 0.078194 0.654812 0.828997
Si Si4 0.293303 0.937518 0.177028
Si Si5 0.138916 0.090277 0.170675
O O1 0.178520 0.196580 0.500000
O O2 0.250000 0.250000 0.287200
O O3 0.105959 0.272882 0.326088
O O4 0.137785 0.163305 0.224372
O O5 0.561862 0.550291 0.184658
O O6 0.151307 0.617941 0.771902
O O7 0.000000 0.644948 0.750000
O O8 0.068209 0.635243 0.000000
O O9 0.208489 0.932827 0.230976
O O10 0.326149 0.000000 0.250000
O O11 0.292371 0.939865 0.000000
O O12 0.161678 0.085877 0.000000
#
# Coordination Sequence:
#
# PCOD9500126 Si02
#       5
#    16   4  16  16  16
#     4  10  21  43  69  94 131 176 220 275 341 398
#     4  12  30  48  64  98 148 184 224 272 354 408
#     4  10  23  42  65  95 133 175 217 274 336 396
#     4  11  23  43  68  95 129 172 219 269 331 395
#     4  12  26  43  67  98 132 176 226 275 329 402
#
# _framework density 9.9941209999999998
#
# number of rings (size 3 to 8) (size 9 to 14) (size 15 to 20)
#    0.000    1.176    3.529    1.765    1.647    6.588 
#    0.000    2.353    0.000    0.000    0.000    0.000 
#    0.000    0.000    0.000    0.000    0.000    0.000 
#
# Total GULP energy -189323.660156 kJ/mol
# GULP energy per Si atom -5568.342946 kJ/mol
# Density = 0.997137 g / cm^3
# Si number density = 9.994121 Si / 1000 Ang^3
#
#
#
# Elastic Constant Matrix: (Units=GPa)
#
#
# Indices 1 2 3 4 5 6 
#
# 1 129.1098 30.4721 49.5941 0.0000 0.0000 0.0000
# 2 30.4721 88.0781 35.9348 0.0000 0.0000 0.0000
# 3 49.5941 35.9348 73.8048 0.0000 0.0000 0.0000
# 4 0.0000 0.0000 0.0000 18.3334 0.0000 0.0000
# 5 0.0000 0.0000 0.0000 0.0000 31.3829 0.0000
# 6 0.0000 0.0000 0.0000 0.0000 0.0000 47.9303
#
#
#
# Elastic Compliance Matrix: (Units=1/GPa)
#
#
# Indices 1 2 3 4 5 6 
#
# 1 0.010502 -0.000941 -0.006599 0.000000 0.000000 0.000000
# 2 -0.000941 0.014252 -0.006307 0.000000 0.000000 0.000000
# 3 -0.006599 -0.006307 0.021054 0.000000 0.000000 0.000000
# 4 0.000000 0.000000 0.000000 0.054545 0.000000 0.000000
# 5 0.000000 0.000000 0.000000 0.000000 0.031864 0.000000
# 6 0.000000 0.000000 0.000000 0.000000 0.000000 0.020864
#
#
# Mechanical properties :
#
#
# Convention : Reuss Voigt Hill
#
# Bulk Modulus (GPa) = 55.20309 58.11051 56.65680
# Shear Modulus (GPa) = 26.76452 31.19542 28.97997
#
# Velocity S-wave (km/s) = 3.66322 3.95484 3.81182
# Velocity P-wave (km/s) = 6.75056 7.07035 6.91230
#
# Compressibility (1/GPa) = 0.01811493
#
# Stress axis : x y z
#
# Youngs Moduli (GPa) = 95.21750 70.16409 47.49639
#
# Poissons Ratio (x) = 0.06604 0.31342
# Poissons Ratio (y) = 0.08962 0.29955
# Poissons Ratio (z) = 0.62833 0.44252
#
# Static dielectric constant tensor:
#      x y z
#    x 1.658520 0.000000 0.000000 
#    y 0.000000 1.894500 0.000000 
#    z 0.000000 0.000000 1.705520 
# 
# From -- ./inp_files/6265.got.cif
#   From: 2010.05.17/outbox.ucp.g08.bks.cvg/sg66_4_cif.got.tgz:6265.got - 2010.06.11 16:44:13.
