data_PCOD9500317
_publ_section_title
;
Structure prediction by ZEFSAII (Michael W. Deem and Ramdas Pophale) SiO2 
 PCOD9500317
Probable space group: C M M A
;
_chemical_formula_sum "Si O2"
_cell_formula_units_Z 80
_cell_length_a 8.577707
_cell_length_b 19.508772
_cell_length_c 26.914782
_cell_angle_alpha 90.000000
_cell_angle_beta 90.000000
_cell_angle_gamma 90.000000
_cell_volume 4503.933889
_symmetry_space_group_name_H-M "C M M A"
_symmetry_group_IT_number 67
_symmetry_cell_setting 'orthorhombic'
loop_
_space_group_symop_operation_xyz
x,y,z
-x,1/2-y,z
x,-y,-z
-x,1/2+y,-z
-x,-y,-z
x,1/2+y,-z
-x,y,z
x,1/2-y,z
1/2+x,1/2+y,z
1/2-x,-y,z
1/2+x,1/2-y,-z
1/2-x,y,-z
1/2-x,1/2-y,-z
1/2+x,y,-z
1/2-x,1/2+y,z
1/2+x,-y,z
loop_
_atom_site_type_symbol
_atom_site_label
_atom_site_fract_x
_atom_site_fract_y
_atom_site_fract_z
Si Si1 0.687637 0.577544 0.844608
Si Si2 0.687490 0.922965 0.446725
Si Si3 0.686072 0.578258 0.051253
Si Si4 0.811997 0.170887 0.354867
Si Si5 0.812078 0.329163 0.751976
O O1 0.500000 0.575421 0.847364
O O2 0.750000 0.500000 0.838851
O O3 0.752389 0.607221 0.896631
O O4 0.736645 0.623298 0.797729
O O5 0.500000 0.924539 0.448389
O O6 0.750000 0.897932 0.500000
O O7 0.738583 0.875596 0.400953
O O8 0.750000 0.000000 0.439900
O O9 0.500000 0.576977 0.050363
O O10 0.750000 0.500000 0.051724
O O11 0.750000 0.609940 0.000000
O O12 0.761500 0.250000 0.361500
O O13 0.750223 0.146945 0.301427
O O14 0.000000 0.169888 0.353532
O O15 0.761248 0.250000 0.758954
O O16 0.000000 0.329791 0.750447
#
# Coordination Sequence:
#
# PCOD9500317 Si02
#       5
#    16  16  16  16  16
#     4  10  19  31  48  72 100 126 159 201 241 286
#     4  10  20  34  52  74 101 131 162 197 240 288
#     4  10  17  27  44  67  96 127 160 197 241 288
#     4   9  19  35  53  73  97 126 162 202 241 284
#     4   9  19  35  53  72  96 129 165 200 241 287
#
# _framework density 17.762250000000002
#
# number of rings (size 3 to 8) (size 9 to 14) (size 15 to 20)
#    0.000    2.400    0.000    5.400    0.000    4.400 
#    0.000    4.000    0.000    0.600    0.000    0.000 
#    0.000    0.000    0.000    0.000    0.000    0.000 
#
# Total GULP energy -223058.285429 kJ/mol
# GULP energy per Si atom -5576.457136 kJ/mol
# Density = 1.772182 g / cm^3
# Si number density = 17.762250 Si / 1000 Ang^3
#
#
#
# Elastic Constant Matrix: (Units=GPa)
#
#
# Indices 1 2 3 4 5 6 
#
# 1 65.2151 20.9514 49.2049 0.0000 0.0000 0.0000
# 2 20.9514 46.4301 81.6859 0.0000 0.0000 0.0000
# 3 49.2049 81.6859 227.3593 0.0000 0.0000 0.0000
# 4 0.0000 0.0000 0.0000 -73.3468 0.0000 0.0000
# 5 0.0000 0.0000 0.0000 0.0000 34.5399 0.0000
# 6 0.0000 0.0000 0.0000 0.0000 0.0000 14.7773
#
#
#
# Elastic Compliance Matrix: (Units=1/GPa)
#
#
# Indices 1 2 3 4 5 6 
#
# 1 0.018539 -0.003552 -0.002736 0.000000 0.000000 0.000000
# 2 -0.003552 0.059222 -0.020509 0.000000 0.000000 0.000000
# 3 -0.002736 -0.020509 0.012359 0.000000 0.000000 0.000000
# 4 0.000000 0.000000 0.000000 -0.013634 0.000000 0.000000
# 5 0.000000 0.000000 0.000000 0.000000 0.028952 0.000000
# 6 0.000000 0.000000 0.000000 0.000000 0.000000 0.067671
#
#
# Mechanical properties :
#
#
# Convention : Reuss Voigt Hill
#
# Bulk Modulus (GPa) = 27.37734 71.40988 49.39361
# Shear Modulus (GPa) = 20.93106 7.67157 14.30131
#
# Velocity S-wave (km/s) = 3.43651 2.08048 2.84060
# Velocity P-wave (km/s) = 5.58505 6.78687 6.21508
#
# Compressibility (1/GPa) = 0.03652656
#
# Stress axis : x y z
#
# Youngs Moduli (GPa) = 53.93907 16.88556 80.91396
#
# Poissons Ratio (x) = 0.05998 0.22138
# Poissons Ratio (y) = 0.19161 1.65943
# Poissons Ratio (z) = 0.14758 0.34630
#
# Static dielectric constant tensor:
#      x y z
#    x 1.602040 0.000000 0.000000 
#    y 0.000000 1.594350 0.000000 
#    z 0.000000 0.000000 1.629550 
# 
# From -- ./inp_files/43277.got.cif
#   From: 2010.05.17/outbox.cif.g08.bks.cpg/sg67_22_cif.got.tgz:43277.got - 2010.06.03 18:28:57.
