data_PCOD9500161
_publ_section_title
;
Structure prediction by ZEFSAII (Michael W. Deem and Ramdas Pophale) SiO2 
 PCOD9500161
Probable space group: C M M A
;
_chemical_formula_sum "Si O2"
_cell_formula_units_Z 72
_cell_length_a 14.815260
_cell_length_b 8.402486
_cell_length_c 27.195550
_cell_angle_alpha 90.000000
_cell_angle_beta 90.000000
_cell_angle_gamma 90.000000
_cell_volume 3385.438443
_symmetry_space_group_name_H-M "C M M A"
_symmetry_group_IT_number 67
_symmetry_cell_setting 'orthorhombic'
loop_
_space_group_symop_operation_xyz
x,y,z
-x,1/2-y,z
x,-y,-z
-x,1/2+y,-z
-x,-y,-z
x,1/2+y,-z
-x,y,z
x,1/2-y,z
1/2+x,1/2+y,z
1/2-x,-y,z
1/2+x,1/2-y,-z
1/2-x,y,-z
1/2-x,1/2-y,-z
1/2+x,y,-z
1/2-x,1/2+y,z
1/2+x,-y,z
loop_
_atom_site_type_symbol
_atom_site_label
_atom_site_fract_x
_atom_site_fract_y
_atom_site_fract_z
Si Si1 0.854221 0.058914 0.846053
Si Si2 0.500000 0.442429 0.444424
Si Si3 0.146178 0.442358 0.739890
Si Si4 0.352441 0.942457 0.632506
Si Si5 0.853929 0.561425 0.948734
O O1 0.855628 0.250000 0.848288
O O2 0.892793 0.006844 0.792861
O O3 0.750000 0.000000 0.845298
O O4 0.894335 0.995563 0.896957
O O5 0.500000 0.250000 0.444855
O O6 0.500000 0.500000 0.500000
O O7 0.586209 0.496633 0.412586
O O8 0.143627 0.250000 0.740384
O O9 0.250000 0.500000 0.739653
O O10 0.110586 0.493659 0.686463
O O11 0.352836 0.750000 0.632512
O O12 0.250000 0.000000 0.627746
O O13 0.853104 0.750000 0.949647
O O14 0.750000 0.500000 0.948348
O O15 0.894188 0.500000 0.000000
#
# Coordination Sequence:
#
# PCOD9500161 Si02
#       5
#    16   8  16  16  16
#     4   9  14  20  30  46  67  94 130 176 224 276
#     4  10  22  38  56  78 108 140 175 212 253 300
#     4   8  14  24  40  60  83 110 146 188 236 287
#     4   9  18  34  54  77 103 136 172 212 256 304
#     4  10  16  21  27  37  58  92 134 179 224 274
#
# _framework density 21.267555000000002
#
# number of rings (size 3 to 8) (size 9 to 14) (size 15 to 20)
#    0.000    2.889    0.000    4.667    0.000    2.222 
#    0.000    2.222    0.000    0.000    0.000    0.000 
#    0.000    0.000    0.000    1.000    0.000    9.556 
#
# Total GULP energy -200633.371272 kJ/mol
# GULP energy per Si atom -5573.149202 kJ/mol
# Density = 2.121915 g / cm^3
# Si number density = 21.267555 Si / 1000 Ang^3
#
#
#
# Elastic Constant Matrix: (Units=GPa)
#
#
# Indices 1 2 3 4 5 6 
#
# 1 83.6265 8.7386 65.6126 0.0000 0.0000 0.0000
# 2 8.7386 60.8248 49.3144 0.0000 0.0000 0.0000
# 3 65.6126 49.3144 297.3357 0.0000 0.0000 0.0000
# 4 0.0000 0.0000 0.0000 29.5648 0.0000 0.0000
# 5 0.0000 0.0000 0.0000 0.0000 510.3388 0.0000
# 6 0.0000 0.0000 0.0000 0.0000 0.0000 -2.9350
#
#
#
# Elastic Compliance Matrix: (Units=1/GPa)
#
#
# Indices 1 2 3 4 5 6 
#
# 1 0.014480 0.000590 -0.003293 0.000000 0.000000 0.000000
# 2 0.000590 0.019019 -0.003284 0.000000 0.000000 0.000000
# 3 -0.003293 -0.003284 0.004635 0.000000 0.000000 0.000000
# 4 0.000000 0.000000 0.000000 0.033824 0.000000 0.000000
# 5 0.000000 0.000000 0.000000 0.000000 0.001959 0.000000
# 6 0.000000 0.000000 0.000000 0.000000 0.000000 -0.340719
#
#
# Mechanical properties :
#
#
# Convention : Reuss Voigt Hill
#
# Bulk Modulus (GPa) = 38.22980 76.56869 57.39925
# Shear Modulus (GPa) = -20.31639 128.60181 54.14271
#
# Velocity S-wave (km/s) = -3.09411 7.78459 5.05106
# Velocity P-wave (km/s) = 2.29129 10.81113 7.81443
#
# Compressibility (1/GPa) = 0.02615760
#
# Stress axis : x y z
#
# Youngs Moduli (GPa) = 69.06059 52.57936 215.76737
#
# Poissons Ratio (x) = -0.03100 0.71054
# Poissons Ratio (y) = -0.04072 0.70868
# Poissons Ratio (z) = 0.22742 0.17269
#
# Static dielectric constant tensor:
#      x y z
#    x 1.406340 0.000000 0.000000 
#    y 0.000000 1.727340 0.000000 
#    z 0.000000 0.000000 1.839970 
# 
# From -- ./inp_files/43186.got.cif
#   From: 2010.05.17/outbox.cif.g08.bks.cpg/sg67_22_cif.got.tgz:43186.got - 2010.06.03 18:28:57.
