data_PCOD9500940
_publ_section_title
;
Structure prediction by ZEFSAII (Michael W. Deem and Ramdas Pophale) SiO2 
 PCOD9500940
Probable space group: C M M A
;
_chemical_formula_sum "Si O2"
_cell_formula_units_Z 96
_cell_length_a 24.101603
_cell_length_b 8.749123
_cell_length_c 25.914531
_cell_angle_alpha 90.000000
_cell_angle_beta 90.000000
_cell_angle_gamma 90.000000
_cell_volume 5464.542450
_symmetry_space_group_name_H-M "C M M A"
_symmetry_group_IT_number 67
_symmetry_cell_setting 'orthorhombic'
loop_
_space_group_symop_operation_xyz
x,y,z
-x,1/2-y,z
x,-y,-z
-x,1/2+y,-z
-x,-y,-z
x,1/2+y,-z
-x,y,z
x,1/2-y,z
1/2+x,1/2+y,z
1/2-x,-y,z
1/2+x,1/2-y,-z
1/2-x,y,-z
1/2-x,1/2-y,-z
1/2+x,y,-z
1/2-x,1/2+y,z
1/2+x,-y,z
loop_
_atom_site_type_symbol
_atom_site_label
_atom_site_fract_x
_atom_site_fract_y
_atom_site_fract_z
Si Si1 0.064240 0.932346 0.555580
Si Si2 0.887491 0.930357 0.344180
Si Si3 0.688590 0.065353 0.251242
Si Si4 0.381370 0.566355 0.850963
Si Si5 0.500000 0.073591 0.279002
Si Si6 0.000000 0.929271 0.829878
Si Si7 0.688178 0.433209 0.945197
O O1 0.064537 0.750000 0.552834
O O2 0.000000 0.982265 0.566109
O O3 0.079718 0.000000 0.500000
O O4 0.103490 0.987112 0.601675
O O5 0.879014 0.750000 0.353718
O O6 0.839812 0.985442 0.304990
O O7 0.945202 0.946065 0.312941
O O8 0.690915 0.250000 0.252172
O O9 0.649315 0.023546 0.202839
O O10 0.750000 0.000000 0.244747
O O11 0.379777 0.750000 0.855112
O O12 0.444176 0.507838 0.850113
O O13 0.348985 0.490737 0.898231
O O14 0.500000 0.250000 0.259011
O O15 0.500000 0.959606 0.231477
O O16 0.000000 0.750000 0.841394
O O17 0.690395 0.250000 0.947319
O O18 0.750000 0.500000 0.937672
O O19 0.668021 0.500000 0.000000
#
# Coordination Sequence:
#
# PCOD9500940 Si02
#       7
#    16  16  16  16   8   8  16
#     4  10  20  32  49  77 109 142 178 222 272 327
#     4  10  19  34  55  78 107 146 183 224 275 331
#     4  10  22  37  56  81 111 147 186 227 278 330
#     4  11  22  40  61  84 116 155 192 234 286 341
#     4  10  18  34  55  76 109 150 187 223 276 339
#     4  12  24  36  55  86 119 152 190 233 280 343
#     4  11  22  39  62  90 118 153 196 242 289 336
#
# _framework density 17.567802
#
# number of rings (size 3 to 8) (size 9 to 14) (size 15 to 20)
#    0.000    1.500    2.500    4.250    0.000    4.667 
#    0.000    0.417    0.000    0.500    0.000    3.500 
#    0.000    0.000    0.000    0.000    0.000    0.000 
#
# Total GULP energy -268118.523107 kJ/mol
# GULP energy per Si atom -5585.802565 kJ/mol
# Density = 1.752782 g / cm^3
# Si number density = 17.567802 Si / 1000 Ang^3
#
#
#
# Elastic Constant Matrix: (Units=GPa)
#
#
# Indices 1 2 3 4 5 6 
#
# 1 105.6539 39.4558 64.9274 0.0000 0.0000 0.0000
# 2 39.4558 85.1346 60.4463 0.0000 0.0000 0.0000
# 3 64.9274 60.4463 148.2311 0.0000 0.0000 0.0000
# 4 0.0000 0.0000 0.0000 29.3410 0.0000 0.0000
# 5 0.0000 0.0000 0.0000 0.0000 18.1487 0.0000
# 6 0.0000 0.0000 0.0000 0.0000 0.0000 27.5063
#
#
#
# Elastic Compliance Matrix: (Units=1/GPa)
#
#
# Indices 1 2 3 4 5 6 
#
# 1 0.013436 -0.002883 -0.004709 0.000000 0.000000 0.000000
# 2 -0.002883 0.017152 -0.005731 0.000000 0.000000 0.000000
# 3 -0.004709 -0.005731 0.011146 0.000000 0.000000 0.000000
# 4 0.000000 0.000000 0.000000 0.034082 0.000000 0.000000
# 5 0.000000 0.000000 0.000000 0.000000 0.055100 0.000000
# 6 0.000000 0.000000 0.000000 0.000000 0.000000 0.036355
#
#
# Mechanical properties :
#
#
# Convention : Reuss Voigt Hill
#
# Bulk Modulus (GPa) = 66.28737 74.29761 70.29249
# Shear Modulus (GPa) = 25.13235 26.61187 25.87211
#
# Velocity S-wave (km/s) = 3.78642 3.89628 3.84174
# Velocity P-wave (km/s) = 7.54521 7.91360 7.73160
#
# Compressibility (1/GPa) = 0.01508583
#
# Stress axis : x y z
#
# Youngs Moduli (GPa) = 74.42948 58.30381 89.71759
#
# Poissons Ratio (x) = 0.16810 0.42251
# Poissons Ratio (y) = 0.21459 0.51420
# Poissons Ratio (z) = 0.35051 0.33416
#
# Static dielectric constant tensor:
#      x y z
#    x 1.585370 0.000000 0.000000 
#    y 0.000000 1.592150 0.000000 
#    z 0.000000 0.000000 1.590880 
# 
# From -- ./inp_files/42577.got.cif
#   From: 2010.05.17/outbox.cif.g08.bks.cpg/sg67_22_cif.got.tgz:42577.got - 2010.06.03 18:28:57.
