data_PCOD9500934
_publ_section_title
;
Structure prediction by ZEFSAII (Michael W. Deem and Ramdas Pophale) SiO2 
 PCOD9500934
Probable space group: C M M A
;
_chemical_formula_sum "Si O2"
_cell_formula_units_Z 80
_cell_length_a 21.003008
_cell_length_b 25.027491
_cell_length_c 7.159701
_cell_angle_alpha 90.000000
_cell_angle_beta 90.000000
_cell_angle_gamma 90.000000
_cell_volume 3763.515401
_symmetry_space_group_name_H-M "C M M A"
_symmetry_group_IT_number 67
_symmetry_cell_setting 'orthorhombic'
loop_
_space_group_symop_operation_xyz
x,y,z
-x,1/2-y,z
x,-y,-z
-x,1/2+y,-z
-x,-y,-z
x,1/2+y,-z
-x,y,z
x,1/2-y,z
1/2+x,1/2+y,z
1/2-x,-y,z
1/2+x,1/2-y,-z
1/2-x,y,-z
1/2-x,1/2-y,-z
1/2+x,y,-z
1/2-x,1/2+y,z
1/2+x,-y,z
loop_
_atom_site_type_symbol
_atom_site_label
_atom_site_fract_x
_atom_site_fract_y
_atom_site_fract_z
Si Si1 0.569205 0.356467 0.499748
Si Si2 0.111320 0.428328 0.195767
Si Si3 0.696563 0.691459 0.660806
Si Si4 0.110980 0.952326 0.246298
Si Si5 0.243740 0.919077 0.209635
O O1 0.500000 0.331614 0.471749
O O2 0.575717 0.378959 0.710280
O O3 0.628555 0.320872 0.434168
O O4 0.575534 0.410092 0.374082
O O5 0.087821 0.486993 0.257207
O O6 0.183689 0.420949 0.273528
O O7 0.108913 0.431964 0.970120
O O8 0.695687 0.750000 0.751269
O O9 0.750000 0.691620 0.500000
O O10 0.716961 0.641509 0.787652
O O11 0.186326 0.951803 0.300544
O O12 0.250000 0.939399 0.000000
#
# Coordination Sequence:
#
# PCOD9500934 Si02
#       5
#    16  16  16  16  16
#     4  11  23  37  54  79 111 147 184 223 273 324
#     4  10  18  34  53  80 113 148 182 220 266 317
#     4  10  20  37  59  81 104 134 181 233 278 325
#     4   9  20  32  53  81 113 147 183 221 263 321
#     4   9  17  32  54  83 112 140 177 227 277 325
#
# _framework density 21.256720999999999
#
# number of rings (size 3 to 8) (size 9 to 14) (size 15 to 20)
#    0.000    2.200    2.000    1.200    0.000    5.600 
#    0.000    4.000    0.000    0.000    0.000    2.800 
#    0.000    0.000    0.000    0.000    0.000    0.000 
#
# Total GULP energy -223118.142161 kJ/mol
# GULP energy per Si atom -5577.953554 kJ/mol
# Density = 2.120834 g / cm^3
# Si number density = 21.256721 Si / 1000 Ang^3
#
#
#
# Elastic Constant Matrix: (Units=GPa)
#
#
# Indices 1 2 3 4 5 6 
#
# 1 120.8080 4.6799 4.6644 0.0000 0.0000 0.0000
# 2 4.6799 96.6625 0.5797 0.0000 0.0000 0.0000
# 3 4.6644 0.5797 58.1114 0.0000 0.0000 0.0000
# 4 0.0000 0.0000 0.0000 18.9982 0.0000 0.0000
# 5 0.0000 0.0000 0.0000 0.0000 15.2699 0.0000
# 6 0.0000 0.0000 0.0000 0.0000 0.0000 -6.2742
#
#
#
# Elastic Compliance Matrix: (Units=1/GPa)
#
#
# Indices 1 2 3 4 5 6 
#
# 1 0.008319 -0.000399 -0.000664 0.000000 0.000000 0.000000
# 2 -0.000399 0.010365 -0.000071 0.000000 0.000000 0.000000
# 3 -0.000664 -0.000071 0.017262 0.000000 0.000000 0.000000
# 4 0.000000 0.000000 0.000000 0.052637 0.000000 0.000000
# 5 0.000000 0.000000 0.000000 0.000000 0.065488 0.000000
# 6 0.000000 0.000000 0.000000 0.000000 0.000000 -0.159383
#
#
# Mechanical properties :
#
#
# Convention : Reuss Voigt Hill
#
# Bulk Modulus (GPa) = 29.69276 32.82552 31.25914
# Shear Modulus (GPa) = 611.12246 23.30932 317.21589
#
# Velocity S-wave (km/s) = 16.97410 3.31503 12.22926
# Velocity P-wave (km/s) = 19.95393 5.48894 14.63366
#
# Compressibility (1/GPa) = 0.03367824
#
# Stress axis : x y z
#
# Youngs Moduli (GPa) = 120.21150 96.47845 57.92965
#
# Poissons Ratio (x) = 0.03847 0.03845
# Poissons Ratio (y) = 0.04794 0.00414
# Poissons Ratio (z) = 0.07979 0.00689
#
# Static dielectric constant tensor:
#      x y z
#    x 1.832800 0.000000 0.000000 
#    y 0.000000 1.762400 0.000000 
#    z 0.000000 0.000000 1.791180 
# 
# From -- ./inp_files/9935.got.cif
#   From: 2010.05.17/outbox.cif.g08.bks.cpg/sg67_5_cif.got.tgz:9935.got - 2010.06.03 18:28:57.
