data_PCOD9500895
_publ_section_title
;
Structure prediction by ZEFSAII (Michael W. Deem and Ramdas Pophale) SiO2 
 PCOD9500895
Probable space group: C M M A
;
_chemical_formula_sum "Si O2"
_cell_formula_units_Z 112
_cell_length_a 28.942393
_cell_length_b 18.214793
_cell_length_c 13.009655
_cell_angle_alpha 90.000000
_cell_angle_beta 90.000000
_cell_angle_gamma 90.000000
_cell_volume 6858.425986
_symmetry_space_group_name_H-M "C M M A"
_symmetry_group_IT_number 67
_symmetry_cell_setting 'orthorhombic'
loop_
_space_group_symop_operation_xyz
x,y,z
-x,1/2-y,z
x,-y,-z
-x,1/2+y,-z
-x,-y,-z
x,1/2+y,-z
-x,y,z
x,1/2-y,z
1/2+x,1/2+y,z
1/2-x,-y,z
1/2+x,1/2-y,-z
1/2-x,y,-z
1/2-x,1/2-y,-z
1/2+x,y,-z
1/2-x,1/2+y,z
1/2+x,-y,z
loop_
_atom_site_type_symbol
_atom_site_label
_atom_site_fract_x
_atom_site_fract_y
_atom_site_fract_z
Si Si1 0.797190 0.661839 0.880575
Si Si2 0.553555 0.072721 0.434236
Si Si3 0.947261 0.836494 0.635526
Si Si4 0.309160 0.838607 0.884050
Si Si5 0.360217 0.917504 0.703690
Si Si6 0.802937 0.910794 0.495841
Si Si7 0.856352 0.908368 0.702730
O O1 0.797571 0.750000 0.878584
O O2 0.743995 0.639816 0.858561
O O3 0.830281 0.630056 0.795231
O O4 0.813006 0.640557 0.995644
O O5 0.500000 0.060965 0.404559
O O6 0.555843 0.138151 0.516790
O O7 0.587699 0.087788 0.340306
O O8 0.568741 0.000000 0.500000
O O9 0.938574 0.750000 0.645614
O O10 0.909209 0.882758 0.695746
O O11 0.000000 0.852183 0.668207
O O12 0.312919 0.750000 0.876255
O O13 0.344982 0.876237 0.806737
O O14 0.327863 0.889831 0.609873
O O15 0.352053 0.004435 0.715756
O O16 0.750000 0.885580 0.500000
O O17 0.832009 0.886657 0.594952
O O18 0.802727 0.000000 0.500000
#
# Coordination Sequence:
#
# PCOD9500895 Si02
#       7
#    16  16  16  16  16  16  16
#     4   9  19  37  55  72  99 140 181 219 264 309
#     4  10  18  33  53  74 106 143 173 208 259 318
#     4  10  20  33  51  76 103 135 176 214 251 304
#     4   9  20  37  54  72 101 139 180 221 262 313
#     4  11  19  31  50  79 105 135 171 211 267 316
#     4   9  17  28  42  68 105 135 157 195 252 308
#     4  11  19  31  52  76 105 134 169 216 258 310
#
# _framework density 16.330278
#
# number of rings (size 3 to 8) (size 9 to 14) (size 15 to 20)
#    0.000    2.143    2.857    2.571    0.000    2.857 
#    0.000    1.429    0.000    3.857    0.000    4.000 
#    0.000    0.000    0.000    0.000    0.000    0.000 
#
# Total GULP energy -312248.072751 kJ/mol
# GULP energy per Si atom -5575.858442 kJ/mol
# Density = 1.629311 g / cm^3
# Si number density = 16.330278 Si / 1000 Ang^3
#
#
#
# Elastic Constant Matrix: (Units=GPa)
#
#
# Indices 1 2 3 4 5 6 
#
# 1 104.0002 30.7973 60.2646 0.0000 0.0000 0.0000
# 2 30.7973 34.5399 31.0322 0.0000 0.0000 0.0000
# 3 60.2646 31.0322 92.3394 0.0000 0.0000 0.0000
# 4 0.0000 0.0000 0.0000 28.2386 0.0000 0.0000
# 5 0.0000 0.0000 0.0000 0.0000 25.7573 0.0000
# 6 0.0000 0.0000 0.0000 0.0000 0.0000 18.9161
#
#
#
# Elastic Compliance Matrix: (Units=1/GPa)
#
#
# Indices 1 2 3 4 5 6 
#
# 1 0.016651 -0.007282 -0.008420 0.000000 0.000000 0.000000
# 2 -0.007282 0.044659 -0.010256 0.000000 0.000000 0.000000
# 3 -0.008420 -0.010256 0.019771 0.000000 0.000000 0.000000
# 4 0.000000 0.000000 0.000000 0.035412 0.000000 0.000000
# 5 0.000000 0.000000 0.000000 0.000000 0.038824 0.000000
# 6 0.000000 0.000000 0.000000 0.000000 0.000000 0.052865
#
#
# Mechanical properties :
#
#
# Convention : Reuss Voigt Hill
#
# Bulk Modulus (GPa) = 34.28634 52.78529 43.53581
# Shear Modulus (GPa) = 18.53084 21.83475 20.18280
#
# Velocity S-wave (km/s) = 3.37226 3.66057 3.51937
# Velocity P-wave (km/s) = 6.01698 7.08943 6.57511
#
# Compressibility (1/GPa) = 0.02916613
#
# Stress axis : x y z
#
# Youngs Moduli (GPa) = 60.05765 22.39173 50.57799
#
# Poissons Ratio (x) = 0.16305 0.42585
# Poissons Ratio (y) = 0.43733 0.51873
# Poissons Ratio (z) = 0.50567 0.22965
#
# Static dielectric constant tensor:
#      x y z
#    x 1.562780 0.000000 0.000000 
#    y 0.000000 1.557060 0.000000 
#    z 0.000000 0.000000 1.525640 
# 
# From -- ./inp_files/23113.got.cif
#   From: 2010.05.17/outbox.cif.g08.bks.cpg/sg67_12_cif.got.tgz:23113.got - 2010.06.03 18:28:57.
