data_PCOD9500157
_publ_section_title
;
Structure prediction by ZEFSAII (Michael W. Deem and Ramdas Pophale) SiO2 
 PCOD9500157
Probable space group: C M M A
;
_chemical_formula_sum "Si O2"
_cell_formula_units_Z 64
_cell_length_a 19.079322
_cell_length_b 15.072578
_cell_length_c 11.025125
_cell_angle_alpha 90.000000
_cell_angle_beta 90.000000
_cell_angle_gamma 90.000000
_cell_volume 3170.545570
_symmetry_space_group_name_H-M "C M M A"
_symmetry_group_IT_number 67
_symmetry_cell_setting 'orthorhombic'
loop_
_space_group_symop_operation_xyz
x,y,z
-x,1/2-y,z
x,-y,-z
-x,1/2+y,-z
-x,-y,-z
x,1/2+y,-z
-x,y,z
x,1/2-y,z
1/2+x,1/2+y,z
1/2-x,-y,z
1/2+x,1/2-y,-z
1/2-x,y,-z
1/2-x,1/2-y,-z
1/2+x,y,-z
1/2-x,1/2+y,z
1/2+x,-y,z
loop_
_atom_site_type_symbol
_atom_site_label
_atom_site_fract_x
_atom_site_fract_y
_atom_site_fract_z
Si Si1 0.778717 0.396113 0.873911
Si Si2 0.721651 0.600651 0.374754
Si Si3 0.579797 0.145931 0.731576
Si Si4 0.077596 0.394388 0.988433
O O1 0.750000 0.500000 0.874004
O O2 0.752175 0.357196 0.748224
O O3 0.750000 0.358344 0.000000
O O4 0.861721 0.382890 0.890037
O O5 0.750000 0.500000 0.375548
O O6 0.750000 0.640802 0.500000
O O7 0.638346 0.600848 0.351836
O O8 0.500000 0.111903 0.717156
O O9 0.580453 0.250000 0.702554
O O10 0.597015 0.136973 0.875400
O O11 0.000000 0.359070 0.958991
O O12 0.072846 0.500000 0.000000
#
# Coordination Sequence:
#
# PCOD9500157 Si02
#       4
#    16  16  16  16
#     4  10  15  28  49  74 105 135 173 227 277 323
#     4  10  20  35  55  82 113 149 193 239 283 327
#     4  10  21  37  57  82 114 152 191 229 280 348
#     4  10  17  28  50  78 104 139 184 230 277 324
#
# _framework density 20.1858
#
# number of rings (size 3 to 8) (size 9 to 14) (size 15 to 20)
#    0.000    2.000    5.000    1.500    0.000    0.500 
#    0.000    6.250    0.000    0.000    0.000    3.500 
#    0.000    0.000    0.000    0.000    0.000    0.000 
#
# Total GULP energy -178250.274231 kJ/mol
# GULP energy per Si atom -5570.321070 kJ/mol
# Density = 2.013986 g / cm^3
# Si number density = 20.185800 Si / 1000 Ang^3
#
#
#
# Elastic Constant Matrix: (Units=GPa)
#
#
# Indices 1 2 3 4 5 6 
#
# 1 173.5373 10.9303 71.4471 0.0000 0.0000 0.0000
# 2 10.9303 56.0377 3.3645 0.0000 0.0000 0.0000
# 3 71.4471 3.3645 155.0448 0.0000 0.0000 0.0000
# 4 0.0000 0.0000 0.0000 -19.0002 0.0000 0.0000
# 5 0.0000 0.0000 0.0000 0.0000 18.0480 0.0000
# 6 0.0000 0.0000 0.0000 0.0000 0.0000 2.6345
#
#
#
# Elastic Compliance Matrix: (Units=1/GPa)
#
#
# Indices 1 2 3 4 5 6 
#
# 1 0.007192 -0.001205 -0.003288 0.000000 0.000000 0.000000
# 2 -0.001205 0.018070 0.000163 0.000000 0.000000 0.000000
# 3 -0.003288 0.000163 0.007961 0.000000 0.000000 0.000000
# 4 0.000000 0.000000 0.000000 -0.052631 0.000000 0.000000
# 5 0.000000 0.000000 0.000000 0.000000 0.055408 0.000000
# 6 0.000000 0.000000 0.000000 0.000000 0.000000 0.379578
#
#
# Mechanical properties :
#
#
# Convention : Reuss Voigt Hill
#
# Bulk Modulus (GPa) = 40.71055 61.78927 51.24991
# Shear Modulus (GPa) = 11.56264 20.26166 15.91215
#
# Velocity S-wave (km/s) = 2.39594 3.17165 2.81069
# Velocity P-wave (km/s) = 5.27880 6.63997 5.99812
#
# Compressibility (1/GPa) = 0.02456366
#
# Stress axis : x y z
#
# Youngs Moduli (GPa) = 139.04127 55.33895 125.60601
#
# Poissons Ratio (x) = 0.06671 0.41300
# Poissons Ratio (y) = 0.16760 -0.02052
# Poissons Ratio (z) = 0.45718 -0.00904
#
# Static dielectric constant tensor:
#      x y z
#    x 1.817120 0.000000 0.000000 
#    y 0.000000 1.766010 0.000000 
#    z 0.000000 0.000000 1.741010 
# 
# From -- ./inp_files/19089.got.cif
#   From: 2010.05.17/outbox.cif.g08.bks.cpg/sg67_10_cif.got.tgz:19089.got - 2010.06.03 18:28:57.
