data_PCOD9500930
_publ_section_title
;
Structure prediction by ZEFSAII (Michael W. Deem and Ramdas Pophale) SiO2 
 PCOD9500930
Probable space group: C M M A
;
_chemical_formula_sum "Si O2"
_cell_formula_units_Z 64
_cell_length_a 20.260076
_cell_length_b 14.389031
_cell_length_c 9.772231
_cell_angle_alpha 90.000000
_cell_angle_beta 90.000000
_cell_angle_gamma 90.000000
_cell_volume 2848.828746
_symmetry_space_group_name_H-M "C M M A"
_symmetry_group_IT_number 67
_symmetry_cell_setting 'orthorhombic'
loop_
_space_group_symop_operation_xyz
x,y,z
-x,1/2-y,z
x,-y,-z
-x,1/2+y,-z
-x,-y,-z
x,1/2+y,-z
-x,y,z
x,1/2-y,z
1/2+x,1/2+y,z
1/2-x,-y,z
1/2+x,1/2-y,-z
1/2-x,y,-z
1/2-x,1/2-y,-z
1/2+x,y,-z
1/2-x,1/2+y,z
1/2+x,-y,z
loop_
_atom_site_type_symbol
_atom_site_label
_atom_site_fract_x
_atom_site_fract_y
_atom_site_fract_z
Si Si1 0.072162 0.139040 0.247394
Si Si2 0.198709 0.591481 0.594160
Si Si3 0.782594 0.137506 0.853084
Si Si4 0.074843 0.363607 0.933391
O O1 0.069031 0.250000 0.232538
O O2 0.127049 0.121793 0.359678
O O3 0.000000 0.103899 0.287902
O O4 0.085653 0.106045 0.091653
O O5 0.188342 0.500000 0.500000
O O6 0.250000 0.648510 0.500000
O O7 0.238260 0.592621 0.736779
O O8 0.779671 0.250000 0.836742
O O9 0.859688 0.108003 0.850484
O O10 0.750000 0.117191 0.000000
O O11 0.075152 0.250000 0.930649
O O12 0.000000 0.391949 0.892613
#
# Coordination Sequence:
#
# PCOD9500930 Si02
#       4
#    16  16  16  16
#     4   9  17  33  61  93 121 152 197 256 314 364
#     4  11  24  39  53  82 127 176 210 239 296 371
#     4  10  18  33  62  92 115 149 204 268 323 360
#     4   8  14  27  54  93 123 141 180 253 329 376
#
# _framework density 22.465371999999999
#
# number of rings (size 3 to 8) (size 9 to 14) (size 15 to 20)
#    0.000    2.500    2.500    2.250    0.000    2.500 
#    0.000    3.750    0.000    5.250    0.000   14.000 
#    0.000    0.000    0.000    0.000    0.000    0.000 
#
# Total GULP energy -178369.528510 kJ/mol
# GULP energy per Si atom -5574.047766 kJ/mol
# Density = 2.241424 g / cm^3
# Si number density = 22.465372 Si / 1000 Ang^3
#
#
#
# Elastic Constant Matrix: (Units=GPa)
#
#
# Indices 1 2 3 4 5 6 
#
# 1 180.6423 17.2661 50.5004 0.0000 0.0000 0.0000
# 2 17.2661 62.2284 20.4527 0.0000 0.0000 0.0000
# 3 50.5004 20.4527 107.4166 0.0000 0.0000 0.0000
# 4 0.0000 0.0000 0.0000 17.6668 0.0000 0.0000
# 5 0.0000 0.0000 0.0000 0.0000 28.3037 0.0000
# 6 0.0000 0.0000 0.0000 0.0000 0.0000 -4.6251
#
#
#
# Elastic Compliance Matrix: (Units=1/GPa)
#
#
# Indices 1 2 3 4 5 6 
#
# 1 0.006414 -0.000841 -0.002856 0.000000 0.000000 0.000000
# 2 -0.000841 0.017253 -0.002890 0.000000 0.000000 0.000000
# 3 -0.002856 -0.002890 0.011202 0.000000 0.000000 0.000000
# 4 0.000000 0.000000 0.000000 0.056603 0.000000 0.000000
# 5 0.000000 0.000000 0.000000 0.000000 0.035331 0.000000
# 6 0.000000 0.000000 0.000000 0.000000 0.000000 -0.216213
#
#
# Mechanical properties :
#
#
# Convention : Reuss Voigt Hill
#
# Bulk Modulus (GPa) = 46.08925 58.52509 52.30717
# Shear Modulus (GPa) = -72.45978 25.74029 -23.35974
#
# Velocity S-wave (km/s) = -5.68542 3.38860 -3.22811
# Velocity P-wave (km/s) = 4.74747 6.43568 3.07242
#
# Compressibility (1/GPa) = 0.02169703
#
# Stress axis : x y z
#
# Youngs Moduli (GPa) = 155.89684 57.96101 89.26804
#
# Poissons Ratio (x) = 0.04876 0.25491
# Poissons Ratio (y) = 0.13115 0.25795
# Poissons Ratio (z) = 0.44516 0.16748
#
# Static dielectric constant tensor:
#      x y z
#    x 1.866970 0.000000 0.000000 
#    y 0.000000 1.946960 0.000000 
#    z 0.000000 0.000000 1.850160 
# 
# From -- ./inp_files/9354.got.cif
#   From: 2010.05.17/outbox.cif.g08.bks.cpg/sg67_5_cif.got.tgz:9354.got - 2010.06.03 18:28:57.
