data_PCOD9500883
_publ_section_title
;
Structure prediction by ZEFSAII (Michael W. Deem and Ramdas Pophale) SiO2 
 PCOD9500883
Probable space group: C M M A
;
_chemical_formula_sum "Si O2"
_cell_formula_units_Z 72
_cell_length_a 28.017211
_cell_length_b 8.189266
_cell_length_c 14.131200
_cell_angle_alpha 90.000000
_cell_angle_beta 90.000000
_cell_angle_gamma 90.000000
_cell_volume 3242.268088
_symmetry_space_group_name_H-M "C M M A"
_symmetry_group_IT_number 67
_symmetry_cell_setting 'orthorhombic'
loop_
_space_group_symop_operation_xyz
x,y,z
-x,1/2-y,z
x,-y,-z
-x,1/2+y,-z
-x,-y,-z
x,1/2+y,-z
-x,y,z
x,1/2-y,z
1/2+x,1/2+y,z
1/2-x,-y,z
1/2+x,1/2-y,-z
1/2-x,y,-z
1/2-x,1/2-y,-z
1/2+x,y,-z
1/2-x,1/2+y,z
1/2+x,-y,z
loop_
_atom_site_type_symbol
_atom_site_label
_atom_site_fract_x
_atom_site_fract_y
_atom_site_fract_z
Si Si1 0.949040 0.052521 0.610374
Si Si2 0.898165 0.944908 0.108664
Si Si3 0.000000 0.056795 0.110680
Si Si4 0.656492 0.053132 0.392604
Si Si5 0.699270 0.053304 0.204879
O O1 0.949396 0.250000 0.617069
O O2 0.896511 0.997880 0.641808
O O3 0.000000 0.992016 0.650218
O O4 0.949426 0.000000 0.500000
O O5 0.897540 0.750000 0.114118
O O6 0.848780 0.006428 0.153501
O O7 0.949372 0.996696 0.151548
O O8 0.898309 0.000000 0.000000
O O9 0.000000 0.250000 0.111599
O O10 0.000000 0.000000 0.000000
O O11 0.655959 0.250000 0.392765
O O12 0.693704 0.997051 0.313899
O O13 0.665010 0.000000 0.500000
O O14 0.698227 0.250000 0.202882
O O15 0.750000 0.000000 0.164528
#
# Coordination Sequence:
#
# PCOD9500883 Si02
#       5
#    16  16   8  16  16
#     4   8  13  23  42  67  94 125 161 205 258 314
#     4  10  20  37  60  88 118 152 189 230 282 341
#     4  10  18  32  58  90 121 152 185 226 277 336
#     4   9  18  34  53  77 105 140 186 232 281 335
#     4  10  23  40  57  80 112 149 194 240 288 341
#
# _framework density 22.206678
#
# number of rings (size 3 to 8) (size 9 to 14) (size 15 to 20)
#    0.000    2.667    0.000    3.000    0.000    3.556 
#    2.000    4.444    0.000    0.000    0.000    0.000 
#    0.000    0.000    0.000    0.000    0.000    0.000 
#
# Total GULP energy -200790.413049 kJ/mol
# GULP energy per Si atom -5577.511474 kJ/mol
# Density = 2.215613 g / cm^3
# Si number density = 22.206678 Si / 1000 Ang^3
#
#
#
# Elastic Constant Matrix: (Units=GPa)
#
#
# Indices 1 2 3 4 5 6 
#
# 1 206.3200 25.2962 58.0101 0.0000 0.0000 0.0000
# 2 25.2962 37.7660 3.3802 0.0000 0.0000 0.0000
# 3 58.0101 3.3802 59.7525 0.0000 0.0000 0.0000
# 4 0.0000 0.0000 0.0000 9.8694 0.0000 0.0000
# 5 0.0000 0.0000 0.0000 0.0000 30.9670 0.0000
# 6 0.0000 0.0000 0.0000 0.0000 0.0000 28.0859
#
#
#
# Elastic Compliance Matrix: (Units=1/GPa)
#
#
# Indices 1 2 3 4 5 6 
#
# 1 0.007294 -0.004273 -0.006839 0.000000 0.000000 0.000000
# 2 -0.004273 0.029117 0.002502 0.000000 0.000000 0.000000
# 3 -0.006839 0.002502 0.023234 0.000000 0.000000 0.000000
# 4 0.000000 0.000000 0.000000 0.101323 0.000000 0.000000
# 5 0.000000 0.000000 0.000000 0.000000 0.032292 0.000000
# 6 0.000000 0.000000 0.000000 0.000000 0.000000 0.035605
#
#
# Mechanical properties :
#
#
# Convention : Reuss Voigt Hill
#
# Bulk Modulus (GPa) = 23.57218 53.02352 38.29785
# Shear Modulus (GPa) = 19.21386 28.26127 23.73756
#
# Velocity S-wave (km/s) = 2.94467 3.57129 3.27301
# Velocity P-wave (km/s) = 4.71162 6.39801 5.61845
#
# Compressibility (1/GPa) = 0.04242290
#
# Stress axis : x y z
#
# Youngs Moduli (GPa) = 137.10338 34.34389 43.04021
#
# Poissons Ratio (x) = 0.14676 0.29437
# Poissons Ratio (y) = 0.58589 -0.10767
# Poissons Ratio (z) = 0.93770 -0.08591
#
# Static dielectric constant tensor:
#      x y z
#    x 1.875270 0.000000 0.000000 
#    y 0.000000 1.785580 0.000000 
#    z 0.000000 0.000000 2.028810 
# 
# From -- ./inp_files/30542.got.cif
#   From: 2010.05.17/outbox.cif.g08.bks.cpg/sg67_16_cif.got.tgz:30542.got - 2010.06.03 18:28:57.
