data_PCOD9500923
_publ_section_title
;
Structure prediction by ZEFSAII (Michael W. Deem and Ramdas Pophale) SiO2 
 PCOD9500923
Probable space group: C M M A
;
_chemical_formula_sum "Si O2"
_cell_formula_units_Z 64
_cell_length_a 25.565168
_cell_length_b 8.516627
_cell_length_c 14.975637
_cell_angle_alpha 90.000000
_cell_angle_beta 90.000000
_cell_angle_gamma 90.000000
_cell_volume 3260.630469
_symmetry_space_group_name_H-M "C M M A"
_symmetry_group_IT_number 67
_symmetry_cell_setting 'orthorhombic'
loop_
_space_group_symop_operation_xyz
x,y,z
-x,1/2-y,z
x,-y,-z
-x,1/2+y,-z
-x,-y,-z
x,1/2+y,-z
-x,y,z
x,1/2-y,z
1/2+x,1/2+y,z
1/2-x,-y,z
1/2+x,1/2-y,-z
1/2-x,y,-z
1/2-x,1/2-y,-z
1/2+x,y,-z
1/2-x,1/2+y,z
1/2+x,-y,z
loop_
_atom_site_type_symbol
_atom_site_label
_atom_site_fract_x
_atom_site_fract_y
_atom_site_fract_z
Si Si1 0.500000 0.560407 0.101769
Si Si2 0.609947 0.062866 0.398765
Si Si3 0.808863 0.061187 0.256717
Si Si4 0.000000 0.937283 0.601941
Si Si5 0.385521 0.060278 0.899055
O O1 0.500000 0.750000 0.104312
O O2 0.556859 0.509239 0.136695
O O3 0.500000 0.500000 0.000000
O O4 0.608022 0.250000 0.400973
O O5 0.614988 0.000000 0.500000
O O6 0.657653 0.002880 0.339471
O O7 0.554753 0.998728 0.360182
O O8 0.808908 0.250000 0.259763
O O9 0.839939 0.009312 0.167540
O O10 0.750000 0.000000 0.257604
O O11 0.000000 0.750000 0.603226
O O12 0.000000 0.000000 0.500000
O O13 0.385335 0.250000 0.901862
O O14 0.378966 0.000000 0.000000
#
# Coordination Sequence:
#
# PCOD9500923 Si02
#       5
#     8  16  16   8  16
#     4   8  14  29  52  81 110 140 176 221 275 337
#     4  11  22  39  62  89 119 153 191 237 289 346
#     4  11  24  41  58  82 113 152 199 247 292 344
#     4  10  18  33  58  89 122 154 188 231 282 343
#     4   9  19  35  58  84 114 148 186 231 287 346
#
# _framework density 19.628105999999999
#
# number of rings (size 3 to 8) (size 9 to 14) (size 15 to 20)
#    0.000    2.000    0.000    5.625    0.000    4.000 
#    0.000    7.500    0.000    3.000    0.000    0.000 
#    0.000    0.000    0.000    0.000    0.000    0.000 
#
# Total GULP energy -178654.485279 kJ/mol
# GULP energy per Si atom -5582.952665 kJ/mol
# Density = 1.958343 g / cm^3
# Si number density = 19.628106 Si / 1000 Ang^3
#
#
#
# Elastic Constant Matrix: (Units=GPa)
#
#
# Indices 1 2 3 4 5 6 
#
# 1 235.5037 63.6862 91.0642 0.0000 0.0000 0.0000
# 2 63.6862 102.8997 33.4330 0.0000 0.0000 0.0000
# 3 91.0642 33.4330 110.9050 0.0000 0.0000 0.0000
# 4 0.0000 0.0000 0.0000 21.3841 0.0000 0.0000
# 5 0.0000 0.0000 0.0000 0.0000 32.0418 0.0000
# 6 0.0000 0.0000 0.0000 0.0000 0.0000 45.7764
#
#
#
# Elastic Compliance Matrix: (Units=1/GPa)
#
#
# Indices 1 2 3 4 5 6 
#
# 1 0.006822 -0.002663 -0.004799 0.000000 0.000000 0.000000
# 2 -0.002663 0.011813 -0.001374 0.000000 0.000000 0.000000
# 3 -0.004799 -0.001374 0.013371 0.000000 0.000000 0.000000
# 4 0.000000 0.000000 0.000000 0.046764 0.000000 0.000000
# 5 0.000000 0.000000 0.000000 0.000000 0.031209 0.000000
# 6 0.000000 0.000000 0.000000 0.000000 0.000000 0.021845
#
#
# Mechanical properties :
#
#
# Convention : Reuss Voigt Hill
#
# Bulk Modulus (GPa) = 69.76531 91.74168 80.75350
# Shear Modulus (GPa) = 32.40970 37.24879 34.82924
#
# Velocity S-wave (km/s) = 4.06789 4.36102 4.21700
# Velocity P-wave (km/s) = 7.59502 8.49702 8.05865
#
# Compressibility (1/GPa) = 0.01433377
#
# Stress axis : x y z
#
# Youngs Moduli (GPa) = 146.58609 84.65260 74.78716
#
# Poissons Ratio (x) = 0.22544 0.35888
# Poissons Ratio (y) = 0.39037 0.10279
# Poissons Ratio (z) = 0.70342 0.11635
#
# Static dielectric constant tensor:
#      x y z
#    x 1.701890 0.000000 0.000000 
#    y 0.000000 1.684430 0.000000 
#    z 0.000000 0.000000 1.677600 
# 
# From -- ./inp_files/24853.got.cif
#   From: 2010.05.17/outbox.cif.g08.bks.cpg/sg67_13_cif.got.tgz:24853.got - 2010.06.03 18:28:57.
