data_PCOD9500888
_publ_section_title
;
Structure prediction by ZEFSAII (Michael W. Deem and Ramdas Pophale) SiO2 
 PCOD9500888
Probable space group: C M M A
;
_chemical_formula_sum "Si O2"
_cell_formula_units_Z 88
_cell_length_a 15.052102
_cell_length_b 29.474570
_cell_length_c 10.981097
_cell_angle_alpha 90.000000
_cell_angle_beta 90.000000
_cell_angle_gamma 90.000000
_cell_volume 4871.810179
_symmetry_space_group_name_H-M "C M M A"
_symmetry_group_IT_number 67
_symmetry_cell_setting 'orthorhombic'
loop_
_space_group_symop_operation_xyz
x,y,z
-x,1/2-y,z
x,-y,-z
-x,1/2+y,-z
-x,-y,-z
x,1/2+y,-z
-x,y,z
x,1/2-y,z
1/2+x,1/2+y,z
1/2-x,-y,z
1/2+x,1/2-y,-z
1/2-x,y,-z
1/2-x,1/2-y,-z
1/2+x,y,-z
1/2-x,1/2+y,z
1/2+x,-y,z
loop_
_atom_site_type_symbol
_atom_site_label
_atom_site_fract_x
_atom_site_fract_y
_atom_site_fract_z
Si Si1 0.256981 0.592907 0.643359
Si Si2 0.856684 0.698453 0.993505
Si Si3 0.401324 0.639789 0.232586
Si Si4 0.895566 0.553856 0.948003
Si Si5 0.102485 0.884034 0.168498
Si Si6 0.750000 0.500000 0.200849
O O1 0.250000 0.585630 0.500000
O O2 0.176246 0.627123 0.675447
O O3 0.342298 0.615775 0.707775
O O4 0.257107 0.543815 0.710685
O O5 0.885598 0.750000 0.014873
O O6 0.891054 0.662868 0.093694
O O7 0.750000 0.696412 0.000000
O O8 0.884254 0.681287 0.859364
O O9 0.500000 0.643371 0.286056
O O10 0.397516 0.596136 0.144197
O O11 0.833645 0.515989 0.884332
O O12 0.000000 0.541964 0.960846
O O13 0.861958 0.577579 0.073127
O O14 0.000000 0.894636 0.191398
#
# Coordination Sequence:
#
# PCOD9500888 Si02
#       6
#    16  16  16  16  16   8
#     4  11  23  38  54  76 108 150 198 234 261 312
#     4  10  18  32  60  93 117 137 168 222 284 337
#     4   9  18  34  55  78 109 144 176 217 275 329
#     4   8  17  33  54  82 110 135 170 223 283 337
#     4  10  21  37  57  83 115 148 179 219 279 338
#     4  10  21  35  58  80 107 145 182 232 286 327
#
# _framework density 18.063101
#
# number of rings (size 3 to 8) (size 9 to 14) (size 15 to 20)
#    0.000    2.364    1.818    1.909    0.000    4.364 
#    0.000    1.818    0.000    8.727    0.000    2.545 
#    0.000    0.000    0.000    0.000    0.000    0.000 
#
# Total GULP energy -245120.376509 kJ/mol
# GULP energy per Si atom -5570.917648 kJ/mol
# Density = 1.802199 g / cm^3
# Si number density = 18.063101 Si / 1000 Ang^3
#
#
#
# Elastic Constant Matrix: (Units=GPa)
#
#
# Indices 1 2 3 4 5 6 
#
# 1 105.0571 26.2302 49.6405 0.0000 0.0000 0.0000
# 2 26.2302 115.0391 37.1862 0.0000 0.0000 0.0000
# 3 49.6405 37.1862 127.1527 0.0000 0.0000 0.0000
# 4 0.0000 0.0000 0.0000 17.4252 0.0000 0.0000
# 5 0.0000 0.0000 0.0000 0.0000 -1.0750 0.0000
# 6 0.0000 0.0000 0.0000 0.0000 0.0000 16.3295
#
#
#
# Elastic Compliance Matrix: (Units=1/GPa)
#
#
# Indices 1 2 3 4 5 6 
#
# 1 0.011854 -0.001333 -0.004238 0.000000 0.000000 0.000000
# 2 -0.001333 0.009750 -0.002331 0.000000 0.000000 0.000000
# 3 -0.004238 -0.002331 0.010201 0.000000 0.000000 0.000000
# 4 0.000000 0.000000 0.000000 0.057388 0.000000 0.000000
# 5 0.000000 0.000000 0.000000 0.000000 -0.930255 0.000000
# 6 0.000000 0.000000 0.000000 0.000000 0.000000 0.061239
#
#
# Mechanical properties :
#
#
# Convention : Reuss Voigt Hill
#
# Bulk Modulus (GPa) = 62.49639 63.70696 63.10168
# Shear Modulus (GPa) = -6.59035 22.14876 7.77920
#
# Velocity S-wave (km/s) = -1.91218 3.50550 2.07751
# Velocity P-wave (km/s) = 5.45883 7.19238 6.38471
#
# Compressibility (1/GPa) = 0.01600092
#
# Stress axis : x y z
#
# Youngs Moduli (GPa) = 84.36040 102.56269 98.03163
#
# Poissons Ratio (x) = 0.13671 0.41545
# Poissons Ratio (y) = 0.11245 0.22852
# Poissons Ratio (z) = 0.35752 0.23908
#
# Static dielectric constant tensor:
#      x y z
#    x 1.670680 0.000000 0.000000 
#    y 0.000000 1.656360 0.000000 
#    z 0.000000 0.000000 1.593570 
# 
# From -- ./inp_files/18435.got.cif
#   From: 2010.05.17/outbox.cif.g08.bks.cpg/sg67_10_cif.got.tgz:18435.got - 2010.06.03 18:28:57.
