data_PCOD9500999
_publ_section_title
;
Structure prediction by ZEFSAII (Michael W. Deem and Ramdas Pophale) SiO2 
 PCOD9500999
Probable space group: C M M A
;
_chemical_formula_sum "Si O2"
_cell_formula_units_Z 116
_cell_length_a 18.147535
_cell_length_b 14.564973
_cell_length_c 22.310640
_cell_angle_alpha 90.000000
_cell_angle_beta 90.000000
_cell_angle_gamma 90.000000
_cell_volume 5897.111715
_symmetry_space_group_name_H-M "C M M A"
_symmetry_group_IT_number 67
_symmetry_cell_setting 'orthorhombic'
loop_
_space_group_symop_operation_xyz
x,y,z
-x,1/2-y,z
x,-y,-z
-x,1/2+y,-z
-x,-y,-z
x,1/2+y,-z
-x,y,z
x,1/2-y,z
1/2+x,1/2+y,z
1/2-x,-y,z
1/2+x,1/2-y,-z
1/2-x,y,-z
1/2-x,1/2-y,-z
1/2+x,y,-z
1/2-x,1/2+y,z
1/2+x,-y,z
loop_
_atom_site_type_symbol
_atom_site_label
_atom_site_fract_x
_atom_site_fract_y
_atom_site_fract_z
Si Si1 0.738004 0.361214 0.224159
Si Si2 0.874795 0.899920 0.010191
Si Si3 0.261185 0.858747 0.090767
Si Si4 0.000000 0.750000 0.034278
Si Si5 0.917965 0.641073 0.276546
Si Si6 0.188770 0.142442 0.345970
Si Si7 0.308792 0.855295 0.552032
Si Si8 0.083905 0.513050 0.394579
O O1 0.741589 0.250000 0.226033
O O2 0.766000 0.390430 0.159260
O O3 0.652225 0.384199 0.236023
O O4 0.788059 0.391646 0.279991
O O5 0.807099 0.906103 0.057290
O O6 0.834468 0.869818 0.948482
O O7 0.935220 0.829122 0.031431
O O8 0.906717 0.000000 0.000000
O O9 0.243357 0.750000 0.090857
O O10 0.910637 0.750000 0.291577
O O11 0.916192 0.580351 0.336382
O O12 0.000000 0.629426 0.248953
O O13 0.166501 0.250000 0.344121
O O14 0.262236 0.137891 0.386503
O O15 0.128537 0.077565 0.376048
O O16 0.335012 0.750000 0.545194
O O17 0.250000 0.873605 0.500000
O O18 0.373198 0.928582 0.555534
O O19 0.000000 0.492622 0.410604
#
# Coordination Sequence:
#
# PCOD9500999 Si02
#       8
#    16  16  16   4  16  16  16  16
#     4   9  18  33  60  89 115 162 204 250 301 357
#     4  11  22  40  61  90 118 158 204 254 312 371
#     4  10  18  38  63  88 120 158 208 255 301 365
#     4  12  22  42  68  78 128 162 194 260 318 384
#     4   9  17  32  52  84 123 151 183 239 304 363
#     4  10  21  39  58  84 119 161 212 250 292 356
#     4  10  21  39  63  90 119 153 197 251 304 362
#     4  11  22  36  60  88 122 158 197 248 306 363
#
# _framework density 19.670646999999999
#
# number of rings (size 3 to 8) (size 9 to 14) (size 15 to 20)
#    0.000    1.931    2.759    2.276    0.000    2.207 
#    6.207    1.379    1.517    2.483    0.000    0.000 
#    0.000    0.000    0.000    0.000    0.000    0.000 
#
# Total GULP energy -323428.758626 kJ/mol
# GULP energy per Si atom -5576.357907 kJ/mol
# Density = 1.962588 g / cm^3
# Si number density = 19.670647 Si / 1000 Ang^3
#
#
#
# Elastic Constant Matrix: (Units=GPa)
#
#
# Indices 1 2 3 4 5 6 
#
# 1 116.3019 38.6584 17.8878 0.0000 0.0000 0.0000
# 2 38.6584 86.8752 5.8752 0.0000 0.0000 0.0000
# 3 17.8878 5.8752 70.1143 0.0000 0.0000 0.0000
# 4 0.0000 0.0000 0.0000 1.5655 0.0000 0.0000
# 5 0.0000 0.0000 0.0000 0.0000 -12.6468 0.0000
# 6 0.0000 0.0000 0.0000 0.0000 0.0000 9.1836
#
#
#
# Elastic Compliance Matrix: (Units=1/GPa)
#
#
# Indices 1 2 3 4 5 6 
#
# 1 0.010443 -0.004493 -0.002288 0.000000 0.000000 0.000000
# 2 -0.004493 0.013509 0.000014 0.000000 0.000000 0.000000
# 3 -0.002288 0.000014 0.014845 0.000000 0.000000 0.000000
# 4 0.000000 0.000000 0.000000 0.638782 0.000000 0.000000
# 5 0.000000 0.000000 0.000000 0.000000 -0.079071 0.000000
# 6 0.000000 0.000000 0.000000 0.000000 0.000000 0.108890
#
#
# Mechanical properties :
#
#
# Convention : Reuss Voigt Hill
#
# Bulk Modulus (GPa) = 39.58071 44.23713 41.90892
# Shear Modulus (GPa) = 6.85539 13.67844 10.26692
#
# Velocity S-wave (km/s) = 1.86886 2.63985 2.28708
# Velocity P-wave (km/s) = 4.98219 5.64176 5.32221
#
# Compressibility (1/GPa) = 0.02526483
#
# Stress axis : x y z
#
# Youngs Moduli (GPa) = 95.75334 74.02518 67.36297
#
# Poissons Ratio (x) = 0.33256 0.15412
# Poissons Ratio (y) = 0.43017 -0.00095
# Poissons Ratio (z) = 0.21908 -0.00105
#
# Static dielectric constant tensor:
#      x y z
#    x 1.670400 0.000000 0.000000 
#    y 0.000000 1.713390 0.000000 
#    z 0.000000 0.000000 1.716310 
# 
# From -- ./inp_files/42210.got.cif
#   From: 2010.05.17/outbox.cif.g08.bks.cpg/sg67_22_cif.got.tgz:42210.got - 2010.06.03 18:28:57.
