data_PCOD9500038
_publ_section_title
;
Structure prediction by ZEFSAII (Michael W. Deem and Ramdas Pophale) SiO2 
 PCOD9500038
Probable space group: C C C M
;
_chemical_formula_sum "Si O2"
_cell_formula_units_Z 80
_cell_length_a 16.187886
_cell_length_b 18.239738
_cell_length_c 11.338975
_cell_angle_alpha 90.000000
_cell_angle_beta 90.000000
_cell_angle_gamma 90.000000
_cell_volume 3347.977501
_symmetry_space_group_name_H-M "C C C M"
_symmetry_group_IT_number 66
_symmetry_cell_setting 'orthorhombic'
loop_
_space_group_symop_operation_xyz
x,y,z
-x,-y,z
x,-y,1/2-z
-x,y,1/2-z
-x,-y,-z
x,y,-z
-x,y,1/2+z
x,-y,1/2+z
1/2+x,1/2+y,z
1/2-x,1/2-y,z
1/2+x,1/2-y,1/2-z
1/2-x,1/2+y,1/2-z
1/2-x,1/2-y,-z
1/2+x,1/2+y,-z
1/2-x,1/2+y,1/2+z
1/2+x,1/2-y,1/2+z
loop_
_atom_site_type_symbol
_atom_site_label
_atom_site_fract_x
_atom_site_fract_y
_atom_site_fract_z
Si Si1 0.131877 0.996645 0.125446
Si Si2 0.704379 0.333211 0.872795
Si Si3 0.963369 0.386318 0.371790
Si Si4 0.268965 0.875978 0.370466
Si Si5 0.525962 0.281691 0.872585
O O1 0.166058 0.914373 0.121380
O O2 0.086917 0.000000 0.250000
O O3 0.208985 0.053355 0.133043
O O4 0.090544 0.012655 0.000000
O O5 0.751139 0.331231 0.748771
O O6 0.625136 0.279928 0.869119
O O7 0.748747 0.325175 0.000000
O O8 0.994343 0.413619 0.500000
O O9 0.865132 0.396341 0.367954
O O10 0.000000 0.416051 0.250000
O O11 0.985405 0.299013 0.371738
O O12 0.253441 0.840549 0.500000
O O13 0.500000 0.319459 0.750000
O O14 0.502911 0.315883 0.000000
#
# Coordination Sequence:
#
# PCOD9500038 Si02
#       5
#    16  16  16  16  16
#     4   8  14  26  46  72  98 122 156 204 252 296
#     4   9  17  30  51  77 102 131 169 213 258 303
#     4   9  18  33  51  72 102 138 173 208 251 306
#     4   9  17  30  51  77 102 131 169 213 258 303
#     4   9  18  33  51  72 102 138 173 208 251 306
#
# _framework density 23.895022000000001
#
# number of rings (size 3 to 8) (size 9 to 14) (size 15 to 20)
#    0.000    3.200    0.000    0.000    0.000    1.600 
#    0.000    4.000    0.000   32.400    0.000   64.400 
#    0.000    0.000    0.000    0.000    0.000    0.000 
#
# Total GULP energy -222850.051959 kJ/mol
# GULP energy per Si atom -5571.251299 kJ/mol
# Density = 2.384064 g / cm^3
# Si number density = 23.895022 Si / 1000 Ang^3
#
#
#
# Elastic Constant Matrix: (Units=GPa)
#
#
# Indices 1 2 3 4 5 6 
#
# 1 85.5000 33.8109 68.5610 0.0000 0.0000 0.0000
# 2 33.8109 79.9874 -1.9516 0.0000 0.0000 0.0000
# 3 68.5610 -1.9516 339.9150 0.0000 0.0000 0.0000
# 4 0.0000 0.0000 0.0000 -37.5455 0.0000 0.0000
# 5 0.0000 0.0000 0.0000 0.0000 14.7539 0.0000
# 6 0.0000 0.0000 0.0000 0.0000 0.0000 -35.9154
#
#
#
# Elastic Compliance Matrix: (Units=1/GPa)
#
#
# Indices 1 2 3 4 5 6 
#
# 1 0.017531 -0.007498 -0.003579 0.000000 0.000000 0.000000
# 2 -0.007498 0.015710 0.001602 0.000000 0.000000 0.000000
# 3 -0.003579 0.001602 0.003673 0.000000 0.000000 0.000000
# 4 0.000000 0.000000 0.000000 -0.026634 0.000000 0.000000
# 5 0.000000 0.000000 0.000000 0.000000 0.067779 0.000000
# 6 0.000000 0.000000 0.000000 0.000000 0.000000 -0.027843
#
#
# Mechanical properties :
#
#
# Convention : Reuss Voigt Hill
#
# Bulk Modulus (GPa) = 55.66136 78.47143 67.06640
# Shear Modulus (GPa) = 66.53141 15.25740 40.89440
#
# Velocity S-wave (km/s) = 5.28239 2.52963 4.14142
# Velocity P-wave (km/s) = 7.78136 6.43766 7.14118
#
# Compressibility (1/GPa) = 0.01796578
#
# Stress axis : x y z
#
# Youngs Moduli (GPa) = 57.04241 63.65228 272.25675
#
# Poissons Ratio (x) = 0.47724 0.97441
# Poissons Ratio (y) = 0.42768 -0.43629
# Poissons Ratio (z) = 0.20416 -0.10200
#
# Static dielectric constant tensor:
#      x y z
#    x 1.848350 0.000000 0.000000 
#    y 0.000000 1.871550 0.000000 
#    z 0.000000 0.000000 2.023750 
# 
# From -- ./inp_files/16356.got.cif
#   From: 2010.05.17/outbox.cif.g08.bks.cpg/sg66_9_cif.got.tgz:16356.got - 2010.06.03 17:51:23.
