data_PCOD9500481
_publ_section_title
;
Structure prediction by ZEFSAII (Michael W. Deem and Ramdas Pophale) SiO2 
 PCOD9500481
Probable space group: C M M A
;
_chemical_formula_sum "Si O2"
_cell_formula_units_Z 104
_cell_length_a 31.557968
_cell_length_b 8.549710
_cell_length_c 23.701387
_cell_angle_alpha 90.000000
_cell_angle_beta 90.000000
_cell_angle_gamma 90.000000
_cell_volume 6394.906176
_symmetry_space_group_name_H-M "C M M A"
_symmetry_group_IT_number 67
_symmetry_cell_setting 'orthorhombic'
loop_
_space_group_symop_operation_xyz
x,y,z
-x,1/2-y,z
x,-y,-z
-x,1/2+y,-z
-x,-y,-z
x,1/2+y,-z
-x,y,z
x,1/2-y,z
1/2+x,1/2+y,z
1/2-x,-y,z
1/2+x,1/2-y,-z
1/2-x,y,-z
1/2-x,1/2-y,-z
1/2+x,y,-z
1/2-x,1/2+y,z
1/2+x,-y,z
loop_
_atom_site_type_symbol
_atom_site_label
_atom_site_fract_x
_atom_site_fract_y
_atom_site_fract_z
Si Si1 0.880192 0.061088 0.769031
Si Si2 0.051313 0.427881 0.441157
Si Si3 0.000000 0.939874 0.062787
Si Si4 0.295166 0.063702 0.817293
Si Si5 0.177517 0.061968 0.939821
Si Si6 0.951204 0.562592 0.319664
Si Si7 0.910780 0.560890 0.106322
O O1 0.876268 0.250000 0.764678
O O2 0.913585 0.006437 0.721556
O O3 0.900713 0.022244 0.829435
O O4 0.833164 0.991693 0.776186
O O5 0.066920 0.500000 0.500000
O O6 0.066024 0.250000 0.435377
O O7 0.060330 0.521403 0.384059
O O8 0.000000 0.425480 0.444919
O O9 0.043233 0.997976 0.090386
O O10 0.000000 0.750000 0.064832
O O11 0.000000 0.000000 0.000000
O O12 0.295109 0.250000 0.820640
O O13 0.250000 0.000000 0.797383
O O14 0.302078 0.997500 0.881239
O O15 0.180013 0.250000 0.939901
O O16 0.128288 0.009226 0.932584
O O17 0.193961 0.000000 0.000000
O O18 0.953003 0.750000 0.313348
O O19 0.000000 0.504858 0.308592
O O20 0.911315 0.750000 0.102365
#
# Coordination Sequence:
#
# PCOD9500481 Si02
#       7
#    16  16   8  16  16  16  16
#     4   9  18  33  50  71  97 125 159 198 237 283
#     4   9  16  26  41  62  93 132 172 211 246 281
#     4  10  18  28  42  60  82 112 151 190 227 268
#     4  11  22  37  55  73  93 120 152 193 243 295
#     4  10  19  33  50  71  94 118 147 186 234 290
#     4   9  17  28  46  72 101 135 171 204 238 280
#     4   8  16  28  44  63  86 117 151 189 229 271
#
# _framework density 16.262944000000001
#
# number of rings (size 3 to 8) (size 9 to 14) (size 15 to 20)
#    0.000    2.615    0.000    3.692    1.077    2.769 
#    0.000    4.615    0.000    0.000    0.000    0.000 
#    0.000    0.615    0.000    6.462    0.000    3.077 
#
# Total GULP energy -289624.946568 kJ/mol
# GULP energy per Si atom -5569.710511 kJ/mol
# Density = 1.622593 g / cm^3
# Si number density = 16.262944 Si / 1000 Ang^3
#
#
#
# Elastic Constant Matrix: (Units=GPa)
#
#
# Indices 1 2 3 4 5 6 
#
# 1 116.0961 24.1749 48.3168 0.0000 0.0000 0.0000
# 2 24.1749 44.1260 18.1715 0.0000 0.0000 0.0000
# 3 48.3168 18.1715 84.2692 0.0000 0.0000 0.0000
# 4 0.0000 0.0000 0.0000 22.3699 0.0000 0.0000
# 5 0.0000 0.0000 0.0000 0.0000 7.3780 0.0000
# 6 0.0000 0.0000 0.0000 0.0000 0.0000 15.4337
#
#
#
# Elastic Compliance Matrix: (Units=1/GPa)
#
#
# Indices 1 2 3 4 5 6 
#
# 1 0.011949 -0.004088 -0.005970 0.000000 0.000000 0.000000
# 2 -0.004088 0.026270 -0.003321 0.000000 0.000000 0.000000
# 3 -0.005970 -0.003321 0.016006 0.000000 0.000000 0.000000
# 4 0.000000 0.000000 0.000000 0.044703 0.000000 0.000000
# 5 0.000000 0.000000 0.000000 0.000000 0.135539 0.000000
# 6 0.000000 0.000000 0.000000 0.000000 0.000000 0.064793
#
#
# Mechanical properties :
#
#
# Convention : Reuss Voigt Hill
#
# Bulk Modulus (GPa) = 36.40684 47.31307 41.85995
# Shear Modulus (GPa) = 14.91769 19.29152 17.10461
#
# Velocity S-wave (km/s) = 3.03195 3.44790 3.24659
# Velocity P-wave (km/s) = 5.88999 6.70868 6.31262
#
# Compressibility (1/GPa) = 0.02746737
#
# Stress axis : x y z
#
# Youngs Moduli (GPa) = 83.68675 38.06686 62.47812
#
# Poissons Ratio (x) = 0.15562 0.37298
# Poissons Ratio (y) = 0.34213 0.20747
# Poissons Ratio (z) = 0.49959 0.12641
#
# Static dielectric constant tensor:
#      x y z
#    x 1.566860 0.000000 0.000000 
#    y 0.000000 1.564220 0.000000 
#    z 0.000000 0.000000 1.522070 
# 
# From -- ./inp_files/42942.got.cif
#   From: 2010.05.17/outbox.cif.g08.bks.cpg/sg67_22_cif.got.tgz:42942.got - 2010.06.03 18:28:57.
