data_PCOD9500224
_publ_section_title
;
Structure prediction by ZEFSAII (Michael W. Deem and Ramdas Pophale) SiO2 
 PCOD9500224
Probable space group: C M M A
;
_chemical_formula_sum "Si O2"
_cell_formula_units_Z 64
_cell_length_a 24.351234
_cell_length_b 16.030663
_cell_length_c 8.502475
_cell_angle_alpha 90.000000
_cell_angle_beta 90.000000
_cell_angle_gamma 90.000000
_cell_volume 3319.080777
_symmetry_space_group_name_H-M "C M M A"
_symmetry_group_IT_number 67
_symmetry_cell_setting 'orthorhombic'
loop_
_space_group_symop_operation_xyz
x,y,z
-x,1/2-y,z
x,-y,-z
-x,1/2+y,-z
-x,-y,-z
x,1/2+y,-z
-x,y,z
x,1/2-y,z
1/2+x,1/2+y,z
1/2-x,-y,z
1/2+x,1/2-y,-z
1/2-x,y,-z
1/2-x,1/2-y,-z
1/2+x,y,-z
1/2-x,1/2+y,z
1/2+x,-y,z
loop_
_atom_site_type_symbol
_atom_site_label
_atom_site_fract_x
_atom_site_fract_y
_atom_site_fract_z
Si Si1 0.815410 0.250000 0.189607
Si Si2 0.000000 0.155267 0.717671
Si Si3 0.810330 0.750000 0.186344
Si Si4 0.500000 0.085657 0.608683
Si Si5 0.379509 0.093283 0.301546
Si Si6 0.119855 0.908776 0.682632
O O1 0.752308 0.250000 0.245765
O O2 0.847285 0.331985 0.247697
O O3 0.812476 0.250000 0.001750
O O4 0.057799 0.110647 0.755835
O O5 0.000000 0.250000 0.776994
O O6 0.000000 0.155401 0.526601
O O7 0.841621 0.667525 0.243132
O O8 0.445561 0.092704 0.710733
O O9 0.500000 0.000000 0.500000
O O10 0.378071 0.095155 0.492097
O O11 0.360924 0.999759 0.259278
#
# Coordination Sequence:
#
# PCOD9500224 Si02
#       6
#     8   8   8   8  16  16
#     4  11  27  42  55  78 120 161 214 245 290 349
#     4  10  16  28  56  96 117 149 177 224 291 377
#     4  11  25  44  57  76 112 173 208 245 294 353
#     4  10  16  32  58  95 128 144 176 229 314 370
#     4  10  19  36  65  90 118 148 191 243 306 355
#     4  10  20  37  61  95 119 147 189 250 295 363
#
# _framework density 19.282447000000001
#
# number of rings (size 3 to 8) (size 9 to 14) (size 15 to 20)
#    0.000    1.750    6.250    0.750    5.250    4.000 
#    0.000    7.500    0.000    3.000    0.000    0.000 
#    0.000    0.000    0.000    0.000    0.000    0.000 
#
# Total GULP energy -178466.036946 kJ/mol
# GULP energy per Si atom -5577.063655 kJ/mol
# Density = 1.923856 g / cm^3
# Si number density = 19.282447 Si / 1000 Ang^3
#
#
#
# Elastic Constant Matrix: (Units=GPa)
#
#
# Indices 1 2 3 4 5 6 
#
# 1 163.9828 110.6476 28.2999 0.0000 0.0000 0.0000
# 2 110.6476 206.8928 30.2214 0.0000 0.0000 0.0000
# 3 28.2999 30.2214 16.7320 0.0000 0.0000 0.0000
# 4 0.0000 0.0000 0.0000 -4.6505 0.0000 0.0000
# 5 0.0000 0.0000 0.0000 0.0000 42.7257 0.0000
# 6 0.0000 0.0000 0.0000 0.0000 0.0000 3.7717
#
#
#
# Elastic Compliance Matrix: (Units=1/GPa)
#
#
# Indices 1 2 3 4 5 6 
#
# 1 0.010770 -0.004210 -0.010613 0.000000 0.000000 0.000000
# 2 -0.004210 0.008211 -0.007711 0.000000 0.000000 0.000000
# 3 -0.010613 -0.007711 0.091643 0.000000 0.000000 0.000000
# 4 0.000000 0.000000 0.000000 -0.215032 0.000000 0.000000
# 5 0.000000 0.000000 0.000000 0.000000 0.023405 0.000000
# 6 0.000000 0.000000 0.000000 0.000000 0.000000 0.265136
#
#
# Mechanical properties :
#
#
# Convention : Reuss Voigt Hill
#
# Bulk Modulus (GPa) = 15.25373 80.66061 47.95717
# Shear Modulus (GPa) = 19.91616 22.93196 21.42406
#
# Velocity S-wave (km/s) = 3.21731 3.45231 3.33688
# Velocity P-wave (km/s) = 4.66147 7.60350 6.30645
#
# Compressibility (1/GPa) = 0.06555773
#
# Stress axis : x y z
#
# Youngs Moduli (GPa) = 92.84790 121.78528 10.91193
#
# Poissons Ratio (x) = 0.51269 0.11581
# Poissons Ratio (y) = 0.39087 0.08414
# Poissons Ratio (z) = 0.98537 0.93905
#
# Static dielectric constant tensor:
#      x y z
#    x 1.701020 0.000000 0.000000 
#    y 0.000000 1.695920 0.000000 
#    z 0.000000 0.000000 1.661030 
# 
# From -- ./inp_files/10758.got.cif
#   From: 2010.05.17/outbox.cif.g08.bks.cpg/sg67_6_cif.got.tgz:10758.got - 2010.06.03 18:28:57.
