data_PCOD9500032
_publ_section_title
;
Structure prediction by ZEFSAII (Michael W. Deem and Ramdas Pophale) SiO2 
 PCOD9500032
Probable space group: C C C M
;
_chemical_formula_sum "Si O2"
_cell_formula_units_Z 72
_cell_length_a 11.952816
_cell_length_b 12.736015
_cell_length_c 17.152000
_cell_angle_alpha 90.000000
_cell_angle_beta 90.000000
_cell_angle_gamma 90.000000
_cell_volume 2611.070295
_symmetry_space_group_name_H-M "C C C M"
_symmetry_group_IT_number 66
_symmetry_cell_setting 'orthorhombic'
loop_
_space_group_symop_operation_xyz
x,y,z
-x,-y,z
x,-y,1/2-z
-x,y,1/2-z
-x,-y,-z
x,y,-z
-x,y,1/2+z
x,-y,1/2+z
1/2+x,1/2+y,z
1/2-x,1/2-y,z
1/2+x,1/2-y,1/2-z
1/2-x,1/2+y,1/2-z
1/2-x,1/2-y,-z
1/2+x,1/2+y,-z
1/2-x,1/2+y,1/2+z
1/2+x,1/2-y,1/2+z
loop_
_atom_site_type_symbol
_atom_site_label
_atom_site_fract_x
_atom_site_fract_y
_atom_site_fract_z
Si Si1 0.166838 0.149859 0.000000
Si Si2 0.331652 0.648854 0.328340
Si Si3 0.798311 0.093810 0.166350
Si Si4 0.712960 0.410796 0.000000
Si Si5 0.029002 0.376738 0.500000
Si Si6 0.460931 0.877782 0.168049
O O1 0.250000 0.250000 0.000000
O O2 0.110478 0.147591 0.086108
O O3 0.229915 0.037197 0.000000
O O4 0.250000 0.750000 0.328723
O O5 0.371146 0.635950 0.238039
O O6 0.276800 0.531933 0.330554
O O7 0.672289 0.136310 0.169074
O O8 0.845383 0.117793 0.080723
O O9 0.837052 0.363954 0.000000
O O10 0.991289 0.339219 0.414843
O O11 0.000000 0.500000 0.500000
O O12 0.500000 0.832544 0.250000
O O13 0.500000 0.000000 0.169487
#
# Coordination Sequence:
#
# PCOD9500032 Si02
#       6
#     8  16  16   8   8  16
#     4   8  14  22  32  45  59  78 107 137 166 194
#     4   9  15  23  34  47  63  84 109 137 165 194
#     4   9  16  25  35  49  67  89 113 137 163 193
#     4   8  14  24  35  44  62  88 112 136 161 188
#     4   8  14  20  28  43  61  82 109 129 150 184
#     4   9  14  21  32  46  64  86 107 130 156 190
#
# _framework density 27.574898000000001
#
# number of rings (size 3 to 8) (size 9 to 14) (size 15 to 20)
#    0.000    3.333    0.000    2.667    0.000    1.778 
#    0.000    0.556    0.000    0.000    0.000    0.000 
#    0.000    0.000    0.000   64.000    0.000   26.667 
#
# Total GULP energy -200553.531515 kJ/mol
# GULP energy per Si atom -5570.931431 kJ/mol
# Density = 2.751214 g / cm^3
# Si number density = 27.574898 Si / 1000 Ang^3
#
#
#
# Elastic Constant Matrix: (Units=GPa)
#
#
# Indices 1 2 3 4 5 6 
#
# 1 70.6486 23.1550 34.5202 0.0000 0.0000 0.0000
# 2 23.1550 125.6143 40.4813 0.0000 0.0000 0.0000
# 3 34.5202 40.4813 406.5644 0.0000 0.0000 0.0000
# 4 0.0000 0.0000 0.0000 -90.1103 0.0000 0.0000
# 5 0.0000 0.0000 0.0000 0.0000 -33.7971 0.0000
# 6 0.0000 0.0000 0.0000 0.0000 0.0000 37.2687
#
#
#
# Elastic Compliance Matrix: (Units=1/GPa)
#
#
# Indices 1 2 3 4 5 6 
#
# 1 0.015499 -0.002514 -0.001066 0.000000 0.000000 0.000000
# 2 -0.002514 0.008632 -0.000646 0.000000 0.000000 0.000000
# 3 -0.001066 -0.000646 0.002614 0.000000 0.000000 0.000000
# 4 0.000000 0.000000 0.000000 -0.011098 0.000000 0.000000
# 5 0.000000 0.000000 0.000000 0.000000 -0.029588 0.000000
# 6 0.000000 0.000000 0.000000 0.000000 0.000000 0.026832
#
#
# Mechanical properties :
#
#
# Convention : Reuss Voigt Hill
#
# Bulk Modulus (GPa) = 54.65908 88.79338 71.72623
# Shear Modulus (GPa) = 182.20563 16.31697 99.26130
#
# Velocity S-wave (km/s) = 8.13757 2.43519 6.00626
# Velocity P-wave (km/s) = 10.39993 6.33858 8.61209
#
# Compressibility (1/GPa) = 0.01829522
#
# Stress axis : x y z
#
# Youngs Moduli (GPa) = 64.51984 115.84215 382.48913
#
# Poissons Ratio (x) = 0.29118 0.40762
# Poissons Ratio (y) = 0.16218 0.24713
# Poissons Ratio (z) = 0.06876 0.07485
#
# Static dielectric constant tensor:
#      x y z
#    x 2.109290 0.000000 0.000000 
#    y 0.000000 2.099290 0.000000 
#    z 0.000000 0.000000 2.245520 
# 
# From -- ./inp_files/38379.got.cif
#   From: 2010.05.17/outbox.cif.g08.bks.cpg/sg66_20_cif.got.tgz:38379.got - 2010.06.03 17:51:23.
