data_PCOD9500524
_publ_section_title
;
Structure prediction by ZEFSAII (Michael W. Deem and Ramdas Pophale) SiO2 
 PCOD9500524
Probable space group: C M M A
;
_chemical_formula_sum "Si O2"
_cell_formula_units_Z 116
_cell_length_a 25.781438
_cell_length_b 8.981801
_cell_length_c 27.179406
_cell_angle_alpha 90.000000
_cell_angle_beta 90.000000
_cell_angle_gamma 90.000000
_cell_volume 6293.765057
_symmetry_space_group_name_H-M "C M M A"
_symmetry_group_IT_number 67
_symmetry_cell_setting 'orthorhombic'
loop_
_space_group_symop_operation_xyz
x,y,z
-x,1/2-y,z
x,-y,-z
-x,1/2+y,-z
-x,-y,-z
x,1/2+y,-z
-x,y,z
x,1/2-y,z
1/2+x,1/2+y,z
1/2-x,-y,z
1/2+x,1/2-y,-z
1/2-x,y,-z
1/2-x,1/2-y,-z
1/2+x,y,-z
1/2-x,1/2+y,z
1/2+x,-y,z
loop_
_atom_site_type_symbol
_atom_site_label
_atom_site_fract_x
_atom_site_fract_y
_atom_site_fract_z
Si Si1 0.939695 0.573155 0.449589
Si Si2 0.336724 0.572119 0.812497
Si Si3 0.198233 0.427377 0.085219
Si Si4 0.099791 0.414340 0.355244
Si Si5 0.000000 0.750000 0.678616
Si Si6 0.058223 0.428381 0.160264
Si Si7 0.583754 0.574388 0.049505
Si Si8 0.697777 0.571373 0.288429
O O1 0.919922 0.500000 0.500000
O O2 0.938792 0.750000 0.454476
O O3 0.910853 0.520926 0.400756
O O4 0.000000 0.523101 0.444028
O O5 0.332290 0.750000 0.813336
O O6 0.311898 0.501946 0.861662
O O7 0.396781 0.519364 0.813470
O O8 0.310599 0.502067 0.764788
O O9 0.204402 0.250000 0.090637
O O10 0.250000 0.500000 0.063774
O O11 0.145442 0.454384 0.055208
O O12 0.113855 0.250000 0.376182
O O13 0.046578 0.378060 0.325746
O O14 0.146613 0.461746 0.320390
O O15 0.069791 0.250000 0.163383
O O16 0.060339 0.470260 0.102272
O O17 0.000000 0.450987 0.179186
O O18 0.575458 0.750000 0.045261
O O19 0.563989 0.500000 0.000000
O O20 0.702425 0.750000 0.283868
O O21 0.750000 0.500000 0.310032
#
# Coordination Sequence:
#
# PCOD9500524 Si02
#       8
#    16  16  16  16   4  16  16  16
#     4  10  18  28  49  80 115 151 189 235 290 343
#     4  11  22  37  56  80 107 136 175 225 275 324
#     4  10  20  35  54  75 101 131 168 210 260 315
#     4   9  18  35  57  79 112 148 189 237 282 336
#     4   8  16  36  60  80 114 146 198 234 288 342
#     4   9  19  38  58  77 104 138 176 217 266 327
#     4   9  19  33  50  73 102 134 169 207 251 310
#     4  11  23  39  59  83 112 152 193 233 283 341
#
# _framework density 18.43094
#
# number of rings (size 3 to 8) (size 9 to 14) (size 15 to 20)
#    0.414    1.793    0.690    3.724    0.000    5.241 
#    1.241    1.379    0.000    0.414    0.000    2.897 
#    0.000    0.000    0.000    0.000    0.000    0.000 
#
# Total GULP energy -323015.986974 kJ/mol
# GULP energy per Si atom -5569.241155 kJ/mol
# Density = 1.838899 g / cm^3
# Si number density = 18.430940 Si / 1000 Ang^3
#
#
#
# Elastic Constant Matrix: (Units=GPa)
#
#
# Indices 1 2 3 4 5 6 
#
# 1 113.3949 36.8203 28.9049 0.0000 0.0000 0.0000
# 2 36.8203 54.8475 32.6852 0.0000 0.0000 0.0000
# 3 28.9049 32.6852 51.0985 0.0000 0.0000 0.0000
# 4 0.0000 0.0000 0.0000 25.5128 0.0000 0.0000
# 5 0.0000 0.0000 0.0000 0.0000 201.9607 0.0000
# 6 0.0000 0.0000 0.0000 0.0000 0.0000 22.6247
#
#
#
# Elastic Compliance Matrix: (Units=1/GPa)
#
#
# Indices 1 2 3 4 5 6 
#
# 1 0.011475 -0.006198 -0.002527 0.000000 0.000000 0.000000
# 2 -0.006198 0.032811 -0.017482 0.000000 0.000000 0.000000
# 3 -0.002527 -0.017482 0.032181 0.000000 0.000000 0.000000
# 4 0.000000 0.000000 0.000000 0.039196 0.000000 0.000000
# 5 0.000000 0.000000 0.000000 0.000000 0.004951 0.000000
# 6 0.000000 0.000000 0.000000 0.000000 0.000000 0.044199
#
#
# Mechanical properties :
#
#
# Convention : Reuss Voigt Hill
#
# Bulk Modulus (GPa) = 41.57096 46.24021 43.90559
# Shear Modulus (GPa) = 22.19801 58.08168 40.13984
#
# Velocity S-wave (km/s) = 3.47419 5.61975 4.67181
# Velocity P-wave (km/s) = 6.22072 8.20071 7.27835
#
# Compressibility (1/GPa) = 0.02405526
#
# Stress axis : x y z
#
# Youngs Moduli (GPa) = 87.14349 30.47765 31.07376
#
# Poissons Ratio (x) = 0.18890 0.07852
# Poissons Ratio (y) = 0.54010 0.54322
# Poissons Ratio (z) = 0.22019 0.53280
#
# Static dielectric constant tensor:
#      x y z
#    x 1.679540 0.000000 0.000000 
#    y 0.000000 1.617900 0.000000 
#    z 0.000000 0.000000 1.633850 
# 
# From -- ./inp_files/45016.got.cif
#   From: 2010.05.17/outbox.cif.g08.bks.cpg/sg67_23_cif.got.tgz:45016.got - 2010.06.03 18:28:57.
