data_PCOD9500125
_publ_section_title
;
Structure prediction by ZEFSAII (Michael W. Deem and Ramdas Pophale) SiO2 
 PCOD9500125
Probable space group: C C C M
;
_chemical_formula_sum "Si O2"
_cell_formula_units_Z 52
_cell_length_a 9.000000
_cell_length_b 21.000000
_cell_length_c 27.000000
_cell_angle_alpha 90.000000
_cell_angle_beta 90.000000
_cell_angle_gamma 90.000000
_cell_volume 5103.000000
_symmetry_space_group_name_H-M "C C C M"
_symmetry_group_IT_number 66
_symmetry_cell_setting 'orthorhombic'
loop_
_space_group_symop_operation_xyz
x,y,z
-x,-y,z
x,-y,1/2-z
-x,y,1/2-z
-x,-y,-z
x,y,-z
-x,y,1/2+z
x,-y,1/2+z
1/2+x,1/2+y,z
1/2-x,1/2-y,z
1/2+x,1/2-y,1/2-z
1/2-x,1/2+y,1/2-z
1/2-x,1/2-y,-z
1/2+x,1/2+y,-z
1/2-x,1/2+y,1/2+z
1/2+x,1/2-y,1/2+z
loop_
_atom_site_type_symbol
_atom_site_label
_atom_site_fract_x
_atom_site_fract_y
_atom_site_fract_z
Si Si1 0.177148 0.015016 0.088588
Si Si2 0.250000 0.750000 0.372420
Si Si3 0.305138 0.140979 0.944635
Si Si4 0.152975 0.612617 0.057544
Si Si5 0.721958 0.346800 0.843862
Si Si6 0.823534 0.011266 0.195037
Si Si7 0.477543 0.242742 0.307396
O O1 0.211442 0.076829 0.057482
O O2 0.279616 0.957663 0.068101
O O3 0.223076 0.028218 0.146210
O O4 0.000000 0.000000 0.087506
O O5 0.226880 0.809201 0.408687
O O6 0.376313 0.775186 0.336161
O O7 0.476800 0.121808 0.931980
O O8 0.310397 0.167411 0.000000
O O9 0.239364 0.654042 0.098219
O O10 0.178029 0.628236 0.000000
O O11 0.707178 0.417169 0.822735
O O12 0.575014 0.308030 0.832437
O O13 0.852268 0.309748 0.815838
O O14 0.759483 0.000000 0.250000
O O15 0.000000 0.000000 0.198927
O O16 0.500000 0.253319 0.250000
#
# Coordination Sequence:
#
# PCOD9500125 Si02
#       7
#    16   8  16  16  16  16  16
#     4  10  22  38  64  99 129 165 216 262 316 391
#     4  12  25  42  66  94 128 168 217 270 318 370
#     4  11  24  42  64  91 131 173 214 264 324 384
#     4  10  21  42  65  91 129 172 208 264 330 380
#     4  10  22  44  64  97 132 161 225 259 308 395
#     4   9  20  36  62  97 127 165 200 262 320 368
#     4  11  25  43  67  93 126 178 213 265 314 378
#
# _framework density 10.190084000000001
#
# number of rings (size 3 to 8) (size 9 to 14) (size 15 to 20)
#    0.000    1.692    1.538    2.077    8.615    3.692 
#    0.000    2.308    0.000    0.000    0.000    0.000 
#    0.000    0.000    0.000    0.000    0.000    0.000 
#
# Total GULP energy -289896.903014 kJ/mol
# GULP energy per Si atom -5574.940443 kJ/mol
# Density = 1.016689 g / cm^3
# Si number density = 10.190084 Si / 1000 Ang^3
#
#
#
# Elastic Constant Matrix: (Units=GPa)
#
#
# Indices 1 2 3 4 5 6 
#
# 1 1.8686 5.8558 31.5350 0.0000 0.0000 0.0000
# 2 5.8558 50.9478 24.2687 0.0000 0.0000 0.0000
# 3 31.5350 24.2687 151.0879 0.0000 0.0000 0.0000
# 4 0.0000 0.0000 0.0000 23.3216 0.0000 0.0000
# 5 0.0000 0.0000 0.0000 0.0000 78.4069 0.0000
# 6 0.0000 0.0000 0.0000 0.0000 0.0000 25.1338
#
#
#
# Elastic Compliance Matrix: (Units=1/GPa)
#
#
# Indices 1 2 3 4 5 6 
#
# 1 -0.211565 0.003554 0.043587 0.000000 0.000000 0.000000
# 2 0.003554 0.021194 -0.004146 0.000000 0.000000 0.000000
# 3 0.043587 -0.004146 -0.001813 0.000000 0.000000 0.000000
# 4 0.000000 0.000000 0.000000 0.042879 0.000000 0.000000
# 5 0.000000 0.000000 0.000000 0.000000 0.012754 0.000000
# 6 0.000000 0.000000 0.000000 0.000000 0.000000 0.039787
#
#
# Mechanical properties :
#
#
# Convention : Reuss Voigt Hill
#
# Bulk Modulus (GPa) = -9.41677 36.35816 13.47069
# Shear Modulus (GPa) = -22.91979 34.85547 5.96784
#
# Velocity S-wave (km/s) = -3.35716 4.14002 1.71307
# Velocity P-wave (km/s) = 4.43373 6.38214 3.24606
#
# Compressibility (1/GPa) = -0.10619357
#
# Stress axis : x y z
#
# Youngs Moduli (GPa) = -4.72667 47.18220 -551.63197
#
# Poissons Ratio (x) = -0.16770 24.04396
# Poissons Ratio (y) = 0.01680 -2.28720
# Poissons Ratio (z) = 0.20602 0.19563
#
# Static dielectric constant tensor:
#      x y z
#    x 1.700340 0.000000 0.000000 
#    y 0.000000 1.715050 0.000000 
#    z 0.000000 0.000000 1.681780 
# 
# From -- ./inp_files/62701.got.cif
#   From: 2010.05.17/outbox.ucp.g08.bks.cvg/sg66_32_cif.got.tgz:62701.got - 2010.06.11 16:44:13.
