data_PCOD9500295
_publ_section_title
;
Structure prediction by ZEFSAII (Michael W. Deem and Ramdas Pophale) SiO2 
 PCOD9500295
Probable space group: C M M A
;
_chemical_formula_sum "Si O2"
_cell_formula_units_Z 72
_cell_length_a 8.264382
_cell_length_b 27.627805
_cell_length_c 14.871833
_cell_angle_alpha 90.000000
_cell_angle_beta 90.000000
_cell_angle_gamma 90.000000
_cell_volume 3395.637063
_symmetry_space_group_name_H-M "C M M A"
_symmetry_group_IT_number 67
_symmetry_cell_setting 'orthorhombic'
loop_
_space_group_symop_operation_xyz
x,y,z
-x,1/2-y,z
x,-y,-z
-x,1/2+y,-z
-x,-y,-z
x,1/2+y,-z
-x,y,z
x,1/2-y,z
1/2+x,1/2+y,z
1/2-x,-y,z
1/2+x,1/2-y,-z
1/2-x,y,-z
1/2-x,1/2-y,-z
1/2+x,y,-z
1/2-x,1/2+y,z
1/2+x,-y,z
loop_
_atom_site_type_symbol
_atom_site_label
_atom_site_fract_x
_atom_site_fract_y
_atom_site_fract_z
Si Si1 0.804717 0.750000 0.602060
Si Si2 0.691938 0.950449 0.683174
Si Si3 0.192830 0.346977 0.299180
Si Si4 0.686341 0.448363 0.882776
Si Si5 0.815892 0.346706 0.904107
O O1 0.750000 0.750000 0.500000
O O2 0.749218 0.798654 0.651582
O O3 0.000000 0.750000 0.606513
O O4 0.500000 0.954728 0.700282
O O5 0.725743 0.894754 0.656129
O O6 0.796337 0.950531 0.774917
O O7 0.750000 0.000000 0.633652
O O8 0.227626 0.339317 0.191894
O O9 0.000000 0.352527 0.308908
O O10 0.500000 0.439299 0.906507
O O11 0.750000 0.500000 0.912118
O O12 0.801520 0.404975 0.911923
O O13 0.000000 0.331307 0.893969
O O14 0.750000 0.327249 0.000000
#
# Coordination Sequence:
#
# PCOD9500295 Si02
#       5
#     8  16  16  16  16
#     4  10  24  44  71  98 123 150 187 238 298 356
#     4  10  17  28  49  80 115 157 198 240 289 346
#     4  10  20  38  60  88 121 157 197 245 294 347
#     4  10  17  27  42  65 100 146 196 247 290 336
#     4  11  21  34  51  76 109 152 197 242 289 343
#
# _framework density 21.203681
#
# number of rings (size 3 to 8) (size 9 to 14) (size 15 to 20)
#    0.000    1.778    0.000   10.667    0.000    2.222 
#    0.000    2.778    0.000    0.667    0.000    4.667 
#    0.000    0.000    0.000    0.000    0.000    0.000 
#
# Total GULP energy -200615.320980 kJ/mol
# GULP energy per Si atom -5572.647805 kJ/mol
# Density = 2.115542 g / cm^3
# Si number density = 21.203681 Si / 1000 Ang^3
#
#
#
# Elastic Constant Matrix: (Units=GPa)
#
#
# Indices 1 2 3 4 5 6 
#
# 1 107.2544 24.5831 1.7359 0.0000 0.0000 0.0000
# 2 24.5831 148.8725 57.3263 0.0000 0.0000 0.0000
# 3 1.7359 57.3263 60.2108 0.0000 0.0000 0.0000
# 4 0.0000 0.0000 0.0000 -41.9655 0.0000 0.0000
# 5 0.0000 0.0000 0.0000 0.0000 20.6641 0.0000
# 6 0.0000 0.0000 0.0000 0.0000 0.0000 21.6577
#
#
#
# Elastic Compliance Matrix: (Units=1/GPa)
#
#
# Indices 1 2 3 4 5 6 
#
# 1 0.009840 -0.002393 0.001995 0.000000 0.000000 0.000000
# 2 -0.002393 0.011187 -0.010582 0.000000 0.000000 0.000000
# 3 0.001995 -0.010582 0.026626 0.000000 0.000000 0.000000
# 4 0.000000 0.000000 0.000000 -0.023829 0.000000 0.000000
# 5 0.000000 0.000000 0.000000 0.000000 0.048393 0.000000
# 6 0.000000 0.000000 0.000000 0.000000 0.000000 0.046173
#
#
# Mechanical properties :
#
#
# Convention : Reuss Voigt Hill
#
# Bulk Modulus (GPa) = 38.92273 53.73650 46.32962
# Shear Modulus (GPa) = 33.57614 15.58409 24.58012
#
# Velocity S-wave (km/s) = 3.98365 2.71398 3.40845
# Velocity P-wave (km/s) = 6.28933 5.93455 6.11452
#
# Compressibility (1/GPa) = 0.02569193
#
# Stress axis : x y z
#
# Youngs Moduli (GPa) = 101.62813 89.38786 37.55709
#
# Poissons Ratio (x) = 0.21389 -0.07491
# Poissons Ratio (y) = 0.24318 0.39744
# Poissons Ratio (z) = -0.20270 0.94593
#
# Static dielectric constant tensor:
#      x y z
#    x 1.711040 0.000000 0.000000 
#    y 0.000000 1.840710 0.000000 
#    z 0.000000 0.000000 1.821220 
# 
# From -- ./inp_files/25296.got.cif
#   From: 2010.05.17/outbox.cif.g08.bks.cpg/sg67_13_cif.got.tgz:25296.got - 2010.06.03 18:28:57.
