data_PCOD9500235
_publ_section_title
;
Structure prediction by ZEFSAII (Michael W. Deem and Ramdas Pophale) SiO2 
 PCOD9500235
Probable space group: C M M A
;
_chemical_formula_sum "Si O2"
_cell_formula_units_Z 96
_cell_length_a 24.169678
_cell_length_b 8.428257
_cell_length_c 26.422343
_cell_angle_alpha 90.000000
_cell_angle_beta 90.000000
_cell_angle_gamma 90.000000
_cell_volume 5382.449459
_symmetry_space_group_name_H-M "C M M A"
_symmetry_group_IT_number 67
_symmetry_cell_setting 'orthorhombic'
loop_
_space_group_symop_operation_xyz
x,y,z
-x,1/2-y,z
x,-y,-z
-x,1/2+y,-z
-x,-y,-z
x,1/2+y,-z
-x,y,z
x,1/2-y,z
1/2+x,1/2+y,z
1/2-x,-y,z
1/2+x,1/2-y,-z
1/2-x,y,-z
1/2-x,1/2-y,-z
1/2+x,y,-z
1/2-x,1/2+y,z
1/2+x,-y,z
loop_
_atom_site_type_symbol
_atom_site_label
_atom_site_fract_x
_atom_site_fract_y
_atom_site_fract_z
Si Si1 0.000000 0.929645 0.307079
Si Si2 0.118074 0.067270 0.154526
Si Si3 0.000000 0.576423 0.792563
Si Si4 0.435775 0.557330 0.056329
Si Si5 0.563663 0.560923 0.556266
Si Si6 0.885592 0.937484 0.654038
Si Si7 0.312719 0.443008 0.748881
O O1 0.000000 0.750000 0.326970
O O2 0.945233 0.019370 0.323380
O O3 0.000000 0.935513 0.246806
O O4 0.137214 0.250000 0.147775
O O5 0.055566 0.072178 0.175630
O O6 0.107628 0.997134 0.098700
O O7 0.155272 0.999699 0.200210
O O8 0.000000 0.750000 0.765664
O O9 0.500000 0.508328 0.066608
O O10 0.435228 0.750000 0.058105
O O11 0.422346 0.500000 0.000000
O O12 0.575785 0.500000 0.500000
O O13 0.500000 0.505854 0.568803
O O14 0.562526 0.750000 0.555745
O O15 0.608464 0.506853 0.597654
O O16 0.878235 0.750000 0.649655
O O17 0.842298 0.996902 0.696520
O O18 0.315790 0.250000 0.748994
O O19 0.250000 0.500000 0.750000
#
# Coordination Sequence:
#
# PCOD9500235 Si02
#       7
#     8  16   8  16  16  16  16
#     4  12  22  30  45  78 113 138 167 211 267 313
#     4   9  16  30  53  75  98 136 176 209 252 316
#     4  10  16  30  51  72 100 134 174 207 252 323
#     4   9  16  27  46  72 104 136 167 204 250 308
#     4  10  20  33  51  80 116 148 178 211 256 308
#     4  11  21  35  56  77 105 144 180 213 258 319
#     4  10  22  38  56  77 100 134 179 223 269 316
#
# _framework density 17.835744999999999
#
# number of rings (size 3 to 8) (size 9 to 14) (size 15 to 20)
#    0.000    2.000    3.333    1.750    0.000    2.000 
#    0.000    1.667    0.000    1.000    0.000    7.000 
#    0.000    0.000    0.000    0.000    0.000    0.000 
#
# Total GULP energy -267328.363561 kJ/mol
# GULP energy per Si atom -5569.340908 kJ/mol
# Density = 1.779515 g / cm^3
# Si number density = 17.835745 Si / 1000 Ang^3
#
#
#
# Elastic Constant Matrix: (Units=GPa)
#
#
# Indices 1 2 3 4 5 6 
#
# 1 94.6195 5.8233 65.9671 0.0000 0.0000 0.0000
# 2 5.8233 19.3652 26.6262 0.0000 0.0000 0.0000
# 3 65.9671 26.6262 171.0655 0.0000 0.0000 0.0000
# 4 0.0000 0.0000 0.0000 26.1557 0.0000 0.0000
# 5 0.0000 0.0000 0.0000 0.0000 11.3719 0.0000
# 6 0.0000 0.0000 0.0000 0.0000 0.0000 13.0338
#
#
#
# Elastic Compliance Matrix: (Units=1/GPa)
#
#
# Indices 1 2 3 4 5 6 
#
# 1 0.014731 0.004301 -0.006350 0.000000 0.000000 0.000000
# 2 0.004301 0.066955 -0.012080 0.000000 0.000000 0.000000
# 3 -0.006350 -0.012080 0.010175 0.000000 0.000000 0.000000
# 4 0.000000 0.000000 0.000000 0.038233 0.000000 0.000000
# 5 0.000000 0.000000 0.000000 0.000000 0.087936 0.000000
# 6 0.000000 0.000000 0.000000 0.000000 0.000000 0.076723
#
#
# Mechanical properties :
#
#
# Convention : Reuss Voigt Hill
#
# Bulk Modulus (GPa) = 15.72248 53.54261 34.63255
# Shear Modulus (GPa) = 14.52590 22.55452 18.54021
#
# Velocity S-wave (km/s) = 2.85691 3.55994 3.22762
# Velocity P-wave (km/s) = 4.44037 6.85438 5.77492
#
# Compressibility (1/GPa) = 0.06360320
#
# Stress axis : x y z
#
# Youngs Moduli (GPa) = 67.88327 14.93532 98.28213
#
# Poissons Ratio (x) = -0.06424 0.62411
# Poissons Ratio (y) = -0.29199 1.18727
# Poissons Ratio (z) = 0.43107 0.18042
#
# Static dielectric constant tensor:
#      x y z
#    x 1.577700 0.000000 0.000000 
#    y 0.000000 1.641320 0.000000 
#    z 0.000000 0.000000 1.683550 
# 
# From -- ./inp_files/44813.got.cif
#   From: 2010.05.17/outbox.cif.g08.bks.cpg/sg67_23_cif.got.tgz:44813.got - 2010.06.03 18:28:57.
