data_PCOD9500660
_publ_section_title
;
Structure prediction by ZEFSAII (Michael W. Deem and Ramdas Pophale) SiO2 
 PCOD9500660
Probable space group: C M M A
;
_chemical_formula_sum "Si O2"
_cell_formula_units_Z 80
_cell_length_a 26.760699
_cell_length_b 8.622567
_cell_length_c 19.173277
_cell_angle_alpha 90.000000
_cell_angle_beta 90.000000
_cell_angle_gamma 90.000000
_cell_volume 4424.155443
_symmetry_space_group_name_H-M "C M M A"
_symmetry_group_IT_number 67
_symmetry_cell_setting 'orthorhombic'
loop_
_space_group_symop_operation_xyz
x,y,z
-x,1/2-y,z
x,-y,-z
-x,1/2+y,-z
-x,-y,-z
x,1/2+y,-z
-x,y,z
x,1/2-y,z
1/2+x,1/2+y,z
1/2-x,-y,z
1/2+x,1/2-y,-z
1/2-x,y,-z
1/2-x,1/2-y,-z
1/2+x,y,-z
1/2-x,1/2+y,z
1/2+x,-y,z
loop_
_atom_site_type_symbol
_atom_site_label
_atom_site_fract_x
_atom_site_fract_y
_atom_site_fract_z
Si Si1 0.500000 0.434678 0.420812
Si Si2 0.603569 0.435434 0.578320
Si Si3 0.697080 0.936262 0.324317
Si Si4 0.304110 0.564486 0.831845
Si Si5 0.604364 0.564418 0.078839
Si Si6 0.500000 0.564328 0.920639
O O1 0.500000 0.250000 0.422274
O O2 0.500000 0.500000 0.500000
O O3 0.552061 0.496507 0.390545
O O4 0.609831 0.500000 0.500000
O O5 0.598814 0.250000 0.574364
O O6 0.651279 0.474913 0.625132
O O7 0.699986 0.750000 0.316909
O O8 0.750000 0.000000 0.351611
O O9 0.689574 0.010676 0.248250
O O10 0.304246 0.750000 0.836068
O O11 0.250000 0.500000 0.854944
O O12 0.348694 0.493991 0.877139
O O13 0.602291 0.750000 0.076838
O O14 0.552023 0.499198 0.109479
O O15 0.609009 0.500000 0.000000
O O16 0.500000 0.750000 0.921256
O O17 0.500000 0.500000 0.000000
#
# Coordination Sequence:
#
# PCOD9500660 Si02
#       6
#     8  16  16  16  16   8
#     4  10  18  30  51  76 105 138 173 213 263 313
#     4  10  20  34  54  79 108 139 176 217 262 312
#     4  10  21  37  56  78 105 141 178 218 266 318
#     4  11  22  38  58  80 107 142 180 221 269 323
#     4  11  21  36  57  83 112 143 180 222 266 315
#     4  10  18  32  53  80 111 144 179 217 265 317
#
# _framework density 18.082547000000002
#
# number of rings (size 3 to 8) (size 9 to 14) (size 15 to 20)
#    0.000    1.600    0.000   10.200    0.000    4.000 
#    0.000    5.000    0.000    3.600    0.000    0.000 
#    0.000    0.000    0.000    0.000    0.000    0.000 
#
# Total GULP energy -223370.708101 kJ/mol
# GULP energy per Si atom -5584.267703 kJ/mol
# Density = 1.804139 g / cm^3
# Si number density = 18.082547 Si / 1000 Ang^3
#
#
#
# Elastic Constant Matrix: (Units=GPa)
#
#
# Indices 1 2 3 4 5 6 
#
# 1 223.7726 96.2422 74.6260 0.0000 0.0000 0.0000
# 2 96.2422 161.8756 39.1225 0.0000 0.0000 0.0000
# 3 74.6260 39.1225 42.7360 0.0000 0.0000 0.0000
# 4 0.0000 0.0000 0.0000 26.1582 0.0000 0.0000
# 5 0.0000 0.0000 0.0000 0.0000 -195.8524 0.0000
# 6 0.0000 0.0000 0.0000 0.0000 0.0000 36.8288
#
#
#
# Elastic Compliance Matrix: (Units=1/GPa)
#
#
# Indices 1 2 3 4 5 6 
#
# 1 0.011458 -0.002538 -0.017685 0.000000 0.000000 0.000000
# 2 -0.002538 0.008495 -0.003344 0.000000 0.000000 0.000000
# 3 -0.017685 -0.003344 0.057342 0.000000 0.000000 0.000000
# 4 0.000000 0.000000 0.000000 0.038229 0.000000 0.000000
# 5 0.000000 0.000000 0.000000 0.000000 -0.005106 0.000000
# 6 0.000000 0.000000 0.000000 0.000000 0.000000 0.027153
#
#
# Mechanical properties :
#
#
# Convention : Reuss Voigt Hill
#
# Bulk Modulus (GPa) = 33.15570 94.26285 63.70928
# Shear Modulus (GPa) = 25.67275 -12.01350 6.82962
#
# Velocity S-wave (km/s) = 3.77205 -2.58033 1.94554
# Velocity P-wave (km/s) = 6.11119 6.58520 6.35262
#
# Compressibility (1/GPa) = 0.03016072
#
# Stress axis : x y z
#
# Youngs Moduli (GPa) = 87.27375 117.71663 17.43920
#
# Poissons Ratio (x) = 0.29880 0.30841
# Poissons Ratio (y) = 0.22153 0.05832
# Poissons Ratio (z) = 1.54341 0.39367
#
# Static dielectric constant tensor:
#      x y z
#    x 1.653590 0.000000 0.000000 
#    y 0.000000 1.605390 0.000000 
#    z 0.000000 0.000000 1.611880 
# 
# From -- ./inp_files/39536.got.cif
#   From: 2010.05.17/outbox.cif.g08.bks.cpg/sg67_20_cif.got.tgz:39536.got - 2010.06.03 18:28:57.
