data_PCOD9500673
_publ_section_title
;
Structure prediction by ZEFSAII (Michael W. Deem and Ramdas Pophale) SiO2 
 PCOD9500673
Probable space group: C M M A
;
_chemical_formula_sum "Si O2"
_cell_formula_units_Z 80
_cell_length_a 20.594372
_cell_length_b 18.202570
_cell_length_c 12.828291
_cell_angle_alpha 90.000000
_cell_angle_beta 90.000000
_cell_angle_gamma 90.000000
_cell_volume 4808.947835
_symmetry_space_group_name_H-M "C M M A"
_symmetry_group_IT_number 67
_symmetry_cell_setting 'orthorhombic'
loop_
_space_group_symop_operation_xyz
x,y,z
-x,1/2-y,z
x,-y,-z
-x,1/2+y,-z
-x,-y,-z
x,1/2+y,-z
-x,y,z
x,1/2-y,z
1/2+x,1/2+y,z
1/2-x,-y,z
1/2+x,1/2-y,-z
1/2-x,y,-z
1/2-x,1/2-y,-z
1/2+x,y,-z
1/2-x,1/2+y,z
1/2+x,-y,z
loop_
_atom_site_type_symbol
_atom_site_label
_atom_site_fract_x
_atom_site_fract_y
_atom_site_fract_z
Si Si1 0.672307 0.417658 0.023265
Si Si2 0.280148 0.082829 0.243678
Si Si3 0.573136 0.339350 0.617610
Si Si4 0.320378 0.835720 0.554512
Si Si5 0.851621 0.837406 0.819614
O O1 0.670728 0.406470 0.146734
O O2 0.650648 0.500000 0.000000
O O3 0.750000 0.413839 0.000000
O O4 0.639526 0.366342 0.937228
O O5 0.314311 0.109583 0.348496
O O6 0.218035 0.134492 0.221576
O O7 0.250000 0.000000 0.245291
O O8 0.500000 0.364284 0.595820
O O9 0.573060 0.250000 0.619130
O O10 0.625368 0.359272 0.529252
O O11 0.597194 0.363151 0.732293
O O12 0.332790 0.750000 0.585637
O O13 0.250000 0.836423 0.500000
O O14 0.851608 0.750000 0.821455
#
# Coordination Sequence:
#
# PCOD9500673 Si02
#       5
#    16  16  16  16  16
#     4   9  16  30  45  71 104 135 159 201 259 309
#     4  11  19  30  48  75 108 138 164 204 269 312
#     4   9  18  34  54  75 103 138 173 215 265 307
#     4  10  19  32  50  76 104 131 173 222 257 300
#     4  10  18  30  52  77  99 131 175 215 249 302
#
# _framework density 16.635655
#
# number of rings (size 3 to 8) (size 9 to 14) (size 15 to 20)
#    0.000    2.200    6.000    0.600    0.000    4.800 
#    0.000    0.000    0.000    4.200    0.000    5.600 
#    0.000    0.000    0.000    0.000    0.000    0.000 
#
# Total GULP energy -222698.174143 kJ/mol
# GULP energy per Si atom -5567.454354 kJ/mol
# Density = 1.659779 g / cm^3
# Si number density = 16.635655 Si / 1000 Ang^3
#
#
#
# Elastic Constant Matrix: (Units=GPa)
#
#
# Indices 1 2 3 4 5 6 
#
# 1 79.3510 20.7363 54.3542 0.0000 0.0000 0.0000
# 2 20.7363 52.5196 53.3616 0.0000 0.0000 0.0000
# 3 54.3542 53.3616 158.1569 0.0000 0.0000 0.0000
# 4 0.0000 0.0000 0.0000 29.1827 0.0000 0.0000
# 5 0.0000 0.0000 0.0000 0.0000 19.0710 0.0000
# 6 0.0000 0.0000 0.0000 0.0000 0.0000 4.8845
#
#
#
# Elastic Compliance Matrix: (Units=1/GPa)
#
#
# Indices 1 2 3 4 5 6 
#
# 1 0.016528 -0.001148 -0.005293 0.000000 0.000000 0.000000
# 2 -0.001148 0.029052 -0.009408 0.000000 0.000000 0.000000
# 3 -0.005293 -0.009408 0.011316 0.000000 0.000000 0.000000
# 4 0.000000 0.000000 0.000000 0.034267 0.000000 0.000000
# 5 0.000000 0.000000 0.000000 0.000000 0.052436 0.000000
# 6 0.000000 0.000000 0.000000 0.000000 0.000000 0.204730
#
#
# Mechanical properties :
#
#
# Convention : Reuss Voigt Hill
#
# Bulk Modulus (GPa) = 39.68396 60.77019 50.22708
# Shear Modulus (GPa) = 12.87252 21.39934 17.13593
#
# Velocity S-wave (km/s) = 2.78473 3.59047 3.21296
# Velocity P-wave (km/s) = 5.85202 7.33471 6.63491
#
# Compressibility (1/GPa) = 0.02519910
#
# Stress axis : x y z
#
# Youngs Moduli (GPa) = 60.50441 34.42082 88.37114
#
# Poissons Ratio (x) = 0.03951 0.46773
# Poissons Ratio (y) = 0.06946 0.83136
# Poissons Ratio (z) = 0.32024 0.32382
#
# Static dielectric constant tensor:
#      x y z
#    x 1.544270 0.000000 0.000000 
#    y 0.000000 1.569020 0.000000 
#    z 0.000000 0.000000 1.615460 
# 
# From -- ./inp_files/21656.got.cif
#   From: 2010.05.17/outbox.cif.g08.bks.cpg/sg67_11_cif.got.tgz:21656.got - 2010.06.03 18:28:57.
