data_PCOD9500618
_publ_section_title
;
Structure prediction by ZEFSAII (Michael W. Deem and Ramdas Pophale) SiO2 
 PCOD9500618
Probable space group: C M M A
;
_chemical_formula_sum "Si O2"
_cell_formula_units_Z 112
_cell_length_a 14.522761
_cell_length_b 20.626953
_cell_length_c 17.747218
_cell_angle_alpha 90.000000
_cell_angle_beta 90.000000
_cell_angle_gamma 90.000000
_cell_volume 5316.362100
_symmetry_space_group_name_H-M "C M M A"
_symmetry_group_IT_number 67
_symmetry_cell_setting 'orthorhombic'
loop_
_space_group_symop_operation_xyz
x,y,z
-x,1/2-y,z
x,-y,-z
-x,1/2+y,-z
-x,-y,-z
x,1/2+y,-z
-x,y,z
x,1/2-y,z
1/2+x,1/2+y,z
1/2-x,-y,z
1/2+x,1/2-y,-z
1/2-x,y,-z
1/2-x,1/2-y,-z
1/2+x,y,-z
1/2-x,1/2+y,z
1/2+x,-y,z
loop_
_atom_site_type_symbol
_atom_site_label
_atom_site_fract_x
_atom_site_fract_y
_atom_site_fract_z
Si Si1 0.103780 0.401761 0.033333
Si Si2 0.112894 0.087243 0.313732
Si Si3 0.347888 0.531359 0.887316
Si Si4 0.887505 0.676179 0.826193
Si Si5 0.887747 0.323420 0.450662
Si Si6 0.891752 0.057019 0.719871
Si Si7 0.887181 0.323056 0.623796
O O1 0.097780 0.469126 0.080518
O O2 0.142784 0.350148 0.092355
O O3 0.000000 0.382474 0.011907
O O4 0.155477 0.418532 0.956342
O O5 0.141897 0.127979 0.240195
O O6 0.142018 0.124342 0.389292
O O7 0.000000 0.087154 0.312882
O O8 0.144136 0.013143 0.306496
O O9 0.250000 0.500000 0.871786
O O10 0.383803 0.560055 0.809970
O O11 0.859454 0.750000 0.812182
O O12 0.000000 0.674499 0.827338
O O13 0.859699 0.250000 0.429742
O O14 0.859688 0.335486 0.536921
O O15 0.000000 0.323838 0.450216
O O16 0.853181 0.119838 0.677797
O O17 0.000000 0.055977 0.701177
O O18 0.858148 0.250000 0.644758
O O19 0.000000 0.322492 0.625079
#
# Coordination Sequence:
#
# PCOD9500618 Si02
#       7
#    16  16  16  16  16  16  16
#     4  10  18  32  53  74  97 126 160 197 239 291
#     4   9  15  23  39  67  99 129 162 200 244 291
#     4  11  21  33  50  71  96 125 163 202 245 292
#     4   9  16  26  43  70 102 130 157 195 242 288
#     4   8  13  22  37  62  99 136 163 195 247 299
#     4  10  18  30  48  72  98 127 166 209 248 288
#     4   8  15  27  43  66  99 135 166 201 248 296
#
# _framework density 21.067036999999999
#
# number of rings (size 3 to 8) (size 9 to 14) (size 15 to 20)
#    0.000    2.714    1.429    3.857    0.000    2.286 
#    0.000    3.571    0.000    6.000    0.000    2.000 
#    0.000    2.286    0.000    0.000    0.000    0.000 
#
# Total GULP energy -312644.154327 kJ/mol
# GULP energy per Si atom -5582.931327 kJ/mol
# Density = 2.101909 g / cm^3
# Si number density = 21.067037 Si / 1000 Ang^3
#
#
#
# Elastic Constant Matrix: (Units=GPa)
#
#
# Indices 1 2 3 4 5 6 
#
# 1 36.0931 9.1211 -10.6314 0.0000 0.0000 0.0000
# 2 9.1211 175.0162 117.3496 0.0000 0.0000 0.0000
# 3 -10.6314 117.3496 129.5089 0.0000 0.0000 0.0000
# 4 0.0000 0.0000 0.0000 29.9071 0.0000 0.0000
# 5 0.0000 0.0000 0.0000 0.0000 11.7690 0.0000
# 6 0.0000 0.0000 0.0000 0.0000 0.0000 -0.2020
#
#
#
# Elastic Compliance Matrix: (Units=1/GPa)
#
#
# Indices 1 2 3 4 5 6 
#
# 1 0.033223 -0.009072 0.010947 0.000000 0.000000 0.000000
# 2 -0.009072 0.017036 -0.016182 0.000000 0.000000 0.000000
# 3 0.010947 -0.016182 0.023282 0.000000 0.000000 0.000000
# 4 0.000000 0.000000 0.000000 0.033437 0.000000 0.000000
# 5 0.000000 0.000000 0.000000 0.000000 0.084969 0.000000
# 6 0.000000 0.000000 0.000000 0.000000 0.000000 -4.950870
#
#
# Mechanical properties :
#
#
# Convention : Reuss Voigt Hill
#
# Bulk Modulus (GPa) = 22.25688 63.58854 42.92271
# Shear Modulus (GPa) = -1.06037 23.28007 11.10985
#
# Velocity S-wave (km/s) = -0.71023 3.32783 2.29892
# Velocity P-wave (km/s) = 3.14883 6.70935 5.24073
#
# Compressibility (1/GPa) = 0.04492993
#
# Stress axis : x y z
#
# Youngs Moduli (GPa) = 30.09954 58.69796 42.95084
#
# Poissons Ratio (x) = 0.53248 -0.47019
# Poissons Ratio (y) = 0.27305 0.69501
# Poissons Ratio (z) = -0.32950 0.94982
#
# Static dielectric constant tensor:
#      x y z
#    x 1.831240 0.000000 0.000000 
#    y 0.000000 1.738570 0.000000 
#    z 0.000000 0.000000 1.729880 
# 
# From -- ./inp_files/34452.got.cif
#   From: 2010.05.17/outbox.cif.g08.bks.cpg/sg67_18_cif.got.tgz:34452.got - 2010.06.03 18:28:57.
