data_PCOD9500243
_publ_section_title
;
Structure prediction by ZEFSAII (Michael W. Deem and Ramdas Pophale) SiO2 
 PCOD9500243
Probable space group: C M M A
;
_chemical_formula_sum "Si O2"
_cell_formula_units_Z 104
_cell_length_a 8.309133
_cell_length_b 25.417127
_cell_length_c 25.853654
_cell_angle_alpha 90.000000
_cell_angle_beta 90.000000
_cell_angle_gamma 90.000000
_cell_volume 5460.144067
_symmetry_space_group_name_H-M "C M M A"
_symmetry_group_IT_number 67
_symmetry_cell_setting 'orthorhombic'
loop_
_space_group_symop_operation_xyz
x,y,z
-x,1/2-y,z
x,-y,-z
-x,1/2+y,-z
-x,-y,-z
x,1/2+y,-z
-x,y,z
x,1/2-y,z
1/2+x,1/2+y,z
1/2-x,-y,z
1/2+x,1/2-y,-z
1/2-x,y,-z
1/2-x,1/2-y,-z
1/2+x,y,-z
1/2-x,1/2+y,z
1/2+x,-y,z
loop_
_atom_site_type_symbol
_atom_site_label
_atom_site_fract_x
_atom_site_fract_y
_atom_site_fract_z
Si Si1 0.814338 0.750000 0.166421
Si Si2 0.310181 0.141066 0.857758
Si Si3 0.250723 0.750000 0.277490
Si Si4 0.302977 0.250000 0.391262
Si Si5 0.194981 0.635761 0.738199
Si Si6 0.308765 0.940381 0.353797
Si Si7 0.808677 0.861502 0.441930
Si Si8 0.691353 0.440480 0.057365
O O1 0.780863 0.696585 0.136211
O O2 0.694842 0.750000 0.216552
O O3 0.000000 0.750000 0.185893
O O4 0.500000 0.150525 0.862816
O O5 0.279845 0.123001 0.798414
O O6 0.256510 0.098443 0.899122
O O7 0.297289 0.750000 0.337947
O O8 0.202260 0.687994 0.275544
O O9 0.500000 0.250000 0.379416
O O10 0.263970 0.302870 0.422459
O O11 0.240045 0.589597 0.699035
O O12 0.000000 0.648028 0.731507
O O13 0.500000 0.941473 0.353967
O O14 0.253650 0.904773 0.401775
O O15 0.250000 0.000000 0.356445
O O16 0.750000 0.870402 0.500000
O O17 0.000000 0.863873 0.441615
O O18 0.500000 0.440038 0.057906
O O19 0.750000 0.500000 0.066785
O O20 0.750000 0.425112 0.000000
#
# Coordination Sequence:
#
# PCOD9500243 Si02
#       8
#     8  16   8   8  16  16  16  16
#     4  10  20  33  54  87 123 159 199 240 286 348
#     4  10  20  37  59  86 122 161 198 242 293 348
#     4  10  16  33  56  86 117 150 188 231 284 343
#     4  10  20  34  57  87 119 146 181 226 283 340
#     4   9  19  34  57  86 118 152 191 234 286 344
#     4  11  23  41  60  84 112 149 192 238 286 342
#     4  11  23  41  61  86 115 148 185 232 285 344
#     4  11  22  39  62  89 119 156 202 250 298 348
#
# _framework density 19.047115999999999
#
# number of rings (size 3 to 8) (size 9 to 14) (size 15 to 20)
#    0.000    1.692    1.538    4.154    0.000    2.769 
#    0.000    6.923    0.000    0.000    0.000    0.000 
#    0.000    0.000    0.000    0.000    0.000    0.000 
#
# Total GULP energy -289740.797763 kJ/mol
# GULP energy per Si atom -5571.938419 kJ/mol
# Density = 1.900376 g / cm^3
# Si number density = 19.047116 Si / 1000 Ang^3
#
#
#
# Elastic Constant Matrix: (Units=GPa)
#
#
# Indices 1 2 3 4 5 6 
#
# 1 62.6405 40.3460 37.7550 0.0000 0.0000 0.0000
# 2 40.3460 176.8424 108.2240 0.0000 0.0000 0.0000
# 3 37.7550 108.2240 153.8440 0.0000 0.0000 0.0000
# 4 0.0000 0.0000 0.0000 12.8871 0.0000 0.0000
# 5 0.0000 0.0000 0.0000 0.0000 13.2216 0.0000
# 6 0.0000 0.0000 0.0000 0.0000 0.0000 17.7922
#
#
#
# Elastic Compliance Matrix: (Units=1/GPa)
#
#
# Indices 1 2 3 4 5 6 
#
# 1 0.019422 -0.002659 -0.002896 0.000000 0.000000 0.000000
# 2 -0.002659 0.010293 -0.006589 0.000000 0.000000 0.000000
# 3 -0.002896 -0.006589 0.011846 0.000000 0.000000 0.000000
# 4 0.000000 0.000000 0.000000 0.077597 0.000000 0.000000
# 5 0.000000 0.000000 0.000000 0.000000 0.075634 0.000000
# 6 0.000000 0.000000 0.000000 0.000000 0.000000 0.056204
#
#
# Mechanical properties :
#
#
# Convention : Reuss Voigt Hill
#
# Bulk Modulus (GPa) = 57.88914 85.10852 71.49883
# Shear Modulus (GPa) = 17.79101 22.58033 20.18567
#
# Velocity S-wave (km/s) = 3.05954 3.44684 3.25895
# Velocity P-wave (km/s) = 6.55284 7.78596 7.19586
#
# Compressibility (1/GPa) = 0.01727440
#
# Stress axis : x y z
#
# Youngs Moduli (GPa) = 51.48772 97.14949 84.41917
#
# Poissons Ratio (x) = 0.25830 0.24448
# Poissons Ratio (y) = 0.13689 0.55620
# Poissons Ratio (z) = 0.14911 0.64008
#
# Static dielectric constant tensor:
#      x y z
#    x 1.733720 0.000000 0.000000 
#    y 0.000000 1.495210 0.000000 
#    z 0.000000 0.000000 1.620510 
# 
# From -- ./inp_files/43642.got.cif
#   From: 2010.05.17/outbox.cif.g08.bks.cpg/sg67_22_cif.got.tgz:43642.got - 2010.06.03 18:28:57.
