data_PCOD9500612
_publ_section_title
;
Structure prediction by ZEFSAII (Michael W. Deem and Ramdas Pophale) SiO2 
 PCOD9500612
Probable space group: C M M A
;
_chemical_formula_sum "Si O2"
_cell_formula_units_Z 112
_cell_length_a 14.760726
_cell_length_b 25.594368
_cell_length_c 14.262702
_cell_angle_alpha 90.000000
_cell_angle_beta 90.000000
_cell_angle_gamma 90.000000
_cell_volume 5388.326915
_symmetry_space_group_name_H-M "C M M A"
_symmetry_group_IT_number 67
_symmetry_cell_setting 'orthorhombic'
loop_
_space_group_symop_operation_xyz
x,y,z
-x,1/2-y,z
x,-y,-z
-x,1/2+y,-z
-x,-y,-z
x,1/2+y,-z
-x,y,z
x,1/2-y,z
1/2+x,1/2+y,z
1/2-x,-y,z
1/2+x,1/2-y,-z
1/2-x,y,-z
1/2-x,1/2-y,-z
1/2+x,y,-z
1/2-x,1/2+y,z
1/2+x,-y,z
loop_
_atom_site_type_symbol
_atom_site_label
_atom_site_fract_x
_atom_site_fract_y
_atom_site_fract_z
Si Si1 0.200543 0.386099 0.631904
Si Si2 0.646873 0.504562 0.843375
Si Si3 0.892674 0.308717 0.770866
Si Si4 0.108647 0.805930 0.004749
Si Si5 0.106191 0.393278 0.437193
Si Si6 0.901252 0.009266 0.636977
Si Si7 0.392646 0.082383 0.998442
O O1 0.159574 0.353972 0.717351
O O2 0.143104 0.372834 0.537510
O O3 0.308351 0.376351 0.627359
O O4 0.177540 0.447837 0.633833
O O5 0.750000 0.500000 0.816692
O O6 0.594077 0.496407 0.747674
O O7 0.635525 0.558445 0.901241
O O8 0.626373 0.460053 0.919307
O O9 0.867212 0.250000 0.738151
O O10 0.880104 0.309288 0.882898
O O11 0.000000 0.315614 0.754453
O O12 0.145648 0.750000 0.970807
O O13 0.145575 0.861199 0.969584
O O14 0.000000 0.804491 0.986747
O O15 0.109601 0.456635 0.423335
O O16 0.000000 0.378848 0.420271
O O17 0.000000 0.033280 0.611681
O O18 0.500000 0.087894 0.006433
#
# Coordination Sequence:
#
# PCOD9500612 Si02
#       7
#    16  16  16  16  16  16  16
#     4  11  20  34  56  78 105 142 177 211 264 317
#     4  11  21  32  46  69 103 137 170 210 259 316
#     4   9  17  30  51  81 111 136 172 224 273 314
#     4   8  15  28  48  76 106 133 165 213 268 312
#     4  10  22  36  50  75 109 141 177 217 253 305
#     4  11  21  34  53  77 105 137 175 217 262 314
#     4  10  18  30  48  70  98 131 168 210 260 318
#
# _framework density 20.785672999999999
#
# number of rings (size 3 to 8) (size 9 to 14) (size 15 to 20)
#    0.000    2.000    0.000    7.286    0.000    3.429 
#    0.000    1.429    0.000    3.000    0.000    4.000 
#    0.000    4.571    0.000    0.857    0.000    0.143 
#
# Total GULP energy -312178.736211 kJ/mol
# GULP energy per Si atom -5574.620289 kJ/mol
# Density = 2.073836 g / cm^3
# Si number density = 20.785673 Si / 1000 Ang^3
#
#
#
# Elastic Constant Matrix: (Units=GPa)
#
#
# Indices 1 2 3 4 5 6 
#
# 1 115.2516 2.0301 -3.5911 0.0000 0.0000 0.0000
# 2 2.0301 82.9778 1.4514 0.0000 0.0000 0.0000
# 3 -3.5911 1.4514 36.8985 0.0000 0.0000 0.0000
# 4 0.0000 0.0000 0.0000 8.9120 0.0000 0.0000
# 5 0.0000 0.0000 0.0000 0.0000 20.8819 0.0000
# 6 0.0000 0.0000 0.0000 0.0000 0.0000 74.0561
#
#
#
# Elastic Compliance Matrix: (Units=1/GPa)
#
#
# Indices 1 2 3 4 5 6 
#
# 1 0.008707 -0.000228 0.000856 0.000000 0.000000 0.000000
# 2 -0.000228 0.012066 -0.000497 0.000000 0.000000 0.000000
# 3 0.000856 -0.000497 0.027204 0.000000 0.000000 0.000000
# 4 0.000000 0.000000 0.000000 0.112208 0.000000 0.000000
# 5 0.000000 0.000000 0.000000 0.000000 0.047888 0.000000
# 6 0.000000 0.000000 0.000000 0.000000 0.000000 0.013503
#
#
# Mechanical properties :
#
#
# Convention : Reuss Voigt Hill
#
# Bulk Modulus (GPa) = 20.72946 26.10096 23.41521
# Shear Modulus (GPa) = 21.06206 36.45250 28.75728
#
# Velocity S-wave (km/s) = 3.18669 4.19230 3.72360
# Velocity P-wave (km/s) = 4.85124 6.00153 5.45678
#
# Compressibility (1/GPa) = 0.04824052
#
# Stress axis : x y z
#
# Youngs Moduli (GPa) = 114.84526 82.87970 36.75897
#
# Poissons Ratio (x) = 0.01890 -0.03148
# Poissons Ratio (y) = 0.02619 0.01826
# Poissons Ratio (z) = -0.09835 0.04117
#
# Static dielectric constant tensor:
#      x y z
#    x 1.782440 0.000000 0.000000 
#    y 0.000000 1.792650 0.000000 
#    z 0.000000 0.000000 1.883430 
# 
# From -- ./inp_files/27738.got.cif
#   From: 2010.05.17/outbox.cif.g08.bks.cpg/sg67_14_cif.got.tgz:27738.got - 2010.06.03 18:28:57.
