data_PCOD9500511
_publ_section_title
;
Structure prediction by ZEFSAII (Michael W. Deem and Ramdas Pophale) SiO2 
 PCOD9500511
Probable space group: C M M A
;
_chemical_formula_sum "Si O2"
_cell_formula_units_Z 64
_cell_length_a 14.914813
_cell_length_b 21.651043
_cell_length_c 9.556059
_cell_angle_alpha 90.000000
_cell_angle_beta 90.000000
_cell_angle_gamma 90.000000
_cell_volume 3085.854590
_symmetry_space_group_name_H-M "C M M A"
_symmetry_group_IT_number 67
_symmetry_cell_setting 'orthorhombic'
loop_
_space_group_symop_operation_xyz
x,y,z
-x,1/2-y,z
x,-y,-z
-x,1/2+y,-z
-x,-y,-z
x,1/2+y,-z
-x,y,z
x,1/2-y,z
1/2+x,1/2+y,z
1/2-x,-y,z
1/2+x,1/2-y,-z
1/2-x,y,-z
1/2-x,1/2-y,-z
1/2+x,y,-z
1/2-x,1/2+y,z
1/2+x,-y,z
loop_
_atom_site_type_symbol
_atom_site_label
_atom_site_fract_x
_atom_site_fract_y
_atom_site_fract_z
Si Si1 0.108470 0.379464 0.155674
Si Si2 0.900972 0.250000 0.801070
Si Si3 0.109329 0.115868 0.830503
Si Si4 0.390408 0.504058 0.339441
Si Si5 0.337914 0.250000 0.901868
O O1 0.137597 0.434212 0.257660
O O2 0.148613 0.312059 0.184556
O O3 0.000000 0.375772 0.162122
O O4 0.133738 0.392211 0.993463
O O5 0.859234 0.317255 0.773119
O O6 0.000000 0.250000 0.736418
O O7 0.909304 0.250000 0.970772
O O8 0.000000 0.118218 0.826708
O O9 0.138704 0.057173 0.742616
O O10 0.362117 0.500000 0.500000
O O11 0.500000 0.504299 0.337408
O O12 0.250000 0.250000 0.000000
#
# Coordination Sequence:
#
# PCOD9500511 Si02
#       5
#    16   8  16  16   8
#     4   9  16  28  46  67  93 123 152 187 238 291
#     4   8  14  26  45  66  87 112 144 182 226 278
#     4   8  13  23  41  64  88 116 149 184 226 273
#     4   9  16  25  40  67  99 124 150 188 231 278
#     4  10  18  28  45  70  92 114 152 204 242 274
#
# _framework density 20.739798
#
# number of rings (size 3 to 8) (size 9 to 14) (size 15 to 20)
#    0.000    3.250    0.000    3.375    0.000    3.000 
#    0.000    1.250    0.000   18.000    0.000   21.000 
#    0.000    0.000    0.000    0.000    0.000    0.250 
#
# Total GULP energy -178370.443226 kJ/mol
# GULP energy per Si atom -5574.076351 kJ/mol
# Density = 2.069259 g / cm^3
# Si number density = 20.739798 Si / 1000 Ang^3
#
#
#
# Elastic Constant Matrix: (Units=GPa)
#
#
# Indices 1 2 3 4 5 6 
#
# 1 72.5169 17.9135 9.6089 0.0000 0.0000 0.0000
# 2 17.9135 278.1752 117.6794 0.0000 0.0000 0.0000
# 3 9.6089 117.6794 105.2777 0.0000 0.0000 0.0000
# 4 0.0000 0.0000 0.0000 -4.2194 0.0000 0.0000
# 5 0.0000 0.0000 0.0000 0.0000 2.7798 0.0000
# 6 0.0000 0.0000 0.0000 0.0000 0.0000 -16.2438
#
#
#
# Elastic Compliance Matrix: (Units=1/GPa)
#
#
# Indices 1 2 3 4 5 6 
#
# 1 0.014027 -0.000686 -0.000513 0.000000 0.000000 0.000000
# 2 -0.000686 0.006853 -0.007598 0.000000 0.000000 0.000000
# 3 -0.000513 -0.007598 0.018039 0.000000 0.000000 0.000000
# 4 0.000000 0.000000 0.000000 -0.237002 0.000000 0.000000
# 5 0.000000 0.000000 0.000000 0.000000 0.359733 0.000000
# 6 0.000000 0.000000 0.000000 0.000000 0.000000 -0.061562
#
#
# Mechanical properties :
#
#
# Convention : Reuss Voigt Hill
#
# Bulk Modulus (GPa) = 46.89475 82.93035 64.91255
# Shear Modulus (GPa) = 40.06682 17.18120 28.62401
#
# Velocity S-wave (km/s) = 4.40009 2.88135 3.71907
# Velocity P-wave (km/s) = 6.96236 7.15139 7.05751
#
# Compressibility (1/GPa) = 0.02132435
#
# Stress axis : x y z
#
# Youngs Moduli (GPa) = 71.28901 145.91504 55.43674
#
# Poissons Ratio (x) = 0.10012 0.02846
# Poissons Ratio (y) = 0.04892 0.42121
# Poissons Ratio (z) = 0.03659 1.10866
#
# Static dielectric constant tensor:
#      x y z
#    x 1.817290 0.000000 0.000000 
#    y 0.000000 1.779970 0.000000 
#    z 0.000000 0.000000 1.676650 
# 
# From -- ./inp_files/10720.got.cif
#   From: 2010.05.17/outbox.cif.g08.bks.cpg/sg67_6_cif.got.tgz:10720.got - 2010.06.03 18:28:57.
