data_PCOD9500138
_publ_section_title
;
Structure prediction by ZEFSAII (Michael W. Deem and Ramdas Pophale) SiO2 
 PCOD9500138
Probable space group: C C C M
;
_chemical_formula_sum "Si O2"
_cell_formula_units_Z 44
_cell_length_a 9.000000
_cell_length_b 21.000000
_cell_length_c 24.000000
_cell_angle_alpha 90.000000
_cell_angle_beta 90.000000
_cell_angle_gamma 90.000000
_cell_volume 4536.000000
_symmetry_space_group_name_H-M "C C C M"
_symmetry_group_IT_number 66
_symmetry_cell_setting 'orthorhombic'
loop_
_space_group_symop_operation_xyz
x,y,z
-x,-y,z
x,-y,1/2-z
-x,y,1/2-z
-x,-y,-z
x,y,-z
-x,y,1/2+z
x,-y,1/2+z
1/2+x,1/2+y,z
1/2-x,1/2-y,z
1/2+x,1/2-y,1/2-z
1/2-x,1/2+y,1/2-z
1/2-x,1/2-y,-z
1/2+x,1/2+y,-z
1/2-x,1/2+y,1/2+z
1/2+x,1/2-y,1/2+z
loop_
_atom_site_type_symbol
_atom_site_label
_atom_site_fract_x
_atom_site_fract_y
_atom_site_fract_z
Si Si1 0.132648 0.913593 0.096222
Si Si2 0.077359 0.733691 0.500000
Si Si3 0.711609 0.442581 0.567945
Si Si4 0.750000 0.250000 0.707543
Si Si5 0.432451 0.834816 0.380727
Si Si6 0.259887 0.176963 0.321390
Si Si7 0.178575 0.820277 0.000000
O O1 0.145414 0.874991 0.154402
O O2 0.207565 0.864360 0.052898
O O3 0.959595 0.921843 0.079403
O O4 0.210266 0.983154 0.089225
O O5 0.250000 0.750000 0.500000
O O6 0.040212 0.697531 0.441815
O O7 0.993650 0.800751 0.500000
O O8 0.738876 0.440875 0.500000
O O9 0.824263 0.394868 0.601723
O O10 0.639189 0.217037 0.662558
O O11 0.766137 0.192885 0.755064
O O12 0.582932 0.849824 0.345585
O O13 0.250000 0.250000 0.345499
O O14 0.250000 0.750000 0.000000
#
# Coordination Sequence:
#
# PCOD9500138 Si02
#       7
#    16   8  16   8  16  16   8
#     4  11  21  42  64  93 141 178 228 273 337 419
#     4  12  22  33  60 100 132 161 214 270 344 393
#     4  11  23  42  66  98 136 188 224 276 344 421
#     4  10  26  43  70  93 136 180 228 276 334 410
#     4  12  23  42  66 101 135 174 223 288 343 405
#     4  10  25  43  65  97 133 172 230 278 344 390
#     4  12  22  34  62  96 136 175 207 276 338 396
#
# _framework density 9.7001760000000008
#
# number of rings (size 3 to 8) (size 9 to 14) (size 15 to 20)
#    0.545    0.364    3.636    4.909    2.545    0.727 
#    0.000    1.818    0.000    4.364    0.000    0.000 
#    0.000    0.000    0.000    0.000    0.000    0.000 
#
# Total GULP energy -244946.351674 kJ/mol
# GULP energy per Si atom -5566.962538 kJ/mol
# Density = 0.967810 g / cm^3
# Si number density = 9.700176 Si / 1000 Ang^3
#
#
#
# Elastic Constant Matrix: (Units=GPa)
#
#
# Indices 1 2 3 4 5 6 
#
# 1 65.5759 33.3914 10.6242 0.0000 0.0000 0.0000
# 2 33.3914 123.1902 43.0129 0.0000 0.0000 0.0000
# 3 10.6242 43.0129 144.6169 0.0000 0.0000 0.0000
# 4 0.0000 0.0000 0.0000 39.0801 0.0000 0.0000
# 5 0.0000 0.0000 0.0000 0.0000 19.6692 0.0000
# 6 0.0000 0.0000 0.0000 0.0000 0.0000 39.1544
#
#
#
# Elastic Compliance Matrix: (Units=1/GPa)
#
#
# Indices 1 2 3 4 5 6 
#
# 1 0.017694 -0.004845 0.000141 0.000000 0.000000 0.000000
# 2 -0.004845 0.010385 -0.002733 0.000000 0.000000 0.000000
# 3 0.000141 -0.002733 0.007717 0.000000 0.000000 0.000000
# 4 0.000000 0.000000 0.000000 0.025588 0.000000 0.000000
# 5 0.000000 0.000000 0.000000 0.000000 0.050841 0.000000
# 6 0.000000 0.000000 0.000000 0.000000 0.000000 0.025540
#
#
# Mechanical properties :
#
#
# Convention : Reuss Voigt Hill
#
# Bulk Modulus (GPa) = 47.79571 56.38221 52.08896
# Shear Modulus (GPa) = 31.32570 36.00439 33.66505
#
# Velocity S-wave (km/s) = 4.02269 4.31265 4.17019
# Velocity P-wave (km/s) = 6.80191 7.34330 7.07779
#
# Compressibility (1/GPa) = 0.02092238
#
# Stress axis : x y z
#
# Youngs Moduli (GPa) = 56.51676 96.29197 129.57966
#
# Poissons Ratio (x) = 0.46657 -0.01831
# Poissons Ratio (y) = 0.27384 0.35412
# Poissons Ratio (z) = -0.00798 0.26315
#
# Static dielectric constant tensor:
#      x y z
#    x 1.798800 0.000000 0.000000 
#    y 0.000000 1.690000 0.000000 
#    z 0.000000 0.000000 1.707170 
# 
# From -- ./inp_files/55536.got.cif
#   From: 2010.05.17/outbox.ucp.g08.bks.cvg/sg66_28_cif.got.tgz:55536.got - 2010.06.11 16:44:13.
