data_PCOD9500981
_publ_section_title
;
Structure prediction by ZEFSAII (Michael W. Deem and Ramdas Pophale) SiO2 
 PCOD9500981
Probable space group: C M M A
;
_chemical_formula_sum "Si O2"
_cell_formula_units_Z 96
_cell_length_a 22.423502
_cell_length_b 22.470268
_cell_length_c 10.034890
_cell_angle_alpha 90.000000
_cell_angle_beta 90.000000
_cell_angle_gamma 90.000000
_cell_volume 5056.200743
_symmetry_space_group_name_H-M "C M M A"
_symmetry_group_IT_number 67
_symmetry_cell_setting 'orthorhombic'
loop_
_space_group_symop_operation_xyz
x,y,z
-x,1/2-y,z
x,-y,-z
-x,1/2+y,-z
-x,-y,-z
x,1/2+y,-z
-x,y,z
x,1/2-y,z
1/2+x,1/2+y,z
1/2-x,-y,z
1/2+x,1/2-y,-z
1/2-x,y,-z
1/2-x,1/2-y,-z
1/2+x,y,-z
1/2-x,1/2+y,z
1/2+x,-y,z
loop_
_atom_site_type_symbol
_atom_site_label
_atom_site_fract_x
_atom_site_fract_y
_atom_site_fract_z
Si Si1 0.737078 0.382788 0.840529
Si Si2 0.064357 0.625426 0.045791
Si Si3 0.931981 0.750000 0.892748
Si Si4 0.933976 0.571894 0.511934
Si Si5 0.642754 0.922443 0.736018
Si Si6 0.787112 0.250000 0.142414
Si Si7 0.890469 0.942055 0.799120
O O1 0.787063 0.417042 0.756250
O O2 0.733178 0.313485 0.799715
O O3 0.673898 0.412960 0.816924
O O4 0.750000 0.386820 0.000000
O O5 0.115141 0.621523 0.155039
O O6 0.000000 0.615340 0.110250
O O7 0.065869 0.689388 0.976668
O O8 0.073980 0.576575 0.930507
O O9 0.860712 0.750000 0.848397
O O10 0.000000 0.750000 0.821855
O O11 0.935004 0.500000 0.500000
O O12 0.883230 0.591865 0.409224
O O13 0.920312 0.584292 0.665982
O O14 0.000000 0.593950 0.475295
O O15 0.618733 0.987705 0.777776
O O16 0.750000 0.250000 0.000000
#
# Coordination Sequence:
#
# PCOD9500981 Si02
#       7
#    16  16   8  16  16   8  16
#     4  11  21  35  57  85 115 149 192 238 290 338
#     4  11  21  34  57  85 112 148 194 243 289 340
#     4  10  20  36  56  84 115 150 200 248 291 342
#     4   9  20  38  56  78 115 158 194 229 281 351
#     4  11  22  35  55  85 118 153 184 235 288 350
#     4  10  18  36  58  79 114 156 195 237 295 354
#     4  11  21  35  57  84 117 149 188 233 292 341
#
# _framework density 18.986588000000001
#
# number of rings (size 3 to 8) (size 9 to 14) (size 15 to 20)
#    0.000    1.500    3.333    3.000    0.000    4.000 
#    0.000    2.500    0.000    5.000    0.000    8.167 
#    0.000    0.000    0.000    0.000    0.000    0.000 
#
# Total GULP energy -267447.551513 kJ/mol
# GULP energy per Si atom -5571.823990 kJ/mol
# Density = 1.894337 g / cm^3
# Si number density = 18.986588 Si / 1000 Ang^3
#
#
#
# Elastic Constant Matrix: (Units=GPa)
#
#
# Indices 1 2 3 4 5 6 
#
# 1 83.9656 -1.1020 11.1513 0.0000 0.0000 0.0000
# 2 -1.1020 40.8368 -9.5654 0.0000 0.0000 0.0000
# 3 11.1513 -9.5654 54.3230 0.0000 0.0000 0.0000
# 4 0.0000 0.0000 0.0000 5.4153 0.0000 0.0000
# 5 0.0000 0.0000 0.0000 0.0000 15.9241 0.0000
# 6 0.0000 0.0000 0.0000 0.0000 0.0000 49.4992
#
#
#
# Elastic Compliance Matrix: (Units=1/GPa)
#
#
# Indices 1 2 3 4 5 6 
#
# 1 0.012246 -0.000269 -0.002561 0.000000 0.000000 0.000000
# 2 -0.000269 0.025547 0.004554 0.000000 0.000000 0.000000
# 3 -0.002561 0.004554 0.019736 0.000000 0.000000 0.000000
# 4 0.000000 0.000000 0.000000 0.184661 0.000000 0.000000
# 5 0.000000 0.000000 0.000000 0.000000 0.062798 0.000000
# 6 0.000000 0.000000 0.000000 0.000000 0.000000 0.020202
#
#
# Mechanical properties :
#
#
# Convention : Reuss Voigt Hill
#
# Bulk Modulus (GPa) = 16.40009 20.01035 18.20522
# Shear Modulus (GPa) = 14.61692 26.07716 20.34704
#
# Velocity S-wave (km/s) = 2.77764 3.71003 3.27716
# Velocity P-wave (km/s) = 4.35241 5.37722 4.89173
#
# Compressibility (1/GPa) = 0.06097526
#
# Stress axis : x y z
#
# Youngs Moduli (GPa) = 81.65752 39.14343 50.66869
#
# Poissons Ratio (x) = 0.01055 0.12978
# Poissons Ratio (y) = 0.02200 -0.23073
# Poissons Ratio (z) = 0.20915 -0.17825
#
# Static dielectric constant tensor:
#      x y z
#    x 1.689800 0.000000 0.000000 
#    y 0.000000 1.653100 0.000000 
#    z 0.000000 0.000000 1.672340 
# 
# From -- ./inp_files/12699.got.cif
#   From: 2010.05.17/outbox.cif.g08.bks.cpg/sg67_7_cif.got.tgz:12699.got - 2010.06.03 18:28:57.
