data_PCOD9500800
_publ_section_title
;
Structure prediction by ZEFSAII (Michael W. Deem and Ramdas Pophale) SiO2 
 PCOD9500800
Probable space group: C M M A
;
_chemical_formula_sum "Si O2"
_cell_formula_units_Z 56
_cell_length_a 38.200598
_cell_length_b 8.651952
_cell_length_c 9.332226
_cell_angle_alpha 90.000000
_cell_angle_beta 90.000000
_cell_angle_gamma 90.000000
_cell_volume 3084.391591
_symmetry_space_group_name_H-M "C M M A"
_symmetry_group_IT_number 67
_symmetry_cell_setting 'orthorhombic'
loop_
_space_group_symop_operation_xyz
x,y,z
-x,1/2-y,z
x,-y,-z
-x,1/2+y,-z
-x,-y,-z
x,1/2+y,-z
-x,y,z
x,1/2-y,z
1/2+x,1/2+y,z
1/2-x,-y,z
1/2+x,1/2-y,-z
1/2-x,y,-z
1/2-x,1/2-y,-z
1/2+x,y,-z
1/2-x,1/2+y,z
1/2+x,-y,z
loop_
_atom_site_type_symbol
_atom_site_label
_atom_site_fract_x
_atom_site_fract_y
_atom_site_fract_z
Si Si1 0.000000 0.434855 0.162944
Si Si2 0.285448 0.934420 0.337760
Si Si3 0.362769 0.435957 0.661741
Si Si4 0.072533 0.565473 0.161220
O O1 0.036332 0.497897 0.226004
O O2 0.000000 0.250000 0.160424
O O3 0.000000 0.500000 0.000000
O O4 0.282621 0.750000 0.344534
O O5 0.323852 0.974197 0.277537
O O6 0.286130 0.000000 0.500000
O O7 0.250000 0.000000 0.268220
O O8 0.364415 0.500000 0.500000
O O9 0.366097 0.250000 0.659648
O O10 0.393909 0.510024 0.751319
O O11 0.070284 0.750000 0.156291
O O12 0.075592 0.500000 0.000000
#
# Coordination Sequence:
#
# PCOD9500800 Si02
#       4
#     8  16  16  16
#     4  10  18  32  53  76 101 130 167 210 248 294
#     4   9  16  26  44  68  97 129 166 206 246 292
#     4  10  20  34  51  76 106 137 170 209 255 303
#     4  11  21  35  55  78 103 134 170 210 252 300
#
# _framework density 18.155932
#
# number of rings (size 3 to 8) (size 9 to 14) (size 15 to 20)
#    0.000    2.000    0.000    8.143    0.000    3.429 
#    0.000    0.714    0.000    0.857    0.000    6.000 
#    0.000    0.000    0.000    0.000    0.000    0.000 
#
# Total GULP energy -156121.088271 kJ/mol
# GULP energy per Si atom -5575.753153 kJ/mol
# Density = 1.811461 g / cm^3
# Si number density = 18.155932 Si / 1000 Ang^3
#
#
#
# Elastic Constant Matrix: (Units=GPa)
#
#
# Indices 1 2 3 4 5 6 
#
# 1 232.7886 90.7322 47.0999 0.0000 0.0000 0.0000
# 2 90.7322 148.3062 20.9491 0.0000 0.0000 0.0000
# 3 47.0999 20.9491 26.0450 0.0000 0.0000 0.0000
# 4 0.0000 0.0000 0.0000 21.2932 0.0000 0.0000
# 5 0.0000 0.0000 0.0000 0.0000 38.7979 0.0000
# 6 0.0000 0.0000 0.0000 0.0000 0.0000 36.0479
#
#
#
# Elastic Compliance Matrix: (Units=1/GPa)
#
#
# Indices 1 2 3 4 5 6 
#
# 1 0.007913 -0.003181 -0.011752 0.000000 0.000000 0.000000
# 2 -0.003181 0.008886 -0.001394 0.000000 0.000000 0.000000
# 3 -0.011752 -0.001394 0.060769 0.000000 0.000000 0.000000
# 4 0.000000 0.000000 0.000000 0.046963 0.000000 0.000000
# 5 0.000000 0.000000 0.000000 0.000000 0.025775 0.000000
# 6 0.000000 0.000000 0.000000 0.000000 0.000000 0.027741
#
#
# Mechanical properties :
#
#
# Convention : Reuss Voigt Hill
#
# Bulk Modulus (GPa) = 22.26510 80.52249 51.39379
# Shear Modulus (GPa) = 22.15592 35.78502 28.97047
#
# Velocity S-wave (km/s) = 3.49709 4.44439 3.99889
# Velocity P-wave (km/s) = 5.34753 8.41330 7.04910
#
# Compressibility (1/GPa) = 0.04491335
#
# Stress axis : x y z
#
# Youngs Moduli (GPa) = 126.36701 112.53564 16.45581
#
# Poissons Ratio (x) = 0.35802 0.19339
# Poissons Ratio (y) = 0.40202 0.02294
# Poissons Ratio (z) = 1.48505 0.15691
#
# Static dielectric constant tensor:
#      x y z
#    x 1.701360 0.000000 0.000000 
#    y 0.000000 1.602640 0.000000 
#    z 0.000000 0.000000 1.602980 
# 
# From -- ./inp_files/15726.got.cif
#   From: 2010.05.17/outbox.cif.g08.bks.cpg/sg67_8_cif.got.tgz:15726.got - 2010.06.03 18:28:57.
