data_PCOD9500328
_publ_section_title
;
Structure prediction by ZEFSAII (Michael W. Deem and Ramdas Pophale) SiO2 
 PCOD9500328
Probable space group: C M M A
;
_chemical_formula_sum "Si O2"
_cell_formula_units_Z 64
_cell_length_a 18.936966
_cell_length_b 8.515326
_cell_length_c 21.592957
_cell_angle_alpha 90.000000
_cell_angle_beta 90.000000
_cell_angle_gamma 90.000000
_cell_volume 3481.960166
_symmetry_space_group_name_H-M "C M M A"
_symmetry_group_IT_number 67
_symmetry_cell_setting 'orthorhombic'
loop_
_space_group_symop_operation_xyz
x,y,z
-x,1/2-y,z
x,-y,-z
-x,1/2+y,-z
-x,-y,-z
x,1/2+y,-z
-x,y,z
x,1/2-y,z
1/2+x,1/2+y,z
1/2-x,-y,z
1/2+x,1/2-y,-z
1/2-x,y,-z
1/2-x,1/2-y,-z
1/2+x,y,-z
1/2-x,1/2+y,z
1/2+x,-y,z
loop_
_atom_site_type_symbol
_atom_site_label
_atom_site_fract_x
_atom_site_fract_y
_atom_site_fract_z
Si Si1 0.170420 0.061348 0.933026
Si Si2 0.919115 0.441575 0.814181
Si Si3 0.169801 0.061279 0.694298
Si Si4 0.830844 0.562935 0.564106
O O1 0.172141 0.250000 0.934539
O O2 0.121196 0.008978 0.876468
O O3 0.250000 0.000000 0.923309
O O4 0.146162 0.000000 0.000000
O O5 0.919395 0.250000 0.814270
O O6 0.876251 0.489681 0.753075
O O7 0.000000 0.494629 0.812999
O O8 0.171943 0.250000 0.691669
O O9 0.250000 0.000000 0.701347
O O10 0.139359 0.998459 0.629140
O O11 0.863387 0.500000 0.500000
O O12 0.829699 0.750000 0.563193
O O13 0.750000 0.500000 0.564648
#
# Coordination Sequence:
#
# PCOD9500328 Si02
#       4
#    16  16  16  16
#     4  10  19  33  54  77 102 130 163 203 245 292
#     4   9  19  34  51  72  99 132 167 203 245 292
#     4  10  18  30  50  73  98 128 163 203 246 293
#     4  10  17  27  44  69 100 128 160 201 246 293
#
# _framework density 18.38045
#
# number of rings (size 3 to 8) (size 9 to 14) (size 15 to 20)
#    0.000    2.250    0.000    7.500    0.000    0.500 
#    0.000    3.750    0.000   12.000    0.000    0.000 
#    0.000    0.000    0.000    0.000    0.000    0.000 
#
# Total GULP energy -178516.754861 kJ/mol
# GULP energy per Si atom -5578.648589 kJ/mol
# Density = 1.833862 g / cm^3
# Si number density = 18.380450 Si / 1000 Ang^3
#
#
#
# Elastic Constant Matrix: (Units=GPa)
#
#
# Indices 1 2 3 4 5 6 
#
# 1 73.7564 22.3101 95.5557 0.0000 0.0000 0.0000
# 2 22.3101 86.0016 50.3712 0.0000 0.0000 0.0000
# 3 95.5557 50.3712 234.5471 0.0000 0.0000 0.0000
# 4 0.0000 0.0000 0.0000 40.6816 0.0000 0.0000
# 5 0.0000 0.0000 0.0000 0.0000 -12.0591 0.0000
# 6 0.0000 0.0000 0.0000 0.0000 0.0000 11.5400
#
#
#
# Elastic Compliance Matrix: (Units=1/GPa)
#
#
# Indices 1 2 3 4 5 6 
#
# 1 0.028749 -0.000684 -0.011566 0.000000 0.000000 0.000000
# 2 -0.000684 0.013317 -0.002581 0.000000 0.000000 0.000000
# 3 -0.011566 -0.002581 0.009530 0.000000 0.000000 0.000000
# 4 0.000000 0.000000 0.000000 0.024581 0.000000 0.000000
# 5 0.000000 0.000000 0.000000 0.000000 -0.082925 0.000000
# 6 0.000000 0.000000 0.000000 0.000000 0.000000 0.086655
#
#
# Mechanical properties :
#
#
# Convention : Reuss Voigt Hill
#
# Bulk Modulus (GPa) = 45.59125 81.19767 63.39446
# Shear Modulus (GPa) = 42.77897 23.10372 32.94134
#
# Velocity S-wave (km/s) = 4.82956 3.54923 4.23802
# Velocity P-wave (km/s) = 7.48048 7.81460 7.64937
#
# Compressibility (1/GPa) = 0.02193403
#
# Stress axis : x y z
#
# Youngs Moduli (GPa) = 34.78400 75.09206 104.93442
#
# Poissons Ratio (x) = 0.05136 1.21362
# Poissons Ratio (y) = 0.02379 0.27087
# Poissons Ratio (z) = 0.40230 0.19384
#
# Static dielectric constant tensor:
#      x y z
#    x 1.605710 0.000000 0.000000 
#    y 0.000000 1.627210 0.000000 
#    z 0.000000 0.000000 1.670660 
# 
# From -- ./inp_files/35319.got.cif
#   From: 2010.05.17/outbox.cif.g08.bks.cpg/sg67_18_cif.got.tgz:35319.got - 2010.06.03 18:28:57.
