data_PCOD9500913
_publ_section_title
;
Structure prediction by ZEFSAII (Michael W. Deem and Ramdas Pophale) SiO2 
 PCOD9500913
Probable space group: C M M A
;
_chemical_formula_sum "Si O2"
_cell_formula_units_Z 104
_cell_length_a 23.639075
_cell_length_b 29.658186
_cell_length_c 8.079419
_cell_angle_alpha 90.000000
_cell_angle_beta 90.000000
_cell_angle_gamma 90.000000
_cell_volume 5664.416698
_symmetry_space_group_name_H-M "C M M A"
_symmetry_group_IT_number 67
_symmetry_cell_setting 'orthorhombic'
loop_
_space_group_symop_operation_xyz
x,y,z
-x,1/2-y,z
x,-y,-z
-x,1/2+y,-z
-x,-y,-z
x,1/2+y,-z
-x,y,z
x,1/2-y,z
1/2+x,1/2+y,z
1/2-x,-y,z
1/2+x,1/2-y,-z
1/2-x,y,-z
1/2-x,1/2-y,-z
1/2+x,y,-z
1/2-x,1/2+y,z
1/2+x,-y,z
loop_
_atom_site_type_symbol
_atom_site_label
_atom_site_fract_x
_atom_site_fract_y
_atom_site_fract_z
Si Si1 0.184561 0.381123 0.495089
Si Si2 0.437184 0.968168 0.257077
Si Si3 0.585652 0.567486 0.625970
Si Si4 0.137845 0.104119 0.133788
Si Si5 0.175856 0.197120 0.740313
Si Si6 0.250000 0.143237 0.000000
Si Si7 0.435844 0.151021 0.133802
O O1 0.250000 0.393391 0.500000
O O2 0.150699 0.418120 0.601714
O O3 0.154690 0.380119 0.317526
O O4 0.179119 0.331883 0.573993
O O5 0.500000 0.961333 0.186722
O O6 0.436058 0.943597 0.439055
O O7 0.387942 0.945423 0.151667
O O8 0.425905 0.020904 0.281558
O O9 0.563008 0.609998 0.731018
O O10 0.196465 0.111880 0.039868
O O11 0.089082 0.131531 0.038215
O O12 0.183903 0.250000 0.721426
O O13 0.113072 0.185928 0.811175
O O14 0.224776 0.175476 0.856734
O O15 0.500000 0.168128 0.118242
#
# Coordination Sequence:
#
# PCOD9500913 Si02
#       7
#    16  16  16  16  16   8  16
#     4  10  19  37  57  78 113 147 184 232 282 333
#     4  10  18  33  56  82 110 142 194 241 269 324
#     4   9  19  33  55  83 108 148 189 227 284 327
#     4  10  21  34  55  79 109 148 186 230 277 332
#     4  10  21  36  60  86 107 138 182 228 279 340
#     4  10  19  38  56  79 114 144 178 225 279 344
#     4  10  20  36  57  80 114 149 180 226 285 337
#
# _framework density 18.360232
#
# number of rings (size 3 to 8) (size 9 to 14) (size 15 to 20)
#    0.000    2.154    1.538    2.538    0.000    1.231 
#    0.000    9.231    3.385    0.000    0.000    0.000 
#    0.000    0.000    0.000    0.000    0.000    0.000 
#
# Total GULP energy -289637.711964 kJ/mol
# GULP energy per Si atom -5569.955999 kJ/mol
# Density = 1.831844 g / cm^3
# Si number density = 18.360232 Si / 1000 Ang^3
#
#
#
# Elastic Constant Matrix: (Units=GPa)
#
#
# Indices 1 2 3 4 5 6 
#
# 1 142.3730 33.2979 5.8686 0.0000 0.0000 0.0000
# 2 33.2979 73.6850 0.4205 0.0000 0.0000 0.0000
# 3 5.8686 0.4205 25.9704 0.0000 0.0000 0.0000
# 4 0.0000 0.0000 0.0000 7.9057 0.0000 0.0000
# 5 0.0000 0.0000 0.0000 0.0000 14.8408 0.0000
# 6 0.0000 0.0000 0.0000 0.0000 0.0000 6.0994
#
#
#
# Elastic Compliance Matrix: (Units=1/GPa)
#
#
# Indices 1 2 3 4 5 6 
#
# 1 0.007931 -0.003574 -0.001734 0.000000 0.000000 0.000000
# 2 -0.003574 0.015183 0.000562 0.000000 0.000000 0.000000
# 3 -0.001734 0.000562 0.038888 0.000000 0.000000 0.000000
# 4 0.000000 0.000000 0.000000 0.126491 0.000000 0.000000
# 5 0.000000 0.000000 0.000000 0.000000 0.067382 0.000000
# 6 0.000000 0.000000 0.000000 0.000000 0.000000 0.163951
#
#
# Mechanical properties :
#
#
# Convention : Reuss Voigt Hill
#
# Bulk Modulus (GPa) = 19.04430 35.68916 27.36673
# Shear Modulus (GPa) = 11.19011 19.26528 15.22769
#
# Velocity S-wave (km/s) = 2.47143 3.24279 2.88303
# Velocity P-wave (km/s) = 4.30570 5.78804 5.10101
#
# Compressibility (1/GPa) = 0.05250915
#
# Stress axis : x y z
#
# Youngs Moduli (GPa) = 126.08414 65.86215 25.71477
#
# Poissons Ratio (x) = 0.23540 0.04460
# Poissons Ratio (y) = 0.45065 -0.01445
# Poissons Ratio (z) = 0.21868 -0.03700
#
# Static dielectric constant tensor:
#      x y z
#    x 1.643980 0.000000 0.000000 
#    y 0.000000 1.589880 0.000000 
#    z 0.000000 0.000000 1.708490 
# 
# From -- ./inp_files/11729.got.cif
#   From: 2010.05.17/outbox.cif.g08.bks.cpg/sg67_6_cif.got.tgz:11729.got - 2010.06.03 18:28:57.
