data_PCOD9500209
_publ_section_title
;
Structure prediction by ZEFSAII (Michael W. Deem and Ramdas Pophale) SiO2 
 PCOD9500209
Probable space group: C M M A
;
_chemical_formula_sum "Si O2"
_cell_formula_units_Z 64
_cell_length_a 5.452029
_cell_length_b 18.886584
_cell_length_c 30.152739
_cell_angle_alpha 90.000000
_cell_angle_beta 90.000000
_cell_angle_gamma 90.000000
_cell_volume 3104.833676
_symmetry_space_group_name_H-M "C M M A"
_symmetry_group_IT_number 67
_symmetry_cell_setting 'orthorhombic'
loop_
_space_group_symop_operation_xyz
x,y,z
-x,1/2-y,z
x,-y,-z
-x,1/2+y,-z
-x,-y,-z
x,1/2+y,-z
-x,y,z
x,1/2-y,z
1/2+x,1/2+y,z
1/2-x,-y,z
1/2+x,1/2-y,-z
1/2-x,y,-z
1/2-x,1/2-y,-z
1/2+x,y,-z
1/2-x,1/2+y,z
1/2+x,-y,z
loop_
_atom_site_type_symbol
_atom_site_label
_atom_site_fract_x
_atom_site_fract_y
_atom_site_fract_z
Si Si1 0.500000 0.077257 0.875617
Si Si2 0.500000 0.667472 0.527574
Si Si3 0.000000 0.419816 0.018598
Si Si4 0.000000 0.481976 0.316449
Si Si5 0.000000 0.537770 0.413529
Si Si6 0.000000 0.415248 0.839015
Si Si7 0.000000 0.827645 0.694810
Si Si8 0.500000 0.170838 0.247327
O O1 0.500000 0.072437 0.928521
O O2 0.749208 0.113442 0.859897
O O3 0.500000 0.998890 0.852440
O O4 0.500000 0.750000 0.539474
O O5 0.250000 0.653532 0.500000
O O6 0.500000 0.617255 0.569865
O O7 0.000000 0.500000 0.000000
O O8 0.750000 0.386193 0.000000
O O9 0.750000 0.500000 0.291436
O O10 0.000000 0.530287 0.360308
O O11 0.000000 0.400559 0.332197
O O12 0.750000 0.500000 0.429436
O O13 0.000000 0.391834 0.788204
O O14 0.249965 0.832045 0.723780
O O15 0.000000 0.750000 0.672590
O O16 0.500000 0.250000 0.226292
#
# Coordination Sequence:
#
# PCOD9500209 Si02
#       8
#     8   8   8   8   8   8   8   8
#     4  10  19  30  45  70 109 132 161 214 264 331
#     4  10  21  37  58  87 122 160 201 240 282 337
#     4  10  16  25  41  63  94 132 170 203 249 312
#     4  10  21  40  57  86 117 146 187 242 283 343
#     4  10  21  37  58  84 121 152 195 235 293 338
#     4  10  18  32  45  68 103 132 162 202 266 319
#     4  10  21  40  60  80 107 144 184 233 281 332
#     4  10  21  37  57  78 103 138 183 222 266 330
#
# _framework density 20.613019999999999
#
# number of rings (size 3 to 8) (size 9 to 14) (size 15 to 20)
#    0.000    2.000    0.000    6.000    0.000    1.500 
#   13.500    5.000    0.000    0.000    0.000    0.000 
#    0.000   37.000    0.000    0.000    0.000    0.000 
#
# Total GULP energy -178402.270787 kJ/mol
# GULP energy per Si atom -5575.070962 kJ/mol
# Density = 2.056610 g / cm^3
# Si number density = 20.613020 Si / 1000 Ang^3
#
#
#
# Elastic Constant Matrix: (Units=GPa)
#
#
# Indices 1 2 3 4 5 6 
#
# 1 216.9191 19.3185 21.1329 0.0000 0.0000 0.0000
# 2 19.3185 49.3300 30.4905 0.0000 0.0000 0.0000
# 3 21.1329 30.4905 49.5803 0.0000 0.0000 0.0000
# 4 0.0000 0.0000 0.0000 19.9542 0.0000 0.0000
# 5 0.0000 0.0000 0.0000 0.0000 1.2657 0.0000
# 6 0.0000 0.0000 0.0000 0.0000 0.0000 16.5035
#
#
#
# Elastic Compliance Matrix: (Units=1/GPa)
#
#
# Indices 1 2 3 4 5 6 
#
# 1 0.004840 -0.001001 -0.001448 0.000000 0.000000 0.000000
# 2 -0.001001 0.032909 -0.019811 0.000000 0.000000 0.000000
# 3 -0.001448 -0.019811 0.032970 0.000000 0.000000 0.000000
# 4 0.000000 0.000000 0.000000 0.050115 0.000000 0.000000
# 5 0.000000 0.000000 0.000000 0.000000 0.790046 0.000000
# 6 0.000000 0.000000 0.000000 0.000000 0.000000 0.060593
#
#
# Mechanical properties :
#
#
# Convention : Reuss Voigt Hill
#
# Bulk Modulus (GPa) = 38.16915 50.85705 44.51310
# Shear Modulus (GPa) = 4.87936 23.87052 14.37494
#
# Velocity S-wave (km/s) = 1.54021 3.40668 2.64364
# Velocity P-wave (km/s) = 4.66050 6.34033 5.56417
#
# Compressibility (1/GPa) = 0.02619917
#
# Stress axis : x y z
#
# Youngs Moduli (GPa) = 206.60435 30.38695 30.33074
#
# Poissons Ratio (x) = 0.03041 0.04391
# Poissons Ratio (y) = 0.20675 0.60090
# Poissons Ratio (z) = 0.29909 0.60201
#
# Static dielectric constant tensor:
#      x y z
#    x 1.891610 0.000000 0.000000 
#    y 0.000000 1.986040 0.000000 
#    z 0.000000 0.000000 1.709930 
# 
# From -- ./inp_files/45137.got.cif
#   From: 2010.05.17/outbox.cif.g08.bks.cpg/sg67_23_cif.got.tgz:45137.got - 2010.06.03 18:28:57.
