data_PCOD9500881
_publ_section_title
;
Structure prediction by ZEFSAII (Michael W. Deem and Ramdas Pophale) SiO2 
 PCOD9500881
Probable space group: C M M A
;
_chemical_formula_sum "Si O2"
_cell_formula_units_Z 96
_cell_length_a 17.529502
_cell_length_b 22.584156
_cell_length_c 14.080404
_cell_angle_alpha 90.000000
_cell_angle_beta 90.000000
_cell_angle_gamma 90.000000
_cell_volume 5574.277169
_symmetry_space_group_name_H-M "C M M A"
_symmetry_group_IT_number 67
_symmetry_cell_setting 'orthorhombic'
loop_
_space_group_symop_operation_xyz
x,y,z
-x,1/2-y,z
x,-y,-z
-x,1/2+y,-z
-x,-y,-z
x,1/2+y,-z
-x,y,z
x,1/2-y,z
1/2+x,1/2+y,z
1/2-x,-y,z
1/2+x,1/2-y,-z
1/2-x,y,-z
1/2-x,1/2-y,-z
1/2+x,y,-z
1/2-x,1/2+y,z
1/2+x,-y,z
loop_
_atom_site_type_symbol
_atom_site_label
_atom_site_fract_x
_atom_site_fract_y
_atom_site_fract_z
Si Si1 0.261034 0.429783 0.105470
Si Si2 0.851621 0.441495 0.633691
Si Si3 0.592096 0.750000 0.767915
Si Si4 0.587764 0.119687 0.188758
Si Si5 0.591154 0.874325 0.458948
Si Si6 0.681998 0.574503 0.301532
Si Si7 0.092951 0.250000 0.552076
O O1 0.250000 0.500000 0.100839
O O2 0.347803 0.416914 0.135265
O O3 0.203877 0.412467 0.191922
O O4 0.250000 0.404407 0.000000
O O5 0.904206 0.401229 0.701854
O O6 0.877609 0.426983 0.527217
O O7 0.763795 0.422341 0.645921
O O8 0.850601 0.508240 0.676327
O O9 0.500000 0.750000 0.761609
O O10 0.611567 0.811559 0.817143
O O11 0.621418 0.750000 0.660221
O O12 0.500000 0.112130 0.158466
O O13 0.500000 0.877420 0.458807
O O14 0.624500 0.882238 0.354063
O O15 0.615775 0.810992 0.501632
O O16 0.000000 0.250000 0.553763
#
# Coordination Sequence:
#
# PCOD9500881 Si02
#       7
#    16  16   8  16  16  16   8
#     4  10  20  40  60  76 106 142 174 227 292 324
#     4  10  18  33  51  74 111 141 171 209 264 316
#     4   9  16  30  54  81 113 140 175 229 270 302
#     4  10  18  32  58  86 107 136 181 227 268 319
#     4  11  21  32  50  74 108 147 182 213 251 314
#     4  10  20  35  49  76 105 145 171 213 272 328
#     4   9  18  32  46  70 107 147 178 213 258 300
#
# _framework density 17.221964
#
# number of rings (size 3 to 8) (size 9 to 14) (size 15 to 20)
#    0.000    2.000    5.000    1.500    0.000    3.333 
#    0.000    7.917    0.000    0.000    0.000    3.500 
#    0.000    0.000    0.000    0.000    0.000    0.000 
#
# Total GULP energy -267331.581053 kJ/mol
# GULP energy per Si atom -5569.407939 kJ/mol
# Density = 1.718277 g / cm^3
# Si number density = 17.221964 Si / 1000 Ang^3
#
#
#
# Elastic Constant Matrix: (Units=GPa)
#
#
# Indices 1 2 3 4 5 6 
#
# 1 50.9749 42.1101 37.5514 0.0000 0.0000 0.0000
# 2 42.1101 76.4316 19.3000 0.0000 0.0000 0.0000
# 3 37.5514 19.3000 108.6755 0.0000 0.0000 0.0000
# 4 0.0000 0.0000 0.0000 3.6892 0.0000 0.0000
# 5 0.0000 0.0000 0.0000 0.0000 5.7120 0.0000
# 6 0.0000 0.0000 0.0000 0.0000 0.0000 -246.9483
#
#
#
# Elastic Compliance Matrix: (Units=1/GPa)
#
#
# Indices 1 2 3 4 5 6 
#
# 1 0.048091 -0.023347 -0.012471 0.000000 0.000000 0.000000
# 2 -0.023347 0.025032 0.003622 0.000000 0.000000 0.000000
# 3 -0.012471 0.003622 0.012868 0.000000 0.000000 0.000000
# 4 0.000000 0.000000 0.000000 0.271062 0.000000 0.000000
# 5 0.000000 0.000000 0.000000 0.000000 0.175070 0.000000
# 6 0.000000 0.000000 0.000000 0.000000 0.000000 -0.004049
#
#
# Mechanical properties :
#
#
# Convention : Reuss Voigt Hill
#
# Bulk Modulus (GPa) = 46.29938 48.22279 47.26108
# Shear Modulus (GPa) = 8.33798 -38.36807 -15.01504
#
# Velocity S-wave (km/s) = 2.20272 -4.72514 -2.95592
# Velocity P-wave (km/s) = 5.78028 1.30679 3.98145
#
# Compressibility (1/GPa) = 0.02159856
#
# Stress axis : x y z
#
# Youngs Moduli (GPa) = 20.79383 39.94875 77.71370
#
# Poissons Ratio (x) = 0.93268 0.96917
# Poissons Ratio (y) = 0.48547 -0.28145
# Poissons Ratio (z) = 0.25932 -0.14468
#
# Static dielectric constant tensor:
#      x y z
#    x 1.569830 0.000000 0.000000 
#    y 0.000000 1.620310 0.000000 
#    z 0.000000 0.000000 1.617540 
# 
# From -- ./inp_files/27278.got.cif
#   From: 2010.05.17/outbox.cif.g08.bks.cpg/sg67_14_cif.got.tgz:27278.got - 2010.06.03 18:28:57.
