data_PCOD9500843
_publ_section_title
;
Structure prediction by ZEFSAII (Michael W. Deem and Ramdas Pophale) SiO2 
 PCOD9500843
Probable space group: C M M A
;
_chemical_formula_sum "Si O2"
_cell_formula_units_Z 96
_cell_length_a 17.784619
_cell_length_b 22.266661
_cell_length_c 11.962658
_cell_angle_alpha 90.000000
_cell_angle_beta 90.000000
_cell_angle_gamma 90.000000
_cell_volume 4737.261403
_symmetry_space_group_name_H-M "C M M A"
_symmetry_group_IT_number 67
_symmetry_cell_setting 'orthorhombic'
loop_
_space_group_symop_operation_xyz
x,y,z
-x,1/2-y,z
x,-y,-z
-x,1/2+y,-z
-x,-y,-z
x,1/2+y,-z
-x,y,z
x,1/2-y,z
1/2+x,1/2+y,z
1/2-x,-y,z
1/2+x,1/2-y,-z
1/2-x,y,-z
1/2-x,1/2-y,-z
1/2+x,y,-z
1/2-x,1/2+y,z
1/2+x,-y,z
loop_
_atom_site_type_symbol
_atom_site_label
_atom_site_fract_x
_atom_site_fract_y
_atom_site_fract_z
Si Si1 0.339186 0.321902 0.521570
Si Si2 0.415539 0.984849 0.838844
Si Si3 0.695457 0.181922 0.129397
Si Si4 0.877153 0.594077 0.956658
Si Si5 0.865253 0.819245 0.777140
Si Si6 0.589166 0.375304 0.307462
O O1 0.352102 0.250000 0.506506
O O2 0.250000 0.331443 0.500000
O O3 0.364192 0.337572 0.647561
O O4 0.384982 0.359693 0.431408
O O5 0.500000 0.009729 0.820382
O O6 0.392910 0.942870 0.735500
O O7 0.358111 0.037088 0.876404
O O8 0.421178 0.939624 0.944682
O O9 0.686595 0.250000 0.086864
O O10 0.777684 0.176227 0.183792
O O11 0.635115 0.168857 0.226154
O O12 0.677766 0.134160 0.032927
O O13 0.909251 0.640626 0.866469
O O14 0.888182 0.750000 0.783872
O O15 0.500000 0.367541 0.294015
#
# Coordination Sequence:
#
# PCOD9500843 Si02
#       6
#    16  16  16  16  16  16
#     4  10  19  35  59  82 115 157 189 229 291 348
#     4   9  20  39  59  78 109 154 198 239 290 340
#     4  10  19  32  53  83 118 152 183 233 291 346
#     4  10  18  32  55  81 108 145 192 233 278 343
#     4  10  20  34  54  82 117 153 186 228 294 358
#     4  10  20  36  59  85 112 149 202 247 277 333
#
# _framework density 20.264873000000001
#
# number of rings (size 3 to 8) (size 9 to 14) (size 15 to 20)
#    0.000    2.167    1.667    2.500    0.000    3.333 
#    0.000   16.667    0.000   11.000    0.000    0.000 
#    0.000    0.000    0.000    0.000    0.000    0.000 
#
# Total GULP energy -267340.310895 kJ/mol
# GULP energy per Si atom -5569.589810 kJ/mol
# Density = 2.021875 g / cm^3
# Si number density = 20.264873 Si / 1000 Ang^3
#
#
#
# Elastic Constant Matrix: (Units=GPa)
#
#
# Indices 1 2 3 4 5 6 
#
# 1 40.5598 30.3138 10.9616 0.0000 0.0000 0.0000
# 2 30.3138 97.6585 51.9763 0.0000 0.0000 0.0000
# 3 10.9616 51.9763 140.1123 0.0000 0.0000 0.0000
# 4 0.0000 0.0000 0.0000 33.2893 0.0000 0.0000
# 5 0.0000 0.0000 0.0000 0.0000 18.8866 0.0000
# 6 0.0000 0.0000 0.0000 0.0000 0.0000 8.6034
#
#
#
# Elastic Compliance Matrix: (Units=1/GPa)
#
#
# Indices 1 2 3 4 5 6 
#
# 1 0.032350 -0.010833 0.001488 0.000000 0.000000 0.000000
# 2 -0.010833 0.016387 -0.005231 0.000000 0.000000 0.000000
# 3 0.001488 -0.005231 0.008961 0.000000 0.000000 0.000000
# 4 0.000000 0.000000 0.000000 0.030040 0.000000 0.000000
# 5 0.000000 0.000000 0.000000 0.000000 0.052948 0.000000
# 6 0.000000 0.000000 0.000000 0.000000 0.000000 0.116233
#
#
# Mechanical properties :
#
#
# Convention : Reuss Voigt Hill
#
# Bulk Modulus (GPa) = 35.03355 51.64821 43.34088
# Shear Modulus (GPa) = 16.91552 24.49445 20.70499
#
# Velocity S-wave (km/s) = 2.89229 3.48043 3.19990
# Velocity P-wave (km/s) = 5.33658 6.45702 5.92335
#
# Compressibility (1/GPa) = 0.02854407
#
# Stress axis : x y z
#
# Youngs Moduli (GPa) = 30.91233 61.02490 111.59047
#
# Poissons Ratio (x) = 0.66111 -0.16604
# Poissons Ratio (y) = 0.33489 0.58376
# Poissons Ratio (z) = -0.04600 0.31924
#
# Static dielectric constant tensor:
#      x y z
#    x 1.744610 0.000000 0.000000 
#    y 0.000000 1.749510 0.000000 
#    z 0.000000 0.000000 1.727550 
# 
# From -- ./inp_files/19661.got.cif
#   From: 2010.05.17/outbox.cif.g08.bks.cpg/sg67_10_cif.got.tgz:19661.got - 2010.06.03 18:28:57.
