data_PCOD9500327
_publ_section_title
;
Structure prediction by ZEFSAII (Michael W. Deem and Ramdas Pophale) SiO2 
 PCOD9500327
Probable space group: C M M A
;
_chemical_formula_sum "Si O2"
_cell_formula_units_Z 96
_cell_length_a 32.428612
_cell_length_b 8.566298
_cell_length_c 19.783370
_cell_angle_alpha 90.000000
_cell_angle_beta 90.000000
_cell_angle_gamma 90.000000
_cell_volume 5495.684751
_symmetry_space_group_name_H-M "C M M A"
_symmetry_group_IT_number 67
_symmetry_cell_setting 'orthorhombic'
loop_
_space_group_symop_operation_xyz
x,y,z
-x,1/2-y,z
x,-y,-z
-x,1/2+y,-z
-x,-y,-z
x,1/2+y,-z
-x,y,z
x,1/2-y,z
1/2+x,1/2+y,z
1/2-x,-y,z
1/2+x,1/2-y,-z
1/2-x,y,-z
1/2-x,1/2-y,-z
1/2+x,y,-z
1/2-x,1/2+y,z
1/2+x,-y,z
loop_
_atom_site_type_symbol
_atom_site_label
_atom_site_fract_x
_atom_site_fract_y
_atom_site_fract_z
Si Si1 0.379624 0.562810 0.667241
Si Si2 0.617690 0.560157 0.824190
Si Si3 0.207883 0.436709 0.823167
Si Si4 0.792583 0.435960 0.330874
Si Si5 0.546903 0.562771 0.424010
Si Si6 0.953026 0.938835 0.074969
O O1 0.376380 0.750000 0.666575
O O2 0.385480 0.511748 0.745693
O O3 0.336302 0.493535 0.640396
O O4 0.418371 0.508084 0.623905
O O5 0.616491 0.750000 0.823929
O O6 0.663179 0.515417 0.851374
O O7 0.580466 0.504873 0.870890
O O8 0.210038 0.250000 0.821526
O O9 0.250000 0.500000 0.855251
O O10 0.207106 0.497683 0.745879
O O11 0.791114 0.250000 0.329275
O O12 0.750000 0.500000 0.362462
O O13 0.552469 0.500000 0.500000
O O14 0.500000 0.520726 0.402771
O O15 0.550157 0.750000 0.424233
O O16 0.951953 0.750000 0.073763
O O17 0.000000 0.986190 0.092088
O O18 0.943773 0.000000 0.000000
#
# Coordination Sequence:
#
# PCOD9500327 Si02
#       6
#    16  16  16  16  16  16
#     4  10  19  32  51  76 102 129 164 205 248 291
#     4   8  16  29  46  69  96 124 155 194 238 285
#     4   9  15  25  41  63  91 122 156 193 235 283
#     4  10  17  27  44  68  99 132 164 199 241 288
#     4  10  21  37  55  75 100 132 168 204 244 292
#     4   9  17  31  49  67  89 120 157 194 235 286
#
# _framework density 17.468252
#
# number of rings (size 3 to 8) (size 9 to 14) (size 15 to 20)
#    0.000    2.667    0.000    5.000    0.000    1.667 
#    0.000    6.667    0.000    3.000    0.000    7.000 
#    0.000    0.000    0.000    0.000    0.000    0.000 
#
# Total GULP energy -267383.570829 kJ/mol
# GULP energy per Si atom -5570.491059 kJ/mol
# Density = 1.742849 g / cm^3
# Si number density = 17.468252 Si / 1000 Ang^3
#
#
#
# Elastic Constant Matrix: (Units=GPa)
#
#
# Indices 1 2 3 4 5 6 
#
# 1 198.2594 46.5390 76.6350 0.0000 0.0000 0.0000
# 2 46.5390 59.5899 17.0472 0.0000 0.0000 0.0000
# 3 76.6350 17.0472 46.2290 0.0000 0.0000 0.0000
# 4 0.0000 0.0000 0.0000 18.2364 0.0000 0.0000
# 5 0.0000 0.0000 0.0000 0.0000 -8.4359 0.0000
# 6 0.0000 0.0000 0.0000 0.0000 0.0000 -16.5426
#
#
#
# Elastic Compliance Matrix: (Units=1/GPa)
#
#
# Indices 1 2 3 4 5 6 
#
# 1 0.015396 -0.005280 -0.023576 0.000000 0.000000 0.000000
# 2 -0.005280 0.020571 0.001167 0.000000 0.000000 0.000000
# 3 -0.023576 0.001167 0.060283 0.000000 0.000000 0.000000
# 4 0.000000 0.000000 0.000000 0.054835 0.000000 0.000000
# 5 0.000000 0.000000 0.000000 0.000000 -0.118541 0.000000
# 6 0.000000 0.000000 0.000000 0.000000 0.000000 -0.060450
#
#
# Mechanical properties :
#
#
# Convention : Reuss Voigt Hill
#
# Bulk Modulus (GPa) = 24.46598 64.94672 44.70635
# Shear Modulus (GPa) = 121.66295 9.57539 65.61917
#
# Velocity S-wave (km/s) = 8.35459 2.34382 6.13566
# Velocity P-wave (km/s) = 10.34901 6.67722 8.70883
#
# Compressibility (1/GPa) = 0.04087308
#
# Stress axis : x y z
#
# Youngs Moduli (GPa) = 64.95096 48.61206 16.58831
#
# Poissons Ratio (x) = 0.25666 0.39108
# Poissons Ratio (y) = 0.34293 -0.01936
# Poissons Ratio (z) = 1.53127 -0.05672
#
# Static dielectric constant tensor:
#      x y z
#    x 1.621770 0.000000 0.000000 
#    y 0.000000 1.591170 0.000000 
#    z 0.000000 0.000000 1.560880 
# 
# From -- ./inp_files/42701.got.cif
#   From: 2010.05.17/outbox.cif.g08.bks.cpg/sg67_22_cif.got.tgz:42701.got - 2010.06.03 18:28:57.
