data_PCOD9500606
_publ_section_title
;
Structure prediction by ZEFSAII (Michael W. Deem and Ramdas Pophale) SiO2 
 PCOD9500606
Probable space group: C M M A
;
_chemical_formula_sum "Si O2"
_cell_formula_units_Z 76
_cell_length_a 22.664748
_cell_length_b 17.171893
_cell_length_c 10.689793
_cell_angle_alpha 90.000000
_cell_angle_beta 90.000000
_cell_angle_gamma 90.000000
_cell_volume 4160.431385
_symmetry_space_group_name_H-M "C M M A"
_symmetry_group_IT_number 67
_symmetry_cell_setting 'orthorhombic'
loop_
_space_group_symop_operation_xyz
x,y,z
-x,1/2-y,z
x,-y,-z
-x,1/2+y,-z
-x,-y,-z
x,1/2+y,-z
-x,y,z
x,1/2-y,z
1/2+x,1/2+y,z
1/2-x,-y,z
1/2+x,1/2-y,-z
1/2-x,y,-z
1/2-x,1/2-y,-z
1/2+x,y,-z
1/2-x,1/2+y,z
1/2+x,-y,z
loop_
_atom_site_type_symbol
_atom_site_label
_atom_site_fract_x
_atom_site_fract_y
_atom_site_fract_z
Si Si1 0.109978 0.250000 0.522784
Si Si2 0.617620 0.907685 0.230646
Si Si3 0.500000 0.250000 0.284603
Si Si4 0.000000 0.473725 0.355867
Si Si5 0.098025 0.000000 0.000000
Si Si6 0.180956 0.908646 0.527024
Si Si7 0.930322 0.250000 0.230803
Si Si8 0.500000 0.404946 0.132495
O O1 0.057176 0.250000 0.623789
O O2 0.146354 0.166980 0.532202
O O3 0.083753 0.250000 0.380812
O O4 0.559744 0.928909 0.316101
O O5 0.670595 0.899575 0.325614
O O6 0.599544 0.825652 0.174060
O O7 0.630025 0.968951 0.122337
O O8 0.500000 0.320876 0.188648
O O9 0.000000 0.500000 0.500000
O O10 0.000000 0.544243 0.259145
O O11 0.055355 0.068469 0.950176
O O12 0.250000 0.902937 0.500000
O O13 0.161836 0.000000 0.500000
O O14 0.000000 0.250000 0.212603
#
# Coordination Sequence:
#
# PCOD9500606 Si02
#       8
#     8  16   4   8   8  16   8   8
#     4  10  23  36  56  91 133 147 190 253 308 389
#     4  10  20  33  57  79 118 156 192 245 287 358
#     4  12  24  34  54  94 126 158 182 238 334 366
#     4  10  19  28  50  80 115 150 186 233 304 351
#     4   9  20  40  50  79 116 160 207 233 286 350
#     4  10  22  39  62  89 117 157 205 252 311 350
#     4  10  18  30  47  84 114 156 191 225 288 364
#     4   9  22  33  47  78 121 158 190 233 283 370
#
# _framework density 18.267334999999999
#
# number of rings (size 3 to 8) (size 9 to 14) (size 15 to 20)
#    0.000    2.105    1.579    1.579   11.789    0.842 
#    0.000    0.526    0.000    2.526    0.000    1.474 
#    0.000    0.000    0.000    0.000    0.000    0.000 
#
# Total GULP energy -211594.186978 kJ/mol
# GULP energy per Si atom -5568.268078 kJ/mol
# Density = 1.822576 g / cm^3
# Si number density = 18.267335 Si / 1000 Ang^3
#
#
#
# Elastic Constant Matrix: (Units=GPa)
#
#
# Indices 1 2 3 4 5 6 
#
# 1 79.2401 41.9866 35.2643 0.0000 0.0000 0.0000
# 2 41.9866 134.2833 25.4856 0.0000 0.0000 0.0000
# 3 35.2643 25.4856 85.2045 0.0000 0.0000 0.0000
# 4 0.0000 0.0000 0.0000 20.4823 0.0000 0.0000
# 5 0.0000 0.0000 0.0000 0.0000 85.8143 0.0000
# 6 0.0000 0.0000 0.0000 0.0000 0.0000 76.6858
#
#
#
# Elastic Compliance Matrix: (Units=1/GPa)
#
#
# Indices 1 2 3 4 5 6 
#
# 1 0.017593 -0.004367 -0.005975 0.000000 0.000000 0.000000
# 2 -0.004367 0.008979 -0.000878 0.000000 0.000000 0.000000
# 3 -0.005975 -0.000878 0.014472 0.000000 0.000000 0.000000
# 4 0.000000 0.000000 0.000000 0.048823 0.000000 0.000000
# 5 0.000000 0.000000 0.000000 0.000000 0.011653 0.000000
# 6 0.000000 0.000000 0.000000 0.000000 0.000000 0.013040
#
#
# Mechanical properties :
#
#
# Convention : Reuss Voigt Hill
#
# Bulk Modulus (GPa) = 53.75364 56.02232 54.88798
# Shear Modulus (GPa) = 34.91579 49.66257 42.28918
#
# Velocity S-wave (km/s) = 4.37667 5.21973 4.81668
# Velocity P-wave (km/s) = 7.41824 8.18914 7.81321
#
# Compressibility (1/GPa) = 0.01860339
#
# Stress axis : x y z
#
# Youngs Moduli (GPa) = 56.84146 111.37074 69.09800
#
# Poissons Ratio (x) = 0.48633 0.41287
# Poissons Ratio (y) = 0.24821 0.06070
# Poissons Ratio (z) = 0.33964 0.09783
#
# Static dielectric constant tensor:
#      x y z
#    x 1.622980 0.000000 0.000000 
#    y 0.000000 2.182840 0.000000 
#    z 0.000000 0.000000 1.628750 
# 
# From -- ./inp_files/13613.got.cif
#   From: 2010.05.17/outbox.cif.g08.bks.cpg/sg67_7_cif.got.tgz:13613.got - 2010.06.03 18:28:57.
