data_PCOD9500306
_publ_section_title
;
Structure prediction by ZEFSAII (Michael W. Deem and Ramdas Pophale) SiO2 
 PCOD9500306
Probable space group: C M M A
;
_chemical_formula_sum "Si O2"
_cell_formula_units_Z 80
_cell_length_a 29.096491
_cell_length_b 8.406048
_cell_length_c 19.972589
_cell_angle_alpha 90.000000
_cell_angle_beta 90.000000
_cell_angle_gamma 90.000000
_cell_volume 4885.025639
_symmetry_space_group_name_H-M "C M M A"
_symmetry_group_IT_number 67
_symmetry_cell_setting 'orthorhombic'
loop_
_space_group_symop_operation_xyz
x,y,z
-x,1/2-y,z
x,-y,-z
-x,1/2+y,-z
-x,-y,-z
x,1/2+y,-z
-x,y,z
x,1/2-y,z
1/2+x,1/2+y,z
1/2-x,-y,z
1/2+x,1/2-y,-z
1/2-x,y,-z
1/2-x,1/2-y,-z
1/2+x,y,-z
1/2-x,1/2+y,z
1/2+x,-y,z
loop_
_atom_site_type_symbol
_atom_site_label
_atom_site_fract_x
_atom_site_fract_y
_atom_site_fract_z
Si Si1 0.946992 0.560130 0.572848
Si Si2 0.697328 0.560109 0.069789
Si Si3 0.626785 0.564442 0.671027
Si Si4 0.696826 0.059185 0.214571
Si Si5 0.202201 0.940898 0.575803
O O1 0.928822 0.500000 0.500000
O O2 0.945889 0.750000 0.569505
O O3 0.919251 0.509490 0.639315
O O4 0.000000 0.504727 0.577463
O O5 0.696667 0.750000 0.071295
O O6 0.750000 0.500000 0.068267
O O7 0.680542 0.491443 0.140317
O O8 0.675708 0.500000 0.000000
O O9 0.618349 0.750000 0.683413
O O10 0.657624 0.500674 0.733328
O O11 0.661773 0.533778 0.610778
O O12 0.699124 0.250000 0.219416
O O13 0.750000 0.000000 0.224807
O O14 0.197816 0.750000 0.580076
O O15 0.202762 0.000000 0.500000
O O16 0.250000 0.000000 0.607360
#
# Coordination Sequence:
#
# PCOD9500306 Si02
#       5
#    16  16  16  16  16
#     4  10  21  37  56  75  94 118 152 196 244 292
#     4  10  17  27  44  64  90 124 162 199 232 268
#     4  11  22  34  49  69  94 123 154 191 236 284
#     4  10  20  32  46  67  96 129 163 196 232 274
#     4  11  21  33  47  63  87 118 155 193 228 271
#
# _framework density 16.376577999999999
#
# number of rings (size 3 to 8) (size 9 to 14) (size 15 to 20)
#    0.000    1.600    0.000    9.000    0.000    6.000 
#    0.000    0.000    0.000    0.000    0.000    0.000 
#    0.000    0.800    0.000    2.600    0.000    4.200 
#
# Total GULP energy -222824.091158 kJ/mol
# GULP energy per Si atom -5570.602279 kJ/mol
# Density = 1.633930 g / cm^3
# Si number density = 16.376578 Si / 1000 Ang^3
#
#
#
# Elastic Constant Matrix: (Units=GPa)
#
#
# Indices 1 2 3 4 5 6 
#
# 1 58.7007 5.0273 40.8050 0.0000 0.0000 0.0000
# 2 5.0273 40.8597 11.4355 0.0000 0.0000 0.0000
# 3 40.8050 11.4355 122.8899 0.0000 0.0000 0.0000
# 4 0.0000 0.0000 0.0000 30.7346 0.0000 0.0000
# 5 0.0000 0.0000 0.0000 0.0000 -16.5798 0.0000
# 6 0.0000 0.0000 0.0000 0.0000 0.0000 18.3940
#
#
#
# Elastic Compliance Matrix: (Units=1/GPa)
#
#
# Indices 1 2 3 4 5 6 
#
# 1 0.022166 -0.000685 -0.007296 0.000000 0.000000 0.000000
# 2 -0.000685 0.025150 -0.002113 0.000000 0.000000 0.000000
# 3 -0.007296 -0.002113 0.010757 0.000000 0.000000 0.000000
# 4 0.000000 0.000000 0.000000 0.032537 0.000000 0.000000
# 5 0.000000 0.000000 0.000000 0.000000 -0.060314 0.000000
# 6 0.000000 0.000000 0.000000 0.000000 0.000000 0.054365
#
#
# Mechanical properties :
#
#
# Convention : Reuss Voigt Hill
#
# Bulk Modulus (GPa) = 26.39659 37.44291 31.91975
# Shear Modulus (GPa) = 42.56144 17.52192 30.04168
#
# Velocity S-wave (km/s) = 5.10349 3.27454 4.28767
# Velocity P-wave (km/s) = 7.13309 6.10001 6.63668
#
# Compressibility (1/GPa) = 0.03788369
#
# Stress axis : x y z
#
# Youngs Moduli (GPa) = 45.11356 39.76208 92.96519
#
# Poissons Ratio (x) = 0.02725 0.67832
# Poissons Ratio (y) = 0.03091 0.19641
# Poissons Ratio (z) = 0.32917 0.08401
#
# Static dielectric constant tensor:
#      x y z
#    x 1.246150 0.000000 0.000000 
#    y 0.000000 1.560200 0.000000 
#    z 0.000000 0.000000 1.587870 
# 
# From -- ./inp_files/36071.got.cif
#   From: 2010.05.17/outbox.cif.g08.bks.cpg/sg67_19_cif.got.tgz:36071.got - 2010.06.03 18:28:57.
