data_PCOD9500629
_publ_section_title
;
Structure prediction by ZEFSAII (Michael W. Deem and Ramdas Pophale) SiO2 
 PCOD9500629
Probable space group: C M M A
;
_chemical_formula_sum "Si O2"
_cell_formula_units_Z 56
_cell_length_a 38.518600
_cell_length_b 8.603951
_cell_length_c 9.460035
_cell_angle_alpha 90.000000
_cell_angle_beta 90.000000
_cell_angle_gamma 90.000000
_cell_volume 3135.170510
_symmetry_space_group_name_H-M "C M M A"
_symmetry_group_IT_number 67
_symmetry_cell_setting 'orthorhombic'
loop_
_space_group_symop_operation_xyz
x,y,z
-x,1/2-y,z
x,-y,-z
-x,1/2+y,-z
-x,-y,-z
x,1/2+y,-z
-x,y,z
x,1/2-y,z
1/2+x,1/2+y,z
1/2-x,-y,z
1/2+x,1/2-y,-z
1/2-x,y,-z
1/2-x,1/2-y,-z
1/2+x,y,-z
1/2-x,1/2+y,z
1/2+x,-y,z
loop_
_atom_site_type_symbol
_atom_site_label
_atom_site_fract_x
_atom_site_fract_y
_atom_site_fract_z
Si Si1 0.500000 0.564393 0.161084
Si Si2 0.638501 0.437417 0.340896
Si Si3 0.785428 0.564020 0.339151
Si Si4 0.927732 0.062968 0.840476
O O1 0.500000 0.750000 0.158841
O O2 0.463879 0.501434 0.222791
O O3 0.500000 0.500000 0.000000
O O4 0.635486 0.500000 0.500000
O O5 0.637967 0.250000 0.347013
O O6 0.676644 0.482103 0.280888
O O7 0.605894 0.487745 0.247701
O O8 0.785962 0.500000 0.500000
O O9 0.783174 0.750000 0.343227
O O10 0.750000 0.500000 0.271517
O O11 0.929458 0.250000 0.844263
O O12 0.924643 0.000000 0.000000
#
# Coordination Sequence:
#
# PCOD9500629 Si02
#       4
#     8  16  16  16
#     4  10  18  30  49  72  93 120 156 194 230 274
#     4   9  19  32  48  70  98 125 155 193 235 277
#     4   9  15  25  41  64  90 119 152 189 227 269
#     4  10  19  33  51  72  95 123 156 194 233 276
#
# _framework density 17.861868000000001
#
# number of rings (size 3 to 8) (size 9 to 14) (size 15 to 20)
#    0.000    2.571    0.000    5.571    0.000    3.429 
#    0.000    0.714    0.000    0.857    0.000    6.000 
#    0.000    0.000    0.000    0.000    0.000    0.000 
#
# Total GULP energy -155937.561437 kJ/mol
# GULP energy per Si atom -5569.198623 kJ/mol
# Density = 1.782121 g / cm^3
# Si number density = 17.861868 Si / 1000 Ang^3
#
#
#
# Elastic Constant Matrix: (Units=GPa)
#
#
# Indices 1 2 3 4 5 6 
#
# 1 242.4140 52.0070 52.1967 0.0000 0.0000 0.0000
# 2 52.0070 62.9141 10.0616 0.0000 0.0000 0.0000
# 3 52.1967 10.0616 27.0321 0.0000 0.0000 0.0000
# 4 0.0000 0.0000 0.0000 14.4221 0.0000 0.0000
# 5 0.0000 0.0000 0.0000 0.0000 35.3895 0.0000
# 6 0.0000 0.0000 0.0000 0.0000 0.0000 31.3148
#
#
#
# Elastic Compliance Matrix: (Units=1/GPa)
#
#
# Indices 1 2 3 4 5 6 
#
# 1 0.008085 -0.004452 -0.013954 0.000000 0.000000 0.000000
# 2 -0.004452 0.019352 0.001393 0.000000 0.000000 0.000000
# 3 -0.013954 0.001393 0.063419 0.000000 0.000000 0.000000
# 4 0.000000 0.000000 0.000000 0.069338 0.000000 0.000000
# 5 0.000000 0.000000 0.000000 0.000000 0.028257 0.000000
# 6 0.000000 0.000000 0.000000 0.000000 0.000000 0.031934
#
#
# Mechanical properties :
#
#
# Convention : Reuss Voigt Hill
#
# Bulk Modulus (GPa) = 17.59649 62.32120 39.95884
# Shear Modulus (GPa) = 18.29130 30.76494 24.52812
#
# Velocity S-wave (km/s) = 3.20354 4.15466 3.70971
# Velocity P-wave (km/s) = 4.85349 7.61455 6.38505
#
# Compressibility (1/GPa) = 0.05682952
#
# Stress axis : x y z
#
# Youngs Moduli (GPa) = 123.68838 51.67487 15.76813
#
# Poissons Ratio (x) = 0.23003 0.22003
# Poissons Ratio (y) = 0.55061 -0.02196
# Poissons Ratio (z) = 1.72597 -0.07197
#
# Static dielectric constant tensor:
#      x y z
#    x 1.704920 0.000000 0.000000 
#    y 0.000000 1.596060 0.000000 
#    z 0.000000 0.000000 1.578900 
# 
# From -- ./inp_files/15722.got.cif
#   From: 2010.05.17/outbox.cif.g08.bks.cpg/sg67_8_cif.got.tgz:15722.got - 2010.06.03 18:28:57.
