data_PCOD9500237
_publ_section_title
;
Structure prediction by ZEFSAII (Michael W. Deem and Ramdas Pophale) SiO2 
 PCOD9500237
Probable space group: C M M A
;
_chemical_formula_sum "Si O2"
_cell_formula_units_Z 64
_cell_length_a 14.628670
_cell_length_b 5.455557
_cell_length_c 37.471013
_cell_angle_alpha 90.000000
_cell_angle_beta 90.000000
_cell_angle_gamma 90.000000
_cell_volume 2990.469482
_symmetry_space_group_name_H-M "C M M A"
_symmetry_group_IT_number 67
_symmetry_cell_setting 'orthorhombic'
loop_
_space_group_symop_operation_xyz
x,y,z
-x,1/2-y,z
x,-y,-z
-x,1/2+y,-z
-x,-y,-z
x,1/2+y,-z
-x,y,z
x,1/2-y,z
1/2+x,1/2+y,z
1/2-x,-y,z
1/2+x,1/2-y,-z
1/2-x,y,-z
1/2-x,1/2-y,-z
1/2+x,y,-z
1/2-x,1/2+y,z
1/2+x,-y,z
loop_
_atom_site_type_symbol
_atom_site_label
_atom_site_fract_x
_atom_site_fract_y
_atom_site_fract_z
Si Si1 0.356015 0.250000 0.014877
Si Si2 0.891040 0.250000 0.826890
Si Si3 0.151181 0.250000 0.294442
Si Si4 0.139764 0.250000 0.676190
Si Si5 0.609963 0.750000 0.519363
Si Si6 0.611861 0.750000 0.212800
Si Si7 0.191662 0.250000 0.904558
Si Si8 0.808876 0.750000 0.402145
O O1 0.358907 0.250000 0.057508
O O2 0.396225 0.500000 0.000000
O O3 0.250000 0.250000 0.000000
O O4 0.860555 0.502379 0.808001
O O5 0.865385 0.250000 0.868316
O O6 0.000000 0.250000 0.823825
O O7 0.104333 0.499263 0.307196
O O8 0.251758 0.250000 0.312826
O O9 0.155633 0.250000 0.251914
O O10 0.131107 0.250000 0.633688
O O11 0.500000 0.750000 0.517587
O O12 0.641730 0.500000 0.500000
O O13 0.639465 0.750000 0.560372
O O14 0.500000 0.750000 0.216512
O O15 0.250000 0.500000 0.904425
O O16 0.750000 0.500000 0.400510
#
# Coordination Sequence:
#
# PCOD9500237 Si02
#       8
#     8   8   8   8   8   8   8   8
#     4  10  16  30  51  77 109 147 170 226 283 326
#     4  10  23  42  57  78 119 155 183 232 292 339
#     4  10  18  35  56  79 105 147 179 225 280 329
#     4  10  19  35  54  79 118 144 170 229 294 323
#     4  10  23  42  60  85 121 156 194 241 287 332
#     4  10  21  40  60  78 108 154 194 225 276 347
#     4  12  21  35  57  88 112 141 194 235 275 335
#     4  12  21  37  63  86 121 155 191 234 287 346
#
# _framework density 21.401320999999999
#
# number of rings (size 3 to 8) (size 9 to 14) (size 15 to 20)
#    0.000    1.500    5.000    2.250    0.000    1.500 
#   13.500    1.250    0.000    0.750    0.000    0.000 
#    0.000    0.000    0.000    0.000    0.000    0.000 
#
# Total GULP energy -178820.677506 kJ/mol
# GULP energy per Si atom -5588.146172 kJ/mol
# Density = 2.135261 g / cm^3
# Si number density = 21.401321 Si / 1000 Ang^3
#
#
#
# Elastic Constant Matrix: (Units=GPa)
#
#
# Indices 1 2 3 4 5 6 
#
# 1 55.1848 19.8202 12.3120 0.0000 0.0000 0.0000
# 2 19.8202 261.1254 96.2363 0.0000 0.0000 0.0000
# 3 12.3120 96.2363 228.1513 0.0000 0.0000 0.0000
# 4 0.0000 0.0000 0.0000 49.3000 0.0000 0.0000
# 5 0.0000 0.0000 0.0000 0.0000 403.9262 0.0000
# 6 0.0000 0.0000 0.0000 0.0000 0.0000 -15.4370
#
#
#
# Elastic Compliance Matrix: (Units=1/GPa)
#
#
# Indices 1 2 3 4 5 6 
#
# 1 0.018674 -0.001239 -0.000485 0.000000 0.000000 0.000000
# 2 -0.001239 0.004617 -0.001881 0.000000 0.000000 0.000000
# 3 -0.000485 -0.001881 0.005202 0.000000 0.000000 0.000000
# 4 0.000000 0.000000 0.000000 0.020284 0.000000 0.000000
# 5 0.000000 0.000000 0.000000 0.000000 0.002476 0.000000
# 6 0.000000 0.000000 0.000000 0.000000 0.000000 -0.064779
#
#
# Mechanical properties :
#
#
# Convention : Reuss Voigt Hill
#
# Bulk Modulus (GPa) = 46.98270 89.02204 68.00237
# Shear Modulus (GPa) = 6435.82623 115.29736 3275.56180
#
# Velocity S-wave (km/s) = 54.89752 7.34785 39.16458
# Velocity P-wave (km/s) = 63.56350 10.66183 45.57408
#
# Compressibility (1/GPa) = 0.02128443
#
# Stress axis : x y z
#
# Youngs Moduli (GPa) = 53.55025 216.60794 192.21690
#
# Poissons Ratio (x) = 0.26828 0.09328
# Poissons Ratio (y) = 0.06633 0.36146
# Poissons Ratio (z) = 0.02599 0.40733
#
# Static dielectric constant tensor:
#      x y z
#    x 1.782970 0.000000 0.000000 
#    y 0.000000 1.758070 0.000000 
#    z 0.000000 0.000000 1.743170 
# 
# From -- ./inp_files/45747.got.cif
#   From: 2010.05.17/outbox.cif.g08.bks.cpg/sg67_23_cif.got.tgz:45747.got - 2010.06.03 18:28:57.
