data_PCOD9500008
_publ_section_title
;
Structure prediction by ZEFSAII (Michael W. Deem and Ramdas Pophale) SiO2 
 PCOD9500008
Probable space group: C C C M
;
_chemical_formula_sum "Si O2"
_cell_formula_units_Z 32
_cell_length_a 14.819397
_cell_length_b 4.782534
_cell_length_c 18.525318
_cell_angle_alpha 90.000000
_cell_angle_beta 90.000000
_cell_angle_gamma 90.000000
_cell_volume 1312.968390
_symmetry_space_group_name_H-M "C C C M"
_symmetry_group_IT_number 66
_symmetry_cell_setting 'orthorhombic'
loop_
_space_group_symop_operation_xyz
x,y,z
-x,-y,z
x,-y,1/2-z
-x,y,1/2-z
-x,-y,-z
x,y,-z
-x,y,1/2+z
x,-y,1/2+z
1/2+x,1/2+y,z
1/2-x,1/2-y,z
1/2+x,1/2-y,1/2-z
1/2-x,1/2+y,1/2-z
1/2-x,1/2-y,-z
1/2+x,1/2+y,-z
1/2-x,1/2+y,1/2+z
1/2+x,1/2-y,1/2+z
loop_
_atom_site_type_symbol
_atom_site_label
_atom_site_fract_x
_atom_site_fract_y
_atom_site_fract_z
Si Si1 0.939037 0.760932 0.128823
Si Si2 0.187702 0.500000 0.250000
Si Si3 0.820629 0.994045 0.000000
O O1 0.872121 0.625010 0.186241
O O2 0.000000 0.500000 0.100380
O O3 0.000000 0.000000 0.164741
O O4 0.884870 0.935818 0.068433
O O5 0.250000 0.250000 0.278808
O O6 0.750000 0.250000 0.000000
O O7 0.750000 0.750000 0.000000
#
# Coordination Sequence:
#
# PCOD9500008 Si02
#       3
#    16   8   8
#     4  12  26  48  75 108 147 195 247 305 370 443
#     4  12  27  48  73 110 152 198 246 302 369 446
#     4  12  26  48  76 110 147 194 247 308 370 438
#
# _framework density 24.372254999999999
#
# number of rings (size 3 to 8) (size 9 to 14) (size 15 to 20)
#    0.000    0.000    0.000    9.750    0.000    6.000 
#    0.000    0.000    0.000    0.000    0.000    0.000 
#    0.000    0.000    0.000    0.000    0.000    0.000 
#
# Total GULP energy -89656.426039 kJ/mol
# GULP energy per Si atom -5603.526627 kJ/mol
# Density = 2.431678 g / cm^3
# Si number density = 24.372255 Si / 1000 Ang^3
#
#
#
# Elastic Constant Matrix: (Units=GPa)
#
#
# Indices 1 2 3 4 5 6 
#
# 1 164.0812 112.1399 90.2882 0.0000 0.0000 0.0000
# 2 112.1399 246.4027 66.1132 0.0000 0.0000 0.0000
# 3 90.2882 66.1132 164.7162 0.0000 0.0000 0.0000
# 4 0.0000 0.0000 0.0000 26.3552 0.0000 0.0000
# 5 0.0000 0.0000 0.0000 0.0000 22.3329 0.0000
# 6 0.0000 0.0000 0.0000 0.0000 0.0000 103.4679
#
#
#
# Elastic Compliance Matrix: (Units=1/GPa)
#
#
# Indices 1 2 3 4 5 6 
#
# 1 0.011314 -0.003906 -0.004634 0.000000 0.000000 0.000000
# 2 -0.003906 0.005896 -0.000226 0.000000 0.000000 0.000000
# 3 -0.004634 -0.000226 0.008702 0.000000 0.000000 0.000000
# 4 0.000000 0.000000 0.000000 0.037943 0.000000 0.000000
# 5 0.000000 0.000000 0.000000 0.000000 0.044777 0.000000
# 6 0.000000 0.000000 0.000000 0.000000 0.000000 0.009665
#
#
# Mechanical properties :
#
#
# Convention : Reuss Voigt Hill
#
# Bulk Modulus (GPa) = 119.31552 123.58697 121.45125
# Shear Modulus (GPa) = 36.06946 50.87511 43.47228
#
# Velocity S-wave (km/s) = 3.85117 4.57378 4.22794
# Velocity P-wave (km/s) = 8.29681 8.87191 8.58918
#
# Compressibility (1/GPa) = 0.00838114
#
# Stress axis : x y z
#
# Youngs Moduli (GPa) = 88.38861 169.59280 114.91933
#
# Poissons Ratio (x) = 0.66236 0.53253
# Poissons Ratio (y) = 0.34521 0.02596
# Poissons Ratio (z) = 0.40958 0.03831
#
# Static dielectric constant tensor:
#      x y z
#    x 1.966150 0.000000 0.000000 
#    y 0.000000 1.879090 0.000000 
#    z 0.000000 0.000000 1.850820 
# 
# From -- ./inp_files/39306.got.cif
#   From: 2010.05.17/outbox.cif.g08.bks.cpg/sg66_20_cif.got.tgz:39306.got - 2010.06.03 17:51:23.
