data_PCOD9500815
_publ_section_title
;
Structure prediction by ZEFSAII (Michael W. Deem and Ramdas Pophale) SiO2 
 PCOD9500815
Probable space group: C M M A
;
_chemical_formula_sum "Si O2"
_cell_formula_units_Z 120
_cell_length_a 8.828640
_cell_length_b 30.177731
_cell_length_c 25.864851
_cell_angle_alpha 90.000000
_cell_angle_beta 90.000000
_cell_angle_gamma 90.000000
_cell_volume 6891.128877
_symmetry_space_group_name_H-M "C M M A"
_symmetry_group_IT_number 67
_symmetry_cell_setting 'orthorhombic'
loop_
_space_group_symop_operation_xyz
x,y,z
-x,1/2-y,z
x,-y,-z
-x,1/2+y,-z
-x,-y,-z
x,1/2+y,-z
-x,y,z
x,1/2-y,z
1/2+x,1/2+y,z
1/2-x,-y,z
1/2+x,1/2-y,-z
1/2-x,y,-z
1/2-x,1/2-y,-z
1/2+x,y,-z
1/2-x,1/2+y,z
1/2+x,-y,z
loop_
_atom_site_type_symbol
_atom_site_label
_atom_site_fract_x
_atom_site_fract_y
_atom_site_fract_z
Si Si1 0.818506 0.250000 0.443083
Si Si2 0.173107 0.454111 0.164660
Si Si3 0.181479 0.847373 0.557312
Si Si4 0.815342 0.198541 0.744715
Si Si5 0.182992 0.641761 0.154257
Si Si6 0.826031 0.045414 0.289383
Si Si7 0.817547 0.801406 0.054890
Si Si8 0.180142 0.370998 0.659540
O O1 0.750000 0.250000 0.500000
O O2 0.772239 0.297794 0.422687
O O3 0.000000 0.250000 0.445241
O O4 0.250000 0.500000 0.146666
O O5 0.256110 0.408181 0.151886
O O6 0.172041 0.455896 0.227185
O O7 0.000000 0.452502 0.146527
O O8 0.250000 0.854281 0.500000
O O9 0.244243 0.876745 0.603503
O O10 0.000000 0.849861 0.553479
O O11 0.765289 0.250000 0.746305
O O12 0.767622 0.169455 0.794679
O O13 0.768498 0.171825 0.693189
O O14 0.000000 0.199208 0.745297
O O15 0.229681 0.668840 0.103269
O O16 0.000000 0.640162 0.156092
O O17 0.726987 0.086738 0.306957
O O18 0.000000 0.049718 0.307110
O O19 0.750000 0.000000 0.308022
O O20 0.773084 0.750000 0.063487
O O21 0.000000 0.802762 0.051936
O O22 0.750000 0.815757 0.000000
O O23 0.000000 0.368105 0.653332
#
# Coordination Sequence:
#
# PCOD9500815 Si02
#       8
#     8  16  16  16  16  16  16  16
#     4   8  16  30  48  68  92 126 168 214 257 296
#     4  10  20  33  52  77 106 137 173 216 265 317
#     4  10  20  35  52  72  99 134 176 221 265 310
#     4   9  18  31  48  74 107 142 178 214 254 308
#     4  10  18  32  54  77 106 142 181 221 265 314
#     4  10  20  35  55  78 106 136 172 216 263 314
#     4   9  18  32  52  78 107 144 187 229 267 308
#     4  11  21  33  53  79 107 139 175 214 261 314
#
# _framework density 17.413692000000001
#
# number of rings (size 3 to 8) (size 9 to 14) (size 15 to 20)
#    0.000    2.267    1.333    2.000    0.933    3.733 
#    0.000    0.000    0.000    3.600    0.000    5.600 
#    0.000    0.000    0.000    0.000    0.000    0.000 
#
# Total GULP energy -334321.597352 kJ/mol
# GULP energy per Si atom -5572.026623 kJ/mol
# Density = 1.737406 g / cm^3
# Si number density = 17.413692 Si / 1000 Ang^3
#
#
#
# Elastic Constant Matrix: (Units=GPa)
#
#
# Indices 1 2 3 4 5 6 
#
# 1 35.9640 21.7194 30.8405 0.0000 0.0000 0.0000
# 2 21.7194 107.2836 44.3909 0.0000 0.0000 0.0000
# 3 30.8405 44.3909 98.2828 0.0000 0.0000 0.0000
# 4 0.0000 0.0000 0.0000 8.4419 0.0000 0.0000
# 5 0.0000 0.0000 0.0000 0.0000 22.5900 0.0000
# 6 0.0000 0.0000 0.0000 0.0000 0.0000 25.6876
#
#
#
# Elastic Compliance Matrix: (Units=1/GPa)
#
#
# Indices 1 2 3 4 5 6 
#
# 1 0.039076 -0.003489 -0.010686 0.000000 0.000000 0.000000
# 2 -0.003489 0.011775 -0.004223 0.000000 0.000000 0.000000
# 3 -0.010686 -0.004223 0.015435 0.000000 0.000000 0.000000
# 4 0.000000 0.000000 0.000000 0.118457 0.000000 0.000000
# 5 0.000000 0.000000 0.000000 0.000000 0.044267 0.000000
# 6 0.000000 0.000000 0.000000 0.000000 0.000000 0.038929
#
#
# Mechanical properties :
#
#
# Convention : Reuss Voigt Hill
#
# Bulk Modulus (GPa) = 33.91043 48.38134 41.14588
# Shear Modulus (GPa) = 15.89483 20.98255 18.43869
#
# Velocity S-wave (km/s) = 3.02450 3.47500 3.25755
# Velocity P-wave (km/s) = 5.63138 6.62908 6.15049
#
# Compressibility (1/GPa) = 0.02948946
#
# Stress axis : x y z
#
# Youngs Moduli (GPa) = 25.59087 84.92532 64.78601
#
# Poissons Ratio (x) = 0.29634 0.69229
# Poissons Ratio (y) = 0.08930 0.27362
# Poissons Ratio (z) = 0.27346 0.35867
#
# Static dielectric constant tensor:
#      x y z
#    x 1.600470 0.000000 0.000000 
#    y 0.000000 1.607480 0.000000 
#    z 0.000000 0.000000 1.573520 
# 
# From -- ./inp_files/43948.got.cif
#   From: 2010.05.17/outbox.cif.g08.bks.cpg/sg67_22_cif.got.tgz:43948.got - 2010.06.03 18:28:57.
