data_PCOD9500045
_publ_section_title
;
Structure prediction by ZEFSAII (Michael W. Deem and Ramdas Pophale) SiO2 
 PCOD9500045
Probable space group: C C C M
;
_chemical_formula_sum "Si O2"
_cell_formula_units_Z 96
_cell_length_a 6.965938
_cell_length_b 20.568571
_cell_length_c 28.887444
_cell_angle_alpha 90.000000
_cell_angle_beta 90.000000
_cell_angle_gamma 90.000000
_cell_volume 4138.975365
_symmetry_space_group_name_H-M "C C C M"
_symmetry_group_IT_number 66
_symmetry_cell_setting 'orthorhombic'
loop_
_space_group_symop_operation_xyz
x,y,z
-x,-y,z
x,-y,1/2-z
-x,y,1/2-z
-x,-y,-z
x,y,-z
-x,y,1/2+z
x,-y,1/2+z
1/2+x,1/2+y,z
1/2-x,1/2-y,z
1/2+x,1/2-y,1/2-z
1/2-x,1/2+y,1/2-z
1/2-x,1/2-y,-z
1/2+x,1/2+y,-z
1/2-x,1/2+y,1/2+z
1/2+x,1/2-y,1/2+z
loop_
_atom_site_type_symbol
_atom_site_label
_atom_site_fract_x
_atom_site_fract_y
_atom_site_fract_z
Si Si1 0.365835 0.604049 0.395084
Si Si2 0.004840 0.696075 0.303297
Si Si3 0.447317 0.343632 0.197289
Si Si4 0.273563 0.980160 0.052724
Si Si5 0.023219 0.767977 0.447246
Si Si6 0.586815 0.859259 0.393689
O O1 0.456147 0.602668 0.343348
O O2 0.349059 0.539062 0.425593
O O3 0.470652 0.665469 0.418787
O O4 0.137333 0.620133 0.394331
O O5 0.228293 0.680506 0.311354
O O6 0.955604 0.772347 0.308006
O O7 0.000000 0.677377 0.250000
O O8 0.879931 0.655964 0.339732
O O9 0.500000 0.364534 0.250000
O O10 0.286979 0.916327 0.084622
O O11 0.500000 0.000000 0.050384
O O12 0.214585 0.965490 0.000000
O O13 0.959317 0.777485 0.500000
O O14 0.250000 0.750000 0.448787
O O15 0.915379 0.707744 0.422888
#
# Coordination Sequence:
#
# PCOD9500045 Si02
#       6
#    16  16  16  16  16  16
#     4   9  15  24  37  57  89 126 164 207 261 317
#     4   9  16  27  44  67  94 123 160 211 268 325
#     4   9  16  27  44  66  94 125 161 208 267 326
#     4   9  16  24  36  58  92 133 171 206 255 322
#     4   9  14  20  33  54  83 121 161 203 255 318
#     4   9  15  24  37  57  89 125 164 207 259 318
#
# _framework density 23.194147999999998
#
# number of rings (size 3 to 8) (size 9 to 14) (size 15 to 20)
#    0.000    3.000    1.667    1.000    0.000    4.000 
#    0.000    0.000    0.000   12.500    0.000    2.333 
#    0.000    8.000    0.000    0.000    0.000    0.000 
#
# Total GULP energy -267787.861757 kJ/mol
# GULP energy per Si atom -5578.913787 kJ/mol
# Density = 2.314136 g / cm^3
# Si number density = 23.194148 Si / 1000 Ang^3
#
#
#
# Elastic Constant Matrix: (Units=GPa)
#
#
# Indices 1 2 3 4 5 6 
#
# 1 45.2702 27.3337 14.9888 0.0000 0.0000 0.0000
# 2 27.3337 131.2994 113.3987 0.0000 0.0000 0.0000
# 3 14.9888 113.3987 230.7970 0.0000 0.0000 0.0000
# 4 0.0000 0.0000 0.0000 33.0975 0.0000 0.0000
# 5 0.0000 0.0000 0.0000 0.0000 28.6400 0.0000
# 6 0.0000 0.0000 0.0000 0.0000 0.0000 54.9407
#
#
#
# Elastic Compliance Matrix: (Units=1/GPa)
#
#
# Indices 1 2 3 4 5 6 
#
# 1 0.025627 -0.006771 0.001662 0.000000 0.000000 0.000000
# 2 -0.006771 0.015019 -0.006940 0.000000 0.000000 0.000000
# 3 0.001662 -0.006940 0.007635 0.000000 0.000000 0.000000
# 4 0.000000 0.000000 0.000000 0.030214 0.000000 0.000000
# 5 0.000000 0.000000 0.000000 0.000000 0.034916 0.000000
# 6 0.000000 0.000000 0.000000 0.000000 0.000000 0.018201
#
#
# Mechanical properties :
#
#
# Convention : Reuss Voigt Hill
#
# Bulk Modulus (GPa) = 41.34816 79.86765 60.60790
# Shear Modulus (GPa) = 30.53045 40.11200 35.32122
#
# Velocity S-wave (km/s) = 3.63202 4.16312 3.90661
# Velocity P-wave (km/s) = 5.95436 7.59065 6.82174
#
# Compressibility (1/GPa) = 0.02418488
#
# Stress axis : x y z
#
# Youngs Moduli (GPa) = 39.02087 66.58048 130.98193
#
# Poissons Ratio (x) = 0.45080 -0.21775
# Poissons Ratio (y) = 0.26420 0.90899
# Poissons Ratio (z) = -0.06487 0.46206
#
# Static dielectric constant tensor:
#      x y z
#    x 1.941230 0.000000 0.000000 
#    y 0.000000 1.833070 0.000000 
#    z 0.000000 0.000000 1.951910 
# 
# From -- ./inp_files/62616.got.cif
#   From: 2010.05.17/outbox.cif.g08.bks.cpg/sg66_32_cif.got.tgz:62616.got - 2010.06.03 17:51:23.
