data_PCOD9500646
_publ_section_title
;
Structure prediction by ZEFSAII (Michael W. Deem and Ramdas Pophale) SiO2 
 PCOD9500646
Probable space group: C M M A
;
_chemical_formula_sum "Si O2"
_cell_formula_units_Z 72
_cell_length_a 21.714775
_cell_length_b 8.751575
_cell_length_c 20.605736
_cell_angle_alpha 90.000000
_cell_angle_beta 90.000000
_cell_angle_gamma 90.000000
_cell_volume 3915.882790
_symmetry_space_group_name_H-M "C M M A"
_symmetry_group_IT_number 67
_symmetry_cell_setting 'orthorhombic'
loop_
_space_group_symop_operation_xyz
x,y,z
-x,1/2-y,z
x,-y,-z
-x,1/2+y,-z
-x,-y,-z
x,1/2+y,-z
-x,y,z
x,1/2-y,z
1/2+x,1/2+y,z
1/2-x,-y,z
1/2+x,1/2-y,-z
1/2-x,y,-z
1/2-x,1/2-y,-z
1/2+x,y,-z
1/2-x,1/2+y,z
1/2+x,-y,z
loop_
_atom_site_type_symbol
_atom_site_label
_atom_site_fract_x
_atom_site_fract_y
_atom_site_fract_z
Si Si1 0.627843 0.567049 0.928278
Si Si2 0.185938 0.433454 0.797485
Si Si3 0.500000 0.066875 0.926947
Si Si4 0.429374 0.937293 0.710633
Si Si5 0.425300 0.076588 0.433837
O O1 0.622316 0.750000 0.933935
O O2 0.677150 0.527186 0.873505
O O3 0.563378 0.500641 0.900780
O O4 0.639374 0.500000 0.000000
O O5 0.187827 0.250000 0.793041
O O6 0.250000 0.500000 0.772735
O O7 0.125022 0.484921 0.758669
O O8 0.500000 0.250000 0.926993
O O9 0.500000 0.000000 0.000000
O O10 0.500000 0.984674 0.726594
O O11 0.430632 0.750000 0.709637
O O12 0.412952 0.990673 0.637415
O O13 0.500000 0.079822 0.437064
O O14 0.402794 0.250000 0.433578
O O15 0.403101 0.000000 0.500000
#
# Coordination Sequence:
#
# PCOD9500646 Si02
#       5
#    16  16   8  16  16
#     4  10  20  34  53  76 100 132 170 212 259 309
#     4  10  22  37  55  75 100 136 173 215 259 307
#     4  10  18  30  50  76 104 130 157 202 255 304
#     4   8  15  30  53  77  99 131 174 210 244 298
#     4   8  13  23  43  72 102 128 158 200 247 293
#
# _framework density 18.386659000000002
#
# number of rings (size 3 to 8) (size 9 to 14) (size 15 to 20)
#    0.000    2.889    0.000    4.333    1.556    2.222 
#    0.000    3.333    0.000    2.000    0.000    4.667 
#    0.000    0.000    0.000    0.000    0.000    0.000 
#
# Total GULP energy -200416.504460 kJ/mol
# GULP energy per Si atom -5567.125124 kJ/mol
# Density = 1.834481 g / cm^3
# Si number density = 18.386659 Si / 1000 Ang^3
#
#
#
# Elastic Constant Matrix: (Units=GPa)
#
#
# Indices 1 2 3 4 5 6 
#
# 1 107.3759 18.5236 66.1839 0.0000 0.0000 0.0000
# 2 18.5236 27.9221 26.7219 0.0000 0.0000 0.0000
# 3 66.1839 26.7219 119.8563 0.0000 0.0000 0.0000
# 4 0.0000 0.0000 0.0000 18.3746 0.0000 0.0000
# 5 0.0000 0.0000 0.0000 0.0000 8.5524 0.0000
# 6 0.0000 0.0000 0.0000 0.0000 0.0000 22.1690
#
#
#
# Elastic Compliance Matrix: (Units=1/GPa)
#
#
# Indices 1 2 3 4 5 6 
#
# 1 0.014248 -0.002444 -0.007323 0.000000 0.000000 0.000000
# 2 -0.002444 0.045947 -0.008894 0.000000 0.000000 0.000000
# 3 -0.007323 -0.008894 0.014370 0.000000 0.000000 0.000000
# 4 0.000000 0.000000 0.000000 0.054423 0.000000 0.000000
# 5 0.000000 0.000000 0.000000 0.000000 0.116926 0.000000
# 6 0.000000 0.000000 0.000000 0.000000 0.000000 0.045108
#
#
# Mechanical properties :
#
#
# Convention : Reuss Voigt Hill
#
# Bulk Modulus (GPa) = 26.85078 53.11258 39.98168
# Shear Modulus (GPa) = 14.67310 19.40087 17.03699
#
# Velocity S-wave (km/s) = 2.82801 3.25185 3.04730
# Velocity P-wave (km/s) = 5.02977 6.56114 5.84582
#
# Compressibility (1/GPa) = 0.03724287
#
# Stress axis : x y z
#
# Youngs Moduli (GPa) = 70.18312 21.76403 69.58953
#
# Poissons Ratio (x) = 0.05320 0.50960
# Poissons Ratio (y) = 0.17155 0.61895
# Poissons Ratio (z) = 0.51395 0.19357
#
# Static dielectric constant tensor:
#      x y z
#    x 1.644100 0.000000 0.000000 
#    y 0.000000 1.635330 0.000000 
#    z 0.000000 0.000000 1.633370 
# 
# From -- ./inp_files/39223.got.cif
#   From: 2010.05.17/outbox.cif.g08.bks.cpg/sg67_20_cif.got.tgz:39223.got - 2010.06.03 18:28:57.
