data_PCOD9500857
_publ_section_title
;
Structure prediction by ZEFSAII (Michael W. Deem and Ramdas Pophale) SiO2 
 PCOD9500857
Probable space group: C M M A
;
_chemical_formula_sum "Si O2"
_cell_formula_units_Z 120
_cell_length_a 27.024462
_cell_length_b 8.829203
_cell_length_c 28.261195
_cell_angle_alpha 90.000000
_cell_angle_beta 90.000000
_cell_angle_gamma 90.000000
_cell_volume 6743.247199
_symmetry_space_group_name_H-M "C M M A"
_symmetry_group_IT_number 67
_symmetry_cell_setting 'orthorhombic'
loop_
_space_group_symop_operation_xyz
x,y,z
-x,1/2-y,z
x,-y,-z
-x,1/2+y,-z
-x,-y,-z
x,1/2+y,-z
-x,y,z
x,1/2-y,z
1/2+x,1/2+y,z
1/2-x,-y,z
1/2+x,1/2-y,-z
1/2-x,y,-z
1/2-x,1/2-y,-z
1/2+x,y,-z
1/2-x,1/2+y,z
1/2+x,-y,z
loop_
_atom_site_type_symbol
_atom_site_label
_atom_site_fract_x
_atom_site_fract_y
_atom_site_fract_z
Si Si1 0.599554 0.069067 0.143999
Si Si2 0.059645 0.423819 0.048869
Si Si3 0.802475 0.568919 0.817383
Si Si4 0.697126 0.932093 0.384137
Si Si5 0.653967 0.567672 0.284088
Si Si6 0.555706 0.932506 0.754222
Si Si7 0.500000 0.067812 0.446480
Si Si8 0.101757 0.932425 0.552669
O O1 0.602886 0.250000 0.143405
O O2 0.568128 0.026359 0.191042
O O3 0.576376 0.010722 0.095621
O O4 0.653287 0.996869 0.151439
O O5 0.076317 0.250000 0.051093
O O6 0.000000 0.425056 0.048026
O O7 0.076893 0.500000 0.000000
O O8 0.801542 0.750000 0.820202
O O9 0.750000 0.500000 0.830383
O O10 0.815974 0.525081 0.763152
O O11 0.701643 0.750000 0.383803
O O12 0.681570 0.983620 0.331409
O O13 0.651063 0.969951 0.418083
O O14 0.750000 0.000000 0.398016
O O15 0.650358 0.750000 0.285593
O O16 0.599001 0.501797 0.277666
O O17 0.500000 0.981318 0.742265
O O18 0.557980 0.750000 0.750977
O O19 0.500000 0.250000 0.447528
O O20 0.500000 0.000000 0.500000
O O21 0.448531 0.004405 0.425725
O O22 0.096177 0.750000 0.550522
O O23 0.106968 0.000000 0.500000
#
# Coordination Sequence:
#
# PCOD9500857 Si02
#       8
#    16  16  16  16  16  16   8  16
#     4  10  19  32  51  74 102 136 172 212 259 306
#     4  10  20  33  50  74 104 137 173 212 254 303
#     4  10  19  32  52  76 101 129 168 214 257 305
#     4  10  22  38  56  78 106 140 177 218 266 316
#     4   9  19  35  52  74 102 135 174 212 257 310
#     4   9  18  32  50  74 105 138 172 212 258 309
#     4  10  18  32  56  82 106 134 170 212 258 306
#     4  10  20  36  57  81 109 140 175 217 264 316
#
# _framework density 17.795580999999999
#
# number of rings (size 3 to 8) (size 9 to 14) (size 15 to 20)
#    0.000    2.267    0.000    3.800    0.000    4.533 
#    1.200    1.333    0.000    0.400    0.000    2.800 
#    0.000    0.000    0.000    0.000    0.000    0.000 
#
# Total GULP energy -334807.491128 kJ/mol
# GULP energy per Si atom -5580.124852 kJ/mol
# Density = 1.775508 g / cm^3
# Si number density = 17.795581 Si / 1000 Ang^3
#
#
#
# Elastic Constant Matrix: (Units=GPa)
#
#
# Indices 1 2 3 4 5 6 
#
# 1 118.7739 34.6013 23.8742 0.0000 0.0000 0.0000
# 2 34.6013 54.3214 18.7036 0.0000 0.0000 0.0000
# 3 23.8742 18.7036 48.2312 0.0000 0.0000 0.0000
# 4 0.0000 0.0000 0.0000 23.2093 0.0000 0.0000
# 5 0.0000 0.0000 0.0000 0.0000 -20.3870 0.0000
# 6 0.0000 0.0000 0.0000 0.0000 0.0000 34.8291
#
#
#
# Elastic Compliance Matrix: (Units=1/GPa)
#
#
# Indices 1 2 3 4 5 6 
#
# 1 0.010717 -0.005770 -0.003067 0.000000 0.000000 0.000000
# 2 -0.005770 0.024353 -0.006587 0.000000 0.000000 0.000000
# 3 -0.003067 -0.006587 0.024806 0.000000 0.000000 0.000000
# 4 0.000000 0.000000 0.000000 0.043086 0.000000 0.000000
# 5 0.000000 0.000000 0.000000 0.000000 -0.049051 0.000000
# 6 0.000000 0.000000 0.000000 0.000000 0.000000 0.028712
#
#
# Mechanical properties :
#
#
# Convention : Reuss Voigt Hill
#
# Bulk Modulus (GPa) = 34.45191 41.74274 38.09733
# Shear Modulus (GPa) = 40.60162 17.14012 28.87087
#
# Velocity S-wave (km/s) = 4.78175 3.10686 4.03222
# Velocity P-wave (km/s) = 7.06319 6.03140 6.56759
#
# Compressibility (1/GPa) = 0.02902596
#
# Stress axis : x y z
#
# Youngs Moduli (GPa) = 93.31076 41.06328 40.31240
#
# Poissons Ratio (x) = 0.23695 0.12364
# Poissons Ratio (y) = 0.53843 0.26556
# Poissons Ratio (z) = 0.28620 0.27050
#
# Static dielectric constant tensor:
#      x y z
#    x 1.607170 0.000000 0.000000 
#    y 0.000000 1.600800 0.000000 
#    z 0.000000 0.000000 1.600810 
# 
# From -- ./inp_files/44990.got.cif
#   From: 2010.05.17/outbox.cif.g08.bks.cpg/sg67_23_cif.got.tgz:44990.got - 2010.06.03 18:28:57.
