data_PCOD9500242
_publ_section_title
;
Structure prediction by ZEFSAII (Michael W. Deem and Ramdas Pophale) SiO2 
 PCOD9500242
Probable space group: C M M A
;
_chemical_formula_sum "Si O2"
_cell_formula_units_Z 68
_cell_length_a 14.770486
_cell_length_b 20.294038
_cell_length_c 10.710565
_cell_angle_alpha 90.000000
_cell_angle_beta 90.000000
_cell_angle_gamma 90.000000
_cell_volume 3210.521893
_symmetry_space_group_name_H-M "C M M A"
_symmetry_group_IT_number 67
_symmetry_cell_setting 'orthorhombic'
loop_
_space_group_symop_operation_xyz
x,y,z
-x,1/2-y,z
x,-y,-z
-x,1/2+y,-z
-x,-y,-z
x,1/2+y,-z
-x,y,z
x,1/2-y,z
1/2+x,1/2+y,z
1/2-x,-y,z
1/2+x,1/2-y,-z
1/2-x,y,-z
1/2-x,1/2-y,-z
1/2+x,y,-z
1/2-x,1/2+y,z
1/2+x,-y,z
loop_
_atom_site_type_symbol
_atom_site_label
_atom_site_fract_x
_atom_site_fract_y
_atom_site_fract_z
Si Si1 0.832400 0.671446 0.691652
Si Si2 0.500000 0.250000 0.278750
Si Si3 0.500000 0.965641 0.690039
Si Si4 0.500000 0.396580 0.578984
Si Si5 0.895050 0.329086 0.025804
Si Si6 0.355410 0.368753 0.234985
O O1 0.820279 0.750000 0.678290
O O2 0.868140 0.657989 0.832423
O O3 0.735731 0.636140 0.685121
O O4 0.910339 0.646510 0.599566
O O5 0.421384 0.308409 0.273046
O O6 0.500000 0.931771 0.553642
O O7 0.589777 0.936282 0.752054
O O8 0.500000 0.043657 0.677859
O O9 0.891857 0.250000 0.010209
O O10 0.000000 0.348877 0.005450
O O11 0.837403 0.357956 0.912501
#
# Coordination Sequence:
#
# PCOD9500242 Si02
#       6
#    16   4   8   8  16  16
#     4  11  22  37  63  97 128 156 192 255 306 363
#     4  10  16  32  54  90 130 148 188 238 286 356
#     4  10  26  45  66  76 116 172 211 256 290 368
#     4  11  25  48  59  83 119 165 214 251 309 352
#     4  10  16  31  58  93 132 161 184 235 308 373
#     4  11  19  37  63  95 119 161 204 238 300 361
#
# _framework density 21.180357000000001
#
# number of rings (size 3 to 8) (size 9 to 14) (size 15 to 20)
#    0.000    1.412    5.882    1.059    0.000    3.765 
#    8.471    5.882    0.000    2.824    0.000    0.000 
#    0.000    0.000    0.000    0.000    0.000    0.000 
#
# Total GULP energy -189487.804216 kJ/mol
# GULP energy per Si atom -5573.170712 kJ/mol
# Density = 2.113215 g / cm^3
# Si number density = 21.180357 Si / 1000 Ang^3
#
#
#
# Elastic Constant Matrix: (Units=GPa)
#
#
# Indices 1 2 3 4 5 6 
#
# 1 109.4863 1.8788 7.3649 0.0000 0.0000 0.0000
# 2 1.8788 40.3470 -2.5430 0.0000 0.0000 0.0000
# 3 7.3649 -2.5430 31.9521 0.0000 0.0000 0.0000
# 4 0.0000 0.0000 0.0000 52.3461 0.0000 0.0000
# 5 0.0000 0.0000 0.0000 0.0000 11.5729 0.0000
# 6 0.0000 0.0000 0.0000 0.0000 0.0000 3.8609
#
#
#
# Elastic Compliance Matrix: (Units=1/GPa)
#
#
# Indices 1 2 3 4 5 6 
#
# 1 0.009290 -0.000570 -0.002187 0.000000 0.000000 0.000000
# 2 -0.000570 0.024945 0.002117 0.000000 0.000000 0.000000
# 3 -0.002187 0.002117 0.031969 0.000000 0.000000 0.000000
# 4 0.000000 0.000000 0.000000 0.019104 0.000000 0.000000
# 5 0.000000 0.000000 0.000000 0.000000 0.086408 0.000000
# 6 0.000000 0.000000 0.000000 0.000000 0.000000 0.259006
#
#
# Mechanical properties :
#
#
# Convention : Reuss Voigt Hill
#
# Bulk Modulus (GPa) = 15.40266 21.68743 18.54505
# Shear Modulus (GPa) = 11.02183 25.22831 18.12507
#
# Velocity S-wave (km/s) = 2.28366 3.45500 2.92849
# Velocity P-wave (km/s) = 3.77378 5.11641 4.49550
#
# Compressibility (1/GPa) = 0.06492385
#
# Stress axis : x y z
#
# Youngs Moduli (GPa) = 107.63730 40.08825 31.27995
#
# Poissons Ratio (x) = 0.02287 0.06840
# Poissons Ratio (y) = 0.06140 -0.06621
# Poissons Ratio (z) = 0.23539 -0.08486
#
# Static dielectric constant tensor:
#      x y z
#    x 1.785550 0.000000 0.000000 
#    y 0.000000 1.712510 0.000000 
#    z 0.000000 0.000000 1.829000 
# 
# From -- ./inp_files/17767.got.cif
#   From: 2010.05.17/outbox.cif.g08.bks.cpg/sg67_9_cif.got.tgz:17767.got - 2010.06.03 18:28:57.
