data_PCOD9500398
_publ_section_title
;
Structure prediction by ZEFSAII (Michael W. Deem and Ramdas Pophale) SiO2 
 PCOD9500398
Probable space group: C M M A
;
_chemical_formula_sum "Si O2"
_cell_formula_units_Z 96
_cell_length_a 14.298773
_cell_length_b 26.510287
_cell_length_c 11.573749
_cell_angle_alpha 90.000000
_cell_angle_beta 90.000000
_cell_angle_gamma 90.000000
_cell_volume 4387.198257
_symmetry_space_group_name_H-M "C M M A"
_symmetry_group_IT_number 67
_symmetry_cell_setting 'orthorhombic'
loop_
_space_group_symop_operation_xyz
x,y,z
-x,1/2-y,z
x,-y,-z
-x,1/2+y,-z
-x,-y,-z
x,1/2+y,-z
-x,y,z
x,1/2-y,z
1/2+x,1/2+y,z
1/2-x,-y,z
1/2+x,1/2-y,-z
1/2-x,y,-z
1/2-x,1/2-y,-z
1/2+x,y,-z
1/2-x,1/2+y,z
1/2+x,-y,z
loop_
_atom_site_type_symbol
_atom_site_label
_atom_site_fract_x
_atom_site_fract_y
_atom_site_fract_z
Si Si1 0.895460 0.917062 0.195014
Si Si2 0.391500 0.454477 0.592666
Si Si3 0.103080 0.250000 0.158888
Si Si4 0.647888 0.664598 0.972488
Si Si5 0.750000 0.500000 0.772391
Si Si6 0.690030 0.250000 0.211553
Si Si7 0.892363 0.250000 0.544416
Si Si8 0.886845 0.861060 0.434076
O O1 0.905103 0.881298 0.084290
O O2 0.862103 0.883647 0.307006
O O3 0.000000 0.936841 0.225827
O O4 0.820621 0.960600 0.168894
O O5 0.386939 0.500000 0.500000
O O6 0.500000 0.450100 0.630086
O O7 0.319960 0.467433 0.692700
O O8 0.363890 0.403604 0.526963
O O9 0.197799 0.250000 0.235632
O O10 0.000000 0.250000 0.214243
O O11 0.110613 0.200118 0.076210
O O12 0.666345 0.703294 0.868778
O O13 0.750000 0.644085 0.000000
O O14 0.620491 0.250000 0.317293
O O15 0.853146 0.193828 0.521612
O O16 0.000000 0.250000 0.506501
O O17 0.000000 0.856571 0.427989
#
# Coordination Sequence:
#
# PCOD9500398 Si02
#       8
#    16  16   8  16   8   8   8  16
#     4  11  21  34  55  84 109 137 182 232 280 330
#     4  10  19  34  53  79 109 137 178 229 280 332
#     4   9  17  29  50  81 114 149 180 212 261 320
#     4   9  18  32  52  80 112 142 175 221 273 324
#     4  12  23  34  57  82 106 140 183 238 288 327
#     4   9  16  27  49  83 111 134 172 216 259 317
#     4  10  17  28  49  83 119 145 174 226 281 325
#     4   9  18  29  49  81 112 142 176 220 277 330
#
# _framework density 21.881847
#
# number of rings (size 3 to 8) (size 9 to 14) (size 15 to 20)
#    0.000    2.167    3.333    2.250    0.000    1.333 
#    0.000    0.417    0.000   15.000    0.000    2.333 
#    0.000    0.000    0.000    0.000    0.000    0.000 
#
# Total GULP energy -267547.466259 kJ/mol
# GULP energy per Si atom -5573.905547 kJ/mol
# Density = 2.183204 g / cm^3
# Si number density = 21.881847 Si / 1000 Ang^3
#
#
#
# Elastic Constant Matrix: (Units=GPa)
#
#
# Indices 1 2 3 4 5 6 
#
# 1 107.6928 36.4261 7.2637 0.0000 0.0000 0.0000
# 2 36.4261 152.1488 17.8499 0.0000 0.0000 0.0000
# 3 7.2637 17.8499 18.8903 0.0000 0.0000 0.0000
# 4 0.0000 0.0000 0.0000 28.5105 0.0000 0.0000
# 5 0.0000 0.0000 0.0000 0.0000 18.0276 0.0000
# 6 0.0000 0.0000 0.0000 0.0000 0.0000 20.3186
#
#
#
# Elastic Compliance Matrix: (Units=1/GPa)
#
#
# Indices 1 2 3 4 5 6 
#
# 1 0.010159 -0.002220 -0.001809 0.000000 0.000000 0.000000
# 2 -0.002220 0.007877 -0.006590 0.000000 0.000000 0.000000
# 3 -0.001809 -0.006590 0.059859 0.000000 0.000000 0.000000
# 4 0.000000 0.000000 0.000000 0.035075 0.000000 0.000000
# 5 0.000000 0.000000 0.000000 0.000000 0.055470 0.000000
# 6 0.000000 0.000000 0.000000 0.000000 0.000000 0.049216
#
#
# Mechanical properties :
#
#
# Convention : Reuss Voigt Hill
#
# Bulk Modulus (GPa) = 17.64952 44.64570 31.14761
# Shear Modulus (GPa) = 19.39650 27.85082 23.62366
#
# Velocity S-wave (km/s) = 2.98051 3.57148 3.28929
# Velocity P-wave (km/s) = 4.46407 6.12002 5.35642
#
# Compressibility (1/GPa) = 0.05665877
#
# Stress axis : x y z
#
# Youngs Moduli (GPa) = 98.43961 126.95082 16.70585
#
# Poissons Ratio (x) = 0.28182 0.03021
# Poissons Ratio (y) = 0.21852 0.11009
# Poissons Ratio (z) = 0.17803 0.83656
#
# Static dielectric constant tensor:
#      x y z
#    x 1.876660 0.000000 0.000000 
#    y 0.000000 1.826130 0.000000 
#    z 0.000000 0.000000 1.782270 
# 
# From -- ./inp_files/27452.got.cif
#   From: 2010.05.17/outbox.cif.g08.bks.cpg/sg67_14_cif.got.tgz:27452.got - 2010.06.03 18:28:57.
