data_PCOD9500653
_publ_section_title
;
Structure prediction by ZEFSAII (Michael W. Deem and Ramdas Pophale) SiO2 
 PCOD9500653
Probable space group: C M M A
;
_chemical_formula_sum "Si O2"
_cell_formula_units_Z 72
_cell_length_a 8.757999
_cell_length_b 21.726772
_cell_length_c 20.298939
_cell_angle_alpha 90.000000
_cell_angle_beta 90.000000
_cell_angle_gamma 90.000000
_cell_volume 3862.543973
_symmetry_space_group_name_H-M "C M M A"
_symmetry_group_IT_number 67
_symmetry_cell_setting 'orthorhombic'
loop_
_space_group_symop_operation_xyz
x,y,z
-x,1/2-y,z
x,-y,-z
-x,1/2+y,-z
-x,-y,-z
x,1/2+y,-z
-x,y,z
x,1/2-y,z
1/2+x,1/2+y,z
1/2-x,-y,z
1/2+x,1/2-y,-z
1/2-x,y,-z
1/2-x,1/2-y,-z
1/2+x,y,-z
1/2-x,1/2+y,z
1/2+x,-y,z
loop_
_atom_site_type_symbol
_atom_site_label
_atom_site_fract_x
_atom_site_fract_y
_atom_site_fract_z
Si Si1 0.317330 0.622398 0.572723
Si Si2 0.683413 0.064078 0.294504
Si Si3 0.673655 0.675507 0.067464
Si Si4 0.317044 0.750000 0.425859
Si Si5 0.683831 0.320188 0.208262
O O1 0.500000 0.628336 0.566803
O O2 0.250000 0.610829 0.500000
O O3 0.278734 0.572846 0.628187
O O4 0.250334 0.686667 0.600790
O O5 0.500000 0.062374 0.289388
O O6 0.737566 0.124856 0.255548
O O7 0.750000 0.000000 0.269588
O O8 0.500000 0.653372 0.073517
O O9 0.668472 0.750000 0.062448
O O10 0.766905 0.663487 0.133902
O O11 0.750000 0.652677 0.000000
O O12 0.500000 0.750000 0.425966
O O13 0.250000 0.750000 0.500000
O O14 0.500000 0.318177 0.212206
O O15 0.739257 0.250000 0.223186
#
# Coordination Sequence:
#
# PCOD9500653 Si02
#       5
#    16  16  16   8  16
#     4  10  20  35  55  78 105 139 179 224 275 329
#     4  10  23  39  57  78 106 146 182 225 276 328
#     4   9  16  27  47  78 113 144 175 216 264 311
#     4  10  18  30  50  78 106 134 165 212 269 320
#     4   9  18  34  56  80 106 141 183 221 265 319
#
# _framework density 18.640564999999999
#
# number of rings (size 3 to 8) (size 9 to 14) (size 15 to 20)
#    0.000    2.444    0.000    3.667    1.556    5.778 
#    0.000    2.222    0.000    0.667    0.000    4.667 
#    0.000    0.000    0.000    0.000    0.000    0.000 
#
# Total GULP energy -200646.530860 kJ/mol
# GULP energy per Si atom -5573.514746 kJ/mol
# Density = 1.859814 g / cm^3
# Si number density = 18.640565 Si / 1000 Ang^3
#
#
#
# Elastic Constant Matrix: (Units=GPa)
#
#
# Indices 1 2 3 4 5 6 
#
# 1 39.5841 24.5758 20.4043 0.0000 0.0000 0.0000
# 2 24.5758 107.8663 62.6852 0.0000 0.0000 0.0000
# 3 20.4043 62.6852 101.5679 0.0000 0.0000 0.0000
# 4 0.0000 0.0000 0.0000 7.6850 0.0000 0.0000
# 5 0.0000 0.0000 0.0000 0.0000 22.1841 0.0000
# 6 0.0000 0.0000 0.0000 0.0000 0.0000 22.8589
#
#
#
# Elastic Compliance Matrix: (Units=1/GPa)
#
#
# Indices 1 2 3 4 5 6 
#
# 1 0.029932 -0.005185 -0.002813 0.000000 0.000000 0.000000
# 2 -0.005185 0.015353 -0.008434 0.000000 0.000000 0.000000
# 3 -0.002813 -0.008434 0.015616 0.000000 0.000000 0.000000
# 4 0.000000 0.000000 0.000000 0.130123 0.000000 0.000000
# 5 0.000000 0.000000 0.000000 0.000000 0.045077 0.000000
# 6 0.000000 0.000000 0.000000 0.000000 0.000000 0.043747
#
#
# Mechanical properties :
#
#
# Convention : Reuss Voigt Hill
#
# Bulk Modulus (GPa) = 35.66702 51.59434 43.63068
# Shear Modulus (GPa) = 15.52516 19.96915 17.74716
#
# Velocity S-wave (km/s) = 2.88908 3.27658 3.08891
# Velocity P-wave (km/s) = 5.50497 6.48485 6.01490
#
# Compressibility (1/GPa) = 0.02803711
#
# Stress axis : x y z
#
# Youngs Moduli (GPa) = 33.40946 65.13213 64.03612
#
# Poissons Ratio (x) = 0.33768 0.18015
# Poissons Ratio (y) = 0.17321 0.54009
# Poissons Ratio (z) = 0.09399 0.54934
#
# Static dielectric constant tensor:
#      x y z
#    x 1.635440 0.000000 0.000000 
#    y 0.000000 1.666200 0.000000 
#    z 0.000000 0.000000 1.603040 
# 
# From -- ./inp_files/36779.got.cif
#   From: 2010.05.17/outbox.cif.g08.bks.cpg/sg67_19_cif.got.tgz:36779.got - 2010.06.03 18:28:57.
