data_PCOD9500995
_publ_section_title
;
Structure prediction by ZEFSAII (Michael W. Deem and Ramdas Pophale) SiO2 
 PCOD9500995
Probable space group: C M M A
;
_chemical_formula_sum "Si O2"
_cell_formula_units_Z 48
_cell_length_a 16.408769
_cell_length_b 19.802310
_cell_length_c 6.882542
_cell_angle_alpha 90.000000
_cell_angle_beta 90.000000
_cell_angle_gamma 90.000000
_cell_volume 2236.354905
_symmetry_space_group_name_H-M "C M M A"
_symmetry_group_IT_number 67
_symmetry_cell_setting 'orthorhombic'
loop_
_space_group_symop_operation_xyz
x,y,z
-x,1/2-y,z
x,-y,-z
-x,1/2+y,-z
-x,-y,-z
x,1/2+y,-z
-x,y,z
x,1/2-y,z
1/2+x,1/2+y,z
1/2-x,-y,z
1/2+x,1/2-y,-z
1/2-x,y,-z
1/2-x,1/2-y,-z
1/2+x,y,-z
1/2-x,1/2+y,z
1/2+x,-y,z
loop_
_atom_site_type_symbol
_atom_site_label
_atom_site_fract_x
_atom_site_fract_y
_atom_site_fract_z
Si Si1 0.000000 0.750000 0.273061
Si Si2 0.500000 0.392027 0.495741
Si Si3 0.500000 0.919994 0.052630
Si Si4 0.250000 0.000000 0.000000
Si Si5 0.142747 0.395382 0.772881
Si Si6 0.817890 0.250000 0.829369
O O1 0.000000 0.814695 0.416407
O O2 0.082739 0.750000 0.147884
O O3 0.500000 0.405419 0.721340
O O4 0.416413 0.418876 0.400493
O O5 0.578884 0.887964 0.951752
O O6 0.500000 0.000000 0.000000
O O7 0.200964 0.952053 0.145315
O O8 0.188790 0.324486 0.731156
O O9 0.750000 0.250000 0.000000
#
# Coordination Sequence:
#
# PCOD9500995 Si02
#       6
#     4   8   8   4  16   8
#     4   8  18  36  62  98 124 172 218 266 332 382
#     4   9  21  40  64  89 125 161 214 265 316 386
#     4  11  22  41  63  90 119 163 212 263 323 392
#     4  12  20  40  58  92 134 156 208 262 324 396
#     4  10  22  38  63  90 122 166 210 263 322 387
#     4  10  18  37  65  89 126 169 216 268 321 387
#
# _framework density 21.463498999999999
#
# number of rings (size 3 to 8) (size 9 to 14) (size 15 to 20)
#    0.000    2.000    3.333    1.000    0.000    4.000 
#    0.000    3.333    0.000    4.000    0.000    0.000 
#    0.000    0.000    0.000    0.000    0.000    0.000 
#
# Total GULP energy -133645.248670 kJ/mol
# GULP energy per Si atom -5568.552028 kJ/mol
# Density = 2.141465 g / cm^3
# Si number density = 21.463499 Si / 1000 Ang^3
#
#
#
# Elastic Constant Matrix: (Units=GPa)
#
#
# Indices 1 2 3 4 5 6 
#
# 1 83.8753 38.7625 39.8246 0.0000 0.0000 0.0000
# 2 38.7625 161.2470 25.8256 0.0000 0.0000 0.0000
# 3 39.8246 25.8256 144.1819 0.0000 0.0000 0.0000
# 4 0.0000 0.0000 0.0000 22.6287 0.0000 0.0000
# 5 0.0000 0.0000 0.0000 0.0000 -10.8520 0.0000
# 6 0.0000 0.0000 0.0000 0.0000 0.0000 -42.2310
#
#
#
# Elastic Compliance Matrix: (Units=1/GPa)
#
#
# Indices 1 2 3 4 5 6 
#
# 1 0.015040 -0.003037 -0.003610 0.000000 0.000000 0.000000
# 2 -0.003037 0.006998 -0.000415 0.000000 0.000000 0.000000
# 3 -0.003610 -0.000415 0.008007 0.000000 0.000000 0.000000
# 4 0.000000 0.000000 0.000000 0.044192 0.000000 0.000000
# 5 0.000000 0.000000 0.000000 0.000000 -0.092149 0.000000
# 6 0.000000 0.000000 0.000000 0.000000 0.000000 -0.023679
#
#
# Mechanical properties :
#
#
# Convention : Reuss Voigt Hill
#
# Bulk Modulus (GPa) = 62.80875 66.45884 64.63380
# Shear Modulus (GPa) = -225.63723 12.90191 -106.36766
#
# Velocity S-wave (km/s) = -10.26422 2.45441 -7.04734
# Velocity P-wave (km/s) = 10.54257 6.25005 6.00344
#
# Compressibility (1/GPa) = 0.01592135
#
# Stress axis : x y z
#
# Youngs Moduli (GPa) = 66.48790 142.89354 124.88867
#
# Poissons Ratio (x) = 0.43402 0.45088
# Poissons Ratio (y) = 0.20195 0.05177
# Poissons Ratio (z) = 0.24004 0.05924
#
# Static dielectric constant tensor:
#      x y z
#    x 1.832950 0.000000 0.000000 
#    y 0.000000 1.918810 0.000000 
#    z 0.000000 0.000000 1.749900 
# 
# From -- ./inp_files/1920.got.cif
#   From: 2010.05.17/outbox.cif.g08.bks.cpg/sg67_1_cif.got.tgz:1920.got - 2010.06.03 18:28:57.
