data_PCOD9500933
_publ_section_title
;
Structure prediction by ZEFSAII (Michael W. Deem and Ramdas Pophale) SiO2 
 PCOD9500933
Probable space group: C M M A
;
_chemical_formula_sum "Si O2"
_cell_formula_units_Z 88
_cell_length_a 21.112644
_cell_length_b 24.447024
_cell_length_c 9.212641
_cell_angle_alpha 90.000000
_cell_angle_beta 90.000000
_cell_angle_gamma 90.000000
_cell_volume 4755.024636
_symmetry_space_group_name_H-M "C M M A"
_symmetry_group_IT_number 67
_symmetry_cell_setting 'orthorhombic'
loop_
_space_group_symop_operation_xyz
x,y,z
-x,1/2-y,z
x,-y,-z
-x,1/2+y,-z
-x,-y,-z
x,1/2+y,-z
-x,y,z
x,1/2-y,z
1/2+x,1/2+y,z
1/2-x,-y,z
1/2+x,1/2-y,-z
1/2-x,y,-z
1/2-x,1/2-y,-z
1/2+x,y,-z
1/2-x,1/2+y,z
1/2+x,-y,z
loop_
_atom_site_type_symbol
_atom_site_label
_atom_site_fract_x
_atom_site_fract_y
_atom_site_fract_z
Si Si1 0.325263 0.865762 0.472449
Si Si2 0.303360 0.750000 0.378426
Si Si3 0.750000 0.922394 0.000000
Si Si4 0.928725 0.034198 0.849807
Si Si5 0.184917 0.529374 0.726087
Si Si6 0.199582 0.250000 0.871485
Si Si7 0.645509 0.364290 0.190840
O O1 0.250000 0.865817 0.500000
O O2 0.340496 0.807354 0.395617
O O3 0.334887 0.918512 0.370148
O O4 0.354450 0.867707 0.633871
O O5 0.250000 0.750000 0.500000
O O6 0.254182 0.750000 0.248846
O O7 0.797007 0.953786 0.891455
O O8 0.708530 0.889752 0.883138
O O9 0.910676 0.097934 0.869706
O O10 0.000000 0.028706 0.792461
O O11 0.874222 0.011096 0.743449
O O12 0.926261 0.000000 0.000000
O O13 0.250000 0.500000 0.671808
O O14 0.153727 0.198066 0.856707
O O15 0.250000 0.250000 0.000000
#
# Coordination Sequence:
#
# PCOD9500933 Si02
#       7
#    16   8   8  16  16   8  16
#     4  11  20  34  54  84 124 155 185 239 299 354
#     4  10  18  34  50  82 127 149 181 229 306 347
#     4  12  19  33  56  88 120 137 193 248 286 342
#     4  11  24  41  61  84 119 161 197 244 301 356
#     4  12  21  35  58  88 114 151 198 245 291 345
#     4  12  22  32  59  90 120 151 189 250 292 350
#     4  12  22  37  56  88 120 152 195 238 299 354
#
# _framework density 18.506737999999999
#
# number of rings (size 3 to 8) (size 9 to 14) (size 15 to 20)
#    0.000    0.545   10.000    0.273    0.000    2.545 
#    0.000    2.273    0.000    0.000    0.000    1.909 
#    0.000    0.000    0.000    0.000    0.000    0.000 
#
# Total GULP energy -245098.046584 kJ/mol
# GULP energy per Si atom -5570.410150 kJ/mol
# Density = 1.846462 g / cm^3
# Si number density = 18.506738 Si / 1000 Ang^3
#
#
#
# Elastic Constant Matrix: (Units=GPa)
#
#
# Indices 1 2 3 4 5 6 
#
# 1 91.0627 45.6144 6.9668 0.0000 0.0000 0.0000
# 2 45.6144 162.8003 41.9644 0.0000 0.0000 0.0000
# 3 6.9668 41.9644 69.2400 0.0000 0.0000 0.0000
# 4 0.0000 0.0000 0.0000 40.9708 0.0000 0.0000
# 5 0.0000 0.0000 0.0000 0.0000 2.4699 0.0000
# 6 0.0000 0.0000 0.0000 0.0000 0.0000 -12.2097
#
#
#
# Elastic Compliance Matrix: (Units=1/GPa)
#
#
# Indices 1 2 3 4 5 6 
#
# 1 0.012839 -0.003869 0.001053 0.000000 0.000000 0.000000
# 2 -0.003869 0.008445 -0.004729 0.000000 0.000000 0.000000
# 3 0.001053 -0.004729 0.017203 0.000000 0.000000 0.000000
# 4 0.000000 0.000000 0.000000 0.024408 0.000000 0.000000
# 5 0.000000 0.000000 0.000000 0.000000 0.404875 0.000000
# 6 0.000000 0.000000 0.000000 0.000000 0.000000 -0.081902
#
#
# Mechanical properties :
#
#
# Convention : Reuss Voigt Hill
#
# Bulk Modulus (GPa) = 42.74066 56.91048 49.82557
# Shear Modulus (GPa) = 12.23222 21.48338 16.85780
#
# Velocity S-wave (km/s) = 2.57370 3.41081 3.02139
# Velocity P-wave (km/s) = 5.65480 6.80657 6.25724
#
# Compressibility (1/GPa) = 0.02339692
#
# Stress axis : x y z
#
# Youngs Moduli (GPa) = 77.88933 118.40643 58.12976
#
# Poissons Ratio (x) = 0.45807 -0.06120
# Poissons Ratio (y) = 0.30132 0.27491
# Poissons Ratio (z) = -0.08201 0.55998
#
# Static dielectric constant tensor:
#      x y z
#    x 1.620070 0.000000 0.000000 
#    y 0.000000 1.802120 0.000000 
#    z 0.000000 0.000000 1.684000 
# 
# From -- ./inp_files/11308.got.cif
#   From: 2010.05.17/outbox.cif.g08.bks.cpg/sg67_6_cif.got.tgz:11308.got - 2010.06.03 18:28:57.
