data_PCOD9500520
_publ_section_title
;
Structure prediction by ZEFSAII (Michael W. Deem and Ramdas Pophale) SiO2 
 PCOD9500520
Probable space group: C M M A
;
_chemical_formula_sum "Si O2"
_cell_formula_units_Z 96
_cell_length_a 14.190640
_cell_length_b 15.348604
_cell_length_c 21.619375
_cell_angle_alpha 90.000000
_cell_angle_beta 90.000000
_cell_angle_gamma 90.000000
_cell_volume 4708.840701
_symmetry_space_group_name_H-M "C M M A"
_symmetry_group_IT_number 67
_symmetry_cell_setting 'orthorhombic'
loop_
_space_group_symop_operation_xyz
x,y,z
-x,1/2-y,z
x,-y,-z
-x,1/2+y,-z
-x,-y,-z
x,1/2+y,-z
-x,y,z
x,1/2-y,z
1/2+x,1/2+y,z
1/2-x,-y,z
1/2+x,1/2-y,-z
1/2-x,y,-z
1/2-x,1/2-y,-z
1/2+x,y,-z
1/2-x,1/2+y,z
1/2+x,-y,z
loop_
_atom_site_type_symbol
_atom_site_label
_atom_site_fract_x
_atom_site_fract_y
_atom_site_fract_z
Si Si1 0.892281 0.354179 0.785350
Si Si2 0.608514 0.604572 0.421785
Si Si3 0.785942 0.349915 0.905698
Si Si4 0.893140 0.597884 0.974461
Si Si5 0.236703 0.395306 0.669062
Si Si6 0.608920 0.893160 0.557935
O O1 0.900973 0.250000 0.791330
O O2 0.847729 0.387785 0.849671
O O3 0.815100 0.370912 0.732187
O O4 0.000000 0.387338 0.773434
O O5 0.500000 0.628106 0.416087
O O6 0.663715 0.633114 0.360689
O O7 0.613773 0.498859 0.431884
O O8 0.642711 0.634115 0.489741
O O9 0.762023 0.250000 0.890545
O O10 0.686987 0.395654 0.921978
O O11 0.850338 0.350272 0.967208
O O12 0.000000 0.624371 0.957848
O O13 0.896096 0.500000 0.000000
O O14 0.250000 0.500000 0.671307
O O15 0.167704 0.361043 0.615313
O O16 0.500000 0.868717 0.562354
#
# Coordination Sequence:
#
# PCOD9500520 Si02
#       6
#    16  16  16  16  16  16
#     4  10  22  39  55  72 100 140 182 220 258 302
#     4   8  14  24  40  66  99 129 159 203 260 317
#     4  10  20  35  56  78 103 139 181 216 244 288
#     4  10  20  34  56  86 116 138 159 200 258 309
#     4  10  18  28  48  75  99 126 168 219 264 309
#     4   8  13  23  41  67  97 126 160 207 261 311
#
# _framework density 20.387184000000001
#
# number of rings (size 3 to 8) (size 9 to 14) (size 15 to 20)
#    0.000    2.667    0.000    4.500    0.000    6.000 
#    0.000    0.833    0.000    3.500    0.000    2.333 
#    0.000    0.000    0.000    0.000    0.000    0.000 
#
# Total GULP energy -267243.750522 kJ/mol
# GULP energy per Si atom -5567.578136 kJ/mol
# Density = 2.034078 g / cm^3
# Si number density = 20.387184 Si / 1000 Ang^3
#
#
#
# Elastic Constant Matrix: (Units=GPa)
#
#
# Indices 1 2 3 4 5 6 
#
# 1 159.5411 15.0696 66.1623 0.0000 0.0000 0.0000
# 2 15.0696 32.0073 2.3111 0.0000 0.0000 0.0000
# 3 66.1623 2.3111 113.1474 0.0000 0.0000 0.0000
# 4 0.0000 0.0000 0.0000 25.7202 0.0000 0.0000
# 5 0.0000 0.0000 0.0000 0.0000 37.1493 0.0000
# 6 0.0000 0.0000 0.0000 0.0000 0.0000 14.5928
#
#
#
# Elastic Compliance Matrix: (Units=1/GPa)
#
#
# Indices 1 2 3 4 5 6 
#
# 1 0.008698 -0.003734 -0.005010 0.000000 0.000000 0.000000
# 2 -0.003734 0.032892 0.001511 0.000000 0.000000 0.000000
# 3 -0.005010 0.001511 0.011737 0.000000 0.000000 0.000000
# 4 0.000000 0.000000 0.000000 0.038880 0.000000 0.000000
# 5 0.000000 0.000000 0.000000 0.000000 0.026918 0.000000
# 6 0.000000 0.000000 0.000000 0.000000 0.000000 0.068527
#
#
# Mechanical properties :
#
#
# Convention : Reuss Voigt Hill
#
# Bulk Modulus (GPa) = 25.73196 52.42021 39.07608
# Shear Modulus (GPa) = 23.24819 30.23597 26.74208
#
# Velocity S-wave (km/s) = 3.38055 3.85527 3.62568
# Velocity P-wave (km/s) = 5.28077 6.75171 6.06103
#
# Compressibility (1/GPa) = 0.03886218
#
# Stress axis : x y z
#
# Youngs Moduli (GPa) = 114.96468 30.40289 85.20245
#
# Poissons Ratio (x) = 0.11351 0.42687
# Poissons Ratio (y) = 0.42923 -0.12877
# Poissons Ratio (z) = 0.57598 -0.04595
#
# Static dielectric constant tensor:
#      x y z
#    x 1.758360 0.000000 0.000000 
#    y 0.000000 1.795030 0.000000 
#    z 0.000000 0.000000 1.735250 
# 
# From -- ./inp_files/38386.got.cif
#   From: 2010.05.17/outbox.cif.g08.bks.cpg/sg67_20_cif.got.tgz:38386.got - 2010.06.03 18:28:57.
