data_PCOD9500658
_publ_section_title
;
Structure prediction by ZEFSAII (Michael W. Deem and Ramdas Pophale) SiO2 
 PCOD9500658
Probable space group: C M M A
;
_chemical_formula_sum "Si O2"
_cell_formula_units_Z 80
_cell_length_a 26.563273
_cell_length_b 16.596731
_cell_length_c 9.984487
_cell_angle_alpha 90.000000
_cell_angle_beta 90.000000
_cell_angle_gamma 90.000000
_cell_volume 4401.795849
_symmetry_space_group_name_H-M "C M M A"
_symmetry_group_IT_number 67
_symmetry_cell_setting 'orthorhombic'
loop_
_space_group_symop_operation_xyz
x,y,z
-x,1/2-y,z
x,-y,-z
-x,1/2+y,-z
-x,-y,-z
x,1/2+y,-z
-x,y,z
x,1/2-y,z
1/2+x,1/2+y,z
1/2-x,-y,z
1/2+x,1/2-y,-z
1/2-x,y,-z
1/2-x,1/2-y,-z
1/2+x,y,-z
1/2-x,1/2+y,z
1/2+x,-y,z
loop_
_atom_site_type_symbol
_atom_site_label
_atom_site_fract_x
_atom_site_fract_y
_atom_site_fract_z
Si Si1 0.140135 0.652041 0.047801
Si Si2 0.282625 0.652421 0.720399
Si Si3 0.366457 0.094734 0.480623
Si Si4 0.557638 0.847520 0.743568
Si Si5 0.831663 0.153385 0.244593
O O1 0.138330 0.750000 0.042442
O O2 0.147607 0.621952 0.897117
O O3 0.187452 0.632058 0.143166
O O4 0.090306 0.625623 0.127532
O O5 0.282945 0.750000 0.707230
O O6 0.315358 0.618642 0.598248
O O7 0.225289 0.623832 0.728320
O O8 0.411818 0.124636 0.387013
O O9 0.365036 0.133227 0.627348
O O10 0.368865 0.000000 0.500000
O O11 0.500000 0.874973 0.745955
O O12 0.557903 0.750000 0.743447
O O13 0.828136 0.250000 0.233108
#
# Coordination Sequence:
#
# PCOD9500658 Si02
#       5
#    16  16  16  16  16
#     4   8  15  29  51  77  98 120 161 214 260 301
#     4   9  17  31  50  71  99 136 170 201 248 307
#     4  11  22  33  47  71 106 139 170 205 243 293
#     4   9  18  36  59  76  95 129 169 209 259 315
#     4  10  18  30  51  76 100 127 165 212 252 292
#
# _framework density 18.174399999999999
#
# number of rings (size 3 to 8) (size 9 to 14) (size 15 to 20)
#    0.000    2.600    0.000    4.200    0.000    6.000 
#    0.000    5.000    0.000    9.600    0.000    0.000 
#    0.000    0.000    0.000    0.000    0.000    0.000 
#
# Total GULP energy -223113.143369 kJ/mol
# GULP energy per Si atom -5577.828584 kJ/mol
# Density = 1.813303 g / cm^3
# Si number density = 18.174400 Si / 1000 Ang^3
#
#
#
# Elastic Constant Matrix: (Units=GPa)
#
#
# Indices 1 2 3 4 5 6 
#
# 1 120.9953 15.5532 58.0735 0.0000 0.0000 0.0000
# 2 15.5532 9.6767 8.3857 0.0000 0.0000 0.0000
# 3 58.0735 8.3857 144.9303 0.0000 0.0000 0.0000
# 4 0.0000 0.0000 0.0000 -20.6454 0.0000 0.0000
# 5 0.0000 0.0000 0.0000 0.0000 4.5705 0.0000
# 6 0.0000 0.0000 0.0000 0.0000 0.0000 10.2163
#
#
#
# Elastic Compliance Matrix: (Units=1/GPa)
#
#
# Indices 1 2 3 4 5 6 
#
# 1 0.012262 -0.016267 -0.003972 0.000000 0.000000 0.000000
# 2 -0.016267 0.130374 -0.001026 0.000000 0.000000 0.000000
# 3 -0.003972 -0.001026 0.008551 0.000000 0.000000 0.000000
# 4 0.000000 0.000000 0.000000 -0.048437 0.000000 0.000000
# 5 0.000000 0.000000 0.000000 0.000000 0.218796 0.000000
# 6 0.000000 0.000000 0.000000 0.000000 0.000000 0.097883
#
#
# Mechanical properties :
#
#
# Convention : Reuss Voigt Hill
#
# Bulk Modulus (GPa) = 9.20315 48.84745 29.02530
# Shear Modulus (GPa) = 10.03660 11.73428 10.88544
#
# Velocity S-wave (km/s) = 2.35252 2.54372 2.44999
# Velocity P-wave (km/s) = 3.52902 5.96345 4.89983
#
# Compressibility (1/GPa) = 0.10865845
#
# Stress axis : x y z
#
# Youngs Moduli (GPa) = 81.55074 7.67025 116.94666
#
# Poissons Ratio (x) = 0.12477 0.46455
# Poissons Ratio (y) = 1.32655 0.11993
# Poissons Ratio (z) = 0.32394 0.00787
#
# Static dielectric constant tensor:
#      x y z
#    x 1.613040 0.000000 0.000000 
#    y 0.000000 1.631780 0.000000 
#    z 0.000000 0.000000 1.631240 
# 
# From -- ./inp_files/9882.got.cif
#   From: 2010.05.17/outbox.cif.g08.bks.cpg/sg67_5_cif.got.tgz:9882.got - 2010.06.03 18:28:57.
