data_PCOD9500363
_publ_section_title
;
Structure prediction by ZEFSAII (Michael W. Deem and Ramdas Pophale) SiO2 
 PCOD9500363
Probable space group: C M M A
;
_chemical_formula_sum "Si O2"
_cell_formula_units_Z 80
_cell_length_a 19.394441
_cell_length_b 8.706213
_cell_length_c 26.554569
_cell_angle_alpha 90.000000
_cell_angle_beta 90.000000
_cell_angle_gamma 90.000000
_cell_volume 4483.795653
_symmetry_space_group_name_H-M "C M M A"
_symmetry_group_IT_number 67
_symmetry_cell_setting 'orthorhombic'
loop_
_space_group_symop_operation_xyz
x,y,z
-x,1/2-y,z
x,-y,-z
-x,1/2+y,-z
-x,-y,-z
x,1/2+y,-z
-x,y,z
x,1/2-y,z
1/2+x,1/2+y,z
1/2-x,-y,z
1/2+x,1/2-y,-z
1/2-x,y,-z
1/2-x,1/2-y,-z
1/2+x,y,-z
1/2-x,1/2+y,z
1/2+x,-y,z
loop_
_atom_site_type_symbol
_atom_site_label
_atom_site_fract_x
_atom_site_fract_y
_atom_site_fract_z
Si Si1 0.671770 0.933761 0.051468
Si Si2 0.581204 0.065924 0.640952
Si Si3 0.327063 0.432600 0.155618
Si Si4 0.826586 0.567592 0.446943
Si Si5 0.418347 0.933895 0.243752
O O1 0.673535 0.750000 0.049862
O O2 0.750000 0.000000 0.052258
O O3 0.642321 0.993383 0.104331
O O4 0.639665 0.000000 0.000000
O O5 0.500000 0.032877 0.634439
O O6 0.590103 0.250000 0.635874
O O7 0.599968 0.024951 0.698557
O O8 0.626012 0.982058 0.599325
O O9 0.322298 0.250000 0.149397
O O10 0.250000 0.500000 0.162723
O O11 0.373368 0.478191 0.202992
O O12 0.853114 0.500000 0.500000
O O13 0.822341 0.750000 0.450880
O O14 0.750000 0.500000 0.439614
O O15 0.500000 0.963389 0.237218
O O16 0.407968 0.750000 0.238072
#
# Coordination Sequence:
#
# PCOD9500363 Si02
#       5
#    16  16  16  16  16
#     4  10  17  28  46  70 101 134 170 212 261 312
#     4   9  19  37  59  81 106 137 175 217 260 309
#     4  11  21  33  51  77 107 138 176 219 261 308
#     4  11  22  37  57  80 109 142 176 215 260 311
#     4   9  19  37  58  78 104 139 175 214 263 314
#
# _framework density 17.842026000000001
#
# number of rings (size 3 to 8) (size 9 to 14) (size 15 to 20)
#    0.000    2.000    0.000    9.000    0.000    2.800 
#    0.000    2.000    0.000    0.600    0.000    0.000 
#    0.000    0.000    0.000    0.000    0.000    0.000 
#
# Total GULP energy -223260.895772 kJ/mol
# GULP energy per Si atom -5581.522394 kJ/mol
# Density = 1.780142 g / cm^3
# Si number density = 17.842026 Si / 1000 Ang^3
#
#
#
# Elastic Constant Matrix: (Units=GPa)
#
#
# Indices 1 2 3 4 5 6 
#
# 1 36.0342 44.9290 64.0689 0.0000 0.0000 0.0000
# 2 44.9290 148.7245 93.8727 0.0000 0.0000 0.0000
# 3 64.0689 93.8727 173.2064 0.0000 0.0000 0.0000
# 4 0.0000 0.0000 0.0000 71.2394 0.0000 0.0000
# 5 0.0000 0.0000 0.0000 0.0000 -10.2777 0.0000
# 6 0.0000 0.0000 0.0000 0.0000 0.0000 20.4197
#
#
#
# Elastic Compliance Matrix: (Units=1/GPa)
#
#
# Indices 1 2 3 4 5 6 
#
# 1 0.088725 -0.009254 -0.027804 0.000000 0.000000 0.000000
# 2 -0.009254 0.011185 -0.002639 0.000000 0.000000 0.000000
# 3 -0.027804 -0.002639 0.017488 0.000000 0.000000 0.000000
# 4 0.000000 0.000000 0.000000 0.014037 0.000000 0.000000
# 5 0.000000 0.000000 0.000000 0.000000 -0.097298 0.000000
# 6 0.000000 0.000000 0.000000 0.000000 0.000000 0.048972
#
#
# Mechanical properties :
#
#
# Convention : Reuss Voigt Hill
#
# Bulk Modulus (GPa) = 26.31250 84.85625 55.58437
# Shear Modulus (GPa) = 28.54339 26.61593 27.57966
#
# Velocity S-wave (km/s) = 4.00407 3.86651 3.93589
# Velocity P-wave (km/s) = 6.01301 8.22169 7.20252
#
# Compressibility (1/GPa) = 0.03800475
#
# Stress axis : x y z
#
# Youngs Moduli (GPa) = 11.27077 89.40463 57.18102
#
# Poissons Ratio (x) = 0.82735 1.58986
# Poissons Ratio (y) = 0.10430 0.15090
# Poissons Ratio (z) = 0.31337 0.23593
#
# Static dielectric constant tensor:
#      x y z
#    x 1.585190 0.000000 0.000000 
#    y 0.000000 1.593990 0.000000 
#    z 0.000000 0.000000 1.636670 
# 
# From -- ./inp_files/44440.got.cif
#   From: 2010.05.17/outbox.cif.g08.bks.cpg/sg67_23_cif.got.tgz:44440.got - 2010.06.03 18:28:57.
