data_PCOD9500812
_publ_section_title
;
Structure prediction by ZEFSAII (Michael W. Deem and Ramdas Pophale) SiO2 
 PCOD9500812
Probable space group: C M M A
;
_chemical_formula_sum "Si O2"
_cell_formula_units_Z 64
_cell_length_a 9.123271
_cell_length_b 32.609369
_cell_length_c 11.483132
_cell_angle_alpha 90.000000
_cell_angle_beta 90.000000
_cell_angle_gamma 90.000000
_cell_volume 3416.278972
_symmetry_space_group_name_H-M "C M M A"
_symmetry_group_IT_number 67
_symmetry_cell_setting 'orthorhombic'
loop_
_space_group_symop_operation_xyz
x,y,z
-x,1/2-y,z
x,-y,-z
-x,1/2+y,-z
-x,-y,-z
x,1/2+y,-z
-x,y,z
x,1/2-y,z
1/2+x,1/2+y,z
1/2-x,-y,z
1/2+x,1/2-y,-z
1/2-x,y,-z
1/2-x,1/2-y,-z
1/2+x,y,-z
1/2-x,1/2+y,z
1/2+x,-y,z
loop_
_atom_site_type_symbol
_atom_site_label
_atom_site_fract_x
_atom_site_fract_y
_atom_site_fract_z
Si Si1 0.819866 0.250000 0.872293
Si Si2 0.834068 0.539953 0.822720
Si Si3 0.177976 0.090637 0.625630
Si Si4 0.668618 0.163305 0.214292
Si Si5 0.250000 0.607580 0.000000
O O1 0.769198 0.208347 0.808538
O O2 0.000000 0.250000 0.881247
O O3 0.750000 0.250000 0.000000
O O4 0.750000 0.500000 0.867398
O O5 0.740790 0.556687 0.713765
O O6 0.000000 0.529759 0.789062
O O7 0.838467 0.576096 0.918535
O O8 0.250000 0.086094 0.500000
O O9 0.228320 0.133728 0.685138
O O10 0.000000 0.089080 0.621840
O O11 0.500000 0.169928 0.245250
O O12 0.674233 0.137378 0.093833
#
# Coordination Sequence:
#
# PCOD9500812 Si02
#       5
#     8  16  16  16   8
#     4  10  18  32  53  82 116 148 181 219 266 319
#     4  11  23  37  56  82 112 146 184 228 278 331
#     4  10  21  39  59  80 107 143 187 232 279 328
#     4   9  18  32  53  80 112 147 180 220 271 323
#     4  10  19  33  54  80 114 148 182 223 269 326
#
# _framework density 18.733833000000001
#
# number of rings (size 3 to 8) (size 9 to 14) (size 15 to 20)
#    0.000    2.000    1.250    2.625    0.000    4.500 
#    0.000    4.375    0.000    0.000    0.000    0.000 
#    0.000    0.000    0.000    0.000    0.000    0.000 
#
# Total GULP energy -178284.256539 kJ/mol
# GULP energy per Si atom -5571.383017 kJ/mol
# Density = 1.869119 g / cm^3
# Si number density = 18.733833 Si / 1000 Ang^3
#
#
#
# Elastic Constant Matrix: (Units=GPa)
#
#
# Indices 1 2 3 4 5 6 
#
# 1 85.1493 31.3305 29.7273 0.0000 0.0000 0.0000
# 2 31.3305 129.9731 32.5589 0.0000 0.0000 0.0000
# 3 29.7273 32.5589 106.8095 0.0000 0.0000 0.0000
# 4 0.0000 0.0000 0.0000 16.2366 0.0000 0.0000
# 5 0.0000 0.0000 0.0000 0.0000 14.3855 0.0000
# 6 0.0000 0.0000 0.0000 0.0000 0.0000 19.8155
#
#
#
# Elastic Compliance Matrix: (Units=1/GPa)
#
#
# Indices 1 2 3 4 5 6 
#
# 1 0.013747 -0.002550 -0.003049 0.000000 0.000000 0.000000
# 2 -0.002550 0.008803 -0.001974 0.000000 0.000000 0.000000
# 3 -0.003049 -0.001974 0.010813 0.000000 0.000000 0.000000
# 4 0.000000 0.000000 0.000000 0.061589 0.000000 0.000000
# 5 0.000000 0.000000 0.000000 0.000000 0.069514 0.000000
# 6 0.000000 0.000000 0.000000 0.000000 0.000000 0.050466
#
#
# Mechanical properties :
#
#
# Convention : Reuss Voigt Hill
#
# Bulk Modulus (GPa) = 54.89205 56.57391 55.73298
# Shear Modulus (GPa) = 21.17310 25.30854 23.24082
#
# Velocity S-wave (km/s) = 3.36550 3.67952 3.52601
# Velocity P-wave (km/s) = 6.66834 6.95098 6.81113
#
# Compressibility (1/GPa) = 0.01821757
#
# Stress axis : x y z
#
# Youngs Moduli (GPa) = 72.74479 113.59750 92.48447
#
# Poissons Ratio (x) = 0.28967 0.28195
# Poissons Ratio (y) = 0.18550 0.18254
# Poissons Ratio (z) = 0.22177 0.22421
#
# Static dielectric constant tensor:
#      x y z
#    x 1.654180 0.000000 0.000000 
#    y 0.000000 1.695360 0.000000 
#    z 0.000000 0.000000 1.624740 
# 
# From -- ./inp_files/15843.got.cif
#   From: 2010.05.17/outbox.cif.g08.bks.cpg/sg67_8_cif.got.tgz:15843.got - 2010.06.03 18:28:57.
