data_PCOD9500985
_publ_section_title
;
Structure prediction by ZEFSAII (Michael W. Deem and Ramdas Pophale) SiO2 
 PCOD9500985
Probable space group: C M M A
;
_chemical_formula_sum "Si O2"
_cell_formula_units_Z 64
_cell_length_a 17.510803
_cell_length_b 20.660481
_cell_length_c 8.599062
_cell_angle_alpha 90.000000
_cell_angle_beta 90.000000
_cell_angle_gamma 90.000000
_cell_volume 3110.982518
_symmetry_space_group_name_H-M "C M M A"
_symmetry_group_IT_number 67
_symmetry_cell_setting 'orthorhombic'
loop_
_space_group_symop_operation_xyz
x,y,z
-x,1/2-y,z
x,-y,-z
-x,1/2+y,-z
-x,-y,-z
x,1/2+y,-z
-x,y,z
x,1/2-y,z
1/2+x,1/2+y,z
1/2-x,-y,z
1/2+x,1/2-y,-z
1/2-x,y,-z
1/2-x,1/2-y,-z
1/2+x,y,-z
1/2-x,1/2+y,z
1/2+x,-y,z
loop_
_atom_site_type_symbol
_atom_site_label
_atom_site_fract_x
_atom_site_fract_y
_atom_site_fract_z
Si Si1 0.789627 0.896769 0.167422
Si Si2 0.320553 0.147428 0.595629
Si Si3 0.910795 0.750000 0.795366
Si Si4 0.826713 0.750000 0.100918
Si Si5 0.589121 0.442356 0.375749
O O1 0.724609 0.904390 0.298988
O O2 0.820376 0.821405 0.177316
O O3 0.858842 0.942496 0.221146
O O4 0.750000 0.906262 0.000000
O O5 0.250000 0.178731 0.500000
O O6 0.366487 0.190594 0.716772
O O7 0.379930 0.118587 0.474163
O O8 0.000000 0.750000 0.759559
O O9 0.896274 0.750000 0.979567
O O10 0.750000 0.750000 0.000000
O O11 0.599652 0.500000 0.500000
O O12 0.500000 0.437947 0.337584
#
# Coordination Sequence:
#
# PCOD9500985 Si02
#       5
#    16  16   8   8  16
#     4  10  19  38  66  89 119 160 205 251 304 369
#     4  10  20  36  60  85 119 162 203 249 303 366
#     4  12  21  32  56  90 124 156 199 254 306 370
#     4  10  18  36  59  86 127 156 191 250 313 366
#     4  10  23  42  60  85 126 164 203 259 312 358
#
# _framework density 20.572279000000002
#
# number of rings (size 3 to 8) (size 9 to 14) (size 15 to 20)
#    0.000    1.750    5.000    1.125    0.000    8.500 
#    0.000    3.750    0.000    3.000    0.000    0.000 
#    0.000    0.000    0.000    0.000    0.000    0.000 
#
# Total GULP energy -178247.683323 kJ/mol
# GULP energy per Si atom -5570.240104 kJ/mol
# Density = 2.052546 g / cm^3
# Si number density = 20.572279 Si / 1000 Ang^3
#
#
#
# Elastic Constant Matrix: (Units=GPa)
#
#
# Indices 1 2 3 4 5 6 
#
# 1 157.5744 40.8425 57.9127 0.0000 0.0000 0.0000
# 2 40.8425 45.7073 14.3626 0.0000 0.0000 0.0000
# 3 57.9127 14.3626 118.0518 0.0000 0.0000 0.0000
# 4 0.0000 0.0000 0.0000 28.9680 0.0000 0.0000
# 5 0.0000 0.0000 0.0000 0.0000 42.8060 0.0000
# 6 0.0000 0.0000 0.0000 0.0000 0.0000 31.7158
#
#
#
# Elastic Compliance Matrix: (Units=1/GPa)
#
#
# Indices 1 2 3 4 5 6 
#
# 1 0.009692 -0.007451 -0.003848 0.000000 0.000000 0.000000
# 2 -0.007451 0.028476 0.000191 0.000000 0.000000 0.000000
# 3 -0.003848 0.000191 0.010335 0.000000 0.000000 0.000000
# 4 0.000000 0.000000 0.000000 0.034521 0.000000 0.000000
# 5 0.000000 0.000000 0.000000 0.000000 0.023361 0.000000
# 6 0.000000 0.000000 0.000000 0.000000 0.000000 0.031530
#
#
# Mechanical properties :
#
#
# Convention : Reuss Voigt Hill
#
# Bulk Modulus (GPa) = 38.04175 60.84101 49.44138
# Shear Modulus (GPa) = 29.60432 34.57901 32.09167
#
# Velocity S-wave (km/s) = 3.79758 4.10427 3.95390
# Velocity P-wave (km/s) = 6.14498 7.21793 6.70296
#
# Compressibility (1/GPa) = 0.02628691
#
# Stress axis : x y z
#
# Youngs Moduli (GPa) = 103.18120 35.11685 96.75538
#
# Poissons Ratio (x) = 0.26166 0.37231
# Poissons Ratio (y) = 0.76880 -0.01845
# Poissons Ratio (z) = 0.39703 -0.00670
#
# Static dielectric constant tensor:
#      x y z
#    x 1.730540 0.000000 0.000000 
#    y 0.000000 1.825090 0.000000 
#    z 0.000000 0.000000 1.781430 
# 
# From -- ./inp_files/8039.got.cif
#   From: 2010.05.17/outbox.cif.g08.bks.cpg/sg67_5_cif.got.tgz:8039.got - 2010.06.03 18:28:57.
