data_PCOD9500152
_publ_section_title
;
Structure prediction by ZEFSAII (Michael W. Deem and Ramdas Pophale) SiO2 
 PCOD9500152
Probable space group: C M M A
;
_chemical_formula_sum "Si O2"
_cell_formula_units_Z 104
_cell_length_a 27.446102
_cell_length_b 17.878763
_cell_length_c 11.627523
_cell_angle_alpha 90.000000
_cell_angle_beta 90.000000
_cell_angle_gamma 90.000000
_cell_volume 5705.652895
_symmetry_space_group_name_H-M "C M M A"
_symmetry_group_IT_number 67
_symmetry_cell_setting 'orthorhombic'
loop_
_space_group_symop_operation_xyz
x,y,z
-x,1/2-y,z
x,-y,-z
-x,1/2+y,-z
-x,-y,-z
x,1/2+y,-z
-x,y,z
x,1/2-y,z
1/2+x,1/2+y,z
1/2-x,-y,z
1/2+x,1/2-y,-z
1/2-x,y,-z
1/2-x,1/2-y,-z
1/2+x,y,-z
1/2-x,1/2+y,z
1/2+x,-y,z
loop_
_atom_site_type_symbol
_atom_site_label
_atom_site_fract_x
_atom_site_fract_y
_atom_site_fract_z
Si Si1 0.202597 0.142126 0.562871
Si Si2 0.161425 0.550016 0.783284
Si Si3 0.148344 0.871537 0.213491
Si Si4 0.112375 0.082996 0.444724
Si Si5 0.055102 0.338898 0.632026
Si Si6 0.307138 0.835082 0.025520
Si Si7 0.750000 0.000000 0.350135
O O1 0.250000 0.173553 0.500000
O O2 0.185072 0.162935 0.690068
O O3 0.155772 0.139502 0.482396
O O4 0.215392 0.055323 0.582719
O O5 0.155356 0.461124 0.804631
O O6 0.119844 0.573507 0.691532
O O7 0.167723 0.604581 0.890711
O O8 0.214369 0.552974 0.721770
O O9 0.095505 0.860344 0.272081
O O10 0.162382 0.836266 0.092710
O O11 0.067009 0.118330 0.512638
O O12 0.117955 0.000000 0.500000
O O13 0.059020 0.250000 0.613486
O O14 0.000000 0.356324 0.669103
O O15 0.307220 0.750000 0.072779
O O16 0.250000 0.854770 0.000000
#
# Coordination Sequence:
#
# PCOD9500152 Si02
#       7
#    16  16  16  16  16  16   8
#     4  10  15  24  48  80 111 141 176 229 282 332
#     4  11  20  32  55  84 113 152 199 238 290 341
#     4  10  21  36  59  84 112 147 204 252 287 349
#     4  11  18  32  54  89 115 145 185 240 291 347
#     4  10  22  40  62  86 114 153 193 238 302 365
#     4  11  24  39  53  78 123 168 204 241 287 348
#     4  10  15  24  49  76 112 147 185 222 262 340
#
# _framework density 18.227537000000002
#
# number of rings (size 3 to 8) (size 9 to 14) (size 15 to 20)
#    0.000    1.538    6.154    3.000    0.000    1.538 
#    0.000    0.000    0.000    5.077    0.000    2.154 
#    0.000    0.000    0.000    0.000    0.000    0.000 
#
# Total GULP energy -289508.233973 kJ/mol
# GULP energy per Si atom -5567.466038 kJ/mol
# Density = 1.818605 g / cm^3
# Si number density = 18.227537 Si / 1000 Ang^3
#
#
#
# Elastic Constant Matrix: (Units=GPa)
#
#
# Indices 1 2 3 4 5 6 
#
# 1 98.5987 27.9531 34.6767 0.0000 0.0000 0.0000
# 2 27.9531 97.8177 42.4561 0.0000 0.0000 0.0000
# 3 34.6767 42.4561 102.0726 0.0000 0.0000 0.0000
# 4 0.0000 0.0000 0.0000 4.0828 0.0000 0.0000
# 5 0.0000 0.0000 0.0000 0.0000 16.9167 0.0000
# 6 0.0000 0.0000 0.0000 0.0000 0.0000 12.6176
#
#
#
# Elastic Compliance Matrix: (Units=1/GPa)
#
#
# Indices 1 2 3 4 5 6 
#
# 1 0.011829 -0.001997 -0.003188 0.000000 0.000000 0.000000
# 2 -0.001997 0.012812 -0.004651 0.000000 0.000000 0.000000
# 3 -0.003188 -0.004651 0.012815 0.000000 0.000000 0.000000
# 4 0.000000 0.000000 0.000000 0.244927 0.000000 0.000000
# 5 0.000000 0.000000 0.000000 0.000000 0.059113 0.000000
# 6 0.000000 0.000000 0.000000 0.000000 0.000000 0.079255
#
#
# Mechanical properties :
#
#
# Convention : Reuss Voigt Hill
#
# Bulk Modulus (GPa) = 56.22786 56.51788 56.37287
# Shear Modulus (GPa) = 11.20195 19.61697 15.40946
#
# Velocity S-wave (km/s) = 2.48173 3.28415 2.91072
# Velocity P-wave (km/s) = 6.25513 6.74203 6.50314
#
# Compressibility (1/GPa) = 0.01778478
#
# Stress axis : x y z
#
# Youngs Moduli (GPa) = 84.53456 78.05007 78.03626
#
# Poissons Ratio (x) = 0.15584 0.24880
# Poissons Ratio (y) = 0.16879 0.36293
# Poissons Ratio (z) = 0.26952 0.36300
#
# Static dielectric constant tensor:
#      x y z
#    x 1.646060 0.000000 0.000000 
#    y 0.000000 1.646770 0.000000 
#    z 0.000000 0.000000 1.696260 
# 
# From -- ./inp_files/22999.got.cif
#   From: 2010.05.17/outbox.cif.g08.bks.cpg/sg67_12_cif.got.tgz:22999.got - 2010.06.03 18:28:57.
