data_PCOD9500565
_publ_section_title
;
Structure prediction by ZEFSAII (Michael W. Deem and Ramdas Pophale) SiO2 
 PCOD9500565
Probable space group: C M M A
;
_chemical_formula_sum "Si O2"
_cell_formula_units_Z 96
_cell_length_a 24.314269
_cell_length_b 14.943420
_cell_length_c 12.622420
_cell_angle_alpha 90.000000
_cell_angle_beta 90.000000
_cell_angle_gamma 90.000000
_cell_volume 4586.209050
_symmetry_space_group_name_H-M "C M M A"
_symmetry_group_IT_number 67
_symmetry_cell_setting 'orthorhombic'
loop_
_space_group_symop_operation_xyz
x,y,z
-x,1/2-y,z
x,-y,-z
-x,1/2+y,-z
-x,-y,-z
x,1/2+y,-z
-x,y,z
x,1/2-y,z
1/2+x,1/2+y,z
1/2-x,-y,z
1/2+x,1/2-y,-z
1/2-x,y,-z
1/2-x,1/2-y,-z
1/2+x,y,-z
1/2-x,1/2+y,z
1/2+x,-y,z
loop_
_atom_site_type_symbol
_atom_site_label
_atom_site_fract_x
_atom_site_fract_y
_atom_site_fract_z
Si Si1 0.561628 0.858857 0.494098
Si Si2 0.436286 0.909871 0.069361
Si Si3 0.261902 0.640891 0.378567
Si Si4 0.121019 0.858952 0.717803
Si Si5 0.643902 0.140459 0.320552
Si Si6 0.439376 0.149380 0.151721
O O1 0.500000 0.888696 0.523090
O O2 0.561475 0.750000 0.497540
O O3 0.578291 0.884234 0.375150
O O4 0.609093 0.887134 0.575891
O O5 0.500000 0.900245 0.103556
O O6 0.397604 0.896801 0.169314
O O7 0.426538 0.843296 0.971837
O O8 0.430104 0.000000 0.000000
O O9 0.264808 0.750000 0.380125
O O10 0.250000 0.613849 0.500000
O O11 0.318989 0.612487 0.325463
O O12 0.206872 0.611275 0.318478
O O13 0.120659 0.750000 0.726247
O O14 0.646829 0.250000 0.322867
O O15 0.608623 0.107822 0.220786
O O16 0.500000 0.106617 0.163612
O O17 0.444404 0.250000 0.194631
#
# Coordination Sequence:
#
# PCOD9500565 Si02
#       6
#    16  16  16  16  16  16
#     4   9  15  22  38  69 104 130 158 205 258 305
#     4  10  21  36  52  70  97 135 175 217 267 313
#     4   9  15  26  44  72 108 138 162 200 257 315
#     4  10  18  29  49  76 104 136 175 215 258 309
#     4   9  15  25  43  70 103 133 161 198 252 309
#     4   9  17  30  50  74  98 127 166 212 259 309
#
# _framework density 20.932321000000002
#
# number of rings (size 3 to 8) (size 9 to 14) (size 15 to 20)
#    0.000    2.667    1.667    1.500    0.000    3.667 
#    0.000    0.833    0.000    7.000    0.000    5.833 
#    0.000    0.000    0.000    0.000    0.000    0.167 
#
# Total GULP energy -267666.175630 kJ/mol
# GULP energy per Si atom -5576.378659 kJ/mol
# Density = 2.088468 g / cm^3
# Si number density = 20.932321 Si / 1000 Ang^3
#
#
#
# Elastic Constant Matrix: (Units=GPa)
#
#
# Indices 1 2 3 4 5 6 
#
# 1 152.8164 -2.1330 81.0570 0.0000 0.0000 0.0000
# 2 -2.1330 39.9522 6.5744 0.0000 0.0000 0.0000
# 3 81.0570 6.5744 121.1562 0.0000 0.0000 0.0000
# 4 0.0000 0.0000 0.0000 -3.1518 0.0000 0.0000
# 5 0.0000 0.0000 0.0000 0.0000 36.7271 0.0000
# 6 0.0000 0.0000 0.0000 0.0000 0.0000 -3.4490
#
#
#
# Elastic Compliance Matrix: (Units=1/GPa)
#
#
# Indices 1 2 3 4 5 6 
#
# 1 0.010255 0.001692 -0.006953 0.000000 0.000000 0.000000
# 2 0.001692 0.025534 -0.002517 0.000000 0.000000 0.000000
# 3 -0.006953 -0.002517 0.013042 0.000000 0.000000 0.000000
# 4 0.000000 0.000000 0.000000 -0.317281 0.000000 0.000000
# 5 0.000000 0.000000 0.000000 0.000000 0.027228 0.000000
# 6 0.000000 0.000000 0.000000 0.000000 0.000000 -0.289938
#
#
# Mechanical properties :
#
#
# Convention : Reuss Voigt Hill
#
# Bulk Modulus (GPa) = 30.05289 53.88019 41.96654
# Shear Modulus (GPa) = -9.91060 21.25369 5.67154
#
# Velocity S-wave (km/s) = -2.17827 3.18992 1.64783
# Velocity P-wave (km/s) = 2.83934 6.27403 4.86957
#
# Compressibility (1/GPa) = 0.03327467
#
# Stress axis : x y z
#
# Youngs Moduli (GPa) = 97.50953 39.16278 76.67451
#
# Poissons Ratio (x) = -0.06625 0.53311
# Poissons Ratio (y) = -0.16495 0.19302
# Poissons Ratio (z) = 0.67798 0.09859
#
# Static dielectric constant tensor:
#      x y z
#    x 1.758360 0.000000 0.000000 
#    y 0.000000 2.039340 0.000000 
#    z 0.000000 0.000000 1.724760 
# 
# From -- ./inp_files/19664.got.cif
#   From: 2010.05.17/outbox.cif.g08.bks.cpg/sg67_10_cif.got.tgz:19664.got - 2010.06.03 18:28:57.
