data_PCOD9500856
_publ_section_title
;
Structure prediction by ZEFSAII (Michael W. Deem and Ramdas Pophale) SiO2 
 PCOD9500856
Probable space group: C M M A
;
_chemical_formula_sum "Si O2"
_cell_formula_units_Z 64
_cell_length_a 15.122877
_cell_length_b 19.859644
_cell_length_c 10.604451
_cell_angle_alpha 90.000000
_cell_angle_beta 90.000000
_cell_angle_gamma 90.000000
_cell_volume 3184.887298
_symmetry_space_group_name_H-M "C M M A"
_symmetry_group_IT_number 67
_symmetry_cell_setting 'orthorhombic'
loop_
_space_group_symop_operation_xyz
x,y,z
-x,1/2-y,z
x,-y,-z
-x,1/2+y,-z
-x,-y,-z
x,1/2+y,-z
-x,y,z
x,1/2-y,z
1/2+x,1/2+y,z
1/2-x,-y,z
1/2+x,1/2-y,-z
1/2-x,y,-z
1/2-x,1/2-y,-z
1/2+x,y,-z
1/2-x,1/2+y,z
1/2+x,-y,z
loop_
_atom_site_type_symbol
_atom_site_label
_atom_site_fract_x
_atom_site_fract_y
_atom_site_fract_z
Si Si1 0.106948 0.827486 0.778828
Si Si2 0.651374 0.470388 0.871616
Si Si3 0.604111 0.041565 0.383437
Si Si4 0.392373 0.676405 0.517446
O O1 0.132037 0.750000 0.811665
O O2 0.146392 0.889569 0.858187
O O3 0.127455 0.837690 0.629811
O O4 0.000000 0.831843 0.790519
O O5 0.750000 0.500000 0.869875
O O6 0.610985 0.502076 0.745738
O O7 0.610083 0.500000 0.000000
O O8 0.500000 0.049054 0.409165
O O9 0.640917 0.117067 0.392688
O O10 0.642855 0.000000 0.500000
O O11 0.500000 0.680092 0.523894
O O12 0.357729 0.750000 0.551711
#
# Coordination Sequence:
#
# PCOD9500856 Si02
#       4
#    16  16  16  16
#     4   9  17  34  61  86 108 142 191 239 281 333
#     4  11  24  39  52  77 117 158 191 225 280 340
#     4  10  18  32  56  82 105 135 183 239 289 329
#     4   8  14  27  50  81 111 134 165 222 290 340
#
# _framework density 20.094902999999999
#
# number of rings (size 3 to 8) (size 9 to 14) (size 15 to 20)
#    0.000    2.500    2.500    2.250    0.000    2.500 
#    0.000    5.000    0.000    6.000    0.000    0.000 
#    0.000    0.000    0.000    0.000    0.000    0.000 
#
# Total GULP energy -178331.871537 kJ/mol
# GULP energy per Si atom -5572.870986 kJ/mol
# Density = 2.004917 g / cm^3
# Si number density = 20.094903 Si / 1000 Ang^3
#
#
#
# Elastic Constant Matrix: (Units=GPa)
#
#
# Indices 1 2 3 4 5 6 
#
# 1 34.9315 18.2110 -11.4505 0.0000 0.0000 0.0000
# 2 18.2110 208.3901 73.7810 0.0000 0.0000 0.0000
# 3 -11.4505 73.7810 88.6709 0.0000 0.0000 0.0000
# 4 0.0000 0.0000 0.0000 20.4980 0.0000 0.0000
# 5 0.0000 0.0000 0.0000 0.0000 8.5873 0.0000
# 6 0.0000 0.0000 0.0000 0.0000 0.0000 12.2548
#
#
#
# Elastic Compliance Matrix: (Units=1/GPa)
#
#
# Indices 1 2 3 4 5 6 
#
# 1 0.035438 -0.006687 0.010140 0.000000 0.000000 0.000000
# 2 -0.006687 0.008065 -0.007574 0.000000 0.000000 0.000000
# 3 0.010140 -0.007574 0.018889 0.000000 0.000000 0.000000
# 4 0.000000 0.000000 0.000000 0.048785 0.000000 0.000000
# 5 0.000000 0.000000 0.000000 0.000000 0.116451 0.000000
# 6 0.000000 0.000000 0.000000 0.000000 0.000000 0.081601
#
#
# Mechanical properties :
#
#
# Convention : Reuss Voigt Hill
#
# Bulk Modulus (GPa) = 18.46709 54.78616 36.62662
# Shear Modulus (GPa) = 14.90225 25.03142 19.96684
#
# Velocity S-wave (km/s) = 2.72618 3.53322 3.15560
# Velocity P-wave (km/s) = 4.37256 6.63082 5.61636
#
# Compressibility (1/GPa) = 0.05415038
#
# Stress axis : x y z
#
# Youngs Moduli (GPa) = 28.21851 123.99808 52.94021
#
# Poissons Ratio (x) = 0.82919 -0.53684
# Poissons Ratio (y) = 0.18870 0.40097
# Poissons Ratio (z) = -0.28615 0.93915
#
# Static dielectric constant tensor:
#      x y z
#    x 1.897370 0.000000 0.000000 
#    y 0.000000 1.781530 0.000000 
#    z 0.000000 0.000000 1.713820 
# 
# From -- ./inp_files/9342.got.cif
#   From: 2010.05.17/outbox.cif.g08.bks.cpg/sg67_5_cif.got.tgz:9342.got - 2010.06.03 18:28:57.
