data_PCOD9500474
_publ_section_title
;
Structure prediction by ZEFSAII (Michael W. Deem and Ramdas Pophale) SiO2 
 PCOD9500474
Probable space group: C M M A
;
_chemical_formula_sum "Si O2"
_cell_formula_units_Z 96
_cell_length_a 20.343321
_cell_length_b 21.764192
_cell_length_c 11.925037
_cell_angle_alpha 90.000000
_cell_angle_beta 90.000000
_cell_angle_gamma 90.000000
_cell_volume 5279.881016
_symmetry_space_group_name_H-M "C M M A"
_symmetry_group_IT_number 67
_symmetry_cell_setting 'orthorhombic'
loop_
_space_group_symop_operation_xyz
x,y,z
-x,1/2-y,z
x,-y,-z
-x,1/2+y,-z
-x,-y,-z
x,1/2+y,-z
-x,y,z
x,1/2-y,z
1/2+x,1/2+y,z
1/2-x,-y,z
1/2+x,1/2-y,-z
1/2-x,y,-z
1/2-x,1/2-y,-z
1/2+x,y,-z
1/2-x,1/2+y,z
1/2+x,-y,z
loop_
_atom_site_type_symbol
_atom_site_label
_atom_site_fract_x
_atom_site_fract_y
_atom_site_fract_z
Si Si1 0.758650 0.823201 0.674742
Si Si2 0.926940 0.322490 0.933658
Si Si3 0.000000 0.412386 0.393292
Si Si4 0.190424 0.675614 0.921246
Si Si5 0.114836 0.361047 0.690604
Si Si6 0.608698 0.680357 0.444572
Si Si7 0.000000 0.452311 0.654664
O O1 0.739039 0.750000 0.673061
O O2 0.795096 0.836665 0.792114
O O3 0.693370 0.864466 0.673638
O O4 0.814265 0.831252 0.580153
O O5 0.932431 0.250000 0.956016
O O6 0.897304 0.328296 0.808929
O O7 0.000000 0.349452 0.936208
O O8 0.876945 0.348450 0.025525
O O9 0.063497 0.368993 0.382141
O O10 0.000000 0.436417 0.521966
O O11 0.000000 0.475086 0.324064
O O12 0.189229 0.750000 0.930303
O O13 0.250000 0.654062 0.000000
O O14 0.093525 0.325547 0.577128
O O15 0.067283 0.420226 0.696367
O O16 0.594928 0.750000 0.407212
#
# Coordination Sequence:
#
# PCOD9500474 Si02
#       7
#    16  16   8  16  16  16   8
#     4  10  19  31  47  73 110 142 169 205 256 317
#     4  10  18  27  43  70 103 136 173 214 254 299
#     4   9  19  38  52  67 103 140 175 214 251 302
#     4   9  16  28  44  64 100 143 170 199 250 307
#     4  11  18  30  49  77 107 134 169 214 260 303
#     4  10  20  32  51  78 106 137 169 206 261 321
#     4   9  20  34  52  73  98 137 179 218 252 291
#
# _framework density 18.182227999999999
#
# number of rings (size 3 to 8) (size 9 to 14) (size 15 to 20)
#    0.000    2.167    2.500    2.250    0.000    1.333 
#    1.500    0.833    0.000    4.000    0.000    2.333 
#    0.000    0.000    0.000    0.000    0.000    0.000 
#
# Total GULP energy -267287.966229 kJ/mol
# GULP energy per Si atom -5568.499296 kJ/mol
# Density = 1.814084 g / cm^3
# Si number density = 18.182228 Si / 1000 Ang^3
#
#
#
# Elastic Constant Matrix: (Units=GPa)
#
#
# Indices 1 2 3 4 5 6 
#
# 1 132.4245 57.5338 24.3203 0.0000 0.0000 0.0000
# 2 57.5338 76.8641 6.5849 0.0000 0.0000 0.0000
# 3 24.3203 6.5849 52.9170 0.0000 0.0000 0.0000
# 4 0.0000 0.0000 0.0000 4.2379 0.0000 0.0000
# 5 0.0000 0.0000 0.0000 0.0000 29.9861 0.0000
# 6 0.0000 0.0000 0.0000 0.0000 0.0000 3.0559
#
#
#
# Elastic Compliance Matrix: (Units=1/GPa)
#
#
# Indices 1 2 3 4 5 6 
#
# 1 0.012169 -0.008722 -0.004507 0.000000 0.000000 0.000000
# 2 -0.008722 0.019402 0.001594 0.000000 0.000000 0.000000
# 3 -0.004507 0.001594 0.020771 0.000000 0.000000 0.000000
# 4 0.000000 0.000000 0.000000 0.235966 0.000000 0.000000
# 5 0.000000 0.000000 0.000000 0.000000 0.033349 0.000000
# 6 0.000000 0.000000 0.000000 0.000000 0.000000 0.327233
#
#
# Mechanical properties :
#
#
# Convention : Reuss Voigt Hill
#
# Bulk Modulus (GPa) = 34.39850 48.78706 41.59278
# Shear Modulus (GPa) = 7.33298 19.04042 13.18670
#
# Velocity S-wave (km/s) = 2.01042 3.23956 2.69597
# Velocity P-wave (km/s) = 4.93446 6.39402 5.71106
#
# Compressibility (1/GPa) = 0.02907103
#
# Stress axis : x y z
#
# Youngs Moduli (GPa) = 82.17718 51.54049 48.14486
#
# Poissons Ratio (x) = 0.44956 0.21700
# Poissons Ratio (y) = 0.71678 -0.07676
# Poissons Ratio (z) = 0.37040 -0.08217
#
# Static dielectric constant tensor:
#      x y z
#    x 1.673060 0.000000 0.000000 
#    y 0.000000 1.597990 0.000000 
#    z 0.000000 0.000000 1.647130 
# 
# From -- ./inp_files/20895.got.cif
#   From: 2010.05.17/outbox.cif.g08.bks.cpg/sg67_11_cif.got.tgz:20895.got - 2010.06.03 18:28:57.
