data_PCOD9500252
_publ_section_title
;
Structure prediction by ZEFSAII (Michael W. Deem and Ramdas Pophale) SiO2 
 PCOD9500252
Probable space group: C M M A
;
_chemical_formula_sum "Si O2"
_cell_formula_units_Z 128
_cell_length_a 18.712058
_cell_length_b 16.665437
_cell_length_c 21.116031
_cell_angle_alpha 90.000000
_cell_angle_beta 90.000000
_cell_angle_gamma 90.000000
_cell_volume 6584.920742
_symmetry_space_group_name_H-M "C M M A"
_symmetry_group_IT_number 67
_symmetry_cell_setting 'orthorhombic'
loop_
_space_group_symop_operation_xyz
x,y,z
-x,1/2-y,z
x,-y,-z
-x,1/2+y,-z
-x,-y,-z
x,1/2+y,-z
-x,y,z
x,1/2-y,z
1/2+x,1/2+y,z
1/2-x,-y,z
1/2+x,1/2-y,-z
1/2-x,y,-z
1/2-x,1/2-y,-z
1/2+x,y,-z
1/2-x,1/2+y,z
1/2+x,-y,z
loop_
_atom_site_type_symbol
_atom_site_label
_atom_site_fract_x
_atom_site_fract_y
_atom_site_fract_z
Si Si1 0.163910 0.337175 0.497663
Si Si2 0.215537 0.846622 0.273630
Si Si3 0.284776 0.088744 0.142836
Si Si4 0.833829 0.844596 0.019931
Si Si5 0.675086 0.952092 0.607575
Si Si6 0.880342 0.345365 0.248114
Si Si7 0.632266 0.343726 0.885694
Si Si8 0.920555 0.899323 0.619388
O O1 0.138298 0.250000 0.520175
O O2 0.250000 0.335248 0.500000
O O3 0.147095 0.409250 0.544468
O O4 0.132045 0.352209 0.428257
O O5 0.208580 0.750000 0.273934
O O6 0.182688 0.886444 0.210338
O O7 0.188672 0.886604 0.337983
O O8 0.299372 0.869367 0.266425
O O9 0.337337 0.103994 0.083912
O O10 0.216905 0.148080 0.130968
O O11 0.250000 0.000000 0.143011
O O12 0.850356 0.750000 0.031260
O O13 0.750000 0.848068 0.000000
O O14 0.875279 0.875740 0.957249
O O15 0.750000 0.000000 0.596430
O O16 0.615285 0.014555 0.627719
O O17 0.879316 0.250000 0.239365
O O18 0.901957 0.378848 0.178763
O O19 0.923665 0.363305 0.310631
O O20 0.613268 0.250000 0.891244
O O21 0.000000 0.901376 0.591761
#
# Coordination Sequence:
#
# PCOD9500252 Si02
#       8
#    16  16  16  16  16  16  16  16
#     4  11  23  40  63  89 116 155 198 231 274 341
#     4  10  19  33  54  81 108 149 199 238 282 348
#     4  10  17  22  38  67 106 143 182 234 285 339
#     4   8  13  23  35  54  92 143 184 219 272 333
#     4  12  22  38  62  85 115 151 190 239 287 338
#     4   9  17  32  53  77 109 147 189 233 282 341
#     4   8  15  26  41  60  93 144 188 220 269 338
#     4  12  26  40  60  89 121 151 187 240 300 349
#
# _framework density 19.438351000000001
#
# number of rings (size 3 to 8) (size 9 to 14) (size 15 to 20)
#    0.000    2.000    2.500    4.125    1.750    6.250 
#    0.000    0.000    0.000    1.125    0.000    0.000 
#    0.000    2.000    0.000    3.625    0.000    0.625 
#
# Total GULP energy -356495.150741 kJ/mol
# GULP energy per Si atom -5570.236730 kJ/mol
# Density = 1.939411 g / cm^3
# Si number density = 19.438351 Si / 1000 Ang^3
#
#
#
# Elastic Constant Matrix: (Units=GPa)
#
#
# Indices 1 2 3 4 5 6 
#
# 1 44.8915 5.1297 19.9453 0.0000 0.0000 0.0000
# 2 5.1297 51.8697 36.4276 0.0000 0.0000 0.0000
# 3 19.9453 36.4276 138.7651 0.0000 0.0000 0.0000
# 4 0.0000 0.0000 0.0000 18.2336 0.0000 0.0000
# 5 0.0000 0.0000 0.0000 0.0000 4.0792 0.0000
# 6 0.0000 0.0000 0.0000 0.0000 0.0000 -7.0686
#
#
#
# Elastic Compliance Matrix: (Units=1/GPa)
#
#
# Indices 1 2 3 4 5 6 
#
# 1 0.023796 0.000060 -0.003436 0.000000 0.000000 0.000000
# 2 0.000060 0.023637 -0.006214 0.000000 0.000000 0.000000
# 3 -0.003436 -0.006214 0.009331 0.000000 0.000000 0.000000
# 4 0.000000 0.000000 0.000000 0.054844 0.000000 0.000000
# 5 0.000000 0.000000 0.000000 0.000000 0.245149 0.000000
# 6 0.000000 0.000000 0.000000 0.000000 0.000000 -0.141470
#
#
# Mechanical properties :
#
#
# Convention : Reuss Voigt Hill
#
# Bulk Modulus (GPa) = 26.60674 39.83685 33.22180
# Shear Modulus (GPa) = 20.24340 14.65041 17.44690
#
# Velocity S-wave (km/s) = 3.23060 2.74831 2.99917
# Velocity P-wave (km/s) = 5.25672 5.53258 5.39641
#
# Compressibility (1/GPa) = 0.03758446
#
# Stress axis : x y z
#
# Youngs Moduli (GPa) = 42.02441 42.30666 107.16472
#
# Poissons Ratio (x) = -0.00253 0.36821
# Poissons Ratio (y) = -0.00251 0.66588
# Poissons Ratio (z) = 0.14439 0.26288
#
# Static dielectric constant tensor:
#      x y z
#    x 1.592530 0.000000 0.000000 
#    y 0.000000 1.700610 0.000000 
#    z 0.000000 0.000000 1.784340 
# 
# From -- ./inp_files/39425.got.cif
#   From: 2010.05.17/outbox.cif.g08.bks.cpg/sg67_20_cif.got.tgz:39425.got - 2010.06.03 18:28:57.
