data_PCOD9500442
_publ_section_title
;
Structure prediction by ZEFSAII (Michael W. Deem and Ramdas Pophale) SiO2 
 PCOD9500442
Probable space group: C M M A
;
_chemical_formula_sum "Si O2"
_cell_formula_units_Z 100
_cell_length_a 16.740171
_cell_length_b 18.838280
_cell_length_c 15.281333
_cell_angle_alpha 90.000000
_cell_angle_beta 90.000000
_cell_angle_gamma 90.000000
_cell_volume 4819.060486
_symmetry_space_group_name_H-M "C M M A"
_symmetry_group_IT_number 67
_symmetry_cell_setting 'orthorhombic'
loop_
_space_group_symop_operation_xyz
x,y,z
-x,1/2-y,z
x,-y,-z
-x,1/2+y,-z
-x,-y,-z
x,1/2+y,-z
-x,y,z
x,1/2-y,z
1/2+x,1/2+y,z
1/2-x,-y,z
1/2+x,1/2-y,-z
1/2-x,y,-z
1/2-x,1/2-y,-z
1/2+x,y,-z
1/2-x,1/2+y,z
1/2+x,-y,z
loop_
_atom_site_type_symbol
_atom_site_label
_atom_site_fract_x
_atom_site_fract_y
_atom_site_fract_z
Si Si1 0.904202 0.915814 0.516674
Si Si2 0.660256 0.328237 0.357344
Si Si3 0.595593 0.170707 0.873388
Si Si4 0.500000 0.250000 0.312951
Si Si5 0.820266 0.056976 0.777007
Si Si6 0.095163 0.925013 0.712268
Si Si7 0.343181 0.078112 0.026278
O O1 0.855571 0.869017 0.447928
O O2 0.877061 0.901914 0.616254
O O3 0.000000 0.900484 0.508674
O O4 0.893998 0.000000 0.500000
O O5 0.698099 0.250000 0.368958
O O6 0.571672 0.310429 0.319075
O O7 0.702007 0.380316 0.288646
O O8 0.500000 0.174116 0.865970
O O9 0.628652 0.250000 0.866161
O O10 0.624982 0.120776 0.794640
O O11 0.615498 0.136284 0.966358
O O12 0.849572 0.086155 0.869931
O O13 0.750000 0.000000 0.795045
O O14 0.884662 0.007070 0.729286
O O15 0.000000 0.917559 0.710167
O O16 0.250000 0.080014 0.000000
O O17 0.374469 0.000000 0.000000
#
# Coordination Sequence:
#
# PCOD9500442 Si02
#       7
#    16  16  16   4  16  16  16
#     4  10  17  31  58  94 124 161 212 257 302 366
#     4  10  21  38  61  94 132 159 203 261 314 365
#     4  10  22  40  56  90 128 154 193 257 319 373
#     4   8  20  40  62  96 134 162 200 270 322 360
#     4  12  23  39  62  91 125 162 211 259 315 378
#     4  10  21  34  61  89 118 165 212 256 305 362
#     4  11  21  41  65  85 112 154 207 254 295 366
#
# _framework density 20.750931999999999
#
# number of rings (size 3 to 8) (size 9 to 14) (size 15 to 20)
#    0.480    1.120    5.600    0.000    1.120    2.560 
#    0.000    5.600    0.000    0.960    0.000    0.000 
#    0.000    0.000    0.000    0.000    0.000    0.000 
#
# Total GULP energy -278579.291782 kJ/mol
# GULP energy per Si atom -5571.585836 kJ/mol
# Density = 2.070370 g / cm^3
# Si number density = 20.750932 Si / 1000 Ang^3
#
#
#
# Elastic Constant Matrix: (Units=GPa)
#
#
# Indices 1 2 3 4 5 6 
#
# 1 22.5482 9.1901 13.4318 0.0000 0.0000 0.0000
# 2 9.1901 134.6794 76.1064 0.0000 0.0000 0.0000
# 3 13.4318 76.1064 185.8826 0.0000 0.0000 0.0000
# 4 0.0000 0.0000 0.0000 19.6993 0.0000 0.0000
# 5 0.0000 0.0000 0.0000 0.0000 23.0990 0.0000
# 6 0.0000 0.0000 0.0000 0.0000 0.0000 6.6269
#
#
#
# Elastic Compliance Matrix: (Units=1/GPa)
#
#
# Indices 1 2 3 4 5 6 
#
# 1 0.046629 -0.001662 -0.002689 0.000000 0.000000 0.000000
# 2 -0.001662 0.009719 -0.003859 0.000000 0.000000 0.000000
# 3 -0.002689 -0.003859 0.007154 0.000000 0.000000 0.000000
# 4 0.000000 0.000000 0.000000 0.050763 0.000000 0.000000
# 5 0.000000 0.000000 0.000000 0.000000 0.043292 0.000000
# 6 0.000000 0.000000 0.000000 0.000000 0.000000 0.150901
#
#
# Mechanical properties :
#
#
# Convention : Reuss Voigt Hill
#
# Bulk Modulus (GPa) = 21.23988 60.06297 40.65143
# Shear Modulus (GPa) = 14.68115 26.17717 20.42916
#
# Velocity S-wave (km/s) = 2.66276 3.55560 3.14107
# Velocity P-wave (km/s) = 4.43977 6.77229 5.72606
#
# Compressibility (1/GPa) = 0.04708124
#
# Stress axis : x y z
#
# Youngs Moduli (GPa) = 21.44607 102.88770 139.77915
#
# Poissons Ratio (x) = 0.17104 0.37583
# Poissons Ratio (y) = 0.03565 0.53945
# Poissons Ratio (z) = 0.05766 0.39707
#
# Static dielectric constant tensor:
#      x y z
#    x 1.783790 0.000000 0.000000 
#    y 0.000000 1.739430 0.000000 
#    z 0.000000 0.000000 1.728820 
# 
# From -- ./inp_files/29459.got.cif
#   From: 2010.05.17/outbox.cif.g08.bks.cpg/sg67_15_cif.got.tgz:29459.got - 2010.06.03 18:28:57.
