data_PCOD9500867
_publ_section_title
;
Structure prediction by ZEFSAII (Michael W. Deem and Ramdas Pophale) SiO2 
 PCOD9500867
Probable space group: C M M A
;
_chemical_formula_sum "Si O2"
_cell_formula_units_Z 120
_cell_length_a 28.396611
_cell_length_b 26.781508
_cell_length_c 7.834912
_cell_angle_alpha 90.000000
_cell_angle_beta 90.000000
_cell_angle_gamma 90.000000
_cell_volume 5958.482422
_symmetry_space_group_name_H-M "C M M A"
_symmetry_group_IT_number 67
_symmetry_cell_setting 'orthorhombic'
loop_
_space_group_symop_operation_xyz
x,y,z
-x,1/2-y,z
x,-y,-z
-x,1/2+y,-z
-x,-y,-z
x,1/2+y,-z
-x,y,z
x,1/2-y,z
1/2+x,1/2+y,z
1/2-x,-y,z
1/2+x,1/2-y,-z
1/2-x,y,-z
1/2-x,1/2-y,-z
1/2+x,y,-z
1/2-x,1/2+y,z
1/2+x,-y,z
loop_
_atom_site_type_symbol
_atom_site_label
_atom_site_fract_x
_atom_site_fract_y
_atom_site_fract_z
Si Si1 0.949616 0.877524 0.544597
Si Si2 0.589276 0.465036 0.336614
Si Si3 0.361327 0.806716 0.437300
Si Si4 0.678371 0.195682 0.177287
Si Si5 0.649341 0.584360 0.916523
Si Si6 0.946332 0.555563 0.883249
Si Si7 0.750000 0.575147 0.000000
Si Si8 0.232583 0.849942 0.693995
O O1 0.942187 0.918631 0.396800
O O2 0.908221 0.838454 0.558200
O O3 0.949054 0.909142 0.717808
O O4 0.000000 0.852559 0.521496
O O5 0.597997 0.500000 0.500000
O O6 0.636290 0.438904 0.266931
O O7 0.565414 0.500560 0.194155
O O8 0.368040 0.750000 0.379491
O O9 0.343854 0.805313 0.633479
O O10 0.320939 0.832922 0.325070
O O11 0.667615 0.250000 0.097772
O O12 0.661513 0.143807 0.090017
O O13 0.734018 0.191380 0.218149
O O14 0.696532 0.555905 0.976492
O O15 0.600658 0.574497 0.018396
O O16 0.000000 0.557410 0.957121
O O17 0.758363 0.604750 0.821869
O O18 0.250000 0.859342 0.500000
#
# Coordination Sequence:
#
# PCOD9500867 Si02
#       8
#    16  16  16  16  16  16   8  16
#     4  10  20  36  57  85 118 151 196 247 300 365
#     4  10  21  39  63  87 111 148 201 255 307 356
#     4  10  18  32  56  86 119 156 197 241 292 353
#     4   9  18  34  57  87 120 154 196 239 287 353
#     4  11  21  39  61  90 123 154 193 247 303 365
#     4  10  22  39  62  87 114 150 198 258 310 352
#     4  10  22  38  60  92 126 160 202 242 304 378
#     4   9  18  34  58  85 119 160 203 253 293 338
#
# _framework density 20.139355999999999
#
# number of rings (size 3 to 8) (size 9 to 14) (size 15 to 20)
#    0.000    2.133    1.333    2.000    0.000    5.067 
#    0.000   13.000    0.000    6.800    0.000    0.000 
#    0.000    0.000    0.000    0.000    0.000    0.000 
#
# Total GULP energy -334205.863012 kJ/mol
# GULP energy per Si atom -5570.097717 kJ/mol
# Density = 2.009352 g / cm^3
# Si number density = 20.139356 Si / 1000 Ang^3
#
#
#
# Elastic Constant Matrix: (Units=GPa)
#
#
# Indices 1 2 3 4 5 6 
#
# 1 189.8942 64.5467 36.7424 0.0000 0.0000 0.0000
# 2 64.5467 88.9523 30.0999 0.0000 0.0000 0.0000
# 3 36.7424 30.0999 59.4749 0.0000 0.0000 0.0000
# 4 0.0000 0.0000 0.0000 14.7101 0.0000 0.0000
# 5 0.0000 0.0000 0.0000 0.0000 8.6954 0.0000
# 6 0.0000 0.0000 0.0000 0.0000 0.0000 11.4749
#
#
#
# Elastic Compliance Matrix: (Units=1/GPa)
#
#
# Indices 1 2 3 4 5 6 
#
# 1 0.007217 -0.004499 -0.002182 0.000000 0.000000 0.000000
# 2 -0.004499 0.016369 -0.005505 0.000000 0.000000 0.000000
# 3 -0.002182 -0.005505 0.020948 0.000000 0.000000 0.000000
# 4 0.000000 0.000000 0.000000 0.067980 0.000000 0.000000
# 5 0.000000 0.000000 0.000000 0.000000 0.115004 0.000000
# 6 0.000000 0.000000 0.000000 0.000000 0.000000 0.087147
#
#
# Mechanical properties :
#
#
# Convention : Reuss Voigt Hill
#
# Bulk Modulus (GPa) = 49.59625 66.78880 58.19253
# Shear Modulus (GPa) = 14.46098 20.77158 17.61628
#
# Velocity S-wave (km/s) = 2.68254 3.21501 2.96077
# Velocity P-wave (km/s) = 5.85446 6.85690 6.37541
#
# Compressibility (1/GPa) = 0.02016281
#
# Stress axis : x y z
#
# Youngs Moduli (GPa) = 138.55226 61.08971 47.73754
#
# Poissons Ratio (x) = 0.27484 0.10416
# Poissons Ratio (y) = 0.62333 0.26280
# Poissons Ratio (z) = 0.30231 0.33631
#
# Static dielectric constant tensor:
#      x y z
#    x 1.727430 0.000000 0.000000 
#    y 0.000000 1.722470 0.000000 
#    z 0.000000 0.000000 1.766980 
# 
# From -- ./inp_files/14102.got.cif
#   From: 2010.05.17/outbox.cif.g08.bks.cpg/sg67_8_cif.got.tgz:14102.got - 2010.06.03 18:28:57.
