data_PCOD9500823
_publ_section_title
;
Structure prediction by ZEFSAII (Michael W. Deem and Ramdas Pophale) SiO2 
 PCOD9500823
Probable space group: C M M A
;
_chemical_formula_sum "Si O2"
_cell_formula_units_Z 72
_cell_length_a 8.897767
_cell_length_b 20.738200
_cell_length_c 24.274900
_cell_angle_alpha 90.000000
_cell_angle_beta 90.000000
_cell_angle_gamma 90.000000
_cell_volume 4479.293676
_symmetry_space_group_name_H-M "C M M A"
_symmetry_group_IT_number 67
_symmetry_cell_setting 'orthorhombic'
loop_
_space_group_symop_operation_xyz
x,y,z
-x,1/2-y,z
x,-y,-z
-x,1/2+y,-z
-x,-y,-z
x,1/2+y,-z
-x,y,z
x,1/2-y,z
1/2+x,1/2+y,z
1/2-x,-y,z
1/2+x,1/2-y,-z
1/2-x,y,-z
1/2-x,1/2-y,-z
1/2+x,y,-z
1/2-x,1/2+y,z
1/2+x,-y,z
loop_
_atom_site_type_symbol
_atom_site_label
_atom_site_fract_x
_atom_site_fract_y
_atom_site_fract_z
Si Si1 0.679691 0.569622 0.140324
Si Si2 0.179783 0.824789 0.060291
Si Si3 0.179396 0.250000 0.439714
Si Si4 0.179272 0.930746 0.730260
Si Si5 0.676430 0.821842 0.655023
O O1 0.500000 0.567334 0.133194
O O2 0.750000 0.500000 0.126101
O O3 0.750057 0.625456 0.103253
O O4 0.712118 0.581568 0.205072
O O5 0.212151 0.750000 0.075175
O O6 0.000000 0.832602 0.057843
O O7 0.250000 0.836144 0.000000
O O8 0.250000 0.250000 0.500000
O O9 0.240830 0.310312 0.403423
O O10 0.000000 0.250000 0.441701
O O11 0.249006 0.875590 0.692332
O O12 0.000000 0.932964 0.723632
O O13 0.250000 0.000000 0.716342
O O14 0.500000 0.834674 0.646542
O O15 0.689451 0.750000 0.681569
#
# Coordination Sequence:
#
# PCOD9500823 Si02
#       5
#    16  16   8  16  16
#     4  10  21  36  54  77 104 136 174 215 260 313
#     4  10  21  37  56  77 102 133 169 213 264 316
#     4  10  18  32  54  80 110 142 179 220 263 306
#     4  10  20  34  53  76 106 142 176 217 265 314
#     4   9  19  33  51  78 107 139 178 218 259 306
#
# _framework density 16.073962999999999
#
# number of rings (size 3 to 8) (size 9 to 14) (size 15 to 20)
#    0.667    1.556    0.000    3.333    0.000    5.333 
#    0.000    6.667    0.000    0.667    0.000    4.667 
#    0.000    0.000    0.000    0.000    0.000    0.000 
#
# Total GULP energy -200668.188375 kJ/mol
# GULP energy per Si atom -5574.116344 kJ/mol
# Density = 1.603738 g / cm^3
# Si number density = 16.073963 Si / 1000 Ang^3
#
#
#
# Elastic Constant Matrix: (Units=GPa)
#
#
# Indices 1 2 3 4 5 6 
#
# 1 118.4891 84.8346 79.6177 0.0000 0.0000 0.0000
# 2 84.8346 130.6316 104.3475 0.0000 0.0000 0.0000
# 3 79.6177 104.3475 111.4537 0.0000 0.0000 0.0000
# 4 0.0000 0.0000 0.0000 -69.4593 0.0000 0.0000
# 5 0.0000 0.0000 0.0000 0.0000 30.6721 0.0000
# 6 0.0000 0.0000 0.0000 0.0000 0.0000 33.5907
#
#
#
# Elastic Compliance Matrix: (Units=1/GPa)
#
#
# Indices 1 2 3 4 5 6 
#
# 1 0.017124 -0.005352 -0.007222 0.000000 0.000000 0.000000
# 2 -0.005352 0.032033 -0.026168 0.000000 0.000000 0.000000
# 3 -0.007222 -0.026168 0.038631 0.000000 0.000000 0.000000
# 4 0.000000 0.000000 0.000000 -0.014397 0.000000 0.000000
# 5 0.000000 0.000000 0.000000 0.000000 0.032603 0.000000
# 6 0.000000 0.000000 0.000000 0.000000 0.000000 0.029770
#
#
# Mechanical properties :
#
#
# Convention : Reuss Voigt Hill
#
# Bulk Modulus (GPa) = 97.04188 99.79711 98.41950
# Shear Modulus (GPa) = 23.07511 5.07900 14.07706
#
# Velocity S-wave (km/s) = 3.79299 1.77950 2.96255
# Velocity P-wave (km/s) = 8.92667 8.15127 8.54777
#
# Compressibility (1/GPa) = 0.01030483
#
# Stress axis : x y z
#
# Youngs Moduli (GPa) = 58.39696 31.21755 25.88577
#
# Poissons Ratio (x) = 0.16706 0.18696
# Poissons Ratio (y) = 0.31251 0.67738
# Poissons Ratio (z) = 0.42177 0.81690
#
# Static dielectric constant tensor:
#      x y z
#    x 1.532630 0.000000 0.000000 
#    y 0.000000 1.517540 0.000000 
#    z 0.000000 0.000000 1.513110 
# 
# From -- ./inp_files/36771.got.cif
#   From: 2010.05.17/outbox.cif.g08.bks.cpg/sg67_19_cif.got.tgz:36771.got - 2010.06.03 18:28:57.
