data_PCOD9500494
_publ_section_title
;
Structure prediction by ZEFSAII (Michael W. Deem and Ramdas Pophale) SiO2 
 PCOD9500494
Probable space group: C M M A
;
_chemical_formula_sum "Si O2"
_cell_formula_units_Z 80
_cell_length_a 28.370073
_cell_length_b 7.892474
_cell_length_c 19.493787
_cell_angle_alpha 90.000000
_cell_angle_beta 90.000000
_cell_angle_gamma 90.000000
_cell_volume 4364.855086
_symmetry_space_group_name_H-M "C M M A"
_symmetry_group_IT_number 67
_symmetry_cell_setting 'orthorhombic'
loop_
_space_group_symop_operation_xyz
x,y,z
-x,1/2-y,z
x,-y,-z
-x,1/2+y,-z
-x,-y,-z
x,1/2+y,-z
-x,y,z
x,1/2-y,z
1/2+x,1/2+y,z
1/2-x,-y,z
1/2+x,1/2-y,-z
1/2-x,y,-z
1/2-x,1/2-y,-z
1/2+x,y,-z
1/2-x,1/2+y,z
1/2+x,-y,z
loop_
_atom_site_type_symbol
_atom_site_label
_atom_site_fract_x
_atom_site_fract_y
_atom_site_fract_z
Si Si1 0.102711 0.453401 0.576569
Si Si2 0.147538 0.042623 0.786149
Si Si3 0.303169 0.546632 0.646799
Si Si4 0.552636 0.457064 0.285554
Si Si5 0.195168 0.048886 0.923870
O O1 0.088895 0.500000 0.500000
O O2 0.103494 0.250000 0.580216
O O3 0.155563 0.515148 0.595900
O O4 0.068485 0.510673 0.637896
O O5 0.147912 0.250000 0.786846
O O6 0.181791 0.989727 0.723508
O O7 0.094716 0.990450 0.765179
O O8 0.165901 0.980076 0.859339
O O9 0.305596 0.750000 0.647116
O O10 0.250000 0.500000 0.629319
O O11 0.500000 0.515040 0.268995
O O12 0.552256 0.250000 0.285062
O O13 0.192923 0.250000 0.920187
O O14 0.250000 0.000000 0.917253
O O15 0.178738 0.000000 0.000000
#
# Coordination Sequence:
#
# PCOD9500494 Si02
#       5
#    16  16  16  16  16
#     4   9  18  30  43  62  87 111 137 174 215 254
#     4   8  15  27  43  63  86 111 141 178 212 246
#     4   9  17  29  43  60  83 111 144 177 209 246
#     4   8  14  27  47  67  84 106 140 179 216 252
#     4  10  18  28  43  65  93 120 145 172 205 246
#
# _framework density 18.328215
#
# number of rings (size 3 to 8) (size 9 to 14) (size 15 to 20)
#    0.000    3.200    0.000    4.200    0.000    1.600 
#    0.000    3.000    0.000    3.000    0.000    0.000 
#    0.000    0.000    0.000    0.000    0.000    0.800 
#
# Total GULP energy -222884.447103 kJ/mol
# GULP energy per Si atom -5572.111178 kJ/mol
# Density = 1.828650 g / cm^3
# Si number density = 18.328215 Si / 1000 Ang^3
#
#
#
# Elastic Constant Matrix: (Units=GPa)
#
#
# Indices 1 2 3 4 5 6 
#
# 1 75.4382 -0.4995 24.3504 0.0000 0.0000 0.0000
# 2 -0.4995 17.1409 3.2694 0.0000 0.0000 0.0000
# 3 24.3504 3.2694 111.1655 0.0000 0.0000 0.0000
# 4 0.0000 0.0000 0.0000 15.8980 0.0000 0.0000
# 5 0.0000 0.0000 0.0000 0.0000 13.8787 0.0000
# 6 0.0000 0.0000 0.0000 0.0000 0.0000 10.1552
#
#
#
# Elastic Compliance Matrix: (Units=1/GPa)
#
#
# Indices 1 2 3 4 5 6 
#
# 1 0.014282 0.001019 -0.003158 0.000000 0.000000 0.000000
# 2 0.001019 0.058742 -0.001951 0.000000 0.000000 0.000000
# 3 -0.003158 -0.001951 0.009745 0.000000 0.000000 0.000000
# 4 0.000000 0.000000 0.000000 0.062901 0.000000 0.000000
# 5 0.000000 0.000000 0.000000 0.000000 0.072053 0.000000
# 6 0.000000 0.000000 0.000000 0.000000 0.000000 0.098472
#
#
# Mechanical properties :
#
#
# Convention : Reuss Voigt Hill
#
# Bulk Modulus (GPa) = 13.40702 28.66501 21.03601
# Shear Modulus (GPa) = 14.31687 19.76133 17.03910
#
# Velocity S-wave (km/s) = 2.79792 3.28714 3.05235
# Velocity P-wave (km/s) = 4.21529 5.48460 4.89129
#
# Compressibility (1/GPa) = 0.07458779
#
# Stress axis : x y z
#
# Youngs Moduli (GPa) = 70.01761 17.02364 102.61879
#
# Poissons Ratio (x) = -0.01734 0.32411
# Poissons Ratio (y) = -0.07132 0.20018
# Poissons Ratio (z) = 0.22114 0.03321
#
# Static dielectric constant tensor:
#      x y z
#    x 1.631520 0.000000 0.000000 
#    y 0.000000 1.688400 0.000000 
#    z 0.000000 0.000000 1.641430 
# 
# From -- ./inp_files/32281.got.cif
#   From: 2010.05.17/outbox.cif.g08.bks.cpg/sg67_17_cif.got.tgz:32281.got - 2010.06.03 18:28:57.
