data_PCOD9500479
_publ_section_title
;
Structure prediction by ZEFSAII (Michael W. Deem and Ramdas Pophale) SiO2 
 PCOD9500479
Probable space group: C M M A
;
_chemical_formula_sum "Si O2"
_cell_formula_units_Z 96
_cell_length_a 7.858596
_cell_length_b 25.877036
_cell_length_c 23.179673
_cell_angle_alpha 90.000000
_cell_angle_beta 90.000000
_cell_angle_gamma 90.000000
_cell_volume 4713.752740
_symmetry_space_group_name_H-M "C M M A"
_symmetry_group_IT_number 67
_symmetry_cell_setting 'orthorhombic'
loop_
_space_group_symop_operation_xyz
x,y,z
-x,1/2-y,z
x,-y,-z
-x,1/2+y,-z
-x,-y,-z
x,1/2+y,-z
-x,y,z
x,1/2-y,z
1/2+x,1/2+y,z
1/2-x,-y,z
1/2+x,1/2-y,-z
1/2-x,y,-z
1/2-x,1/2-y,-z
1/2+x,y,-z
1/2-x,1/2+y,z
1/2+x,-y,z
loop_
_atom_site_type_symbol
_atom_site_label
_atom_site_fract_x
_atom_site_fract_y
_atom_site_fract_z
Si Si1 0.701636 0.366693 0.933178
Si Si2 0.295574 0.944249 0.299480
Si Si3 0.795672 0.750000 0.566729
Si Si4 0.707057 0.834430 0.343423
Si Si5 0.299672 0.750000 0.932534
Si Si6 0.300299 0.193165 0.216893
Si Si7 0.807311 0.414833 0.176409
O O1 0.500000 0.371804 0.929980
O O2 0.742649 0.307581 0.914557
O O3 0.773947 0.408385 0.887055
O O4 0.750000 0.373694 0.000000
O O5 0.500000 0.940508 0.294723
O O6 0.240099 0.894512 0.336525
O O7 0.225715 0.940413 0.233275
O O8 0.250000 0.000000 0.323770
O O9 0.750000 0.750000 0.500000
O O10 0.736932 0.801156 0.601522
O O11 0.000000 0.750000 0.570352
O O12 0.500000 0.832735 0.341152
O O13 0.777507 0.807862 0.285805
O O14 0.500000 0.750000 0.925476
O O15 0.250000 0.750000 0.000000
O O16 0.500000 0.184738 0.203261
O O17 0.250683 0.250000 0.195382
O O18 0.190444 0.145269 0.195787
O O19 0.000000 0.435350 0.170567
#
# Coordination Sequence:
#
# PCOD9500479 Si02
#       7
#    16  16   8  16   8  16  16
#     4  10  19  32  47  64  88 125 167 208 254 311
#     4   9  18  34  55  79 102 130 171 219 264 316
#     4  10  20  34  55  82 115 154 186 218 252 294
#     4   9  18  34  54  75 105 147 184 207 252 315
#     4  10  18  28  41  58  83 116 155 196 238 292
#     4  10  19  28  43  71 102 128 162 213 259 295
#     4   9  20  34  48  67  94 130 168 203 254 325
#
# _framework density 20.365939000000001
#
# number of rings (size 3 to 8) (size 9 to 14) (size 15 to 20)
#    0.000    2.500    0.833    3.750    1.167    5.667 
#    0.000    0.000    0.000    1.000    0.000    7.000 
#    0.000    0.000    0.000    0.000    0.000    0.000 
#
# Total GULP energy -267437.849188 kJ/mol
# GULP energy per Si atom -5571.621858 kJ/mol
# Density = 2.031959 g / cm^3
# Si number density = 20.365939 Si / 1000 Ang^3
#
#
#
# Elastic Constant Matrix: (Units=GPa)
#
#
# Indices 1 2 3 4 5 6 
#
# 1 33.4484 3.6285 2.1913 0.0000 0.0000 0.0000
# 2 3.6285 111.2148 38.0551 0.0000 0.0000 0.0000
# 3 2.1913 38.0551 119.0242 0.0000 0.0000 0.0000
# 4 0.0000 0.0000 0.0000 16.9138 0.0000 0.0000
# 5 0.0000 0.0000 0.0000 0.0000 19.3273 0.0000
# 6 0.0000 0.0000 0.0000 0.0000 0.0000 14.9443
#
#
#
# Elastic Compliance Matrix: (Units=1/GPa)
#
#
# Indices 1 2 3 4 5 6 
#
# 1 0.030011 -0.000887 -0.000269 0.000000 0.000000 0.000000
# 2 -0.000887 0.010122 -0.003220 0.000000 0.000000 0.000000
# 3 -0.000269 -0.003220 0.009436 0.000000 0.000000 0.000000
# 4 0.000000 0.000000 0.000000 0.059123 0.000000 0.000000
# 5 0.000000 0.000000 0.000000 0.000000 0.051740 0.000000
# 6 0.000000 0.000000 0.000000 0.000000 0.000000 0.066915
#
#
# Mechanical properties :
#
#
# Convention : Reuss Voigt Hill
#
# Bulk Modulus (GPa) = 24.49956 39.04858 31.77407
# Shear Modulus (GPa) = 20.02356 24.89125 22.45740
#
# Velocity S-wave (km/s) = 3.13899 3.49979 3.32429
# Velocity P-wave (km/s) = 5.01931 5.96209 5.51089
#
# Compressibility (1/GPa) = 0.04081705
#
# Stress axis : x y z
#
# Youngs Moduli (GPa) = 33.32150 98.79103 105.97560
#
# Poissons Ratio (x) = 0.08764 0.02849
# Poissons Ratio (y) = 0.02956 0.34125
# Poissons Ratio (z) = 0.00896 0.31811
#
# Static dielectric constant tensor:
#      x y z
#    x 1.755180 0.000000 0.000000 
#    y 0.000000 1.743980 0.000000 
#    z 0.000000 0.000000 1.787240 
# 
# From -- ./inp_files/40841.got.cif
#   From: 2010.05.17/outbox.cif.g08.bks.cpg/sg67_21_cif.got.tgz:40841.got - 2010.06.03 18:28:57.
