data_PCOD9500022
_publ_section_title
;
Structure prediction by ZEFSAII (Michael W. Deem and Ramdas Pophale) SiO2 
 PCOD9500022
Probable space group: C C C M
;
_chemical_formula_sum "Si O2"
_cell_formula_units_Z 112
_cell_length_a 29.359019
_cell_length_b 28.551158
_cell_length_c 7.375070
_cell_angle_alpha 90.000000
_cell_angle_beta 90.000000
_cell_angle_gamma 90.000000
_cell_volume 6182.034354
_symmetry_space_group_name_H-M "C C C M"
_symmetry_group_IT_number 66
_symmetry_cell_setting 'orthorhombic'
loop_
_space_group_symop_operation_xyz
x,y,z
-x,-y,z
x,-y,1/2-z
-x,y,1/2-z
-x,-y,-z
x,y,-z
-x,y,1/2+z
x,-y,1/2+z
1/2+x,1/2+y,z
1/2-x,1/2-y,z
1/2+x,1/2-y,1/2-z
1/2-x,1/2+y,1/2-z
1/2-x,1/2-y,-z
1/2+x,1/2+y,-z
1/2-x,1/2+y,1/2+z
1/2+x,1/2-y,1/2+z
loop_
_atom_site_type_symbol
_atom_site_label
_atom_site_fract_x
_atom_site_fract_y
_atom_site_fract_z
Si Si1 0.761786 0.946953 0.283797
Si Si2 0.853604 0.902422 0.719578
Si Si3 0.196904 0.193646 0.719090
Si Si4 0.051311 0.874133 0.216731
Si Si5 0.640968 0.783661 0.278320
Si Si6 0.711331 0.855154 0.721297
Si Si7 0.948651 0.233351 0.783771
O O1 0.763843 0.940666 0.500000
O O2 0.813260 0.936461 0.214884
O O3 0.727334 0.906605 0.217559
O O4 0.748057 0.000000 0.250000
O O5 0.854384 0.906729 0.500000
O O6 0.835497 0.850215 0.763203
O O7 0.905770 0.904472 0.783525
O O8 0.198472 0.196112 0.500000
O O9 0.174858 0.241818 0.779455
O O10 0.247512 0.179630 0.776713
O O11 0.054871 0.820307 0.286246
O O12 0.000000 0.891193 0.250000
O O13 0.056066 0.871421 0.000000
O O14 0.640353 0.784273 0.500000
O O15 0.663788 0.832396 0.220250
O O16 0.590960 0.767680 0.217098
O O17 0.710880 0.855851 0.500000
O O18 0.000000 0.249744 0.750000
O O19 0.942514 0.229950 0.000000
#
# Coordination Sequence:
#
# PCOD9500022 Si02
#       7
#    16  16  16  16  16  16  16
#     4   9  17  29  44  60  78 100 125 158 197 237
#     4   8  13  23  38  55  76 101 128 157 193 230
#     4   8  11  17  30  52  80 103 122 151 189 225
#     4   9  15  24  37  54  76 101 130 162 191 222
#     4   9  13  19  33  55  81 105 127 155 188 222
#     4   8  14  21  34  57  80  99 124 157 192 227
#     4   9  16  24  36  54  79 109 136 158 183 218
#
# _framework density 18.117013
#
# number of rings (size 3 to 8) (size 9 to 14) (size 15 to 20)
#    0.000    3.429    1.429    2.143    0.000    1.714 
#    0.000    0.714    0.000    1.286    0.000    3.000 
#    0.000    4.286    0.000    7.143    0.000    0.000 
#
# Total GULP energy -311928.009599 kJ/mol
# GULP energy per Si atom -5570.143029 kJ/mol
# Density = 1.807578 g / cm^3
# Si number density = 18.117013 Si / 1000 Ang^3
#
#
#
# Elastic Constant Matrix: (Units=GPa)
#
#
# Indices 1 2 3 4 5 6 
#
# 1 52.5386 38.0193 -2.0807 0.0000 0.0000 0.0000
# 2 38.0193 80.4813 -1.2455 0.0000 0.0000 0.0000
# 3 -2.0807 -1.2455 61.4515 0.0000 0.0000 0.0000
# 4 0.0000 0.0000 0.0000 2.6315 0.0000 0.0000
# 5 0.0000 0.0000 0.0000 0.0000 6.4044 0.0000
# 6 0.0000 0.0000 0.0000 0.0000 0.0000 9.8723
#
#
#
# Elastic Compliance Matrix: (Units=1/GPa)
#
#
# Indices 1 2 3 4 5 6 
#
# 1 0.028950 -0.013665 0.000703 0.000000 0.000000 0.000000
# 2 -0.013665 0.018879 -0.000080 0.000000 0.000000 0.000000
# 3 0.000703 -0.000080 0.016295 0.000000 0.000000 0.000000
# 4 0.000000 0.000000 0.000000 0.380009 0.000000 0.000000
# 5 0.000000 0.000000 0.000000 0.000000 0.156143 0.000000
# 6 0.000000 0.000000 0.000000 0.000000 0.000000 0.101293
#
#
# Mechanical properties :
#
#
# Convention : Reuss Voigt Hill
#
# Bulk Modulus (GPa) = 26.28745 29.31750 27.80247
# Shear Modulus (GPa) = 6.75371 14.43354 10.59362
#
# Velocity S-wave (km/s) = 1.93285 2.82562 2.42075
# Velocity P-wave (km/s) = 4.41843 5.18295 4.81588
#
# Compressibility (1/GPa) = 0.03804096
#
# Stress axis : x y z
#
# Youngs Moduli (GPa) = 34.54205 52.96775 61.36778
#
# Poissons Ratio (x) = 0.72381 -0.04316
# Poissons Ratio (y) = 0.47202 0.00491
# Poissons Ratio (z) = -0.02429 0.00424
#
# Static dielectric constant tensor:
#      x y z
#    x 1.652550 0.000000 0.000000 
#    y 0.000000 1.610830 0.000000 
#    z 0.000000 0.000000 1.678830 
# 
# From -- ./inp_files/20017.got.cif
#   From: 2010.05.17/outbox.cif.g08.bks.cpg/sg66_11_cif.got.tgz:20017.got - 2010.06.03 17:51:23.
