data_PCOD9500827
_publ_section_title
;
Structure prediction by ZEFSAII (Michael W. Deem and Ramdas Pophale) SiO2 
 PCOD9500827
Probable space group: C M M A
;
_chemical_formula_sum "Si O2"
_cell_formula_units_Z 72
_cell_length_a 8.649465
_cell_length_b 21.604978
_cell_length_c 20.478459
_cell_angle_alpha 90.000000
_cell_angle_beta 90.000000
_cell_angle_gamma 90.000000
_cell_volume 3826.840372
_symmetry_space_group_name_H-M "C M M A"
_symmetry_group_IT_number 67
_symmetry_cell_setting 'orthorhombic'
loop_
_space_group_symop_operation_xyz
x,y,z
-x,1/2-y,z
x,-y,-z
-x,1/2+y,-z
-x,-y,-z
x,1/2+y,-z
-x,y,z
x,1/2-y,z
1/2+x,1/2+y,z
1/2-x,-y,z
1/2+x,1/2-y,-z
1/2-x,y,-z
1/2-x,1/2-y,-z
1/2+x,y,-z
1/2-x,1/2+y,z
1/2+x,-y,z
loop_
_atom_site_type_symbol
_atom_site_label
_atom_site_fract_x
_atom_site_fract_y
_atom_site_fract_z
Si Si1 0.184354 0.620304 0.426839
Si Si2 0.689213 0.320998 0.787921
Si Si3 0.185762 0.563913 0.697516
Si Si4 0.324552 0.825090 0.067207
Si Si5 0.314850 0.250000 0.573725
O O1 0.250000 0.610793 0.500000
O O2 0.243691 0.571259 0.374769
O O3 0.250147 0.685871 0.399883
O O4 0.000000 0.622683 0.430555
O O5 0.500000 0.319596 0.789608
O O6 0.736648 0.250000 0.771486
O O7 0.733565 0.375628 0.739063
O O8 0.745132 0.337467 0.861341
O O9 0.250000 0.500000 0.726357
O O10 0.000000 0.562472 0.694023
O O11 0.500000 0.847678 0.068235
O O12 0.327635 0.750000 0.064036
O O13 0.250000 0.847330 0.000000
O O14 0.500000 0.250000 0.575358
O O15 0.250000 0.250000 0.500000
#
# Coordination Sequence:
#
# PCOD9500827 Si02
#       5
#    16  16  16  16   8
#     4  11  22  38  58  83 111 141 182 230 280 332
#     4   8  16  32  55  81 107 142 185 224 266 327
#     4  11  23  39  58  80 109 146 186 229 283 338
#     4   8  13  24  45  75 108 137 171 215 265 317
#     4  10  18  32  54  82 112 142 173 214 271 326
#
# _framework density 18.814475999999999
#
# number of rings (size 3 to 8) (size 9 to 14) (size 15 to 20)
#    0.000    2.444    0.000    6.333    1.556    0.444 
#    0.000    4.444    0.000    3.333    0.000    4.667 
#    0.000    0.000    0.000    0.000    0.000    0.000 
#
# Total GULP energy -200625.157212 kJ/mol
# GULP energy per Si atom -5572.921034 kJ/mol
# Density = 1.877165 g / cm^3
# Si number density = 18.814476 Si / 1000 Ang^3
#
#
#
# Elastic Constant Matrix: (Units=GPa)
#
#
# Indices 1 2 3 4 5 6 
#
# 1 92.5042 31.1419 35.2327 0.0000 0.0000 0.0000
# 2 31.1419 108.9132 64.3038 0.0000 0.0000 0.0000
# 3 35.2327 64.3038 119.3153 0.0000 0.0000 0.0000
# 4 0.0000 0.0000 0.0000 10.0785 0.0000 0.0000
# 5 0.0000 0.0000 0.0000 0.0000 20.5589 0.0000
# 6 0.0000 0.0000 0.0000 0.0000 0.0000 24.1954
#
#
#
# Elastic Compliance Matrix: (Units=1/GPa)
#
#
# Indices 1 2 3 4 5 6 
#
# 1 0.012483 -0.002043 -0.002585 0.000000 0.000000 0.000000
# 2 -0.002043 0.013801 -0.006835 0.000000 0.000000 0.000000
# 3 -0.002585 -0.006835 0.012828 0.000000 0.000000 0.000000
# 4 0.000000 0.000000 0.000000 0.099221 0.000000 0.000000
# 5 0.000000 0.000000 0.000000 0.000000 0.048641 0.000000
# 6 0.000000 0.000000 0.000000 0.000000 0.000000 0.041330
#
#
# Mechanical properties :
#
#
# Convention : Reuss Voigt Hill
#
# Bulk Modulus (GPa) = 61.78024 64.67660 63.22842
# Shear Modulus (GPa) = 19.48373 23.63685 21.56029
#
# Velocity S-wave (km/s) = 3.22152 3.54829 3.38885
# Velocity P-wave (km/s) = 6.83706 7.15806 6.99940
#
# Compressibility (1/GPa) = 0.01618640
#
# Stress axis : x y z
#
# Youngs Moduli (GPa) = 80.11113 72.45821 77.95485
#
# Poissons Ratio (x) = 0.14803 0.20151
# Poissons Ratio (y) = 0.16367 0.53279
# Poissons Ratio (z) = 0.20708 0.49523
#
# Static dielectric constant tensor:
#      x y z
#    x 1.859170 0.000000 0.000000 
#    y 0.000000 1.735360 0.000000 
#    z 0.000000 0.000000 1.674310 
# 
# From -- ./inp_files/36775.got.cif
#   From: 2010.05.17/outbox.cif.g08.bks.cpg/sg67_19_cif.got.tgz:36775.got - 2010.06.03 18:28:57.
