data_PCOD9500633
_publ_section_title
;
Structure prediction by ZEFSAII (Michael W. Deem and Ramdas Pophale) SiO2 
 PCOD9500633
Probable space group: C M M A
;
_chemical_formula_sum "Si O2"
_cell_formula_units_Z 64
_cell_length_a 33.754504
_cell_length_b 14.349059
_cell_length_c 5.283479
_cell_angle_alpha 90.000000
_cell_angle_beta 90.000000
_cell_angle_gamma 90.000000
_cell_volume 2559.028588
_symmetry_space_group_name_H-M "C M M A"
_symmetry_group_IT_number 67
_symmetry_cell_setting 'orthorhombic'
loop_
_space_group_symop_operation_xyz
x,y,z
-x,1/2-y,z
x,-y,-z
-x,1/2+y,-z
-x,-y,-z
x,1/2+y,-z
-x,y,z
x,1/2-y,z
1/2+x,1/2+y,z
1/2-x,-y,z
1/2+x,1/2-y,-z
1/2-x,y,-z
1/2-x,1/2-y,-z
1/2+x,y,-z
1/2-x,1/2+y,z
1/2+x,-y,z
loop_
_atom_site_type_symbol
_atom_site_label
_atom_site_fract_x
_atom_site_fract_y
_atom_site_fract_z
Si Si1 0.954598 0.107226 0.695615
Si Si2 0.705038 0.863306 0.451165
Si Si3 0.076332 0.897500 0.806077
Si Si4 0.160713 0.137303 0.951845
O O1 0.926765 0.145681 0.473255
O O2 0.000000 0.112502 0.612339
O O3 0.941215 0.000334 0.749182
O O4 0.949757 0.148456 0.974653
O O5 0.704259 0.750000 0.462874
O O6 0.750000 0.892346 0.500000
O O7 0.692229 0.888223 0.168306
O O8 0.675219 0.895173 0.675150
O O9 0.119491 0.897679 0.930934
O O10 0.157583 0.250000 0.941846
#
# Coordination Sequence:
#
# PCOD9500633 Si02
#       4
#    16  16  16  16
#     4  10  19  33  53  71  89 121 167 210 237 271
#     4   9  17  30  47  68  96 130 164 193 225 275
#     4  10  18  30  49  73  96 120 154 203 246 279
#     4  10  19  30  47  73 102 127 153 193 246 295
#
# _framework density 25.00949
#
# number of rings (size 3 to 8) (size 9 to 14) (size 15 to 20)
#    0.000    2.250    0.000    6.000    0.000    3.000 
#    0.000    0.000    0.000    8.250    0.000   52.500 
#    0.000    0.000    0.000    0.000    0.000    0.000 
#
# Total GULP energy -178765.702608 kJ/mol
# GULP energy per Si atom -5586.428206 kJ/mol
# Density = 2.495257 g / cm^3
# Si number density = 25.009490 Si / 1000 Ang^3
#
#
#
# Elastic Constant Matrix: (Units=GPa)
#
#
# Indices 1 2 3 4 5 6 
#
# 1 95.3054 -24.7946 7.6655 0.0000 0.0000 0.0000
# 2 -24.7946 101.9835 -3.6335 0.0000 0.0000 0.0000
# 3 7.6655 -3.6335 192.1021 0.0000 0.0000 0.0000
# 4 0.0000 0.0000 0.0000 -4.0314 0.0000 0.0000
# 5 0.0000 0.0000 0.0000 0.0000 52.2037 0.0000
# 6 0.0000 0.0000 0.0000 0.0000 0.0000 8.3046
#
#
#
# Elastic Compliance Matrix: (Units=1/GPa)
#
#
# Indices 1 2 3 4 5 6 
#
# 1 0.011231 0.002716 -0.000397 0.000000 0.000000 0.000000
# 2 0.002716 0.010469 0.000090 0.000000 0.000000 0.000000
# 3 -0.000397 0.000090 0.005223 0.000000 0.000000 0.000000
# 4 0.000000 0.000000 0.000000 -0.248052 0.000000 0.000000
# 5 0.000000 0.000000 0.000000 0.000000 0.019156 0.000000
# 6 0.000000 0.000000 0.000000 0.000000 0.000000 0.120415
#
#
# Mechanical properties :
#
#
# Convention : Reuss Voigt Hill
#
# Bulk Modulus (GPa) = 31.50402 38.65175 35.07788
# Shear Modulus (GPa) = -65.96678 38.63895 -13.66391
#
# Velocity S-wave (km/s) = -5.14140 3.93488 -2.33995
# Velocity P-wave (km/s) = 4.75617 6.01105 2.59919
#
# Compressibility (1/GPa) = 0.03174198
#
# Stress axis : x y z
#
# Youngs Moduli (GPa) = 89.03761 95.51894 191.45743
#
# Poissons Ratio (x) = -0.25947 0.07597
# Poissons Ratio (y) = -0.24186 -0.01716
# Poissons Ratio (z) = 0.03533 -0.00856
#
# Static dielectric constant tensor:
#      x y z
#    x 1.952450 0.000000 0.000000 
#    y 0.000000 2.102850 0.000000 
#    z 0.000000 0.000000 2.093520 
# 
# From -- ./inp_files/2208.got.cif
#   From: 2010.05.17/outbox.cif.g08.bks.cpg/sg67_2_cif.got.tgz:2208.got - 2010.06.03 18:28:57.
