data_PCOD9500200
_publ_section_title
;
Structure prediction by ZEFSAII (Michael W. Deem and Ramdas Pophale) SiO2 
 PCOD9500200
Probable space group: C M M A
;
_chemical_formula_sum "Si O2"
_cell_formula_units_Z 56
_cell_length_a 8.547426
_cell_length_b 14.741751
_cell_length_c 21.006428
_cell_angle_alpha 90.000000
_cell_angle_beta 90.000000
_cell_angle_gamma 90.000000
_cell_volume 2646.894495
_symmetry_space_group_name_H-M "C M M A"
_symmetry_group_IT_number 67
_symmetry_cell_setting 'orthorhombic'
loop_
_space_group_symop_operation_xyz
x,y,z
-x,1/2-y,z
x,-y,-z
-x,1/2+y,-z
-x,-y,-z
x,1/2+y,-z
-x,y,z
x,1/2-y,z
1/2+x,1/2+y,z
1/2-x,-y,z
1/2+x,1/2-y,-z
1/2-x,y,-z
1/2-x,1/2-y,-z
1/2+x,y,-z
1/2-x,1/2+y,z
1/2+x,-y,z
loop_
_atom_site_type_symbol
_atom_site_label
_atom_site_fract_x
_atom_site_fract_y
_atom_site_fract_z
Si Si1 0.313071 0.395980 0.933887
Si Si2 0.312832 0.602620 0.332433
Si Si3 0.187116 0.103769 0.801740
Si Si4 0.312892 0.750000 0.571588
O O1 0.500000 0.396356 0.934128
O O2 0.250000 0.500000 0.933727
O O3 0.250828 0.355627 0.867663
O O4 0.250000 0.355698 0.000000
O O5 0.500000 0.601894 0.330974
O O6 0.250000 0.500000 0.338831
O O7 0.249939 0.641088 0.264962
O O8 0.250444 0.663439 0.389704
O O9 0.000000 0.104476 0.802322
O O10 0.250000 0.000000 0.801246
O O11 0.500000 0.750000 0.571783
O O12 0.250000 0.750000 0.500000
#
# Coordination Sequence:
#
# PCOD9500200 Si02
#       4
#    16  16  16   8
#     4  10  16  23  35  58  94 138 185 238 293 349
#     4  11  22  40  64  93 125 163 204 250 301 358
#     4  10  17  28  46  72 105 146 192 242 293 350
#     4  12  26  46  68  96 127 160 199 246 298 360
#
# _framework density 21.156870000000001
#
# number of rings (size 3 to 8) (size 9 to 14) (size 15 to 20)
#    0.000    1.429    0.000   13.286    0.000    0.571 
#    0.000    2.857    0.000    0.000    0.000    1.000 
#    0.000    0.000    0.000    0.857    0.000    0.286 
#
# Total GULP energy -156561.850063 kJ/mol
# GULP energy per Si atom -5591.494645 kJ/mol
# Density = 2.110872 g / cm^3
# Si number density = 21.156870 Si / 1000 Ang^3
#
#
#
# Elastic Constant Matrix: (Units=GPa)
#
#
# Indices 1 2 3 4 5 6 
#
# 1 279.3252 40.2057 112.2270 0.0000 0.0000 0.0000
# 2 40.2057 99.2283 66.5718 0.0000 0.0000 0.0000
# 3 112.2270 66.5718 265.0748 0.0000 0.0000 0.0000
# 4 0.0000 0.0000 0.0000 76.1083 0.0000 0.0000
# 5 0.0000 0.0000 0.0000 0.0000 46.2551 0.0000
# 6 0.0000 0.0000 0.0000 0.0000 0.0000 10.5942
#
#
#
# Elastic Compliance Matrix: (Units=1/GPa)
#
#
# Indices 1 2 3 4 5 6 
#
# 1 0.004347 -0.000633 -0.001681 0.000000 0.000000 0.000000
# 2 -0.000633 0.012212 -0.002799 0.000000 0.000000 0.000000
# 3 -0.001681 -0.002799 0.005187 0.000000 0.000000 0.000000
# 4 0.000000 0.000000 0.000000 0.013139 0.000000 0.000000
# 5 0.000000 0.000000 0.000000 0.000000 0.021619 0.000000
# 6 0.000000 0.000000 0.000000 0.000000 0.000000 0.094391
#
#
# Mechanical properties :
#
#
# Convention : Reuss Voigt Hill
#
# Bulk Modulus (GPa) = 86.81115 120.18194 103.49655
# Shear Modulus (GPa) = 30.31002 54.89975 42.60489
#
# Velocity S-wave (km/s) = 3.78912 5.09953 4.49236
# Velocity P-wave (km/s) = 7.76302 9.57090 8.71397
#
# Compressibility (1/GPa) = 0.01151926
#
# Stress axis : x y z
#
# Youngs Moduli (GPa) = 230.05942 81.88583 192.78026
#
# Poissons Ratio (x) = 0.05186 0.32411
# Poissons Ratio (y) = 0.14569 0.53957
# Poissons Ratio (z) = 0.38679 0.22919
#
# Static dielectric constant tensor:
#      x y z
#    x 1.690760 0.000000 0.000000 
#    y 0.000000 0.388660 0.000000 
#    z 0.000000 0.000000 1.794760 
# 
# From -- ./inp_files/33920.got.cif
#   From: 2010.05.17/outbox.cif.g08.bks.cpg/sg67_17_cif.got.tgz:33920.got - 2010.06.03 18:28:57.
