data_PCOD9500104
_publ_section_title
;
Structure prediction by ZEFSAII (Michael W. Deem and Ramdas Pophale) SiO2 
 PCOD9500104
Probable space group: C C C M
;
_chemical_formula_sum "Si O2"
_cell_formula_units_Z 58
_cell_length_a 9.000000
_cell_length_b 24.000000
_cell_length_c 27.000000
_cell_angle_alpha 90.000000
_cell_angle_beta 90.000000
_cell_angle_gamma 90.000000
_cell_volume 5832.000000
_symmetry_space_group_name_H-M "C C C M"
_symmetry_group_IT_number 66
_symmetry_cell_setting 'orthorhombic'
loop_
_space_group_symop_operation_xyz
x,y,z
-x,-y,z
x,-y,1/2-z
-x,y,1/2-z
-x,-y,-z
x,y,-z
-x,y,1/2+z
x,-y,1/2+z
1/2+x,1/2+y,z
1/2-x,1/2-y,z
1/2+x,1/2-y,1/2-z
1/2-x,1/2+y,1/2-z
1/2-x,1/2-y,-z
1/2+x,1/2+y,-z
1/2-x,1/2+y,1/2+z
1/2+x,1/2-y,1/2+z
loop_
_atom_site_type_symbol
_atom_site_label
_atom_site_fract_x
_atom_site_fract_y
_atom_site_fract_z
Si Si1 0.503998 0.643476 0.119202
Si Si2 0.887877 0.050572 0.944148
Si Si3 0.287892 0.560560 0.679605
Si Si4 0.926930 0.243321 0.196183
Si Si5 0.268511 0.183487 0.057144
Si Si6 0.533939 0.860349 0.850748
Si Si7 0.852941 0.536028 0.618321
Si Si8 0.000000 0.000000 0.250000
O O1 0.387861 0.602974 0.092797
O O2 0.603878 0.599531 0.148404
O O3 0.459152 0.694210 0.155566
O O4 0.606796 0.663341 0.074011
O O5 0.721418 0.030425 0.935418
O O6 0.921559 0.066690 0.000000
O O7 0.000000 0.000000 0.931205
O O8 0.142762 0.600183 0.682429
O O9 0.251579 0.500939 0.654216
O O10 0.383600 0.542854 0.725824
O O11 0.750000 0.250000 0.201898
O O12 0.000000 0.230821 0.250000
O O13 0.990067 0.302721 0.176091
O O14 0.250000 0.250000 0.061235
O O15 0.381789 0.158025 0.098086
O O16 0.304762 0.169169 0.000000
O O17 0.400091 0.902437 0.863846
O O18 0.000000 0.500000 0.617955
#
# Coordination Sequence:
#
# PCOD9500104 Si02
#       8
#    16  16  16  16  16  16  16   4
#     4  11  22  43  65  91 139 171 219 277 335 400
#     4  11  22  38  65  98 132 172 217 269 328 396
#     4  10  23  38  68  94 130 179 215 285 334 403
#     4  12  29  45  69  98 131 180 234 287 349 409
#     4  10  20  38  70 102 131 177 224 266 331 407
#     4  10  23  44  68  94 140 175 222 284 343 398
#     4  10  21  43  63  93 132 178 211 266 339 401
#     4  12  24  40  66 104 130 168 242 280 346 420
#
# _framework density 9.9451300000000007
#
# number of rings (size 3 to 8) (size 9 to 14) (size 15 to 20)
#    0.000    1.379    2.759    2.069    4.828    1.931 
#    0.000    2.414    0.000    2.069    0.000    0.000 
#    0.000    0.000    0.000    0.000    0.000    0.000 
#
# Total GULP energy -322895.100294 kJ/mol
# GULP energy per Si atom -5567.156902 kJ/mol
# Density = 0.992249 g / cm^3
# Si number density = 9.945130 Si / 1000 Ang^3
#
#
#
# Elastic Constant Matrix: (Units=GPa)
#
#
# Indices 1 2 3 4 5 6 
#
# 1 76.5434 28.1937 53.7906 0.0000 0.0000 0.0000
# 2 28.1937 124.0346 62.8738 0.0000 0.0000 0.0000
# 3 53.7906 62.8738 85.6001 0.0000 0.0000 0.0000
# 4 0.0000 0.0000 0.0000 10.2481 0.0000 0.0000
# 5 0.0000 0.0000 0.0000 0.0000 16.3841 0.0000
# 6 0.0000 0.0000 0.0000 0.0000 0.0000 121.6242
#
#
#
# Elastic Compliance Matrix: (Units=1/GPa)
#
#
# Indices 1 2 3 4 5 6 
#
# 1 0.024333 0.003537 -0.017888 0.000000 0.000000 0.000000
# 2 0.003537 0.013359 -0.012034 0.000000 0.000000 0.000000
# 3 -0.017888 -0.012034 0.031763 0.000000 0.000000 0.000000
# 4 0.000000 0.000000 0.000000 0.097579 0.000000 0.000000
# 5 0.000000 0.000000 0.000000 0.000000 0.061035 0.000000
# 6 0.000000 0.000000 0.000000 0.000000 0.000000 0.008222
#
#
# Mechanical properties :
#
#
# Convention : Reuss Voigt Hill
#
# Bulk Modulus (GPa) = 59.94549 63.98825 61.96687
# Shear Modulus (GPa) = 16.97086 39.07261 28.02174
#
# Velocity S-wave (km/s) = 2.92417 4.43697 3.75749
# Velocity P-wave (km/s) = 6.45016 7.64784 7.07439
#
# Compressibility (1/GPa) = 0.01668182
#
# Stress axis : x y z
#
# Youngs Moduli (GPa) = 41.09694 74.85755 31.48364
#
# Poissons Ratio (x) = -0.26475 0.56319
# Poissons Ratio (y) = -0.14535 0.37889
# Poissons Ratio (z) = 0.73515 0.90087
#
# Static dielectric constant tensor:
#      x y z
#    x 1.792510 0.000000 0.000000 
#    y 0.000000 1.666370 0.000000 
#    z 0.000000 0.000000 1.748560 
# 
# From -- ./inp_files/62893.got.cif
#   From: 2010.05.17/outbox.ucp.g08.bks.cvg/sg66_32_cif.got.tgz:62893.got - 2010.06.11 16:44:13.
