data_PCOD9500214
_publ_section_title
;
Structure prediction by ZEFSAII (Michael W. Deem and Ramdas Pophale) SiO2 
 PCOD9500214
Probable space group: C M M A
;
_chemical_formula_sum "Si O2"
_cell_formula_units_Z 56
_cell_length_a 30.421901
_cell_length_b 14.454895
_cell_length_c 5.219973
_cell_angle_alpha 90.000000
_cell_angle_beta 90.000000
_cell_angle_gamma 90.000000
_cell_volume 2295.459035
_symmetry_space_group_name_H-M "C M M A"
_symmetry_group_IT_number 67
_symmetry_cell_setting 'orthorhombic'
loop_
_space_group_symop_operation_xyz
x,y,z
-x,1/2-y,z
x,-y,-z
-x,1/2+y,-z
-x,-y,-z
x,1/2+y,-z
-x,y,z
x,1/2-y,z
1/2+x,1/2+y,z
1/2-x,-y,z
1/2+x,1/2-y,-z
1/2-x,y,-z
1/2-x,1/2-y,-z
1/2+x,y,-z
1/2-x,1/2+y,z
1/2+x,-y,z
loop_
_atom_site_type_symbol
_atom_site_label
_atom_site_fract_x
_atom_site_fract_y
_atom_site_fract_z
Si Si1 0.500000 0.565552 0.749089
Si Si2 0.127054 0.602736 0.928552
Si Si3 0.222123 0.860949 0.746123
Si Si4 0.908241 0.390487 0.573393
O O1 0.500000 0.500000 0.500000
O O2 0.544953 0.621901 0.711968
O O3 0.500000 0.500000 0.000000
O O4 0.174494 0.596207 0.796475
O O5 0.097084 0.648978 0.711653
O O6 0.110549 0.500000 0.000000
O O7 0.126889 0.643780 0.215454
O O8 0.215191 0.750000 0.723676
O O9 0.250000 0.891221 0.500000
O O10 0.250000 0.878901 0.000000
O O11 0.902665 0.500000 0.500000
#
# Coordination Sequence:
#
# PCOD9500214 Si02
#       4
#     8  16  16  16
#     4  10  16  26  44  68 101 136 165 196 243 296
#     4  10  19  32  49  73 102 128 162 208 255 298
#     4  10  21  37  55  74  98 132 175 215 252 305
#     4   9  17  28  45  71 101 131 162 200 244 295
#
# _framework density 24.395992
#
# number of rings (size 3 to 8) (size 9 to 14) (size 15 to 20)
#    0.000    2.286    0.000    6.000    0.000    0.571 
#    0.000    1.429    0.000    0.000    0.000    6.000 
#    0.000    0.000    0.000    0.000    0.000    0.000 
#
# Total GULP energy -156181.081680 kJ/mol
# GULP energy per Si atom -5577.895774 kJ/mol
# Density = 2.434047 g / cm^3
# Si number density = 24.395992 Si / 1000 Ang^3
#
#
#
# Elastic Constant Matrix: (Units=GPa)
#
#
# Indices 1 2 3 4 5 6 
#
# 1 130.2489 -2.8856 70.5012 0.0000 0.0000 0.0000
# 2 -2.8856 81.6050 13.9825 0.0000 0.0000 0.0000
# 3 70.5012 13.9825 263.0977 0.0000 0.0000 0.0000
# 4 0.0000 0.0000 0.0000 -53.0853 0.0000 0.0000
# 5 0.0000 0.0000 0.0000 0.0000 24.7235 0.0000
# 6 0.0000 0.0000 0.0000 0.0000 0.0000 -70.7855
#
#
#
# Elastic Compliance Matrix: (Units=1/GPa)
#
#
# Indices 1 2 3 4 5 6 
#
# 1 0.009024 0.000740 -0.002458 0.000000 0.000000 0.000000
# 2 0.000740 0.012427 -0.000859 0.000000 0.000000 0.000000
# 3 -0.002458 -0.000859 0.004505 0.000000 0.000000 0.000000
# 4 0.000000 0.000000 0.000000 -0.018838 0.000000 0.000000
# 5 0.000000 0.000000 0.000000 0.000000 0.040447 0.000000
# 6 0.000000 0.000000 0.000000 0.000000 0.000000 -0.014127
#
#
# Mechanical properties :
#
#
# Convention : Reuss Voigt Hill
#
# Bulk Modulus (GPa) = 48.06668 70.90532 59.48600
# Shear Modulus (GPa) = 109.82632 6.39411 58.11021
#
# Velocity S-wave (km/s) = 6.71684 1.62070 4.88582
# Velocity P-wave (km/s) = 8.93868 5.71224 7.50099
#
# Compressibility (1/GPa) = 0.02080443
#
# Stress axis : x y z
#
# Youngs Moduli (GPa) = 110.81301 80.46687 221.97354
#
# Poissons Ratio (x) = -0.05956 0.54550
# Poissons Ratio (y) = -0.08202 0.19063
# Poissons Ratio (z) = 0.27232 0.06911
#
# Static dielectric constant tensor:
#      x y z
#    x 1.988070 0.000000 0.000000 
#    y 0.000000 2.069260 0.000000 
#    z 0.000000 0.000000 1.962750 
# 
# From -- ./inp_files/4110.got.cif
#   From: 2010.05.17/outbox.cif.g08.bks.cpg/sg67_3_cif.got.tgz:4110.got - 2010.06.03 18:28:57.
