data_PCOD9500797
_publ_section_title
;
Structure prediction by ZEFSAII (Michael W. Deem and Ramdas Pophale) SiO2 
 PCOD9500797
Probable space group: C M M A
;
_chemical_formula_sum "Si O2"
_cell_formula_units_Z 104
_cell_length_a 8.708019
_cell_length_b 29.867233
_cell_length_c 20.573858
_cell_angle_alpha 90.000000
_cell_angle_beta 90.000000
_cell_angle_gamma 90.000000
_cell_volume 5350.940181
_symmetry_space_group_name_H-M "C M M A"
_symmetry_group_IT_number 67
_symmetry_cell_setting 'orthorhombic'
loop_
_space_group_symop_operation_xyz
x,y,z
-x,1/2-y,z
x,-y,-z
-x,1/2+y,-z
-x,-y,-z
x,1/2+y,-z
-x,y,z
x,1/2-y,z
1/2+x,1/2+y,z
1/2-x,-y,z
1/2+x,1/2-y,-z
1/2-x,y,-z
1/2-x,1/2-y,-z
1/2+x,y,-z
1/2-x,1/2+y,z
1/2+x,-y,z
loop_
_atom_site_type_symbol
_atom_site_label
_atom_site_fract_x
_atom_site_fract_y
_atom_site_fract_z
Si Si1 0.180425 0.132211 0.698994
Si Si2 0.182386 0.657029 0.572172
Si Si3 0.825131 0.546154 0.755873
Si Si4 0.315378 0.302910 0.806623
Si Si5 0.316449 0.250000 0.427026
Si Si6 0.816858 0.355840 0.931418
Si Si7 0.326050 0.546877 0.088009
O O1 0.261015 0.125075 0.629100
O O2 0.217104 0.087239 0.738067
O O3 0.249903 0.172044 0.743036
O O4 0.000000 0.139518 0.689912
O O5 0.250000 0.648967 0.500000
O O6 0.248954 0.704212 0.599162
O O7 0.000000 0.659320 0.566877
O O8 0.750000 0.500000 0.732620
O O9 0.834441 0.544637 0.833814
O O10 0.000000 0.552446 0.731644
O O11 0.500000 0.307058 0.806073
O O12 0.275918 0.250000 0.807380
O O13 0.251415 0.328572 0.870233
O O14 0.500000 0.250000 0.426570
O O15 0.250000 0.250000 0.500000
O O16 0.766826 0.408022 0.927063
O O17 0.000000 0.352485 0.930495
O O18 0.750000 0.338546 0.000000
O O19 0.500000 0.550935 0.062242
O O20 0.250000 0.500000 0.068080
#
# Coordination Sequence:
#
# PCOD9500797 Si02
#       7
#    16  16  16  16   8  16  16
#     4  12  24  39  63  93 126 163 206 252 305 363
#     4  11  22  38  58  84 121 162 206 253 307 365
#     4  10  20  36  61  91 125 160 200 249 304 361
#     4  11  25  45  66  90 122 159 205 257 309 361
#     4  10  18  32  52  78 112 152 197 242 293 356
#     4  12  25  42  65  90 122 161 205 252 307 365
#     4  10  20  36  60  89 125 159 198 245 303 365
#
# _framework density 19.435835999999998
#
# number of rings (size 3 to 8) (size 9 to 14) (size 15 to 20)
#    0.000    1.077    1.538    7.154    1.077    3.077 
#    0.000    1.538    0.000    0.462    0.000    3.231 
#    0.000    0.000    0.000    0.000    0.000    0.000 
#
# Total GULP energy -290535.791525 kJ/mol
# GULP energy per Si atom -5587.226760 kJ/mol
# Density = 1.939160 g / cm^3
# Si number density = 19.435836 Si / 1000 Ang^3
#
#
#
# Elastic Constant Matrix: (Units=GPa)
#
#
# Indices 1 2 3 4 5 6 
#
# 1 169.8632 41.6165 52.0176 0.0000 0.0000 0.0000
# 2 41.6165 98.5547 40.2958 0.0000 0.0000 0.0000
# 3 52.0176 40.2958 119.9187 0.0000 0.0000 0.0000
# 4 0.0000 0.0000 0.0000 -5.1737 0.0000 0.0000
# 5 0.0000 0.0000 0.0000 0.0000 30.5621 0.0000
# 6 0.0000 0.0000 0.0000 0.0000 0.0000 23.9813
#
#
#
# Elastic Compliance Matrix: (Units=1/GPa)
#
#
# Indices 1 2 3 4 5 6 
#
# 1 0.007120 -0.002022 -0.002409 0.000000 0.000000 0.000000
# 2 -0.002022 0.012337 -0.003269 0.000000 0.000000 0.000000
# 3 -0.002409 -0.003269 0.010482 0.000000 0.000000 0.000000
# 4 0.000000 0.000000 0.000000 -0.193285 0.000000 0.000000
# 5 0.000000 0.000000 0.000000 0.000000 0.032720 0.000000
# 6 0.000000 0.000000 0.000000 0.000000 0.000000 0.041699
#
#
# Mechanical properties :
#
#
# Convention : Reuss Voigt Hill
#
# Bulk Modulus (GPa) = 68.77335 72.91072 70.84203
# Shear Modulus (GPa) = -72.79998 26.83440 -22.98279
#
# Velocity S-wave (km/s) = -6.12682 3.71976 -3.44247
# Velocity P-wave (km/s) = 3.81954 7.48624 4.55274
#
# Compressibility (1/GPa) = 0.01454052
#
# Stress axis : x y z
#
# Youngs Moduli (GPa) = 140.44628 81.05899 95.39829
#
# Poissons Ratio (x) = 0.16387 0.22984
# Poissons Ratio (y) = 0.28392 0.31181
# Poissons Ratio (z) = 0.33837 0.26495
#
# Static dielectric constant tensor:
#      x y z
#    x 1.687830 0.000000 0.000000 
#    y 0.000000 1.723350 0.000000 
#    z 0.000000 0.000000 1.670110 
# 
# From -- ./inp_files/37291.got.cif
#   From: 2010.05.17/outbox.cif.g08.bks.cpg/sg67_19_cif.got.tgz:37291.got - 2010.06.03 18:28:57.
