data_PCOD9500786
_publ_section_title
;
Structure prediction by ZEFSAII (Michael W. Deem and Ramdas Pophale) SiO2 
 PCOD9500786
Probable space group: C M M A
;
_chemical_formula_sum "Si O2"
_cell_formula_units_Z 80
_cell_length_a 14.780534
_cell_length_b 14.556193
_cell_length_c 17.865323
_cell_angle_alpha 90.000000
_cell_angle_beta 90.000000
_cell_angle_gamma 90.000000
_cell_volume 3843.693972
_symmetry_space_group_name_H-M "C M M A"
_symmetry_group_IT_number 67
_symmetry_cell_setting 'orthorhombic'
loop_
_space_group_symop_operation_xyz
x,y,z
-x,1/2-y,z
x,-y,-z
-x,1/2+y,-z
-x,-y,-z
x,1/2+y,-z
-x,y,z
x,1/2-y,z
1/2+x,1/2+y,z
1/2-x,-y,z
1/2+x,1/2-y,-z
1/2-x,y,-z
1/2-x,1/2-y,-z
1/2+x,y,-z
1/2-x,1/2+y,z
1/2+x,-y,z
loop_
_atom_site_type_symbol
_atom_site_label
_atom_site_fract_x
_atom_site_fract_y
_atom_site_fract_z
Si Si1 0.803100 0.858652 0.572745
Si Si2 0.500000 0.106744 0.516255
Si Si3 0.192134 0.863053 0.286304
Si Si4 0.000000 0.145385 0.656741
Si Si5 0.271589 0.138065 0.117619
Si Si6 0.603188 0.362025 0.980790
O O1 0.783768 0.750000 0.573495
O O2 0.750000 0.896117 0.500000
O O3 0.764181 0.893195 0.651169
O O4 0.909177 0.869909 0.560143
O O5 0.500000 0.149374 0.433191
O O6 0.500000 0.000000 0.500000
O O7 0.191751 0.750000 0.285676
O O8 0.093501 0.895867 0.313973
O O9 0.212965 0.892645 0.202149
O O10 0.000000 0.250000 0.685162
O O11 0.271458 0.250000 0.117845
O O12 0.350875 0.111119 0.059745
O O13 0.175331 0.109403 0.082512
O O14 0.500000 0.393472 0.971826
O O15 0.601352 0.250000 0.979701
#
# Coordination Sequence:
#
# PCOD9500786 Si02
#       6
#    16   8  16   8  16  16
#     4  10  19  35  55  73  97 128 166 209 252 290
#     4  12  24  36  52  74  99 132 168 200 249 312
#     4   9  17  28  46  68  91 124 166 210 244 285
#     4  10  18  32  52  74  97 124 167 212 247 288
#     4   8  14  23  34  56  84 117 163 198 231 283
#     4   8  13  21  33  50  83 124 155 188 232 288
#
# _framework density 20.813312
#
# number of rings (size 3 to 8) (size 9 to 14) (size 15 to 20)
#    0.000    2.800    2.000    2.100    1.400    0.400 
#    1.800    0.000    0.000    0.000    0.000    0.000 
#    0.000    0.000    0.000   21.600    0.000   24.000 
#
# Total GULP energy -223264.705116 kJ/mol
# GULP energy per Si atom -5581.617628 kJ/mol
# Density = 2.076594 g / cm^3
# Si number density = 20.813312 Si / 1000 Ang^3
#
#
#
# Elastic Constant Matrix: (Units=GPa)
#
#
# Indices 1 2 3 4 5 6 
#
# 1 210.5243 -16.7125 131.6688 0.0000 0.0000 0.0000
# 2 -16.7125 46.7600 -9.2608 0.0000 0.0000 0.0000
# 3 131.6688 -9.2608 202.3142 0.0000 0.0000 0.0000
# 4 0.0000 0.0000 0.0000 -12.5197 0.0000 0.0000
# 5 0.0000 0.0000 0.0000 0.0000 13.5550 0.0000
# 6 0.0000 0.0000 0.0000 0.0000 0.0000 -43.9766
#
#
#
# Elastic Compliance Matrix: (Units=1/GPa)
#
#
# Indices 1 2 3 4 5 6 
#
# 1 0.008172 0.001885 -0.005232 0.000000 0.000000 0.000000
# 2 0.001885 0.022016 -0.000219 0.000000 0.000000 0.000000
# 3 -0.005232 -0.000219 0.008338 0.000000 0.000000 0.000000
# 4 0.000000 0.000000 0.000000 -0.079874 0.000000 0.000000
# 5 0.000000 0.000000 0.000000 0.000000 0.073773 0.000000
# 6 0.000000 0.000000 0.000000 0.000000 0.000000 -0.022739
#
#
# Mechanical properties :
#
#
# Convention : Reuss Voigt Hill
#
# Bulk Modulus (GPa) = 31.85395 74.55439 53.20417
# Shear Modulus (GPa) = 183.26378 15.00529 99.13454
#
# Velocity S-wave (km/s) = 9.39374 2.68796 6.90896
# Velocity P-wave (km/s) = 11.53232 6.74772 9.44791
#
# Compressibility (1/GPa) = 0.03139328
#
# Stress axis : x y z
#
# Youngs Moduli (GPa) = 122.36842 45.42145 119.93305
#
# Poissons Ratio (x) = -0.08560 0.62751
# Poissons Ratio (y) = -0.23061 0.02623
# Poissons Ratio (z) = 0.64026 0.00993
#
# Static dielectric constant tensor:
#      x y z
#    x 1.720750 0.000000 0.000000 
#    y 0.000000 1.771360 0.000000 
#    z 0.000000 0.000000 1.755650 
# 
# From -- ./inp_files/33571.got.cif
#   From: 2010.05.17/outbox.cif.g08.bks.cpg/sg67_17_cif.got.tgz:33571.got - 2010.06.03 18:28:57.
