data_PCOD9500392
_publ_section_title
;
Structure prediction by ZEFSAII (Michael W. Deem and Ramdas Pophale) SiO2 
 PCOD9500392
Probable space group: C M M A
;
_chemical_formula_sum "Si O2"
_cell_formula_units_Z 120
_cell_length_a 23.081332
_cell_length_b 17.386634
_cell_length_c 15.524461
_cell_angle_alpha 90.000000
_cell_angle_beta 90.000000
_cell_angle_gamma 90.000000
_cell_volume 6230.069774
_symmetry_space_group_name_H-M "C M M A"
_symmetry_group_IT_number 67
_symmetry_cell_setting 'orthorhombic'
loop_
_space_group_symop_operation_xyz
x,y,z
-x,1/2-y,z
x,-y,-z
-x,1/2+y,-z
-x,-y,-z
x,1/2+y,-z
-x,y,z
x,1/2-y,z
1/2+x,1/2+y,z
1/2-x,-y,z
1/2+x,1/2-y,-z
1/2-x,y,-z
1/2-x,1/2-y,-z
1/2+x,y,-z
1/2-x,1/2+y,z
1/2+x,-y,z
loop_
_atom_site_type_symbol
_atom_site_label
_atom_site_fract_x
_atom_site_fract_y
_atom_site_fract_z
Si Si1 0.250000 0.365889 0.500000
Si Si2 0.242839 0.842006 0.159529
Si Si3 0.817800 0.869683 0.338904
Si Si4 0.065477 0.431712 0.274400
Si Si5 0.625778 0.657208 0.926803
Si Si6 0.125982 0.656521 0.878652
Si Si7 0.152046 0.466746 0.412974
Si Si8 0.565487 0.616405 0.752350
O O1 0.209408 0.331468 0.575610
O O2 0.205071 0.416552 0.445649
O O3 0.244256 0.750000 0.147991
O O4 0.223913 0.858082 0.257453
O O5 0.190252 0.871316 0.099774
O O6 0.307257 0.868447 0.137644
O O7 0.882772 0.848292 0.306439
O O8 0.823802 0.959834 0.361811
O O9 0.087098 0.385742 0.191433
O O10 0.109064 0.419412 0.353411
O O11 0.066825 0.523924 0.258862
O O12 0.000000 0.409870 0.295705
O O13 0.627999 0.750000 0.926307
O O14 0.582736 0.633115 0.850987
O O15 0.610100 0.634551 0.023572
O O16 0.122287 0.750000 0.870067
O O17 0.122545 0.500000 0.500000
O O18 0.500000 0.642838 0.733175
#
# Coordination Sequence:
#
# PCOD9500392 Si02
#       8
#     8  16  16  16  16  16  16  16
#     4  10  17  28  49  76  99 122 154 200 255 306
#     4   9  17  31  51  73  98 128 163 206 254 303
#     4   9  16  28  48  71  97 125 155 195 246 299
#     4  10  21  35  50  71 102 137 172 211 251 295
#     4   9  18  33  53  76 100 130 169 210 254 306
#     4  10  20  33  51  74 101 135 172 209 253 307
#     4   9  17  30  51  75  98 126 161 204 251 300
#     4   9  19  34  50  71  99 133 172 212 251 289
#
# _framework density 19.261422
#
# number of rings (size 3 to 8) (size 9 to 14) (size 15 to 20)
#    0.000    2.667    0.000    3.000    0.000    4.533 
#    0.000    7.000    0.000    8.000    0.000    0.000 
#    0.000   27.733    0.000    0.000    0.000    0.000 
#
# Total GULP energy -334399.729942 kJ/mol
# GULP energy per Si atom -5573.328832 kJ/mol
# Density = 1.921758 g / cm^3
# Si number density = 19.261422 Si / 1000 Ang^3
#
#
#
# Elastic Constant Matrix: (Units=GPa)
#
#
# Indices 1 2 3 4 5 6 
#
# 1 123.5229 23.7939 81.9305 0.0000 0.0000 0.0000
# 2 23.7939 24.4601 11.1416 0.0000 0.0000 0.0000
# 3 81.9305 11.1416 107.5396 0.0000 0.0000 0.0000
# 4 0.0000 0.0000 0.0000 48.1702 0.0000 0.0000
# 5 0.0000 0.0000 0.0000 0.0000 -14.4205 0.0000
# 6 0.0000 0.0000 0.0000 0.0000 0.0000 12.0888
#
#
#
# Elastic Compliance Matrix: (Units=1/GPa)
#
#
# Indices 1 2 3 4 5 6 
#
# 1 0.019588 -0.012864 -0.013591 0.000000 0.000000 0.000000
# 2 -0.012864 0.051356 0.004480 0.000000 0.000000 0.000000
# 3 -0.013591 0.004480 0.019189 0.000000 0.000000 0.000000
# 4 0.000000 0.000000 0.000000 0.020760 0.000000 0.000000
# 5 0.000000 0.000000 0.000000 0.000000 -0.069346 0.000000
# 6 0.000000 0.000000 0.000000 0.000000 0.000000 0.082721
#
#
# Mechanical properties :
#
#
# Convention : Reuss Voigt Hill
#
# Bulk Modulus (GPa) = 21.65280 54.36161 38.00721
# Shear Modulus (GPa) = 27.23131 18.41147 22.82139
#
# Velocity S-wave (km/s) = 3.76410 3.09507 3.44586
# Velocity P-wave (km/s) = 5.49156 6.40757 5.96717
#
# Compressibility (1/GPa) = 0.04618340
#
# Stress axis : x y z
#
# Youngs Moduli (GPa) = 51.05162 19.47200 52.11327
#
# Poissons Ratio (x) = 0.25049 0.70825
# Poissons Ratio (y) = 0.65672 -0.23346
# Poissons Ratio (z) = 0.69382 -0.08723
#
# Static dielectric constant tensor:
#      x y z
#    x 1.690890 0.000000 0.000000 
#    y 0.000000 1.675750 0.000000 
#    z 0.000000 0.000000 1.679560 
# 
# From -- ./inp_files/29643.got.cif
#   From: 2010.05.17/outbox.cif.g08.bks.cpg/sg67_15_cif.got.tgz:29643.got - 2010.06.03 18:28:57.
