data_PCOD9500782
_publ_section_title
;
Structure prediction by ZEFSAII (Michael W. Deem and Ramdas Pophale) SiO2 
 PCOD9500782
Probable space group: C M M A
;
_chemical_formula_sum "Si O2"
_cell_formula_units_Z 72
_cell_length_a 31.719822
_cell_length_b 8.567969
_cell_length_c 14.581707
_cell_angle_alpha 90.000000
_cell_angle_beta 90.000000
_cell_angle_gamma 90.000000
_cell_volume 3962.935423
_symmetry_space_group_name_H-M "C M M A"
_symmetry_group_IT_number 67
_symmetry_cell_setting 'orthorhombic'
loop_
_space_group_symop_operation_xyz
x,y,z
-x,1/2-y,z
x,-y,-z
-x,1/2+y,-z
-x,-y,-z
x,1/2+y,-z
-x,y,z
x,1/2-y,z
1/2+x,1/2+y,z
1/2-x,-y,z
1/2+x,1/2-y,-z
1/2-x,y,-z
1/2-x,1/2-y,-z
1/2+x,y,-z
1/2-x,1/2+y,z
1/2+x,-y,z
loop_
_atom_site_type_symbol
_atom_site_label
_atom_site_fract_x
_atom_site_fract_y
_atom_site_fract_z
Si Si1 0.952768 0.938556 0.603525
Si Si2 0.588778 0.435727 0.103165
Si Si3 0.203294 0.063154 0.601565
Si Si4 0.627857 0.062200 0.723442
Si Si5 0.500000 0.436421 0.895845
O O1 0.952222 0.750000 0.601893
O O2 0.913613 0.989489 0.665716
O O3 0.000000 0.986468 0.635210
O O4 0.947466 0.000000 0.500000
O O5 0.586881 0.250000 0.099128
O O6 0.623288 0.495422 0.174412
O O7 0.544056 0.501003 0.141279
O O8 0.594590 0.500000 0.000000
O O9 0.203774 0.250000 0.599775
O O10 0.192518 0.000000 0.500000
O O11 0.250000 0.000000 0.623285
O O12 0.168838 0.000545 0.672060
O O13 0.628326 0.250000 0.726211
O O14 0.500000 0.250000 0.893427
O O15 0.500000 0.500000 0.000000
#
# Coordination Sequence:
#
# PCOD9500782 Si02
#       5
#    16  16  16  16   8
#     4   9  19  34  51  74 107 148 187 226 271 326
#     4  11  22  37  55  80 111 149 194 242 292 342
#     4  11  22  39  62  89 119 150 188 236 290 347
#     4  11  22  36  57  84 114 150 192 237 287 343
#     4  10  18  32  52  74 103 142 187 238 288 336
#
# _framework density 18.16835
#
# number of rings (size 3 to 8) (size 9 to 14) (size 15 to 20)
#    0.000    1.556    0.000    8.333    1.556    3.556 
#    0.000    0.000    0.000    0.667    0.000    4.667 
#    0.000    0.000    0.000    0.000    0.000    0.000 
#
# Total GULP energy -201160.094978 kJ/mol
# GULP energy per Si atom -5587.780416 kJ/mol
# Density = 1.812700 g / cm^3
# Si number density = 18.168350 Si / 1000 Ang^3
#
#
#
# Elastic Constant Matrix: (Units=GPa)
#
#
# Indices 1 2 3 4 5 6 
#
# 1 105.0397 53.7536 88.9725 0.0000 0.0000 0.0000
# 2 53.7536 142.4670 49.8712 0.0000 0.0000 0.0000
# 3 88.9725 49.8712 116.2056 0.0000 0.0000 0.0000
# 4 0.0000 0.0000 0.0000 27.5099 0.0000 0.0000
# 5 0.0000 0.0000 0.0000 0.0000 30.5870 0.0000
# 6 0.0000 0.0000 0.0000 0.0000 0.0000 28.2438
#
#
#
# Elastic Compliance Matrix: (Units=1/GPa)
#
#
# Indices 1 2 3 4 5 6 
#
# 1 0.028640 -0.003683 -0.020348 0.000000 0.000000 0.000000
# 2 -0.003683 0.008734 -0.000928 0.000000 0.000000 0.000000
# 3 -0.020348 -0.000928 0.024583 0.000000 0.000000 0.000000
# 4 0.000000 0.000000 0.000000 0.036351 0.000000 0.000000
# 5 0.000000 0.000000 0.000000 0.000000 0.032694 0.000000
# 6 0.000000 0.000000 0.000000 0.000000 0.000000 0.035406
#
#
# Mechanical properties :
#
#
# Convention : Reuss Voigt Hill
#
# Bulk Modulus (GPa) = 83.06447 83.21188 83.13817
# Shear Modulus (GPa) = 22.69238 28.67582 25.68410
#
# Velocity S-wave (km/s) = 3.53796 3.97714 3.76396
# Velocity P-wave (km/s) = 7.90621 8.18475 8.04668
#
# Compressibility (1/GPa) = 0.01203884
#
# Stress axis : x y z
#
# Youngs Moduli (GPa) = 34.91572 114.49765 40.67875
#
# Poissons Ratio (x) = 0.42174 0.82772
# Poissons Ratio (y) = 0.12861 0.03775
# Poissons Ratio (z) = 0.71045 0.10626
#
# Static dielectric constant tensor:
#      x y z
#    x 1.646290 0.000000 0.000000 
#    y 0.000000 1.609290 0.000000 
#    z 0.000000 0.000000 1.617820 
# 
# From -- ./inp_files/25330.got.cif
#   From: 2010.05.17/outbox.cif.g08.bks.cpg/sg67_13_cif.got.tgz:25330.got - 2010.06.03 18:28:57.
