data_PCOD9500194
_publ_section_title
;
Structure prediction by ZEFSAII (Michael W. Deem and Ramdas Pophale) SiO2 
 PCOD9500194
Probable space group: C M M A
;
_chemical_formula_sum "Si O2"
_cell_formula_units_Z 64
_cell_length_a 18.383610
_cell_length_b 8.576712
_cell_length_c 22.007204
_cell_angle_alpha 90.000000
_cell_angle_beta 90.000000
_cell_angle_gamma 90.000000
_cell_volume 3469.896288
_symmetry_space_group_name_H-M "C M M A"
_symmetry_group_IT_number 67
_symmetry_cell_setting 'orthorhombic'
loop_
_space_group_symop_operation_xyz
x,y,z
-x,1/2-y,z
x,-y,-z
-x,1/2+y,-z
-x,-y,-z
x,1/2+y,-z
-x,y,z
x,1/2-y,z
1/2+x,1/2+y,z
1/2-x,-y,z
1/2+x,1/2-y,-z
1/2-x,y,-z
1/2-x,1/2-y,-z
1/2+x,y,-z
1/2-x,1/2+y,z
1/2+x,-y,z
loop_
_atom_site_type_symbol
_atom_site_label
_atom_site_fract_x
_atom_site_fract_y
_atom_site_fract_z
Si Si1 0.166687 0.436240 0.562868
Si Si2 0.167864 0.437662 0.814878
Si Si3 0.584098 0.562281 0.936202
Si Si4 0.166787 0.063832 0.311499
O O1 0.133520 0.500000 0.500000
O O2 0.168426 0.250000 0.562288
O O3 0.250000 0.500000 0.563202
O O4 0.133474 0.497667 0.626061
O O5 0.168713 0.250000 0.810911
O O6 0.250000 0.500000 0.819676
O O7 0.125797 0.486686 0.875582
O O8 0.134727 0.504396 0.752215
O O9 0.500000 0.510806 0.932211
O O10 0.585425 0.750000 0.938197
O O11 0.614660 0.500000 0.000000
O O12 0.168308 0.250000 0.313486
O O13 0.250000 0.000000 0.310299
#
# Coordination Sequence:
#
# PCOD9500194 Si02
#       4
#    16  16  16  16
#     4  10  16  23  34  51  77 111 150 187 225 268
#     4  10  19  31  47  68  94 122 153 189 230 275
#     4   9  19  35  53  71  92 120 153 189 229 273
#     4  10  17  26  39  57  83 115 150 186 227 271
#
# _framework density 18.444355000000002
#
# number of rings (size 3 to 8) (size 9 to 14) (size 15 to 20)
#    0.000    2.250    0.000    9.000    0.000    2.500 
#    0.000    2.500    0.000    0.000    0.000    0.000 
#    0.000    1.000    0.000    2.750    0.000   10.750 
#
# Total GULP energy -178362.345395 kJ/mol
# GULP energy per Si atom -5573.823294 kJ/mol
# Density = 1.840237 g / cm^3
# Si number density = 18.444355 Si / 1000 Ang^3
#
#
#
# Elastic Constant Matrix: (Units=GPa)
#
#
# Indices 1 2 3 4 5 6 
#
# 1 12.4061 10.9724 38.1392 0.0000 0.0000 0.0000
# 2 10.9724 127.5929 70.8060 0.0000 0.0000 0.0000
# 3 38.1392 70.8060 247.8850 0.0000 0.0000 0.0000
# 4 0.0000 0.0000 0.0000 39.0380 0.0000 0.0000
# 5 0.0000 0.0000 0.0000 0.0000 -11.3542 0.0000
# 6 0.0000 0.0000 0.0000 0.0000 0.0000 7.4085
#
#
#
# Elastic Compliance Matrix: (Units=1/GPa)
#
#
# Indices 1 2 3 4 5 6 
#
# 1 0.152951 -0.000112 -0.023501 0.000000 0.000000 0.000000
# 2 -0.000112 0.009314 -0.002643 0.000000 0.000000 0.000000
# 3 -0.023501 -0.002643 0.008405 0.000000 0.000000 0.000000
# 4 0.000000 0.000000 0.000000 0.025616 0.000000 0.000000
# 5 0.000000 0.000000 0.000000 0.000000 -0.088073 0.000000
# 6 0.000000 0.000000 0.000000 0.000000 0.000000 0.134981
#
#
# Mechanical properties :
#
#
# Convention : Reuss Voigt Hill
#
# Bulk Modulus (GPa) = 8.46320 69.74657 39.10488
# Shear Modulus (GPa) = 14.92129 24.88287 19.90208
#
# Velocity S-wave (km/s) = 2.84736 3.67696 3.28843
# Velocity P-wave (km/s) = 3.92535 7.47820 5.97210
#
# Compressibility (1/GPa) = 0.11815863
#
# Stress axis : x y z
#
# Youngs Moduli (GPa) = 6.53803 107.36686 118.97725
#
# Poissons Ratio (x) = 0.01198 2.79608
# Poissons Ratio (y) = 0.00073 0.31449
# Poissons Ratio (z) = 0.15365 0.28380
#
# Static dielectric constant tensor:
#      x y z
#    x 1.614410 0.000000 0.000000 
#    y 0.000000 1.032950 0.000000 
#    z 0.000000 0.000000 1.722130 
# 
# From -- ./inp_files/31891.got.cif
#   From: 2010.05.17/outbox.cif.g08.bks.cpg/sg67_16_cif.got.tgz:31891.got - 2010.06.03 18:28:57.
