data_PCOD9500333
_publ_section_title
;
Structure prediction by ZEFSAII (Michael W. Deem and Ramdas Pophale) SiO2 
 PCOD9500333
Probable space group: C M M A
;
_chemical_formula_sum "Si O2"
_cell_formula_units_Z 128
_cell_length_a 19.536306
_cell_length_b 21.913116
_cell_length_c 17.137872
_cell_angle_alpha 90.000000
_cell_angle_beta 90.000000
_cell_angle_gamma 90.000000
_cell_volume 7336.745961
_symmetry_space_group_name_H-M "C M M A"
_symmetry_group_IT_number 67
_symmetry_cell_setting 'orthorhombic'
loop_
_space_group_symop_operation_xyz
x,y,z
-x,1/2-y,z
x,-y,-z
-x,1/2+y,-z
-x,-y,-z
x,1/2+y,-z
-x,y,z
x,1/2-y,z
1/2+x,1/2+y,z
1/2-x,-y,z
1/2+x,1/2-y,-z
1/2-x,y,-z
1/2-x,1/2-y,-z
1/2+x,y,-z
1/2-x,1/2+y,z
1/2+x,-y,z
loop_
_atom_site_type_symbol
_atom_site_label
_atom_site_fract_x
_atom_site_fract_y
_atom_site_fract_z
Si Si1 0.076416 0.905611 0.544555
Si Si2 0.923619 0.412925 0.187032
Si Si3 0.921283 0.993907 0.334656
Si Si4 0.806865 0.555185 0.237646
Si Si5 0.332349 0.493916 0.912033
Si Si6 0.737882 0.817331 0.711024
Si Si7 0.601963 0.318908 0.688506
Si Si8 0.323332 0.318933 0.457716
O O1 0.095451 0.969619 0.585963
O O2 0.074079 0.859617 0.618522
O O3 0.127727 0.873107 0.485677
O O4 0.000000 0.911655 0.511875
O O5 0.919501 0.457540 0.262624
O O6 0.864990 0.433532 0.127104
O O7 0.915119 0.347620 0.227473
O O8 0.000000 0.419529 0.153230
O O9 0.000000 0.971621 0.338610
O O10 0.861191 0.949363 0.308026
O O11 0.750000 0.500000 0.246746
O O12 0.846068 0.543905 0.155610
O O13 0.773941 0.621882 0.239120
O O14 0.250000 0.500000 0.917531
O O15 0.359108 0.500000 0.000000
O O16 0.728367 0.750000 0.748246
O O17 0.815929 0.820252 0.681761
O O18 0.690864 0.819954 0.634289
O O19 0.578623 0.250000 0.682269
O O20 0.349093 0.250000 0.478538
O O21 0.250000 0.325809 0.500000
#
# Coordination Sequence:
#
# PCOD9500333 Si02
#       8
#    16  16  16  16  16  16  16  16
#     4  10  18  29  47  70  96 127 166 211 259 308
#     4   9  17  28  44  72 104 126 151 193 242 297
#     4   8  16  30  48  70  97 124 153 203 264 307
#     4  10  18  31  54  77  97 128 170 210 248 305
#     4   9  17  30  50  74  99 128 163 205 246 288
#     4  10  20  33  50  72  99 132 173 216 255 297
#     4  10  17  27  45  69  98 130 159 194 244 302
#     4  10  19  31  46  64  94 134 169 210 257 301
#
# _framework density 17.446425999999999
#
# number of rings (size 3 to 8) (size 9 to 14) (size 15 to 20)
#    0.000    2.500    1.250    4.500    0.000    2.000 
#    0.000    1.250    0.000    3.375    0.000    6.125 
#    0.000    0.000    0.000    0.000    0.000    0.000 
#
# Total GULP energy -356313.034425 kJ/mol
# GULP energy per Si atom -5567.391163 kJ/mol
# Density = 1.740672 g / cm^3
# Si number density = 17.446426 Si / 1000 Ang^3
#
#
#
# Elastic Constant Matrix: (Units=GPa)
#
#
# Indices 1 2 3 4 5 6 
#
# 1 69.9045 20.2108 22.0225 0.0000 0.0000 0.0000
# 2 20.2108 69.2439 23.6602 0.0000 0.0000 0.0000
# 3 22.0225 23.6602 74.1880 0.0000 0.0000 0.0000
# 4 0.0000 0.0000 0.0000 13.1271 0.0000 0.0000
# 5 0.0000 0.0000 0.0000 0.0000 12.4037 0.0000
# 6 0.0000 0.0000 0.0000 0.0000 0.0000 10.5880
#
#
#
# Elastic Compliance Matrix: (Units=1/GPa)
#
#
# Indices 1 2 3 4 5 6 
#
# 1 0.016516 -0.003530 -0.003777 0.000000 0.000000 0.000000
# 2 -0.003530 0.016962 -0.004362 0.000000 0.000000 0.000000
# 3 -0.003777 -0.004362 0.015991 0.000000 0.000000 0.000000
# 4 0.000000 0.000000 0.000000 0.076178 0.000000 0.000000
# 5 0.000000 0.000000 0.000000 0.000000 0.080621 0.000000
# 6 0.000000 0.000000 0.000000 0.000000 0.000000 0.094447
#
#
# Mechanical properties :
#
#
# Convention : Reuss Voigt Hill
#
# Bulk Modulus (GPa) = 38.26691 38.34704 38.30697
# Shear Modulus (GPa) = 15.02568 17.05329 16.03948
#
# Velocity S-wave (km/s) = 2.93788 3.12984 3.03538
# Velocity P-wave (km/s) = 5.78704 5.92358 5.85570
#
# Compressibility (1/GPa) = 0.02613224
#
# Stress axis : x y z
#
# Youngs Moduli (GPa) = 60.54857 58.95377 62.53330
#
# Poissons Ratio (x) = 0.20811 0.23618
# Poissons Ratio (y) = 0.21374 0.27276
# Poissons Ratio (z) = 0.22868 0.25714
#
# Static dielectric constant tensor:
#      x y z
#    x 1.629770 0.000000 0.000000 
#    y 0.000000 1.631110 0.000000 
#    z 0.000000 0.000000 1.608040 
# 
# From -- ./inp_files/34594.got.cif
#   From: 2010.05.17/outbox.cif.g08.bks.cpg/sg67_18_cif.got.tgz:34594.got - 2010.06.03 18:28:57.
