data_PCOD9500593
_publ_section_title
;
Structure prediction by ZEFSAII (Michael W. Deem and Ramdas Pophale) SiO2 
 PCOD9500593
Probable space group: C M M A
;
_chemical_formula_sum "Si O2"
_cell_formula_units_Z 120
_cell_length_a 8.812427
_cell_length_b 28.027338
_cell_length_c 29.677379
_cell_angle_alpha 90.000000
_cell_angle_beta 90.000000
_cell_angle_gamma 90.000000
_cell_volume 7329.982308
_symmetry_space_group_name_H-M "C M M A"
_symmetry_group_IT_number 67
_symmetry_cell_setting 'orthorhombic'
loop_
_space_group_symop_operation_xyz
x,y,z
-x,1/2-y,z
x,-y,-z
-x,1/2+y,-z
-x,-y,-z
x,1/2+y,-z
-x,y,z
x,1/2-y,z
1/2+x,1/2+y,z
1/2-x,-y,z
1/2+x,1/2-y,-z
1/2-x,y,-z
1/2-x,1/2-y,-z
1/2+x,y,-z
1/2-x,1/2+y,z
1/2+x,-y,z
loop_
_atom_site_type_symbol
_atom_site_label
_atom_site_fract_x
_atom_site_fract_y
_atom_site_fract_z
Si Si1 0.672165 0.452340 0.200866
Si Si2 0.816875 0.805505 0.787845
Si Si3 0.318621 0.053791 0.646603
Si Si4 0.318519 0.250000 0.949699
Si Si5 0.319833 0.152150 0.049665
Si Si6 0.172477 0.376065 0.718938
Si Si7 0.319294 0.946869 0.455372
Si Si8 0.820123 0.617669 0.864737
O O1 0.500000 0.460732 0.185141
O O2 0.750000 0.500000 0.218033
O O3 0.666222 0.414360 0.240711
O O4 0.776530 0.429510 0.162547
O O5 0.770420 0.750000 0.792514
O O6 0.752060 0.830664 0.742751
O O7 0.773950 0.838372 0.831202
O O8 0.000000 0.806999 0.785719
O O9 0.500000 0.049216 0.651777
O O10 0.256624 0.094578 0.679781
O O11 0.285446 0.070530 0.595143
O O12 0.250000 0.000000 0.653559
O O13 0.500000 0.250000 0.949594
O O14 0.252849 0.201257 0.931042
O O15 0.250000 0.250000 0.000000
O O16 0.500000 0.156739 0.045209
O O17 0.269335 0.116243 0.088295
O O18 0.250000 0.143313 0.000000
O O19 0.000000 0.364188 0.705438
O O20 0.500000 0.949327 0.460622
O O21 0.250000 0.922564 0.500000
O O22 0.250000 0.000000 0.454726
O O23 0.000000 0.621575 0.872884
#
# Coordination Sequence:
#
# PCOD9500593 Si02
#       8
#    16  16  16   8  16  16  16  16
#     4  10  20  34  51  72  97 125 159 199 240 282
#     4   9  19  35  53  72  96 128 159 192 236 285
#     4  10  19  29  43  65  94 128 165 204 244 287
#     4  10  18  30  46  66  92 122 154 186 224 270
#     4  11  21  34  50  72  99 128 158 193 233 275
#     4  10  20  32  48  71  97 126 161 200 240 283
#     4   9  16  25  38  57  84 121 161 199 239 283
#     4  10  20  34  53  76  99 127 160 193 232 281
#
# _framework density 16.371117000000002
#
# number of rings (size 3 to 8) (size 9 to 14) (size 15 to 20)
#    0.000    2.133    0.000    5.400    0.933    5.067 
#    0.000    0.000    0.000    0.400    0.000    2.800 
#    0.000    0.533    0.000    1.733    0.000    2.400 
#
# Total GULP energy -334202.046965 kJ/mol
# GULP energy per Si atom -5570.034116 kJ/mol
# Density = 1.633386 g / cm^3
# Si number density = 16.371117 Si / 1000 Ang^3
#
#
#
# Elastic Constant Matrix: (Units=GPa)
#
#
# Indices 1 2 3 4 5 6 
#
# 1 90.9840 15.5825 40.2644 0.0000 0.0000 0.0000
# 2 15.5825 35.7571 2.1108 0.0000 0.0000 0.0000
# 3 40.2644 2.1108 86.9616 0.0000 0.0000 0.0000
# 4 0.0000 0.0000 0.0000 17.0976 0.0000 0.0000
# 5 0.0000 0.0000 0.0000 0.0000 26.4669 0.0000
# 6 0.0000 0.0000 0.0000 0.0000 0.0000 20.4079
#
#
#
# Elastic Compliance Matrix: (Units=1/GPa)
#
#
# Indices 1 2 3 4 5 6 
#
# 1 0.015068 -0.006163 -0.006827 0.000000 0.000000 0.000000
# 2 -0.006163 0.030528 0.002113 0.000000 0.000000 0.000000
# 3 -0.006827 0.002113 0.014609 0.000000 0.000000 0.000000
# 4 0.000000 0.000000 0.000000 0.058488 0.000000 0.000000
# 5 0.000000 0.000000 0.000000 0.000000 0.037783 0.000000
# 6 0.000000 0.000000 0.000000 0.000000 0.000000 0.049001
#
#
# Mechanical properties :
#
#
# Convention : Reuss Voigt Hill
#
# Bulk Modulus (GPa) = 26.00831 36.62424 31.31627
# Shear Modulus (GPa) = 20.82922 23.17748 22.00335
#
# Velocity S-wave (km/s) = 3.57082 3.76673 3.67009
# Velocity P-wave (km/s) = 5.73779 6.42943 6.09343
#
# Compressibility (1/GPa) = 0.03844925
#
# Stress axis : x y z
#
# Youngs Moduli (GPa) = 66.36698 32.75719 68.45091
#
# Poissons Ratio (x) = 0.20189 0.46731
# Poissons Ratio (y) = 0.40904 -0.14462
# Poissons Ratio (z) = 0.45308 -0.06921
#
# Static dielectric constant tensor:
#      x y z
#    x 1.568150 0.000000 0.000000 
#    y 0.000000 1.563750 0.000000 
#    z 0.000000 0.000000 1.567220 
# 
# From -- ./inp_files/43953.got.cif
#   From: 2010.05.17/outbox.cif.g08.bks.cpg/sg67_22_cif.got.tgz:43953.got - 2010.06.03 18:28:57.
