data_PCOD9500758
_publ_section_title
;
Structure prediction by ZEFSAII (Michael W. Deem and Ramdas Pophale) SiO2 
 PCOD9500758
Probable space group: C M M A
;
_chemical_formula_sum "Si O2"
_cell_formula_units_Z 112
_cell_length_a 15.666695
_cell_length_b 30.248178
_cell_length_c 12.785930
_cell_angle_alpha 90.000000
_cell_angle_beta 90.000000
_cell_angle_gamma 90.000000
_cell_volume 6059.111314
_symmetry_space_group_name_H-M "C M M A"
_symmetry_group_IT_number 67
_symmetry_cell_setting 'orthorhombic'
loop_
_space_group_symop_operation_xyz
x,y,z
-x,1/2-y,z
x,-y,-z
-x,1/2+y,-z
-x,-y,-z
x,1/2+y,-z
-x,y,z
x,1/2-y,z
1/2+x,1/2+y,z
1/2-x,-y,z
1/2+x,1/2-y,-z
1/2-x,y,-z
1/2-x,1/2-y,-z
1/2+x,y,-z
1/2-x,1/2+y,z
1/2+x,-y,z
loop_
_atom_site_type_symbol
_atom_site_label
_atom_site_fract_x
_atom_site_fract_y
_atom_site_fract_z
Si Si1 0.604360 0.553914 0.332863
Si Si2 0.396096 0.454823 0.276189
Si Si3 0.103575 0.799149 0.770801
Si Si4 0.150492 0.799145 0.528025
Si Si5 0.398723 0.105496 0.461507
Si Si6 0.347356 0.453221 0.037547
Si Si7 0.601304 0.389034 0.864298
O O1 0.500000 0.555314 0.334058
O O2 0.627213 0.502487 0.325127
O O3 0.635071 0.579933 0.435610
O O4 0.634119 0.578788 0.227879
O O5 0.500000 0.453743 0.265574
O O6 0.366302 0.416832 0.355496
O O7 0.357886 0.450254 0.161095
O O8 0.129935 0.750000 0.805413
O O9 0.135128 0.805745 0.651936
O O10 0.133757 0.839546 0.842876
O O11 0.000000 0.799619 0.766470
O O12 0.114999 0.750000 0.502196
O O13 0.250000 0.798275 0.500000
O O14 0.114204 0.842254 0.471490
O O15 0.500000 0.097272 0.461573
O O16 0.387569 0.500000 0.000000
O O17 0.250000 0.454380 0.000000
O O18 0.384345 0.411604 0.975345
O O19 0.500000 0.386772 0.849198
#
# Coordination Sequence:
#
# PCOD9500758 Si02
#       7
#    16  16  16  16  16  16  16
#     4   9  16  29  51  79 104 130 163 204 255 303
#     4  10  20  34  53  75 104 139 174 209 250 309
#     4   9  17  31  53  80 103 125 163 216 263 300
#     4  10  20  32  48  73 105 139 172 206 251 306
#     4  10  19  33  53  78 106 136 170 209 255 305
#     4  11  23  36  50  72 102 138 176 217 255 298
#     4  10  18  31  56  79  99 129 167 213 261 301
#
# _framework density 18.484559000000001
#
# number of rings (size 3 to 8) (size 9 to 14) (size 15 to 20)
#    0.000    2.143    2.857    1.286    0.000    4.286 
#    0.000    0.000    0.000    2.143    0.000    2.000 
#    0.000    0.000    0.000    0.000    0.000    0.000 
#
# Total GULP energy -312294.543252 kJ/mol
# GULP energy per Si atom -5576.688272 kJ/mol
# Density = 1.844249 g / cm^3
# Si number density = 18.484559 Si / 1000 Ang^3
#
#
#
# Elastic Constant Matrix: (Units=GPa)
#
#
# Indices 1 2 3 4 5 6 
#
# 1 13.5786 6.9192 7.0986 0.0000 0.0000 0.0000
# 2 6.9192 166.1212 78.5086 0.0000 0.0000 0.0000
# 3 7.0986 78.5086 112.5392 0.0000 0.0000 0.0000
# 4 0.0000 0.0000 0.0000 24.2792 0.0000 0.0000
# 5 0.0000 0.0000 0.0000 0.0000 7.1799 0.0000
# 6 0.0000 0.0000 0.0000 0.0000 0.0000 117.6105
#
#
#
# Elastic Compliance Matrix: (Units=1/GPa)
#
#
# Indices 1 2 3 4 5 6 
#
# 1 0.076358 -0.001349 -0.003875 0.000000 0.000000 0.000000
# 2 -0.001349 0.009004 -0.006196 0.000000 0.000000 0.000000
# 3 -0.003875 -0.006196 0.013453 0.000000 0.000000 0.000000
# 4 0.000000 0.000000 0.000000 0.041187 0.000000 0.000000
# 5 0.000000 0.000000 0.000000 0.000000 0.139277 0.000000
# 6 0.000000 0.000000 0.000000 0.000000 0.000000 0.008503
#
#
# Mechanical properties :
#
#
# Convention : Reuss Voigt Hill
#
# Bulk Modulus (GPa) = 13.16238 53.03244 33.09741
# Shear Modulus (GPa) = 14.88321 43.12811 29.00566
#
# Velocity S-wave (km/s) = 2.84063 4.83556 3.96559
# Velocity P-wave (km/s) = 4.23026 7.74140 6.23796
#
# Compressibility (1/GPa) = 0.07597410
#
# Stress axis : x y z
#
# Youngs Moduli (GPa) = 13.09614 111.05802 74.33327
#
# Poissons Ratio (x) = 0.14981 0.28807
# Poissons Ratio (y) = 0.01767 0.46060
# Poissons Ratio (z) = 0.05075 0.68816
#
# Static dielectric constant tensor:
#      x y z
#    x 1.682800 0.000000 0.000000 
#    y 0.000000 1.676020 0.000000 
#    z 0.000000 0.000000 1.620270 
# 
# From -- ./inp_files/18643.got.cif
#   From: 2010.05.17/outbox.cif.g08.bks.cpg/sg67_10_cif.got.tgz:18643.got - 2010.06.03 18:28:57.
