data_PCOD9500393
_publ_section_title
;
Structure prediction by ZEFSAII (Michael W. Deem and Ramdas Pophale) SiO2 
 PCOD9500393
Probable space group: C M M A
;
_chemical_formula_sum "Si O2"
_cell_formula_units_Z 64
_cell_length_a 8.630553
_cell_length_b 14.993407
_cell_length_c 25.198596
_cell_angle_alpha 90.000000
_cell_angle_beta 90.000000
_cell_angle_gamma 90.000000
_cell_volume 3260.733443
_symmetry_space_group_name_H-M "C M M A"
_symmetry_group_IT_number 67
_symmetry_cell_setting 'orthorhombic'
loop_
_space_group_symop_operation_xyz
x,y,z
-x,1/2-y,z
x,-y,-z
-x,1/2+y,-z
-x,-y,-z
x,1/2+y,-z
-x,y,z
x,1/2-y,z
1/2+x,1/2+y,z
1/2-x,-y,z
1/2+x,1/2-y,-z
1/2-x,y,-z
1/2-x,1/2-y,-z
1/2+x,y,-z
1/2-x,1/2+y,z
1/2+x,-y,z
loop_
_atom_site_type_symbol
_atom_site_label
_atom_site_fract_x
_atom_site_fract_y
_atom_site_fract_z
Si Si1 0.685396 0.099560 0.942785
Si Si2 0.314992 0.398371 0.445520
Si Si3 0.814023 0.750000 0.750049
Si Si4 0.314364 0.599923 0.334744
Si Si5 0.315882 0.750000 0.867519
O O1 0.500000 0.098034 0.944625
O O2 0.744503 0.164550 0.897135
O O3 0.750000 0.000000 0.934558
O O4 0.750000 0.130393 0.000000
O O5 0.500000 0.399291 0.447075
O O6 0.250000 0.500000 0.444769
O O7 0.250000 0.357539 0.500000
O O8 0.255375 0.361564 0.389581
O O9 0.776027 0.836245 0.714307
O O10 0.729576 0.750000 0.805994
O O11 0.000000 0.750000 0.758896
O O12 0.500000 0.595767 0.340521
O O13 0.250000 0.500000 0.326910
O O14 0.500000 0.750000 0.873973
#
# Coordination Sequence:
#
# PCOD9500393 Si02
#       5
#    16  16   8  16   8
#     4  11  22  40  65  95 129 162 200 244 295 351
#     4  10  17  28  49  78 109 141 180 226 281 343
#     4  10  24  43  60  81 114 154 197 244 291 344
#     4  10  20  37  59  82 110 146 187 234 290 346
#     4  12  25  41  62  89 122 162 205 248 296 348
#
# _framework density 19.627486000000001
#
# number of rings (size 3 to 8) (size 9 to 14) (size 15 to 20)
#    0.000    1.500    0.000    9.750    0.000    3.000 
#    0.000    3.125    0.000    0.000    0.000    0.000 
#    0.000    0.000    0.000    0.000    0.000    0.000 
#
# Total GULP energy -178902.423392 kJ/mol
# GULP energy per Si atom -5590.700731 kJ/mol
# Density = 1.958281 g / cm^3
# Si number density = 19.627486 Si / 1000 Ang^3
#
#
#
# Elastic Constant Matrix: (Units=GPa)
#
#
# Indices 1 2 3 4 5 6 
#
# 1 182.0809 52.4993 99.1926 0.0000 0.0000 0.0000
# 2 52.4993 94.0107 73.3948 0.0000 0.0000 0.0000
# 3 99.1926 73.3948 181.1580 0.0000 0.0000 0.0000
# 4 0.0000 0.0000 0.0000 -22.5035 0.0000 0.0000
# 5 0.0000 0.0000 0.0000 0.0000 40.9435 0.0000
# 6 0.0000 0.0000 0.0000 0.0000 0.0000 -17.9105
#
#
#
# Elastic Compliance Matrix: (Units=1/GPa)
#
#
# Indices 1 2 3 4 5 6 
#
# 1 0.007974 -0.001527 -0.003747 0.000000 0.000000 0.000000
# 2 -0.001527 0.015851 -0.005585 0.000000 0.000000 0.000000
# 3 -0.003747 -0.005585 0.009835 0.000000 0.000000 0.000000
# 4 0.000000 0.000000 0.000000 -0.044438 0.000000 0.000000
# 5 0.000000 0.000000 0.000000 0.000000 0.024424 0.000000
# 6 0.000000 0.000000 0.000000 0.000000 0.000000 -0.055833
#
#
# Mechanical properties :
#
#
# Convention : Reuss Voigt Hill
#
# Bulk Modulus (GPa) = 83.75879 100.82477 92.29178
# Shear Modulus (GPa) = -303.25810 15.58342 -143.83734
#
# Velocity S-wave (km/s) = -12.44356 2.82079 -8.56987
# Velocity P-wave (km/s) = 12.79412 7.87971 7.12740
#
# Compressibility (1/GPa) = 0.01193904
#
# Stress axis : x y z
#
# Youngs Moduli (GPa) = 125.40979 63.08891 101.68046
#
# Poissons Ratio (x) = 0.09636 0.38102
# Poissons Ratio (y) = 0.19155 0.56793
# Poissons Ratio (z) = 0.46994 0.35238
#
# Static dielectric constant tensor:
#      x y z
#    x 1.653460 0.000000 0.000000 
#    y 0.000000 1.447220 0.000000 
#    z 0.000000 0.000000 1.687290 
# 
# From -- ./inp_files/36604.got.cif
#   From: 2010.05.17/outbox.cif.g08.bks.cpg/sg67_19_cif.got.tgz:36604.got - 2010.06.03 18:28:57.
