data_PCOD9500169
_publ_section_title
;
Structure prediction by ZEFSAII (Michael W. Deem and Ramdas Pophale) SiO2 
 PCOD9500169
Probable space group: C M M A
;
_chemical_formula_sum "Si O2"
_cell_formula_units_Z 72
_cell_length_a 14.820697
_cell_length_b 9.002462
_cell_length_c 25.829207
_cell_angle_alpha 90.000000
_cell_angle_beta 90.000000
_cell_angle_gamma 90.000000
_cell_volume 3446.204127
_symmetry_space_group_name_H-M "C M M A"
_symmetry_group_IT_number 67
_symmetry_cell_setting 'orthorhombic'
loop_
_space_group_symop_operation_xyz
x,y,z
-x,1/2-y,z
x,-y,-z
-x,1/2+y,-z
-x,-y,-z
x,1/2+y,-z
-x,y,z
x,1/2-y,z
1/2+x,1/2+y,z
1/2-x,-y,z
1/2+x,1/2-y,-z
1/2-x,y,-z
1/2-x,1/2-y,-z
1/2+x,y,-z
1/2-x,1/2+y,z
1/2+x,-y,z
loop_
_atom_site_type_symbol
_atom_site_label
_atom_site_fract_x
_atom_site_fract_y
_atom_site_fract_z
Si Si1 0.500000 0.572400 0.443664
Si Si2 0.893964 0.084911 0.844233
Si Si3 0.849130 0.427567 0.051116
Si Si4 0.105132 0.084869 0.640012
Si Si5 0.388880 0.919898 0.258254
O O1 0.500000 0.750000 0.445047
O O2 0.500000 0.500000 0.500000
O O3 0.587829 0.512077 0.411669
O O4 0.854934 0.250000 0.854383
O O5 0.000000 0.102578 0.834811
O O6 0.887221 0.980293 0.894131
O O7 0.857989 0.010391 0.792087
O O8 0.847489 0.250000 0.046403
O O9 0.750000 0.500000 0.052152
O O10 0.893758 0.500000 0.000000
O O11 0.143775 0.250000 0.631398
O O12 0.000000 0.106477 0.655533
O O13 0.143163 0.995884 0.688564
O O14 0.500000 0.916087 0.258098
O O15 0.358796 0.750000 0.255520
#
# Coordination Sequence:
#
# PCOD9500169 Si02
#       5
#     8  16  16  16  16
#     4  10  16  22  30  44  66  98 141 186 223 264
#     4  10  20  33  50  73  99 124 154 194 235 277
#     4  11  22  38  57  74  95 123 156 190 232 286
#     4   8  14  22  32  46  67  98 134 174 218 262
#     4   9  15  24  39  59  83 110 141 179 223 268
#
# _framework density 20.892552999999999
#
# number of rings (size 3 to 8) (size 9 to 14) (size 15 to 20)
#    0.667    1.778    0.000    5.333    0.000    4.444 
#    0.000    0.000    0.000    0.000    0.000    0.000 
#    0.000    0.000    0.000    0.000    0.000    1.111 
#
# Total GULP energy -200493.393805 kJ/mol
# GULP energy per Si atom -5569.260939 kJ/mol
# Density = 2.084500 g / cm^3
# Si number density = 20.892553 Si / 1000 Ang^3
#
#
#
# Elastic Constant Matrix: (Units=GPa)
#
#
# Indices 1 2 3 4 5 6 
#
# 1 35.4118 7.2311 5.7424 0.0000 0.0000 0.0000
# 2 7.2311 236.8416 112.1560 0.0000 0.0000 0.0000
# 3 5.7424 112.1560 201.6954 0.0000 0.0000 0.0000
# 4 0.0000 0.0000 0.0000 20.6739 0.0000 0.0000
# 5 0.0000 0.0000 0.0000 0.0000 16.8135 0.0000
# 6 0.0000 0.0000 0.0000 0.0000 0.0000 7.5566
#
#
#
# Elastic Compliance Matrix: (Units=1/GPa)
#
#
# Indices 1 2 3 4 5 6 
#
# 1 0.028446 -0.000658 -0.000444 0.000000 0.000000 0.000000
# 2 -0.000658 0.005747 -0.003177 0.000000 0.000000 0.000000
# 3 -0.000444 -0.003177 0.006737 0.000000 0.000000 0.000000
# 4 0.000000 0.000000 0.000000 0.048370 0.000000 0.000000
# 5 0.000000 0.000000 0.000000 0.000000 0.059476 0.000000
# 6 0.000000 0.000000 0.000000 0.000000 0.000000 0.132335
#
#
# Mechanical properties :
#
#
# Convention : Reuss Voigt Hill
#
# Bulk Modulus (GPa) = 30.89135 80.46753 55.67944
# Shear Modulus (GPa) = 16.64120 32.26342 24.45231
#
# Velocity S-wave (km/s) = 2.82532 3.93396 3.42480
# Velocity P-wave (km/s) = 5.04590 7.69632 6.50747
#
# Compressibility (1/GPa) = 0.03237152
#
# Stress axis : x y z
#
# Youngs Moduli (GPa) = 35.15489 174.01286 148.43144
#
# Poissons Ratio (x) = 0.11456 0.06587
# Poissons Ratio (y) = 0.02314 0.47154
# Poissons Ratio (z) = 0.01560 0.55280
#
# Static dielectric constant tensor:
#      x y z
#    x 1.794510 0.000000 0.000000 
#    y 0.000000 1.759450 0.000000 
#    z 0.000000 0.000000 1.765770 
# 
# From -- ./inp_files/42114.got.cif
#   From: 2010.05.17/outbox.cif.g08.bks.cpg/sg67_22_cif.got.tgz:42114.got - 2010.06.03 18:28:57.
