data_PCOD9500309
_publ_section_title
;
Structure prediction by ZEFSAII (Michael W. Deem and Ramdas Pophale) SiO2 
 PCOD9500309
Probable space group: C M M A
;
_chemical_formula_sum "Si O2"
_cell_formula_units_Z 96
_cell_length_a 9.127448
_cell_length_b 14.439325
_cell_length_c 32.431040
_cell_angle_alpha 90.000000
_cell_angle_beta 90.000000
_cell_angle_gamma 90.000000
_cell_volume 4274.222586
_symmetry_space_group_name_H-M "C M M A"
_symmetry_group_IT_number 67
_symmetry_cell_setting 'orthorhombic'
loop_
_space_group_symop_operation_xyz
x,y,z
-x,1/2-y,z
x,-y,-z
-x,1/2+y,-z
-x,-y,-z
x,1/2+y,-z
-x,y,z
x,1/2-y,z
1/2+x,1/2+y,z
1/2-x,-y,z
1/2+x,1/2-y,-z
1/2-x,y,-z
1/2-x,1/2-y,-z
1/2+x,y,-z
1/2-x,1/2+y,z
1/2+x,-y,z
loop_
_atom_site_type_symbol
_atom_site_label
_atom_site_fract_x
_atom_site_fract_y
_atom_site_fract_z
Si Si1 0.666057 0.863212 0.541275
Si Si2 0.838366 0.641889 0.783303
Si Si3 0.834425 0.136864 0.376405
Si Si4 0.835934 0.863366 0.294725
Si Si5 0.678524 0.896220 0.958552
Si Si6 0.176927 0.600704 0.876907
O O1 0.500000 0.896034 0.540213
O O2 0.664233 0.750000 0.541286
O O3 0.750000 0.891242 0.500000
O O4 0.743499 0.891330 0.583555
O O5 0.852839 0.750000 0.772961
O O6 0.726805 0.605740 0.749385
O O7 0.796423 0.639611 0.831317
O O8 0.000000 0.598126 0.779791
O O9 0.836431 0.250000 0.376516
O O10 0.764024 0.109179 0.333088
O O11 0.000000 0.103881 0.379668
O O12 0.841029 0.750000 0.295007
O O13 0.000000 0.897182 0.300793
O O14 0.500000 0.898354 0.959981
O O15 0.740753 0.854509 0.915992
O O16 0.750000 0.000000 0.957782
O O17 0.750000 0.854830 0.000000
O O18 0.250000 0.500000 0.874034
O O19 0.000000 0.598702 0.884028
#
# Coordination Sequence:
#
# PCOD9500309 Si02
#       6
#    16  16  16  16  16  16
#     4   9  15  21  28  39  57  82 115 156 202 250
#     4   9  18  32  48  65  87 117 150 183 220 262
#     4   9  15  22  32  45  63  89 122 161 204 249
#     4   9  16  25  38  56  76  99 131 172 213 252
#     4  10  17  27  44  66  92 118 147 181 217 257
#     4  10  19  31  48  70  95 120 148 182 220 262
#
# _framework density 22.460222999999999
#
# number of rings (size 3 to 8) (size 9 to 14) (size 15 to 20)
#    0.000    2.667    0.000    5.000    0.000    7.333 
#    0.000    0.000    0.000    0.500    0.000    0.000 
#    0.000    0.000    0.000    0.000    0.000    0.833 
#
# Total GULP energy -267924.207128 kJ/mol
# GULP energy per Si atom -5581.754315 kJ/mol
# Density = 2.240910 g / cm^3
# Si number density = 22.460223 Si / 1000 Ang^3
#
#
#
# Elastic Constant Matrix: (Units=GPa)
#
#
# Indices 1 2 3 4 5 6 
#
# 1 217.3573 9.3739 136.3033 0.0000 0.0000 0.0000
# 2 9.3739 61.7073 -4.6880 0.0000 0.0000 0.0000
# 3 136.3033 -4.6880 197.1628 0.0000 0.0000 0.0000
# 4 0.0000 0.0000 0.0000 -11.8764 0.0000 0.0000
# 5 0.0000 0.0000 0.0000 0.0000 46.5138 0.0000
# 6 0.0000 0.0000 0.0000 0.0000 0.0000 -2.6697
#
#
#
# Elastic Compliance Matrix: (Units=1/GPa)
#
#
# Indices 1 2 3 4 5 6 
#
# 1 0.008296 -0.001699 -0.005775 0.000000 0.000000 0.000000
# 2 -0.001699 0.016583 0.001569 0.000000 0.000000 0.000000
# 3 -0.005775 0.001569 0.009102 0.000000 0.000000 0.000000
# 4 0.000000 0.000000 0.000000 -0.084200 0.000000 0.000000
# 5 0.000000 0.000000 0.000000 0.000000 0.021499 0.000000
# 6 0.000000 0.000000 0.000000 0.000000 0.000000 -0.374576
#
#
# Mechanical properties :
#
#
# Convention : Reuss Voigt Hill
#
# Bulk Modulus (GPa) = 45.10729 84.24508 64.67619
# Shear Modulus (GPa) = -13.01758 28.74274 7.86258
#
# Velocity S-wave (km/s) = -2.41007 3.58120 1.87304
# Velocity P-wave (km/s) = 3.51884 7.39526 5.79103
#
# Compressibility (1/GPa) = 0.02216937
#
# Stress axis : x y z
#
# Youngs Moduli (GPa) = 120.54407 60.30337 109.86664
#
# Poissons Ratio (x) = 0.10245 0.63453
# Poissons Ratio (y) = 0.20480 -0.17236
# Poissons Ratio (z) = 0.69619 -0.09461
#
# Static dielectric constant tensor:
#      x y z
#    x 1.781980 0.000000 0.000000 
#    y 0.000000 2.023910 0.000000 
#    z 0.000000 0.000000 1.837020 
# 
# From -- ./inp_files/43668.got.cif
#   From: 2010.05.17/outbox.cif.g08.bks.cpg/sg67_22_cif.got.tgz:43668.got - 2010.06.03 18:28:57.
