data_PCOD9500977
_publ_section_title
;
Structure prediction by ZEFSAII (Michael W. Deem and Ramdas Pophale) SiO2 
 PCOD9500977
Probable space group: C M M A
;
_chemical_formula_sum "Si O2"
_cell_formula_units_Z 112
_cell_length_a 15.714334
_cell_length_b 25.155818
_cell_length_c 14.297208
_cell_angle_alpha 90.000000
_cell_angle_beta 90.000000
_cell_angle_gamma 90.000000
_cell_volume 5651.785346
_symmetry_space_group_name_H-M "C M M A"
_symmetry_group_IT_number 67
_symmetry_cell_setting 'orthorhombic'
loop_
_space_group_symop_operation_xyz
x,y,z
-x,1/2-y,z
x,-y,-z
-x,1/2+y,-z
-x,-y,-z
x,1/2+y,-z
-x,y,z
x,1/2-y,z
1/2+x,1/2+y,z
1/2-x,-y,z
1/2+x,1/2-y,-z
1/2-x,y,-z
1/2-x,1/2-y,-z
1/2+x,y,-z
1/2-x,1/2+y,z
1/2+x,-y,z
loop_
_atom_site_type_symbol
_atom_site_label
_atom_site_fract_x
_atom_site_fract_y
_atom_site_fract_z
Si Si1 0.708115 0.106697 0.102047
Si Si2 0.802425 0.449132 0.621313
Si Si3 0.602886 0.354386 0.431448
Si Si4 0.897532 0.187932 0.778390
Si Si5 0.098111 0.982787 0.199758
Si Si6 0.657361 0.900976 0.248820
Si Si7 0.899395 0.693374 0.624037
O O1 0.641179 0.150993 0.139599
O O2 0.663212 0.050180 0.132686
O O3 0.790326 0.121194 0.162993
O O4 0.750000 0.104031 0.000000
O O5 0.750000 0.500000 0.590320
O O6 0.849266 0.410131 0.551247
O O7 0.875608 0.463951 0.696364
O O8 0.730401 0.419432 0.679975
O O9 0.500000 0.360426 0.433341
O O10 0.625211 0.333282 0.326933
O O11 0.631078 0.318417 0.518421
O O12 0.872824 0.250000 0.786546
O O13 0.000000 0.184888 0.783356
O O14 0.000000 0.970309 0.177638
O O15 0.110652 0.046459 0.208656
O O16 0.610933 0.855084 0.304787
O O17 0.863594 0.750000 0.657717
O O18 0.000000 0.698367 0.613376
#
# Coordination Sequence:
#
# PCOD9500977 Si02
#       7
#    16  16  16  16  16  16  16
#     4  11  23  40  62  90 124 156 198 259 325 375
#     4   9  18  33  54  85 121 155 192 247 309 361
#     4  10  18  35  63  91 119 159 212 260 302 352
#     4  10  20  37  63  92 122 161 211 262 307 356
#     4  10  19  37  64  87 116 158 202 251 304 365
#     4  10  21  38  58  86 123 160 195 246 311 378
#     4  10  22  40  60  86 123 166 211 254 297 361
#
# _framework density 19.816746999999999
#
# number of rings (size 3 to 8) (size 9 to 14) (size 15 to 20)
#    0.000    2.000    2.857    3.000    0.000    4.286 
#    0.000   10.714    0.000    9.429    0.000    0.000 
#    0.000    0.000    0.000    0.000    0.000    0.000 
#
# Total GULP energy -311816.364943 kJ/mol
# GULP energy per Si atom -5568.149374 kJ/mol
# Density = 1.977164 g / cm^3
# Si number density = 19.816747 Si / 1000 Ang^3
#
#
#
# Elastic Constant Matrix: (Units=GPa)
#
#
# Indices 1 2 3 4 5 6 
#
# 1 58.3597 34.4017 34.2372 0.0000 0.0000 0.0000
# 2 34.4017 136.3867 47.7843 0.0000 0.0000 0.0000
# 3 34.2372 47.7843 104.5117 0.0000 0.0000 0.0000
# 4 0.0000 0.0000 0.0000 12.7712 0.0000 0.0000
# 5 0.0000 0.0000 0.0000 0.0000 31.5912 0.0000
# 6 0.0000 0.0000 0.0000 0.0000 0.0000 -1.4840
#
#
#
# Elastic Compliance Matrix: (Units=1/GPa)
#
#
# Indices 1 2 3 4 5 6 
#
# 1 0.022689 -0.003714 -0.005735 0.000000 0.000000 0.000000
# 2 -0.003714 0.009339 -0.003053 0.000000 0.000000 0.000000
# 3 -0.005735 -0.003053 0.012843 0.000000 0.000000 0.000000
# 4 0.000000 0.000000 0.000000 0.078301 0.000000 0.000000
# 5 0.000000 0.000000 0.000000 0.000000 0.031654 0.000000
# 6 0.000000 0.000000 0.000000 0.000000 0.000000 -0.673876
#
#
# Mechanical properties :
#
#
# Convention : Reuss Voigt Hill
#
# Bulk Modulus (GPa) = 50.33473 59.12274 54.72873
# Shear Modulus (GPa) = -10.25799 20.76466 5.25334
#
# Velocity S-wave (km/s) = -2.27764 3.24054 1.62994
# Velocity P-wave (km/s) = 4.30562 6.62578 5.58746
#
# Compressibility (1/GPa) = 0.01986700
#
# Stress axis : x y z
#
# Youngs Moduli (GPa) = 44.07513 107.08338 77.86427
#
# Poissons Ratio (x) = 0.39768 0.44652
# Poissons Ratio (y) = 0.16368 0.23773
# Poissons Ratio (z) = 0.25275 0.32694
#
# Static dielectric constant tensor:
#      x y z
#    x 1.700740 0.000000 0.000000 
#    y 0.000000 1.722500 0.000000 
#    z 0.000000 0.000000 1.794870 
# 
# From -- ./inp_files/27586.got.cif
#   From: 2010.05.17/outbox.cif.g08.bks.cpg/sg67_14_cif.got.tgz:27586.got - 2010.06.03 18:28:57.
