data_PCOD9500489
_publ_section_title
;
Structure prediction by ZEFSAII (Michael W. Deem and Ramdas Pophale) SiO2 
 PCOD9500489
Probable space group: C M M A
;
_chemical_formula_sum "Si O2"
_cell_formula_units_Z 104
_cell_length_a 8.600704
_cell_length_b 28.678487
_cell_length_c 24.129128
_cell_angle_alpha 90.000000
_cell_angle_beta 90.000000
_cell_angle_gamma 90.000000
_cell_volume 5951.574358
_symmetry_space_group_name_H-M "C M M A"
_symmetry_group_IT_number 67
_symmetry_cell_setting 'orthorhombic'
loop_
_space_group_symop_operation_xyz
x,y,z
-x,1/2-y,z
x,-y,-z
-x,1/2+y,-z
-x,-y,-z
x,1/2+y,-z
-x,y,z
x,1/2-y,z
1/2+x,1/2+y,z
1/2-x,-y,z
1/2+x,1/2-y,-z
1/2-x,y,-z
1/2-x,1/2-y,-z
1/2+x,y,-z
1/2-x,1/2+y,z
1/2+x,-y,z
loop_
_atom_site_type_symbol
_atom_site_label
_atom_site_fract_x
_atom_site_fract_y
_atom_site_fract_z
Si Si1 0.317768 0.051147 0.762105
Si Si2 0.684086 0.750000 0.437651
Si Si3 0.816591 0.120290 0.851359
Si Si4 0.183651 0.153585 0.561241
Si Si5 0.185111 0.049772 0.062331
Si Si6 0.311229 0.803729 0.765258
Si Si7 0.813296 0.116120 0.677175
O O1 0.500000 0.052446 0.776762
O O2 0.217963 0.082671 0.803672
O O3 0.285682 0.074790 0.703208
O O4 0.250000 0.000000 0.763451
O O5 0.500000 0.750000 0.437872
O O6 0.750000 0.750000 0.500000
O O7 0.748857 0.702080 0.415002
O O8 0.735621 0.095726 0.903711
O O9 0.762829 0.168622 0.821722
O O10 0.000000 0.124199 0.862543
O O11 0.250000 0.143591 0.500000
O O12 0.214333 0.118940 0.611579
O O13 0.000000 0.159420 0.554448
O O14 0.000000 0.046298 0.061651
O O15 0.250000 0.000000 0.085658
O O16 0.250000 0.053187 0.000000
O O17 0.500000 0.802421 0.766376
O O18 0.256410 0.750000 0.761555
O O19 0.271122 0.836991 0.712718
O O20 0.000000 0.109471 0.685523
#
# Coordination Sequence:
#
# PCOD9500489 Si02
#       7
#    16   8  16  16  16  16  16
#     4  11  21  34  53  75 102 131 165 207 254 301
#     4  10  18  28  42  62  90 122 160 198 237 286
#     4  10  19  33  52  77 107 137 174 210 249 299
#     4  10  19  31  48  69  96 130 165 205 250 305
#     4  11  21  34  52  77 108 140 173 210 257 304
#     4   8  15  29  51  75  98 129 169 210 248 293
#     4   9  19  33  51  74  99 129 168 206 251 306
#
# _framework density 17.474367000000001
#
# number of rings (size 3 to 8) (size 9 to 14) (size 15 to 20)
#    0.000    2.154    0.000    7.154    1.077    1.231 
#    0.000    0.000    0.000    9.231    0.000    3.231 
#    0.000    0.000    0.000    0.000    0.000    0.000 
#
# Total GULP energy -289690.548992 kJ/mol
# GULP energy per Si atom -5570.972096 kJ/mol
# Density = 1.743459 g / cm^3
# Si number density = 17.474367 Si / 1000 Ang^3
#
#
#
# Elastic Constant Matrix: (Units=GPa)
#
#
# Indices 1 2 3 4 5 6 
#
# 1 41.1898 -3.6290 16.2527 0.0000 0.0000 0.0000
# 2 -3.6290 66.4841 12.0837 0.0000 0.0000 0.0000
# 3 16.2527 12.0837 67.3096 0.0000 0.0000 0.0000
# 4 0.0000 0.0000 0.0000 14.6182 0.0000 0.0000
# 5 0.0000 0.0000 0.0000 0.0000 22.5036 0.0000
# 6 0.0000 0.0000 0.0000 0.0000 0.0000 12.5079
#
#
#
# Elastic Compliance Matrix: (Units=1/GPa)
#
#
# Indices 1 2 3 4 5 6 
#
# 1 0.027323 0.002781 -0.007097 0.000000 0.000000 0.000000
# 2 0.002781 0.015832 -0.003514 0.000000 0.000000 0.000000
# 3 -0.007097 -0.003514 0.017201 0.000000 0.000000 0.000000
# 4 0.000000 0.000000 0.000000 0.068408 0.000000 0.000000
# 5 0.000000 0.000000 0.000000 0.000000 0.044437 0.000000
# 6 0.000000 0.000000 0.000000 0.000000 0.000000 0.079950
#
#
# Mechanical properties :
#
#
# Convention : Reuss Voigt Hill
#
# Bulk Modulus (GPa) = 22.37267 24.93316 23.65291
# Shear Modulus (GPa) = 17.62373 19.94434 18.78403
#
# Velocity S-wave (km/s) = 3.17921 3.38205 3.28220
# Velocity P-wave (km/s) = 5.12908 5.43603 5.28478
#
# Compressibility (1/GPa) = 0.04469740
#
# Stress axis : x y z
#
# Youngs Moduli (GPa) = 36.59897 63.16461 58.13569
#
# Poissons Ratio (x) = -0.17568 0.41258
# Poissons Ratio (y) = -0.10179 0.20427
# Poissons Ratio (z) = 0.25974 0.22194
#
# Static dielectric constant tensor:
#      x y z
#    x 1.604560 0.000000 0.000000 
#    y 0.000000 1.670850 0.000000 
#    z 0.000000 0.000000 1.640050 
# 
# From -- ./inp_files/41025.got.cif
#   From: 2010.05.17/outbox.cif.g08.bks.cpg/sg67_21_cif.got.tgz:41025.got - 2010.06.03 18:28:57.
