data_PCOD9500896
_publ_section_title
;
Structure prediction by ZEFSAII (Michael W. Deem and Ramdas Pophale) SiO2 
 PCOD9500896
Probable space group: C M M A
;
_chemical_formula_sum "Si O2"
_cell_formula_units_Z 80
_cell_length_a 17.152034
_cell_length_b 21.927721
_cell_length_c 11.926894
_cell_angle_alpha 90.000000
_cell_angle_beta 90.000000
_cell_angle_gamma 90.000000
_cell_volume 4485.764660
_symmetry_space_group_name_H-M "C M M A"
_symmetry_group_IT_number 67
_symmetry_cell_setting 'orthorhombic'
loop_
_space_group_symop_operation_xyz
x,y,z
-x,1/2-y,z
x,-y,-z
-x,1/2+y,-z
-x,-y,-z
x,1/2+y,-z
-x,y,z
x,1/2-y,z
1/2+x,1/2+y,z
1/2-x,-y,z
1/2+x,1/2-y,-z
1/2-x,y,-z
1/2-x,1/2-y,-z
1/2+x,y,-z
1/2-x,1/2+y,z
1/2+x,-y,z
loop_
_atom_site_type_symbol
_atom_site_label
_atom_site_fract_x
_atom_site_fract_y
_atom_site_fract_z
Si Si1 0.771657 0.178334 0.871236
Si Si2 0.591186 0.485724 0.631831
Si Si3 0.311479 0.632485 0.336877
Si Si4 0.585626 0.386417 0.243223
Si Si5 0.348276 0.179203 0.436563
O O1 0.790024 0.250000 0.855368
O O2 0.701906 0.161403 0.784982
O O3 0.846129 0.137998 0.836147
O O4 0.750000 0.168310 0.000000
O O5 0.604747 0.500000 0.500000
O O6 0.500000 0.466086 0.641390
O O7 0.651951 0.434250 0.668946
O O8 0.600205 0.546401 0.706119
O O9 0.362096 0.666488 0.432707
O O10 0.225104 0.639372 0.391288
O O11 0.500000 0.385411 0.190088
O O12 0.585888 0.342165 0.352037
O O13 0.328533 0.250000 0.421786
#
# Coordination Sequence:
#
# PCOD9500896 Si02
#       5
#    16  16  16  16  16
#     4  10  22  40  59  80 110 148 191 237 277 323
#     4  10  20  35  53  80 117 150 178 220 280 342
#     4  10  18  33  53  76 109 145 182 223 279 327
#     4  10  20  36  57  84 113 144 185 228 278 338
#     4  10  19  30  50  82 113 139 176 232 285 335
#
# _framework density 17.834194
#
# number of rings (size 3 to 8) (size 9 to 14) (size 15 to 20)
#    0.000    2.000    2.000    4.200    0.000    4.800 
#    0.000    3.000    0.000    8.400    0.000    0.000 
#    0.000    0.000    0.000    0.000    0.000    0.000 
#
# Total GULP energy -222794.021986 kJ/mol
# GULP energy per Si atom -5569.850550 kJ/mol
# Density = 1.779360 g / cm^3
# Si number density = 17.834194 Si / 1000 Ang^3
#
#
#
# Elastic Constant Matrix: (Units=GPa)
#
#
# Indices 1 2 3 4 5 6 
#
# 1 69.9232 69.1477 30.8964 0.0000 0.0000 0.0000
# 2 69.1477 114.7337 44.2331 0.0000 0.0000 0.0000
# 3 30.8964 44.2331 119.9262 0.0000 0.0000 0.0000
# 4 0.0000 0.0000 0.0000 20.7163 0.0000 0.0000
# 5 0.0000 0.0000 0.0000 0.0000 13.0766 0.0000
# 6 0.0000 0.0000 0.0000 0.0000 0.0000 -3.7391
#
#
#
# Elastic Compliance Matrix: (Units=1/GPa)
#
#
# Indices 1 2 3 4 5 6 
#
# 1 0.035619 -0.020901 -0.001467 0.000000 0.000000 0.000000
# 2 -0.020901 0.022425 -0.002887 0.000000 0.000000 0.000000
# 3 -0.001467 -0.002887 0.009781 0.000000 0.000000 0.000000
# 4 0.000000 0.000000 0.000000 0.048271 0.000000 0.000000
# 5 0.000000 0.000000 0.000000 0.000000 0.076473 0.000000
# 6 0.000000 0.000000 0.000000 0.000000 0.000000 -0.267441
#
#
# Mechanical properties :
#
#
# Convention : Reuss Voigt Hill
#
# Bulk Modulus (GPa) = 57.75194 65.90418 61.82806
# Shear Modulus (GPa) = -268.97272 16.69781 -126.13746
#
# Velocity S-wave (km/s) = -12.29414 3.06319 -8.41911
# Velocity P-wave (km/s) = 13.00288 7.03881 7.73078
#
# Compressibility (1/GPa) = 0.01731544
#
# Stress axis : x y z
#
# Youngs Moduli (GPa) = 28.07466 44.59210 102.23730
#
# Poissons Ratio (x) = 0.93203 0.15002
# Poissons Ratio (y) = 0.58680 0.29511
# Poissons Ratio (z) = 0.04120 0.12872
#
# Static dielectric constant tensor:
#      x y z
#    x 1.651140 0.000000 0.000000 
#    y 0.000000 1.619970 0.000000 
#    z 0.000000 0.000000 1.629580 
# 
# From -- ./inp_files/17942.got.cif
#   From: 2010.05.17/outbox.cif.g08.bks.cpg/sg67_9_cif.got.tgz:17942.got - 2010.06.03 18:28:57.
