data_PCOD9500905
_publ_section_title
;
Structure prediction by ZEFSAII (Michael W. Deem and Ramdas Pophale) SiO2 
 PCOD9500905
Probable space group: C M M A
;
_chemical_formula_sum "Si O2"
_cell_formula_units_Z 64
_cell_length_a 15.678764
_cell_length_b 20.247367
_cell_length_c 10.290877
_cell_angle_alpha 90.000000
_cell_angle_beta 90.000000
_cell_angle_gamma 90.000000
_cell_volume 3266.876865
_symmetry_space_group_name_H-M "C M M A"
_symmetry_group_IT_number 67
_symmetry_cell_setting 'orthorhombic'
loop_
_space_group_symop_operation_xyz
x,y,z
-x,1/2-y,z
x,-y,-z
-x,1/2+y,-z
-x,-y,-z
x,1/2+y,-z
-x,y,z
x,1/2-y,z
1/2+x,1/2+y,z
1/2-x,-y,z
1/2+x,1/2-y,-z
1/2-x,y,-z
1/2-x,1/2-y,-z
1/2+x,y,-z
1/2-x,1/2+y,z
1/2+x,-y,z
loop_
_atom_site_type_symbol
_atom_site_label
_atom_site_fract_x
_atom_site_fract_y
_atom_site_fract_z
Si Si1 0.402976 0.906554 0.086059
Si Si2 0.397172 0.573016 0.554114
Si Si3 0.895727 0.825653 0.668519
Si Si4 0.661767 0.039719 0.172738
O O1 0.500000 0.888271 0.051904
O O2 0.368097 0.856462 0.193754
O O3 0.404087 0.978766 0.154592
O O4 0.349942 0.915781 0.954636
O O5 0.377275 0.500000 0.500000
O O6 0.500000 0.577573 0.568070
O O7 0.368781 0.627261 0.449621
O O8 0.355087 0.577915 0.695018
O O9 0.869583 0.750000 0.652651
O O10 0.000000 0.827911 0.670698
O O11 0.750000 0.000000 0.174364
#
# Coordination Sequence:
#
# PCOD9500905 Si02
#       4
#    16  16  16  16
#     4  10  18  33  55  78 105 140 182 226 274 323
#     4  10  18  33  55  81 107 140 183 229 275 320
#     4   9  18  33  55  82 111 143 183 229 276 327
#     4  11  21  32  50  81 113 139 176 230 277 322
#
# _framework density 19.590575000000001
#
# number of rings (size 3 to 8) (size 9 to 14) (size 15 to 20)
#    0.000    2.000    2.500    4.500    0.000    0.500 
#    0.000    1.250    0.000   12.000    0.000    0.000 
#    0.000    0.000    0.000    0.000    0.000    0.750 
#
# Total GULP energy -178669.960549 kJ/mol
# GULP energy per Si atom -5583.436267 kJ/mol
# Density = 1.954599 g / cm^3
# Si number density = 19.590575 Si / 1000 Ang^3
#
#
#
# Elastic Constant Matrix: (Units=GPa)
#
#
# Indices 1 2 3 4 5 6 
#
# 1 52.8958 18.6322 42.1000 0.0000 0.0000 0.0000
# 2 18.6322 134.4275 105.9097 0.0000 0.0000 0.0000
# 3 42.1000 105.9097 207.3956 0.0000 0.0000 0.0000
# 4 0.0000 0.0000 0.0000 30.0204 0.0000 0.0000
# 5 0.0000 0.0000 0.0000 0.0000 10.2372 0.0000
# 6 0.0000 0.0000 0.0000 0.0000 0.0000 8.9653
#
#
#
# Elastic Compliance Matrix: (Units=1/GPa)
#
#
# Indices 1 2 3 4 5 6 
#
# 1 0.022600 0.000806 -0.005000 0.000000 0.000000 0.000000
# 2 0.000806 0.012475 -0.006534 0.000000 0.000000 0.000000
# 3 -0.005000 -0.006534 0.009173 0.000000 0.000000 0.000000
# 4 0.000000 0.000000 0.000000 0.033311 0.000000 0.000000
# 5 0.000000 0.000000 0.000000 0.000000 0.097683 0.000000
# 6 0.000000 0.000000 0.000000 0.000000 0.000000 0.111541
#
#
# Mechanical properties :
#
#
# Convention : Reuss Voigt Hill
#
# Bulk Modulus (GPa) = 43.87119 80.88918 62.38019
# Shear Modulus (GPa) = 15.83095 25.04971 20.44033
#
# Velocity S-wave (km/s) = 2.84578 3.57972 3.23364
# Velocity P-wave (km/s) = 5.76546 7.64626 6.77148
#
# Compressibility (1/GPa) = 0.02279400
#
# Stress axis : x y z
#
# Youngs Moduli (GPa) = 44.24742 80.15788 109.00982
#
# Poissons Ratio (x) = -0.06464 0.54500
# Poissons Ratio (y) = -0.03568 0.71232
# Poissons Ratio (z) = 0.22122 0.52379
#
# Static dielectric constant tensor:
#      x y z
#    x 1.752420 0.000000 0.000000 
#    y 0.000000 1.662730 0.000000 
#    z 0.000000 0.000000 1.695000 
# 
# From -- ./inp_files/17488.got.cif
#   From: 2010.05.17/outbox.cif.g08.bks.cpg/sg67_9_cif.got.tgz:17488.got - 2010.06.03 18:28:57.
