data_PCOD9500525
_publ_section_title
;
Structure prediction by ZEFSAII (Michael W. Deem and Ramdas Pophale) SiO2 
 PCOD9500525
Probable space group: C M M A
;
_chemical_formula_sum "Si O2"
_cell_formula_units_Z 96
_cell_length_a 24.284202
_cell_length_b 19.025854
_cell_length_c 10.521172
_cell_angle_alpha 90.000000
_cell_angle_beta 90.000000
_cell_angle_gamma 90.000000
_cell_volume 4861.072709
_symmetry_space_group_name_H-M "C M M A"
_symmetry_group_IT_number 67
_symmetry_cell_setting 'orthorhombic'
loop_
_space_group_symop_operation_xyz
x,y,z
-x,1/2-y,z
x,-y,-z
-x,1/2+y,-z
-x,-y,-z
x,1/2+y,-z
-x,y,z
x,1/2-y,z
1/2+x,1/2+y,z
1/2-x,-y,z
1/2+x,1/2-y,-z
1/2-x,y,-z
1/2-x,1/2-y,-z
1/2+x,y,-z
1/2-x,1/2+y,z
1/2+x,-y,z
loop_
_atom_site_type_symbol
_atom_site_label
_atom_site_fract_x
_atom_site_fract_y
_atom_site_fract_z
Si Si1 0.308139 0.537633 0.333560
Si Si2 0.091336 0.576772 0.510019
Si Si3 0.365309 0.397412 0.254795
Si Si4 0.565225 0.164712 0.027538
Si Si5 0.747994 0.830824 0.655254
Si Si6 0.934826 0.827815 0.746833
O O1 0.250000 0.500000 0.360984
O O2 0.344967 0.562146 0.452166
O O3 0.344307 0.479281 0.258799
O O4 0.289483 0.613278 0.279885
O O5 0.064690 0.500000 0.500000
O O6 0.092163 0.610695 0.372317
O O7 0.071845 0.622881 0.626330
O O8 0.396018 0.373168 0.129000
O O9 0.312213 0.350769 0.291287
O O10 0.500000 0.147131 0.045227
O O11 0.569452 0.250000 0.037703
O O12 0.584232 0.145408 0.884191
O O13 0.761254 0.750000 0.681595
O O14 0.750000 0.839429 0.500000
O O15 0.911438 0.750000 0.720981
O O16 0.000000 0.820334 0.765906
#
# Coordination Sequence:
#
# PCOD9500525 Si02
#       6
#    16  16  16  16  16  16
#     4   9  19  33  52  76 115 157 185 225 285 346
#     4  10  20  33  54  85 115 147 188 235 287 344
#     4  10  19  31  56  86 117 148 192 241 292 339
#     4   9  19  38  60  82 112 151 193 240 293 350
#     4  10  18  28  49  85 119 151 194 236 285 347
#     4   9  20  39  60  80 111 156 195 230 290 363
#
# _framework density 19.748726999999999
#
# number of rings (size 3 to 8) (size 9 to 14) (size 15 to 20)
#    0.000    2.500    1.667    1.500    2.333    3.000 
#    0.000    7.500    0.000   15.000    0.000   10.500 
#    0.000    0.000    0.000    0.000    0.000    0.000 
#
# Total GULP energy -267260.900627 kJ/mol
# GULP energy per Si atom -5567.935430 kJ/mol
# Density = 1.970378 g / cm^3
# Si number density = 19.748727 Si / 1000 Ang^3
#
#
#
# Elastic Constant Matrix: (Units=GPa)
#
#
# Indices 1 2 3 4 5 6 
#
# 1 49.4938 29.5659 38.5982 0.0000 0.0000 0.0000
# 2 29.5659 124.0128 73.4745 0.0000 0.0000 0.0000
# 3 38.5982 73.4745 148.7569 0.0000 0.0000 0.0000
# 4 0.0000 0.0000 0.0000 10.2435 0.0000 0.0000
# 5 0.0000 0.0000 0.0000 0.0000 1.2289 0.0000
# 6 0.0000 0.0000 0.0000 0.0000 0.0000 15.6292
#
#
#
# Elastic Compliance Matrix: (Units=1/GPa)
#
#
# Indices 1 2 3 4 5 6 
#
# 1 0.026163 -0.003132 -0.005242 0.000000 0.000000 0.000000
# 2 -0.003132 0.011775 -0.005003 0.000000 0.000000 0.000000
# 3 -0.005242 -0.005003 0.010554 0.000000 0.000000 0.000000
# 4 0.000000 0.000000 0.000000 0.097623 0.000000 0.000000
# 5 0.000000 0.000000 0.000000 0.000000 0.813757 0.000000
# 6 0.000000 0.000000 0.000000 0.000000 0.000000 0.063983
#
#
# Mechanical properties :
#
#
# Convention : Reuss Voigt Hill
#
# Bulk Modulus (GPa) = 46.00253 67.28228 56.64241
# Shear Modulus (GPa) = 4.72655 17.46198 11.09427
#
# Velocity S-wave (km/s) = 1.54872 2.97679 2.37274
# Velocity P-wave (km/s) = 5.15195 6.77925 6.02083
#
# Compressibility (1/GPa) = 0.02173793
#
# Stress axis : x y z
#
# Youngs Moduli (GPa) = 38.22150 84.92868 94.75471
#
# Poissons Ratio (x) = 0.26600 0.49667
# Poissons Ratio (y) = 0.11971 0.47406
# Poissons Ratio (z) = 0.20034 0.42490
#
# Static dielectric constant tensor:
#      x y z
#    x 1.746650 0.000000 0.000000 
#    y 0.000000 1.911000 0.000000 
#    z 0.000000 0.000000 1.720920 
# 
# From -- ./inp_files/13689.got.cif
#   From: 2010.05.17/outbox.cif.g08.bks.cpg/sg67_7_cif.got.tgz:13689.got - 2010.06.03 18:28:57.
