data_PCOD9500911
_publ_section_title
;
Structure prediction by ZEFSAII (Michael W. Deem and Ramdas Pophale) SiO2 
 PCOD9500911
Probable space group: C M M A
;
_chemical_formula_sum "Si O2"
_cell_formula_units_Z 44
_cell_length_a 14.248400
_cell_length_b 20.244483
_cell_length_c 7.776807
_cell_angle_alpha 90.000000
_cell_angle_beta 90.000000
_cell_angle_gamma 90.000000
_cell_volume 2243.231579
_symmetry_space_group_name_H-M "C M M A"
_symmetry_group_IT_number 67
_symmetry_cell_setting 'orthorhombic'
loop_
_space_group_symop_operation_xyz
x,y,z
-x,1/2-y,z
x,-y,-z
-x,1/2+y,-z
-x,-y,-z
x,1/2+y,-z
-x,y,z
x,1/2-y,z
1/2+x,1/2+y,z
1/2-x,-y,z
1/2+x,1/2-y,-z
1/2-x,y,-z
1/2-x,1/2-y,-z
1/2+x,y,-z
1/2-x,1/2+y,z
1/2+x,-y,z
loop_
_atom_site_type_symbol
_atom_site_label
_atom_site_fract_x
_atom_site_fract_y
_atom_site_fract_z
Si Si1 0.000000 0.250000 0.546606
Si Si2 0.652557 0.387361 0.929337
Si Si3 0.109662 0.750000 0.783848
Si Si4 0.000000 0.880057 0.224915
Si Si5 0.000000 0.522636 0.798915
O O1 0.089348 0.250000 0.418853
O O2 0.000000 0.182634 0.652940
O O3 0.661456 0.315542 0.844416
O O4 0.593208 0.432509 0.795961
O O5 0.750000 0.414981 0.000000
O O6 0.588821 0.377224 0.098106
O O7 0.000000 0.750000 0.854874
O O8 0.000000 0.954285 0.305132
O O9 0.000000 0.500000 0.000000
#
# Coordination Sequence:
#
# PCOD9500911 Si02
#       5
#     4  16   8   8   8
#     4  10  20  36  54  72 116 152 182 224 262 328
#     4  10  18  33  56  80 103 139 182 232 276 320
#     4  10  18  34  53  74 110 144 177 219 268 315
#     4  10  19  33  53  79 106 145 182 224 279 326
#     4   8  17  30  50  80 106 130 174 226 276 320
#
# _framework density 19.614560999999998
#
# number of rings (size 3 to 8) (size 9 to 14) (size 15 to 20)
#    0.545    2.182    3.636    1.636    0.000    6.545 
#    0.000    7.273    0.000    0.000    0.000   30.545 
#    0.000    0.000    0.000    0.000    0.000    0.000 
#
# Total GULP energy -122478.353370 kJ/mol
# GULP energy per Si atom -5567.197880 kJ/mol
# Density = 1.956992 g / cm^3
# Si number density = 19.614561 Si / 1000 Ang^3
#
#
#
# Elastic Constant Matrix: (Units=GPa)
#
#
# Indices 1 2 3 4 5 6 
#
# 1 99.5224 25.4035 23.0633 0.0000 0.0000 0.0000
# 2 25.4035 186.8315 41.9943 0.0000 0.0000 0.0000
# 3 23.0633 41.9943 39.8175 0.0000 0.0000 0.0000
# 4 0.0000 0.0000 0.0000 0.9465 0.0000 0.0000
# 5 0.0000 0.0000 0.0000 0.0000 8.1424 0.0000
# 6 0.0000 0.0000 0.0000 0.0000 0.0000 -21.4069
#
#
#
# Elastic Compliance Matrix: (Units=1/GPa)
#
#
# Indices 1 2 3 4 5 6 
#
# 1 0.011607 -0.000088 -0.006630 0.000000 0.000000 0.000000
# 2 -0.000088 0.007016 -0.007349 0.000000 0.000000 0.000000
# 3 -0.006630 -0.007349 0.036706 0.000000 0.000000 0.000000
# 4 0.000000 0.000000 0.000000 1.056515 0.000000 0.000000
# 5 0.000000 0.000000 0.000000 0.000000 0.122814 0.000000
# 6 0.000000 0.000000 0.000000 0.000000 0.000000 -0.046714
#
#
# Mechanical properties :
#
#
# Convention : Reuss Voigt Hill
#
# Bulk Modulus (GPa) = 36.77196 56.34373 46.55785
# Shear Modulus (GPa) = 4.08116 13.25043 8.66579
#
# Velocity S-wave (km/s) = 1.44402 2.60194 2.10419
# Velocity P-wave (km/s) = 4.64416 6.14936 5.44898
#
# Compressibility (1/GPa) = 0.02719463
#
# Stress axis : x y z
#
# Youngs Moduli (GPa) = 86.15536 142.52782 27.24373
#
# Poissons Ratio (x) = 0.01253 0.18064
# Poissons Ratio (y) = 0.00757 0.20021
# Poissons Ratio (z) = 0.57124 1.04741
#
# Static dielectric constant tensor:
#      x y z
#    x 1.757590 0.000000 0.000000 
#    y 0.000000 1.766880 0.000000 
#    z 0.000000 0.000000 1.675300 
# 
# From -- ./inp_files/7530.got.cif
#   From: 2010.05.17/outbox.cif.g08.bks.cpg/sg67_4_cif.got.tgz:7530.got - 2010.06.03 18:28:57.
