data_PCOD9500034
_publ_section_title
;
Structure prediction by ZEFSAII (Michael W. Deem and Ramdas Pophale) SiO2 
 PCOD9500034
Probable space group: C C C M
;
_chemical_formula_sum "Si O2"
_cell_formula_units_Z 80
_cell_length_a 27.271759
_cell_length_b 13.760403
_cell_length_c 10.070693
_cell_angle_alpha 90.000000
_cell_angle_beta 90.000000
_cell_angle_gamma 90.000000
_cell_volume 3779.232934
_symmetry_space_group_name_H-M "C C C M"
_symmetry_group_IT_number 66
_symmetry_cell_setting 'orthorhombic'
loop_
_space_group_symop_operation_xyz
x,y,z
-x,-y,z
x,-y,1/2-z
-x,y,1/2-z
-x,-y,-z
x,y,-z
-x,y,1/2+z
x,-y,1/2+z
1/2+x,1/2+y,z
1/2-x,1/2-y,z
1/2+x,1/2-y,1/2-z
1/2-x,1/2+y,1/2-z
1/2-x,1/2-y,-z
1/2+x,1/2+y,-z
1/2-x,1/2+y,1/2+z
1/2+x,1/2-y,1/2+z
loop_
_atom_site_type_symbol
_atom_site_label
_atom_site_fract_x
_atom_site_fract_y
_atom_site_fract_z
Si Si1 0.240818 0.633138 0.150707
Si Si2 0.955366 0.689921 0.158363
Si Si3 0.155493 0.645247 0.349269
Si Si4 0.821742 0.876484 0.143596
Si Si5 0.565153 0.583183 0.849990
O O1 0.250000 0.750000 0.145636
O O2 0.192549 0.609298 0.236606
O O3 0.287836 0.599139 0.233151
O O4 0.237569 0.598849 0.000000
O O5 0.902387 0.640496 0.184401
O O6 0.948530 0.805886 0.185793
O O7 0.000000 0.654724 0.250000
O O8 0.965179 0.680047 0.000000
O O9 0.162848 0.607200 0.500000
O O10 0.168497 0.760335 0.355807
O O11 0.875670 0.920317 0.147863
O O12 0.798333 0.898974 0.000000
O O13 0.549497 0.500000 0.750000
O O14 0.547836 0.566053 0.000000
#
# Coordination Sequence:
#
# PCOD9500034 Si02
#       5
#    16  16  16  16  16
#     4   9  15  21  33  55  75  87 105 136 173 212
#     4   9  18  30  41  53  69  92 124 159 193 226
#     4   8  14  25  38  50  67  91 115 139 173 219
#     4   8  14  25  38  50  67  91 115 139 173 219
#     4   9  18  30  41  53  69  92 124 159 193 226
#
# _framework density 21.168316000000001
#
# number of rings (size 3 to 8) (size 9 to 14) (size 15 to 20)
#    0.000    3.400    0.000    3.000    0.000    5.200 
#    0.000    6.000    0.000    0.000    0.000    0.000 
#    0.000    0.000    0.000    0.000    0.000    1.000 
#
# Total GULP energy -223148.872385 kJ/mol
# GULP energy per Si atom -5578.721810 kJ/mol
# Density = 2.112014 g / cm^3
# Si number density = 21.168316 Si / 1000 Ang^3
#
#
#
# Elastic Constant Matrix: (Units=GPa)
#
#
# Indices 1 2 3 4 5 6 
#
# 1 167.7649 1.9235 97.4985 0.0000 0.0000 0.0000
# 2 1.9235 38.9949 1.9426 0.0000 0.0000 0.0000
# 3 97.4985 1.9426 135.7020 0.0000 0.0000 0.0000
# 4 0.0000 0.0000 0.0000 -36.3381 0.0000 0.0000
# 5 0.0000 0.0000 0.0000 0.0000 47.4433 0.0000
# 6 0.0000 0.0000 0.0000 0.0000 0.0000 -1.7270
#
#
#
# Elastic Compliance Matrix: (Units=1/GPa)
#
#
# Indices 1 2 3 4 5 6 
#
# 1 0.010235 -0.000139 -0.007351 0.000000 0.000000 0.000000
# 2 -0.000139 0.025665 -0.000268 0.000000 0.000000 0.000000
# 3 -0.007351 -0.000268 0.012655 0.000000 0.000000 0.000000
# 4 0.000000 0.000000 0.000000 -0.027519 0.000000 0.000000
# 5 0.000000 0.000000 0.000000 0.000000 0.021078 0.000000
# 6 0.000000 0.000000 0.000000 0.000000 0.000000 -0.579033
#
#
# Mechanical properties :
#
#
# Convention : Reuss Voigt Hill
#
# Bulk Modulus (GPa) = 30.26786 60.57677 45.42232
# Shear Modulus (GPa) = -9.79638 17.94879 4.07621
#
# Velocity S-wave (km/s) = -2.15358 2.91505 1.38917
# Velocity P-wave (km/s) = 2.85409 6.32525 4.90687
#
# Compressibility (1/GPa) = 0.03303834
#
# Stress axis : x y z
#
# Youngs Moduli (GPa) = 97.70748 38.96424 79.02213
#
# Poissons Ratio (x) = 0.00540 0.58092
# Poissons Ratio (y) = 0.01354 0.02116
# Poissons Ratio (z) = 0.71828 0.01044
#
# Static dielectric constant tensor:
#      x y z
#    x 1.754450 0.000000 0.000000 
#    y 0.000000 1.781100 0.000000 
#    z 0.000000 0.000000 1.755190 
# 
# From -- ./inp_files/6703.got.cif
#   From: 2010.05.17/outbox.cif.g08.bks.cpg/sg66_4_cif.got.tgz:6703.got - 2010.06.03 17:51:23.
