data_PCOD9500922
_publ_section_title
;
Structure prediction by ZEFSAII (Michael W. Deem and Ramdas Pophale) SiO2 
 PCOD9500922
Probable space group: C M M A
;
_chemical_formula_sum "Si O2"
_cell_formula_units_Z 88
_cell_length_a 23.753364
_cell_length_b 15.010074
_cell_length_c 11.319766
_cell_angle_alpha 90.000000
_cell_angle_beta 90.000000
_cell_angle_gamma 90.000000
_cell_volume 4035.946555
_symmetry_space_group_name_H-M "C M M A"
_symmetry_group_IT_number 67
_symmetry_cell_setting 'orthorhombic'
loop_
_space_group_symop_operation_xyz
x,y,z
-x,1/2-y,z
x,-y,-z
-x,1/2+y,-z
-x,-y,-z
x,1/2+y,-z
-x,y,z
x,1/2-y,z
1/2+x,1/2+y,z
1/2-x,-y,z
1/2+x,1/2-y,-z
1/2-x,y,-z
1/2-x,1/2-y,-z
1/2+x,y,-z
1/2-x,1/2+y,z
1/2+x,-y,z
loop_
_atom_site_type_symbol
_atom_site_label
_atom_site_fract_x
_atom_site_fract_y
_atom_site_fract_z
Si Si1 0.770283 0.750000 0.868570
Si Si2 0.754836 0.896884 0.686254
Si Si3 0.844782 0.146271 0.502391
Si Si4 0.064601 0.250000 0.819341
Si Si5 0.101503 0.750000 0.923403
Si Si6 0.433381 0.450940 0.880379
Si Si7 0.566208 0.070292 0.334551
O O1 0.750005 0.836470 0.799800
O O2 0.837317 0.750000 0.867913
O O3 0.750000 0.750000 0.000000
O O4 0.813677 0.879807 0.618379
O O5 0.704692 0.868091 0.598621
O O6 0.750000 0.000000 0.712237
O O7 0.860496 0.250000 0.496830
O O8 0.896837 0.088972 0.549652
O O9 0.071301 0.337760 0.740753
O O10 0.000000 0.250000 0.865824
O O11 0.103464 0.250000 0.933792
O O12 0.074151 0.655339 0.888084
O O13 0.500000 0.470874 0.879109
O O14 0.412624 0.494792 0.757568
O O15 0.410730 0.500000 0.000000
O O16 0.500000 0.056465 0.361991
#
# Coordination Sequence:
#
# PCOD9500922 Si02
#       7
#     8  16  16   8   8  16  16
#     4  12  30  48  66 108 146 171 230 296 362 427
#     4  11  25  49  74 100 132 186 238 285 352 422
#     4  11  20  40  77 100 135 178 238 298 339 409
#     4  10  18  33  57  91 133 184 231 273 341 422
#     4  12  24  38  61  88 136 195 229 292 359 422
#     4  10  20  36  60  93 137 190 243 285 342 429
#     4  10  21  34  61 106 143 177 232 296 354 422
#
# _framework density 21.804055000000002
#
# number of rings (size 3 to 8) (size 9 to 14) (size 15 to 20)
#    0.000    1.273    4.545    2.455    5.091    0.364 
#    0.000    0.000    0.000    5.455    0.000    0.000 
#    0.000    0.000    0.000    0.000    0.000    0.000 
#
# Total GULP energy -246122.163451 kJ/mol
# GULP energy per Si atom -5593.685533 kJ/mol
# Density = 2.175443 g / cm^3
# Si number density = 21.804055 Si / 1000 Ang^3
#
#
#
# Elastic Constant Matrix: (Units=GPa)
#
#
# Indices 1 2 3 4 5 6 
#
# 1 57.4206 21.8021 28.0937 0.0000 0.0000 0.0000
# 2 21.8021 177.9559 79.5659 0.0000 0.0000 0.0000
# 3 28.0937 79.5659 108.6687 0.0000 0.0000 0.0000
# 4 0.0000 0.0000 0.0000 14.3586 0.0000 0.0000
# 5 0.0000 0.0000 0.0000 0.0000 29.4289 0.0000
# 6 0.0000 0.0000 0.0000 0.0000 0.0000 27.2323
#
#
#
# Elastic Compliance Matrix: (Units=1/GPa)
#
#
# Indices 1 2 3 4 5 6 
#
# 1 0.019942 -0.000205 -0.005005 0.000000 0.000000 0.000000
# 2 -0.000205 0.008356 -0.006065 0.000000 0.000000 0.000000
# 3 -0.005005 -0.006065 0.014937 0.000000 0.000000 0.000000
# 4 0.000000 0.000000 0.000000 0.069645 0.000000 0.000000
# 5 0.000000 0.000000 0.000000 0.000000 0.033980 0.000000
# 6 0.000000 0.000000 0.000000 0.000000 0.000000 0.036721
#
#
# Mechanical properties :
#
#
# Convention : Reuss Voigt Hill
#
# Bulk Modulus (GPa) = 48.34659 66.99651 57.67155
# Shear Modulus (GPa) = 23.47103 28.50952 25.99027
#
# Velocity S-wave (km/s) = 3.28449 3.61991 3.45627
# Velocity P-wave (km/s) = 6.05022 6.94730 6.51422
#
# Compressibility (1/GPa) = 0.02068398
#
# Stress axis : x y z
#
# Youngs Moduli (GPa) = 50.14493 119.66850 66.94664
#
# Poissons Ratio (x) = 0.02457 0.33509
# Poissons Ratio (y) = 0.01029 0.40606
# Poissons Ratio (z) = 0.25099 0.72584
#
# Static dielectric constant tensor:
#      x y z
#    x 1.804720 0.000000 0.000000 
#    y 0.000000 1.779230 0.000000 
#    z 0.000000 0.000000 1.806930 
# 
# From -- ./inp_files/21817.got.cif
#   From: 2010.05.17/outbox.cif.g08.bks.cpg/sg67_11_cif.got.tgz:21817.got - 2010.06.03 18:28:57.
