data_PCOD9500471
_publ_section_title
;
Structure prediction by ZEFSAII (Michael W. Deem and Ramdas Pophale) SiO2 
 PCOD9500471
Probable space group: C M M A
;
_chemical_formula_sum "Si O2"
_cell_formula_units_Z 116
_cell_length_a 14.628170
_cell_length_b 14.980952
_cell_length_c 26.756022
_cell_angle_alpha 90.000000
_cell_angle_beta 90.000000
_cell_angle_gamma 90.000000
_cell_volume 5863.419347
_symmetry_space_group_name_H-M "C M M A"
_symmetry_group_IT_number 67
_symmetry_cell_setting 'orthorhombic'
loop_
_space_group_symop_operation_xyz
x,y,z
-x,1/2-y,z
x,-y,-z
-x,1/2+y,-z
-x,-y,-z
x,1/2+y,-z
-x,y,z
x,1/2-y,z
1/2+x,1/2+y,z
1/2-x,-y,z
1/2+x,1/2-y,-z
1/2-x,y,-z
1/2-x,1/2-y,-z
1/2+x,y,-z
1/2-x,1/2+y,z
1/2+x,-y,z
loop_
_atom_site_type_symbol
_atom_site_label
_atom_site_fract_x
_atom_site_fract_y
_atom_site_fract_z
Si Si1 0.360110 0.500000 0.906884
Si Si2 0.639187 0.647932 0.824600
Si Si3 0.641920 0.000000 0.749077
Si Si4 0.139187 0.647932 0.824600
Si Si5 0.388687 0.647606 0.444335
Si Si6 0.890335 0.500000 0.631714
Si Si7 0.888687 0.852394 0.444335
Si Si8 0.000000 0.000000 0.000000
O O1 0.250000 0.500000 0.915833
O O2 0.381928 0.587144 0.872879
O O3 0.381928 0.412856 0.872879
O O4 0.420080 0.500000 0.956126
O O5 0.606316 0.750000 0.826074
O O6 0.607351 0.589003 0.777121
O O7 0.750000 0.652591 0.822554
O O8 0.630180 0.000000 0.690024
O O9 0.750000 0.000000 0.758835
O O10 0.607351 0.089003 0.777121
O O11 0.106316 0.750000 0.826074
O O12 0.500000 0.646764 0.444108
O O13 0.360318 0.750000 0.438461
O O14 0.357389 0.585503 0.399435
O O15 0.361487 0.616522 0.500000
O O16 0.857389 0.414497 0.600565
O O17 0.000000 0.500000 0.628201
O O18 0.860318 0.750000 0.438460
O O19 0.000000 0.853237 0.444108
#
# Coordination Sequence:
#
# PCOD9500471 Si02
#       8
#    16  16  16  16  16  16  16   4
#     4   9  19  36  57  81 110 146 181 214 259 307
#     4   8  15  33  58  75  94 133 179 213 244 293
#     4   9  18  31  48  72  97 125 163 203 251 306
#     4   8  15  33  58  75  94 133 179 213 244 293
#     4   8  14  25  41  60  83 115 155 195 237 291
#     4  10  18  27  42  66  93 116 147 197 250 295
#     4   8  14  25  41  60  83 115 155 195 237 291
#     4  12  22  36  58  86 124 146 170 224 264 298
#
# _framework density 19.783677999999998
#
# number of rings (size 3 to 8) (size 9 to 14) (size 15 to 20)
#    0.000    3.310    0.000    3.103    0.000    2.759 
#    4.966    2.069    0.000    4.966    0.000    1.931 
#    0.000    0.000    0.000    0.000    0.000    0.000 
#
# Total GULP energy -322873.131636 kJ/mol
# GULP energy per Si atom -5566.778132 kJ/mol
# Density = 1.973865 g / cm^3
# Si number density = 19.783678 Si / 1000 Ang^3
#
#
#
# Elastic Constant Matrix: (Units=GPa)
#
#
# Indices 1 2 3 4 5 6 
#
# 1 87.3371 22.9658 29.1242 0.0000 0.0000 0.0000
# 2 22.9658 184.7138 121.2121 0.0000 0.0000 0.0000
# 3 29.1242 121.2121 218.9296 0.0000 0.0000 0.0000
# 4 0.0000 0.0000 0.0000 -1.4635 0.0000 0.0000
# 5 0.0000 0.0000 0.0000 0.0000 25.0610 0.0000
# 6 0.0000 0.0000 0.0000 0.0000 0.0000 -9.7902
#
#
#
# Elastic Compliance Matrix: (Units=1/GPa)
#
#
# Indices 1 2 3 4 5 6 
#
# 1 0.012039 -0.000700 -0.001214 0.000000 0.000000 0.000000
# 2 -0.000700 0.008544 -0.004637 0.000000 0.000000 0.000000
# 3 -0.001214 -0.004637 0.007297 0.000000 0.000000 0.000000
# 4 0.000000 0.000000 0.000000 -0.683317 0.000000 0.000000
# 5 0.000000 0.000000 0.000000 0.000000 0.039903 0.000000
# 6 0.000000 0.000000 0.000000 0.000000 0.000000 -0.102142
#
#
# Mechanical properties :
#
#
# Convention : Reuss Voigt Hill
#
# Bulk Modulus (GPa) = 67.67444 93.06497 80.36971
# Shear Modulus (GPa) = -7.14644 23.94000 8.39678
#
# Velocity S-wave (km/s) = -1.90266 3.48241 2.06240
# Velocity P-wave (km/s) = 5.42721 7.95694 6.81056
#
# Compressibility (1/GPa) = 0.01477663
#
# Stress axis : x y z
#
# Youngs Moduli (GPa) = 83.06473 117.04305 137.05046
#
# Poissons Ratio (x) = 0.08196 0.16635
# Poissons Ratio (y) = 0.05817 0.63553
# Poissons Ratio (z) = 0.10082 0.54275
#
# Static dielectric constant tensor:
#      x y z
#    x 1.789460 0.000000 0.000000 
#    y 0.000000 1.696620 0.000000 
#    z 0.000000 0.000000 1.657810 
# 
# From -- ./inp_files/42221.got.cif
#   From: 2010.05.17/outbox.cif.g08.bks.cpg/sg67_22_cif.got.tgz:42221.got - 2010.06.03 18:28:57.
