data_PCOD9500145
_publ_section_title
;
Structure prediction by ZEFSAII (Michael W. Deem and Ramdas Pophale) SiO2 
 PCOD9500145
Probable space group: C C C M
;
_chemical_formula_sum "Si O2"
_cell_formula_units_Z 36
_cell_length_a 9.000000
_cell_length_b 27.000000
_cell_length_c 15.000000
_cell_angle_alpha 90.000000
_cell_angle_beta 90.000000
_cell_angle_gamma 90.000000
_cell_volume 3645.000000
_symmetry_space_group_name_H-M "C C C M"
_symmetry_group_IT_number 66
_symmetry_cell_setting 'orthorhombic'
loop_
_space_group_symop_operation_xyz
x,y,z
-x,-y,z
x,-y,1/2-z
-x,y,1/2-z
-x,-y,-z
x,y,-z
-x,y,1/2+z
x,-y,1/2+z
1/2+x,1/2+y,z
1/2-x,1/2-y,z
1/2+x,1/2-y,1/2-z
1/2-x,1/2+y,1/2-z
1/2-x,1/2-y,-z
1/2+x,1/2+y,-z
1/2-x,1/2+y,1/2+z
1/2+x,1/2-y,1/2+z
loop_
_atom_site_type_symbol
_atom_site_label
_atom_site_fract_x
_atom_site_fract_y
_atom_site_fract_z
Si Si1 0.949419 0.443084 0.351136
Si Si2 0.950137 0.056976 0.000000
Si Si3 0.615791 0.597557 0.169839
Si Si4 0.366456 0.704632 0.000000
Si Si5 0.102008 0.214077 0.164858
Si Si6 0.851400 0.605258 0.500000
O O1 0.771178 0.432286 0.345962
O O2 0.000000 0.500000 0.375291
O O3 0.000000 0.435430 0.250000
O O4 0.039238 0.405160 0.415734
O O5 0.773113 0.062277 0.000000
O O6 0.017755 0.085384 0.083959
O O7 0.000000 0.000000 0.000000
O O8 0.500000 0.584252 0.250000
O O9 0.651861 0.656389 0.178719
O O10 0.250000 0.750000 0.000000
O O11 0.481725 0.710163 0.083525
O O12 0.254973 0.655324 0.000000
O O13 0.250000 0.250000 0.153332
O O14 0.000000 0.229444 0.250000
#
# Coordination Sequence:
#
# PCOD9500145 Si02
#       6
#    16   8  16   8  16   8
#     4  11  25  43  68 103 138 184 235 286 348 406
#     4  12  23  41  68  96 134 186 232 281 338 404
#     4  11  24  44  69 100 139 182 234 284 344 416
#     4  12  27  45  70 108 140 184 235 284 355 421
#     4  11  25  46  73 103 141 183 238 290 353 416
#     4  12  24  44  68 101 146 180 227 287 346 417
#
# _framework density 9.8765429999999999
#
# number of rings (size 3 to 8) (size 9 to 14) (size 15 to 20)
#    0.000    0.667    2.222    4.667    6.222    3.111 
#    0.000    0.000    0.000    0.000    0.000    0.000 
#    0.000    0.000    0.000    0.000    0.000    0.000 
#
# Total GULP energy -200856.723355 kJ/mol
# GULP energy per Si atom -5579.353427 kJ/mol
# Density = 0.985406 g / cm^3
# Si number density = 9.876543 Si / 1000 Ang^3
#
#
#
# Elastic Constant Matrix: (Units=GPa)
#
#
# Indices 1 2 3 4 5 6 
#
# 1 194.6652 51.9612 66.1738 0.0000 0.0000 0.0000
# 2 51.9612 115.4437 25.6580 0.0000 0.0000 0.0000
# 3 66.1738 25.6580 164.9575 0.0000 0.0000 0.0000
# 4 0.0000 0.0000 0.0000 19.0801 0.0000 0.0000
# 5 0.0000 0.0000 0.0000 0.0000 47.7450 0.0000
# 6 0.0000 0.0000 0.0000 0.0000 0.0000 55.3230
#
#
#
# Elastic Compliance Matrix: (Units=1/GPa)
#
#
# Indices 1 2 3 4 5 6 
#
# 1 0.006556 -0.002451 -0.002249 0.000000 0.000000 0.000000
# 2 -0.002451 0.009889 -0.000555 0.000000 0.000000 0.000000
# 3 -0.002249 -0.000555 0.007051 0.000000 0.000000 0.000000
# 4 0.000000 0.000000 0.000000 0.052411 0.000000 0.000000
# 5 0.000000 0.000000 0.000000 0.000000 0.020945 0.000000
# 6 0.000000 0.000000 0.000000 0.000000 0.000000 0.018076
#
#
# Mechanical properties :
#
#
# Convention : Reuss Voigt Hill
#
# Bulk Modulus (GPa) = 77.00618 84.73918 80.87268
# Shear Modulus (GPa) = 38.53168 46.51451 42.52310
#
# Velocity S-wave (km/s) = 4.42143 4.85789 4.64479
# Velocity P-wave (km/s) = 8.07059 8.62889 8.35440
#
# Compressibility (1/GPa) = 0.01298597
#
# Stress axis : x y z
#
# Youngs Moduli (GPa) = 152.54075 101.12530 141.83342
#
# Poissons Ratio (x) = 0.24785 0.31893
# Poissons Ratio (y) = 0.37387 0.07871
# Poissons Ratio (z) = 0.34300 0.05612
#
# Static dielectric constant tensor:
#      x y z
#    x 1.690890 0.000000 0.000000 
#    y 0.000000 1.735160 0.000000 
#    z 0.000000 0.000000 1.690630 
# 
# From -- ./inp_files/24530.got.cif
#   From: 2010.05.17/outbox.ucp.g08.bks.cvg/sg66_13_cif.got.tgz:24530.got - 2010.06.11 16:44:13.
