data_PCOD9500336
_publ_section_title
;
Structure prediction by ZEFSAII (Michael W. Deem and Ramdas Pophale) SiO2 
 PCOD9500336
Probable space group: C M M A
;
_chemical_formula_sum "Si O2"
_cell_formula_units_Z 88
_cell_length_a 8.647120
_cell_length_b 16.304493
_cell_length_c 31.524127
_cell_angle_alpha 90.000000
_cell_angle_beta 90.000000
_cell_angle_gamma 90.000000
_cell_volume 4444.489178
_symmetry_space_group_name_H-M "C M M A"
_symmetry_group_IT_number 67
_symmetry_cell_setting 'orthorhombic'
loop_
_space_group_symop_operation_xyz
x,y,z
-x,1/2-y,z
x,-y,-z
-x,1/2+y,-z
-x,-y,-z
x,1/2+y,-z
-x,y,z
x,1/2-y,z
1/2+x,1/2+y,z
1/2-x,-y,z
1/2+x,1/2-y,-z
1/2-x,y,-z
1/2-x,1/2-y,-z
1/2+x,y,-z
1/2-x,1/2+y,z
1/2+x,-y,z
loop_
_atom_site_type_symbol
_atom_site_label
_atom_site_fract_x
_atom_site_fract_y
_atom_site_fract_z
Si Si1 0.815119 0.593866 0.456399
Si Si2 0.326464 0.653430 0.277635
Si Si3 0.314722 0.593313 0.103672
Si Si4 0.682267 0.090624 0.193129
Si Si5 0.687063 0.750000 0.047492
Si Si6 0.813731 0.092112 0.369529
O O1 0.750000 0.500000 0.456017
O O2 0.750000 0.631488 0.500000
O O3 0.755638 0.631837 0.412226
O O4 0.000000 0.591475 0.457342
O O5 0.500000 0.616620 0.271681
O O6 0.341617 0.750000 0.278912
O O7 0.223576 0.632642 0.237302
O O8 0.267851 0.627640 0.323908
O O9 0.500000 0.586815 0.102518
O O10 0.250000 0.500000 0.096713
O O11 0.262572 0.623215 0.150459
O O12 0.265002 0.665372 0.071306
O O13 0.500000 0.089190 0.186163
O O14 0.750000 0.000000 0.197479
O O15 0.500000 0.750000 0.047249
O O16 0.750000 0.750000 0.000000
O O17 0.000000 0.093758 0.372617
O O18 0.750000 0.000000 0.368887
#
# Coordination Sequence:
#
# PCOD9500336 Si02
#       6
#    16  16  16  16   8  16
#     4  10  17  27  45  70  99 128 164 213 266 320
#     4  10  22  38  55  77 109 148 184 226 279 335
#     4  10  21  40  63  91 123 163 205 252 306 362
#     4  11  22  37  59  87 115 149 191 238 287 341
#     4  10  24  42  64  92 126 166 208 252 307 362
#     4  10  19  32  51  74 101 135 174 216 267 325
#
# _framework density 19.799800999999999
#
# number of rings (size 3 to 8) (size 9 to 14) (size 15 to 20)
#    0.000    1.818    0.000    7.636    1.273    5.091 
#    0.000    1.818    0.000    0.545    0.000    0.000 
#    0.000    0.000    0.000    0.000    0.000    0.000 
#
# Total GULP energy -245441.278961 kJ/mol
# GULP energy per Si atom -5578.210885 kJ/mol
# Density = 1.975474 g / cm^3
# Si number density = 19.799801 Si / 1000 Ang^3
#
#
#
# Elastic Constant Matrix: (Units=GPa)
#
#
# Indices 1 2 3 4 5 6 
#
# 1 90.5390 27.4733 56.0076 0.0000 0.0000 0.0000
# 2 27.4733 51.8147 70.1032 0.0000 0.0000 0.0000
# 3 56.0076 70.1032 198.8588 0.0000 0.0000 0.0000
# 4 0.0000 0.0000 0.0000 -22.9054 0.0000 0.0000
# 5 0.0000 0.0000 0.0000 0.0000 96.1468 0.0000
# 6 0.0000 0.0000 0.0000 0.0000 0.0000 11.5866
#
#
#
# Elastic Compliance Matrix: (Units=1/GPa)
#
#
# Indices 1 2 3 4 5 6 
#
# 1 0.013782 -0.003930 -0.002496 0.000000 0.000000 0.000000
# 2 -0.003930 0.038019 -0.012296 0.000000 0.000000 0.000000
# 3 -0.002496 -0.012296 0.010066 0.000000 0.000000 0.000000
# 4 0.000000 0.000000 0.000000 -0.043658 0.000000 0.000000
# 5 0.000000 0.000000 0.000000 0.000000 0.010401 0.000000
# 6 0.000000 0.000000 0.000000 0.000000 0.000000 0.086306
#
#
# Mechanical properties :
#
#
# Convention : Reuss Voigt Hill
#
# Bulk Modulus (GPa) = 40.94530 72.04229 56.49379
# Shear Modulus (GPa) = 31.15223 29.47416 30.31320
#
# Velocity S-wave (km/s) = 3.97086 3.86244 3.91703
# Velocity P-wave (km/s) = 6.46129 7.50703 7.00371
#
# Compressibility (1/GPa) = 0.02442283
#
# Stress axis : x y z
#
# Youngs Moduli (GPa) = 72.56054 26.30235 99.34129
#
# Poissons Ratio (x) = 0.10338 0.24795
# Poissons Ratio (y) = 0.28519 1.22149
# Poissons Ratio (z) = 0.18111 0.32341
#
# Static dielectric constant tensor:
#      x y z
#    x 1.705790 0.000000 0.000000 
#    y 0.000000 1.680930 0.000000 
#    z 0.000000 0.000000 1.784380 
# 
# From -- ./inp_files/45240.got.cif
#   From: 2010.05.17/outbox.cif.g08.bks.cpg/sg67_23_cif.got.tgz:45240.got - 2010.06.03 18:28:57.
