data_PCOD9500690
_publ_section_title
;
Structure prediction by ZEFSAII (Michael W. Deem and Ramdas Pophale) SiO2 
 PCOD9500690
Probable space group: C M M A
;
_chemical_formula_sum "Si O2"
_cell_formula_units_Z 56
_cell_length_a 10.713586
_cell_length_b 31.030686
_cell_length_c 8.811649
_cell_angle_alpha 90.000000
_cell_angle_beta 90.000000
_cell_angle_gamma 90.000000
_cell_volume 2929.432032
_symmetry_space_group_name_H-M "C M M A"
_symmetry_group_IT_number 67
_symmetry_cell_setting 'orthorhombic'
loop_
_space_group_symop_operation_xyz
x,y,z
-x,1/2-y,z
x,-y,-z
-x,1/2+y,-z
-x,-y,-z
x,1/2+y,-z
-x,y,z
x,1/2-y,z
1/2+x,1/2+y,z
1/2-x,-y,z
1/2+x,1/2-y,-z
1/2-x,y,-z
1/2-x,1/2-y,-z
1/2+x,y,-z
1/2-x,1/2+y,z
1/2+x,-y,z
loop_
_atom_site_type_symbol
_atom_site_label
_atom_site_fract_x
_atom_site_fract_y
_atom_site_fract_z
Si Si1 0.250000 0.500000 0.500000
Si Si2 0.500000 0.799359 0.817538
Si Si3 0.750000 0.500000 0.000000
Si Si4 0.250295 0.350085 0.184590
Si Si5 0.000000 0.700078 0.812618
Si Si6 0.141934 0.060986 0.748784
O O1 0.167472 0.530731 0.394358
O O2 0.500000 0.750000 0.766385
O O3 0.626644 0.823250 0.770782
O O4 0.500000 0.799134 0.002502
O O5 0.831704 0.469121 0.893751
O O6 0.124807 0.325529 0.232691
O O7 0.265958 0.398272 0.246781
O O8 0.250000 0.353084 0.000000
O O9 0.000000 0.750000 0.762527
O O10 0.000000 0.076827 0.753095
#
# Coordination Sequence:
#
# PCOD9500690 Si02
#       6
#     4   8   4  16   8  16
#     4  10  26  42  56  80 114 156 200 242 298 340
#     4   9  16  28  48  78 115 151 183 229 289 345
#     4  10  22  34  60  88 114 148 184 250 306 344
#     4  10  18  30  53  82 115 150 189 236 283 344
#     4   9  18  30  46  80 123 153 177 221 291 353
#     4  11  21  40  58  85 115 152 197 244 291 350
#
# _framework density 19.116333999999998
#
# number of rings (size 3 to 8) (size 9 to 14) (size 15 to 20)
#    0.000    2.000    2.857    1.714    0.000    3.429 
#   12.857    0.000    0.000    0.000    0.000    6.000 
#    0.000    0.000    0.000    0.000    0.000    0.000 
#
# Total GULP energy -156292.979598 kJ/mol
# GULP energy per Si atom -5581.892129 kJ/mol
# Density = 1.907282 g / cm^3
# Si number density = 19.116334 Si / 1000 Ang^3
#
#
#
# Elastic Constant Matrix: (Units=GPa)
#
#
# Indices 1 2 3 4 5 6 
#
# 1 151.4494 81.1107 21.1377 0.0000 0.0000 0.0000
# 2 81.1107 177.3108 31.0501 0.0000 0.0000 0.0000
# 3 21.1377 31.0501 43.6221 0.0000 0.0000 0.0000
# 4 0.0000 0.0000 0.0000 7.2530 0.0000 0.0000
# 5 0.0000 0.0000 0.0000 0.0000 -3.2320 0.0000
# 6 0.0000 0.0000 0.0000 0.0000 0.0000 38.1862
#
#
#
# Elastic Compliance Matrix: (Units=1/GPa)
#
#
# Indices 1 2 3 4 5 6 
#
# 1 0.008843 -0.003764 -0.001606 0.000000 0.000000 0.000000
# 2 -0.003764 0.008045 -0.003903 0.000000 0.000000 0.000000
# 3 -0.001606 -0.003903 0.026480 0.000000 0.000000 0.000000
# 4 0.000000 0.000000 0.000000 0.137874 0.000000 0.000000
# 5 0.000000 0.000000 0.000000 0.000000 -0.309402 0.000000
# 6 0.000000 0.000000 0.000000 0.000000 0.000000 0.026187
#
#
# Mechanical properties :
#
#
# Convention : Reuss Voigt Hill
#
# Bulk Modulus (GPa) = 40.28449 70.99769 55.64109
# Shear Modulus (GPa) = -66.53045 24.38035 -21.07505
#
# Velocity S-wave (km/s) = -5.90580 3.57510 -3.32394
# Velocity P-wave (km/s) = 5.03841 7.36629 3.79978
#
# Compressibility (1/GPa) = 0.02482345
#
# Stress axis : x y z
#
# Youngs Moduli (GPa) = 113.08629 124.30030 37.76420
#
# Poissons Ratio (x) = 0.46786 0.06064
# Poissons Ratio (y) = 0.42565 0.14738
# Poissons Ratio (z) = 0.18159 0.48509
#
# Static dielectric constant tensor:
#      x y z
#    x 1.649340 0.000000 0.000000 
#    y 0.000000 1.641750 0.000000 
#    z 0.000000 0.000000 1.653790 
# 
# From -- ./inp_files/6691.got.cif
#   From: 2010.05.17/outbox.cif.g08.bks.cpg/sg67_4_cif.got.tgz:6691.got - 2010.06.03 18:28:57.
