data_PCOD9500963
_publ_section_title
;
Structure prediction by ZEFSAII (Michael W. Deem and Ramdas Pophale) SiO2 
 PCOD9500963
Probable space group: C M M A
;
_chemical_formula_sum "Si O2"
_cell_formula_units_Z 68
_cell_length_a 23.645974
_cell_length_b 13.941341
_cell_length_c 7.299659
_cell_angle_alpha 90.000000
_cell_angle_beta 90.000000
_cell_angle_gamma 90.000000
_cell_volume 2406.380671
_symmetry_space_group_name_H-M "C M M A"
_symmetry_group_IT_number 67
_symmetry_cell_setting 'orthorhombic'
loop_
_space_group_symop_operation_xyz
x,y,z
-x,1/2-y,z
x,-y,-z
-x,1/2+y,-z
-x,-y,-z
x,1/2+y,-z
-x,y,z
x,1/2-y,z
1/2+x,1/2+y,z
1/2-x,-y,z
1/2+x,1/2-y,-z
1/2-x,y,-z
1/2-x,1/2-y,-z
1/2+x,y,-z
1/2-x,1/2+y,z
1/2+x,-y,z
loop_
_atom_site_type_symbol
_atom_site_label
_atom_site_fract_x
_atom_site_fract_y
_atom_site_fract_z
Si Si1 0.681207 0.865189 0.141488
Si Si2 0.060132 0.857288 0.827272
Si Si3 0.000000 0.750000 0.243097
Si Si4 0.706313 0.363697 0.288967
Si Si5 0.418000 0.604534 0.572874
O O1 0.675595 0.750000 0.175415
O O2 0.619003 0.909902 0.142936
O O3 0.727762 0.899405 0.290603
O O4 0.697588 0.874953 0.929828
O O5 0.058596 0.750000 0.914531
O O6 0.064684 0.841058 0.611102
O O7 0.000000 0.903199 0.871728
O O8 0.049341 0.663122 0.270616
O O9 0.708539 0.250000 0.330308
O O10 0.648933 0.398022 0.383634
O O11 0.435374 0.500000 0.500000
#
# Coordination Sequence:
#
# PCOD9500963 Si02
#       5
#    16  16   4  16  16
#     4   8  17  33  62  87 122 167 211 265 334 388
#     4  10  18  35  55  85 122 164 207 260 320 385
#     4  12  22  44  60  88 132 178 204 276 336 376
#     4   9  17  37  59  91 123 163 218 273 325 390
#     4  12  23  38  64  92 126 166 220 264 325 396
#
# _framework density 28.258205
#
# number of rings (size 3 to 8) (size 9 to 14) (size 15 to 20)
#    0.000    2.118    3.529    1.765    0.000    0.941 
#    2.118    7.059    0.000    4.235    0.000    0.000 
#    0.000    0.000    0.000    0.000    0.000    0.000 
#
# Total GULP energy -189268.551919 kJ/mol
# GULP energy per Si atom -5566.722115 kJ/mol
# Density = 2.819389 g / cm^3
# Si number density = 28.258205 Si / 1000 Ang^3
#
#
#
# Elastic Constant Matrix: (Units=GPa)
#
#
# Indices 1 2 3 4 5 6 
#
# 1 322.3403 43.1576 40.5610 0.0000 0.0000 0.0000
# 2 43.1576 146.7875 15.1007 0.0000 0.0000 0.0000
# 3 40.5610 15.1007 71.5222 0.0000 0.0000 0.0000
# 4 0.0000 0.0000 0.0000 22.8810 0.0000 0.0000
# 5 0.0000 0.0000 0.0000 0.0000 -179.8489 0.0000
# 6 0.0000 0.0000 0.0000 0.0000 0.0000 -6.5492
#
#
#
# Elastic Compliance Matrix: (Units=1/GPa)
#
#
# Indices 1 2 3 4 5 6 
#
# 1 0.003436 -0.000828 -0.001774 0.000000 0.000000 0.000000
# 2 -0.000828 0.007163 -0.001043 0.000000 0.000000 0.000000
# 3 -0.001774 -0.001043 0.015208 0.000000 0.000000 0.000000
# 4 0.000000 0.000000 0.000000 0.043704 0.000000 0.000000
# 5 0.000000 0.000000 0.000000 0.000000 -0.005560 0.000000
# 6 0.000000 0.000000 0.000000 0.000000 0.000000 -0.152691
#
#
# Mechanical properties :
#
#
# Convention : Reuss Voigt Hill
#
# Bulk Modulus (GPa) = 54.00151 82.03204 68.01677
# Shear Modulus (GPa) = -66.42169 -3.24802 -34.83486
#
# Velocity S-wave (km/s) = -4.85348 -1.07327 -3.51484
# Velocity P-wave (km/s) = 3.50098 5.24944 2.76584
#
# Compressibility (1/GPa) = 0.01851800
#
# Stress axis : x y z
#
# Youngs Moduli (GPa) = 291.00391 139.60127 65.75514
#
# Poissons Ratio (x) = 0.11557 0.11665
# Poissons Ratio (y) = 0.24091 0.06858
# Poissons Ratio (z) = 0.51625 0.14559
#
# Static dielectric constant tensor:
#      x y z
#    x 2.431650 0.000000 0.000000 
#    y 0.000000 2.367360 0.000000 
#    z 0.000000 0.000000 2.363170 
# 
# From -- ./inp_files/20435.got.cif
#   From: 2010.05.17/outbox.cif.g08.bks.cpg/sg67_11_cif.got.tgz:20435.got - 2010.06.03 18:28:57.
