data_PCOD9500272
_publ_section_title
;
Structure prediction by ZEFSAII (Michael W. Deem and Ramdas Pophale) SiO2 
 PCOD9500272
Probable space group: C M M A
;
_chemical_formula_sum "Si O2"
_cell_formula_units_Z 88
_cell_length_a 7.834326
_cell_length_b 24.532178
_cell_length_c 21.844319
_cell_angle_alpha 90.000000
_cell_angle_beta 90.000000
_cell_angle_gamma 90.000000
_cell_volume 4198.326948
_symmetry_space_group_name_H-M "C M M A"
_symmetry_group_IT_number 67
_symmetry_cell_setting 'orthorhombic'
loop_
_space_group_symop_operation_xyz
x,y,z
-x,1/2-y,z
x,-y,-z
-x,1/2+y,-z
-x,-y,-z
x,1/2+y,-z
-x,y,z
x,1/2-y,z
1/2+x,1/2+y,z
1/2-x,-y,z
1/2+x,1/2-y,-z
1/2-x,y,-z
1/2-x,1/2-y,-z
1/2+x,y,-z
1/2-x,1/2+y,z
1/2+x,-y,z
loop_
_atom_site_type_symbol
_atom_site_label
_atom_site_fract_x
_atom_site_fract_y
_atom_site_fract_z
Si Si1 0.794620 0.563127 0.816601
Si Si2 0.294176 0.132416 0.931769
Si Si3 0.299670 0.750000 0.753653
Si Si4 0.199593 0.750000 0.893614
Si Si5 0.806216 0.628778 0.571044
Si Si6 0.705797 0.250000 0.428934
Si Si7 0.792222 0.367632 0.299906
O O1 0.750000 0.500000 0.815192
O O2 0.731216 0.592807 0.878124
O O3 0.733081 0.595492 0.756743
O O4 0.000000 0.567778 0.816339
O O5 0.500000 0.134318 0.926855
O O6 0.226440 0.193692 0.919358
O O7 0.250000 0.114558 0.000000
O O8 0.500000 0.750000 0.765276
O O9 0.210735 0.750000 0.819849
O O10 0.256650 0.805281 0.717011
O O11 0.000000 0.750000 0.910390
O O12 0.750000 0.621741 0.500000
O O13 0.789607 0.693010 0.588138
O O14 0.725706 0.607924 0.634850
O O15 0.000000 0.610374 0.569569
O O16 0.500000 0.250000 0.418054
O O17 0.750000 0.250000 0.500000
O O18 0.000000 0.368826 0.302479
#
# Coordination Sequence:
#
# PCOD9500272 Si02
#       7
#    16  16   8   8  16   8  16
#     4  10  22  41  62  83 109 147 192 238 284 335
#     4  10  21  37  61  87 117 153 188 228 275 331
#     4  12  23  32  54  90 118 144 187 243 282 320
#     4  10  19  38  60  80 118 162 189 220 275 345
#     4  10  19  31  50  74 103 142 182 225 273 332
#     4  10  17  26  41  64 102 142 176 215 260 319
#     4  10  21  39  59  78 111 156 192 222 281 353
#
# _framework density 20.960730000000002
#
# number of rings (size 3 to 8) (size 9 to 14) (size 15 to 20)
#    0.000    1.818    1.818    4.091    0.000    6.182 
#    0.000    1.818    0.000    0.545    0.000    3.818 
#    0.000    0.000    0.000    0.000    0.000    0.000 
#
# Total GULP energy -245195.182966 kJ/mol
# GULP energy per Si atom -5572.617795 kJ/mol
# Density = 2.091302 g / cm^3
# Si number density = 20.960730 Si / 1000 Ang^3
#
#
#
# Elastic Constant Matrix: (Units=GPa)
#
#
# Indices 1 2 3 4 5 6 
#
# 1 28.9034 4.7339 -2.1839 0.0000 0.0000 0.0000
# 2 4.7339 107.4678 77.7486 0.0000 0.0000 0.0000
# 3 -2.1839 77.7486 211.9309 0.0000 0.0000 0.0000
# 4 0.0000 0.0000 0.0000 -0.7464 0.0000 0.0000
# 5 0.0000 0.0000 0.0000 0.0000 14.8950 0.0000
# 6 0.0000 0.0000 0.0000 0.0000 0.0000 14.1185
#
#
#
# Elastic Compliance Matrix: (Units=1/GPa)
#
#
# Indices 1 2 3 4 5 6 
#
# 1 0.035097 -0.002461 0.001264 0.000000 0.000000 0.000000
# 2 -0.002461 0.012840 -0.004736 0.000000 0.000000 0.000000
# 3 0.001264 -0.004736 0.006469 0.000000 0.000000 0.000000
# 4 0.000000 0.000000 0.000000 -1.339784 0.000000 0.000000
# 5 0.000000 0.000000 0.000000 0.000000 0.067137 0.000000
# 6 0.000000 0.000000 0.000000 0.000000 0.000000 0.070829
#
#
# Mechanical properties :
#
#
# Convention : Reuss Voigt Hill
#
# Bulk Modulus (GPa) = 23.50669 56.54437 40.02553
# Shear Modulus (GPa) = -4.45884 23.52031 9.53074
#
# Velocity S-wave (km/s) = -1.46009 3.35343 2.13467
# Velocity P-wave (km/s) = 2.89767 6.48297 5.02123
#
# Compressibility (1/GPa) = 0.04254108
#
# Stress axis : x y z
#
# Youngs Moduli (GPa) = 28.49277 77.88426 154.58664
#
# Poissons Ratio (x) = 0.19165 -0.19546
# Poissons Ratio (y) = 0.07011 0.73207
# Poissons Ratio (z) = -0.03603 0.36883
#
# Static dielectric constant tensor:
#      x y z
#    x 1.766880 0.000000 0.000000 
#    y 0.000000 1.806340 0.000000 
#    z 0.000000 0.000000 1.798140 
# 
# From -- ./inp_files/37006.got.cif
#   From: 2010.05.17/outbox.cif.g08.bks.cpg/sg67_19_cif.got.tgz:37006.got - 2010.06.03 18:28:57.
