data_PCOD9500962
_publ_section_title
;
Structure prediction by ZEFSAII (Michael W. Deem and Ramdas Pophale) SiO2 
 PCOD9500962
Probable space group: C M M A
;
_chemical_formula_sum "Si O2"
_cell_formula_units_Z 104
_cell_length_a 26.226285
_cell_length_b 22.293432
_cell_length_c 9.372367
_cell_angle_alpha 90.000000
_cell_angle_beta 90.000000
_cell_angle_gamma 90.000000
_cell_volume 5479.778378
_symmetry_space_group_name_H-M "C M M A"
_symmetry_group_IT_number 67
_symmetry_cell_setting 'orthorhombic'
loop_
_space_group_symop_operation_xyz
x,y,z
-x,1/2-y,z
x,-y,-z
-x,1/2+y,-z
-x,-y,-z
x,1/2+y,-z
-x,y,z
x,1/2-y,z
1/2+x,1/2+y,z
1/2-x,-y,z
1/2+x,1/2-y,-z
1/2-x,y,-z
1/2-x,1/2-y,-z
1/2+x,y,-z
1/2-x,1/2+y,z
1/2+x,-y,z
loop_
_atom_site_type_symbol
_atom_site_label
_atom_site_fract_x
_atom_site_fract_y
_atom_site_fract_z
Si Si1 0.000000 0.177140 0.633427
Si Si2 0.883066 0.000000 0.000000
Si Si3 0.000000 0.822666 0.701549
Si Si4 0.188602 0.868666 0.677173
Si Si5 0.194444 0.367521 0.644364
Si Si6 0.405514 0.629888 0.118509
Si Si7 0.901753 0.679285 0.193950
Si Si8 0.193796 0.005522 0.750618
O O1 0.949325 0.154843 0.713770
O O2 0.000000 0.250000 0.644061
O O3 0.000000 0.162780 0.466537
O O4 0.908903 0.059537 0.068185
O O5 0.846826 0.978794 0.128601
O O6 0.049246 0.851026 0.777018
O O7 0.000000 0.750000 0.717654
O O8 0.179793 0.846409 0.515137
O O9 0.248312 0.851342 0.696971
O O10 0.147278 0.853038 0.798524
O O11 0.183826 0.941111 0.682260
O O12 0.151428 0.346604 0.751610
O O13 0.195270 0.439823 0.641667
O O14 0.409651 0.665619 0.971414
O O15 0.900103 0.750000 0.216723
O O16 0.250000 0.000000 0.817718
#
# Coordination Sequence:
#
# PCOD9500962 Si02
#       8
#     8   8   8  16  16  16  16  16
#     4   9  21  41  65  86 106 146 200 245 288 340
#     4  10  19  33  52  88 118 154 180 240 294 344
#     4  11  23  42  65  85 108 148 200 252 292 349
#     4   9  20  33  56  84 117 153 195 237 294 347
#     4  10  18  35  55  84 118 155 194 242 286 342
#     4  11  22  38  59  86 119 150 196 241 297 349
#     4  11  22  38  60  85 115 152 195 240 291 351
#     4   9  16  29  53  82 115 154 194 234 280 340
#
# _framework density 18.978871000000002
#
# number of rings (size 3 to 8) (size 9 to 14) (size 15 to 20)
#    0.000    2.000    1.538    2.538    0.000    3.385 
#    0.000    4.615    0.000    0.923    0.000    0.000 
#    0.000    0.000    0.000    0.000    0.000    0.000 
#
# Total GULP energy -289694.320435 kJ/mol
# GULP energy per Si atom -5571.044624 kJ/mol
# Density = 1.893567 g / cm^3
# Si number density = 18.978871 Si / 1000 Ang^3
#
#
#
# Elastic Constant Matrix: (Units=GPa)
#
#
# Indices 1 2 3 4 5 6 
#
# 1 111.4394 23.2166 71.1940 0.0000 0.0000 0.0000
# 2 23.2166 36.1890 8.5715 0.0000 0.0000 0.0000
# 3 71.1940 8.5715 122.7411 0.0000 0.0000 0.0000
# 4 0.0000 0.0000 0.0000 19.4490 0.0000 0.0000
# 5 0.0000 0.0000 0.0000 0.0000 37.2074 0.0000
# 6 0.0000 0.0000 0.0000 0.0000 0.0000 22.2361
#
#
#
# Elastic Compliance Matrix: (Units=1/GPa)
#
#
# Indices 1 2 3 4 5 6 
#
# 1 0.016450 -0.008433 -0.008952 0.000000 0.000000 0.000000
# 2 -0.008433 0.032420 0.002627 0.000000 0.000000 0.000000
# 3 -0.008952 0.002627 0.013156 0.000000 0.000000 0.000000
# 4 0.000000 0.000000 0.000000 0.051416 0.000000 0.000000
# 5 0.000000 0.000000 0.000000 0.000000 0.026876 0.000000
# 6 0.000000 0.000000 0.000000 0.000000 0.000000 0.044972
#
#
# Mechanical properties :
#
#
# Convention : Reuss Voigt Hill
#
# Bulk Modulus (GPa) = 30.75922 52.92598 41.84260
# Shear Modulus (GPa) = 22.15882 26.93768 24.54825
#
# Velocity S-wave (km/s) = 3.42065 3.77151 3.60036
# Velocity P-wave (km/s) = 5.64300 6.84931 6.27521
#
# Compressibility (1/GPa) = 0.03251058
#
# Stress axis : x y z
#
# Youngs Moduli (GPa) = 60.79160 30.84487 76.00811
#
# Poissons Ratio (x) = 0.26010 0.68046
# Poissons Ratio (y) = 0.51263 -0.19969
# Poissons Ratio (z) = 0.54423 -0.08103
#
# Static dielectric constant tensor:
#      x y z
#    x 1.672760 0.000000 0.000000 
#    y 0.000000 1.680320 0.000000 
#    z 0.000000 0.000000 1.651240 
# 
# From -- ./inp_files/12865.got.cif
#   From: 2010.05.17/outbox.cif.g08.bks.cpg/sg67_7_cif.got.tgz:12865.got - 2010.06.03 18:28:57.
