data_PCOD9500703
_publ_section_title
;
Structure prediction by ZEFSAII (Michael W. Deem and Ramdas Pophale) SiO2 
 PCOD9500703
Probable space group: C M M A
;
_chemical_formula_sum "Si O2"
_cell_formula_units_Z 72
_cell_length_a 8.714484
_cell_length_b 26.021916
_cell_length_c 20.597321
_cell_angle_alpha 90.000000
_cell_angle_beta 90.000000
_cell_angle_gamma 90.000000
_cell_volume 4670.804445
_symmetry_space_group_name_H-M "C M M A"
_symmetry_group_IT_number 67
_symmetry_cell_setting 'orthorhombic'
loop_
_space_group_symop_operation_xyz
x,y,z
-x,1/2-y,z
x,-y,-z
-x,1/2+y,-z
-x,-y,-z
x,1/2+y,-z
-x,y,z
x,1/2-y,z
1/2+x,1/2+y,z
1/2-x,-y,z
1/2+x,1/2-y,-z
1/2-x,y,-z
1/2-x,1/2-y,-z
1/2+x,y,-z
1/2-x,1/2+y,z
1/2+x,-y,z
loop_
_atom_site_type_symbol
_atom_site_label
_atom_site_fract_x
_atom_site_fract_y
_atom_site_fract_z
Si Si1 0.816614 0.943693 0.929030
Si Si2 0.814029 0.851699 0.153510
Si Si3 0.684662 0.750000 0.927657
Si Si4 0.687339 0.809784 0.708861
Si Si5 0.321076 0.187606 0.432661
O O1 0.761202 0.901380 0.878161
O O2 0.000000 0.946015 0.932596
O O3 0.750000 0.000000 0.913383
O O4 0.750000 0.929547 0.000000
O O5 0.770567 0.801127 0.111888
O O6 0.767619 0.841762 0.228087
O O7 0.000000 0.856197 0.151071
O O8 0.500000 0.750000 0.931157
O O9 0.750000 0.750000 0.000000
O O10 0.500000 0.809674 0.706812
O O11 0.732595 0.750000 0.717739
O O12 0.742037 0.828525 0.637960
O O13 0.500000 0.174798 0.434393
O O14 0.308452 0.250000 0.432110
O O15 0.250000 0.168961 0.500000
#
# Coordination Sequence:
#
# PCOD9500703 Si02
#       5
#    16  16   8  16  16
#     4  11  22  37  54  71  89 114 149 191 236 278
#     4  10  18  31  49  69  92 121 154 189 226 270
#     4  10  20  30  44  64  89 120 152 182 219 266
#     4   8  13  24  42  62  87 121 157 185 217 264
#     4   8  13  21  35  55  80 114 153 188 217 252
#
# _framework density 15.414904
#
# number of rings (size 3 to 8) (size 9 to 14) (size 15 to 20)
#    0.000    2.667    1.111    4.667    0.000    2.667 
#    0.000    1.111    0.000    1.333    0.000    0.000 
#    0.000    0.889    0.000   10.222    0.000    3.556 
#
# Total GULP energy -200534.315875 kJ/mol
# GULP energy per Si atom -5570.397663 kJ/mol
# Density = 1.537982 g / cm^3
# Si number density = 15.414904 Si / 1000 Ang^3
#
#
#
# Elastic Constant Matrix: (Units=GPa)
#
#
# Indices 1 2 3 4 5 6 
#
# 1 41.7248 27.1914 47.8650 0.0000 0.0000 0.0000
# 2 27.1914 59.3856 72.3542 0.0000 0.0000 0.0000
# 3 47.8650 72.3542 183.9590 0.0000 0.0000 0.0000
# 4 0.0000 0.0000 0.0000 13.6858 0.0000 0.0000
# 5 0.0000 0.0000 0.0000 0.0000 20.8363 0.0000
# 6 0.0000 0.0000 0.0000 0.0000 0.0000 15.4075
#
#
#
# Elastic Compliance Matrix: (Units=1/GPa)
#
#
# Indices 1 2 3 4 5 6 
#
# 1 0.037026 -0.010015 -0.005695 0.000000 0.000000 0.000000
# 2 -0.010015 0.035043 -0.011177 0.000000 0.000000 0.000000
# 3 -0.005695 -0.011177 0.011314 0.000000 0.000000 0.000000
# 4 0.000000 0.000000 0.000000 0.073068 0.000000 0.000000
# 5 0.000000 0.000000 0.000000 0.000000 0.047993 0.000000
# 6 0.000000 0.000000 0.000000 0.000000 0.000000 0.064904
#
#
# Mechanical properties :
#
#
# Convention : Reuss Voigt Hill
#
# Bulk Modulus (GPa) = 33.77363 64.43230 49.10297
# Shear Modulus (GPa) = 15.01543 19.16317 17.08930
#
# Velocity S-wave (km/s) = 3.12442 3.52967 3.33321
# Velocity P-wave (km/s) = 5.91382 7.64859 6.83645
#
# Compressibility (1/GPa) = 0.02960890
#
# Stress axis : x y z
#
# Youngs Moduli (GPa) = 27.00803 28.53670 88.38673
#
# Poissons Ratio (x) = 0.28579 0.50336
# Poissons Ratio (y) = 0.27048 0.98790
# Poissons Ratio (z) = 0.15381 0.31896
#
# Static dielectric constant tensor:
#      x y z
#    x 1.532230 0.000000 0.000000 
#    y 0.000000 1.483520 0.000000 
#    z 0.000000 0.000000 1.545010 
# 
# From -- ./inp_files/32060.got.cif
#   From: 2010.05.17/outbox.cif.g08.bks.cpg/sg67_17_cif.got.tgz:32060.got - 2010.06.03 18:28:57.
