data_PCOD9500849
_publ_section_title
;
Structure prediction by ZEFSAII (Michael W. Deem and Ramdas Pophale) SiO2 
 PCOD9500849
Probable space group: C M M A
;
_chemical_formula_sum "Si O2"
_cell_formula_units_Z 112
_cell_length_a 13.819908
_cell_length_b 23.607152
_cell_length_c 14.715418
_cell_angle_alpha 90.000000
_cell_angle_beta 90.000000
_cell_angle_gamma 90.000000
_cell_volume 4800.885533
_symmetry_space_group_name_H-M "C M M A"
_symmetry_group_IT_number 67
_symmetry_cell_setting 'orthorhombic'
loop_
_space_group_symop_operation_xyz
x,y,z
-x,1/2-y,z
x,-y,-z
-x,1/2+y,-z
-x,-y,-z
x,1/2+y,-z
-x,y,z
x,1/2-y,z
1/2+x,1/2+y,z
1/2-x,-y,z
1/2+x,1/2-y,-z
1/2-x,y,-z
1/2-x,1/2-y,-z
1/2+x,y,-z
1/2-x,1/2+y,z
1/2+x,-y,z
loop_
_atom_site_type_symbol
_atom_site_label
_atom_site_fract_x
_atom_site_fract_y
_atom_site_fract_z
Si Si1 0.387430 0.935803 0.485038
Si Si2 0.114324 0.469921 0.285789
Si Si3 0.763696 0.312511 0.281054
Si Si4 0.883429 0.061979 0.964727
Si Si5 0.616586 0.813068 0.468453
Si Si6 0.884016 0.409374 0.755192
Si Si7 0.616718 0.121715 0.858088
O O1 0.500000 0.939518 0.513704
O O2 0.378025 0.933133 0.375853
O O3 0.355978 0.872980 0.517145
O O4 0.349826 0.000000 0.500000
O O5 0.151107 0.533677 0.296617
O O6 0.146276 0.434442 0.199409
O O7 0.000000 0.479103 0.270049
O O8 0.723486 0.250000 0.269655
O O9 0.827476 0.313143 0.372696
O O10 0.677339 0.357100 0.278518
O O11 0.832714 0.328188 0.196020
O O12 0.861788 0.077366 0.861146
O O13 0.000000 0.060137 0.968233
O O14 0.854302 0.108819 0.038878
O O15 0.852272 0.000000 0.000000
O O16 0.500000 0.816367 0.454460
O O17 0.635324 0.750000 0.510661
O O18 0.000000 0.400731 0.744733
O O19 0.500000 0.127262 0.852680
#
# Coordination Sequence:
#
# PCOD9500849 Si02
#       7
#    16  16  16  16  16  16  16
#     4   9  16  28  51  86 124 150 173 219 280 341
#     4   9  16  30  53  80 110 141 174 222 281 335
#     4  11  23  36  53  77 107 151 199 236 269 326
#     4   9  16  31  54  79 108 140 177 229 290 349
#     4   9  17  32  55  83 117 156 194 232 282 344
#     4  10  21  37  55  76 105 143 189 240 291 338
#     4  10  18  32  55  83 113 138 173 228 286 340
#
# _framework density 23.329029999999999
#
# number of rings (size 3 to 8) (size 9 to 14) (size 15 to 20)
#    0.000    2.429    2.857    0.429    0.000    2.286 
#    0.000    2.143    0.000    5.143    0.000    6.000 
#    0.000    0.000    0.000    0.000    0.000    0.000 
#
# Total GULP energy -312825.994255 kJ/mol
# GULP energy per Si atom -5586.178469 kJ/mol
# Density = 2.327593 g / cm^3
# Si number density = 23.329030 Si / 1000 Ang^3
#
#
#
# Elastic Constant Matrix: (Units=GPa)
#
#
# Indices 1 2 3 4 5 6 
#
# 1 123.1532 34.8748 25.0273 0.0000 0.0000 0.0000
# 2 34.8748 199.3021 25.4576 0.0000 0.0000 0.0000
# 3 25.0273 25.4576 73.1694 0.0000 0.0000 0.0000
# 4 0.0000 0.0000 0.0000 26.8803 0.0000 0.0000
# 5 0.0000 0.0000 0.0000 0.0000 19.2073 0.0000
# 6 0.0000 0.0000 0.0000 0.0000 0.0000 28.3719
#
#
#
# Elastic Compliance Matrix: (Units=1/GPa)
#
#
# Indices 1 2 3 4 5 6 
#
# 1 0.009009 -0.001238 -0.002651 0.000000 0.000000 0.000000
# 2 -0.001238 0.005421 -0.001463 0.000000 0.000000 0.000000
# 3 -0.002651 -0.001463 0.015083 0.000000 0.000000 0.000000
# 4 0.000000 0.000000 0.000000 0.037202 0.000000 0.000000
# 5 0.000000 0.000000 0.000000 0.000000 0.052064 0.000000
# 6 0.000000 0.000000 0.000000 0.000000 0.000000 0.035246
#
#
# Mechanical properties :
#
#
# Convention : Reuss Voigt Hill
#
# Bulk Modulus (GPa) = 53.16363 62.92711 58.04537
# Shear Modulus (GPa) = 29.24024 35.57623 32.40824
#
# Velocity S-wave (km/s) = 3.54416 3.90933 3.73121
# Velocity P-wave (km/s) = 6.29175 6.88545 6.59529
#
# Compressibility (1/GPa) = 0.01880985
#
# Stress axis : x y z
#
# Youngs Moduli (GPa) = 110.99734 184.46953 66.30185
#
# Poissons Ratio (x) = 0.22835 0.17576
# Poissons Ratio (y) = 0.13740 0.09698
# Poissons Ratio (z) = 0.29424 0.26982
#
# Static dielectric constant tensor:
#      x y z
#    x 1.926030 0.000000 0.000000 
#    y 0.000000 1.899960 0.000000 
#    z 0.000000 0.000000 1.899570 
# 
# From -- ./inp_files/27557.got.cif
#   From: 2010.05.17/outbox.cif.g08.bks.cpg/sg67_14_cif.got.tgz:27557.got - 2010.06.03 18:28:57.
