data_PCOD9500900
_publ_section_title
;
Structure prediction by ZEFSAII (Michael W. Deem and Ramdas Pophale) SiO2 
 PCOD9500900
Probable space group: C M M A
;
_chemical_formula_sum "Si O2"
_cell_formula_units_Z 80
_cell_length_a 14.063203
_cell_length_b 22.982407
_cell_length_c 10.672388
_cell_angle_alpha 90.000000
_cell_angle_beta 90.000000
_cell_angle_gamma 90.000000
_cell_volume 3449.382558
_symmetry_space_group_name_H-M "C M M A"
_symmetry_group_IT_number 67
_symmetry_cell_setting 'orthorhombic'
loop_
_space_group_symop_operation_xyz
x,y,z
-x,1/2-y,z
x,-y,-z
-x,1/2+y,-z
-x,-y,-z
x,1/2+y,-z
-x,y,z
x,1/2-y,z
1/2+x,1/2+y,z
1/2-x,-y,z
1/2+x,1/2-y,-z
1/2-x,y,-z
1/2-x,1/2-y,-z
1/2+x,y,-z
1/2-x,1/2+y,z
1/2+x,-y,z
loop_
_atom_site_type_symbol
_atom_site_label
_atom_site_fract_x
_atom_site_fract_y
_atom_site_fract_z
Si Si1 0.108875 0.875386 0.015829
Si Si2 0.615782 0.416898 0.273562
Si Si3 0.155126 0.750000 0.919890
Si Si4 0.884589 0.750000 0.635702
Si Si5 0.884359 0.376287 0.454682
Si Si6 0.616037 0.451068 0.787006
O O1 0.147621 0.876523 0.157405
O O2 0.000000 0.894874 0.030452
O O3 0.108080 0.811012 0.958644
O O4 0.150569 0.920298 0.914432
O O5 0.500000 0.414631 0.283476
O O6 0.649855 0.399838 0.411680
O O7 0.642519 0.482131 0.233456
O O8 0.163792 0.750000 0.771067
O O9 0.250000 0.750000 0.000000
O O10 0.860199 0.691112 0.563978
O O11 0.000000 0.750000 0.657759
O O12 0.854849 0.413641 0.333952
O O13 0.000000 0.379596 0.455225
O O14 0.500000 0.449621 0.790472
#
# Coordination Sequence:
#
# PCOD9500900 Si02
#       6
#    16  16   8   8  16  16
#     4  10  19  33  54  78 106 139 172 216 267 314
#     4   9  17  27  45  80 115 136 165 214 265 309
#     4  12  24  37  54  74 100 134 184 226 263 313
#     4  10  18  33  54  77 104 144 189 219 262 322
#     4   9  16  26  46  76 112 144 170 208 256 308
#     4   9  15  26  47  76 110 142 170 205 257 313
#
# _framework density 23.192554999999999
#
# number of rings (size 3 to 8) (size 9 to 14) (size 15 to 20)
#    0.000    2.400    2.000    2.100    0.000    5.600 
#    0.000    3.000    0.000    4.800    0.000    0.000 
#    6.000    0.000    0.000    0.000    0.000    0.000 
#
# Total GULP energy -223614.289692 kJ/mol
# GULP energy per Si atom -5590.357242 kJ/mol
# Density = 2.313977 g / cm^3
# Si number density = 23.192555 Si / 1000 Ang^3
#
#
#
# Elastic Constant Matrix: (Units=GPa)
#
#
# Indices 1 2 3 4 5 6 
#
# 1 70.0660 -33.1712 -6.2001 0.0000 0.0000 0.0000
# 2 -33.1712 111.7799 58.0873 0.0000 0.0000 0.0000
# 3 -6.2001 58.0873 182.4037 0.0000 0.0000 0.0000
# 4 0.0000 0.0000 0.0000 12.9729 0.0000 0.0000
# 5 0.0000 0.0000 0.0000 0.0000 14.0497 0.0000
# 6 0.0000 0.0000 0.0000 0.0000 0.0000 -10.7969
#
#
#
# Elastic Compliance Matrix: (Units=1/GPa)
#
#
# Indices 1 2 3 4 5 6 
#
# 1 0.016829 0.005628 -0.001220 0.000000 0.000000 0.000000
# 2 0.005628 0.012602 -0.003822 0.000000 0.000000 0.000000
# 3 -0.001220 -0.003822 0.006658 0.000000 0.000000 0.000000
# 4 0.000000 0.000000 0.000000 0.077084 0.000000 0.000000
# 5 0.000000 0.000000 0.000000 0.000000 0.071176 0.000000
# 6 0.000000 0.000000 0.000000 0.000000 0.000000 -0.092619
#
#
# Mechanical properties :
#
#
# Convention : Reuss Voigt Hill
#
# Bulk Modulus (GPa) = 26.83773 44.63131 35.73452
# Shear Modulus (GPa) = 48.55380 26.28071 37.41725
#
# Velocity S-wave (km/s) = 4.58045 3.36989 4.02099
# Velocity P-wave (km/s) = 6.29054 5.86746 6.08268
#
# Compressibility (1/GPa) = 0.03726098
#
# Stress axis : x y z
#
# Youngs Moduli (GPa) = 59.42195 79.34954 150.19520
#
# Poissons Ratio (x) = -0.44659 0.18328
# Poissons Ratio (y) = -0.33444 0.57405
# Poissons Ratio (z) = 0.07251 0.30327
#
# Static dielectric constant tensor:
#      x y z
#    x 2.026930 0.000000 0.000000 
#    y 0.000000 1.807410 0.000000 
#    z 0.000000 0.000000 1.825650 
# 
# From -- ./inp_files/11127.got.cif
#   From: 2010.05.17/outbox.cif.g08.bks.cpg/sg67_6_cif.got.tgz:11127.got - 2010.06.03 18:28:57.
