data_PCOD9500084
_publ_section_title
;
Structure prediction by ZEFSAII (Michael W. Deem and Ramdas Pophale) SiO2 
 PCOD9500084
Probable space group: C C C M
;
_chemical_formula_sum "Si O2"
_cell_formula_units_Z 32
_cell_length_a 18.000000
_cell_length_b 15.000000
_cell_length_c 12.000000
_cell_angle_alpha 90.000000
_cell_angle_beta 90.000000
_cell_angle_gamma 90.000000
_cell_volume 3240.000000
_symmetry_space_group_name_H-M "C C C M"
_symmetry_group_IT_number 66
_symmetry_cell_setting 'orthorhombic'
loop_
_space_group_symop_operation_xyz
x,y,z
-x,-y,z
x,-y,1/2-z
-x,y,1/2-z
-x,-y,-z
x,y,-z
-x,y,1/2+z
x,-y,1/2+z
1/2+x,1/2+y,z
1/2-x,1/2-y,z
1/2+x,1/2-y,1/2-z
1/2-x,1/2+y,1/2-z
1/2-x,1/2-y,-z
1/2+x,1/2+y,-z
1/2-x,1/2+y,1/2+z
1/2+x,1/2-y,1/2+z
loop_
_atom_site_type_symbol
_atom_site_label
_atom_site_fract_x
_atom_site_fract_y
_atom_site_fract_z
Si Si1 0.000000 0.336304 0.750000
Si Si2 0.259415 0.080081 0.374166
Si Si3 0.383807 0.000000 0.250000
Si Si4 0.250000 0.750000 0.284019
Si Si5 0.591256 0.317341 0.629777
Si Si6 0.876289 0.000000 0.750000
O O1 0.066518 0.410318 0.737576
O O2 0.034560 0.263487 0.837147
O O3 0.261570 0.111010 0.500000
O O4 0.325121 0.008624 0.351576
O O5 0.269069 0.164490 0.292853
O O6 0.180735 0.034764 0.345215
O O7 0.324677 0.720301 0.349039
O O8 0.581564 0.338756 0.500000
O O9 0.584193 0.410170 0.701734
#
# Coordination Sequence:
#
# PCOD9500084 Si02
#       6
#     8  16   8   8  16   8
#     4  11  24  43  60  94 134 171 224 269 314 394
#     4  10  19  36  64  94 130 171 208 272 337 376
#     4  10  22  41  60  89 139 169 218 269 313 401
#     4  10  20  40  64  98 130 160 230 272 308 402
#     4  11  23  43  69  93 128 174 213 272 333 384
#     4   9  22  40  62 100 127 156 224 282 315 402
#
# _framework density 9.8765429999999999
#
# number of rings (size 3 to 8) (size 9 to 14) (size 15 to 20)
#    0.000    1.750    2.500    1.500    0.000    2.500 
#    0.000    6.250    0.000    0.000    0.000    0.000 
#    0.000    0.000    0.000    0.000    0.000    0.000 
#
# Total GULP energy -178178.353973 kJ/mol
# GULP energy per Si atom -5568.073562 kJ/mol
# Density = 0.985406 g / cm^3
# Si number density = 9.876543 Si / 1000 Ang^3
#
#
#
# Elastic Constant Matrix: (Units=GPa)
#
#
# Indices 1 2 3 4 5 6 
#
# 1 73.6769 34.1753 37.5494 0.0000 0.0000 0.0000
# 2 34.1753 148.3771 34.3717 0.0000 0.0000 0.0000
# 3 37.5494 34.3717 91.3699 0.0000 0.0000 0.0000
# 4 0.0000 0.0000 0.0000 21.0985 0.0000 0.0000
# 5 0.0000 0.0000 0.0000 0.0000 6.9701 0.0000
# 6 0.0000 0.0000 0.0000 0.0000 0.0000 42.9540
#
#
#
# Elastic Compliance Matrix: (Units=1/GPa)
#
#
# Indices 1 2 3 4 5 6 
#
# 1 0.018091 -0.002678 -0.006427 0.000000 0.000000 0.000000
# 2 -0.002678 0.007779 -0.001826 0.000000 0.000000 0.000000
# 3 -0.006427 -0.001826 0.014273 0.000000 0.000000 0.000000
# 4 0.000000 0.000000 0.000000 0.047397 0.000000 0.000000
# 5 0.000000 0.000000 0.000000 0.000000 0.143471 0.000000
# 6 0.000000 0.000000 0.000000 0.000000 0.000000 0.023281
#
#
# Mechanical properties :
#
#
# Convention : Reuss Voigt Hill
#
# Bulk Modulus (GPa) = 54.70260 58.40187 56.55223
# Shear Modulus (GPa) = 17.71504 28.02635 22.87069
#
# Velocity S-wave (km/s) = 2.99795 3.77083 3.40638
# Velocity P-wave (km/s) = 6.30372 6.97058 6.64552
#
# Compressibility (1/GPa) = 0.01828067
#
# Stress axis : x y z
#
# Youngs Moduli (GPa) = 55.27762 128.54539 70.06385
#
# Poissons Ratio (x) = 0.34423 0.45031
# Poissons Ratio (y) = 0.14803 0.12793
# Poissons Ratio (z) = 0.35528 0.23472
#
# Static dielectric constant tensor:
#      x y z
#    x 1.742030 0.000000 0.000000 
#    y 0.000000 1.699780 0.000000 
#    z 0.000000 0.000000 1.680300 
# 
# From -- ./inp_files/17332.got.cif
#   From: 2010.05.17/outbox.ucp.g08.bks.cvg/sg66_9_cif.got.tgz:17332.got - 2010.06.11 16:44:13.
