data_PCOD9500189
_publ_section_title
;
Structure prediction by ZEFSAII (Michael W. Deem and Ramdas Pophale) SiO2 
 PCOD9500189
Probable space group: C M M A
;
_chemical_formula_sum "Si O2"
_cell_formula_units_Z 80
_cell_length_a 31.424759
_cell_length_b 8.584331
_cell_length_c 21.195512
_cell_angle_alpha 90.000000
_cell_angle_beta 90.000000
_cell_angle_gamma 90.000000
_cell_volume 5717.712611
_symmetry_space_group_name_H-M "C M M A"
_symmetry_group_IT_number 67
_symmetry_cell_setting 'orthorhombic'
loop_
_space_group_symop_operation_xyz
x,y,z
-x,1/2-y,z
x,-y,-z
-x,1/2+y,-z
-x,-y,-z
x,1/2+y,-z
-x,y,z
x,1/2-y,z
1/2+x,1/2+y,z
1/2-x,-y,z
1/2+x,1/2-y,-z
1/2-x,y,-z
1/2-x,1/2-y,-z
1/2+x,y,-z
1/2-x,1/2+y,z
1/2+x,-y,z
loop_
_atom_site_type_symbol
_atom_site_label
_atom_site_fract_x
_atom_site_fract_y
_atom_site_fract_z
Si Si1 0.864388 0.935962 0.428431
Si Si2 0.201332 0.063787 0.065367
Si Si3 0.701901 0.563795 0.328550
Si Si4 0.298522 0.436290 0.195879
Si Si5 0.046536 0.063013 0.428256
O O1 0.862000 0.750000 0.429852
O O2 0.861043 0.000000 0.500000
O O3 0.827411 0.006245 0.385419
O O4 0.910496 0.988800 0.401584
O O5 0.202353 0.250000 0.064934
O O6 0.250000 0.000000 0.065634
O O7 0.181914 0.001688 0.130928
O O8 0.182024 0.000000 0.000000
O O9 0.703417 0.750000 0.325621
O O10 0.750000 0.500000 0.336247
O O11 0.683784 0.497735 0.262199
O O12 0.297972 0.250000 0.194503
O O13 0.250000 0.500000 0.196628
O O14 0.050892 0.250000 0.429507
O O15 0.000000 0.024937 0.399792
O O16 0.045118 0.000000 0.500000
#
# Coordination Sequence:
#
# PCOD9500189 Si02
#       5
#    16  16  16  16  16
#     4  11  21  33  47  64  83 105 134 169 208 247
#     4  10  16  23  34  51  72  95 122 157 197 235
#     4  11  21  34  47  60  78 104 138 174 210 246
#     4  10  17  27  40  55  73  97 128 162 199 239
#     4   9  16  27  44  65  86 106 127 155 195 242
#
# _framework density 13.99161
#
# number of rings (size 3 to 8) (size 9 to 14) (size 15 to 20)
#    0.000    1.800    0.000   12.000    0.000    1.600 
#    0.000    2.000    0.000    0.000    0.000    0.000 
#    0.000    0.000    0.000    0.000    0.000    1.000 
#
# Total GULP energy -222856.379845 kJ/mol
# GULP energy per Si atom -5571.409496 kJ/mol
# Density = 1.395976 g / cm^3
# Si number density = 13.991610 Si / 1000 Ang^3
#
#
#
# Elastic Constant Matrix: (Units=GPa)
#
#
# Indices 1 2 3 4 5 6 
#
# 1 59.6217 32.3952 38.6217 0.0000 0.0000 0.0000
# 2 32.3952 155.3666 47.5995 0.0000 0.0000 0.0000
# 3 38.6217 47.5995 97.9903 0.0000 0.0000 0.0000
# 4 0.0000 0.0000 0.0000 24.2097 0.0000 0.0000
# 5 0.0000 0.0000 0.0000 0.0000 -0.5252 0.0000
# 6 0.0000 0.0000 0.0000 0.0000 0.0000 -93.3097
#
#
#
# Elastic Compliance Matrix: (Units=1/GPa)
#
#
# Indices 1 2 3 4 5 6 
#
# 1 0.023259 -0.002398 -0.008003 0.000000 0.000000 0.000000
# 2 -0.002398 0.007809 -0.002848 0.000000 0.000000 0.000000
# 3 -0.008003 -0.002848 0.014743 0.000000 0.000000 0.000000
# 4 0.000000 0.000000 0.000000 0.041306 0.000000 0.000000
# 5 0.000000 0.000000 0.000000 0.000000 -1.904032 0.000000
# 6 0.000000 0.000000 0.000000 0.000000 0.000000 -0.010717
#
#
# Mechanical properties :
#
#
# Convention : Reuss Voigt Hill
#
# Bulk Modulus (GPa) = 51.77695 61.13461 56.45578
# Shear Modulus (GPa) = -2.78599 -0.96757 -1.87678
#
# Velocity S-wave (km/s) = -1.41262 -0.83249 -1.15943
# Velocity P-wave (km/s) = 5.86731 6.54710 6.21651
#
# Compressibility (1/GPa) = 0.01931361
#
# Stress axis : x y z
#
# Youngs Moduli (GPa) = 42.99366 128.05791 67.83026
#
# Poissons Ratio (x) = 0.30709 0.54281
# Poissons Ratio (y) = 0.10310 0.19319
# Poissons Ratio (z) = 0.34406 0.36472
#
# Static dielectric constant tensor:
#      x y z
#    x 1.458420 0.000000 0.000000 
#    y 0.000000 1.460320 0.000000 
#    z 0.000000 0.000000 1.509190 
# 
# From -- ./inp_files/40090.got.cif
#   From: 2010.05.17/outbox.cif.g08.bks.cpg/sg67_21_cif.got.tgz:40090.got - 2010.06.03 18:28:57.
