data_PCOD9500884
_publ_section_title
;
Structure prediction by ZEFSAII (Michael W. Deem and Ramdas Pophale) SiO2 
 PCOD9500884
Probable space group: C M M A
;
_chemical_formula_sum "Si O2"
_cell_formula_units_Z 80
_cell_length_a 20.466220
_cell_length_b 23.684909
_cell_length_c 8.762802
_cell_angle_alpha 90.000000
_cell_angle_beta 90.000000
_cell_angle_gamma 90.000000
_cell_volume 4247.685534
_symmetry_space_group_name_H-M "C M M A"
_symmetry_group_IT_number 67
_symmetry_cell_setting 'orthorhombic'
loop_
_space_group_symop_operation_xyz
x,y,z
-x,1/2-y,z
x,-y,-z
-x,1/2+y,-z
-x,-y,-z
x,1/2+y,-z
-x,y,z
x,1/2-y,z
1/2+x,1/2+y,z
1/2-x,-y,z
1/2+x,1/2-y,-z
1/2-x,y,-z
1/2-x,1/2-y,-z
1/2+x,y,-z
1/2-x,1/2+y,z
1/2+x,-y,z
loop_
_atom_site_type_symbol
_atom_site_label
_atom_site_fract_x
_atom_site_fract_y
_atom_site_fract_z
Si Si1 0.179119 0.250000 0.088255
Si Si2 0.364045 0.631754 0.157357
Si Si3 0.000000 0.078129 0.168151
Si Si4 0.579058 0.250000 0.191409
Si Si5 0.623121 0.126531 0.211075
Si Si6 0.000000 0.947597 0.198490
Si Si7 0.248205 0.064509 0.317856
O O1 0.166510 0.306406 0.183676
O O2 0.250000 0.250000 0.000000
O O3 0.118995 0.250000 0.967675
O O4 0.436800 0.615207 0.207732
O O5 0.315865 0.589715 0.241277
O O6 0.366979 0.625949 0.973029
O O7 0.000000 0.014286 0.233265
O O8 0.000000 0.065031 0.985016
O O9 0.500000 0.250000 0.173751
O O10 0.602332 0.190009 0.260626
O O11 0.564936 0.083901 0.254603
O O12 0.690591 0.102929 0.272344
O O13 0.250000 0.063811 0.500000
O O14 0.250000 0.000000 0.262729
#
# Coordination Sequence:
#
# PCOD9500884 Si02
#       7
#     8  16   8   8  16   8  16
#     4  10  20  32  54  87 119 148 185 226 282 342
#     4  10  20  35  57  83 114 146 186 235 283 346
#     4   9  18  29  50  82 113 141 182 229 288 326
#     4  10  18  32  58  93 122 150 186 236 287 338
#     4  10  19  34  59  86 116 147 190 235 285 345
#     4   9  16  29  50  84 111 139 184 237 274 334
#     4  11  24  40  56  79 113 154 197 241 289 340
#
# _framework density 18.833786
#
# number of rings (size 3 to 8) (size 9 to 14) (size 15 to 20)
#    0.000    2.000    1.000    4.200    4.200    3.200 
#    0.000    3.000    0.000    3.600    0.000    0.000 
#    0.000    0.000    0.000    0.000    0.000    0.000 
#
# Total GULP energy -222862.393122 kJ/mol
# GULP energy per Si atom -5571.559828 kJ/mol
# Density = 1.879092 g / cm^3
# Si number density = 18.833786 Si / 1000 Ang^3
#
#
#
# Elastic Constant Matrix: (Units=GPa)
#
#
# Indices 1 2 3 4 5 6 
#
# 1 187.9467 87.9780 24.2130 0.0000 0.0000 0.0000
# 2 87.9780 171.9635 27.7192 0.0000 0.0000 0.0000
# 3 24.2130 27.7192 7.0825 0.0000 0.0000 0.0000
# 4 0.0000 0.0000 0.0000 9.0441 0.0000 0.0000
# 5 0.0000 0.0000 0.0000 0.0000 -15.8364 0.0000
# 6 0.0000 0.0000 0.0000 0.0000 0.0000 49.5391
#
#
#
# Elastic Compliance Matrix: (Units=1/GPa)
#
#
# Indices 1 2 3 4 5 6 
#
# 1 0.009574 0.001024 -0.036738 0.000000 0.000000 0.000000
# 2 0.001024 0.015863 -0.065583 0.000000 0.000000 0.000000
# 3 -0.036738 -0.065583 0.523466 0.000000 0.000000 0.000000
# 4 0.000000 0.000000 0.000000 0.110569 0.000000 0.000000
# 5 0.000000 0.000000 0.000000 0.000000 -0.063146 0.000000
# 6 0.000000 0.000000 0.000000 0.000000 0.000000 0.020186
#
#
# Mechanical properties :
#
#
# Convention : Reuss Voigt Hill
#
# Bulk Modulus (GPa) = 2.88760 71.86810 37.37785
# Shear Modulus (GPa) = 5.35020 23.68819 14.51920
#
# Velocity S-wave (km/s) = 1.68728 3.55032 2.77954
# Velocity P-wave (km/s) = 2.30920 7.41946 5.49458
#
# Compressibility (1/GPa) = 0.34630825
#
# Stress axis : x y z
#
# Youngs Moduli (GPa) = 104.44432 63.03966 1.91034
#
# Poissons Ratio (x) = -0.06452 0.07018
# Poissons Ratio (y) = -0.10690 0.12529
# Poissons Ratio (z) = 3.83708 4.13434
#
# Static dielectric constant tensor:
#      x y z
#    x 1.651530 0.000000 0.000000 
#    y 0.000000 1.711850 0.000000 
#    z 0.000000 0.000000 1.658960 
# 
# From -- ./inp_files/11207.got.cif
#   From: 2010.05.17/outbox.cif.g08.bks.cpg/sg67_6_cif.got.tgz:11207.got - 2010.06.03 18:28:57.
