data_PCOD9500324
_publ_section_title
;
Structure prediction by ZEFSAII (Michael W. Deem and Ramdas Pophale) SiO2 
 PCOD9500324
Probable space group: C M M A
;
_chemical_formula_sum "Si O2"
_cell_formula_units_Z 96
_cell_length_a 24.199718
_cell_length_b 8.642523
_cell_length_c 26.577516
_cell_angle_alpha 90.000000
_cell_angle_beta 90.000000
_cell_angle_gamma 90.000000
_cell_volume 5558.597624
_symmetry_space_group_name_H-M "C M M A"
_symmetry_group_IT_number 67
_symmetry_cell_setting 'orthorhombic'
loop_
_space_group_symop_operation_xyz
x,y,z
-x,1/2-y,z
x,-y,-z
-x,1/2+y,-z
-x,-y,-z
x,1/2+y,-z
-x,y,z
x,1/2-y,z
1/2+x,1/2+y,z
1/2-x,-y,z
1/2+x,1/2-y,-z
1/2-x,y,-z
1/2-x,1/2-y,-z
1/2+x,y,-z
1/2-x,1/2+y,z
1/2+x,-y,z
loop_
_atom_site_type_symbol
_atom_site_label
_atom_site_fract_x
_atom_site_fract_y
_atom_site_fract_z
Si Si1 0.885665 0.564205 0.054627
Si Si2 0.000000 0.434887 0.215290
Si Si3 0.312327 0.936116 0.656935
Si Si4 0.688431 0.436593 0.148979
Si Si5 0.812826 0.434937 0.448325
Si Si6 0.383296 0.563372 0.754615
Si Si7 0.000000 0.563984 0.902492
O O1 0.887857 0.750000 0.053151
O O2 0.842248 0.516278 0.097671
O O3 0.945421 0.500708 0.070963
O O4 0.870817 0.500000 0.000000
O O5 0.055476 0.496786 0.240981
O O6 0.000000 0.483899 0.156337
O O7 0.000000 0.250000 0.216293
O O8 0.309215 0.750000 0.653210
O O9 0.350337 0.979496 0.704165
O O10 0.250000 0.000000 0.664247
O O11 0.335763 0.003925 0.604595
O O12 0.690453 0.250000 0.150078
O O13 0.750000 0.500000 0.152019
O O14 0.651919 0.487921 0.196689
O O15 0.838501 0.500000 0.500000
O O16 0.811642 0.250000 0.449546
O O17 0.750000 0.500000 0.447771
O O18 0.386717 0.750000 0.755999
O O19 0.000000 0.750000 0.905177
#
# Coordination Sequence:
#
# PCOD9500324 Si02
#       7
#    16   8  16  16  16  16   8
#     4  11  23  39  59  81 108 139 174 215 263 317
#     4  11  23  36  58  85 106 133 172 221 266 311
#     4  10  19  31  50  77 109 145 181 219 263 314
#     4  10  22  38  57  79 105 141 176 212 259 312
#     4  10  17  27  44  68 103 143 183 224 264 310
#     4  10  21  38  57  78 107 141 177 215 264 321
#     4  11  22  38  59  85 108 133 171 217 268 315
#
# _framework density 17.270541999999999
#
# number of rings (size 3 to 8) (size 9 to 14) (size 15 to 20)
#    0.000    1.667    1.667    5.250    0.000    4.333 
#    0.000    1.667    0.000    0.000    0.000    0.583 
#    0.000    0.000    0.000    0.000    0.000    0.000 
#
# Total GULP energy -268039.980314 kJ/mol
# GULP energy per Si atom -5584.166257 kJ/mol
# Density = 1.723123 g / cm^3
# Si number density = 17.270542 Si / 1000 Ang^3
#
#
#
# Elastic Constant Matrix: (Units=GPa)
#
#
# Indices 1 2 3 4 5 6 
#
# 1 121.1517 29.9196 78.2983 0.0000 0.0000 0.0000
# 2 29.9196 62.2302 54.7276 0.0000 0.0000 0.0000
# 3 78.2983 54.7276 188.2391 0.0000 0.0000 0.0000
# 4 0.0000 0.0000 0.0000 159.6900 0.0000 0.0000
# 5 0.0000 0.0000 0.0000 0.0000 -14.3263 0.0000
# 6 0.0000 0.0000 0.0000 0.0000 0.0000 27.0916
#
#
#
# Elastic Compliance Matrix: (Units=1/GPa)
#
#
# Indices 1 2 3 4 5 6 
#
# 1 0.011431 -0.001766 -0.004241 0.000000 0.000000 0.000000
# 2 -0.001766 0.021862 -0.005622 0.000000 0.000000 0.000000
# 3 -0.004241 -0.005622 0.008711 0.000000 0.000000 0.000000
# 4 0.000000 0.000000 0.000000 0.006262 0.000000 0.000000
# 5 0.000000 0.000000 0.000000 0.000000 -0.069801 0.000000
# 6 0.000000 0.000000 0.000000 0.000000 0.000000 0.036912
#
#
# Mechanical properties :
#
#
# Convention : Reuss Voigt Hill
#
# Bulk Modulus (GPa) = 53.34281 77.50131 65.42206
# Shear Modulus (GPa) = 111.39809 48.40275 79.90042
#
# Velocity S-wave (km/s) = 8.04001 5.29972 6.80914
# Velocity P-wave (km/s) = 10.82325 9.07864 9.98910
#
# Compressibility (1/GPa) = 0.01874667
#
# Stress axis : x y z
#
# Youngs Moduli (GPa) = 87.47796 45.74099 114.79708
#
# Poissons Ratio (x) = 0.08078 0.48691
# Poissons Ratio (y) = 0.15448 0.64534
# Poissons Ratio (z) = 0.37104 0.25713
#
# Static dielectric constant tensor:
#      x y z
#    x 1.543860 0.000000 0.000000 
#    y 0.000000 1.582210 0.000000 
#    z 0.000000 0.000000 1.619510 
# 
# From -- ./inp_files/42609.got.cif
#   From: 2010.05.17/outbox.cif.g08.bks.cpg/sg67_22_cif.got.tgz:42609.got - 2010.06.03 18:28:57.
