data_PCOD9500156
_publ_section_title
;
Structure prediction by ZEFSAII (Michael W. Deem and Ramdas Pophale) SiO2 
 PCOD9500156
Probable space group: C M M A
;
_chemical_formula_sum "Si O2"
_cell_formula_units_Z 84
_cell_length_a 20.187793
_cell_length_b 17.257303
_cell_length_c 11.612416
_cell_angle_alpha 90.000000
_cell_angle_beta 90.000000
_cell_angle_gamma 90.000000
_cell_volume 4045.613155
_symmetry_space_group_name_H-M "C M M A"
_symmetry_group_IT_number 67
_symmetry_cell_setting 'orthorhombic'
loop_
_space_group_symop_operation_xyz
x,y,z
-x,1/2-y,z
x,-y,-z
-x,1/2+y,-z
-x,-y,-z
x,1/2+y,-z
-x,y,z
x,1/2-y,z
1/2+x,1/2+y,z
1/2-x,-y,z
1/2+x,1/2-y,-z
1/2-x,y,-z
1/2-x,1/2-y,-z
1/2+x,y,-z
1/2-x,1/2+y,z
1/2+x,-y,z
loop_
_atom_site_type_symbol
_atom_site_label
_atom_site_fract_x
_atom_site_fract_y
_atom_site_fract_z
Si Si1 0.500000 0.550454 0.884684
Si Si2 0.240704 0.344042 0.865765
Si Si3 0.500000 0.250000 0.237042
Si Si4 0.000000 0.657601 0.914994
Si Si5 0.079889 0.843131 0.499115
Si Si6 0.621432 0.155445 0.755131
Si Si7 0.607070 0.609782 0.740891
O O1 0.564207 0.543921 0.804412
O O2 0.500000 0.500000 0.000000
O O3 0.500000 0.632555 0.953499
O O4 0.235461 0.250000 0.860500
O O5 0.306427 0.368782 0.797357
O O6 0.175309 0.378002 0.807318
O O7 0.250000 0.364708 0.000000
O O8 0.558434 0.316644 0.245886
O O9 0.935038 0.632179 0.845923
O O10 0.000000 0.750000 0.915474
O O11 0.094103 0.750000 0.486608
O O12 0.103031 0.867702 0.625799
O O13 0.113214 0.892382 0.397195
O O14 0.000000 0.850549 0.491591
O O15 0.620787 0.250000 0.755247
#
# Coordination Sequence:
#
# PCOD9500156 Si02
#       7
#     8  16   4   8  16  16  16
#     4  11  25  37  53  80 110 140 189 248 287 330
#     4  10  19  30  45  75 118 147 182 232 280 338
#     4  10  16  28  48  78  90 138 192 228 262 336
#     4  10  19  33  57  79 106 145 184 217 272 345
#     4  10  15  27  49  78 115 146 188 235 276 342
#     4   9  18  29  48  82 116 147 177 232 290 325
#     4  11  19  32  53  72 107 146 192 225 286 339
#
# _framework density 20.76323
#
# number of rings (size 3 to 8) (size 9 to 14) (size 15 to 20)
#    0.000    1.905    4.762    1.143    2.667    2.286 
#    0.000    2.857    0.000    7.429    0.000    0.000 
#    0.000    6.095    0.000    0.190    0.000    0.000 
#
# Total GULP energy -233891.239861 kJ/mol
# GULP energy per Si atom -5568.839044 kJ/mol
# Density = 2.071597 g / cm^3
# Si number density = 20.763230 Si / 1000 Ang^3
#
#
#
# Elastic Constant Matrix: (Units=GPa)
#
#
# Indices 1 2 3 4 5 6 
#
# 1 142.3082 -4.7094 57.9961 0.0000 0.0000 0.0000
# 2 -4.7094 21.0652 -3.5889 0.0000 0.0000 0.0000
# 3 57.9961 -3.5889 178.9700 0.0000 0.0000 0.0000
# 4 0.0000 0.0000 0.0000 15.3101 0.0000 0.0000
# 5 0.0000 0.0000 0.0000 0.0000 37.8013 0.0000
# 6 0.0000 0.0000 0.0000 0.0000 0.0000 -5.7893
#
#
#
# Elastic Compliance Matrix: (Units=1/GPa)
#
#
# Indices 1 2 3 4 5 6 
#
# 1 0.008136 0.001374 -0.002609 0.000000 0.000000 0.000000
# 2 0.001374 0.047866 0.000515 0.000000 0.000000 0.000000
# 3 -0.002609 0.000515 0.006443 0.000000 0.000000 0.000000
# 4 0.000000 0.000000 0.000000 0.065317 0.000000 0.000000
# 5 0.000000 0.000000 0.000000 0.000000 0.026454 0.000000
# 6 0.000000 0.000000 0.000000 0.000000 0.000000 -0.172731
#
#
# Mechanical properties :
#
#
# Convention : Reuss Voigt Hill
#
# Bulk Modulus (GPa) = 16.39197 49.08212 32.73705
# Shear Modulus (GPa) = 1533.77688 28.97410 781.37549
#
# Velocity S-wave (km/s) = 27.20850 3.73963 19.42018
# Velocity P-wave (km/s) = 31.54333 6.50667 22.77409
#
# Compressibility (1/GPa) = 0.06100547
#
# Stress axis : x y z
#
# Youngs Moduli (GPa) = 122.91517 20.89144 155.20096
#
# Poissons Ratio (x) = -0.02871 0.40490
# Poissons Ratio (y) = -0.16893 -0.07985
# Poissons Ratio (z) = 0.32067 -0.01075
#
# Static dielectric constant tensor:
#      x y z
#    x 1.689880 0.000000 0.000000 
#    y 0.000000 1.690550 0.000000 
#    z 0.000000 0.000000 1.772460 
# 
# From -- ./inp_files/20809.got.cif
#   From: 2010.05.17/outbox.cif.g08.bks.cpg/sg67_11_cif.got.tgz:20809.got - 2010.06.03 18:28:57.
