data_PCOD9500902
_publ_section_title
;
Structure prediction by ZEFSAII (Michael W. Deem and Ramdas Pophale) SiO2 
 PCOD9500902
Probable space group: C M M A
;
_chemical_formula_sum "Si O2"
_cell_formula_units_Z 68
_cell_length_a 22.333848
_cell_length_b 16.163011
_cell_length_c 8.989924
_cell_angle_alpha 90.000000
_cell_angle_beta 90.000000
_cell_angle_gamma 90.000000
_cell_volume 3245.202821
_symmetry_space_group_name_H-M "C M M A"
_symmetry_group_IT_number 67
_symmetry_cell_setting 'orthorhombic'
loop_
_space_group_symop_operation_xyz
x,y,z
-x,1/2-y,z
x,-y,-z
-x,1/2+y,-z
-x,-y,-z
x,1/2+y,-z
-x,y,z
x,1/2-y,z
1/2+x,1/2+y,z
1/2-x,-y,z
1/2+x,1/2-y,-z
1/2-x,y,-z
1/2-x,1/2-y,-z
1/2+x,y,-z
1/2-x,1/2+y,z
1/2+x,-y,z
loop_
_atom_site_type_symbol
_atom_site_label
_atom_site_fract_x
_atom_site_fract_y
_atom_site_fract_z
Si Si1 0.000000 0.879605 0.539866
Si Si2 0.000000 0.155812 0.126520
Si Si3 0.134619 0.250000 0.877981
Si Si4 0.370871 0.588443 0.072789
Si Si5 0.500000 0.750000 0.726438
Si Si6 0.365083 0.419114 0.580227
Si Si7 0.316994 0.750000 0.557197
O O1 0.000000 0.828026 0.387202
O O2 0.063353 0.924305 0.556698
O O3 0.000000 0.832661 0.696864
O O4 0.942270 0.104559 0.079751
O O5 0.000000 0.250000 0.068693
O O6 0.065190 0.250000 0.811505
O O7 0.175988 0.250000 0.733594
O O8 0.148038 0.331623 0.976451
O O9 0.350394 0.586591 0.244664
O O10 0.357118 0.500000 0.000000
O O11 0.338210 0.500000 0.500000
O O12 0.347239 0.333056 0.504751
O O13 0.250000 0.750000 0.500000
#
# Coordination Sequence:
#
# PCOD9500902 Si02
#       7
#     8   8   8  16   4  16   8
#     4  10  19  34  64  98 132 170 218 260 318 403
#     4  10  18  33  54  87 133 177 207 251 318 389
#     4  12  23  40  64  96 137 165 215 273 332 385
#     4  11  23  38  60  94 131 170 210 262 327 391
#     4  12  20  32  64  94 138 170 216 260 338 390
#     4  11  23  44  69  97 133 174 217 266 324 401
#     4  12  27  46  70  94 122 173 228 276 327 387
#
# _framework density 20.954006
#
# number of rings (size 3 to 8) (size 9 to 14) (size 15 to 20)
#    0.000    0.941    4.118    3.529    3.294    0.471 
#    0.000    2.353    0.000    1.412    0.000    0.000 
#    0.000    0.000    0.000    0.000    0.000    0.000 
#
# Total GULP energy -189648.390511 kJ/mol
# GULP energy per Si atom -5577.893839 kJ/mol
# Density = 2.090631 g / cm^3
# Si number density = 20.954006 Si / 1000 Ang^3
#
#
#
# Elastic Constant Matrix: (Units=GPa)
#
#
# Indices 1 2 3 4 5 6 
#
# 1 39.0187 8.1176 29.5028 0.0000 0.0000 0.0000
# 2 8.1176 190.3280 115.9131 0.0000 0.0000 0.0000
# 3 29.5028 115.9131 195.1686 0.0000 0.0000 0.0000
# 4 0.0000 0.0000 0.0000 63.3434 0.0000 0.0000
# 5 0.0000 0.0000 0.0000 0.0000 -2.5230 0.0000
# 6 0.0000 0.0000 0.0000 0.0000 0.0000 -112.0155
#
#
#
# Elastic Compliance Matrix: (Units=1/GPa)
#
#
# Indices 1 2 3 4 5 6 
#
# 1 0.029559 0.002288 -0.005827 0.000000 0.000000 0.000000
# 2 0.002288 0.008409 -0.005340 0.000000 0.000000 0.000000
# 3 -0.005827 -0.005340 0.009176 0.000000 0.000000 0.000000
# 4 0.000000 0.000000 0.000000 0.015787 0.000000 0.000000
# 5 0.000000 0.000000 0.000000 0.000000 -0.396347 0.000000
# 6 0.000000 0.000000 0.000000 0.000000 0.000000 -0.008927
#
#
# Mechanical properties :
#
#
# Convention : Reuss Voigt Hill
#
# Bulk Modulus (GPa) = 34.03029 81.28693 57.65861
# Shear Modulus (GPa) = -15.88356 7.82643 -4.02856
#
# Velocity S-wave (km/s) = -2.75620 1.93473 -1.38807
# Velocity P-wave (km/s) = 2.47928 6.62330 5.00075
#
# Compressibility (1/GPa) = 0.02938558
#
# Stress axis : x y z
#
# Youngs Moduli (GPa) = 33.83090 118.92649 108.97920
#
# Poissons Ratio (x) = -0.27213 0.63505
# Poissons Ratio (y) = -0.07741 0.58193
# Poissons Ratio (z) = 0.19714 0.63505
#
# Static dielectric constant tensor:
#      x y z
#    x 1.673510 0.000000 0.000000 
#    y 0.000000 1.765640 0.000000 
#    z 0.000000 0.000000 1.758700 
# 
# From -- ./inp_files/10836.got.cif
#   From: 2010.05.17/outbox.cif.g08.bks.cpg/sg67_6_cif.got.tgz:10836.got - 2010.06.03 18:28:57.
