data_PCOD9500238
_publ_section_title
;
Structure prediction by ZEFSAII (Michael W. Deem and Ramdas Pophale) SiO2 
 PCOD9500238
Probable space group: C M M A
;
_chemical_formula_sum "Si O2"
_cell_formula_units_Z 96
_cell_length_a 15.428435
_cell_length_b 14.446654
_cell_length_c 22.047728
_cell_angle_alpha 90.000000
_cell_angle_beta 90.000000
_cell_angle_gamma 90.000000
_cell_volume 4914.201827
_symmetry_space_group_name_H-M "C M M A"
_symmetry_group_IT_number 67
_symmetry_cell_setting 'orthorhombic'
loop_
_space_group_symop_operation_xyz
x,y,z
-x,1/2-y,z
x,-y,-z
-x,1/2+y,-z
-x,-y,-z
x,1/2+y,-z
-x,y,z
x,1/2-y,z
1/2+x,1/2+y,z
1/2-x,-y,z
1/2+x,1/2-y,-z
1/2-x,y,-z
1/2-x,1/2-y,-z
1/2+x,y,-z
1/2-x,1/2+y,z
1/2+x,-y,z
loop_
_atom_site_type_symbol
_atom_site_label
_atom_site_fract_x
_atom_site_fract_y
_atom_site_fract_z
Si Si1 0.151084 0.854756 0.479294
Si Si2 0.099807 0.525120 0.592924
Si Si3 0.693939 0.361496 0.059542
Si Si4 0.000000 0.399154 0.972630
Si Si5 0.176501 0.363017 0.160949
Si Si6 0.500000 0.352434 0.893947
Si Si7 0.604086 0.639941 0.289296
O O1 0.119892 0.750000 0.466528
O O2 0.250000 0.848667 0.500000
O O3 0.104249 0.904191 0.536038
O O4 0.146417 0.929894 0.425461
O O5 0.129231 0.579694 0.652445
O O6 0.000000 0.499604 0.602266
O O7 0.697852 0.250000 0.057385
O O8 0.592259 0.385058 0.059133
O O9 0.742042 0.392997 0.120852
O O10 0.750000 0.392553 0.000000
O O11 0.000000 0.500000 0.000000
O O12 0.000000 0.341299 0.034508
O O13 0.178134 0.250000 0.158793
O O14 0.089472 0.396641 0.126744
O O15 0.161118 0.386846 0.230915
O O16 0.500000 0.250000 0.864603
O O17 0.500000 0.627091 0.276869
O O18 0.615127 0.750000 0.301266
#
# Coordination Sequence:
#
# PCOD9500238 Si02
#       7
#    16  16  16   8  16   8  16
#     4  10  20  34  52  74 110 156 194 233 281 332
#     4  10  19  30  50  82 117 149 187 234 283 336
#     4  10  19  33  55  80 105 142 188 231 281 343
#     4  12  24  34  48  74 116 148 173 227 290 347
#     4   9  16  28  51  80 110 143 186 233 282 342
#     4  10  16  30  54  78 104 141 183 228 280 337
#     4   9  16  27  47  81 120 150 181 231 291 351
#
# _framework density 19.535218
#
# number of rings (size 3 to 8) (size 9 to 14) (size 15 to 20)
#    0.000    2.167    2.500    3.250    0.000    2.333 
#    0.000    0.000    0.000    4.000    0.000    0.000 
#   10.000    4.000    8.000    0.000    0.000    0.167 
#
# Total GULP energy -267580.624710 kJ/mol
# GULP energy per Si atom -5574.596348 kJ/mol
# Density = 1.949075 g / cm^3
# Si number density = 19.535218 Si / 1000 Ang^3
#
#
#
# Elastic Constant Matrix: (Units=GPa)
#
#
# Indices 1 2 3 4 5 6 
#
# 1 114.7557 29.5386 66.5887 0.0000 0.0000 0.0000
# 2 29.5386 116.6790 55.8427 0.0000 0.0000 0.0000
# 3 66.5887 55.8427 144.7174 0.0000 0.0000 0.0000
# 4 0.0000 0.0000 0.0000 13.5228 0.0000 0.0000
# 5 0.0000 0.0000 0.0000 0.0000 27.6980 0.0000
# 6 0.0000 0.0000 0.0000 0.0000 0.0000 13.6398
#
#
#
# Elastic Compliance Matrix: (Units=1/GPa)
#
#
# Indices 1 2 3 4 5 6 
#
# 1 0.011910 -0.000481 -0.005295 0.000000 0.000000 0.000000
# 2 -0.000481 0.010531 -0.003842 0.000000 0.000000 0.000000
# 3 -0.005295 -0.003842 0.010829 0.000000 0.000000 0.000000
# 4 0.000000 0.000000 0.000000 0.073949 0.000000 0.000000
# 5 0.000000 0.000000 0.000000 0.000000 0.036104 0.000000
# 6 0.000000 0.000000 0.000000 0.000000 0.000000 0.073315
#
#
# Mechanical properties :
#
#
# Convention : Reuss Voigt Hill
#
# Bulk Modulus (GPa) = 71.25462 75.56579 73.41020
# Shear Modulus (GPa) = 20.78545 25.91758 23.35152
#
# Velocity S-wave (km/s) = 3.26544 3.64636 3.46114
# Velocity P-wave (km/s) = 7.12542 7.51623 7.32343
#
# Compressibility (1/GPa) = 0.01403418
#
# Stress axis : x y z
#
# Youngs Moduli (GPa) = 83.96096 94.95511 92.34576
#
# Poissons Ratio (x) = 0.04570 0.48893
# Poissons Ratio (y) = 0.04040 0.35482
# Poissons Ratio (z) = 0.44454 0.36485
#
# Static dielectric constant tensor:
#      x y z
#    x 1.758580 0.000000 0.000000 
#    y 0.000000 1.692630 0.000000 
#    z 0.000000 0.000000 1.696950 
# 
# From -- ./inp_files/38526.got.cif
#   From: 2010.05.17/outbox.cif.g08.bks.cpg/sg67_20_cif.got.tgz:38526.got - 2010.06.03 18:28:57.
