data_PCOD9500521
_publ_section_title
;
Structure prediction by ZEFSAII (Michael W. Deem and Ramdas Pophale) SiO2 
 PCOD9500521
Probable space group: C M M A
;
_chemical_formula_sum "Si O2"
_cell_formula_units_Z 80
_cell_length_a 15.532846
_cell_length_b 18.004139
_cell_length_c 15.885995
_cell_angle_alpha 90.000000
_cell_angle_beta 90.000000
_cell_angle_gamma 90.000000
_cell_volume 4442.606168
_symmetry_space_group_name_H-M "C M M A"
_symmetry_group_IT_number 67
_symmetry_cell_setting 'orthorhombic'
loop_
_space_group_symop_operation_xyz
x,y,z
-x,1/2-y,z
x,-y,-z
-x,1/2+y,-z
-x,-y,-z
x,1/2+y,-z
-x,y,z
x,1/2-y,z
1/2+x,1/2+y,z
1/2-x,-y,z
1/2+x,1/2-y,-z
1/2-x,y,-z
1/2-x,1/2-y,-z
1/2+x,y,-z
1/2-x,1/2+y,z
1/2+x,-y,z
loop_
_atom_site_type_symbol
_atom_site_label
_atom_site_fract_x
_atom_site_fract_y
_atom_site_fract_z
Si Si1 0.644674 0.413708 0.994973
Si Si2 0.859590 0.122816 0.824508
Si Si3 0.000000 0.477554 0.596496
Si Si4 0.660601 0.835869 0.177960
Si Si5 0.653990 0.021272 0.716175
Si Si6 0.500000 0.669321 0.691266
O O1 0.624592 0.370212 0.909359
O O2 0.617848 0.500000 0.000000
O O3 0.750000 0.414007 0.000000
O O4 0.610143 0.374823 0.079320
O O5 0.764858 0.158006 0.824871
O O6 0.919513 0.158560 0.754170
O O7 0.855731 0.036138 0.795083
O O8 0.000000 0.500000 0.500000
O O9 0.916009 0.506186 0.645556
O O10 0.000000 0.390374 0.617624
O O11 0.635574 0.750000 0.189648
O O12 0.640372 0.895575 0.250390
O O13 0.750000 0.000000 0.685498
O O14 0.500000 0.750000 0.653942
#
# Coordination Sequence:
#
# PCOD9500521 Si02
#       6
#    16  16   8  16  16   8
#     4   9  15  26  45  68 101 142 180 218 256 295
#     4   9  17  30  49  70 101 143 179 212 257 306
#     4  10  22  40  61  83 102 132 172 204 262 344
#     4  10  18  28  48  76 104 138 182 220 252 296
#     4   9  18  35  56  77 105 141 173 210 260 316
#     4  10  20  34  52  76 103 127 166 223 268 301
#
# _framework density 18.007448
#
# number of rings (size 3 to 8) (size 9 to 14) (size 15 to 20)
#    0.000    2.600    2.000    0.600    0.000    4.800 
#    0.000    3.000    0.000    0.000    0.000    8.400 
#    0.000    0.000    0.000    0.000    0.000    0.000 
#
# Total GULP energy -222908.399334 kJ/mol
# GULP energy per Si atom -5572.709983 kJ/mol
# Density = 1.796646 g / cm^3
# Si number density = 18.007448 Si / 1000 Ang^3
#
#
#
# Elastic Constant Matrix: (Units=GPa)
#
#
# Indices 1 2 3 4 5 6 
#
# 1 52.8720 23.8823 48.9167 0.0000 0.0000 0.0000
# 2 23.8823 165.5162 61.8117 0.0000 0.0000 0.0000
# 3 48.9167 61.8117 119.9280 0.0000 0.0000 0.0000
# 4 0.0000 0.0000 0.0000 9.1568 0.0000 0.0000
# 5 0.0000 0.0000 0.0000 0.0000 11.3385 0.0000
# 6 0.0000 0.0000 0.0000 0.0000 0.0000 3.4771
#
#
#
# Elastic Compliance Matrix: (Units=1/GPa)
#
#
# Indices 1 2 3 4 5 6 
#
# 1 0.030389 0.000302 -0.012551 0.000000 0.000000 0.000000
# 2 0.000302 0.007485 -0.003981 0.000000 0.000000 0.000000
# 3 -0.012551 -0.003981 0.015510 0.000000 0.000000 0.000000
# 4 0.000000 0.000000 0.000000 0.109208 0.000000 0.000000
# 5 0.000000 0.000000 0.000000 0.000000 0.088195 0.000000
# 6 0.000000 0.000000 0.000000 0.000000 0.000000 0.287592
#
#
# Mechanical properties :
#
#
# Convention : Reuss Voigt Hill
#
# Bulk Modulus (GPa) = 47.79205 67.50418 57.64811
# Shear Modulus (GPa) = 8.65332 18.37487 13.51410
#
# Velocity S-wave (km/s) = 2.19450 3.19784 2.74245
# Velocity P-wave (km/s) = 5.74621 7.15563 6.48930
#
# Compressibility (1/GPa) = 0.02092398
#
# Stress axis : x y z
#
# Youngs Moduli (GPa) = 32.90645 133.60436 64.47637
#
# Poissons Ratio (x) = -0.04039 0.80925
# Poissons Ratio (y) = -0.00995 0.25668
# Poissons Ratio (z) = 0.41301 0.53188
#
# Static dielectric constant tensor:
#      x y z
#    x 1.656730 0.000000 0.000000 
#    y 0.000000 1.645810 0.000000 
#    z 0.000000 0.000000 1.568160 
# 
# From -- ./inp_files/28424.got.cif
#   From: 2010.05.17/outbox.cif.g08.bks.cpg/sg67_15_cif.got.tgz:28424.got - 2010.06.03 18:28:57.
