data_PCOD9500796
_publ_section_title
;
Structure prediction by ZEFSAII (Michael W. Deem and Ramdas Pophale) SiO2 
 PCOD9500796
Probable space group: C M M A
;
_chemical_formula_sum "Si O2"
_cell_formula_units_Z 64
_cell_length_a 22.110299
_cell_length_b 10.414150
_cell_length_c 14.119314
_cell_angle_alpha 90.000000
_cell_angle_beta 90.000000
_cell_angle_gamma 90.000000
_cell_volume 3251.112823
_symmetry_space_group_name_H-M "C M M A"
_symmetry_group_IT_number 67
_symmetry_cell_setting 'orthorhombic'
loop_
_space_group_symop_operation_xyz
x,y,z
-x,1/2-y,z
x,-y,-z
-x,1/2+y,-z
-x,-y,-z
x,1/2+y,-z
-x,y,z
x,1/2-y,z
1/2+x,1/2+y,z
1/2-x,-y,z
1/2+x,1/2-y,-z
1/2-x,y,-z
1/2-x,1/2-y,-z
1/2+x,y,-z
1/2-x,1/2+y,z
1/2+x,-y,z
loop_
_atom_site_type_symbol
_atom_site_label
_atom_site_fract_x
_atom_site_fract_y
_atom_site_fract_z
Si Si1 0.250000 0.000000 0.718638
Si Si2 0.235337 0.750000 0.392356
Si Si3 0.928423 0.393798 0.071848
Si Si4 0.389358 0.489701 0.725643
Si Si5 0.429404 0.750000 0.398187
Si Si6 0.907882 0.250000 0.623366
O O1 0.240273 0.875129 0.656475
O O2 0.181169 0.016406 0.757933
O O3 0.250000 0.750000 0.500000
O O4 0.164043 0.750000 0.383969
O O5 0.902430 0.250000 0.060465
O O6 0.920457 0.440152 0.179129
O O7 0.000000 0.384738 0.052453
O O8 0.902607 0.500000 0.000000
O O9 0.398039 0.376897 0.646937
O O10 0.419703 0.618611 0.681575
O O11 0.500000 0.750000 0.368685
O O12 0.428717 0.750000 0.513509
#
# Coordination Sequence:
#
# PCOD9500796 Si02
#       6
#     8   8  16  16   8   8
#     4  10  21  34  57  84 116 162 204 246 300 360
#     4  10  18  32  52  78 111 156 211 253 287 336
#     4  10  22  41  66  92 117 153 201 254 311 368
#     4  11  22  40  61  88 127 163 205 256 306 365
#     4  12  24  40  61  88 125 170 213 254 309 362
#     4  10  24  36  53  88 125 164 203 245 299 366
#
# _framework density 19.685566999999999
#
# number of rings (size 3 to 8) (size 9 to 14) (size 15 to 20)
#    0.000    1.500    1.250    4.125    1.750    7.000 
#    0.000    0.625    0.000    1.500    0.000    0.000 
#    0.000    0.000    0.000    0.000    0.000    0.000 
#
# Total GULP energy -178210.442011 kJ/mol
# GULP energy per Si atom -5569.076313 kJ/mol
# Density = 1.964076 g / cm^3
# Si number density = 19.685567 Si / 1000 Ang^3
#
#
#
# Elastic Constant Matrix: (Units=GPa)
#
#
# Indices 1 2 3 4 5 6 
#
# 1 69.9666 2.3457 -11.0707 0.0000 0.0000 0.0000
# 2 2.3457 192.1763 68.0898 0.0000 0.0000 0.0000
# 3 -11.0707 68.0898 90.3491 0.0000 0.0000 0.0000
# 4 0.0000 0.0000 0.0000 11.1415 0.0000 0.0000
# 5 0.0000 0.0000 0.0000 0.0000 -28.8336 0.0000
# 6 0.0000 0.0000 0.0000 0.0000 0.0000 20.8600
#
#
#
# Elastic Compliance Matrix: (Units=1/GPa)
#
#
# Indices 1 2 3 4 5 6 
#
# 1 0.014749 -0.001119 0.002651 0.000000 0.000000 0.000000
# 2 -0.001119 0.007184 -0.005551 0.000000 0.000000 0.000000
# 3 0.002651 -0.005551 0.015577 0.000000 0.000000 0.000000
# 4 0.000000 0.000000 0.000000 0.089755 0.000000 0.000000
# 5 0.000000 0.000000 0.000000 0.000000 -0.034682 0.000000
# 6 0.000000 0.000000 0.000000 0.000000 0.000000 0.047939
#
#
# Mechanical properties :
#
#
# Convention : Reuss Voigt Hill
#
# Bulk Modulus (GPa) = 33.93200 52.35796 43.14498
# Shear Modulus (GPa) = 31.56870 20.17540 25.87205
#
# Velocity S-wave (km/s) = 4.00890 3.20485 3.62921
# Velocity P-wave (km/s) = 6.22116 6.35214 6.28699
#
# Compressibility (1/GPa) = 0.02947071
#
# Stress axis : x y z
#
# Youngs Moduli (GPa) = 67.79896 139.19650 64.19885
#
# Poissons Ratio (x) = 0.15579 -0.17018
# Poissons Ratio (y) = 0.07588 0.35639
# Poissons Ratio (z) = -0.17972 0.77272
#
# Static dielectric constant tensor:
#      x y z
#    x 1.799470 0.000000 0.000000 
#    y 0.000000 1.833380 0.000000 
#    z 0.000000 0.000000 1.634960 
# 
# From -- ./inp_files/29795.got.cif
#   From: 2010.05.17/outbox.cif.g08.bks.cpg/sg67_15_cif.got.tgz:29795.got - 2010.06.03 18:28:57.
