data_PCOD9500425
_publ_section_title
;
Structure prediction by ZEFSAII (Michael W. Deem and Ramdas Pophale) SiO2 
 PCOD9500425
Probable space group: C M M A
;
_chemical_formula_sum "Si O2"
_cell_formula_units_Z 100
_cell_length_a 17.450250
_cell_length_b 24.584226
_cell_length_c 10.392883
_cell_angle_alpha 90.000000
_cell_angle_beta 90.000000
_cell_angle_gamma 90.000000
_cell_volume 4458.556054
_symmetry_space_group_name_H-M "C M M A"
_symmetry_group_IT_number 67
_symmetry_cell_setting 'orthorhombic'
loop_
_space_group_symop_operation_xyz
x,y,z
-x,1/2-y,z
x,-y,-z
-x,1/2+y,-z
-x,-y,-z
x,1/2+y,-z
-x,y,z
x,1/2-y,z
1/2+x,1/2+y,z
1/2-x,-y,z
1/2+x,1/2-y,-z
1/2-x,y,-z
1/2-x,1/2-y,-z
1/2+x,y,-z
1/2-x,1/2+y,z
1/2+x,-y,z
loop_
_atom_site_type_symbol
_atom_site_label
_atom_site_fract_x
_atom_site_fract_y
_atom_site_fract_z
Si Si1 0.500000 0.250000 0.327255
Si Si2 0.090560 0.161896 0.086324
Si Si3 0.372450 0.848242 0.637526
Si Si4 0.091602 0.524632 0.367241
Si Si5 0.093147 0.964145 0.883475
Si Si6 0.201737 0.811830 0.119000
Si Si7 0.589190 0.313558 0.628067
O O1 0.433290 0.200542 0.331611
O O2 0.108901 0.098309 0.089753
O O3 0.118299 0.182559 0.225875
O O4 0.000000 0.170481 0.089013
O O5 0.120493 0.187851 0.955374
O O6 0.397662 0.910929 0.652650
O O7 0.306269 0.839351 0.743324
O O8 0.361217 0.840890 0.483688
O O9 0.122749 0.500000 0.500000
O O10 0.122275 0.488889 0.249295
O O11 0.000000 0.516202 0.369650
O O12 0.000000 0.968290 0.881116
O O13 0.122441 0.000000 0.000000
O O14 0.228143 0.750000 0.137479
O O15 0.250000 0.836724 0.000000
O O16 0.500000 0.335499 0.622272
O O17 0.583298 0.250000 0.596637
#
# Coordination Sequence:
#
# PCOD9500425 Si02
#       7
#     4  16  16  16  16  16  16
#     4  12  20  32  56  98 120 164 216 256 298 384
#     4  10  21  34  58  83 113 149 194 250 306 369
#     4  12  20  35  58  85 126 162 207 251 306 372
#     4  10  19  30  51  85 123 154 187 239 303 355
#     4   9  17  30  45  74 108 142 182 229 288 345
#     4  11  25  41  56  83 121 160 206 258 312 370
#     4  10  17  30  49  83 114 139 178 238 295 346
#
# _framework density 22.428787
#
# number of rings (size 3 to 8) (size 9 to 14) (size 15 to 20)
#    0.000    1.600    3.200    2.400    1.120    4.800 
#    0.000    0.800    0.000    7.200    0.000    1.120 
#    0.000    0.000    0.000    0.000    0.000    0.000 
#
# Total GULP energy -278396.821485 kJ/mol
# GULP energy per Si atom -5567.936430 kJ/mol
# Density = 2.237774 g / cm^3
# Si number density = 22.428787 Si / 1000 Ang^3
#
#
#
# Elastic Constant Matrix: (Units=GPa)
#
#
# Indices 1 2 3 4 5 6 
#
# 1 21.1397 13.8532 12.6535 0.0000 0.0000 0.0000
# 2 13.8532 54.6292 19.9517 0.0000 0.0000 0.0000
# 3 12.6535 19.9517 131.5069 0.0000 0.0000 0.0000
# 4 0.0000 0.0000 0.0000 46.2504 0.0000 0.0000
# 5 0.0000 0.0000 0.0000 0.0000 23.0536 0.0000
# 6 0.0000 0.0000 0.0000 0.0000 0.0000 11.8009
#
#
#
# Elastic Compliance Matrix: (Units=1/GPa)
#
#
# Indices 1 2 3 4 5 6 
#
# 1 0.058266 -0.013475 -0.003562 0.000000 0.000000 0.000000
# 2 -0.013475 0.022495 -0.002116 0.000000 0.000000 0.000000
# 3 -0.003562 -0.002116 0.008268 0.000000 0.000000 0.000000
# 4 0.000000 0.000000 0.000000 0.021621 0.000000 0.000000
# 5 0.000000 0.000000 0.000000 0.000000 0.043377 0.000000
# 6 0.000000 0.000000 0.000000 0.000000 0.000000 0.084739
#
#
# Mechanical properties :
#
#
# Convention : Reuss Voigt Hill
#
# Bulk Modulus (GPa) = 19.71469 33.35474 26.53471
# Shear Modulus (GPa) = 17.00789 26.94215 21.97502
#
# Velocity S-wave (km/s) = 2.75672 3.46964 3.13352
# Velocity P-wave (km/s) = 4.35220 5.56371 4.99482
#
# Compressibility (1/GPa) = 0.05072361
#
# Stress axis : x y z
#
# Youngs Moduli (GPa) = 17.16252 44.45409 120.94842
#
# Poissons Ratio (x) = 0.59900 0.43082
# Poissons Ratio (y) = 0.23126 0.25597
# Poissons Ratio (z) = 0.06113 0.09408
#
# Static dielectric constant tensor:
#      x y z
#    x 1.967820 0.000000 0.000000 
#    y 0.000000 1.789590 0.000000 
#    z 0.000000 0.000000 1.864320 
# 
# From -- ./inp_files/11586.got.cif
#   From: 2010.05.17/outbox.cif.g08.bks.cpg/sg67_6_cif.got.tgz:11586.got - 2010.06.03 18:28:57.
