data_PCOD9500410
_publ_section_title
;
Structure prediction by ZEFSAII (Michael W. Deem and Ramdas Pophale) SiO2 
 PCOD9500410
Probable space group: C M M A
;
_chemical_formula_sum "Si O2"
_cell_formula_units_Z 104
_cell_length_a 22.533210
_cell_length_b 8.553132
_cell_length_c 27.818199
_cell_angle_alpha 90.000000
_cell_angle_beta 90.000000
_cell_angle_gamma 90.000000
_cell_volume 5361.388127
_symmetry_space_group_name_H-M "C M M A"
_symmetry_group_IT_number 67
_symmetry_cell_setting 'orthorhombic'
loop_
_space_group_symop_operation_xyz
x,y,z
-x,1/2-y,z
x,-y,-z
-x,1/2+y,-z
-x,-y,-z
x,1/2+y,-z
-x,y,z
x,1/2-y,z
1/2+x,1/2+y,z
1/2-x,-y,z
1/2+x,1/2-y,-z
1/2-x,y,-z
1/2-x,1/2-y,-z
1/2+x,y,-z
1/2-x,1/2+y,z
1/2+x,-y,z
loop_
_atom_site_type_symbol
_atom_site_label
_atom_site_fract_x
_atom_site_fract_y
_atom_site_fract_z
Si Si1 0.130039 0.559113 0.702611
Si Si2 0.000000 0.578104 0.206640
Si Si3 0.434604 0.439141 0.554504
Si Si4 0.683938 0.063433 0.803652
Si Si5 0.902272 0.070968 0.875826
Si Si6 0.313121 0.061814 0.606309
Si Si7 0.500000 0.929338 0.303693
Si Si8 0.500000 0.935557 0.053799
O O1 0.126297 0.750000 0.703597
O O2 0.148379 0.506721 0.755842
O O3 0.177244 0.515497 0.662057
O O4 0.064829 0.502680 0.685532
O O5 0.945144 0.569789 0.170682
O O6 0.000000 0.750000 0.230806
O O7 0.000000 0.441540 0.245317
O O8 0.433420 0.500000 0.500000
O O9 0.500000 0.485666 0.575234
O O10 0.433738 0.250000 0.555073
O O11 0.373560 0.491436 0.579737
O O12 0.683604 0.250000 0.801685
O O13 0.750000 0.000000 0.799840
O O14 0.655175 0.011592 0.854122
O O15 0.889741 0.250000 0.889006
O O16 0.941520 0.993644 0.917499
O O17 0.311762 0.250000 0.603655
O O18 0.250000 0.000000 0.588046
O O19 0.500000 0.750000 0.321046
O O20 0.500000 0.750000 0.053459
O O21 0.500000 0.000000 0.000000
#
# Coordination Sequence:
#
# PCOD9500410 Si02
#       8
#    16   8  16  16  16  16   8   8
#     4   9  19  32  51  78 108 143 186 231 278 333
#     4   9  17  29  47  73 104 133 166 215 270 311
#     4   9  19  36  59  83 107 137 177 228 284 342
#     4  11  21  34  52  77 108 150 195 235 280 330
#     4  10  20  35  54  80 113 146 183 230 276 328
#     4  10  21  37  55  79 109 145 185 228 282 341
#     4  10  17  29  50  74 100 135 180 227 267 319
#     4  11  22  38  62  91 120 150 183 228 286 344
#
# _framework density 19.397962
#
# number of rings (size 3 to 8) (size 9 to 14) (size 15 to 20)
#    0.000    2.154    1.538    2.538    1.077    2.154 
#    0.000    3.077    0.000    0.462    0.000    3.231 
#    0.000    0.000    0.000    0.000    0.000    0.000 
#
# Total GULP energy -289857.153326 kJ/mol
# GULP energy per Si atom -5574.176026 kJ/mol
# Density = 1.935381 g / cm^3
# Si number density = 19.397962 Si / 1000 Ang^3
#
#
#
# Elastic Constant Matrix: (Units=GPa)
#
#
# Indices 1 2 3 4 5 6 
#
# 1 164.1091 26.6760 55.7599 0.0000 0.0000 0.0000
# 2 26.6760 43.5846 21.6268 0.0000 0.0000 0.0000
# 3 55.7599 21.6268 80.8840 0.0000 0.0000 0.0000
# 4 0.0000 0.0000 0.0000 20.6572 0.0000 0.0000
# 5 0.0000 0.0000 0.0000 0.0000 19.0972 0.0000
# 6 0.0000 0.0000 0.0000 0.0000 0.0000 24.4917
#
#
#
# Elastic Compliance Matrix: (Units=1/GPa)
#
#
# Indices 1 2 3 4 5 6 
#
# 1 0.008196 -0.002551 -0.004968 0.000000 0.000000 0.000000
# 2 -0.002551 0.027248 -0.005527 0.000000 0.000000 0.000000
# 3 -0.004968 -0.005527 0.017266 0.000000 0.000000 0.000000
# 4 0.000000 0.000000 0.000000 0.048409 0.000000 0.000000
# 5 0.000000 0.000000 0.000000 0.000000 0.052364 0.000000
# 6 0.000000 0.000000 0.000000 0.000000 0.000000 0.040830
#
#
# Mechanical properties :
#
#
# Convention : Reuss Voigt Hill
#
# Bulk Modulus (GPa) = 37.56894 55.18925 46.37909
# Shear Modulus (GPa) = 21.80757 25.15023 23.47890
#
# Velocity S-wave (km/s) = 3.35658 3.60466 3.48283
# Velocity P-wave (km/s) = 5.86785 6.77034 6.33519
#
# Compressibility (1/GPa) = 0.02661774
#
# Stress axis : x y z
#
# Youngs Moduli (GPa) = 122.00655 36.70026 57.91691
#
# Poissons Ratio (x) = 0.09363 0.28774
# Poissons Ratio (y) = 0.31127 0.32009
# Poissons Ratio (z) = 0.60615 0.20283
#
# Static dielectric constant tensor:
#      x y z
#    x 1.726670 0.000000 0.000000 
#    y 0.000000 1.689820 0.000000 
#    z 0.000000 0.000000 1.679430 
# 
# From -- ./inp_files/44717.got.cif
#   From: 2010.05.17/outbox.cif.g08.bks.cpg/sg67_23_cif.got.tgz:44717.got - 2010.06.03 18:28:57.
