data_PCOD9500257
_publ_section_title
;
Structure prediction by ZEFSAII (Michael W. Deem and Ramdas Pophale) SiO2 
 PCOD9500257
Probable space group: C M M A
;
_chemical_formula_sum "Si O2"
_cell_formula_units_Z 96
_cell_length_a 7.654014
_cell_length_b 26.506414
_cell_length_c 19.467706
_cell_angle_alpha 90.000000
_cell_angle_beta 90.000000
_cell_angle_gamma 90.000000
_cell_volume 3949.617223
_symmetry_space_group_name_H-M "C M M A"
_symmetry_group_IT_number 67
_symmetry_cell_setting 'orthorhombic'
loop_
_space_group_symop_operation_xyz
x,y,z
-x,1/2-y,z
x,-y,-z
-x,1/2+y,-z
-x,-y,-z
x,1/2+y,-z
-x,y,z
x,1/2-y,z
1/2+x,1/2+y,z
1/2-x,-y,z
1/2+x,1/2-y,-z
1/2-x,y,-z
1/2-x,1/2-y,-z
1/2+x,y,-z
1/2-x,1/2+y,z
1/2+x,-y,z
loop_
_atom_site_type_symbol
_atom_site_label
_atom_site_fract_x
_atom_site_fract_y
_atom_site_fract_z
Si Si1 0.290989 0.911319 0.574659
Si Si2 0.806508 0.332926 0.920339
Si Si3 0.709006 0.555450 0.720853
Si Si4 0.205064 0.444937 0.080101
Si Si5 0.214681 0.337952 0.776060
Si Si6 0.712853 0.804246 0.624105
O O1 0.500000 0.910438 0.579987
O O2 0.250000 0.932170 0.500000
O O3 0.224798 0.939667 0.642348
O O4 0.226445 0.853542 0.583217
O O5 0.805803 0.393291 0.904424
O O6 0.719443 0.315360 0.848606
O O7 0.000000 0.311854 0.920457
O O8 0.750000 0.326533 0.000000
O O9 0.500000 0.560508 0.720627
O O10 0.750000 0.500000 0.746126
O O11 0.774232 0.603920 0.762837
O O12 0.250000 0.500000 0.109845
O O13 0.000000 0.435369 0.089083
O O14 0.250000 0.449980 0.000000
O O15 0.260593 0.310815 0.704610
O O16 0.000000 0.337105 0.779133
O O17 0.500000 0.804807 0.621984
O O18 0.773813 0.750000 0.598329
#
# Coordination Sequence:
#
# PCOD9500257 Si02
#       6
#    16  16  16  16  16  16
#     4   9  18  31  48  73 104 130 155 193 233 272
#     4  10  18  29  44  63  88 117 150 191 240 288
#     4   9  18  33  49  67  93 127 166 201 233 268
#     4  10  17  26  38  54  78 108 143 181 223 271
#     4   8  16  30  47  67  92 121 156 200 240 279
#     4   8  14  28  51  75  96 122 157 194 234 280
#
# _framework density 24.306152999999998
#
# number of rings (size 3 to 8) (size 9 to 14) (size 15 to 20)
#    0.000    3.000    0.000    5.500    0.000    2.000 
#    0.000    5.000    0.000    2.500    0.000    0.000 
#    0.000    0.000    0.000    0.000    0.000    0.667 
#
# Total GULP energy -267526.011399 kJ/mol
# GULP energy per Si atom -5573.458571 kJ/mol
# Density = 2.425083 g / cm^3
# Si number density = 24.306153 Si / 1000 Ang^3
#
#
#
# Elastic Constant Matrix: (Units=GPa)
#
#
# Indices 1 2 3 4 5 6 
#
# 1 65.7090 -0.4746 0.2897 0.0000 0.0000 0.0000
# 2 -0.4746 76.6585 -6.0629 0.0000 0.0000 0.0000
# 3 0.2897 -6.0629 170.6170 0.0000 0.0000 0.0000
# 4 0.0000 0.0000 0.0000 -19.0202 0.0000 0.0000
# 5 0.0000 0.0000 0.0000 0.0000 -0.3159 0.0000
# 6 0.0000 0.0000 0.0000 0.0000 0.0000 -7.2335
#
#
#
# Elastic Compliance Matrix: (Units=1/GPa)
#
#
# Indices 1 2 3 4 5 6 
#
# 1 0.015219 0.000092 -0.000023 0.000000 0.000000 0.000000
# 2 0.000092 0.013082 0.000465 0.000000 0.000000 0.000000
# 3 -0.000023 0.000465 0.005878 0.000000 0.000000 0.000000
# 4 0.000000 0.000000 0.000000 -0.052576 0.000000 0.000000
# 5 0.000000 0.000000 0.000000 0.000000 -3.165801 0.000000
# 6 0.000000 0.000000 0.000000 0.000000 0.000000 -0.138246
#
#
# Mechanical properties :
#
#
# Convention : Reuss Voigt Hill
#
# Bulk Modulus (GPa) = 28.37009 33.38768 30.87889
# Shear Modulus (GPa) = -1.50977 15.96823 7.22923
#
# Velocity S-wave (km/s) = -0.78898 2.56591 1.72647
# Velocity P-wave (km/s) = 3.29656 4.74812 4.08730
#
# Compressibility (1/GPa) = 0.03524839
#
# Stress axis : x y z
#
# Youngs Moduli (GPa) = 65.70568 76.43982 170.13651
#
# Poissons Ratio (x) = -0.00707 0.00384
# Poissons Ratio (y) = -0.00607 -0.07907
# Poissons Ratio (z) = 0.00148 -0.03552
#
# Static dielectric constant tensor:
#      x y z
#    x 1.934130 0.000000 0.000000 
#    y 0.000000 1.971610 0.000000 
#    z 0.000000 0.000000 1.947350 
# 
# From -- ./inp_files/37216.got.cif
#   From: 2010.05.17/outbox.cif.g08.bks.cpg/sg67_19_cif.got.tgz:37216.got - 2010.06.03 18:28:57.
