data_PCOD9500342
_publ_section_title
;
Structure prediction by ZEFSAII (Michael W. Deem and Ramdas Pophale) SiO2 
 PCOD9500342
Probable space group: C M M A
;
_chemical_formula_sum "Si O2"
_cell_formula_units_Z 60
_cell_length_a 14.008549
_cell_length_b 26.792390
_cell_length_c 8.915484
_cell_angle_alpha 90.000000
_cell_angle_beta 90.000000
_cell_angle_gamma 90.000000
_cell_volume 3346.181816
_symmetry_space_group_name_H-M "C M M A"
_symmetry_group_IT_number 67
_symmetry_cell_setting 'orthorhombic'
loop_
_space_group_symop_operation_xyz
x,y,z
-x,1/2-y,z
x,-y,-z
-x,1/2+y,-z
-x,-y,-z
x,1/2+y,-z
-x,y,z
x,1/2-y,z
1/2+x,1/2+y,z
1/2-x,-y,z
1/2+x,1/2-y,-z
1/2-x,y,-z
1/2-x,1/2-y,-z
1/2+x,y,-z
1/2-x,1/2+y,z
1/2+x,-y,z
loop_
_atom_site_type_symbol
_atom_site_label
_atom_site_fract_x
_atom_site_fract_y
_atom_site_fract_z
Si Si1 0.784234 0.947766 0.824128
Si Si2 0.295157 0.750000 0.335861
Si Si3 0.000000 0.250000 0.193564
Si Si4 0.500000 0.339075 0.054605
Si Si5 0.292441 0.656524 0.831531
Si Si6 0.000000 0.551886 0.904777
O O1 0.735371 0.897480 0.764769
O O2 0.898945 0.946281 0.819395
O O3 0.750000 0.000000 0.756469
O O4 0.750000 0.948846 0.000000
O O5 0.250000 0.750000 0.500000
O O6 0.407774 0.750000 0.300524
O O7 0.255874 0.700669 0.256844
O O8 0.000000 0.201355 0.081875
O O9 0.404356 0.333655 0.150598
O O10 0.500000 0.396514 0.998105
O O11 0.250000 0.657265 0.000000
O O12 0.000000 0.500000 0.000000
#
# Coordination Sequence:
#
# PCOD9500342 Si02
#       6
#    16   8   4   8  16   8
#     4  10  17  27  45  76 113 138 171 219 269 324
#     4  12  26  41  57  78 112 145 186 230 273 327
#     4  12  22  38  60  78 104 148 182 222 282 326
#     4  12  20  31  60  85 109 141 183 225 272 325
#     4  11  20  36  56  83 108 141 184 226 269 319
#     4  12  16  24  43  75 113 143 163 211 281 322
#
# _framework density 17.930885
#
# number of rings (size 3 to 8) (size 9 to 14) (size 15 to 20)
#    0.000    0.800   10.667    1.200    0.000    1.067 
#    0.000    0.000    0.000    0.800    0.000    0.000 
#    0.000   12.800    0.000    0.000    0.000    0.000 
#
# Total GULP energy -167264.481505 kJ/mol
# GULP energy per Si atom -5575.482717 kJ/mol
# Density = 1.789007 g / cm^3
# Si number density = 17.930885 Si / 1000 Ang^3
#
#
#
# Elastic Constant Matrix: (Units=GPa)
#
#
# Indices 1 2 3 4 5 6 
#
# 1 214.0781 49.1784 31.6127 0.0000 0.0000 0.0000
# 2 49.1784 166.4121 46.1547 0.0000 0.0000 0.0000
# 3 31.6127 46.1547 34.6273 0.0000 0.0000 0.0000
# 4 0.0000 0.0000 0.0000 -13.4857 0.0000 0.0000
# 5 0.0000 0.0000 0.0000 0.0000 9.1122 0.0000
# 6 0.0000 0.0000 0.0000 0.0000 0.0000 32.9388
#
#
#
# Elastic Compliance Matrix: (Units=1/GPa)
#
#
# Indices 1 2 3 4 5 6 
#
# 1 0.005413 -0.000363 -0.004457 0.000000 0.000000 0.000000
# 2 -0.000363 0.009558 -0.012408 0.000000 0.000000 0.000000
# 3 -0.004457 -0.012408 0.049487 0.000000 0.000000 0.000000
# 4 0.000000 0.000000 0.000000 -0.074153 0.000000 0.000000
# 5 0.000000 0.000000 0.000000 0.000000 0.109743 0.000000
# 6 0.000000 0.000000 0.000000 0.000000 0.000000 0.030359
#
#
# Mechanical properties :
#
#
# Convention : Reuss Voigt Hill
#
# Bulk Modulus (GPa) = 33.33303 74.33436 53.83369
# Shear Modulus (GPa) = 28.59349 24.92450 26.75899
#
# Velocity S-wave (km/s) = 3.99764 3.73236 3.86727
# Velocity P-wave (km/s) = 6.31967 7.75371 7.07313
#
# Compressibility (1/GPa) = 0.03000027
#
# Stress axis : x y z
#
# Youngs Moduli (GPa) = 184.74480 104.62480 20.20738
#
# Poissons Ratio (x) = 0.03802 0.09007
# Poissons Ratio (y) = 0.06713 0.25073
# Poissons Ratio (z) = 0.82346 1.29819
#
# Static dielectric constant tensor:
#      x y z
#    x 1.660820 0.000000 0.000000 
#    y 0.000000 1.773090 0.000000 
#    z 0.000000 0.000000 1.581810 
# 
# From -- ./inp_files/6554.got.cif
#   From: 2010.05.17/outbox.cif.g08.bks.cpg/sg67_4_cif.got.tgz:6554.got - 2010.06.03 18:28:57.
