data_PCOD9500255
_publ_section_title
;
Structure prediction by ZEFSAII (Michael W. Deem and Ramdas Pophale) SiO2 
 PCOD9500255
Probable space group: C M M A
;
_chemical_formula_sum "Si O2"
_cell_formula_units_Z 96
_cell_length_a 8.433140
_cell_length_b 28.258228
_cell_length_c 25.004909
_cell_angle_alpha 90.000000
_cell_angle_beta 90.000000
_cell_angle_gamma 90.000000
_cell_volume 5958.809664
_symmetry_space_group_name_H-M "C M M A"
_symmetry_group_IT_number 67
_symmetry_cell_setting 'orthorhombic'
loop_
_space_group_symop_operation_xyz
x,y,z
-x,1/2-y,z
x,-y,-z
-x,1/2+y,-z
-x,-y,-z
x,1/2+y,-z
-x,y,z
x,1/2-y,z
1/2+x,1/2+y,z
1/2-x,-y,z
1/2+x,1/2-y,-z
1/2-x,y,-z
1/2-x,1/2-y,-z
1/2+x,y,-z
1/2-x,1/2+y,z
1/2+x,-y,z
loop_
_atom_site_type_symbol
_atom_site_label
_atom_site_fract_x
_atom_site_fract_y
_atom_site_fract_z
Si Si1 0.809136 0.852245 0.558144
Si Si2 0.306714 0.101774 0.722139
Si Si3 0.690427 0.945972 0.168550
Si Si4 0.306432 0.302858 0.667039
Si Si5 0.809012 0.051977 0.386872
Si Si6 0.688408 0.945698 0.944309
O O1 0.750000 0.838419 0.500000
O O2 0.759151 0.818511 0.607059
O O3 0.756413 0.905556 0.574073
O O4 0.000000 0.852222 0.557746
O O5 0.500000 0.101586 0.722430
O O6 0.254187 0.082952 0.779534
O O7 0.255972 0.154806 0.706325
O O8 0.258142 0.067585 0.673097
O O9 0.500000 0.946788 0.167379
O O10 0.750589 0.925626 0.111952
O O11 0.750000 0.000000 0.173628
O O12 0.500000 0.302662 0.667807
O O13 0.251954 0.250000 0.679910
O O14 0.000000 0.051629 0.387315
O O15 0.750000 0.000000 0.400671
O O16 0.500000 0.946357 0.944861
O O17 0.750000 0.000000 0.943934
O O18 0.750000 0.924071 0.000000
#
# Coordination Sequence:
#
# PCOD9500255 Si02
#       6
#    16  16  16  16  16  16
#     4   9  18  30  43  61  83 104 130 166 202 240
#     4   8  15  26  40  59  82 105 132 168 203 240
#     4  10  17  25  38  58  84 112 141 170 201 235
#     4   8  14  27  46  64  81 103 130 162 204 249
#     4   9  17  29  42  57  79 107 137 166 199 236
#     4  10  17  26  38  54  79 112 148 178 204 232
#
# _framework density 16.110600000000002
#
# number of rings (size 3 to 8) (size 9 to 14) (size 15 to 20)
#    0.000    3.000    0.000    6.000    0.000    1.333 
#    0.000    2.500    0.000    2.000    0.000    0.000 
#    0.000    0.667    0.000    1.167    0.000    2.000 
#
# Total GULP energy -267336.826281 kJ/mol
# GULP energy per Si atom -5569.517214 kJ/mol
# Density = 1.607393 g / cm^3
# Si number density = 16.110600 Si / 1000 Ang^3
#
#
#
# Elastic Constant Matrix: (Units=GPa)
#
#
# Indices 1 2 3 4 5 6 
#
# 1 33.9158 5.6035 17.3156 0.0000 0.0000 0.0000
# 2 5.6035 67.1331 23.8313 0.0000 0.0000 0.0000
# 3 17.3156 23.8313 118.1046 0.0000 0.0000 0.0000
# 4 0.0000 0.0000 0.0000 11.8903 0.0000 0.0000
# 5 0.0000 0.0000 0.0000 0.0000 26.2720 0.0000
# 6 0.0000 0.0000 0.0000 0.0000 0.0000 9.1478
#
#
#
# Elastic Compliance Matrix: (Units=1/GPa)
#
#
# Indices 1 2 3 4 5 6 
#
# 1 0.031943 -0.001081 -0.004465 0.000000 0.000000 0.000000
# 2 -0.001081 0.016082 -0.003086 0.000000 0.000000 0.000000
# 3 -0.004465 -0.003086 0.009745 0.000000 0.000000 0.000000
# 4 0.000000 0.000000 0.000000 0.084102 0.000000 0.000000
# 5 0.000000 0.000000 0.000000 0.000000 0.038063 0.000000
# 6 0.000000 0.000000 0.000000 0.000000 0.000000 0.109316
#
#
# Mechanical properties :
#
#
# Convention : Reuss Voigt Hill
#
# Bulk Modulus (GPa) = 24.68911 34.73938 29.71425
# Shear Modulus (GPa) = 15.62412 20.95554 18.28983
#
# Velocity S-wave (km/s) = 3.11755 3.61048 3.37303
# Velocity P-wave (km/s) = 5.32136 6.24424 5.80118
#
# Compressibility (1/GPa) = 0.04050369
#
# Stress axis : x y z
#
# Youngs Moduli (GPa) = 31.30574 62.18257 102.62197
#
# Poissons Ratio (x) = 0.06723 0.45822
# Poissons Ratio (y) = 0.03385 0.31674
# Poissons Ratio (z) = 0.13978 0.19192
#
# Static dielectric constant tensor:
#      x y z
#    x 1.557570 0.000000 0.000000 
#    y 0.000000 1.525960 0.000000 
#    z 0.000000 0.000000 1.567890 
# 
# From -- ./inp_files/43814.got.cif
#   From: 2010.05.17/outbox.cif.g08.bks.cpg/sg67_22_cif.got.tgz:43814.got - 2010.06.03 18:28:57.
