data_PCOD9500267
_publ_section_title
;
Structure prediction by ZEFSAII (Michael W. Deem and Ramdas Pophale) SiO2 
 PCOD9500267
Probable space group: C M M A
;
_chemical_formula_sum "Si O2"
_cell_formula_units_Z 96
_cell_length_a 27.923928
_cell_length_b 8.694568
_cell_length_c 24.720231
_cell_angle_alpha 90.000000
_cell_angle_beta 90.000000
_cell_angle_gamma 90.000000
_cell_volume 6001.738137
_symmetry_space_group_name_H-M "C M M A"
_symmetry_group_IT_number 67
_symmetry_cell_setting 'orthorhombic'
loop_
_space_group_symop_operation_xyz
x,y,z
-x,1/2-y,z
x,-y,-z
-x,1/2+y,-z
-x,-y,-z
x,1/2+y,-z
-x,y,z
x,1/2-y,z
1/2+x,1/2+y,z
1/2-x,-y,z
1/2+x,1/2-y,-z
1/2-x,y,-z
1/2-x,1/2-y,-z
1/2+x,y,-z
1/2-x,1/2+y,z
1/2+x,-y,z
loop_
_atom_site_type_symbol
_atom_site_label
_atom_site_fract_x
_atom_site_fract_y
_atom_site_fract_z
Si Si1 0.804380 0.934099 0.944534
Si Si2 0.696170 0.935172 0.832369
Si Si3 0.945847 0.065910 0.334396
Si Si4 0.854130 0.564673 0.279267
Si Si5 0.400482 0.434428 0.441954
Si Si6 0.301629 0.934565 0.611618
O O1 0.803096 0.750000 0.945975
O O2 0.750000 0.000000 0.943720
O O3 0.824915 0.994981 0.887853
O O4 0.826469 0.000000 0.000000
O O5 0.698501 0.750000 0.836950
O O6 0.666267 0.977596 0.779153
O O7 0.750000 0.000000 0.825781
O O8 0.942911 0.250000 0.336889
O O9 0.000000 0.021560 0.319736
O O10 0.905631 0.004027 0.293645
O O11 0.932433 0.998487 0.393170
O O12 0.857536 0.750000 0.281840
O O13 0.818178 0.517000 0.327854
O O14 0.414151 0.500000 0.500000
O O15 0.403030 0.250000 0.441924
O O16 0.345563 0.480188 0.427286
O O17 0.298773 0.750000 0.611010
O O18 0.250000 0.000000 0.597465
#
# Coordination Sequence:
#
# PCOD9500267 Si02
#       6
#    16  16  16  16  16  16
#     4  10  17  26  39  57  85 123 164 201 235 268
#     4  10  18  28  43  66  95 127 162 195 229 269
#     4  10  21  36  54  74  93 115 145 183 230 279
#     4   9  19  33  48  68  94 122 153 188 226 272
#     4  10  21  36  52  71  94 119 150 185 222 269
#     4   9  18  31  46  66  91 121 153 183 219 261
#
# _framework density 15.995366000000001
#
# number of rings (size 3 to 8) (size 9 to 14) (size 15 to 20)
#    0.000    2.333    0.000    6.000    0.000    6.667 
#    0.000    1.667    0.000    0.000    0.000    0.000 
#    0.000    0.667    0.000    2.167    0.000    3.500 
#
# Total GULP energy -267691.647141 kJ/mol
# GULP energy per Si atom -5576.909315 kJ/mol
# Density = 1.595896 g / cm^3
# Si number density = 15.995366 Si / 1000 Ang^3
#
#
#
# Elastic Constant Matrix: (Units=GPa)
#
#
# Indices 1 2 3 4 5 6 
#
# 1 63.3041 16.2860 23.0545 0.0000 0.0000 0.0000
# 2 16.2860 51.0958 35.3987 0.0000 0.0000 0.0000
# 3 23.0545 35.3987 117.3102 0.0000 0.0000 0.0000
# 4 0.0000 0.0000 0.0000 35.9777 0.0000 0.0000
# 5 0.0000 0.0000 0.0000 0.0000 10.2595 0.0000
# 6 0.0000 0.0000 0.0000 0.0000 0.0000 22.2307
#
#
#
# Elastic Compliance Matrix: (Units=1/GPa)
#
#
# Indices 1 2 3 4 5 6 
#
# 1 0.017662 -0.004077 -0.002241 0.000000 0.000000 0.000000
# 2 -0.004077 0.025685 -0.006949 0.000000 0.000000 0.000000
# 3 -0.002241 -0.006949 0.011062 0.000000 0.000000 0.000000
# 4 0.000000 0.000000 0.000000 0.027795 0.000000 0.000000
# 5 0.000000 0.000000 0.000000 0.000000 0.097471 0.000000
# 6 0.000000 0.000000 0.000000 0.000000 0.000000 0.044983
#
#
# Mechanical properties :
#
#
# Convention : Reuss Voigt Hill
#
# Bulk Modulus (GPa) = 35.87532 42.35428 39.11480
# Shear Modulus (GPa) = 19.19515 24.15831 21.67673
#
# Velocity S-wave (km/s) = 3.46792 3.89051 3.68528
# Velocity P-wave (km/s) = 6.20585 6.83506 6.52804
#
# Compressibility (1/GPa) = 0.02787431
#
# Stress axis : x y z
#
# Youngs Moduli (GPa) = 56.61968 38.93327 90.40175
#
# Poissons Ratio (x) = 0.15873 0.20256
# Poissons Ratio (y) = 0.23084 0.62823
# Poissons Ratio (z) = 0.12687 0.27056
#
# Static dielectric constant tensor:
#      x y z
#    x 1.515690 0.000000 0.000000 
#    y 0.000000 1.537670 0.000000 
#    z 0.000000 0.000000 1.562120 
# 
# From -- ./inp_files/44930.got.cif
#   From: 2010.05.17/outbox.cif.g08.bks.cpg/sg67_23_cif.got.tgz:44930.got - 2010.06.03 18:28:57.
