data_PCOD9500526
_publ_section_title
;
Structure prediction by ZEFSAII (Michael W. Deem and Ramdas Pophale) SiO2 
 PCOD9500526
Probable space group: C M M A
;
_chemical_formula_sum "Si O2"
_cell_formula_units_Z 96
_cell_length_a 15.560859
_cell_length_b 24.781556
_cell_length_c 13.051094
_cell_angle_alpha 90.000000
_cell_angle_beta 90.000000
_cell_angle_gamma 90.000000
_cell_volume 5032.792869
_symmetry_space_group_name_H-M "C M M A"
_symmetry_group_IT_number 67
_symmetry_cell_setting 'orthorhombic'
loop_
_space_group_symop_operation_xyz
x,y,z
-x,1/2-y,z
x,-y,-z
-x,1/2+y,-z
-x,-y,-z
x,1/2+y,-z
-x,y,z
x,1/2-y,z
1/2+x,1/2+y,z
1/2-x,-y,z
1/2+x,1/2-y,-z
1/2-x,y,-z
1/2-x,1/2-y,-z
1/2+x,y,-z
1/2-x,1/2+y,z
1/2+x,-y,z
loop_
_atom_site_type_symbol
_atom_site_label
_atom_site_fract_x
_atom_site_fract_y
_atom_site_fract_z
Si Si1 0.104802 0.061533 0.501730
Si Si2 0.602851 0.636057 0.686515
Si Si3 0.898900 0.645812 0.674156
Si Si4 0.143968 0.311778 0.119027
Si Si5 0.404247 0.250000 0.378685
Si Si6 0.670865 0.250000 0.578325
Si Si7 0.351324 0.312302 0.114974
O O1 0.135071 0.091836 0.605711
O O2 0.126334 0.096057 0.399690
O O3 0.000000 0.060045 0.504460
O O4 0.135308 0.000000 0.500000
O O5 0.500000 0.635928 0.672317
O O6 0.638507 0.694253 0.651643
O O7 0.619583 0.640892 0.807251
O O8 0.887972 0.645526 0.796980
O O9 0.839877 0.696222 0.642602
O O10 0.000000 0.656145 0.653480
O O11 0.115369 0.250000 0.144291
O O12 0.247783 0.311595 0.118579
O O13 0.118738 0.322246 0.001261
O O14 0.500000 0.250000 0.334745
O O15 0.408615 0.250000 0.500152
O O16 0.750000 0.250000 0.500000
O O17 0.378858 0.250000 0.141982
#
# Coordination Sequence:
#
# PCOD9500526 Si02
#       7
#    16  16  16  16   8   8  16
#     4   9  19  35  53  74 101 135 173 217 269 311
#     4  10  18  28  50  75 101 133 165 211 257 303
#     4  11  21  34  53  77 107 137 175 223 265 312
#     4   9  19  32  49  72 103 145 168 203 258 315
#     4  10  18  30  45  73 105 128 162 209 255 296
#     4  12  24  30  47  77 108 143 170 202 255 327
#     4   9  18  32  48  72 108 138 174 204 248 320
#
# _framework density 19.074895000000001
#
# number of rings (size 3 to 8) (size 9 to 14) (size 15 to 20)
#    0.000    2.167    3.333    1.750    2.333    0.667 
#    0.000    1.667    0.000    5.500    0.000    7.000 
#    0.000    0.000    0.000    0.000    0.000    0.000 
#
# Total GULP energy -267348.992481 kJ/mol
# GULP energy per Si atom -5569.770677 kJ/mol
# Density = 1.903148 g / cm^3
# Si number density = 19.074895 Si / 1000 Ang^3
#
#
#
# Elastic Constant Matrix: (Units=GPa)
#
#
# Indices 1 2 3 4 5 6 
#
# 1 51.8344 13.7357 11.0000 0.0000 0.0000 0.0000
# 2 13.7357 127.3846 80.8695 0.0000 0.0000 0.0000
# 3 11.0000 80.8695 161.4089 0.0000 0.0000 0.0000
# 4 0.0000 0.0000 0.0000 13.4760 0.0000 0.0000
# 5 0.0000 0.0000 0.0000 0.0000 30.5778 0.0000
# 6 0.0000 0.0000 0.0000 0.0000 0.0000 6.7465
#
#
#
# Elastic Compliance Matrix: (Units=1/GPa)
#
#
# Indices 1 2 3 4 5 6 
#
# 1 0.019878 -0.001882 -0.000412 0.000000 0.000000 0.000000
# 2 -0.001882 0.011690 -0.005729 0.000000 0.000000 0.000000
# 3 -0.000412 -0.005729 0.009094 0.000000 0.000000 0.000000
# 4 0.000000 0.000000 0.000000 0.074206 0.000000 0.000000
# 5 0.000000 0.000000 0.000000 0.000000 0.032703 0.000000
# 6 0.000000 0.000000 0.000000 0.000000 0.000000 0.148225
#
#
# Mechanical properties :
#
#
# Convention : Reuss Voigt Hill
#
# Bulk Modulus (GPa) = 40.62226 61.31536 50.96881
# Shear Modulus (GPa) = 15.62270 25.82823 20.72547
#
# Velocity S-wave (km/s) = 2.86496 3.68372 3.29983
# Velocity P-wave (km/s) = 5.68211 7.09277 6.42627
#
# Compressibility (1/GPa) = 0.02461704
#
# Stress axis : x y z
#
# Youngs Moduli (GPa) = 50.30601 85.54303 109.96606
#
# Poissons Ratio (x) = 0.16100 0.04528
# Poissons Ratio (y) = 0.09468 0.62996
# Poissons Ratio (z) = 0.02071 0.49005
#
# Static dielectric constant tensor:
#      x y z
#    x 1.733010 0.000000 0.000000 
#    y 0.000000 1.657710 0.000000 
#    z 0.000000 0.000000 1.767220 
# 
# From -- ./inp_files/19709.got.cif
#   From: 2010.05.17/outbox.cif.g08.bks.cpg/sg67_10_cif.got.tgz:19709.got - 2010.06.03 18:28:57.
