data_PCOD9500528
_publ_section_title
;
Structure prediction by ZEFSAII (Michael W. Deem and Ramdas Pophale) SiO2 
 PCOD9500528
Probable space group: C M M A
;
_chemical_formula_sum "Si O2"
_cell_formula_units_Z 92
_cell_length_a 19.958431
_cell_length_b 16.644819
_cell_length_c 15.582577
_cell_angle_alpha 90.000000
_cell_angle_beta 90.000000
_cell_angle_gamma 90.000000
_cell_volume 5176.601757
_symmetry_space_group_name_H-M "C M M A"
_symmetry_group_IT_number 67
_symmetry_cell_setting 'orthorhombic'
loop_
_space_group_symop_operation_xyz
x,y,z
-x,1/2-y,z
x,-y,-z
-x,1/2+y,-z
-x,-y,-z
x,1/2+y,-z
-x,y,z
x,1/2-y,z
1/2+x,1/2+y,z
1/2-x,-y,z
1/2+x,1/2-y,-z
1/2-x,y,-z
1/2-x,1/2-y,-z
1/2+x,y,-z
1/2-x,1/2+y,z
1/2+x,-y,z
loop_
_atom_site_type_symbol
_atom_site_label
_atom_site_fract_x
_atom_site_fract_y
_atom_site_fract_z
Si Si1 0.500000 0.968598 0.903440
Si Si2 0.648331 0.057146 0.137814
Si Si3 0.500000 0.463440 0.404764
Si Si4 0.644817 0.595710 0.258143
Si Si5 0.750000 0.500000 0.000000
Si Si6 0.647550 0.962363 0.593545
Si Si7 0.000000 0.905478 0.748503
Si Si8 0.713555 0.658427 0.710594
O O1 0.571385 0.925445 0.887748
O O2 0.500000 0.041166 0.834681
O O3 0.500000 0.000000 0.000000
O O4 0.700541 0.052989 0.059580
O O5 0.672515 0.117160 0.211916
O O6 0.650647 0.967289 0.179301
O O7 0.500000 0.500000 0.500000
O O8 0.427161 0.423021 0.398490
O O9 0.500000 0.531306 0.330876
O O10 0.648020 0.536693 0.340431
O O11 0.571908 0.636793 0.255587
O O12 0.708760 0.651620 0.263486
O O13 0.699610 0.896985 0.627509
O O14 0.658198 0.000000 0.500000
O O15 0.694159 0.750000 0.696566
#
# Coordination Sequence:
#
# PCOD9500528 Si02
#       8
#     8  16   8  16   4  16   8  16
#     4  10  18  28  50  84 108 129 179 239 265 298
#     4  10  19  33  54  80 105 139 184 229 266 311
#     4   8  14  28  52  78 100 127 175 226 262 305
#     4   9  17  33  51  73 102 137 179 226 267 312
#     4  12  16  30  62  80  98 134 190 224 264 302
#     4   9  17  32  55  78 101 137 181 222 258 307
#     4   8  16  28  49  74  97 128 179 232 274 300
#     4  11  22  35  50  77 115 147 171 211 276 337
#
# _framework density 17.772276999999999
#
# number of rings (size 3 to 8) (size 9 to 14) (size 15 to 20)
#    0.000    2.435    2.609    2.609    0.000    1.391 
#    0.000    4.348    0.000    0.000    0.000    8.522 
#    0.000    0.000    0.000    0.000    0.000    0.000 
#
# Total GULP energy -256074.380166 kJ/mol
# GULP energy per Si atom -5566.834351 kJ/mol
# Density = 1.773183 g / cm^3
# Si number density = 17.772277 Si / 1000 Ang^3
#
#
#
# Elastic Constant Matrix: (Units=GPa)
#
#
# Indices 1 2 3 4 5 6 
#
# 1 161.8835 29.3082 32.7544 0.0000 0.0000 0.0000
# 2 29.3082 45.8950 14.5313 0.0000 0.0000 0.0000
# 3 32.7544 14.5313 102.8420 0.0000 0.0000 0.0000
# 4 0.0000 0.0000 0.0000 8.1345 0.0000 0.0000
# 5 0.0000 0.0000 0.0000 0.0000 27.6016 0.0000
# 6 0.0000 0.0000 0.0000 0.0000 0.0000 2.0799
#
#
#
# Elastic Compliance Matrix: (Units=1/GPa)
#
#
# Indices 1 2 3 4 5 6 
#
# 1 0.007270 -0.004092 -0.001737 0.000000 0.000000 0.000000
# 2 -0.004092 0.025113 -0.002245 0.000000 0.000000 0.000000
# 3 -0.001737 -0.002245 0.010594 0.000000 0.000000 0.000000
# 4 0.000000 0.000000 0.000000 0.122933 0.000000 0.000000
# 5 0.000000 0.000000 0.000000 0.000000 0.036230 0.000000
# 6 0.000000 0.000000 0.000000 0.000000 0.000000 0.480800
#
#
# Mechanical properties :
#
#
# Convention : Reuss Voigt Hill
#
# Bulk Modulus (GPa) = 37.27466 51.53424 44.40445
# Shear Modulus (GPa) = 7.06183 23.16497 15.11340
#
# Velocity S-wave (km/s) = 1.99553 3.61423 2.91931
# Velocity P-wave (km/s) = 5.13113 6.81739 6.03346
#
# Compressibility (1/GPa) = 0.02682788
#
# Stress axis : x y z
#
# Youngs Moduli (GPa) = 137.55820 39.82002 94.39196
#
# Poissons Ratio (x) = 0.16296 0.16397
# Poissons Ratio (y) = 0.56293 0.21191
# Poissons Ratio (z) = 0.23895 0.08940
#
# Static dielectric constant tensor:
#      x y z
#    x 1.708380 0.000000 0.000000 
#    y 0.000000 1.567730 0.000000 
#    z 0.000000 0.000000 1.607960 
# 
# From -- ./inp_files/29382.got.cif
#   From: 2010.05.17/outbox.cif.g08.bks.cpg/sg67_15_cif.got.tgz:29382.got - 2010.06.03 18:28:57.
