data_PCOD9500530
_publ_section_title
;
Structure prediction by ZEFSAII (Michael W. Deem and Ramdas Pophale) SiO2 
 PCOD9500530
Probable space group: C M M A
;
_chemical_formula_sum "Si O2"
_cell_formula_units_Z 96
_cell_length_a 18.066170
_cell_length_b 25.397520
_cell_length_c 13.329333
_cell_angle_alpha 90.000000
_cell_angle_beta 90.000000
_cell_angle_gamma 90.000000
_cell_volume 6115.976689
_symmetry_space_group_name_H-M "C M M A"
_symmetry_group_IT_number 67
_symmetry_cell_setting 'orthorhombic'
loop_
_space_group_symop_operation_xyz
x,y,z
-x,1/2-y,z
x,-y,-z
-x,1/2+y,-z
-x,-y,-z
x,1/2+y,-z
-x,y,z
x,1/2-y,z
1/2+x,1/2+y,z
1/2-x,-y,z
1/2+x,1/2-y,-z
1/2-x,y,-z
1/2-x,1/2-y,-z
1/2+x,y,-z
1/2-x,1/2+y,z
1/2+x,-y,z
loop_
_atom_site_type_symbol
_atom_site_label
_atom_site_fract_x
_atom_site_fract_y
_atom_site_fract_z
Si Si1 0.835589 0.557484 0.972975
Si Si2 0.913471 0.687463 0.320181
Si Si3 0.913078 0.525617 0.335610
Si Si4 0.696942 0.551172 0.251152
Si Si5 0.084737 0.107586 0.850086
Si Si6 0.197275 0.606679 0.405037
O O1 0.868815 0.598366 0.051041
O O2 0.869445 0.500000 0.000000
O O3 0.750000 0.554411 0.000000
O O4 0.836671 0.568929 0.854916
O O5 0.906076 0.750000 0.320258
O O6 0.900499 0.660718 0.211689
O O7 0.852980 0.658171 0.388263
O O8 0.000000 0.674269 0.346341
O O9 0.870860 0.471088 0.316940
O O10 0.906638 0.560379 0.232091
O O11 0.862714 0.559264 0.411728
O O12 0.000000 0.521702 0.359997
O O13 0.750000 0.500000 0.231419
O O14 0.748970 0.591956 0.310702
O O15 0.000000 0.107368 0.880915
O O16 0.250000 0.609791 0.500000
#
# Coordination Sequence:
#
# PCOD9500530 Si02
#       6
#    16  16  16  16  16  16
#     4  11  16  24  42  67  96 136 161 187 227 280
#     4   9  18  35  57  76  92 115 156 209 255 294
#     4   9  17  30  46  66  95 129 167 200 229 279
#     4  10  18  29  43  67 100 134 172 197 229 282
#     4   9  17  28  45  70  97 123 155 198 239 279
#     4  10  20  33  49  69  95 127 159 207 258 293
#
# _framework density 15.696593
#
# number of rings (size 3 to 8) (size 9 to 14) (size 15 to 20)
#    0.000    2.333    3.333    3.500    0.000    4.333 
#    0.000    2.500    0.000    4.500    0.000    0.000 
#    0.000    2.667    0.000    0.000    0.000    0.000 
#
# Total GULP energy -267263.846914 kJ/mol
# GULP energy per Si atom -5567.996811 kJ/mol
# Density = 1.566087 g / cm^3
# Si number density = 15.696593 Si / 1000 Ang^3
#
#
#
# Elastic Constant Matrix: (Units=GPa)
#
#
# Indices 1 2 3 4 5 6 
#
# 1 118.8558 47.8282 53.7640 0.0000 0.0000 0.0000
# 2 47.8282 54.5074 26.7179 0.0000 0.0000 0.0000
# 3 53.7640 26.7179 78.8191 0.0000 0.0000 0.0000
# 4 0.0000 0.0000 0.0000 7.7891 0.0000 0.0000
# 5 0.0000 0.0000 0.0000 0.0000 24.8990 0.0000
# 6 0.0000 0.0000 0.0000 0.0000 0.0000 23.7012
#
#
#
# Elastic Compliance Matrix: (Units=1/GPa)
#
#
# Indices 1 2 3 4 5 6 
#
# 1 0.015898 -0.010355 -0.007334 0.000000 0.000000 0.000000
# 2 -0.010355 0.028746 -0.002681 0.000000 0.000000 0.000000
# 3 -0.007334 -0.002681 0.018599 0.000000 0.000000 0.000000
# 4 0.000000 0.000000 0.000000 0.128384 0.000000 0.000000
# 5 0.000000 0.000000 0.000000 0.000000 0.040162 0.000000
# 6 0.000000 0.000000 0.000000 0.000000 0.000000 0.042192
#
#
# Mechanical properties :
#
#
# Convention : Reuss Voigt Hill
#
# Bulk Modulus (GPa) = 44.43885 56.53359 50.48622
# Shear Modulus (GPa) = 15.51720 19.53602 17.52661
#
# Velocity S-wave (km/s) = 3.14757 3.53172 3.34516
# Velocity P-wave (km/s) = 6.44842 7.26122 6.86686
#
# Compressibility (1/GPa) = 0.02250283
#
# Stress axis : x y z
#
# Youngs Moduli (GPa) = 62.90081 34.78702 53.76647
#
# Poissons Ratio (x) = 0.36022 0.39434
# Poissons Ratio (y) = 0.65133 0.14415
# Poissons Ratio (z) = 0.46133 0.09327
#
# Static dielectric constant tensor:
#      x y z
#    x 1.535480 0.000000 0.000000 
#    y 0.000000 1.526920 0.000000 
#    z 0.000000 0.000000 1.553440 
# 
# From -- ./inp_files/21003.got.cif
#   From: 2010.05.17/outbox.cif.g08.bks.cpg/sg67_11_cif.got.tgz:21003.got - 2010.06.03 18:28:57.
