data_PCOD9500734
_publ_section_title
;
Structure prediction by ZEFSAII (Michael W. Deem and Ramdas Pophale) SiO2 
 PCOD9500734
Probable space group: C M M A
;
_chemical_formula_sum "Si O2"
_cell_formula_units_Z 112
_cell_length_a 18.178533
_cell_length_b 18.668393
_cell_length_c 19.096343
_cell_angle_alpha 90.000000
_cell_angle_beta 90.000000
_cell_angle_gamma 90.000000
_cell_volume 6480.611312
_symmetry_space_group_name_H-M "C M M A"
_symmetry_group_IT_number 67
_symmetry_cell_setting 'orthorhombic'
loop_
_space_group_symop_operation_xyz
x,y,z
-x,1/2-y,z
x,-y,-z
-x,1/2+y,-z
-x,-y,-z
x,1/2+y,-z
-x,y,z
x,1/2-y,z
1/2+x,1/2+y,z
1/2-x,-y,z
1/2+x,1/2-y,-z
1/2-x,y,-z
1/2-x,1/2-y,-z
1/2+x,y,-z
1/2-x,1/2+y,z
1/2+x,-y,z
loop_
_atom_site_type_symbol
_atom_site_label
_atom_site_fract_x
_atom_site_fract_y
_atom_site_fract_z
Si Si1 0.204665 0.924711 0.851502
Si Si2 0.911192 0.017037 0.579701
Si Si3 0.329582 0.473124 0.709544
Si Si4 0.588186 0.172782 0.370100
Si Si5 0.914016 0.606782 0.224098
Si Si6 0.663831 0.335055 0.088419
Si Si7 0.085130 0.579044 0.966413
O O1 0.257553 0.866788 0.887773
O O2 0.250000 0.000000 0.857873
O O3 0.187351 0.913838 0.768978
O O4 0.128935 0.927044 0.893908
O O5 0.877621 0.965528 0.639563
O O6 0.885551 0.098449 0.596367
O O7 0.000000 0.014767 0.586343
O O8 0.891681 0.000000 0.500000
O O9 0.250000 0.500000 0.685509
O O10 0.369299 0.536034 0.754382
O O11 0.500000 0.173900 0.381855
O O12 0.617990 0.250000 0.393398
O O13 0.599187 0.162511 0.287075
O O14 0.889505 0.639465 0.151134
O O15 0.000000 0.588888 0.223321
O O16 0.666255 0.250000 0.082318
O O17 0.631708 0.370422 0.018222
O O18 0.000000 0.602094 0.959410
O O19 0.085272 0.500000 0.000000
#
# Coordination Sequence:
#
# PCOD9500734 Si02
#       7
#    16  16  16  16  16  16  16
#     4  11  21  39  58  77 109 148 189 231 274 339
#     4   9  18  31  50  81 115 143 180 231 277 324
#     4  10  18  33  55  79 104 146 192 221 266 334
#     4   8  14  25  44  71 104 139 168 204 265 331
#     4  10  18  31  52  81 113 141 175 227 282 332
#     4  12  24  37  57  85 112 147 185 236 297 345
#     4  11  23  37  57  81 108 145 188 230 278 337
#
# _framework density 17.282319999999999
#
# number of rings (size 3 to 8) (size 9 to 14) (size 15 to 20)
#    0.000    1.857    4.286    2.571    0.000    5.429 
#    0.000    0.000    0.000    0.857    0.000    2.000 
#    0.000    0.000    0.000    0.000    0.000    0.000 
#
# Total GULP energy -312069.390339 kJ/mol
# GULP energy per Si atom -5572.667685 kJ/mol
# Density = 1.724298 g / cm^3
# Si number density = 17.282320 Si / 1000 Ang^3
#
#
#
# Elastic Constant Matrix: (Units=GPa)
#
#
# Indices 1 2 3 4 5 6 
#
# 1 73.6901 16.5712 39.1540 0.0000 0.0000 0.0000
# 2 16.5712 34.5919 12.7214 0.0000 0.0000 0.0000
# 3 39.1540 12.7214 115.4794 0.0000 0.0000 0.0000
# 4 0.0000 0.0000 0.0000 -7.1177 0.0000 0.0000
# 5 0.0000 0.0000 0.0000 0.0000 221.6015 0.0000
# 6 0.0000 0.0000 0.0000 0.0000 0.0000 12.6621
#
#
#
# Elastic Compliance Matrix: (Units=1/GPa)
#
#
# Indices 1 2 3 4 5 6 
#
# 1 0.017893 -0.006608 -0.005339 0.000000 0.000000 0.000000
# 2 -0.006608 0.032570 -0.001347 0.000000 0.000000 0.000000
# 3 -0.005339 -0.001347 0.010618 0.000000 0.000000 0.000000
# 4 0.000000 0.000000 0.000000 -0.140496 0.000000 0.000000
# 5 0.000000 0.000000 0.000000 0.000000 0.004513 0.000000
# 6 0.000000 0.000000 0.000000 0.000000 0.000000 0.078976
#
#
# Mechanical properties :
#
#
# Convention : Reuss Voigt Hill
#
# Bulk Modulus (GPa) = 28.99218 40.07273 34.53246
# Shear Modulus (GPa) = 118.59635 55.78351 87.18993
#
# Velocity S-wave (km/s) = 8.29288 5.68752 7.11055
# Velocity P-wave (km/s) = 10.41671 8.14665 9.35083
#
# Compressibility (1/GPa) = 0.03449206
#
# Stress axis : x y z
#
# Youngs Moduli (GPa) = 55.88764 30.70341 94.17864
#
# Poissons Ratio (x) = 0.20290 0.50280
# Poissons Ratio (y) = 0.36932 0.12689
# Poissons Ratio (z) = 0.29837 0.04137
#
# Static dielectric constant tensor:
#      x y z
#    x 1.608360 0.000000 0.000000 
#    y 0.000000 1.621450 0.000000 
#    z 0.000000 0.000000 1.609300 
# 
# From -- ./inp_files/34459.got.cif
#   From: 2010.05.17/outbox.cif.g08.bks.cpg/sg67_18_cif.got.tgz:34459.got - 2010.06.03 18:28:57.
