data_PCOD9500582
_publ_section_title
;
Structure prediction by ZEFSAII (Michael W. Deem and Ramdas Pophale) SiO2 
 PCOD9500582
Probable space group: C M M A
;
_chemical_formula_sum "Si O2"
_cell_formula_units_Z 60
_cell_length_a 14.906304
_cell_length_b 15.662806
_cell_length_c 13.549892
_cell_angle_alpha 90.000000
_cell_angle_beta 90.000000
_cell_angle_gamma 90.000000
_cell_volume 3163.554906
_symmetry_space_group_name_H-M "C M M A"
_symmetry_group_IT_number 67
_symmetry_cell_setting 'orthorhombic'
loop_
_space_group_symop_operation_xyz
x,y,z
-x,1/2-y,z
x,-y,-z
-x,1/2+y,-z
-x,-y,-z
x,1/2+y,-z
-x,y,z
x,1/2-y,z
1/2+x,1/2+y,z
1/2-x,-y,z
1/2+x,1/2-y,-z
1/2-x,y,-z
1/2-x,1/2-y,-z
1/2+x,y,-z
1/2-x,1/2+y,z
1/2+x,-y,z
loop_
_atom_site_type_symbol
_atom_site_label
_atom_site_fract_x
_atom_site_fract_y
_atom_site_fract_z
Si Si1 0.190777 0.750000 0.903581
Si Si2 0.500000 0.412957 0.718409
Si Si3 0.000000 0.646034 0.491398
Si Si4 0.500000 0.250000 0.862076
Si Si5 0.699317 0.923154 0.222663
Si Si6 0.189740 0.150033 0.597943
O O1 0.086260 0.750000 0.929755
O O2 0.202179 0.664429 0.838935
O O3 0.250000 0.750000 0.000000
O O4 0.500000 0.391491 0.601946
O O5 0.500000 0.328184 0.786010
O O6 0.402339 0.450039 0.747560
O O7 0.089823 0.621401 0.432369
O O8 0.000000 0.750000 0.501677
O O9 0.758307 0.902622 0.319671
O O10 0.750000 0.000000 0.168674
O O11 0.184547 0.250000 0.628658
O O12 0.250000 0.146809 0.500000
#
# Coordination Sequence:
#
# PCOD9500582 Si02
#       6
#     8   8   8   4  16  16
#     4  10  22  44  68  91 115 148 198 255 309 363
#     4  10  18  35  57  85 120 158 210 244 273 343
#     4  10  18  29  54  85 121 167 206 247 279 342
#     4   8  18  34  66  92 106 146 202 244 296 354
#     4  11  23  39  62  89 122 160 199 248 300 358
#     4  10  19  32  53  82 121 160 198 238 290 336
#
# _framework density 18.966004999999999
#
# number of rings (size 3 to 8) (size 9 to 14) (size 15 to 20)
#    0.000    1.867    4.667    0.000    0.000    2.133 
#    0.000    4.000    0.000    4.800    0.000    0.000 
#    0.000    0.000    0.000    0.000    0.000    0.000 
#
# Total GULP energy -167306.106613 kJ/mol
# GULP energy per Si atom -5576.870220 kJ/mol
# Density = 1.892284 g / cm^3
# Si number density = 18.966005 Si / 1000 Ang^3
#
#
#
# Elastic Constant Matrix: (Units=GPa)
#
#
# Indices 1 2 3 4 5 6 
#
# 1 196.1008 46.4177 52.2657 0.0000 0.0000 0.0000
# 2 46.4177 75.5207 18.5427 0.0000 0.0000 0.0000
# 3 52.2657 18.5427 60.7386 0.0000 0.0000 0.0000
# 4 0.0000 0.0000 0.0000 -3.8218 0.0000 0.0000
# 5 0.0000 0.0000 0.0000 0.0000 33.5126 0.0000
# 6 0.0000 0.0000 0.0000 0.0000 0.0000 18.2558
#
#
#
# Elastic Compliance Matrix: (Units=1/GPa)
#
#
# Indices 1 2 3 4 5 6 
#
# 1 0.007255 -0.003163 -0.005277 0.000000 0.000000 0.000000
# 2 -0.003163 0.015694 -0.002069 0.000000 0.000000 0.000000
# 3 -0.005277 -0.002069 0.021636 0.000000 0.000000 0.000000
# 4 0.000000 0.000000 0.000000 -0.261656 0.000000 0.000000
# 5 0.000000 0.000000 0.000000 0.000000 0.029840 0.000000
# 6 0.000000 0.000000 0.000000 0.000000 0.000000 0.054777
#
#
# Mechanical properties :
#
#
# Convention : Reuss Voigt Hill
#
# Bulk Modulus (GPa) = 42.43354 62.97913 52.70634
# Shear Modulus (GPa) = -48.27135 23.93158 -12.16988
#
# Velocity S-wave (km/s) = -5.05042 3.55606 -2.53587
# Velocity P-wave (km/s) = 3.40396 7.08090 4.39045
#
# Compressibility (1/GPa) = 0.02356626
#
# Stress axis : x y z
#
# Youngs Moduli (GPa) = 137.84351 63.71985 46.21834
#
# Poissons Ratio (x) = 0.20157 0.24389
# Poissons Ratio (y) = 0.43604 0.09563
# Poissons Ratio (z) = 0.72739 0.13184
#
# Static dielectric constant tensor:
#      x y z
#    x 1.684140 0.000000 0.000000 
#    y 0.000000 1.726490 0.000000 
#    z 0.000000 0.000000 1.595400 
# 
# From -- ./inp_files/17458.got.cif
#   From: 2010.05.17/outbox.cif.g08.bks.cpg/sg67_9_cif.got.tgz:17458.got - 2010.06.03 18:28:57.
