data_PCOD9500576
_publ_section_title
;
Structure prediction by ZEFSAII (Michael W. Deem and Ramdas Pophale) SiO2 
 PCOD9500576
Probable space group: C M M A
;
_chemical_formula_sum "Si O2"
_cell_formula_units_Z 96
_cell_length_a 9.072147
_cell_length_b 23.898746
_cell_length_c 26.364875
_cell_angle_alpha 90.000000
_cell_angle_beta 90.000000
_cell_angle_gamma 90.000000
_cell_volume 5716.245978
_symmetry_space_group_name_H-M "C M M A"
_symmetry_group_IT_number 67
_symmetry_cell_setting 'orthorhombic'
loop_
_space_group_symop_operation_xyz
x,y,z
-x,1/2-y,z
x,-y,-z
-x,1/2+y,-z
-x,-y,-z
x,1/2+y,-z
-x,y,z
x,1/2-y,z
1/2+x,1/2+y,z
1/2-x,-y,z
1/2+x,1/2-y,-z
1/2-x,y,-z
1/2-x,1/2-y,-z
1/2+x,y,-z
1/2-x,1/2+y,z
1/2+x,-y,z
loop_
_atom_site_type_symbol
_atom_site_label
_atom_site_fract_x
_atom_site_fract_y
_atom_site_fract_z
Si Si1 0.175046 0.750000 0.422647
Si Si2 0.669618 0.181928 0.051234
Si Si3 0.677902 0.815607 0.156293
Si Si4 0.164003 0.750000 0.679366
Si Si5 0.323409 0.560579 0.654218
Si Si6 0.828330 0.866174 0.739194
Si Si7 0.177888 0.373354 0.550840
O O1 0.213526 0.750000 0.363446
O O2 0.231422 0.691098 0.443920
O O3 0.000000 0.750000 0.429932
O O4 0.500000 0.163991 0.052114
O O5 0.671198 0.250000 0.049920
O O6 0.752810 0.166537 0.102935
O O7 0.750000 0.162673 0.000000
O O8 0.500000 0.816964 0.153381
O O9 0.718549 0.750000 0.165559
O O10 0.723031 0.854572 0.203379
O O11 0.174969 0.694893 0.713130
O O12 0.000000 0.750000 0.655134
O O13 0.500000 0.556317 0.656067
O O14 0.250000 0.500000 0.651785
O O15 0.264585 0.593078 0.703676
O O16 0.283820 0.594920 0.602957
O O17 0.000000 0.884491 0.739966
O O18 0.250000 0.397717 0.500000
O O19 0.000000 0.373995 0.546288
#
# Coordination Sequence:
#
# PCOD9500576 Si02
#       7
#     8  16  16   8  16  16  16
#     4  10  19  35  53  78 110 133 161 201 246 299
#     4   9  16  25  37  57  89 132 177 214 249 291
#     4   9  16  27  44  68  99 133 168 206 248 297
#     4  10  18  29  51  80 104 133 166 199 247 305
#     4  11  24  41  58  76  99 131 169 212 258 304
#     4  10  19  33  53  78 105 133 168 208 253 306
#     4  10  22  37  56  79 104 132 163 202 249 301
#
# _framework density 16.794238
#
# number of rings (size 3 to 8) (size 9 to 14) (size 15 to 20)
#    0.000    2.167    2.500    1.250    0.000    5.000 
#    0.000    1.667    0.000    0.000    0.000    0.000 
#    0.000    0.667    0.000    7.000    0.000    3.333 
#
# Total GULP energy -267627.829365 kJ/mol
# GULP energy per Si atom -5575.579778 kJ/mol
# Density = 1.675601 g / cm^3
# Si number density = 16.794238 Si / 1000 Ang^3
#
#
#
# Elastic Constant Matrix: (Units=GPa)
#
#
# Indices 1 2 3 4 5 6 
#
# 1 39.9585 35.3230 54.6414 0.0000 0.0000 0.0000
# 2 35.3230 78.3687 50.6276 0.0000 0.0000 0.0000
# 3 54.6414 50.6276 168.8320 0.0000 0.0000 0.0000
# 4 0.0000 0.0000 0.0000 -5.2547 0.0000 0.0000
# 5 0.0000 0.0000 0.0000 0.0000 31.2916 0.0000
# 6 0.0000 0.0000 0.0000 0.0000 0.0000 10.2307
#
#
#
# Elastic Compliance Matrix: (Units=1/GPa)
#
#
# Indices 1 2 3 4 5 6 
#
# 1 0.060247 -0.018057 -0.014084 0.000000 0.000000 0.000000
# 2 -0.018057 0.021238 -0.000525 0.000000 0.000000 0.000000
# 3 -0.014084 -0.000525 0.010639 0.000000 0.000000 0.000000
# 4 0.000000 0.000000 0.000000 -0.190306 0.000000 0.000000
# 5 0.000000 0.000000 0.000000 0.000000 0.031957 0.000000
# 6 0.000000 0.000000 0.000000 0.000000 0.000000 0.097745
#
#
# Mechanical properties :
#
#
# Convention : Reuss Voigt Hill
#
# Bulk Modulus (GPa) = 37.32321 63.14924 50.23623
# Shear Modulus (GPa) = 47.26752 17.02466 32.14609
#
# Velocity S-wave (km/s) = 5.31095 3.18735 4.37981
# Velocity P-wave (km/s) = 7.73824 7.15744 7.45350
#
# Compressibility (1/GPa) = 0.02679298
#
# Stress axis : x y z
#
# Youngs Moduli (GPa) = 16.59834 47.08599 93.99772
#
# Poissons Ratio (x) = 0.85021 1.32386
# Poissons Ratio (y) = 0.29971 0.04932
# Poissons Ratio (z) = 0.23377 0.02470
#
# Static dielectric constant tensor:
#      x y z
#    x 1.568220 0.000000 0.000000 
#    y 0.000000 1.553660 0.000000 
#    z 0.000000 0.000000 1.569700 
# 
# From -- ./inp_files/40840.got.cif
#   From: 2010.05.17/outbox.cif.g08.bks.cpg/sg67_21_cif.got.tgz:40840.got - 2010.06.03 18:28:57.
