data_PCOD9500322
_publ_section_title
;
Structure prediction by ZEFSAII (Michael W. Deem and Ramdas Pophale) SiO2 
 PCOD9500322
Probable space group: C M M A
;
_chemical_formula_sum "Si O2"
_cell_formula_units_Z 72
_cell_length_a 16.203479
_cell_length_b 8.660473
_cell_length_c 25.484991
_cell_angle_alpha 90.000000
_cell_angle_beta 90.000000
_cell_angle_gamma 90.000000
_cell_volume 3576.303496
_symmetry_space_group_name_H-M "C M M A"
_symmetry_group_IT_number 67
_symmetry_cell_setting 'orthorhombic'
loop_
_space_group_symop_operation_xyz
x,y,z
-x,1/2-y,z
x,-y,-z
-x,1/2+y,-z
-x,-y,-z
x,1/2+y,-z
-x,y,z
x,1/2-y,z
1/2+x,1/2+y,z
1/2-x,-y,z
1/2+x,1/2-y,-z
1/2-x,y,-z
1/2-x,1/2-y,-z
1/2+x,y,-z
1/2-x,1/2+y,z
1/2+x,-y,z
loop_
_atom_site_type_symbol
_atom_site_label
_atom_site_fract_x
_atom_site_fract_y
_atom_site_fract_z
Si Si1 0.000000 0.062870 0.941320
Si Si2 0.342886 0.564614 0.338392
Si Si3 0.836212 0.066240 0.879319
Si Si4 0.405662 0.935202 0.223751
Si Si5 0.344234 0.065571 0.446205
O O1 0.916985 0.011686 0.911121
O O2 0.000000 0.250000 0.941867
O O3 0.000000 0.000000 0.000000
O O4 0.340865 0.750000 0.343835
O O5 0.250000 0.500000 0.333953
O O6 0.386905 0.524091 0.283963
O O7 0.381197 0.493354 0.391341
O O8 0.833371 0.250000 0.881899
O O9 0.750000 0.000000 0.899664
O O10 0.848655 0.014933 0.819092
O O11 0.500000 0.976773 0.211600
O O12 0.396241 0.750000 0.219200
O O13 0.341870 0.250000 0.447803
O O14 0.382178 0.000000 0.500000
O O15 0.250000 0.000000 0.445274
#
# Coordination Sequence:
#
# PCOD9500322 Si02
#       5
#     8  16  16  16  16
#     4  10  24  44  66  94 130 168 209 254 303 354
#     4  10  19  31  48  74 106 138 180 231 283 348
#     4  11  23  41  64  94 127 164 208 255 304 361
#     4  10  21  37  58  84 115 154 196 242 300 359
#     4  10  17  27  44  67  97 133 175 225 284 346
#
# _framework density 20.13252
#
# number of rings (size 3 to 8) (size 9 to 14) (size 15 to 20)
#    0.000    1.778    1.111    6.000    0.000    5.778 
#    0.000    2.222    0.000    0.667    0.000    0.000 
#    0.000    0.000    0.000    0.000    0.000    0.000 
#
# Total GULP energy -201073.628534 kJ/mol
# GULP energy per Si atom -5585.378570 kJ/mol
# Density = 2.008670 g / cm^3
# Si number density = 20.132520 Si / 1000 Ang^3
#
#
#
# Elastic Constant Matrix: (Units=GPa)
#
#
# Indices 1 2 3 4 5 6 
#
# 1 105.5041 30.4005 53.0616 0.0000 0.0000 0.0000
# 2 30.4005 70.6632 41.8853 0.0000 0.0000 0.0000
# 3 53.0616 41.8853 139.2413 0.0000 0.0000 0.0000
# 4 0.0000 0.0000 0.0000 40.1998 0.0000 0.0000
# 5 0.0000 0.0000 0.0000 0.0000 31.5100 0.0000
# 6 0.0000 0.0000 0.0000 0.0000 0.0000 19.3067
#
#
#
# Elastic Compliance Matrix: (Units=1/GPa)
#
#
# Indices 1 2 3 4 5 6 
#
# 1 0.012241 -0.003044 -0.003749 0.000000 0.000000 0.000000
# 2 -0.003044 0.017979 -0.004248 0.000000 0.000000 0.000000
# 3 -0.003749 -0.004248 0.009888 0.000000 0.000000 0.000000
# 4 0.000000 0.000000 0.000000 0.024876 0.000000 0.000000
# 5 0.000000 0.000000 0.000000 0.000000 0.031736 0.000000
# 6 0.000000 0.000000 0.000000 0.000000 0.000000 0.051796
#
#
# Mechanical properties :
#
#
# Convention : Reuss Voigt Hill
#
# Bulk Modulus (GPa) = 55.47590 62.90036 59.18813
# Shear Modulus (GPa) = 28.31134 30.87405 29.59270
#
# Velocity S-wave (km/s) = 3.75407 3.92029 3.83808
# Velocity P-wave (km/s) = 6.81219 7.19740 7.00744
#
# Compressibility (1/GPa) = 0.01802585
#
# Stress axis : x y z
#
# Youngs Moduli (GPa) = 81.69294 55.61904 101.12831
#
# Poissons Ratio (x) = 0.16931 0.37914
# Poissons Ratio (y) = 0.24867 0.42964
# Poissons Ratio (z) = 0.30627 0.23629
#
# Static dielectric constant tensor:
#      x y z
#    x 1.726620 0.000000 0.000000 
#    y 0.000000 1.673500 0.000000 
#    z 0.000000 0.000000 1.733350 
# 
# From -- ./inp_files/44242.got.cif
#   From: 2010.05.17/outbox.cif.g08.bks.cpg/sg67_23_cif.got.tgz:44242.got - 2010.06.03 18:28:57.
