data_PCOD9500279
_publ_section_title
;
Structure prediction by ZEFSAII (Michael W. Deem and Ramdas Pophale) SiO2 
 PCOD9500279
Probable space group: C M M A
;
_chemical_formula_sum "Si O2"
_cell_formula_units_Z 104
_cell_length_a 26.611017
_cell_length_b 8.721319
_cell_length_c 28.241161
_cell_angle_alpha 90.000000
_cell_angle_beta 90.000000
_cell_angle_gamma 90.000000
_cell_volume 6554.298118
_symmetry_space_group_name_H-M "C M M A"
_symmetry_group_IT_number 67
_symmetry_cell_setting 'orthorhombic'
loop_
_space_group_symop_operation_xyz
x,y,z
-x,1/2-y,z
x,-y,-z
-x,1/2+y,-z
-x,-y,-z
x,1/2+y,-z
-x,y,z
x,1/2-y,z
1/2+x,1/2+y,z
1/2-x,-y,z
1/2+x,1/2-y,-z
1/2-x,y,-z
1/2-x,1/2-y,-z
1/2+x,y,-z
1/2-x,1/2+y,z
1/2+x,-y,z
loop_
_atom_site_type_symbol
_atom_site_label
_atom_site_fract_x
_atom_site_fract_y
_atom_site_fract_z
Si Si1 0.307058 0.433223 0.951559
Si Si2 0.195543 0.933779 0.654349
Si Si3 0.158298 0.070625 0.240438
Si Si4 0.194251 0.931136 0.144362
Si Si5 0.906518 0.430229 0.617542
Si Si6 0.500000 0.936111 0.552764
Si Si7 0.444099 0.426035 0.711212
O O1 0.194832 0.750000 0.953291
O O2 0.250000 0.500000 0.950688
O O3 0.330230 0.490713 0.902047
O O4 0.330118 0.500000 0.000000
O O5 0.196567 0.750000 0.652550
O O6 0.184008 0.977075 0.709597
O O7 0.250000 0.000000 0.640934
O O8 0.148276 0.991242 0.622904
O O9 0.171628 0.250000 0.232092
O O10 0.099143 0.059307 0.250512
O O11 0.170947 0.972550 0.194822
O O12 0.196308 0.750000 0.136874
O O13 0.250000 0.000000 0.147543
O O14 0.898467 0.250000 0.610067
O O15 0.932575 0.461689 0.668125
O O16 0.948552 0.485129 0.579830
O O17 0.500000 0.750000 0.552964
O O18 0.500000 0.000000 0.500000
O O19 0.500000 0.448072 0.729503
O O20 0.439905 0.250000 0.692486
#
# Coordination Sequence:
#
# PCOD9500279 Si02
#       7
#    16  16  16  16  16   8  16
#     4  10  17  27  41  57  78 106 143 185 228 273
#     4  10  20  33  50  73  99 133 169 202 239 285
#     4   9  18  30  43  64  92 121 156 191 229 275
#     4  11  20  29  41  58  83 117 153 188 229 271
#     4  10  19  33  51  75 103 130 162 201 242 287
#     4  10  22  36  54  80 106 132 162 202 249 292
#     4   9  17  30  49  70  93 124 158 192 233 282
#
# _framework density 15.867449000000001
#
# number of rings (size 3 to 8) (size 9 to 14) (size 15 to 20)
#    0.000    2.154    0.769    6.462    0.000    5.538 
#    0.000    0.000    0.000    0.462    0.000    3.231 
#    0.000    0.615    0.000    1.692    0.000    2.769 
#
# Total GULP energy -289679.113394 kJ/mol
# GULP energy per Si atom -5570.752181 kJ/mol
# Density = 1.583133 g / cm^3
# Si number density = 15.867449 Si / 1000 Ang^3
#
#
#
# Elastic Constant Matrix: (Units=GPa)
#
#
# Indices 1 2 3 4 5 6 
#
# 1 102.3720 32.0533 40.4478 0.0000 0.0000 0.0000
# 2 32.0533 81.9100 41.7695 0.0000 0.0000 0.0000
# 3 40.4478 41.7695 91.8020 0.0000 0.0000 0.0000
# 4 0.0000 0.0000 0.0000 28.3860 0.0000 0.0000
# 5 0.0000 0.0000 0.0000 0.0000 9.6254 0.0000
# 6 0.0000 0.0000 0.0000 0.0000 0.0000 19.1036
#
#
#
# Elastic Compliance Matrix: (Units=1/GPa)
#
#
# Indices 1 2 3 4 5 6 
#
# 1 0.012257 -0.002660 -0.004190 0.000000 0.000000 0.000000
# 2 -0.002660 0.016474 -0.006324 0.000000 0.000000 0.000000
# 3 -0.004190 -0.006324 0.015616 0.000000 0.000000 0.000000
# 4 0.000000 0.000000 0.000000 0.035229 0.000000 0.000000
# 5 0.000000 0.000000 0.000000 0.000000 0.103892 0.000000
# 6 0.000000 0.000000 0.000000 0.000000 0.000000 0.052346
#
#
# Mechanical properties :
#
#
# Convention : Reuss Voigt Hill
#
# Bulk Modulus (GPa) = 55.55529 56.06946 55.81237
# Shear Modulus (GPa) = 18.64550 22.21055 20.42803
#
# Velocity S-wave (km/s) = 3.43166 3.74539 3.59195
# Velocity P-wave (km/s) = 7.12670 7.35641 7.24247
#
# Compressibility (1/GPa) = 0.01800009
#
# Stress axis : x y z
#
# Youngs Moduli (GPa) = 81.58890 60.70150 64.03490
#
# Poissons Ratio (x) = 0.16144 0.26832
# Poissons Ratio (y) = 0.21699 0.40495
# Poissons Ratio (z) = 0.34187 0.38387
#
# Static dielectric constant tensor:
#      x y z
#    x 1.541290 0.000000 0.000000 
#    y 0.000000 1.557910 0.000000 
#    z 0.000000 0.000000 1.552740 
# 
# From -- ./inp_files/45060.got.cif
#   From: 2010.05.17/outbox.cif.g08.bks.cpg/sg67_23_cif.got.tgz:45060.got - 2010.06.03 18:28:57.
