data_PCOD9500764
_publ_section_title
;
Structure prediction by ZEFSAII (Michael W. Deem and Ramdas Pophale) SiO2 
 PCOD9500764
Probable space group: C M M A
;
_chemical_formula_sum "Si O2"
_cell_formula_units_Z 116
_cell_length_a 15.099879
_cell_length_b 28.500481
_cell_length_c 15.374530
_cell_angle_alpha 90.000000
_cell_angle_beta 90.000000
_cell_angle_gamma 90.000000
_cell_volume 6616.487632
_symmetry_space_group_name_H-M "C M M A"
_symmetry_group_IT_number 67
_symmetry_cell_setting 'orthorhombic'
loop_
_space_group_symop_operation_xyz
x,y,z
-x,1/2-y,z
x,-y,-z
-x,1/2+y,-z
-x,-y,-z
x,1/2+y,-z
-x,y,z
x,1/2-y,z
1/2+x,1/2+y,z
1/2-x,-y,z
1/2+x,1/2-y,-z
1/2-x,y,-z
1/2-x,1/2-y,-z
1/2+x,y,-z
1/2-x,1/2+y,z
1/2+x,-y,z
loop_
_atom_site_type_symbol
_atom_site_label
_atom_site_fract_x
_atom_site_fract_y
_atom_site_fract_z
Si Si1 0.604883 0.880144 0.176816
Si Si2 0.395767 0.304682 0.487874
Si Si3 0.603695 0.631828 0.871502
Si Si4 0.145004 0.804167 0.292499
Si Si5 0.392513 0.196316 0.964332
Si Si6 0.249794 0.053802 0.895661
Si Si7 0.000000 0.250000 0.307245
Si Si8 0.155597 0.173691 0.330903
O O1 0.500000 0.886526 0.168583
O O2 0.660816 0.921567 0.135943
O O3 0.633396 0.872294 0.275947
O O4 0.630202 0.833147 0.121817
O O5 0.500000 0.304882 0.510123
O O6 0.366322 0.250000 0.491929
O O7 0.386401 0.319808 0.388506
O O8 0.345314 0.331143 0.564609
O O9 0.500000 0.619577 0.885674
O O10 0.612096 0.662711 0.784330
O O11 0.633621 0.665407 0.951898
O O12 0.667263 0.586642 0.867285
O O13 0.116712 0.750000 0.278930
O O14 0.250819 0.806967 0.299074
O O15 0.500000 0.199027 0.966347
O O16 0.359497 0.250000 0.964655
O O17 0.250000 0.000000 0.865309
O O18 0.250000 0.053794 0.000000
O O19 0.922555 0.290374 0.308614
#
# Coordination Sequence:
#
# PCOD9500764 Si02
#       8
#    16  16  16  16  16  16   4  16
#     4  11  22  36  58  85 113 146 190 231 281 344
#     4  10  18  32  48  74 113 158 199 236 271 315
#     4  11  22  40  57  82 115 151 190 234 280 339
#     4  11  22  32  53  81 116 160 201 230 270 329
#     4   9  19  32  52  78 115 154 186 217 260 322
#     4  11  24  43  64  85 109 140 187 244 302 350
#     4  12  20  32  50  80 116 168 190 240 282 322
#     4  12  20  32  51  77 116 154 195 237 278 322
#
# _framework density 17.531960000000002
#
# number of rings (size 3 to 8) (size 9 to 14) (size 15 to 20)
#    0.000    1.241    5.517    1.241    0.966    3.034 
#    0.000    2.069    0.000    0.000    0.000    1.931 
#    0.000    3.310    0.000    0.000    0.000    0.000 
#
# Total GULP energy -323351.932335 kJ/mol
# GULP energy per Si atom -5575.033316 kJ/mol
# Density = 1.749206 g / cm^3
# Si number density = 17.531960 Si / 1000 Ang^3
#
#
#
# Elastic Constant Matrix: (Units=GPa)
#
#
# Indices 1 2 3 4 5 6 
#
# 1 69.2149 28.4331 13.6483 0.0000 0.0000 0.0000
# 2 28.4331 106.1183 41.7020 0.0000 0.0000 0.0000
# 3 13.6483 41.7020 109.1972 0.0000 0.0000 0.0000
# 4 0.0000 0.0000 0.0000 12.5144 0.0000 0.0000
# 5 0.0000 0.0000 0.0000 0.0000 21.5457 0.0000
# 6 0.0000 0.0000 0.0000 0.0000 0.0000 12.1456
#
#
#
# Elastic Compliance Matrix: (Units=1/GPa)
#
#
# Indices 1 2 3 4 5 6 
#
# 1 0.016252 -0.004184 -0.000433 0.000000 0.000000 0.000000
# 2 -0.004184 0.012165 -0.004123 0.000000 0.000000 0.000000
# 3 -0.000433 -0.004123 0.010786 0.000000 0.000000 0.000000
# 4 0.000000 0.000000 0.000000 0.079908 0.000000 0.000000
# 5 0.000000 0.000000 0.000000 0.000000 0.046413 0.000000
# 6 0.000000 0.000000 0.000000 0.000000 0.000000 0.082334
#
#
# Mechanical properties :
#
#
# Convention : Reuss Voigt Hill
#
# Bulk Modulus (GPa) = 46.03511 50.23302 48.13406
# Shear Modulus (GPa) = 18.34325 22.62427 20.48376
#
# Velocity S-wave (km/s) = 3.23813 3.59619 3.42185
# Velocity P-wave (km/s) = 6.34787 6.77923 6.56709
#
# Compressibility (1/GPa) = 0.02172255
#
# Stress axis : x y z
#
# Youngs Moduli (GPa) = 61.53058 82.20524 92.70983
#
# Poissons Ratio (x) = 0.34397 0.04018
# Poissons Ratio (y) = 0.25746 0.38221
# Poissons Ratio (z) = 0.02667 0.33890
#
# Static dielectric constant tensor:
#      x y z
#    x 1.623400 0.000000 0.000000 
#    y 0.000000 1.569180 0.000000 
#    z 0.000000 0.000000 1.646540 
# 
# From -- ./inp_files/28822.got.cif
#   From: 2010.05.17/outbox.cif.g08.bks.cpg/sg67_15_cif.got.tgz:28822.got - 2010.06.03 18:28:57.
