data_PCOD9500388
_publ_section_title
;
Structure prediction by ZEFSAII (Michael W. Deem and Ramdas Pophale) SiO2 
 PCOD9500388
Probable space group: C M M A
;
_chemical_formula_sum "Si O2"
_cell_formula_units_Z 112
_cell_length_a 20.614474
_cell_length_b 18.169817
_cell_length_c 18.095156
_cell_angle_alpha 90.000000
_cell_angle_beta 90.000000
_cell_angle_gamma 90.000000
_cell_volume 6777.743710
_symmetry_space_group_name_H-M "C M M A"
_symmetry_group_IT_number 67
_symmetry_cell_setting 'orthorhombic'
loop_
_space_group_symop_operation_xyz
x,y,z
-x,1/2-y,z
x,-y,-z
-x,1/2+y,-z
-x,-y,-z
x,1/2+y,-z
-x,y,z
x,1/2-y,z
1/2+x,1/2+y,z
1/2-x,-y,z
1/2+x,1/2-y,-z
1/2-x,y,-z
1/2-x,1/2-y,-z
1/2+x,y,-z
1/2-x,1/2+y,z
1/2+x,-y,z
loop_
_atom_site_type_symbol
_atom_site_label
_atom_site_fract_x
_atom_site_fract_y
_atom_site_fract_z
Si Si1 0.161764 0.423190 0.629153
Si Si2 0.856798 0.161949 0.775321
Si Si3 0.723056 0.915536 0.186210
Si Si4 0.828530 0.168127 0.489501
Si Si5 0.427260 0.160629 0.075938
Si Si6 0.318694 0.163436 0.957701
Si Si7 0.681696 0.912929 0.346036
O O1 0.131709 0.378917 0.697785
O O2 0.145586 0.388606 0.550189
O O3 0.240188 0.417139 0.640165
O O4 0.149547 0.509550 0.633502
O O5 0.858434 0.250000 0.765418
O O6 0.785637 0.136801 0.802807
O O7 0.904713 0.139801 0.841606
O O8 0.687339 0.889424 0.112598
O O9 0.678146 0.903714 0.258225
O O10 0.750000 0.000000 0.185057
O O11 0.851375 0.250000 0.506474
O O12 0.750000 0.167618 0.500000
O O13 0.842245 0.146429 0.405007
O O14 0.500000 0.135103 0.060065
O O15 0.427016 0.250000 0.075525
O O16 0.374619 0.139241 0.014592
O O17 0.329083 0.250000 0.936982
O O18 0.250000 0.160519 0.000000
#
# Coordination Sequence:
#
# PCOD9500388 Si02
#       7
#    16  16  16  16  16  16  16
#     4   9  15  26  38  59  86 122 158 192 231 284
#     4  10  17  28  48  68  91 122 160 201 236 284
#     4  11  19  30  43  68  93 126 161 199 240 287
#     4   9  16  23  35  56  86 123 160 193 231 280
#     4   9  18  33  51  72  98 126 156 199 254 298
#     4  10  19  32  50  72  93 121 162 204 242 288
#     4   9  16  26  37  56  88 125 157 190 236 284
#
# _framework density 16.524674000000001
#
# number of rings (size 3 to 8) (size 9 to 14) (size 15 to 20)
#    0.000    2.429    4.286    1.286    0.000    6.000 
#    0.000    0.000    0.000    1.714    0.000    0.000 
#    0.000    3.429    0.000    7.857    0.000    1.429 
#
# Total GULP energy -311799.716733 kJ/mol
# GULP energy per Si atom -5567.852085 kJ/mol
# Density = 1.648706 g / cm^3
# Si number density = 16.524674 Si / 1000 Ang^3
#
#
#
# Elastic Constant Matrix: (Units=GPa)
#
#
# Indices 1 2 3 4 5 6 
#
# 1 46.1575 11.8049 28.7771 0.0000 0.0000 0.0000
# 2 11.8049 50.5649 43.7553 0.0000 0.0000 0.0000
# 3 28.7771 43.7553 130.1531 0.0000 0.0000 0.0000
# 4 0.0000 0.0000 0.0000 30.3619 0.0000 0.0000
# 5 0.0000 0.0000 0.0000 0.0000 8.9944 0.0000
# 6 0.0000 0.0000 0.0000 0.0000 0.0000 3.6881
#
#
#
# Elastic Compliance Matrix: (Units=1/GPa)
#
#
# Indices 1 2 3 4 5 6 
#
# 1 0.025209 -0.001498 -0.005070 0.000000 0.000000 0.000000
# 2 -0.001498 0.027979 -0.009075 0.000000 0.000000 0.000000
# 3 -0.005070 -0.009075 0.011855 0.000000 0.000000 0.000000
# 4 0.000000 0.000000 0.000000 0.032936 0.000000 0.000000
# 5 0.000000 0.000000 0.000000 0.000000 0.111181 0.000000
# 6 0.000000 0.000000 0.000000 0.000000 0.000000 0.271143
#
#
# Mechanical properties :
#
#
# Convention : Reuss Voigt Hill
#
# Bulk Modulus (GPa) = 29.62330 43.94999 36.78665
# Shear Modulus (GPa) = 9.56313 18.11142 13.83728
#
# Velocity S-wave (km/s) = 2.40827 3.31422 2.89688
# Velocity P-wave (km/s) = 5.06938 6.42648 5.78785
#
# Compressibility (1/GPa) = 0.03375721
#
# Stress axis : x y z
#
# Youngs Moduli (GPa) = 39.66825 35.74105 84.35182
#
# Poissons Ratio (x) = 0.05354 0.42768
# Poissons Ratio (y) = 0.05942 0.76548
# Poissons Ratio (z) = 0.20113 0.32435
#
# Static dielectric constant tensor:
#      x y z
#    x 1.542000 0.000000 0.000000 
#    y 0.000000 1.567040 0.000000 
#    z 0.000000 0.000000 1.578280 
# 
# From -- ./inp_files/35110.got.cif
#   From: 2010.05.17/outbox.cif.g08.bks.cpg/sg67_18_cif.got.tgz:35110.got - 2010.06.03 18:28:57.
