data_PCOD9500621
_publ_section_title
;
Structure prediction by ZEFSAII (Michael W. Deem and Ramdas Pophale) SiO2 
 PCOD9500621
Probable space group: C M M A
;
_chemical_formula_sum "Si O2"
_cell_formula_units_Z 104
_cell_length_a 8.023739
_cell_length_b 32.392505
_cell_length_c 20.284652
_cell_angle_alpha 90.000000
_cell_angle_beta 90.000000
_cell_angle_gamma 90.000000
_cell_volume 5272.163732
_symmetry_space_group_name_H-M "C M M A"
_symmetry_group_IT_number 67
_symmetry_cell_setting 'orthorhombic'
loop_
_space_group_symop_operation_xyz
x,y,z
-x,1/2-y,z
x,-y,-z
-x,1/2+y,-z
-x,-y,-z
x,1/2+y,-z
-x,y,z
x,1/2-y,z
1/2+x,1/2+y,z
1/2-x,-y,z
1/2+x,1/2-y,-z
1/2-x,y,-z
1/2-x,1/2-y,-z
1/2+x,y,-z
1/2-x,1/2+y,z
1/2+x,-y,z
loop_
_atom_site_type_symbol
_atom_site_label
_atom_site_fract_x
_atom_site_fract_y
_atom_site_fract_z
Si Si1 0.296397 0.204883 0.786827
Si Si2 0.204638 0.376235 0.293779
Si Si3 0.696329 0.339813 0.575792
Si Si4 0.200304 0.674910 0.928428
Si Si5 0.697600 0.250000 0.423040
Si Si6 0.700800 0.545572 0.209742
Si Si7 0.799484 0.420653 0.071472
O O1 0.500000 0.204798 0.785116
O O2 0.240752 0.250000 0.762518
O O3 0.242966 0.164720 0.746220
O O4 0.244517 0.198675 0.863075
O O5 0.262979 0.371063 0.369136
O O6 0.260014 0.417522 0.256928
O O7 0.000000 0.376480 0.293188
O O8 0.500000 0.344072 0.574497
O O9 0.750000 0.344236 0.500000
O O10 0.765145 0.293518 0.398141
O O11 0.259541 0.627125 0.924227
O O12 0.000000 0.674102 0.926332
O O13 0.250000 0.691635 0.000000
O O14 0.500000 0.250000 0.418447
O O15 0.750000 0.250000 0.500000
O O16 0.500000 0.547723 0.208505
O O17 0.750000 0.500000 0.231151
O O18 0.761565 0.554698 0.135196
O O19 0.000000 0.419611 0.074110
O O20 0.750000 0.437360 0.000000
#
# Coordination Sequence:
#
# PCOD9500621 Si02
#       7
#    16  16  16  16   8  16  16
#     4   9  16  27  47  74  98 126 171 215 245 285
#     4   9  18  33  53  76 103 133 169 212 253 301
#     4  10  19  32  53  79 105 138 175 212 253 301
#     4   9  16  28  46  68  94 128 165 207 251 290
#     4  10  18  30  48  74 110 144 173 208 245 292
#     4  10  20  36  55  77 102 130 168 214 261 307
#     4   9  17  30  49  70  98 130 163 205 253 302
#
# _framework density 19.726247999999998
#
# number of rings (size 3 to 8) (size 9 to 14) (size 15 to 20)
#    0.000    2.615    1.538    2.077    1.077    1.231 
#    0.000    3.077    0.000    2.308    0.000    3.231 
#    0.000    0.000    0.000    0.000    0.000    0.000 
#
# Total GULP energy -290034.590061 kJ/mol
# GULP energy per Si atom -5577.588270 kJ/mol
# Density = 1.968135 g / cm^3
# Si number density = 19.726248 Si / 1000 Ang^3
#
#
#
# Elastic Constant Matrix: (Units=GPa)
#
#
# Indices 1 2 3 4 5 6 
#
# 1 11.1397 5.4606 13.0728 0.0000 0.0000 0.0000
# 2 5.4606 136.7910 83.3440 0.0000 0.0000 0.0000
# 3 13.0728 83.3440 139.1575 0.0000 0.0000 0.0000
# 4 0.0000 0.0000 0.0000 18.1091 0.0000 0.0000
# 5 0.0000 0.0000 0.0000 0.0000 14.6582 0.0000
# 6 0.0000 0.0000 0.0000 0.0000 0.0000 -1.4433
#
#
#
# Elastic Compliance Matrix: (Units=1/GPa)
#
#
# Indices 1 2 3 4 5 6 
#
# 1 0.101553 0.002769 -0.011199 0.000000 0.000000 0.000000
# 2 0.002769 0.011586 -0.007199 0.000000 0.000000 0.000000
# 3 -0.011199 -0.007199 0.012550 0.000000 0.000000 0.000000
# 4 0.000000 0.000000 0.000000 0.055221 0.000000 0.000000
# 5 0.000000 0.000000 0.000000 0.000000 0.068221 0.000000
# 6 0.000000 0.000000 0.000000 0.000000 0.000000 -0.692869
#
#
# Mechanical properties :
#
#
# Convention : Reuss Voigt Hill
#
# Bulk Modulus (GPa) = 10.58965 54.53812 32.56388
# Shear Modulus (GPa) = -13.12328 18.61219 2.74445
#
# Velocity S-wave (km/s) = -2.58208 3.07502 1.18080
# Velocity P-wave (km/s) = 1.87338 6.34942 4.28985
#
# Compressibility (1/GPa) = 0.09443182
#
# Stress axis : x y z
#
# Youngs Moduli (GPa) = 9.84705 86.30855 79.68130
#
# Poissons Ratio (x) = -0.23900 0.89232
# Poissons Ratio (y) = -0.02727 0.57366
# Poissons Ratio (z) = 0.11027 0.62137
#
# Static dielectric constant tensor:
#      x y z
#    x 1.709050 0.000000 0.000000 
#    y 0.000000 1.684520 0.000000 
#    z 0.000000 0.000000 1.728640 
# 
# From -- ./inp_files/31133.got.cif
#   From: 2010.05.17/outbox.cif.g08.bks.cpg/sg67_16_cif.got.tgz:31133.got - 2010.06.03 18:28:57.
