data_PCOD9500870
_publ_section_title
;
Structure prediction by ZEFSAII (Michael W. Deem and Ramdas Pophale) SiO2 
 PCOD9500870
Probable space group: C M M A
;
_chemical_formula_sum "Si O2"
_cell_formula_units_Z 64
_cell_length_a 8.571054
_cell_length_b 14.910371
_cell_length_c 25.394921
_cell_angle_alpha 90.000000
_cell_angle_beta 90.000000
_cell_angle_gamma 90.000000
_cell_volume 3245.409829
_symmetry_space_group_name_H-M "C M M A"
_symmetry_group_IT_number 67
_symmetry_cell_setting 'orthorhombic'
loop_
_space_group_symop_operation_xyz
x,y,z
-x,1/2-y,z
x,-y,-z
-x,1/2+y,-z
-x,-y,-z
x,1/2+y,-z
-x,y,z
x,1/2-y,z
1/2+x,1/2+y,z
1/2-x,-y,z
1/2+x,1/2-y,-z
1/2-x,y,-z
1/2-x,1/2-y,-z
1/2+x,y,-z
1/2-x,1/2+y,z
1/2+x,-y,z
loop_
_atom_site_type_symbol
_atom_site_label
_atom_site_fract_x
_atom_site_fract_y
_atom_site_fract_z
Si Si1 0.186655 0.601618 0.362950
Si Si2 0.186611 0.102265 0.252087
Si Si3 0.312469 0.898974 0.858406
Si Si4 0.187735 0.750000 0.058868
Si Si5 0.813331 0.250000 0.440829
O O1 0.250000 0.500000 0.368228
O O2 0.246577 0.639285 0.306668
O O3 0.250575 0.663739 0.409229
O O4 0.000000 0.600163 0.362852
O O5 0.247182 0.139651 0.196726
O O6 0.000000 0.103411 0.253482
O O7 0.250000 0.000000 0.251379
O O8 0.500000 0.901242 0.854874
O O9 0.264495 0.836709 0.907055
O O10 0.250000 0.000000 0.864906
O O11 0.000000 0.750000 0.056914
O O12 0.250000 0.750000 0.000000
O O13 0.750000 0.250000 0.500000
O O14 0.000000 0.250000 0.440734
#
# Coordination Sequence:
#
# PCOD9500870 Si02
#       5
#    16  16  16   8   8
#     4  11  22  40  64  92 124 161 198 244 298 353
#     4  10  18  32  56  88 120 153 190 236 288 349
#     4  10  20  37  58  84 114 149 187 233 287 344
#     4  10  24  41  58  79 110 147 191 237 283 338
#     4  12  26  45  64  89 120 157 205 253 297 352
#
# _framework density 19.720158000000001
#
# number of rings (size 3 to 8) (size 9 to 14) (size 15 to 20)
#    0.000    1.500    0.000    9.375    0.000    4.000 
#    0.000    8.750    0.000    0.000    0.000    0.000 
#    0.000    0.000    0.000    0.000    0.000    0.000 
#
# Total GULP energy -178871.633427 kJ/mol
# GULP energy per Si atom -5589.738545 kJ/mol
# Density = 1.967527 g / cm^3
# Si number density = 19.720158 Si / 1000 Ang^3
#
#
#
# Elastic Constant Matrix: (Units=GPa)
#
#
# Indices 1 2 3 4 5 6 
#
# 1 177.3542 47.6928 80.8369 0.0000 0.0000 0.0000
# 2 47.6928 115.8066 90.0191 0.0000 0.0000 0.0000
# 3 80.8369 90.0191 233.2578 0.0000 0.0000 0.0000
# 4 0.0000 0.0000 0.0000 36.7526 0.0000 0.0000
# 5 0.0000 0.0000 0.0000 0.0000 40.7749 0.0000
# 6 0.0000 0.0000 0.0000 0.0000 0.0000 22.7087
#
#
#
# Elastic Compliance Matrix: (Units=1/GPa)
#
#
# Indices 1 2 3 4 5 6 
#
# 1 0.006850 -0.001394 -0.001836 0.000000 0.000000 0.000000
# 2 -0.001394 0.012619 -0.004387 0.000000 0.000000 0.000000
# 3 -0.001836 -0.004387 0.006616 0.000000 0.000000 0.000000
# 4 0.000000 0.000000 0.000000 0.027209 0.000000 0.000000
# 5 0.000000 0.000000 0.000000 0.000000 0.024525 0.000000
# 6 0.000000 0.000000 0.000000 0.000000 0.000000 0.044036
#
#
# Mechanical properties :
#
#
# Convention : Reuss Voigt Hill
#
# Bulk Modulus (GPa) = 92.14911 107.05735 99.60323
# Shear Modulus (GPa) = 35.53492 40.57189 38.05340
#
# Velocity S-wave (km/s) = 4.24955 4.54076 4.39757
# Velocity P-wave (km/s) = 8.42070 9.04972 8.74087
#
# Compressibility (1/GPa) = 0.01085198
#
# Stress axis : x y z
#
# Youngs Moduli (GPa) = 145.98284 79.24424 151.13970
#
# Poissons Ratio (x) = 0.11046 0.27749
# Poissons Ratio (y) = 0.20349 0.66304
# Poissons Ratio (z) = 0.26803 0.34764
#
# Static dielectric constant tensor:
#      x y z
#    x 1.656130 0.000000 0.000000 
#    y 0.000000 1.690660 0.000000 
#    z 0.000000 0.000000 1.694270 
# 
# From -- ./inp_files/36605.got.cif
#   From: 2010.05.17/outbox.cif.g08.bks.cpg/sg67_19_cif.got.tgz:36605.got - 2010.06.03 18:28:57.
