data_PCOD9500148
_publ_section_title
;
Structure prediction by ZEFSAII (Michael W. Deem and Ramdas Pophale) SiO2 
 PCOD9500148
Probable space group: C C C M
;
_chemical_formula_sum "Si O2"
_cell_formula_units_Z 32
_cell_length_a 9.000000
_cell_length_b 12.000000
_cell_length_c 30.000000
_cell_angle_alpha 90.000000
_cell_angle_beta 90.000000
_cell_angle_gamma 90.000000
_cell_volume 3240.000000
_symmetry_space_group_name_H-M "C C C M"
_symmetry_group_IT_number 66
_symmetry_cell_setting 'orthorhombic'
loop_
_space_group_symop_operation_xyz
x,y,z
-x,-y,z
x,-y,1/2-z
-x,y,1/2-z
-x,-y,-z
x,y,-z
-x,y,1/2+z
x,-y,1/2+z
1/2+x,1/2+y,z
1/2-x,1/2-y,z
1/2+x,1/2-y,1/2-z
1/2-x,1/2+y,1/2-z
1/2-x,1/2-y,-z
1/2+x,1/2+y,-z
1/2-x,1/2+y,1/2+z
1/2+x,1/2-y,1/2+z
loop_
_atom_site_type_symbol
_atom_site_label
_atom_site_fract_x
_atom_site_fract_y
_atom_site_fract_z
Si Si1 0.752250 0.974567 0.371215
Si Si2 0.458823 0.182601 0.126098
Si Si3 0.401802 0.326129 0.704365
Si Si4 0.395955 0.669484 0.052859
O O1 0.602670 0.899373 0.373705
O O2 0.839820 0.931165 0.326247
O O3 0.846909 0.935026 0.415071
O O4 0.687493 0.102024 0.371762
O O5 0.490814 0.258348 0.169907
O O6 0.481449 0.260520 0.081897
O O7 0.500000 0.347135 0.750000
O O8 0.250000 0.250000 0.713136
O O9 0.250000 0.750000 0.051803
O O10 0.431833 0.645996 0.000000
#
# Coordination Sequence:
#
# PCOD9500148 Si02
#       4
#    16  16  16  16
#     4   8  14  25  40  61  92 130 174 223 273 328
#     4   8  14  25  40  60  91 131 173 219 273 331
#     4   9  17  30  48  68  93 130 176 225 278 334
#     4   8  13  20  33  58  93 134 178 221 268 324
#
# _framework density 9.8765429999999999
#
# number of rings (size 3 to 8) (size 9 to 14) (size 15 to 20)
#    0.000    3.750    0.000    3.000    0.000    1.000 
#    0.000   15.000    0.000    3.000    0.000    0.000 
#    0.000   16.000    0.000   18.000    0.000   82.000 
#
# Total GULP energy -178348.644728 kJ/mol
# GULP energy per Si atom -5573.395148 kJ/mol
# Density = 0.985406 g / cm^3
# Si number density = 9.876543 Si / 1000 Ang^3
#
#
#
# Elastic Constant Matrix: (Units=GPa)
#
#
# Indices 1 2 3 4 5 6 
#
# 1 91.2364 53.4198 62.0417 0.0000 0.0000 0.0000
# 2 53.4198 92.1925 57.7628 0.0000 0.0000 0.0000
# 3 62.0417 57.7628 210.2917 0.0000 0.0000 0.0000
# 4 0.0000 0.0000 0.0000 16.7306 0.0000 0.0000
# 5 0.0000 0.0000 0.0000 0.0000 39.0079 0.0000
# 6 0.0000 0.0000 0.0000 0.0000 0.0000 48.1945
#
#
#
# Elastic Compliance Matrix: (Units=1/GPa)
#
#
# Indices 1 2 3 4 5 6 
#
# 1 0.017988 -0.008573 -0.002952 0.000000 0.000000 0.000000
# 2 -0.008573 0.017188 -0.002192 0.000000 0.000000 0.000000
# 3 -0.002952 -0.002192 0.006228 0.000000 0.000000 0.000000
# 4 0.000000 0.000000 0.000000 0.059771 0.000000 0.000000
# 5 0.000000 0.000000 0.000000 0.000000 0.025636 0.000000
# 6 0.000000 0.000000 0.000000 0.000000 0.000000 0.020749
#
#
# Mechanical properties :
#
#
# Convention : Reuss Voigt Hill
#
# Bulk Modulus (GPa) = 71.58328 82.24102 76.91215
# Shear Modulus (GPa) = 27.83197 35.48636 31.65916
#
# Velocity S-wave (km/s) = 3.75773 4.24311 4.00777
# Velocity P-wave (km/s) = 7.42597 8.10742 7.77416
#
# Compressibility (1/GPa) = 0.01396974
#
# Stress axis : x y z
#
# Youngs Moduli (GPa) = 55.59405 58.18103 160.55885
#
# Poissons Ratio (x) = 0.49879 0.47396
# Poissons Ratio (y) = 0.47662 0.35191
# Poissons Ratio (z) = 0.16411 0.12752
#
# Static dielectric constant tensor:
#      x y z
#    x 1.720460 0.000000 0.000000 
#    y 0.000000 1.754770 0.000000 
#    z 0.000000 0.000000 1.687710 
# 
# From -- ./inp_files/67875.got.cif
#   From: 2010.05.17/outbox.ucp.g08.bks.cvg/sg66_34_cif.got.tgz:67875.got - 2010.06.11 16:44:13.
