data_PCOD9500819
_publ_section_title
;
Structure prediction by ZEFSAII (Michael W. Deem and Ramdas Pophale) SiO2 
 PCOD9500819
Probable space group: C M M A
;
_chemical_formula_sum "Si O2"
_cell_formula_units_Z 88
_cell_length_a 8.960882
_cell_length_b 20.484878
_cell_length_c 30.216726
_cell_angle_alpha 90.000000
_cell_angle_beta 90.000000
_cell_angle_gamma 90.000000
_cell_volume 5546.660019
_symmetry_space_group_name_H-M "C M M A"
_symmetry_group_IT_number 67
_symmetry_cell_setting 'orthorhombic'
loop_
_space_group_symop_operation_xyz
x,y,z
-x,1/2-y,z
x,-y,-z
-x,1/2+y,-z
-x,-y,-z
x,1/2+y,-z
-x,y,z
x,1/2-y,z
1/2+x,1/2+y,z
1/2-x,-y,z
1/2+x,1/2-y,-z
1/2-x,y,-z
1/2-x,1/2-y,-z
1/2+x,y,-z
1/2-x,1/2+y,z
1/2+x,-y,z
loop_
_atom_site_type_symbol
_atom_site_label
_atom_site_fract_x
_atom_site_fract_y
_atom_site_fract_z
Si Si1 0.320956 0.070576 0.686886
Si Si2 0.179985 0.174401 0.137403
Si Si3 0.678677 0.250000 0.548321
Si Si4 0.679386 0.929865 0.210607
Si Si5 0.174886 0.822992 0.376068
Si Si6 0.671499 0.329432 0.045070
O O1 0.500000 0.068066 0.682635
O O2 0.283893 0.086125 0.738276
O O3 0.252572 0.124068 0.654373
O O4 0.250000 0.000000 0.677322
O O5 0.225146 0.250000 0.145227
O O6 0.227674 0.126298 0.176661
O O7 0.244966 0.152426 0.090189
O O8 0.000000 0.173437 0.134952
O O9 0.500000 0.250000 0.546825
O O10 0.750000 0.250000 0.500000
O O11 0.741020 0.311078 0.577263
O O12 0.500000 0.935470 0.207910
O O13 0.750000 0.000000 0.199969
O O14 0.184326 0.750000 0.355076
O O15 0.000000 0.837480 0.383001
O O16 0.500000 0.350316 0.046227
O O17 0.673948 0.250000 0.043884
O O18 0.750000 0.352162 0.000000
#
# Coordination Sequence:
#
# PCOD9500819 Si02
#       6
#    16  16   8  16  16  16
#     4  10  19  32  51  73 100 135 174 213 255 302
#     4   9  17  30  47  68  94 122 155 196 239 284
#     4  10  18  32  54  80 108 140 174 210 253 300
#     4   9  19  33  49  69  94 129 166 199 241 293
#     4   9  19  33  50  76 106 135 171 213 254 296
#     4   9  16  26  42  65  91 118 149 186 233 286
#
# _framework density 15.865403000000001
#
# number of rings (size 3 to 8) (size 9 to 14) (size 15 to 20)
#    0.545    2.182    0.000    2.182    0.000    4.364 
#    0.000    1.818    0.000    3.273    0.000    7.636 
#    0.000    0.000    0.000    0.000    0.000    0.000 
#
# Total GULP energy -244970.046565 kJ/mol
# GULP energy per Si atom -5567.501058 kJ/mol
# Density = 1.582929 g / cm^3
# Si number density = 15.865403 Si / 1000 Ang^3
#
#
#
# Elastic Constant Matrix: (Units=GPa)
#
#
# Indices 1 2 3 4 5 6 
#
# 1 84.2458 48.8572 65.5140 0.0000 0.0000 0.0000
# 2 48.8572 78.3134 88.6570 0.0000 0.0000 0.0000
# 3 65.5140 88.6570 145.4496 0.0000 0.0000 0.0000
# 4 0.0000 0.0000 0.0000 -3.6419 0.0000 0.0000
# 5 0.0000 0.0000 0.0000 0.0000 27.5451 0.0000
# 6 0.0000 0.0000 0.0000 0.0000 0.0000 24.3384
#
#
#
# Elastic Compliance Matrix: (Units=1/GPa)
#
#
# Indices 1 2 3 4 5 6 
#
# 1 0.019434 -0.007145 -0.004399 0.000000 0.000000 0.000000
# 2 -0.007145 0.043824 -0.023494 0.000000 0.000000 0.000000
# 3 -0.004399 -0.023494 0.023177 0.000000 0.000000 0.000000
# 4 0.000000 0.000000 0.000000 -0.274581 0.000000 0.000000
# 5 0.000000 0.000000 0.000000 0.000000 0.036304 0.000000
# 6 0.000000 0.000000 0.000000 0.000000 0.000000 0.041087
#
#
# Mechanical properties :
#
#
# Convention : Reuss Voigt Hill
#
# Bulk Modulus (GPa) = 61.12463 79.34056 70.23259
# Shear Modulus (GPa) = -141.93763 16.64703 -62.64530
#
# Velocity S-wave (km/s) = -9.46878 3.24275 -6.29056
# Velocity P-wave (km/s) = 8.99629 8.00860 2.89788
#
# Compressibility (1/GPa) = 0.01636002
#
# Stress axis : x y z
#
# Youngs Moduli (GPa) = 51.45593 22.81872 43.14639
#
# Poissons Ratio (x) = 0.16303 0.18978
# Poissons Ratio (y) = 0.36764 1.01368
# Poissons Ratio (z) = 0.22633 0.53610
#
# Static dielectric constant tensor:
#      x y z
#    x 1.531730 0.000000 0.000000 
#    y 0.000000 1.512640 0.000000 
#    z 0.000000 0.000000 1.517790 
# 
# From -- ./inp_files/45282.got.cif
#   From: 2010.05.17/outbox.cif.g08.bks.cpg/sg67_23_cif.got.tgz:45282.got - 2010.06.03 18:28:57.
