data_PCOD9500804
_publ_section_title
;
Structure prediction by ZEFSAII (Michael W. Deem and Ramdas Pophale) SiO2 
 PCOD9500804
Probable space group: C M M A
;
_chemical_formula_sum "Si O2"
_cell_formula_units_Z 96
_cell_length_a 24.677608
_cell_length_b 14.771020
_cell_length_c 12.781661
_cell_angle_alpha 90.000000
_cell_angle_beta 90.000000
_cell_angle_gamma 90.000000
_cell_volume 4659.087237
_symmetry_space_group_name_H-M "C M M A"
_symmetry_group_IT_number 67
_symmetry_cell_setting 'orthorhombic'
loop_
_space_group_symop_operation_xyz
x,y,z
-x,1/2-y,z
x,-y,-z
-x,1/2+y,-z
-x,-y,-z
x,1/2+y,-z
-x,y,z
x,1/2-y,z
1/2+x,1/2+y,z
1/2-x,-y,z
1/2+x,1/2-y,-z
1/2-x,y,-z
1/2-x,1/2-y,-z
1/2+x,y,-z
1/2-x,1/2+y,z
1/2+x,-y,z
loop_
_atom_site_type_symbol
_atom_site_label
_atom_site_fract_x
_atom_site_fract_y
_atom_site_fract_z
Si Si1 0.500000 0.103840 0.036790
Si Si2 0.310217 0.399742 0.791178
Si Si3 0.612536 0.645580 0.626632
Si Si4 0.617865 0.890032 0.019196
Si Si5 0.307999 0.359923 0.548190
Si Si6 0.000000 0.639344 0.281969
Si Si7 0.189342 0.384349 0.823416
O O1 0.556790 0.143299 0.996987
O O2 0.500000 0.108821 0.162056
O O3 0.500000 0.000000 0.000000
O O4 0.357284 0.366493 0.868300
O O5 0.316994 0.388384 0.667405
O O6 0.251958 0.356682 0.818863
O O7 0.308519 0.506649 0.815782
O O8 0.600842 0.750000 0.599996
O O9 0.644709 0.606349 0.528443
O O10 0.555093 0.606112 0.662746
O O11 0.654166 0.645225 0.723879
O O12 0.658213 0.857116 0.928230
O O13 0.616354 0.000000 0.000000
O O14 0.307510 0.250000 0.546082
O O15 0.250000 0.389077 0.500000
O O16 0.000000 0.750000 0.279875
#
# Coordination Sequence:
#
# PCOD9500804 Si02
#       7
#     8  16  16  16  16   8  16
#     4  10  18  32  57  78 106 143 182 222 278 335
#     4  10  20  32  51  80 111 143 177 220 271 332
#     4  10  20  35  56  79 105 140 183 229 272 313
#     4   9  18  32  51  78 107 142 176 217 274 329
#     4  10  20  36  55  75 106 145 183 223 273 329
#     4  10  20  36  59  83 106 140 194 239 266 313
#     4  10  18  32  53  78 109 140 178 225 267 324
#
# _framework density 20.604894999999999
#
# number of rings (size 3 to 8) (size 9 to 14) (size 15 to 20)
#    0.000    2.167    3.333    0.500    0.000    2.667 
#    0.000    2.500    0.000    3.000    0.000    0.000 
#    0.000    0.000    0.000    0.000    0.000    0.000 
#
# Total GULP energy -267979.127817 kJ/mol
# GULP energy per Si atom -5582.898496 kJ/mol
# Density = 2.055800 g / cm^3
# Si number density = 20.604895 Si / 1000 Ang^3
#
#
#
# Elastic Constant Matrix: (Units=GPa)
#
#
# Indices 1 2 3 4 5 6 
#
# 1 216.2757 8.7457 125.0314 0.0000 0.0000 0.0000
# 2 8.7457 60.4887 4.2179 0.0000 0.0000 0.0000
# 3 125.0314 4.2179 195.2383 0.0000 0.0000 0.0000
# 4 0.0000 0.0000 0.0000 25.1918 0.0000 0.0000
# 5 0.0000 0.0000 0.0000 0.0000 39.1456 0.0000
# 6 0.0000 0.0000 0.0000 0.0000 0.0000 50.9659
#
#
#
# Elastic Compliance Matrix: (Units=1/GPa)
#
#
# Indices 1 2 3 4 5 6 
#
# 1 0.007375 -0.000738 -0.004707 0.000000 0.000000 0.000000
# 2 -0.000738 0.016631 0.000113 0.000000 0.000000 0.000000
# 3 -0.004707 0.000113 0.008134 0.000000 0.000000 0.000000
# 4 0.000000 0.000000 0.000000 0.039696 0.000000 0.000000
# 5 0.000000 0.000000 0.000000 0.000000 0.025546 0.000000
# 6 0.000000 0.000000 0.000000 0.000000 0.000000 0.019621
#
#
# Mechanical properties :
#
#
# Convention : Reuss Voigt Hill
#
# Bulk Modulus (GPa) = 46.56308 83.11027 64.83668
# Shear Modulus (GPa) = 37.08565 45.32784 41.20674
#
# Velocity S-wave (km/s) = 4.24706 4.69535 4.47682
# Velocity P-wave (km/s) = 6.83353 8.35571 7.63266
#
# Compressibility (1/GPa) = 0.02147624
#
# Stress axis : x y z
#
# Youngs Moduli (GPa) = 135.60016 60.12929 122.94457
#
# Poissons Ratio (x) = 0.04438 0.57867
# Poissons Ratio (y) = 0.10008 -0.01394
# Poissons Ratio (z) = 0.63824 -0.00682
#
# Static dielectric constant tensor:
#      x y z
#    x 1.743920 0.000000 0.000000 
#    y 0.000000 1.837950 0.000000 
#    z 0.000000 0.000000 1.698200 
# 
# From -- ./inp_files/19699.got.cif
#   From: 2010.05.17/outbox.cif.g08.bks.cpg/sg67_10_cif.got.tgz:19699.got - 2010.06.03 18:28:57.
