data_PCOD9500594
_publ_section_title
;
Structure prediction by ZEFSAII (Michael W. Deem and Ramdas Pophale) SiO2 
 PCOD9500594
Probable space group: C M M A
;
_chemical_formula_sum "Si O2"
_cell_formula_units_Z 120
_cell_length_a 8.813865
_cell_length_b 27.676403
_cell_length_c 29.718812
_cell_angle_alpha 90.000000
_cell_angle_beta 90.000000
_cell_angle_gamma 90.000000
_cell_volume 7249.490493
_symmetry_space_group_name_H-M "C M M A"
_symmetry_group_IT_number 67
_symmetry_cell_setting 'orthorhombic'
loop_
_space_group_symop_operation_xyz
x,y,z
-x,1/2-y,z
x,-y,-z
-x,1/2+y,-z
-x,-y,-z
x,1/2+y,-z
-x,y,z
x,1/2-y,z
1/2+x,1/2+y,z
1/2-x,-y,z
1/2+x,1/2-y,-z
1/2-x,y,-z
1/2-x,1/2-y,-z
1/2+x,y,-z
1/2-x,1/2+y,z
1/2+x,-y,z
loop_
_atom_site_type_symbol
_atom_site_label
_atom_site_fract_x
_atom_site_fract_y
_atom_site_fract_z
Si Si1 0.674629 0.808733 0.953531
Si Si2 0.681866 0.551884 0.279075
Si Si3 0.318638 0.693651 0.141172
Si Si4 0.177816 0.858396 0.226091
Si Si5 0.821109 0.605907 0.631970
Si Si6 0.680645 0.351184 0.450289
Si Si7 0.182949 0.750000 0.550563
Si Si8 0.321853 0.805407 0.682082
O O1 0.500000 0.823802 0.951271
O O2 0.678023 0.750000 0.954827
O O3 0.760960 0.822370 0.907961
O O4 0.750000 0.825659 0.000000
O O5 0.500000 0.551443 0.276415
O O6 0.750000 0.500000 0.267873
O O7 0.745495 0.593809 0.246771
O O8 0.723455 0.566282 0.330700
O O9 0.500000 0.692185 0.142219
O O10 0.271095 0.750000 0.147586
O O11 0.251847 0.661197 0.180776
O O12 0.191213 0.817638 0.265027
O O13 0.000000 0.867703 0.219186
O O14 0.729939 0.608267 0.585401
O O15 0.782387 0.656074 0.657232
O O16 0.000000 0.602510 0.622790
O O17 0.500000 0.346605 0.453624
O O18 0.750000 0.359245 0.500000
O O19 0.750589 0.300446 0.431839
O O20 0.250000 0.750000 0.500000
O O21 0.000000 0.750000 0.551224
O O22 0.500000 0.813309 0.669517
O O23 0.282791 0.750000 0.672989
#
# Coordination Sequence:
#
# PCOD9500594 Si02
#       8
#    16  16  16  16  16  16   8  16
#     4   9  16  26  40  59  87 127 175 220 258 296
#     4  10  21  38  59  79 100 125 156 198 247 298
#     4  10  19  29  43  66  99 138 176 214 254 297
#     4  10  19  32  50  72  98 128 164 204 247 297
#     4  10  21  35  51  74  99 126 160 196 236 284
#     4  11  21  34  51  71  98 130 162 197 234 276
#     4  10  18  30  46  66  94 128 164 196 228 266
#     4   9  18  31  46  66  95 129 163 197 233 279
#
# _framework density 16.552887999999999
#
# number of rings (size 3 to 8) (size 9 to 14) (size 15 to 20)
#    0.000    2.133    0.000    5.000    0.933    5.333 
#    0.000    0.000    0.000    0.400    0.000    2.800 
#    0.000    0.533    0.000    5.333    0.000    3.467 
#
# Total GULP energy -334740.321727 kJ/mol
# GULP energy per Si atom -5579.005362 kJ/mol
# Density = 1.651521 g / cm^3
# Si number density = 16.552888 Si / 1000 Ang^3
#
#
#
# Elastic Constant Matrix: (Units=GPa)
#
#
# Indices 1 2 3 4 5 6 
#
# 1 90.6314 22.1648 48.5220 0.0000 0.0000 0.0000
# 2 22.1648 56.5256 29.0684 0.0000 0.0000 0.0000
# 3 48.5220 29.0684 117.1148 0.0000 0.0000 0.0000
# 4 0.0000 0.0000 0.0000 13.4247 0.0000 0.0000
# 5 0.0000 0.0000 0.0000 0.0000 31.3619 0.0000
# 6 0.0000 0.0000 0.0000 0.0000 0.0000 19.2192
#
#
#
# Elastic Compliance Matrix: (Units=1/GPa)
#
#
# Indices 1 2 3 4 5 6 
#
# 1 0.014609 -0.002999 -0.005308 0.000000 0.000000 0.000000
# 2 -0.002999 0.020895 -0.003944 0.000000 0.000000 0.000000
# 3 -0.005308 -0.003944 0.011717 0.000000 0.000000 0.000000
# 4 0.000000 0.000000 0.000000 0.074490 0.000000 0.000000
# 5 0.000000 0.000000 0.000000 0.000000 0.031886 0.000000
# 6 0.000000 0.000000 0.000000 0.000000 0.000000 0.052031
#
#
# Mechanical properties :
#
#
# Convention : Reuss Voigt Hill
#
# Bulk Modulus (GPa) = 44.01580 51.53134 47.77357
# Shear Modulus (GPa) = 21.03470 23.76894 22.40182
#
# Velocity S-wave (km/s) = 3.56863 3.79349 3.68278
# Velocity P-wave (km/s) = 6.60522 7.09833 6.85621
#
# Compressibility (1/GPa) = 0.02271911
#
# Stress axis : x y z
#
# Youngs Moduli (GPa) = 68.45064 47.85819 85.34711
#
# Poissons Ratio (x) = 0.14351 0.45306
# Poissons Ratio (y) = 0.20526 0.33660
# Poissons Ratio (z) = 0.36337 0.18875
#
# Static dielectric constant tensor:
#      x y z
#    x 1.559910 0.000000 0.000000 
#    y 0.000000 1.544980 0.000000 
#    z 0.000000 0.000000 1.592850 
# 
# From -- ./inp_files/43896.got.cif
#   From: 2010.05.17/outbox.cif.g08.bks.cpg/sg67_22_cif.got.tgz:43896.got - 2010.06.03 18:28:57.
