data_PCOD9500882
_publ_section_title
;
Structure prediction by ZEFSAII (Michael W. Deem and Ramdas Pophale) SiO2 
 PCOD9500882
Probable space group: C M M A
;
_chemical_formula_sum "Si O2"
_cell_formula_units_Z 120
_cell_length_a 8.920861
_cell_length_b 26.740248
_cell_length_c 28.098108
_cell_angle_alpha 90.000000
_cell_angle_beta 90.000000
_cell_angle_gamma 90.000000
_cell_volume 6702.692269
_symmetry_space_group_name_H-M "C M M A"
_symmetry_group_IT_number 67
_symmetry_cell_setting 'orthorhombic'
loop_
_space_group_symop_operation_xyz
x,y,z
-x,1/2-y,z
x,-y,-z
-x,1/2+y,-z
-x,-y,-z
x,1/2+y,-z
-x,y,z
x,1/2-y,z
1/2+x,1/2+y,z
1/2-x,-y,z
1/2+x,1/2-y,-z
1/2-x,y,-z
1/2-x,1/2-y,-z
1/2+x,y,-z
1/2-x,1/2+y,z
1/2+x,-y,z
loop_
_atom_site_type_symbol
_atom_site_label
_atom_site_fract_x
_atom_site_fract_y
_atom_site_fract_z
Si Si1 0.820662 0.148585 0.447616
Si Si2 0.672688 0.810405 0.951029
Si Si3 0.819676 0.250000 0.553536
Si Si4 0.178358 0.552093 0.617455
Si Si5 0.675981 0.157655 0.853265
Si Si6 0.676366 0.450627 0.811298
Si Si7 0.679953 0.589322 0.715192
Si Si8 0.180483 0.694722 0.243817
O O1 0.750000 0.142097 0.500000
O O2 0.743470 0.198186 0.425413
O O3 0.792608 0.098793 0.417374
O O4 0.000000 0.156674 0.451383
O O5 0.500000 0.826325 0.950087
O O6 0.676580 0.750000 0.950808
O O7 0.755163 0.828156 0.903644
O O8 0.750000 0.827283 0.000000
O O9 0.750000 0.250000 0.500000
O O10 0.000000 0.250000 0.552281
O O11 0.250000 0.500000 0.600636
O O12 0.248310 0.566336 0.668288
O O13 0.000000 0.545886 0.621940
O O14 0.500000 0.169719 0.852326
O O15 0.694585 0.098674 0.843119
O O16 0.754837 0.185112 0.808867
O O17 0.500000 0.458046 0.802565
O O18 0.750000 0.500000 0.832681
O O19 0.759395 0.439050 0.761638
O O20 0.500000 0.585940 0.712942
O O21 0.724430 0.647644 0.723415
O O22 0.226327 0.750000 0.260679
O O23 0.000000 0.693612 0.240658
#
# Coordination Sequence:
#
# PCOD9500882 Si02
#       8
#    16  16   8  16  16  16  16  16
#     4  10  21  38  60  85 114 145 181 224 271 323
#     4  10  20  33  50  73 102 136 172 209 251 302
#     4  10  18  32  58  86 112 142 176 218 262 312
#     4  11  24  40  58  80 110 145 182 225 272 325
#     4  10  20  32  49  75 104 134 170 212 259 311
#     4  10  20  34  53  76 102 132 172 217 262 311
#     4  10  20  35  55  77 106 141 178 219 264 316
#     4   9  18  33  52  75 105 139 175 215 258 310
#
# _framework density 17.903252999999999
#
# number of rings (size 3 to 8) (size 9 to 14) (size 15 to 20)
#    0.000    2.000    0.000    4.600    0.000    7.200 
#    1.200    1.333    0.000    0.400    0.000    2.800 
#    0.000    0.000    0.000    0.000    0.000    0.000 
#
# Total GULP energy -334968.923019 kJ/mol
# GULP energy per Si atom -5582.815384 kJ/mol
# Density = 1.786250 g / cm^3
# Si number density = 17.903253 Si / 1000 Ang^3
#
#
#
# Elastic Constant Matrix: (Units=GPa)
#
#
# Indices 1 2 3 4 5 6 
#
# 1 75.0520 52.2707 25.9036 0.0000 0.0000 0.0000
# 2 52.2707 110.1417 17.3432 0.0000 0.0000 0.0000
# 3 25.9036 17.3432 44.0325 0.0000 0.0000 0.0000
# 4 0.0000 0.0000 0.0000 10.1642 0.0000 0.0000
# 5 0.0000 0.0000 0.0000 0.0000 24.6038 0.0000
# 6 0.0000 0.0000 0.0000 0.0000 0.0000 29.9006
#
#
#
# Elastic Compliance Matrix: (Units=1/GPa)
#
#
# Indices 1 2 3 4 5 6 
#
# 1 0.023428 -0.009540 -0.010025 0.000000 0.000000 0.000000
# 2 -0.009540 0.013564 0.000270 0.000000 0.000000 0.000000
# 3 -0.010025 0.000270 0.028502 0.000000 0.000000 0.000000
# 4 0.000000 0.000000 0.000000 0.098384 0.000000 0.000000
# 5 0.000000 0.000000 0.000000 0.000000 0.040644 0.000000
# 6 0.000000 0.000000 0.000000 0.000000 0.000000 0.033444
#
#
# Mechanical properties :
#
#
# Convention : Reuss Voigt Hill
#
# Bulk Modulus (GPa) = 37.16954 46.69569 41.93262
# Shear Modulus (GPa) = 17.51155 21.84762 19.67959
#
# Velocity S-wave (km/s) = 3.13089 3.49709 3.31904
# Velocity P-wave (km/s) = 5.82034 6.51499 6.17743
#
# Compressibility (1/GPa) = 0.02690375
#
# Stress axis : x y z
#
# Youngs Moduli (GPa) = 42.68322 73.72330 35.08545
#
# Poissons Ratio (x) = 0.70332 0.35173
# Poissons Ratio (y) = 0.40720 -0.00946
# Poissons Ratio (z) = 0.42790 -0.01988
#
# Static dielectric constant tensor:
#      x y z
#    x 1.604500 0.000000 0.000000 
#    y 0.000000 1.649930 0.000000 
#    z 0.000000 0.000000 1.574040 
# 
# From -- ./inp_files/43905.got.cif
#   From: 2010.05.17/outbox.cif.g08.bks.cpg/sg67_22_cif.got.tgz:43905.got - 2010.06.03 18:28:57.
