data_PCOD9500113
_publ_section_title
;
Structure prediction by ZEFSAII (Michael W. Deem and Ramdas Pophale) SiO2 
 PCOD9500113
Probable space group: C C C M
;
_chemical_formula_sum "Si O2"
_cell_formula_units_Z 44
_cell_length_a 24.000000
_cell_length_b 21.000000
_cell_length_c 9.000000
_cell_angle_alpha 90.000000
_cell_angle_beta 90.000000
_cell_angle_gamma 90.000000
_cell_volume 4536.000000
_symmetry_space_group_name_H-M "C C C M"
_symmetry_group_IT_number 66
_symmetry_cell_setting 'orthorhombic'
loop_
_space_group_symop_operation_xyz
x,y,z
-x,-y,z
x,-y,1/2-z
-x,y,1/2-z
-x,-y,-z
x,y,-z
-x,y,1/2+z
x,-y,1/2+z
1/2+x,1/2+y,z
1/2-x,1/2-y,z
1/2+x,1/2-y,1/2-z
1/2-x,1/2+y,1/2-z
1/2-x,1/2-y,-z
1/2+x,1/2+y,-z
1/2-x,1/2+y,1/2+z
1/2+x,1/2-y,1/2+z
loop_
_atom_site_type_symbol
_atom_site_label
_atom_site_fract_x
_atom_site_fract_y
_atom_site_fract_z
Si Si1 0.658005 0.342805 0.824007
Si Si2 0.945153 0.069136 0.822586
Si Si3 0.647789 0.000000 0.750000
Si Si4 0.364030 0.207959 0.824074
Si Si5 0.781215 0.617980 0.667410
Si Si6 0.055966 0.601598 0.331061
O O1 0.608139 0.389574 0.786247
O O2 0.648082 0.276334 0.743365
O O3 0.716345 0.378016 0.794375
O O4 0.656433 0.330063 0.000000
O O5 0.000000 0.099130 0.750000
O O6 0.939241 0.000000 0.750000
O O7 0.951316 0.063648 0.000000
O O8 0.689508 0.049052 0.830511
O O9 0.604406 0.048163 0.671103
O O10 0.312511 0.163040 0.782115
O O11 0.416974 0.166628 0.766250
O O12 0.369927 0.213117 0.000000
O O13 0.788318 0.644101 0.500000
O O14 0.040500 0.613929 0.500000
O O15 0.000000 0.581151 0.250000
#
# Coordination Sequence:
#
# PCOD9500113 Si02
#       6
#    16  16   8  16  16  16
#     4  10  22  38  59  86 114 149 191 233 284 344
#     4  10  21  38  59  83 113 146 185 231 284 341
#     4  10  21  36  60  86 117 152 192 238 286 338
#     4  10  22  39  57  83 116 150 191 239 287 337
#     4  10  21  38  59  83 116 154 191 233 284 341
#     4  10  22  38  57  84 115 150 193 237 284 339
#
# _framework density 9.7001760000000008
#
# number of rings (size 3 to 8) (size 9 to 14) (size 15 to 20)
#    0.000    2.000    0.000    3.000    1.273   10.909 
#    0.000    3.636    0.000    0.000    0.000    0.000 
#    0.000    0.000    0.000    0.000    0.000    0.000 
#
# Total GULP energy -245173.782478 kJ/mol
# GULP energy per Si atom -5572.131420 kJ/mol
# Density = 0.967810 g / cm^3
# Si number density = 9.700176 Si / 1000 Ang^3
#
#
#
# Elastic Constant Matrix: (Units=GPa)
#
#
# Indices 1 2 3 4 5 6 
#
# 1 142.4825 85.3694 57.7437 0.0000 0.0000 0.0000
# 2 85.3694 86.3863 33.3828 0.0000 0.0000 0.0000
# 3 57.7437 33.3828 11.5900 0.0000 0.0000 0.0000
# 4 0.0000 0.0000 0.0000 22.5370 0.0000 0.0000
# 5 0.0000 0.0000 0.0000 0.0000 15.4467 0.0000
# 6 0.0000 0.0000 0.0000 0.0000 0.0000 15.4128
#
#
#
# Elastic Compliance Matrix: (Units=1/GPa)
#
#
# Indices 1 2 3 4 5 6 
#
# 1 0.001902 -0.015765 0.035932 0.000000 0.000000 0.000000
# 2 -0.015765 0.028279 -0.002908 0.000000 0.000000 0.000000
# 3 0.035932 -0.002908 -0.084362 0.000000 0.000000 0.000000
# 4 0.000000 0.000000 0.000000 0.044372 0.000000 0.000000
# 5 0.000000 0.000000 0.000000 0.000000 0.064739 0.000000
# 6 0.000000 0.000000 0.000000 0.000000 0.000000 0.064881
#
#
# Mechanical properties :
#
#
# Convention : Reuss Voigt Hill
#
# Bulk Modulus (GPa) = -50.85471 65.93895 7.54212
# Shear Modulus (GPa) = 63.50117 14.94348 39.22233
#
# Velocity S-wave (km/s) = 5.72739 2.77838 4.50125
# Velocity P-wave (km/s) = 4.17937 6.65994 5.55977
#
# Compressibility (1/GPa) = -0.01966386
#
# Stress axis : x y z
#
# Youngs Moduli (GPa) = 525.73038 35.36150 -11.85362
#
# Poissons Ratio (x) = 0.55748 0.42592
# Poissons Ratio (y) = 8.28822 -0.03447
# Poissons Ratio (z) = -18.89051 0.10284
#
# Static dielectric constant tensor:
#      x y z
#    x 1.700590 0.000000 0.000000 
#    y 0.000000 1.684470 0.000000 
#    z 0.000000 0.000000 1.672300 
# 
# From -- ./inp_files/8996.got.cif
#   From: 2010.05.17/outbox.ucp.g08.bks.cvg/sg66_5_cif.got.tgz:8996.got - 2010.06.11 16:44:13.
