data_PCOD9500864
_publ_section_title
;
Structure prediction by ZEFSAII (Michael W. Deem and Ramdas Pophale) SiO2 
 PCOD9500864
Probable space group: C M M A
;
_chemical_formula_sum "Si O2"
_cell_formula_units_Z 96
_cell_length_a 14.279457
_cell_length_b 21.907821
_cell_length_c 14.505953
_cell_angle_alpha 90.000000
_cell_angle_beta 90.000000
_cell_angle_gamma 90.000000
_cell_volume 4537.923213
_symmetry_space_group_name_H-M "C M M A"
_symmetry_group_IT_number 67
_symmetry_cell_setting 'orthorhombic'
loop_
_space_group_symop_operation_xyz
x,y,z
-x,1/2-y,z
x,-y,-z
-x,1/2+y,-z
-x,-y,-z
x,1/2+y,-z
-x,y,z
x,1/2-y,z
1/2+x,1/2+y,z
1/2-x,-y,z
1/2+x,1/2-y,-z
1/2-x,y,-z
1/2-x,1/2-y,-z
1/2+x,y,-z
1/2-x,1/2+y,z
1/2+x,-y,z
loop_
_atom_site_type_symbol
_atom_site_label
_atom_site_fract_x
_atom_site_fract_y
_atom_site_fract_z
Si Si1 0.139573 0.486922 0.104902
Si Si2 0.613508 0.181784 0.673665
Si Si3 0.613043 0.318488 0.078481
Si Si4 0.609318 0.655216 0.124158
Si Si5 0.393901 0.094912 0.236856
Si Si6 0.254082 0.426869 0.610265
O O1 0.250000 0.500000 0.103512
O O2 0.118170 0.417503 0.127768
O O3 0.101838 0.529465 0.186211
O O4 0.105498 0.500000 0.000000
O O5 0.500000 0.175709 0.668946
O O6 0.636980 0.250000 0.634647
O O7 0.644286 0.182368 0.780859
O O8 0.661421 0.120038 0.635020
O O9 0.500000 0.330205 0.073992
O O10 0.627614 0.250000 0.109626
O O11 0.650119 0.364455 0.154681
O O12 0.649211 0.325952 0.974651
O O13 0.500000 0.672807 0.121062
O O14 0.500000 0.114989 0.256909
O O15 0.332639 0.096764 0.328322
O O16 0.250000 0.500000 0.633226
O O17 0.250000 0.423777 0.500000
#
# Coordination Sequence:
#
# PCOD9500864 Si02
#       6
#    16  16  16  16  16  16
#     4  11  21  32  51  83 128 173 216 264 316 383
#     4  10  22  42  70 101 133 174 224 280 342 406
#     4   9  18  32  51  80 120 161 200 243 297 376
#     4  10  18  32  56  85 122 165 210 256 310 379
#     4  11  22  38  61  90 126 167 213 262 325 394
#     4  11  26  47  69  95 128 169 223 287 350 406
#
# _framework density 21.155052000000001
#
# number of rings (size 3 to 8) (size 9 to 14) (size 15 to 20)
#    0.000    1.667    1.667    3.500    0.000    6.333 
#    0.000    1.667    0.000    5.000    0.000    0.000 
#    0.000    0.000    0.000    0.000    0.000    0.000 
#
# Total GULP energy -267839.608266 kJ/mol
# GULP energy per Si atom -5579.991839 kJ/mol
# Density = 2.110690 g / cm^3
# Si number density = 21.155052 Si / 1000 Ang^3
#
#
#
# Elastic Constant Matrix: (Units=GPa)
#
#
# Indices 1 2 3 4 5 6 
#
# 1 88.0423 18.2771 28.0306 0.0000 0.0000 0.0000
# 2 18.2771 120.7100 40.3274 0.0000 0.0000 0.0000
# 3 28.0306 40.3274 104.9072 0.0000 0.0000 0.0000
# 4 0.0000 0.0000 0.0000 5.0754 0.0000 0.0000
# 5 0.0000 0.0000 0.0000 0.0000 50.2060 0.0000
# 6 0.0000 0.0000 0.0000 0.0000 0.0000 -7.5915
#
#
#
# Elastic Compliance Matrix: (Units=1/GPa)
#
#
# Indices 1 2 3 4 5 6 
#
# 1 0.012497 -0.000891 -0.002997 0.000000 0.000000 0.000000
# 2 -0.000891 0.009569 -0.003440 0.000000 0.000000 0.000000
# 3 -0.002997 -0.003440 0.011655 0.000000 0.000000 0.000000
# 4 0.000000 0.000000 0.000000 0.197027 0.000000 0.000000
# 5 0.000000 0.000000 0.000000 0.000000 0.019918 0.000000
# 6 0.000000 0.000000 0.000000 0.000000 0.000000 -0.131726
#
#
# Mechanical properties :
#
#
# Convention : Reuss Voigt Hill
#
# Bulk Modulus (GPa) = 52.45124 54.10330 53.27727
# Shear Modulus (GPa) = 35.72680 24.67295 30.19987
#
# Velocity S-wave (km/s) = 4.11397 3.41881 3.78239
# Velocity P-wave (km/s) = 6.88577 6.41985 6.65689
#
# Compressibility (1/GPa) = 0.01906533
#
# Stress axis : x y z
#
# Youngs Moduli (GPa) = 80.01770 104.50911 85.79758
#
# Poissons Ratio (x) = 0.09313 0.25710
# Poissons Ratio (y) = 0.07131 0.29516
# Poissons Ratio (z) = 0.23978 0.35953
#
# Static dielectric constant tensor:
#      x y z
#    x 1.850090 0.000000 0.000000 
#    y 0.000000 2.043610 0.000000 
#    z 0.000000 0.000000 1.742600 
# 
# From -- ./inp_files/27249.got.cif
#   From: 2010.05.17/outbox.cif.g08.bks.cpg/sg67_14_cif.got.tgz:27249.got - 2010.06.03 18:28:57.
