data_PCOD9500672
_publ_section_title
;
Structure prediction by ZEFSAII (Michael W. Deem and Ramdas Pophale) SiO2 
 PCOD9500672
Probable space group: C M M A
;
_chemical_formula_sum "Si O2"
_cell_formula_units_Z 88
_cell_length_a 20.761795
_cell_length_b 17.438207
_cell_length_c 12.163410
_cell_angle_alpha 90.000000
_cell_angle_beta 90.000000
_cell_angle_gamma 90.000000
_cell_volume 4403.744089
_symmetry_space_group_name_H-M "C M M A"
_symmetry_group_IT_number 67
_symmetry_cell_setting 'orthorhombic'
loop_
_space_group_symop_operation_xyz
x,y,z
-x,1/2-y,z
x,-y,-z
-x,1/2+y,-z
-x,-y,-z
x,1/2+y,-z
-x,y,z
x,1/2-y,z
1/2+x,1/2+y,z
1/2-x,-y,z
1/2+x,1/2-y,-z
1/2-x,y,-z
1/2-x,1/2-y,-z
1/2+x,y,-z
1/2-x,1/2+y,z
1/2+x,-y,z
loop_
_atom_site_type_symbol
_atom_site_label
_atom_site_fract_x
_atom_site_fract_y
_atom_site_fract_z
Si Si1 0.738593 0.336151 0.370582
Si Si2 0.500000 0.945364 0.753826
Si Si3 0.642722 0.564245 0.760527
Si Si4 0.000000 0.874675 0.021673
Si Si5 0.857250 0.120897 0.221359
Si Si6 0.644708 0.665588 0.968911
Si Si7 0.500000 0.884512 0.235468
O O1 0.712810 0.250000 0.348452
O O2 0.750000 0.343280 0.500000
O O3 0.691195 0.401767 0.327687
O O4 0.804520 0.346325 0.303201
O O5 0.430291 0.911030 0.727187
O O6 0.500000 0.941006 0.887399
O O7 0.500000 0.031820 0.709982
O O8 0.642683 0.472208 0.771541
O O9 0.662279 0.602887 0.877225
O O10 0.933182 0.831436 0.038353
O O11 0.000000 0.898251 0.895669
O O12 0.929310 0.150399 0.253405
O O13 0.841631 0.142879 0.094981
O O14 0.671541 0.750000 0.944531
#
# Coordination Sequence:
#
# PCOD9500672 Si02
#       7
#    16   8  16   8  16  16   8
#     4  11  25  44  61  78 105 143 187 235 286 335
#     4   8  15  29  52  83 115 144 178 223 270 320
#     4  10  20  36  59  86 115 148 186 226 272 327
#     4   8  14  24  44  76 115 156 185 210 257 324
#     4  10  20  36  59  86 115 148 186 226 272 327
#     4  10  18  30  51  83 121 153 182 220 270 325
#     4   8  15  29  52  83 115 144 178 223 270 320
#
# _framework density 19.982997000000001
#
# number of rings (size 3 to 8) (size 9 to 14) (size 15 to 20)
#    0.000    2.364    0.000    2.727    0.000    6.545 
#    0.000    7.273    0.000    5.455    0.000    0.000 
#    0.000    0.000    0.000    0.000    0.000    0.000 
#
# Total GULP energy -245212.858336 kJ/mol
# GULP energy per Si atom -5573.019508 kJ/mol
# Density = 1.993751 g / cm^3
# Si number density = 19.982997 Si / 1000 Ang^3
#
#
#
# Elastic Constant Matrix: (Units=GPa)
#
#
# Indices 1 2 3 4 5 6 
#
# 1 60.0607 -3.1040 13.9697 0.0000 0.0000 0.0000
# 2 -3.1040 80.6364 15.2512 0.0000 0.0000 0.0000
# 3 13.9697 15.2512 62.6680 0.0000 0.0000 0.0000
# 4 0.0000 0.0000 0.0000 22.8279 0.0000 0.0000
# 5 0.0000 0.0000 0.0000 0.0000 -619.3626 0.0000
# 6 0.0000 0.0000 0.0000 0.0000 0.0000 -54.8777
#
#
#
# Elastic Compliance Matrix: (Units=1/GPa)
#
#
# Indices 1 2 3 4 5 6 
#
# 1 0.017732 0.001499 -0.004317 0.000000 0.000000 0.000000
# 2 0.001499 0.013126 -0.003529 0.000000 0.000000 0.000000
# 3 -0.004317 -0.003529 0.017778 0.000000 0.000000 0.000000
# 4 0.000000 0.000000 0.000000 0.043806 0.000000 0.000000
# 5 0.000000 0.000000 0.000000 0.000000 -0.001615 0.000000
# 6 0.000000 0.000000 0.000000 0.000000 0.000000 -0.018222
#
#
# Mechanical properties :
#
#
# Convention : Reuss Voigt Hill
#
# Bulk Modulus (GPa) = 27.82244 28.39987 28.11115
# Shear Modulus (GPa) = 51.39796 -118.46592 -33.53398
#
# Velocity S-wave (km/s) = 5.07707 -7.70792 -4.10094
# Velocity P-wave (km/s) = 6.95142 8.06060 2.88540
#
# Compressibility (1/GPa) = 0.03594221
#
# Stress axis : x y z
#
# Youngs Moduli (GPa) = 56.39679 76.18206 56.24832
#
# Poissons Ratio (x) = -0.11421 0.24285
# Poissons Ratio (y) = -0.08455 0.19848
# Poissons Ratio (z) = 0.24349 0.26882
#
# Static dielectric constant tensor:
#      x y z
#    x 1.765430 0.000000 0.000000 
#    y 0.000000 1.727980 0.000000 
#    z 0.000000 0.000000 1.658970 
# 
# From -- ./inp_files/20682.got.cif
#   From: 2010.05.17/outbox.cif.g08.bks.cpg/sg67_11_cif.got.tgz:20682.got - 2010.06.03 18:28:57.
