data_PCOD9500993
_publ_section_title
;
Structure prediction by ZEFSAII (Michael W. Deem and Ramdas Pophale) SiO2 
 PCOD9500993
Probable space group: C M M A
;
_chemical_formula_sum "Si O2"
_cell_formula_units_Z 92
_cell_length_a 16.442173
_cell_length_b 14.383142
_cell_length_c 21.194878
_cell_angle_alpha 90.000000
_cell_angle_beta 90.000000
_cell_angle_gamma 90.000000
_cell_volume 5012.379009
_symmetry_space_group_name_H-M "C M M A"
_symmetry_group_IT_number 67
_symmetry_cell_setting 'orthorhombic'
loop_
_space_group_symop_operation_xyz
x,y,z
-x,1/2-y,z
x,-y,-z
-x,1/2+y,-z
-x,-y,-z
x,1/2+y,-z
-x,y,z
x,1/2-y,z
1/2+x,1/2+y,z
1/2-x,-y,z
1/2+x,1/2-y,-z
1/2-x,y,-z
1/2-x,1/2-y,-z
1/2+x,y,-z
1/2-x,1/2+y,z
1/2+x,-y,z
loop_
_atom_site_type_symbol
_atom_site_label
_atom_site_fract_x
_atom_site_fract_y
_atom_site_fract_z
Si Si1 0.900264 0.454878 0.232085
Si Si2 0.000000 0.250000 0.503850
Si Si3 0.500000 0.949485 0.566089
Si Si4 0.161650 0.536822 0.629252
Si Si5 0.653538 0.646318 0.008352
Si Si6 0.096455 0.983362 0.098410
Si Si7 0.875763 0.750000 0.612698
Si Si8 0.409192 0.750000 0.238908
O O1 0.855283 0.479357 0.296442
O O2 0.879577 0.516660 0.171636
O O3 0.873709 0.348216 0.218450
O O4 0.000000 0.455419 0.241996
O O5 0.000000 0.340373 0.548733
O O6 0.072948 0.250000 0.452272
O O7 0.500000 0.000000 0.500000
O O8 0.582872 0.986287 0.598849
O O9 0.250000 0.500000 0.610413
O O10 0.163365 0.647317 0.613904
O O11 0.623191 0.750000 0.022194
O O12 0.618442 0.605768 0.943079
O O13 0.750000 0.648711 0.000000
O O14 0.633235 0.572097 0.062346
O O15 0.000000 0.995732 0.096793
O O16 0.913974 0.750000 0.684120
O O17 0.500000 0.750000 0.212760
#
# Coordination Sequence:
#
# PCOD9500993 Si02
#       8
#    16   4   8  16  16  16   8   8
#     4   9  18  34  58  85 118 151 192 245 303 354
#     4  12  22  40  70  94 124 172 194 250 304 354
#     4  12  24  42  66  94 128 165 202 247 306 360
#     4  11  23  40  66  92 125 165 204 254 310 360
#     4  10  21  36  53  75 112 155 193 240 292 350
#     4  10  20  33  57  86 109 146 190 242 299 348
#     4  10  18  37  61  91 120 156 206 244 304 365
#     4   8  14  26  53  84 110 140 184 242 297 344
#
# _framework density 18.354557
#
# number of rings (size 3 to 8) (size 9 to 14) (size 15 to 20)
#    0.000    1.913    3.043    2.087    1.217    3.826 
#    0.000    0.870    3.826    0.000    0.000    0.000 
#    0.000    0.000    0.000    0.000    0.000    0.000 
#
# Total GULP energy -256120.379820 kJ/mol
# GULP energy per Si atom -5567.834344 kJ/mol
# Density = 1.831278 g / cm^3
# Si number density = 18.354557 Si / 1000 Ang^3
#
#
#
# Elastic Constant Matrix: (Units=GPa)
#
#
# Indices 1 2 3 4 5 6 
#
# 1 84.6810 35.2973 29.9371 0.0000 0.0000 0.0000
# 2 35.2973 97.1994 18.2578 0.0000 0.0000 0.0000
# 3 29.9371 18.2578 78.8268 0.0000 0.0000 0.0000
# 4 0.0000 0.0000 0.0000 17.3236 0.0000 0.0000
# 5 0.0000 0.0000 0.0000 0.0000 -13.0717 0.0000
# 6 0.0000 0.0000 0.0000 0.0000 0.0000 -937.6627
#
#
#
# Elastic Compliance Matrix: (Units=1/GPa)
#
#
# Indices 1 2 3 4 5 6 
#
# 1 0.015466 -0.004718 -0.004781 0.000000 0.000000 0.000000
# 2 -0.004718 0.012196 -0.001033 0.000000 0.000000 0.000000
# 3 -0.004781 -0.001033 0.014741 0.000000 0.000000 0.000000
# 4 0.000000 0.000000 0.000000 0.057725 0.000000 0.000000
# 5 0.000000 0.000000 0.000000 0.000000 -0.076501 0.000000
# 6 0.000000 0.000000 0.000000 0.000000 0.000000 -0.001066
#
#
# Mechanical properties :
#
#
# Convention : Reuss Voigt Hill
#
# Bulk Modulus (GPa) = 46.86363 47.52130 47.19246
# Shear Modulus (GPa) = 98.54923 -174.86782 -38.15930
#
# Velocity S-wave (km/s) = 7.33543 -9.77133 -4.56456
# Velocity P-wave (km/s) = 9.86573 10.06769 1.41877
#
# Compressibility (1/GPa) = 0.02133851
#
# Stress axis : x y z
#
# Youngs Moduli (GPa) = 64.65835 81.99716 67.83828
#
# Poissons Ratio (x) = 0.38689 0.32432
# Poissons Ratio (y) = 0.30508 0.07006
# Poissons Ratio (z) = 0.30912 0.08469
#
# Static dielectric constant tensor:
#      x y z
#    x 2.008380 0.000000 0.000000 
#    y 0.000000 1.581630 0.000000 
#    z 0.000000 0.000000 1.650920 
# 
# From -- ./inp_files/38583.got.cif
#   From: 2010.05.17/outbox.cif.g08.bks.cpg/sg67_20_cif.got.tgz:38583.got - 2010.06.03 18:28:57.
