data_PCOD9500532
_publ_section_title
;
Structure prediction by ZEFSAII (Michael W. Deem and Ramdas Pophale) SiO2 
 PCOD9500532
Probable space group: C M M A
;
_chemical_formula_sum "Si O2"
_cell_formula_units_Z 96
_cell_length_a 26.334228
_cell_length_b 14.634427
_cell_length_c 12.570340
_cell_angle_alpha 90.000000
_cell_angle_beta 90.000000
_cell_angle_gamma 90.000000
_cell_volume 4844.437291
_symmetry_space_group_name_H-M "C M M A"
_symmetry_group_IT_number 67
_symmetry_cell_setting 'orthorhombic'
loop_
_space_group_symop_operation_xyz
x,y,z
-x,1/2-y,z
x,-y,-z
-x,1/2+y,-z
-x,-y,-z
x,1/2+y,-z
-x,y,z
x,1/2-y,z
1/2+x,1/2+y,z
1/2-x,-y,z
1/2+x,1/2-y,-z
1/2-x,y,-z
1/2-x,1/2-y,-z
1/2+x,y,-z
1/2-x,1/2+y,z
1/2+x,-y,z
loop_
_atom_site_type_symbol
_atom_site_label
_atom_site_fract_x
_atom_site_fract_y
_atom_site_fract_z
Si Si1 0.862931 0.859644 0.014089
Si Si2 0.806406 0.638511 0.462726
Si Si3 0.224401 0.402972 0.148602
Si Si4 0.442197 0.138391 0.836883
Si Si5 0.829285 0.647775 0.230372
Si Si6 0.142331 0.861053 0.676424
O O1 0.867203 0.750000 0.023465
O O2 0.810343 0.876956 0.951275
O O3 0.908591 0.891112 0.938500
O O4 0.860298 0.898193 0.133859
O O5 0.804066 0.750000 0.455073
O O6 0.750000 0.609792 0.500000
O O7 0.822638 0.604114 0.346306
O O8 0.845838 0.614174 0.555345
O O9 0.250000 0.500000 0.132107
O O10 0.272694 0.343726 0.182131
O O11 0.186333 0.399839 0.248118
O O12 0.500000 0.106061 0.838860
O O13 0.443038 0.250000 0.839770
O O14 0.410860 0.113161 0.730698
O O15 0.850381 0.750000 0.247264
O O16 0.146649 0.750000 0.683927
#
# Coordination Sequence:
#
# PCOD9500532 Si02
#       6
#    16  16  16  16  16  16
#     4   9  18  30  45  65  90 120 154 186 222 273
#     4   9  15  25  44  64  86 121 158 186 212 262
#     4  11  20  28  41  64  94 124 150 185 224 264
#     4   8  14  26  46  69  89 111 146 194 235 262
#     4  10  18  29  44  61  86 123 157 179 216 273
#     4   9  16  29  47  67  92 122 155 187 222 267
#
# _framework density 19.816544
#
# number of rings (size 3 to 8) (size 9 to 14) (size 15 to 20)
#    0.000    2.667    1.667    3.000    0.000    2.667 
#    0.000    1.667    0.000    1.000    0.000   16.333 
#    0.000    5.333    0.000    0.000    0.000   10.667 
#
# Total GULP energy -267775.771408 kJ/mol
# GULP energy per Si atom -5578.661904 kJ/mol
# Density = 1.977144 g / cm^3
# Si number density = 19.816544 Si / 1000 Ang^3
#
#
#
# Elastic Constant Matrix: (Units=GPa)
#
#
# Indices 1 2 3 4 5 6 
#
# 1 125.4328 3.0774 80.4007 0.0000 0.0000 0.0000
# 2 3.0774 41.0143 11.5010 0.0000 0.0000 0.0000
# 3 80.4007 11.5010 217.7869 0.0000 0.0000 0.0000
# 4 0.0000 0.0000 0.0000 7.2781 0.0000 0.0000
# 5 0.0000 0.0000 0.0000 0.0000 13.0171 0.0000
# 6 0.0000 0.0000 0.0000 0.0000 0.0000 0.4452
#
#
#
# Elastic Compliance Matrix: (Units=1/GPa)
#
#
# Indices 1 2 3 4 5 6 
#
# 1 0.010447 0.000302 -0.003873 0.000000 0.000000 0.000000
# 2 0.000302 0.024757 -0.001419 0.000000 0.000000 0.000000
# 3 -0.003873 -0.001419 0.006096 0.000000 0.000000 0.000000
# 4 0.000000 0.000000 0.000000 0.137398 0.000000 0.000000
# 5 0.000000 0.000000 0.000000 0.000000 0.076822 0.000000
# 6 0.000000 0.000000 0.000000 0.000000 0.000000 2.246332
#
#
# Mechanical properties :
#
#
# Convention : Reuss Voigt Hill
#
# Bulk Modulus (GPa) = 31.92706 63.79914 47.86310
# Shear Modulus (GPa) = 1.98234 23.43175 12.70704
#
# Velocity S-wave (km/s) = 1.00126 3.44238 2.53501
# Velocity P-wave (km/s) = 4.18127 6.93288 5.72485
#
# Compressibility (1/GPa) = 0.03132139
#
# Stress axis : x y z
#
# Youngs Moduli (GPa) = 95.71738 40.39273 164.03344
#
# Poissons Ratio (x) = -0.01220 0.63528
# Poissons Ratio (y) = -0.02892 0.23275
# Poissons Ratio (z) = 0.37070 0.05731
#
# Static dielectric constant tensor:
#      x y z
#    x 1.658100 0.000000 0.000000 
#    y 0.000000 1.765690 0.000000 
#    z 0.000000 0.000000 1.739540 
# 
# From -- ./inp_files/22911.got.cif
#   From: 2010.05.17/outbox.cif.g08.bks.cpg/sg67_12_cif.got.tgz:22911.got - 2010.06.03 18:28:57.
