data_PCOD9500310
_publ_section_title
;
Structure prediction by ZEFSAII (Michael W. Deem and Ramdas Pophale) SiO2 
 PCOD9500310
Probable space group: C M M A
;
_chemical_formula_sum "Si O2"
_cell_formula_units_Z 80
_cell_length_a 14.622821
_cell_length_b 9.065086
_cell_length_c 27.228197
_cell_angle_alpha 90.000000
_cell_angle_beta 90.000000
_cell_angle_gamma 90.000000
_cell_volume 3609.291647
_symmetry_space_group_name_H-M "C M M A"
_symmetry_group_IT_number 67
_symmetry_cell_setting 'orthorhombic'
loop_
_space_group_symop_operation_xyz
x,y,z
-x,1/2-y,z
x,-y,-z
-x,1/2+y,-z
-x,-y,-z
x,1/2+y,-z
-x,y,z
x,1/2-y,z
1/2+x,1/2+y,z
1/2-x,-y,z
1/2+x,1/2-y,-z
1/2-x,y,-z
1/2-x,1/2-y,-z
1/2+x,y,-z
1/2-x,1/2+y,z
1/2+x,-y,z
loop_
_atom_site_type_symbol
_atom_site_label
_atom_site_fract_x
_atom_site_fract_y
_atom_site_fract_z
Si Si1 0.111827 0.583203 0.049248
Si Si2 0.850131 0.928545 0.352682
Si Si3 0.612079 0.584305 0.147460
Si Si4 0.852845 0.570664 0.549507
Si Si5 0.607243 0.913176 0.758115
O O1 0.143868 0.750000 0.047481
O O2 0.139697 0.509327 0.100251
O O3 0.000000 0.583411 0.049183
O O4 0.140259 0.500000 0.000000
O O5 0.849183 0.750000 0.360026
O O6 0.888506 0.960139 0.298615
O O7 0.750000 0.000000 0.349929
O O8 0.894342 0.008561 0.399793
O O9 0.500000 0.587469 0.147392
O O10 0.644811 0.750000 0.141845
O O11 0.643046 0.518738 0.199550
O O12 0.893970 0.500000 0.500000
O O13 0.850581 0.750000 0.547936
O O14 0.750000 0.500000 0.550315
O O15 0.500000 0.898974 0.769226
O O16 0.649939 0.750000 0.761129
#
# Coordination Sequence:
#
# PCOD9500310 Si02
#       5
#    16  16  16  16  16
#     4   9  15  22  33  50  75 107 142 180 222 267
#     4  10  19  31  48  70  95 120 149 186 226 267
#     4   9  16  25  38  57  81 110 145 183 222 266
#     4  10  17  27  44  66  92 118 147 182 222 267
#     4   9  18  32  48  65  88 121 156 187 222 266
#
# _framework density 22.165013999999999
#
# number of rings (size 3 to 8) (size 9 to 14) (size 15 to 20)
#    0.000    2.600    0.000    5.400    0.000    6.400 
#    0.000    0.000    0.000    0.600    0.000    0.000 
#    0.000    0.800    0.000    8.400    0.000   12.600 
#
# Total GULP energy -223157.116752 kJ/mol
# GULP energy per Si atom -5578.927919 kJ/mol
# Density = 2.211457 g / cm^3
# Si number density = 22.165014 Si / 1000 Ang^3
#
#
#
# Elastic Constant Matrix: (Units=GPa)
#
#
# Indices 1 2 3 4 5 6 
#
# 1 52.5912 10.8434 -0.2494 0.0000 0.0000 0.0000
# 2 10.8434 204.4029 149.3952 0.0000 0.0000 0.0000
# 3 -0.2494 149.3952 227.8037 0.0000 0.0000 0.0000
# 4 0.0000 0.0000 0.0000 46.9254 0.0000 0.0000
# 5 0.0000 0.0000 0.0000 0.0000 11.0219 0.0000
# 6 0.0000 0.0000 0.0000 0.0000 0.0000 -2.2693
#
#
#
# Elastic Compliance Matrix: (Units=1/GPa)
#
#
# Indices 1 2 3 4 5 6 
#
# 1 0.019435 -0.002010 0.001339 0.000000 0.000000 0.000000
# 2 -0.002010 0.009604 -0.006300 0.000000 0.000000 0.000000
# 3 0.001339 -0.006300 0.008523 0.000000 0.000000 0.000000
# 4 0.000000 0.000000 0.000000 0.021310 0.000000 0.000000
# 5 0.000000 0.000000 0.000000 0.000000 0.090728 0.000000
# 6 0.000000 0.000000 0.000000 0.000000 0.000000 -0.440672
#
#
# Mechanical properties :
#
#
# Convention : Reuss Voigt Hill
#
# Bulk Modulus (GPa) = 42.33657 89.41960 65.87808
# Shear Modulus (GPa) = -18.56977 32.78951 7.10987
#
# Velocity S-wave (km/s) = -2.89761 3.85039 1.79295
# Velocity P-wave (km/s) = 2.81908 7.75871 5.83716
#
# Compressibility (1/GPa) = 0.02362024
#
# Stress axis : x y z
#
# Youngs Moduli (GPa) = 51.45261 104.12484 117.32820
#
# Poissons Ratio (x) = 0.20929 -0.15716
# Poissons Ratio (y) = 0.10342 0.73922
# Poissons Ratio (z) = -0.06892 0.65604
#
# Static dielectric constant tensor:
#      x y z
#    x 1.939030 0.000000 0.000000 
#    y 0.000000 1.771340 0.000000 
#    z 0.000000 0.000000 1.855390 
# 
# From -- ./inp_files/43232.got.cif
#   From: 2010.05.17/outbox.cif.g08.bks.cpg/sg67_22_cif.got.tgz:43232.got - 2010.06.03 18:28:57.
