data_PCOD9500376
_publ_section_title
;
Structure prediction by ZEFSAII (Michael W. Deem and Ramdas Pophale) SiO2 
 PCOD9500376
Probable space group: C M M A
;
_chemical_formula_sum "Si O2"
_cell_formula_units_Z 88
_cell_length_a 8.635802
_cell_length_b 16.468062
_cell_length_c 31.602155
_cell_angle_alpha 90.000000
_cell_angle_beta 90.000000
_cell_angle_gamma 90.000000
_cell_volume 4494.298032
_symmetry_space_group_name_H-M "C M M A"
_symmetry_group_IT_number 67
_symmetry_cell_setting 'orthorhombic'
loop_
_space_group_symop_operation_xyz
x,y,z
-x,1/2-y,z
x,-y,-z
-x,1/2+y,-z
-x,-y,-z
x,1/2+y,-z
-x,y,z
x,1/2-y,z
1/2+x,1/2+y,z
1/2-x,-y,z
1/2+x,1/2-y,-z
1/2-x,y,-z
1/2-x,1/2-y,-z
1/2+x,y,-z
1/2-x,1/2+y,z
1/2+x,-y,z
loop_
_atom_site_type_symbol
_atom_site_label
_atom_site_fract_x
_atom_site_fract_y
_atom_site_fract_z
Si Si1 0.815685 0.592754 0.456661
Si Si2 0.174955 0.654423 0.286394
Si Si3 0.187483 0.592175 0.101646
Si Si4 0.686817 0.090379 0.196717
Si Si5 0.812428 0.750000 0.047450
Si Si6 0.817800 0.090374 0.370877
O O1 0.750000 0.500000 0.455866
O O2 0.750000 0.630228 0.500000
O O3 0.760398 0.630500 0.412279
O O4 0.000000 0.589843 0.458379
O O5 0.160459 0.750000 0.288060
O O6 0.237852 0.633449 0.239798
O O7 0.277051 0.628469 0.325905
O O8 0.000000 0.618319 0.290986
O O9 0.250000 0.500000 0.093496
O O10 0.233568 0.618147 0.149648
O O11 0.236110 0.665961 0.070921
O O12 0.000000 0.586636 0.100037
O O13 0.500000 0.092863 0.197033
O O14 0.750000 0.000000 0.199960
O O15 0.000000 0.750000 0.047515
O O16 0.750000 0.750000 0.000000
O O17 0.000000 0.087885 0.378006
O O18 0.750000 0.000000 0.368267
#
# Coordination Sequence:
#
# PCOD9500376 Si02
#       6
#    16  16  16  16   8  16
#     4  10  17  28  47  73 102 130 167 214 266 318
#     4  10  21  35  52  76 105 139 176 216 264 321
#     4   9  19  36  58  84 114 150 192 238 289 343
#     4   9  18  33  55  80 106 138 178 222 270 324
#     4  10  22  38  58  84 116 154 196 240 289 346
#     4  11  21  34  52  74 103 138 176 217 264 316
#
# _framework density 19.580366000000001
#
# number of rings (size 3 to 8) (size 9 to 14) (size 15 to 20)
#    0.000    2.182    0.000    5.455    1.273    3.636 
#    0.000    1.818    0.000    0.545    0.000    0.000 
#    0.000    0.000    0.000    0.000    0.000    0.000 
#
# Total GULP energy -245245.244445 kJ/mol
# GULP energy per Si atom -5573.755556 kJ/mol
# Density = 1.953580 g / cm^3
# Si number density = 19.580366 Si / 1000 Ang^3
#
#
#
# Elastic Constant Matrix: (Units=GPa)
#
#
# Indices 1 2 3 4 5 6 
#
# 1 85.5297 19.0529 55.4966 0.0000 0.0000 0.0000
# 2 19.0529 59.8186 79.7814 0.0000 0.0000 0.0000
# 3 55.4966 79.7814 195.0943 0.0000 0.0000 0.0000
# 4 0.0000 0.0000 0.0000 -706.0918 0.0000 0.0000
# 5 0.0000 0.0000 0.0000 0.0000 -256.5996 0.0000
# 6 0.0000 0.0000 0.0000 0.0000 0.0000 14.0939
#
#
#
# Elastic Compliance Matrix: (Units=1/GPa)
#
#
# Indices 1 2 3 4 5 6 
#
# 1 0.014439 0.001934 -0.004898 0.000000 0.000000 0.000000
# 2 0.001934 0.037033 -0.015694 0.000000 0.000000 0.000000
# 3 -0.004898 -0.015694 0.012937 0.000000 0.000000 0.000000
# 4 0.000000 0.000000 0.000000 -0.001416 0.000000 0.000000
# 5 0.000000 0.000000 0.000000 0.000000 -0.003897 0.000000
# 6 0.000000 0.000000 0.000000 0.000000 0.000000 0.070953
#
#
# Mechanical properties :
#
#
# Convention : Reuss Voigt Hill
#
# Bulk Modulus (GPa) = 36.91132 72.12272 54.51702
# Shear Modulus (GPa) = 28.34515 -177.31205 -74.48345
#
# Velocity S-wave (km/s) = 3.80890 -9.52642 -6.17434
# Velocity P-wave (km/s) = 6.18351 9.17002 4.78819
#
# Compressibility (1/GPa) = 0.02709196
#
# Stress axis : x y z
#
# Youngs Moduli (GPa) = 69.25546 27.00282 77.29735
#
# Poissons Ratio (x) = -0.05222 0.37862
# Poissons Ratio (y) = -0.13392 1.21313
# Poissons Ratio (z) = 0.33923 0.42379
#
# Static dielectric constant tensor:
#      x y z
#    x 1.706570 0.000000 0.000000 
#    y 0.000000 1.668060 0.000000 
#    z 0.000000 0.000000 1.762650 
# 
# From -- ./inp_files/45241.got.cif
#   From: 2010.05.17/outbox.cif.g08.bks.cpg/sg67_23_cif.got.tgz:45241.got - 2010.06.03 18:28:57.
