data_PCOD9500070
_publ_section_title
;
Structure prediction by ZEFSAII (Michael W. Deem and Ramdas Pophale) SiO2 
 PCOD9500070
Probable space group: C C C M
;
_chemical_formula_sum "Si O2"
_cell_formula_units_Z 56
_cell_length_a 24.000000
_cell_length_b 12.000000
_cell_length_c 21.000000
_cell_angle_alpha 90.000000
_cell_angle_beta 90.000000
_cell_angle_gamma 90.000000
_cell_volume 6048.000000
_symmetry_space_group_name_H-M "C C C M"
_symmetry_group_IT_number 66
_symmetry_cell_setting 'orthorhombic'
loop_
_space_group_symop_operation_xyz
x,y,z
-x,-y,z
x,-y,1/2-z
-x,y,1/2-z
-x,-y,-z
x,y,-z
-x,y,1/2+z
x,-y,1/2+z
1/2+x,1/2+y,z
1/2-x,1/2-y,z
1/2+x,1/2-y,1/2-z
1/2-x,1/2+y,1/2-z
1/2-x,1/2-y,-z
1/2+x,1/2+y,-z
1/2-x,1/2+y,1/2+z
1/2+x,1/2-y,1/2+z
loop_
_atom_site_type_symbol
_atom_site_label
_atom_site_fract_x
_atom_site_fract_y
_atom_site_fract_z
Si Si1 0.134664 0.490687 0.180988
Si Si2 0.112011 0.828674 0.074855
Si Si3 0.874644 0.912588 0.925747
Si Si4 0.686895 0.220256 0.820038
Si Si5 0.816510 0.244996 0.677641
Si Si6 0.485041 0.705520 0.423991
Si Si7 0.441200 0.059417 0.928488
O O1 0.104751 0.500000 0.250000
O O2 0.180297 0.587356 0.186882
O O3 0.159955 0.369395 0.168284
O O4 0.095295 0.509326 0.120827
O O5 0.148634 0.757176 0.122203
O O6 0.047558 0.818521 0.096726
O O7 0.133348 0.955723 0.079255
O O8 0.115304 0.795831 0.000000
O O9 0.841392 0.840285 0.873954
O O10 0.940380 0.891017 0.913945
O O11 0.863247 0.878797 0.000000
O O12 0.750000 0.250000 0.833496
O O13 0.670677 0.277787 0.752501
O O14 0.750000 0.250000 0.671560
O O15 0.489503 0.722503 0.500000
O O16 0.455654 0.818635 0.400580
O O17 0.500000 0.000000 0.934649
O O18 0.416369 0.068817 0.000000
#
# Coordination Sequence:
#
# PCOD9500070 Si02
#       7
#    16  16  16  16  16  16  16
#     4  10  21  38  57  83 112 144 190 235 282 332
#     4  10  21  37  58  86 118 151 188 230 278 338
#     4  10  20  36  60  88 115 147 187 232 285 337
#     4  10  23  40  58  81 112 154 193 231 284 339
#     4  10  22  39  61  84 111 147 190 239 284 336
#     4   9  17  33  56  83 115 147 181 224 281 338
#     4  10  19  32  55  84 112 148 187 225 275 334
#
# _framework density 9.2592590000000001
#
# number of rings (size 3 to 8) (size 9 to 14) (size 15 to 20)
#    0.000    2.143    1.429    1.286    2.000    4.857 
#    0.000    0.714    0.000    1.714    0.000    0.000 
#    0.000    0.000    0.000    0.000    0.000    0.000 
#
# Total GULP energy -311956.263220 kJ/mol
# GULP energy per Si atom -5570.647558 kJ/mol
# Density = 0.923818 g / cm^3
# Si number density = 9.259259 Si / 1000 Ang^3
#
#
#
# Elastic Constant Matrix: (Units=GPa)
#
#
# Indices 1 2 3 4 5 6 
#
# 1 71.8463 19.6420 57.1938 0.0000 0.0000 0.0000
# 2 19.6420 51.2291 33.0680 0.0000 0.0000 0.0000
# 3 57.1938 33.0680 101.7303 0.0000 0.0000 0.0000
# 4 0.0000 0.0000 0.0000 27.1494 0.0000 0.0000
# 5 0.0000 0.0000 0.0000 0.0000 56.7828 0.0000
# 6 0.0000 0.0000 0.0000 0.0000 0.0000 18.8808
#
#
#
# Elastic Compliance Matrix: (Units=1/GPa)
#
#
# Indices 1 2 3 4 5 6 
#
# 1 0.025212 -0.000655 -0.013962 0.000000 0.000000 0.000000
# 2 -0.000655 0.024720 -0.007668 0.000000 0.000000 0.000000
# 3 -0.013962 -0.007668 0.020172 0.000000 0.000000 0.000000
# 4 0.000000 0.000000 0.000000 0.036833 0.000000 0.000000
# 5 0.000000 0.000000 0.000000 0.000000 0.017611 0.000000
# 6 0.000000 0.000000 0.000000 0.000000 0.000000 0.052964
#
#
# Mechanical properties :
#
#
# Convention : Reuss Voigt Hill
#
# Bulk Modulus (GPa) = 39.15946 49.40147 44.28046
# Shear Modulus (GPa) = 21.68339 28.22271 24.95305
#
# Velocity S-wave (km/s) = 3.42556 3.90811 3.67477
# Velocity P-wave (km/s) = 6.06943 6.86288 6.47831
#
# Compressibility (1/GPa) = 0.02553662
#
# Stress axis : x y z
#
# Youngs Moduli (GPa) = 39.66412 40.45230 49.57468
#
# Poissons Ratio (x) = 0.02648 0.69214
# Poissons Ratio (y) = 0.02596 0.38012
# Poissons Ratio (z) = 0.55377 0.31017
#
# Static dielectric constant tensor:
#      x y z
#    x 1.643880 0.000000 0.000000 
#    y 0.000000 1.710270 0.000000 
#    z 0.000000 0.000000 1.658920 
# 
# From -- ./inp_files/48996.got.cif
#   From: 2010.05.17/outbox.ucp.g08.bks.cvg/sg66_25_cif.got.tgz:48996.got - 2010.06.11 16:44:13.
