data_PCOD9500449
_publ_section_title
;
Structure prediction by ZEFSAII (Michael W. Deem and Ramdas Pophale) SiO2 
 PCOD9500449
Probable space group: C M M A
;
_chemical_formula_sum "Si O2"
_cell_formula_units_Z 80
_cell_length_a 23.069753
_cell_length_b 14.975595
_cell_length_c 12.590790
_cell_angle_alpha 90.000000
_cell_angle_beta 90.000000
_cell_angle_gamma 90.000000
_cell_volume 4349.907398
_symmetry_space_group_name_H-M "C M M A"
_symmetry_group_IT_number 67
_symmetry_cell_setting 'orthorhombic'
loop_
_space_group_symop_operation_xyz
x,y,z
-x,1/2-y,z
x,-y,-z
-x,1/2+y,-z
-x,-y,-z
x,1/2+y,-z
-x,y,z
x,1/2-y,z
1/2+x,1/2+y,z
1/2-x,-y,z
1/2+x,1/2-y,-z
1/2-x,y,-z
1/2-x,1/2-y,-z
1/2+x,y,-z
1/2-x,1/2+y,z
1/2+x,-y,z
loop_
_atom_site_type_symbol
_atom_site_label
_atom_site_fract_x
_atom_site_fract_y
_atom_site_fract_z
Si Si1 0.567821 0.856281 0.195653
Si Si2 0.653387 0.750000 0.463485
Si Si3 0.766229 0.250000 0.668054
Si Si4 0.931693 0.588161 0.571458
Si Si5 0.270241 0.403267 0.167747
Si Si6 0.838633 0.354100 0.022941
O O1 0.500000 0.863816 0.170438
O O2 0.578794 0.750000 0.221063
O O3 0.579390 0.915079 0.300990
O O4 0.606938 0.880119 0.094919
O O5 0.698185 0.750000 0.364136
O O6 0.695042 0.750000 0.564186
O O7 0.611960 0.664499 0.465408
O O8 0.780947 0.163397 0.737103
O O9 0.923218 0.500000 0.500000
O O10 0.000000 0.613704 0.561332
O O11 0.250000 0.500000 0.204146
O O12 0.216825 0.363149 0.099942
O O13 0.322887 0.408081 0.083389
O O14 0.844730 0.250000 0.992113
#
# Coordination Sequence:
#
# PCOD9500449 Si02
#       6
#    16   8   8  16  16  16
#     4   9  17  30  55  88 113 143 184 230 282 336
#     4  11  23  38  58  81 119 151 188 242 295 332
#     4  11  24  39  54  83 116 155 192 236 285 345
#     4  10  20  36  60  87 113 147 193 238 285 343
#     4  11  21  36  56  80 111 149 189 230 281 338
#     4  10  17  32  58  81 110 139 183 239 278 330
#
# _framework density 18.391195
#
# number of rings (size 3 to 8) (size 9 to 14) (size 15 to 20)
#    0.000    1.800    3.000    3.300    0.000    3.200 
#    0.000    2.000    0.000    4.800    0.000    0.000 
#    0.000    0.000    0.000    0.000    0.000    0.000 
#
# Total GULP energy -223190.563297 kJ/mol
# GULP energy per Si atom -5579.764082 kJ/mol
# Density = 1.834934 g / cm^3
# Si number density = 18.391195 Si / 1000 Ang^3
#
#
#
# Elastic Constant Matrix: (Units=GPa)
#
#
# Indices 1 2 3 4 5 6 
#
# 1 97.0612 42.6888 55.0193 0.0000 0.0000 0.0000
# 2 42.6888 85.4307 48.8159 0.0000 0.0000 0.0000
# 3 55.0193 48.8159 103.1152 0.0000 0.0000 0.0000
# 4 0.0000 0.0000 0.0000 -6.2480 0.0000 0.0000
# 5 0.0000 0.0000 0.0000 0.0000 30.7901 0.0000
# 6 0.0000 0.0000 0.0000 0.0000 0.0000 -0.3671
#
#
#
# Elastic Compliance Matrix: (Units=1/GPa)
#
#
# Indices 1 2 3 4 5 6 
#
# 1 0.015808 -0.004221 -0.006436 0.000000 0.000000 0.000000
# 2 -0.004221 0.017173 -0.005878 0.000000 0.000000 0.000000
# 3 -0.006436 -0.005878 0.015915 0.000000 0.000000 0.000000
# 4 0.000000 0.000000 0.000000 -0.160051 0.000000 0.000000
# 5 0.000000 0.000000 0.000000 0.000000 0.032478 0.000000
# 6 0.000000 0.000000 0.000000 0.000000 0.000000 -2.723909
#
#
# Mechanical properties :
#
#
# Convention : Reuss Voigt Hill
#
# Bulk Modulus (GPa) = 63.18956 64.29501 63.74229
# Shear Modulus (GPa) = -1.80882 14.10719 6.14919
#
# Velocity S-wave (km/s) = -0.99280 2.77259 1.83052
# Velocity P-wave (km/s) = 5.75491 6.72943 6.26116
#
# Compressibility (1/GPa) = 0.01582540
#
# Stress axis : x y z
#
# Youngs Moduli (GPa) = 63.26042 58.22998 62.83542
#
# Poissons Ratio (x) = 0.24580 0.40442
# Poissons Ratio (y) = 0.26704 0.36933
# Poissons Ratio (z) = 0.40715 0.34226
#
# Static dielectric constant tensor:
#      x y z
#    x 1.633210 0.000000 0.000000 
#    y 0.000000 1.647020 0.000000 
#    z 0.000000 0.000000 1.628070 
# 
# From -- ./inp_files/18031.got.cif
#   From: 2010.05.17/outbox.cif.g08.bks.cpg/sg67_10_cif.got.tgz:18031.got - 2010.06.03 18:28:57.
