data_PCOD9500920
_publ_section_title
;
Structure prediction by ZEFSAII (Michael W. Deem and Ramdas Pophale) SiO2 
 PCOD9500920
Probable space group: C M M A
;
_chemical_formula_sum "Si O2"
_cell_formula_units_Z 72
_cell_length_a 15.130198
_cell_length_b 8.651810
_cell_length_c 26.095686
_cell_angle_alpha 90.000000
_cell_angle_beta 90.000000
_cell_angle_gamma 90.000000
_cell_volume 3416.019199
_symmetry_space_group_name_H-M "C M M A"
_symmetry_group_IT_number 67
_symmetry_cell_setting 'orthorhombic'
loop_
_space_group_symop_operation_xyz
x,y,z
-x,1/2-y,z
x,-y,-z
-x,1/2+y,-z
-x,-y,-z
x,1/2+y,-z
-x,y,z
x,1/2-y,z
1/2+x,1/2+y,z
1/2-x,-y,z
1/2+x,1/2-y,-z
1/2-x,y,-z
1/2-x,1/2-y,-z
1/2+x,y,-z
1/2-x,1/2+y,z
1/2+x,-y,z
loop_
_atom_site_type_symbol
_atom_site_label
_atom_site_fract_x
_atom_site_fract_y
_atom_site_fract_z
Si Si1 0.350165 0.564454 0.630978
Si Si2 0.649384 0.565103 0.261340
Si Si3 0.500000 0.935709 0.442534
Si Si4 0.104441 0.578273 0.948783
Si Si5 0.651246 0.067148 0.157136
O O1 0.348015 0.750000 0.630411
O O2 0.250000 0.500000 0.625307
O O3 0.386543 0.505536 0.686047
O O4 0.414158 0.499047 0.587428
O O5 0.649888 0.750000 0.264020
O O6 0.750000 0.500000 0.260126
O O7 0.608487 0.509990 0.207581
O O8 0.500000 0.750000 0.442246
O O9 0.500000 0.000000 0.500000
O O10 0.142839 0.750000 0.940374
O O11 0.112591 0.478358 0.897626
O O12 0.000000 0.595601 0.957625
O O13 0.142021 0.500000 0.000000
O O14 0.652005 0.250000 0.164311
O O15 0.750000 0.000000 0.154667
#
# Coordination Sequence:
#
# PCOD9500920 Si02
#       5
#    16  16   8  16  16
#     4  11  22  41  67  97 131 173 217 263 319 380
#     4  10  18  33  57  86 119 156 196 242 298 359
#     4  12  26  46  68  98 134 172 217 270 319 372
#     4  10  21  38  57  77 105 142 185 233 289 351
#     4  11  21  35  56  83 114 147 188 238 293 351
#
# _framework density 21.077165000000001
#
# number of rings (size 3 to 8) (size 9 to 14) (size 15 to 20)
#    0.000    1.333    0.000   10.333    0.000    2.222 
#    2.000    4.444    0.000    0.000    0.000    0.000 
#    0.000    0.000    0.000    0.000    0.000    0.000 
#
# Total GULP energy -201195.313244 kJ/mol
# GULP energy per Si atom -5588.758701 kJ/mol
# Density = 2.102919 g / cm^3
# Si number density = 21.077165 Si / 1000 Ang^3
#
#
#
# Elastic Constant Matrix: (Units=GPa)
#
#
# Indices 1 2 3 4 5 6 
#
# 1 69.5147 34.7278 46.7593 0.0000 0.0000 0.0000
# 2 34.7278 243.4863 89.2676 0.0000 0.0000 0.0000
# 3 46.7593 89.2676 209.0657 0.0000 0.0000 0.0000
# 4 0.0000 0.0000 0.0000 19.8622 0.0000 0.0000
# 5 0.0000 0.0000 0.0000 0.0000 22.0749 0.0000
# 6 0.0000 0.0000 0.0000 0.0000 0.0000 22.3636
#
#
#
# Elastic Compliance Matrix: (Units=1/GPa)
#
#
# Indices 1 2 3 4 5 6 
#
# 1 0.017243 -0.001239 -0.003327 0.000000 0.000000 0.000000
# 2 -0.001239 0.004958 -0.001840 0.000000 0.000000 0.000000
# 3 -0.003327 -0.001840 0.006313 0.000000 0.000000 0.000000
# 4 0.000000 0.000000 0.000000 0.050347 0.000000 0.000000
# 5 0.000000 0.000000 0.000000 0.000000 0.045300 0.000000
# 6 0.000000 0.000000 0.000000 0.000000 0.000000 0.044716
#
#
# Mechanical properties :
#
#
# Convention : Reuss Voigt Hill
#
# Bulk Modulus (GPa) = 63.69098 95.95291 79.82194
# Shear Modulus (GPa) = 26.74889 36.28093 31.51491
#
# Velocity S-wave (km/s) = 3.56630 4.15340 3.87100
# Velocity P-wave (km/s) = 6.87325 8.28399 7.61137
#
# Compressibility (1/GPa) = 0.01570081
#
# Stress axis : x y z
#
# Youngs Moduli (GPa) = 57.99544 201.68032 158.40402
#
# Poissons Ratio (x) = 0.24997 0.52705
# Poissons Ratio (y) = 0.07188 0.29145
# Poissons Ratio (z) = 0.19297 0.37108
#
# Static dielectric constant tensor:
#      x y z
#    x 1.994330 0.000000 0.000000 
#    y 0.000000 1.732950 0.000000 
#    z 0.000000 0.000000 1.789160 
# 
# From -- ./inp_files/42129.got.cif
#   From: 2010.05.17/outbox.cif.g08.bks.cpg/sg67_22_cif.got.tgz:42129.got - 2010.06.03 18:28:57.
