data_PCOD9500508
_publ_section_title
;
Structure prediction by ZEFSAII (Michael W. Deem and Ramdas Pophale) SiO2 
 PCOD9500508
Probable space group: C M M A
;
_chemical_formula_sum "Si O2"
_cell_formula_units_Z 96
_cell_length_a 27.131910
_cell_length_b 9.730906
_cell_length_c 22.563698
_cell_angle_alpha 90.000000
_cell_angle_beta 90.000000
_cell_angle_gamma 90.000000
_cell_volume 5957.223903
_symmetry_space_group_name_H-M "C M M A"
_symmetry_group_IT_number 67
_symmetry_cell_setting 'orthorhombic'
loop_
_space_group_symop_operation_xyz
x,y,z
-x,1/2-y,z
x,-y,-z
-x,1/2+y,-z
-x,-y,-z
x,1/2+y,-z
-x,y,z
x,1/2-y,z
1/2+x,1/2+y,z
1/2-x,-y,z
1/2+x,1/2-y,-z
1/2-x,y,-z
1/2-x,1/2-y,-z
1/2+x,y,-z
1/2-x,1/2+y,z
1/2+x,-y,z
loop_
_atom_site_type_symbol
_atom_site_label
_atom_site_fract_x
_atom_site_fract_y
_atom_site_fract_z
Si Si1 0.361146 0.413993 0.057293
Si Si2 0.557970 0.587203 0.126097
Si Si3 0.059651 0.250000 0.542211
Si Si4 0.297673 0.908803 0.824598
Si Si5 0.059439 0.461542 0.642377
Si Si6 0.059859 0.250000 0.407104
Si Si7 0.098750 0.907462 0.228937
O O1 0.369559 0.250000 0.046390
O O2 0.409446 0.494249 0.081784
O O3 0.321063 0.425203 0.109788
O O4 0.344995 0.500000 0.000000
O O5 0.500000 0.578494 0.112729
O O6 0.571844 0.750000 0.125135
O O7 0.568434 0.516908 0.190010
O O8 0.073299 0.378295 0.583265
O O9 0.078041 0.250000 0.475040
O O10 0.000000 0.250000 0.538064
O O11 0.284204 0.750000 0.816891
O O12 0.343708 0.939452 0.781417
O O13 0.250000 0.000000 0.816011
O O14 0.073914 0.616460 0.629025
O O15 0.083251 0.411499 0.702960
O O16 0.000000 0.449478 0.648729
O O17 0.000000 0.250000 0.410593
O O18 0.090976 0.750000 0.206174
#
# Coordination Sequence:
#
# PCOD9500508 Si02
#       7
#    16  16   8  16  16   8  16
#     4  10  21  37  56  78 103 131 165 200 239 292
#     4  10  21  34  50  73 102 136 171 208 246 282
#     4   9  16  28  44  64  93 139 176 201 241 283
#     4   9  20  37  55  75  98 124 155 201 255 302
#     4  10  18  28  45  68  99 137 171 205 241 284
#     4   9  18  28  40  64 101 135 172 209 239 279
#     4  10  20  34  50  71  99 130 169 207 247 301
#
# _framework density 16.114888000000001
#
# number of rings (size 3 to 8) (size 9 to 14) (size 15 to 20)
#    0.000    2.333    0.833    3.000    1.167    8.000 
#    0.000    1.667    0.000    0.000    0.000    0.000 
#    0.000    4.000    0.000    0.000    0.000    0.000 
#
# Total GULP energy -267470.260857 kJ/mol
# GULP energy per Si atom -5572.297101 kJ/mol
# Density = 1.607821 g / cm^3
# Si number density = 16.114888 Si / 1000 Ang^3
#
#
#
# Elastic Constant Matrix: (Units=GPa)
#
#
# Indices 1 2 3 4 5 6 
#
# 1 56.4059 35.9239 15.8686 0.0000 0.0000 0.0000
# 2 35.9239 108.8949 19.4542 0.0000 0.0000 0.0000
# 3 15.8686 19.4542 64.3387 0.0000 0.0000 0.0000
# 4 0.0000 0.0000 0.0000 11.1281 0.0000 0.0000
# 5 0.0000 0.0000 0.0000 0.0000 5.4089 0.0000
# 6 0.0000 0.0000 0.0000 0.0000 0.0000 23.6972
#
#
#
# Elastic Compliance Matrix: (Units=1/GPa)
#
#
# Indices 1 2 3 4 5 6 
#
# 1 0.023209 -0.007013 -0.003604 0.000000 0.000000 0.000000
# 2 -0.007013 0.011826 -0.001846 0.000000 0.000000 0.000000
# 3 -0.003604 -0.001846 0.016990 0.000000 0.000000 0.000000
# 4 0.000000 0.000000 0.000000 0.089862 0.000000 0.000000
# 5 0.000000 0.000000 0.000000 0.000000 0.184881 0.000000
# 6 0.000000 0.000000 0.000000 0.000000 0.000000 0.042199
#
#
# Mechanical properties :
#
#
# Convention : Reuss Voigt Hill
#
# Bulk Modulus (GPa) = 36.90113 41.34809 39.12461
# Shear Modulus (GPa) = 12.40921 18.60636 15.50779
#
# Velocity S-wave (km/s) = 2.77798 3.40164 3.10550
# Velocity P-wave (km/s) = 5.76525 6.41422 6.09837
#
# Compressibility (1/GPa) = 0.02709944
#
# Stress axis : x y z
#
# Youngs Moduli (GPa) = 43.08727 84.55621 58.85853
#
# Poissons Ratio (x) = 0.59296 0.21211
# Poissons Ratio (y) = 0.30215 0.10868
# Poissons Ratio (z) = 0.15528 0.15612
#
# Static dielectric constant tensor:
#      x y z
#    x 1.509930 0.000000 0.000000 
#    y 0.000000 1.596030 0.000000 
#    z 0.000000 0.000000 1.542650 
# 
# From -- ./inp_files/40958.got.cif
#   From: 2010.05.17/outbox.cif.g08.bks.cpg/sg67_21_cif.got.tgz:40958.got - 2010.06.03 18:28:57.
