data_PCOD9500770
_publ_section_title
;
Structure prediction by ZEFSAII (Michael W. Deem and Ramdas Pophale) SiO2 
 PCOD9500770
Probable space group: C M M A
;
_chemical_formula_sum "Si O2"
_cell_formula_units_Z 112
_cell_length_a 20.543528
_cell_length_b 16.138863
_cell_length_c 18.837390
_cell_angle_alpha 90.000000
_cell_angle_beta 90.000000
_cell_angle_gamma 90.000000
_cell_volume 6245.521282
_symmetry_space_group_name_H-M "C M M A"
_symmetry_group_IT_number 67
_symmetry_cell_setting 'orthorhombic'
loop_
_space_group_symop_operation_xyz
x,y,z
-x,1/2-y,z
x,-y,-z
-x,1/2+y,-z
-x,-y,-z
x,1/2+y,-z
-x,y,z
x,1/2-y,z
1/2+x,1/2+y,z
1/2-x,-y,z
1/2+x,1/2-y,-z
1/2-x,y,-z
1/2-x,1/2-y,-z
1/2+x,y,-z
1/2-x,1/2+y,z
1/2+x,-y,z
loop_
_atom_site_type_symbol
_atom_site_label
_atom_site_fract_x
_atom_site_fract_y
_atom_site_fract_z
Si Si1 0.425878 0.648560 0.564479
Si Si2 0.305832 0.849400 0.158670
Si Si3 0.815325 0.649970 0.544392
Si Si4 0.776751 0.592737 0.695690
Si Si5 0.844601 0.650691 0.138676
Si Si6 0.675909 0.401901 0.991254
Si Si7 0.367164 0.653599 0.710856
O O1 0.500000 0.624626 0.551264
O O2 0.422807 0.750000 0.566166
O O3 0.376165 0.622856 0.503247
O O4 0.401853 0.617529 0.641674
O O5 0.307445 0.750000 0.161393
O O6 0.320737 0.885439 0.236138
O O7 0.230597 0.878049 0.146535
O O8 0.343976 0.878797 0.088658
O O9 0.817443 0.750000 0.553487
O O10 0.750000 0.630856 0.500000
O O11 0.811252 0.609133 0.621293
O O12 0.750000 0.500000 0.700537
O O13 0.710788 0.648320 0.698530
O O14 0.844063 0.750000 0.143558
O O15 0.879711 0.618504 0.209972
O O16 0.864980 0.628811 0.058916
O O17 0.679441 0.500000 0.000000
O O18 0.750000 0.366334 0.000000
O O19 0.386345 0.750000 0.713229
#
# Coordination Sequence:
#
# PCOD9500770 Si02
#       7
#    16  16  16  16  16  16  16
#     4   9  17  30  51  75  95 120 158 200 241 289
#     4   9  17  27  39  56  84 123 159 193 235 283
#     4  10  18  32  51  69  93 125 158 196 243 298
#     4  11  21  28  44  66  93 121 163 205 239 281
#     4   8  14  23  37  54  80 118 154 183 221 282
#     4   9  16  22  35  54  86 118 154 190 231 275
#     4   9  16  29  46  65  91 122 154 191 237 287
#
# _framework density 17.932849999999998
#
# number of rings (size 3 to 8) (size 9 to 14) (size 15 to 20)
#    0.000    2.714    1.429    2.571    6.000    2.000 
#    0.000    0.000    0.000    1.714    0.000    0.000 
#    0.000    1.714    0.000    8.857    0.000    1.714 
#
# Total GULP energy -311735.947387 kJ/mol
# GULP energy per Si atom -5566.713346 kJ/mol
# Density = 1.789203 g / cm^3
# Si number density = 17.932850 Si / 1000 Ang^3
#
#
#
# Elastic Constant Matrix: (Units=GPa)
#
#
# Indices 1 2 3 4 5 6 
#
# 1 46.4345 1.9884 49.7929 0.0000 0.0000 0.0000
# 2 1.9884 30.1052 40.7627 0.0000 0.0000 0.0000
# 3 49.7929 40.7627 230.9322 0.0000 0.0000 0.0000
# 4 0.0000 0.0000 0.0000 5.8389 0.0000 0.0000
# 5 0.0000 0.0000 0.0000 0.0000 10.2139 0.0000
# 6 0.0000 0.0000 0.0000 0.0000 0.0000 -1.3665
#
#
#
# Elastic Compliance Matrix: (Units=1/GPa)
#
#
# Indices 1 2 3 4 5 6 
#
# 1 0.029692 0.008814 -0.007958 0.000000 0.000000 0.000000
# 2 0.008814 0.046265 -0.010067 0.000000 0.000000 0.000000
# 3 -0.007958 -0.010067 0.007823 0.000000 0.000000 0.000000
# 4 0.000000 0.000000 0.000000 0.171265 0.000000 0.000000
# 5 0.000000 0.000000 0.000000 0.000000 0.097906 0.000000
# 6 0.000000 0.000000 0.000000 0.000000 0.000000 -0.731819
#
#
# Mechanical properties :
#
#
# Convention : Reuss Voigt Hill
#
# Bulk Modulus (GPa) = 15.30025 54.72888 35.01457
# Shear Modulus (GPa) = -14.76410 17.26578 1.25084
#
# Velocity S-wave (km/s) = -2.87243 3.10627 0.83608
# Velocity P-wave (km/s) = 1.56546 6.59168 4.52767
#
# Compressibility (1/GPa) = 0.06535839
#
# Stress axis : x y z
#
# Youngs Moduli (GPa) = 33.67953 21.61441 127.82728
#
# Poissons Ratio (x) = -0.19051 1.01722
# Poissons Ratio (y) = -0.29685 1.28682
# Poissons Ratio (z) = 0.26801 0.21759
#
# Static dielectric constant tensor:
#      x y z
#    x 1.592460 0.000000 0.000000 
#    y 0.000000 1.635910 0.000000 
#    z 0.000000 0.000000 1.702630 
# 
# From -- ./inp_files/35207.got.cif
#   From: 2010.05.17/outbox.cif.g08.bks.cpg/sg67_18_cif.got.tgz:35207.got - 2010.06.03 18:28:57.
