data_PCOD9500989
_publ_section_title
;
Structure prediction by ZEFSAII (Michael W. Deem and Ramdas Pophale) SiO2 
 PCOD9500989
Probable space group: C M M A
;
_chemical_formula_sum "Si O2"
_cell_formula_units_Z 104
_cell_length_a 19.874235
_cell_length_b 28.621909
_cell_length_c 9.599407
_cell_angle_alpha 90.000000
_cell_angle_beta 90.000000
_cell_angle_gamma 90.000000
_cell_volume 5460.512717
_symmetry_space_group_name_H-M "C M M A"
_symmetry_group_IT_number 67
_symmetry_cell_setting 'orthorhombic'
loop_
_space_group_symop_operation_xyz
x,y,z
-x,1/2-y,z
x,-y,-z
-x,1/2+y,-z
-x,-y,-z
x,1/2+y,-z
-x,y,z
x,1/2-y,z
1/2+x,1/2+y,z
1/2-x,-y,z
1/2+x,1/2-y,-z
1/2-x,y,-z
1/2-x,1/2-y,-z
1/2+x,y,-z
1/2-x,1/2+y,z
1/2+x,-y,z
loop_
_atom_site_type_symbol
_atom_site_label
_atom_site_fract_x
_atom_site_fract_y
_atom_site_fract_z
Si Si1 0.312803 0.195854 0.395629
Si Si2 0.121519 0.551519 0.030191
Si Si3 0.125890 0.948293 0.466411
Si Si4 0.288787 0.606239 0.757478
Si Si5 0.579621 0.803685 0.368008
Si Si6 0.000000 0.955321 0.253563
Si Si7 0.871714 0.396360 0.246555
O O1 0.190488 0.250000 0.646215
O O2 0.250000 0.186678 0.500000
O O3 0.308340 0.160104 0.269288
O O4 0.379279 0.188392 0.488930
O O5 0.175426 0.583747 0.109656
O O6 0.058833 0.544920 0.132322
O O7 0.150175 0.500000 0.000000
O O8 0.100635 0.576258 0.886441
O O9 0.181041 0.920153 0.377579
O O10 0.109434 0.922087 0.610075
O O11 0.059330 0.952976 0.373652
O O12 0.151555 0.000000 0.500000
O O13 0.208995 0.602118 0.763751
O O14 0.500000 0.807933 0.390390
O O15 0.594449 0.750000 0.324855
O O16 0.603740 0.843072 0.260858
#
# Coordination Sequence:
#
# PCOD9500989 Si02
#       7
#    16  16  16  16  16   8  16
#     4  10  18  36  64  93 128 166 208 273 334 379
#     4  11  26  43  61  87 132 180 216 262 320 394
#     4  11  23  37  61  93 126 162 214 282 314 369
#     4  11  22  40  58  95 129 163 221 263 318 387
#     4  10  22  38  62  97 129 160 212 269 325 383
#     4  10  24  44  60  86 125 162 225 272 322 382
#     4  12  23  38  66  92 123 174 214 259 326 385
#
# _framework density 19.045829999999999
#
# number of rings (size 3 to 8) (size 9 to 14) (size 15 to 20)
#    0.000    1.231    3.077    3.231    2.154    3.692 
#    0.000    0.769    0.000    1.846    0.000    1.077 
#    0.000    0.000    0.000    0.000    0.000    0.000 
#
# Total GULP energy -289608.760937 kJ/mol
# GULP energy per Si atom -5569.399249 kJ/mol
# Density = 1.900248 g / cm^3
# Si number density = 19.045830 Si / 1000 Ang^3
#
#
#
# Elastic Constant Matrix: (Units=GPa)
#
#
# Indices 1 2 3 4 5 6 
#
# 1 75.8473 18.4346 13.2304 0.0000 0.0000 0.0000
# 2 18.4346 115.6926 44.5326 0.0000 0.0000 0.0000
# 3 13.2304 44.5326 116.7909 0.0000 0.0000 0.0000
# 4 0.0000 0.0000 0.0000 27.4804 0.0000 0.0000
# 5 0.0000 0.0000 0.0000 0.0000 14.9411 0.0000
# 6 0.0000 0.0000 0.0000 0.0000 0.0000 1.7089
#
#
#
# Elastic Compliance Matrix: (Units=1/GPa)
#
#
# Indices 1 2 3 4 5 6 
#
# 1 0.013787 -0.001870 -0.000849 0.000000 0.000000 0.000000
# 2 -0.001870 0.010384 -0.003748 0.000000 0.000000 0.000000
# 3 -0.000849 -0.003748 0.010087 0.000000 0.000000 0.000000
# 4 0.000000 0.000000 0.000000 0.036390 0.000000 0.000000
# 5 0.000000 0.000000 0.000000 0.000000 0.066929 0.000000
# 6 0.000000 0.000000 0.000000 0.000000 0.000000 0.585169
#
#
# Mechanical properties :
#
#
# Convention : Reuss Voigt Hill
#
# Bulk Modulus (GPa) = 46.89216 51.19177 49.04196
# Shear Modulus (GPa) = 6.73140 24.30162 15.51651
#
# Velocity S-wave (km/s) = 1.88202 3.57593 2.85738
# Velocity P-wave (km/s) = 5.42188 6.63221 6.05735
#
# Compressibility (1/GPa) = 0.02132553
#
# Stress axis : x y z
#
# Youngs Moduli (GPa) = 72.53225 96.30075 99.13311
#
# Poissons Ratio (x) = 0.18009 0.08414
# Poissons Ratio (y) = 0.13564 0.37152
# Poissons Ratio (z) = 0.06156 0.36090
#
# Static dielectric constant tensor:
#      x y z
#    x 1.643510 0.000000 0.000000 
#    y 0.000000 1.705320 0.000000 
#    z 0.000000 0.000000 1.647110 
# 
# From -- ./inp_files/11585.got.cif
#   From: 2010.05.17/outbox.cif.g08.bks.cpg/sg67_6_cif.got.tgz:11585.got - 2010.06.03 18:28:57.
