data_PCOD9500191
_publ_section_title
;
Structure prediction by ZEFSAII (Michael W. Deem and Ramdas Pophale) SiO2 
 PCOD9500191
Probable space group: C M M A
;
_chemical_formula_sum "Si O2"
_cell_formula_units_Z 96
_cell_length_a 14.779198
_cell_length_b 8.679489
_cell_length_c 33.616584
_cell_angle_alpha 90.000000
_cell_angle_beta 90.000000
_cell_angle_gamma 90.000000
_cell_volume 4312.197113
_symmetry_space_group_name_H-M "C M M A"
_symmetry_group_IT_number 67
_symmetry_cell_setting 'orthorhombic'
loop_
_space_group_symop_operation_xyz
x,y,z
-x,1/2-y,z
x,-y,-z
-x,1/2+y,-z
-x,-y,-z
x,1/2+y,-z
-x,y,z
x,1/2-y,z
1/2+x,1/2+y,z
1/2-x,-y,z
1/2+x,1/2-y,-z
1/2-x,y,-z
1/2-x,1/2-y,-z
1/2+x,y,-z
1/2-x,1/2+y,z
1/2+x,-y,z
loop_
_atom_site_type_symbol
_atom_site_label
_atom_site_fract_x
_atom_site_fract_y
_atom_site_fract_z
Si Si1 0.110517 0.928725 0.126775
Si Si2 0.892834 0.579247 0.792308
Si Si3 0.146731 0.064985 0.458982
Si Si4 0.890508 0.067999 0.958732
Si Si5 0.148468 0.063466 0.295436
Si Si6 0.146661 0.565236 0.376998
O O1 0.135447 0.750000 0.126769
O O2 0.139806 0.998356 0.084139
O O3 0.000000 0.935189 0.126741
O O4 0.143013 0.998950 0.168178
O O5 0.851936 0.750000 0.790113
O O6 0.884748 0.511194 0.748088
O O7 0.000000 0.591977 0.798758
O O8 0.147566 0.250000 0.459263
O O9 0.106241 0.000000 0.500000
O O10 0.250000 0.000000 0.458872
O O11 0.106182 0.001946 0.417770
O O12 0.872510 0.250000 0.958754
O O13 0.000000 0.049155 0.959241
O O14 0.855635 0.000000 0.000000
O O15 0.143221 0.250000 0.297861
O O16 0.250000 0.000000 0.295866
O O17 0.105452 0.994059 0.335469
O O18 0.148017 0.750000 0.378131
O O19 0.250000 0.500000 0.376664
#
# Coordination Sequence:
#
# PCOD9500191 Si02
#       6
#    16  16  16  16  16  16
#     4   8  14  24  37  54  78 107 138 172 210 251
#     4   9  18  31  46  64  86 113 145 180 217 256
#     4  10  16  23  34  51  76 106 139 172 209 252
#     4   8  13  20  30  47  72 102 134 166 201 243
#     4  10  19  31  46  64  87 114 145 180 217 257
#     4  10  17  26  39  56  79 108 141 174 212 255
#
# _framework density 22.262432
#
# number of rings (size 3 to 8) (size 9 to 14) (size 15 to 20)
#    0.000    2.833    0.000    7.000    0.000    2.000 
#    0.000    3.333    0.000    0.000    0.000    0.000 
#    0.000    1.333    0.000    9.167    0.000   19.167 
#
# Total GULP energy -267474.535327 kJ/mol
# GULP energy per Si atom -5572.386153 kJ/mol
# Density = 2.221176 g / cm^3
# Si number density = 22.262432 Si / 1000 Ang^3
#
#
#
# Elastic Constant Matrix: (Units=GPa)
#
#
# Indices 1 2 3 4 5 6 
#
# 1 52.5773 9.0671 13.6794 0.0000 0.0000 0.0000
# 2 9.0671 114.2746 97.0262 0.0000 0.0000 0.0000
# 3 13.6794 97.0262 313.3930 0.0000 0.0000 0.0000
# 4 0.0000 0.0000 0.0000 44.1807 0.0000 0.0000
# 5 0.0000 0.0000 0.0000 0.0000 4.6403 0.0000
# 6 0.0000 0.0000 0.0000 0.0000 0.0000 -6.2761
#
#
#
# Elastic Compliance Matrix: (Units=1/GPa)
#
#
# Indices 1 2 3 4 5 6 
#
# 1 0.019341 -0.001109 -0.000501 0.000000 0.000000 0.000000
# 2 -0.001109 0.011935 -0.003647 0.000000 0.000000 0.000000
# 3 -0.000501 -0.003647 0.004342 0.000000 0.000000 0.000000
# 4 0.000000 0.000000 0.000000 0.022634 0.000000 0.000000
# 5 0.000000 0.000000 0.000000 0.000000 0.215503 0.000000
# 6 0.000000 0.000000 0.000000 0.000000 0.000000 -0.159334
#
#
# Mechanical properties :
#
#
# Convention : Reuss Voigt Hill
#
# Bulk Modulus (GPa) = 39.83374 79.97670 59.90522
# Shear Modulus (GPa) = 37.50832 32.54044 35.02438
#
# Velocity S-wave (km/s) = 4.10912 3.82733 3.97072
# Velocity P-wave (km/s) = 6.35962 7.45210 6.92743
#
# Compressibility (1/GPa) = 0.02510435
#
# Stress axis : x y z
#
# Youngs Moduli (GPa) = 51.70298 83.78617 230.32194
#
# Poissons Ratio (x) = 0.09296 0.11533
# Poissons Ratio (y) = 0.05736 0.83991
# Poissons Ratio (z) = 0.02589 0.30554
#
# Static dielectric constant tensor:
#      x y z
#    x 1.996010 0.000000 0.000000 
#    y 0.000000 1.772740 0.000000 
#    z 0.000000 0.000000 1.927310 
# 
# From -- ./inp_files/44795.got.cif
#   From: 2010.05.17/outbox.cif.g08.bks.cpg/sg67_23_cif.got.tgz:44795.got - 2010.06.03 18:28:57.
