data_PCOD9500239
_publ_section_title
;
Structure prediction by ZEFSAII (Michael W. Deem and Ramdas Pophale) SiO2 
 PCOD9500239
Probable space group: C M M A
;
_chemical_formula_sum "Si O2"
_cell_formula_units_Z 76
_cell_length_a 9.812738
_cell_length_b 24.677075
_cell_length_c 16.661013
_cell_angle_alpha 90.000000
_cell_angle_beta 90.000000
_cell_angle_gamma 90.000000
_cell_volume 4034.458826
_symmetry_space_group_name_H-M "C M M A"
_symmetry_group_IT_number 67
_symmetry_cell_setting 'orthorhombic'
loop_
_space_group_symop_operation_xyz
x,y,z
-x,1/2-y,z
x,-y,-z
-x,1/2+y,-z
-x,-y,-z
x,1/2+y,-z
-x,y,z
x,1/2-y,z
1/2+x,1/2+y,z
1/2-x,-y,z
1/2+x,1/2-y,-z
1/2-x,y,-z
1/2-x,1/2-y,-z
1/2+x,y,-z
1/2-x,1/2+y,z
1/2+x,-y,z
loop_
_atom_site_type_symbol
_atom_site_label
_atom_site_fract_x
_atom_site_fract_y
_atom_site_fract_z
Si Si1 0.161095 0.948442 0.244617
Si Si2 0.660762 0.088209 0.427557
Si Si3 0.652781 0.312821 0.615064
Si Si4 0.254577 0.830281 0.210995
Si Si5 0.000000 0.250000 0.766333
Si Si6 0.154383 0.250000 0.076711
O O1 0.176435 0.940231 0.341215
O O2 0.218176 0.893372 0.205226
O O3 0.000000 0.954754 0.228234
O O4 0.250000 0.000000 0.220335
O O5 0.500000 0.089627 0.445618
O O6 0.750000 0.063946 0.500000
O O7 0.728313 0.147691 0.414844
O O8 0.500000 0.326414 0.585077
O O9 0.680589 0.250000 0.596732
O O10 0.652386 0.320571 0.711146
O O11 0.118156 0.797011 0.230997
O O12 0.316615 0.802070 0.132751
O O13 0.000000 0.250000 0.048872
O O14 0.250000 0.250000 0.000000
#
# Coordination Sequence:
#
# PCOD9500239 Si02
#       6
#    16  16  16  16   4   8
#     4  10  22  38  59  87 114 156 204 248 299 354
#     4  10  22  37  53  74 106 145 196 245 303 358
#     4  10  19  31  52  77 107 145 189 241 298 354
#     4  10  20  35  60  85 123 155 199 241 296 346
#     4  10  16  30  62  86 112 150 190 240 298 336
#     4  11  24  37  61  97 131 161 194 236 304 355
#
# _framework density 18.837719
#
# number of rings (size 3 to 8) (size 9 to 14) (size 15 to 20)
#    0.000    1.895    3.158    1.263    4.421    6.316 
#    0.000    2.105    0.000    0.632    0.000    2.947 
#    0.000    0.000    0.000    0.000    0.000    0.000 
#
# Total GULP energy -211584.740061 kJ/mol
# GULP energy per Si atom -5568.019475 kJ/mol
# Density = 1.879484 g / cm^3
# Si number density = 18.837719 Si / 1000 Ang^3
#
#
#
# Elastic Constant Matrix: (Units=GPa)
#
#
# Indices 1 2 3 4 5 6 
#
# 1 143.3488 54.8447 22.1136 0.0000 0.0000 0.0000
# 2 54.8447 154.4575 15.0100 0.0000 0.0000 0.0000
# 3 22.1136 15.0100 76.7849 0.0000 0.0000 0.0000
# 4 0.0000 0.0000 0.0000 10.5510 0.0000 0.0000
# 5 0.0000 0.0000 0.0000 0.0000 4.7246 0.0000
# 6 0.0000 0.0000 0.0000 0.0000 0.0000 10.0762
#
#
#
# Elastic Compliance Matrix: (Units=1/GPa)
#
#
# Indices 1 2 3 4 5 6 
#
# 1 0.008324 -0.002775 -0.001855 0.000000 0.000000 0.000000
# 2 -0.002775 0.007525 -0.000672 0.000000 0.000000 0.000000
# 3 -0.001855 -0.000672 0.013689 0.000000 0.000000 0.000000
# 4 0.000000 0.000000 0.000000 0.094778 0.000000 0.000000
# 5 0.000000 0.000000 0.000000 0.000000 0.211657 0.000000
# 6 0.000000 0.000000 0.000000 0.000000 0.000000 0.099244
#
#
# Mechanical properties :
#
#
# Convention : Reuss Voigt Hill
#
# Bulk Modulus (GPa) = 52.81451 62.05863 57.43657
# Shear Modulus (GPa) = 11.05871 23.91188 17.48530
#
# Velocity S-wave (km/s) = 2.42554 3.56668 3.04995
# Velocity P-wave (km/s) = 5.99515 7.06943 6.55434
#
# Compressibility (1/GPa) = 0.01893419
#
# Stress axis : x y z
#
# Youngs Moduli (GPa) = 120.13484 132.88948 73.05219
#
# Poissons Ratio (x) = 0.36883 0.13549
# Poissons Ratio (y) = 0.33343 0.04907
# Poissons Ratio (z) = 0.22282 0.08926
#
# Static dielectric constant tensor:
#      x y z
#    x 1.635370 0.000000 0.000000 
#    y 0.000000 1.666950 0.000000 
#    z 0.000000 0.000000 1.671350 
# 
# From -- ./inp_files/32186.got.cif
#   From: 2010.05.17/outbox.cif.g08.bks.cpg/sg67_17_cif.got.tgz:32186.got - 2010.06.03 18:28:57.
