data_PCOD9500540
_publ_section_title
;
Structure prediction by ZEFSAII (Michael W. Deem and Ramdas Pophale) SiO2 
 PCOD9500540
Probable space group: C M M A
;
_chemical_formula_sum "Si O2"
_cell_formula_units_Z 80
_cell_length_a 19.944997
_cell_length_b 13.682637
_cell_length_c 13.311437
_cell_angle_alpha 90.000000
_cell_angle_beta 90.000000
_cell_angle_gamma 90.000000
_cell_volume 3632.693206
_symmetry_space_group_name_H-M "C M M A"
_symmetry_group_IT_number 67
_symmetry_cell_setting 'orthorhombic'
loop_
_space_group_symop_operation_xyz
x,y,z
-x,1/2-y,z
x,-y,-z
-x,1/2+y,-z
-x,-y,-z
x,1/2+y,-z
-x,y,z
x,1/2-y,z
1/2+x,1/2+y,z
1/2-x,-y,z
1/2+x,1/2-y,-z
1/2-x,y,-z
1/2-x,1/2-y,-z
1/2+x,y,-z
1/2-x,1/2+y,z
1/2+x,-y,z
loop_
_atom_site_type_symbol
_atom_site_label
_atom_site_fract_x
_atom_site_fract_y
_atom_site_fract_z
Si Si1 0.396079 0.359126 0.412523
Si Si2 0.895799 0.071666 0.365633
Si Si3 0.071554 0.864573 0.851478
Si Si4 0.717480 0.868174 0.103990
Si Si5 0.751742 0.862736 0.674281
O O1 0.418318 0.250000 0.381678
O O2 0.420192 0.459435 0.361398
O O3 0.412318 0.377206 0.529331
O O4 0.315929 0.362233 0.389808
O O5 0.922245 0.127018 0.268861
O O6 0.814271 0.073734 0.362276
O O7 0.070909 0.750000 0.878688
O O8 0.141692 0.907903 0.888958
O O9 0.000000 0.907694 0.883618
O O10 0.713056 0.750000 0.101914
O O11 0.757580 0.888567 0.207508
O O12 0.750000 0.897565 0.000000
O O13 0.776764 0.750000 0.671378
#
# Coordination Sequence:
#
# PCOD9500540 Si02
#       5
#    16  16  16  16  16
#     4  10  19  29  43  67  98 132 171 213 261 316
#     4  10  18  29  46  67  97 135 171 212 262 312
#     4   9  17  30  50  76 104 135 172 213 259 315
#     4   8  14  26  46  74 105 132 163 211 268 319
#     4   9  16  26  43  68  98 130 165 211 266 321
#
# _framework density 22.022228999999999
#
# number of rings (size 3 to 8) (size 9 to 14) (size 15 to 20)
#    0.000    2.800    0.000    4.200    0.000    3.200 
#    0.000    2.000    0.000   11.400    0.000    4.200 
#    0.000   12.800    0.000    0.000    0.000    0.000 
#
# Total GULP energy -223052.541592 kJ/mol
# GULP energy per Si atom -5576.313540 kJ/mol
# Density = 2.197211 g / cm^3
# Si number density = 22.022229 Si / 1000 Ang^3
#
#
#
# Elastic Constant Matrix: (Units=GPa)
#
#
# Indices 1 2 3 4 5 6 
#
# 1 108.7653 0.4568 30.9893 0.0000 0.0000 0.0000
# 2 0.4568 116.0193 -1.5823 0.0000 0.0000 0.0000
# 3 30.9893 -1.5823 72.7618 0.0000 0.0000 0.0000
# 4 0.0000 0.0000 0.0000 -9.9825 0.0000 0.0000
# 5 0.0000 0.0000 0.0000 0.0000 -13.6956 0.0000
# 6 0.0000 0.0000 0.0000 0.0000 0.0000 -8.3986
#
#
#
# Elastic Compliance Matrix: (Units=1/GPa)
#
#
# Indices 1 2 3 4 5 6 
#
# 1 0.010465 -0.000102 -0.004459 0.000000 0.000000 0.000000
# 2 -0.000102 0.008623 0.000231 0.000000 0.000000 0.000000
# 3 -0.004459 0.000231 0.015648 0.000000 0.000000 0.000000
# 4 0.000000 0.000000 0.000000 -0.100175 0.000000 0.000000
# 5 0.000000 0.000000 0.000000 0.000000 -0.073016 0.000000
# 6 0.000000 0.000000 0.000000 0.000000 0.000000 -0.119068
#
#
# Mechanical properties :
#
#
# Convention : Reuss Voigt Hill
#
# Bulk Modulus (GPa) = 38.35106 39.69710 39.02408
# Shear Modulus (GPa) = -20.81848 11.43018 -4.69415
#
# Velocity S-wave (km/s) = -3.07797 2.28069 -1.46157
# Velocity P-wave (km/s) = 2.19559 5.00005 3.86142
#
# Compressibility (1/GPa) = 0.02607490
#
# Stress axis : x y z
#
# Youngs Moduli (GPa) = 95.55596 115.97156 63.90708
#
# Poissons Ratio (x) = 0.01183 0.28498
# Poissons Ratio (y) = 0.00975 -0.01476
# Poissons Ratio (z) = 0.42611 -0.02679
#
# Static dielectric constant tensor:
#      x y z
#    x 1.899870 0.000000 0.000000 
#    y 0.000000 1.879710 0.000000 
#    z 0.000000 0.000000 1.773190 
# 
# From -- ./inp_files/21621.got.cif
#   From: 2010.05.17/outbox.cif.g08.bks.cpg/sg67_11_cif.got.tgz:21621.got - 2010.06.03 18:28:57.
