data_PCOD9500122
_publ_section_title
;
Structure prediction by ZEFSAII (Michael W. Deem and Ramdas Pophale) SiO2 
 PCOD9500122
Probable space group: C C C M
;
_chemical_formula_sum "Si O2"
_cell_formula_units_Z 56
_cell_length_a 12.000000
_cell_length_b 15.000000
_cell_length_c 30.000000
_cell_angle_alpha 90.000000
_cell_angle_beta 90.000000
_cell_angle_gamma 90.000000
_cell_volume 5400.000000
_symmetry_space_group_name_H-M "C C C M"
_symmetry_group_IT_number 66
_symmetry_cell_setting 'orthorhombic'
loop_
_space_group_symop_operation_xyz
x,y,z
-x,-y,z
x,-y,1/2-z
-x,y,1/2-z
-x,-y,-z
x,y,-z
-x,y,1/2+z
x,-y,1/2+z
1/2+x,1/2+y,z
1/2-x,1/2-y,z
1/2+x,1/2-y,1/2-z
1/2-x,1/2+y,1/2-z
1/2-x,1/2-y,-z
1/2+x,1/2+y,-z
1/2-x,1/2+y,1/2+z
1/2+x,1/2-y,1/2+z
loop_
_atom_site_type_symbol
_atom_site_label
_atom_site_fract_x
_atom_site_fract_y
_atom_site_fract_z
Si Si1 0.284685 0.901657 0.553087
Si Si2 0.110585 0.556675 0.109757
Si Si3 0.494209 0.791937 0.948577
Si Si4 0.492347 0.663918 0.317009
Si Si5 0.843659 0.681860 0.315523
Si Si6 0.532921 0.602624 0.917746
Si Si7 0.313607 0.604604 0.249068
O O1 0.284168 0.916492 0.500000
O O2 0.378406 0.825469 0.561500
O O3 0.161156 0.881367 0.569178
O O4 0.318152 0.990933 0.579381
O O5 0.159978 0.592689 0.155535
O O6 0.000000 0.500000 0.119411
O O7 0.080345 0.645661 0.082428
O O8 0.473770 0.687068 0.941367
O O9 0.474321 0.814592 0.000000
O O10 0.538422 0.766266 0.317560
O O11 0.485928 0.621788 0.365647
O O12 0.375588 0.645341 0.292163
O O13 0.590677 0.617360 0.288695
O O14 0.750000 0.750000 0.334029
O O15 0.796935 0.656402 0.266791
O O16 0.500000 0.500000 0.928729
O O17 0.290605 0.500000 0.250000
#
# Coordination Sequence:
#
# PCOD9500122 Si02
#       7
#    16  16  16  16  16  16  16
#     4  10  23  40  62  92 127 167 218 261 309 373
#     4  10  21  40  65  94 123 164 214 263 317 371
#     4  10  21  42  64  89 128 173 209 259 320 372
#     4  10  21  41  62  92 125 162 207 247 313 380
#     4  10  22  40  65  91 127 164 202 256 318 376
#     4  12  24  37  63  95 128 167 209 264 306 371
#     4  10  21  40  67  91 116 162 205 252 310 377
#
# _framework density 10.370369999999999
#
# number of rings (size 3 to 8) (size 9 to 14) (size 15 to 20)
#    0.000    1.714    1.429    3.000    6.000    4.000 
#    0.000   14.286    0.000    2.571    0.000    0.000 
#    0.000    0.000    0.000    0.000    0.000    0.000 
#
# Total GULP energy -312532.958993 kJ/mol
# GULP energy per Si atom -5580.945696 kJ/mol
# Density = 1.034677 g / cm^3
# Si number density = 10.370370 Si / 1000 Ang^3
#
#
#
# Elastic Constant Matrix: (Units=GPa)
#
#
# Indices 1 2 3 4 5 6 
#
# 1 13.0265 15.7265 4.5602 0.0000 0.0000 0.0000
# 2 15.7265 114.8074 14.7668 0.0000 0.0000 0.0000
# 3 4.5602 14.7668 45.9032 0.0000 0.0000 0.0000
# 4 0.0000 0.0000 0.0000 51.0614 0.0000 0.0000
# 5 0.0000 0.0000 0.0000 0.0000 24.7525 0.0000
# 6 0.0000 0.0000 0.0000 0.0000 0.0000 8.6848
#
#
#
# Elastic Compliance Matrix: (Units=1/GPa)
#
#
# Indices 1 2 3 4 5 6 
#
# 1 0.093232 -0.012080 -0.005376 0.000000 0.000000 0.000000
# 2 -0.012080 0.010651 -0.002226 0.000000 0.000000 0.000000
# 3 -0.005376 -0.002226 0.023035 0.000000 0.000000 0.000000
# 4 0.000000 0.000000 0.000000 0.019584 0.000000 0.000000
# 5 0.000000 0.000000 0.000000 0.000000 0.040400 0.000000
# 6 0.000000 0.000000 0.000000 0.000000 0.000000 0.115144
#
#
# Mechanical properties :
#
#
# Convention : Reuss Voigt Hill
#
# Bulk Modulus (GPa) = 11.42149 27.09379 19.25764
# Shear Modulus (GPa) = 13.49180 26.14532 19.81856
#
# Velocity S-wave (km/s) = 2.55325 3.55431 3.09453
# Velocity P-wave (km/s) = 3.76973 5.47135 4.69822
#
# Compressibility (1/GPa) = 0.08755425
#
# Stress axis : x y z
#
# Youngs Moduli (GPa) = 10.72594 93.88542 43.41164
#
# Poissons Ratio (x) = 1.13409 0.23339
# Poissons Ratio (y) = 0.12956 0.09665
# Poissons Ratio (z) = 0.05766 0.20903
#
# Static dielectric constant tensor:
#      x y z
#    x 1.761940 0.000000 0.000000 
#    y 0.000000 1.756910 0.000000 
#    z 0.000000 0.000000 1.737890 
# 
# From -- ./inp_files/69080.got.cif
#   From: 2010.05.17/outbox.ucp.g08.bks.cvg/sg66_35_cif.got.tgz:69080.got - 2010.06.11 16:44:13.
