data_PCOD9500527
_publ_section_title
;
Structure prediction by ZEFSAII (Michael W. Deem and Ramdas Pophale) SiO2 
 PCOD9500527
Probable space group: C M M A
;
_chemical_formula_sum "Si O2"
_cell_formula_units_Z 68
_cell_length_a 20.182367
_cell_length_b 18.206028
_cell_length_c 8.871308
_cell_angle_alpha 90.000000
_cell_angle_beta 90.000000
_cell_angle_gamma 90.000000
_cell_volume 3259.679965
_symmetry_space_group_name_H-M "C M M A"
_symmetry_group_IT_number 67
_symmetry_cell_setting 'orthorhombic'
loop_
_space_group_symop_operation_xyz
x,y,z
-x,1/2-y,z
x,-y,-z
-x,1/2+y,-z
-x,-y,-z
x,1/2+y,-z
-x,y,z
x,1/2-y,z
1/2+x,1/2+y,z
1/2-x,-y,z
1/2+x,1/2-y,-z
1/2-x,y,-z
1/2-x,1/2-y,-z
1/2+x,y,-z
1/2-x,1/2+y,z
1/2+x,-y,z
loop_
_atom_site_type_symbol
_atom_site_label
_atom_site_fract_x
_atom_site_fract_y
_atom_site_fract_z
Si Si1 0.000000 0.337118 0.124239
Si Si2 0.876953 0.661239 0.660532
Si Si3 0.894964 0.615483 0.329750
Si Si4 0.500000 0.750000 0.704327
Si Si5 0.261427 0.661940 0.827547
Si Si6 0.000000 0.554473 0.139823
O O1 0.935094 0.355907 0.220961
O O2 0.000000 0.250000 0.101926
O O3 0.000000 0.370996 0.959711
O O4 0.882631 0.750000 0.626787
O O5 0.885294 0.614629 0.509089
O O6 0.805502 0.649191 0.734005
O O7 0.824786 0.625543 0.248872
O O8 0.936184 0.551520 0.247270
O O9 0.941972 0.686111 0.305783
O O10 0.273355 0.750000 0.828849
O O11 0.250000 0.638558 0.000000
O O12 0.000000 0.500000 0.000000
#
# Coordination Sequence:
#
# PCOD9500527 Si02
#       6
#     8  16  16   4  16   8
#     4  10  21  35  60  88 117 149 192 248 308 374
#     4  10  19  32  56  93 126 153 197 254 311 373
#     4  11  20  34  57  80 119 161 200 248 305 378
#     4  10  18  28  50  82 108 150 208 232 304 360
#     4  10  19  31  51  87 129 158 189 245 313 367
#     4  11  26  41  57  84 120 163 210 259 317 368
#
# _framework density 20.860942999999999
#
# number of rings (size 3 to 8) (size 9 to 14) (size 15 to 20)
#    0.000    1.647    2.353    3.529    4.941    3.765 
#    0.000    2.353    0.000    6.353    0.000    6.588 
#    0.000    0.000    0.000    0.000    0.000    0.000 
#
# Total GULP energy -189430.226925 kJ/mol
# GULP energy per Si atom -5571.477262 kJ/mol
# Density = 2.081346 g / cm^3
# Si number density = 20.860943 Si / 1000 Ang^3
#
#
#
# Elastic Constant Matrix: (Units=GPa)
#
#
# Indices 1 2 3 4 5 6 
#
# 1 152.6455 6.8531 54.6890 0.0000 0.0000 0.0000
# 2 6.8531 9.0201 17.2657 0.0000 0.0000 0.0000
# 3 54.6890 17.2657 168.7291 0.0000 0.0000 0.0000
# 4 0.0000 0.0000 0.0000 29.2824 0.0000 0.0000
# 5 0.0000 0.0000 0.0000 0.0000 30.8997 0.0000
# 6 0.0000 0.0000 0.0000 0.0000 0.0000 1.7606
#
#
#
# Elastic Compliance Matrix: (Units=1/GPa)
#
#
# Indices 1 2 3 4 5 6 
#
# 1 0.007424 -0.001286 -0.002275 0.000000 0.000000 0.000000
# 2 -0.001286 0.138091 -0.013714 0.000000 0.000000 0.000000
# 3 -0.002275 -0.013714 0.008067 0.000000 0.000000 0.000000
# 4 0.000000 0.000000 0.000000 0.034150 0.000000 0.000000
# 5 0.000000 0.000000 0.000000 0.000000 0.032363 0.000000
# 6 0.000000 0.000000 0.000000 0.000000 0.000000 0.567989
#
#
# Mechanical properties :
#
#
# Convention : Reuss Voigt Hill
#
# Bulk Modulus (GPa) = 8.40104 54.22336 31.31220
# Shear Modulus (GPa) = 5.79837 29.16099 17.47968
#
# Velocity S-wave (km/s) = 1.66900 3.74287 2.89782
# Velocity P-wave (km/s) = 2.78388 6.68790 5.12240
#
# Compressibility (1/GPa) = 0.11903284
#
# Stress axis : x y z
#
# Youngs Moduli (GPa) = 134.70173 7.24160 123.95882
#
# Poissons Ratio (x) = 0.00932 0.28196
# Poissons Ratio (y) = 0.17328 1.69992
# Poissons Ratio (z) = 0.30639 0.09931
#
# Static dielectric constant tensor:
#      x y z
#    x 1.699850 0.000000 0.000000 
#    y 0.000000 1.052160 0.000000 
#    z 0.000000 0.000000 1.615490 
# 
# From -- ./inp_files/9524.got.cif
#   From: 2010.05.17/outbox.cif.g08.bks.cpg/sg67_5_cif.got.tgz:9524.got - 2010.06.03 18:28:57.
