data_PCOD9500560
_publ_section_title
;
Structure prediction by ZEFSAII (Michael W. Deem and Ramdas Pophale) SiO2 
 PCOD9500560
Probable space group: C M M A
;
_chemical_formula_sum "Si O2"
_cell_formula_units_Z 96
_cell_length_a 19.240637
_cell_length_b 22.283863
_cell_length_c 12.696006
_cell_angle_alpha 90.000000
_cell_angle_beta 90.000000
_cell_angle_gamma 90.000000
_cell_volume 5443.485180
_symmetry_space_group_name_H-M "C M M A"
_symmetry_group_IT_number 67
_symmetry_cell_setting 'orthorhombic'
loop_
_space_group_symop_operation_xyz
x,y,z
-x,1/2-y,z
x,-y,-z
-x,1/2+y,-z
-x,-y,-z
x,1/2+y,-z
-x,y,z
x,1/2-y,z
1/2+x,1/2+y,z
1/2-x,-y,z
1/2+x,1/2-y,-z
1/2-x,y,-z
1/2-x,1/2-y,-z
1/2+x,y,-z
1/2-x,1/2+y,z
1/2+x,-y,z
loop_
_atom_site_type_symbol
_atom_site_label
_atom_site_fract_x
_atom_site_fract_y
_atom_site_fract_z
Si Si1 0.076555 0.930934 0.787072
Si Si2 0.736629 0.314577 0.241079
Si Si3 0.889209 0.683583 0.655380
Si Si4 0.175186 0.638905 0.444277
Si Si5 0.577148 0.033484 0.388062
Si Si6 0.272141 0.934047 0.121582
O O1 0.075058 0.870836 0.715954
O O2 0.144544 0.928476 0.860678
O O3 0.000000 0.937493 0.837988
O O4 0.086523 0.985698 0.705196
O O5 0.724140 0.250000 0.186249
O O6 0.814119 0.313232 0.288606
O O7 0.688756 0.319394 0.344180
O O8 0.735450 0.376545 0.176073
O O9 0.920424 0.750000 0.662785
O O10 0.873831 0.666297 0.534526
O O11 0.250000 0.626478 0.500000
O O12 0.138885 0.580319 0.397633
O O13 0.500000 0.061467 0.374475
O O14 0.576390 0.000000 0.500000
O O15 0.250000 0.000000 0.164305
O O16 0.250000 0.932831 0.000000
#
# Coordination Sequence:
#
# PCOD9500560 Si02
#       6
#    16  16  16  16  16  16
#     4  10  20  35  53  76 106 140 174 213 263 321
#     4   9  18  32  51  76 105 139 177 221 274 325
#     4   9  17  29  45  71 107 141 173 212 254 306
#     4  10  18  29  48  75 106 142 184 220 256 313
#     4  10  19  31  46  71 110 147 179 214 261 317
#     4  10  21  38  58  81 106 133 177 234 280 321
#
# _framework density 17.635760999999999
#
# number of rings (size 3 to 8) (size 9 to 14) (size 15 to 20)
#    0.000    2.333    1.667    1.500    0.000    3.000 
#    0.000    1.667    0.000    2.500    0.000    0.000 
#    0.000    0.000    0.000    0.000    0.000    0.000 
#
# Total GULP energy -267256.934281 kJ/mol
# GULP energy per Si atom -5567.852798 kJ/mol
# Density = 1.759562 g / cm^3
# Si number density = 17.635761 Si / 1000 Ang^3
#
#
#
# Elastic Constant Matrix: (Units=GPa)
#
#
# Indices 1 2 3 4 5 6 
#
# 1 81.0988 35.1656 33.1372 0.0000 0.0000 0.0000
# 2 35.1656 140.3251 31.7943 0.0000 0.0000 0.0000
# 3 33.1372 31.7943 60.9195 0.0000 0.0000 0.0000
# 4 0.0000 0.0000 0.0000 15.0702 0.0000 0.0000
# 5 0.0000 0.0000 0.0000 0.0000 16.4787 0.0000
# 6 0.0000 0.0000 0.0000 0.0000 0.0000 19.9929
#
#
#
# Elastic Compliance Matrix: (Units=1/GPa)
#
#
# Indices 1 2 3 4 5 6 
#
# 1 0.016531 -0.002388 -0.007746 0.000000 0.000000 0.000000
# 2 -0.002388 0.008427 -0.003099 0.000000 0.000000 0.000000
# 3 -0.007746 -0.003099 0.022246 0.000000 0.000000 0.000000
# 4 0.000000 0.000000 0.000000 0.066356 0.000000 0.000000
# 5 0.000000 0.000000 0.000000 0.000000 0.060684 0.000000
# 6 0.000000 0.000000 0.000000 0.000000 0.000000 0.050018
#
#
# Mechanical properties :
#
#
# Convention : Reuss Voigt Hill
#
# Bulk Modulus (GPa) = 48.22018 53.61531 50.91775
# Shear Modulus (GPa) = 19.40692 22.45813 20.93253
#
# Velocity S-wave (km/s) = 3.32087 3.57240 3.44893
# Velocity P-wave (km/s) = 6.48890 6.89083 6.69289
#
# Compressibility (1/GPa) = 0.02073820
#
# Stress axis : x y z
#
# Youngs Moduli (GPa) = 60.49258 118.66792 44.95186
#
# Poissons Ratio (x) = 0.28334 0.34819
# Poissons Ratio (y) = 0.14443 0.13932
# Poissons Ratio (z) = 0.46857 0.36779
#
# Static dielectric constant tensor:
#      x y z
#    x 1.625910 0.000000 0.000000 
#    y 0.000000 1.650370 0.000000 
#    z 0.000000 0.000000 1.582010 
# 
# From -- ./inp_files/19613.got.cif
#   From: 2010.05.17/outbox.cif.g08.bks.cpg/sg67_10_cif.got.tgz:19613.got - 2010.06.03 18:28:57.
