data_PCOD9500308
_publ_section_title
;
Structure prediction by ZEFSAII (Michael W. Deem and Ramdas Pophale) SiO2 
 PCOD9500308
Probable space group: C M M A
;
_chemical_formula_sum "Si O2"
_cell_formula_units_Z 56
_cell_length_a 38.655696
_cell_length_b 8.501406
_cell_length_c 9.424419
_cell_angle_alpha 90.000000
_cell_angle_beta 90.000000
_cell_angle_gamma 90.000000
_cell_volume 3097.125761
_symmetry_space_group_name_H-M "C M M A"
_symmetry_group_IT_number 67
_symmetry_cell_setting 'orthorhombic'
loop_
_space_group_symop_operation_xyz
x,y,z
-x,1/2-y,z
x,-y,-z
-x,1/2+y,-z
-x,-y,-z
x,1/2+y,-z
-x,y,z
x,1/2-y,z
1/2+x,1/2+y,z
1/2-x,-y,z
1/2+x,1/2-y,-z
1/2-x,y,-z
1/2-x,1/2-y,-z
1/2+x,y,-z
1/2-x,1/2+y,z
1/2+x,-y,z
loop_
_atom_site_type_symbol
_atom_site_label
_atom_site_fract_x
_atom_site_fract_y
_atom_site_fract_z
Si Si1 0.000000 0.939796 0.838005
Si Si2 0.714135 0.937299 0.662645
Si Si3 0.575243 0.940234 0.161073
Si Si4 0.641623 0.939041 0.339033
O O1 0.962572 0.990678 0.778953
O O2 0.000000 0.750000 0.837966
O O3 0.000000 0.000000 0.000000
O O4 0.714601 0.750000 0.660188
O O5 0.713830 0.000000 0.500000
O O6 0.750000 0.000000 0.727733
O O7 0.677886 0.998333 0.724050
O O8 0.575727 0.750000 0.158807
O O9 0.608096 0.992780 0.251800
O O10 0.577971 0.000000 0.000000
O O11 0.642955 0.750000 0.341239
O O12 0.638721 0.000000 0.500000
#
# Coordination Sequence:
#
# PCOD9500308 Si02
#       4
#     8  16  16  16
#     4   8  14  28  47  68  90 118 154 194 231 270
#     4  10  17  27  44  66  91 121 154 192 230 272
#     4   9  18  31  50  71  94 122 157 195 234 277
#     4  10  19  31  46  69  97 126 156 192 233 277
#
# _framework density 18.08128
#
# number of rings (size 3 to 8) (size 9 to 14) (size 15 to 20)
#    0.000    2.571    0.000    6.000    0.000    2.286 
#    0.000    0.714    0.000    0.857    0.000    6.000 
#    0.000    0.000    0.000    0.000    0.000    0.000 
#
# Total GULP energy -155924.033932 kJ/mol
# GULP energy per Si atom -5568.715498 kJ/mol
# Density = 1.804013 g / cm^3
# Si number density = 18.081280 Si / 1000 Ang^3
#
#
#
# Elastic Constant Matrix: (Units=GPa)
#
#
# Indices 1 2 3 4 5 6 
#
# 1 248.7989 45.3116 51.4662 0.0000 0.0000 0.0000
# 2 45.3116 69.7396 7.9944 0.0000 0.0000 0.0000
# 3 51.4662 7.9944 25.2843 0.0000 0.0000 0.0000
# 4 0.0000 0.0000 0.0000 13.5745 0.0000 0.0000
# 5 0.0000 0.0000 0.0000 0.0000 -87.3468 0.0000
# 6 0.0000 0.0000 0.0000 0.0000 0.0000 21.9107
#
#
#
# Elastic Compliance Matrix: (Units=1/GPa)
#
#
# Indices 1 2 3 4 5 6 
#
# 1 0.007605 -0.003286 -0.014441 0.000000 0.000000 0.000000
# 2 -0.003286 0.016298 0.001535 0.000000 0.000000 0.000000
# 3 -0.014441 0.001535 0.068459 0.000000 0.000000 0.000000
# 4 0.000000 0.000000 0.000000 0.073667 0.000000 0.000000
# 5 0.000000 0.000000 0.000000 0.000000 -0.011449 0.000000
# 6 0.000000 0.000000 0.000000 0.000000 0.000000 0.045640
#
#
# Mechanical properties :
#
#
# Convention : Reuss Voigt Hill
#
# Bulk Modulus (GPa) = 16.67251 61.48525 39.07888
# Shear Modulus (GPa) = 19.79434 5.56438 12.67936
#
# Velocity S-wave (km/s) = 3.31228 1.75616 2.65097
# Velocity P-wave (km/s) = 4.88561 6.17988 5.57046
#
# Compressibility (1/GPa) = 0.05997898
#
# Stress axis : x y z
#
# Youngs Moduli (GPa) = 131.49312 61.35748 14.60719
#
# Poissons Ratio (x) = 0.20160 0.21094
# Poissons Ratio (y) = 0.43205 -0.02242
# Poissons Ratio (z) = 1.89889 -0.09419
#
# Static dielectric constant tensor:
#      x y z
#    x 1.717790 0.000000 0.000000 
#    y 0.000000 1.607010 0.000000 
#    z 0.000000 0.000000 1.556960 
# 
# From -- ./inp_files/15549.got.cif
#   From: 2010.05.17/outbox.cif.g08.bks.cpg/sg67_8_cif.got.tgz:15549.got - 2010.06.03 18:28:57.
