data_PCOD9500429
_publ_section_title
;
Structure prediction by ZEFSAII (Michael W. Deem and Ramdas Pophale) SiO2 
 PCOD9500429
Probable space group: C M M A
;
_chemical_formula_sum "Si O2"
_cell_formula_units_Z 116
_cell_length_a 25.901138
_cell_length_b 16.738853
_cell_length_c 15.643459
_cell_angle_alpha 90.000000
_cell_angle_beta 90.000000
_cell_angle_gamma 90.000000
_cell_volume 6782.305209
_symmetry_space_group_name_H-M "C M M A"
_symmetry_group_IT_number 67
_symmetry_cell_setting 'orthorhombic'
loop_
_space_group_symop_operation_xyz
x,y,z
-x,1/2-y,z
x,-y,-z
-x,1/2+y,-z
-x,-y,-z
x,1/2+y,-z
-x,y,z
x,1/2-y,z
1/2+x,1/2+y,z
1/2-x,-y,z
1/2+x,1/2-y,-z
1/2-x,y,-z
1/2-x,1/2-y,-z
1/2+x,y,-z
1/2-x,1/2+y,z
1/2+x,-y,z
loop_
_atom_site_type_symbol
_atom_site_label
_atom_site_fract_x
_atom_site_fract_y
_atom_site_fract_z
Si Si1 0.119323 0.845016 0.677948
Si Si2 0.155657 0.506301 0.099514
Si Si3 0.000000 0.750000 0.280031
Si Si4 0.060321 0.846060 0.503071
Si Si5 0.677879 0.341460 0.206372
Si Si6 0.916511 0.110789 0.684152
Si Si7 0.940217 0.956466 0.797893
Si Si8 0.280566 0.923104 0.248816
O O1 0.126364 0.750000 0.684987
O O2 0.094280 0.862775 0.585979
O O3 0.080428 0.877580 0.750391
O O4 0.173137 0.890393 0.693784
O O5 0.162908 0.596974 0.131617
O O6 0.098077 0.477391 0.124244
O O7 0.193443 0.454467 0.160472
O O8 0.166656 0.500000 0.000000
O O9 0.044791 0.679821 0.284317
O O10 0.063016 0.750000 0.484993
O O11 0.078154 0.890849 0.417898
O O12 0.000000 0.863975 0.519396
O O13 0.669049 0.250000 0.183796
O O14 0.640714 0.366327 0.284700
O O15 0.737185 0.357602 0.230209
O O16 0.931714 0.028064 0.729381
O O17 0.000000 0.951315 0.821102
O O18 0.250000 0.000000 0.285017
#
# Coordination Sequence:
#
# PCOD9500429 Si02
#       8
#    16  16   4  16  16  16  16  16
#     4  10  21  35  53  76 108 148 185 216 254 307
#     4   9  20  37  55  76 104 132 166 215 270 318
#     4  12  16  32  56  78 114 138 170 228 276 316
#     4  10  17  30  51  78 109 141 178 219 260 304
#     4  10  19  32  55  80 101 128 170 213 262 321
#     4  11  19  32  54  82 109 138 174 222 273 313
#     4  10  20  34  53  78 107 142 179 214 259 318
#     4   9  19  37  56  74 101 136 172 219 269 314
#
# _framework density 17.103328999999999
#
# number of rings (size 3 to 8) (size 9 to 14) (size 15 to 20)
#    0.000    2.069    2.759    1.655    0.000    4.138 
#    0.000    6.207    0.000    6.621    0.000    0.000 
#    0.000    0.000    0.000    0.000    0.000    0.000 
#
# Total GULP energy -323005.040133 kJ/mol
# GULP energy per Si atom -5569.052416 kJ/mol
# Density = 1.706440 g / cm^3
# Si number density = 17.103329 Si / 1000 Ang^3
#
#
#
# Elastic Constant Matrix: (Units=GPa)
#
#
# Indices 1 2 3 4 5 6 
#
# 1 136.8609 34.9792 43.3711 0.0000 0.0000 0.0000
# 2 34.9792 64.3250 35.8013 0.0000 0.0000 0.0000
# 3 43.3711 35.8013 81.8625 0.0000 0.0000 0.0000
# 4 0.0000 0.0000 0.0000 12.1239 0.0000 0.0000
# 5 0.0000 0.0000 0.0000 0.0000 72.6689 0.0000
# 6 0.0000 0.0000 0.0000 0.0000 0.0000 26.2264
#
#
#
# Elastic Compliance Matrix: (Units=1/GPa)
#
#
# Indices 1 2 3 4 5 6 
#
# 1 0.009207 -0.003029 -0.003553 0.000000 0.000000 0.000000
# 2 -0.003029 0.021544 -0.007817 0.000000 0.000000 0.000000
# 3 -0.003553 -0.007817 0.017517 0.000000 0.000000 0.000000
# 4 0.000000 0.000000 0.000000 0.082482 0.000000 0.000000
# 5 0.000000 0.000000 0.000000 0.000000 0.013761 0.000000
# 6 0.000000 0.000000 0.000000 0.000000 0.000000 0.038130
#
#
# Mechanical properties :
#
#
# Convention : Reuss Voigt Hill
#
# Bulk Modulus (GPa) = 51.36365 56.81685 54.09025
# Shear Modulus (GPa) = 22.94335 33.46362 28.20348
#
# Velocity S-wave (km/s) = 3.66656 4.42810 4.06520
# Velocity P-wave (km/s) = 6.92975 7.70947 7.32999
#
# Compressibility (1/GPa) = 0.01946902
#
# Stress axis : x y z
#
# Youngs Moduli (GPa) = 108.61498 46.41664 57.08805
#
# Poissons Ratio (x) = 0.14060 0.20284
# Poissons Ratio (y) = 0.32899 0.44627
# Poissons Ratio (z) = 0.38592 0.36285
#
# Static dielectric constant tensor:
#      x y z
#    x 1.591980 0.000000 0.000000 
#    y 0.000000 1.593110 0.000000 
#    z 0.000000 0.000000 1.550820 
# 
# From -- ./inp_files/30272.got.cif
#   From: 2010.05.17/outbox.cif.g08.bks.cpg/sg67_16_cif.got.tgz:30272.got - 2010.06.03 18:28:57.
