data_PCOD9500958
_publ_section_title
;
Structure prediction by ZEFSAII (Michael W. Deem and Ramdas Pophale) SiO2 
 PCOD9500958
Probable space group: C M M A
;
_chemical_formula_sum "Si O2"
_cell_formula_units_Z 80
_cell_length_a 21.785522
_cell_length_b 14.982949
_cell_length_c 11.512015
_cell_angle_alpha 90.000000
_cell_angle_beta 90.000000
_cell_angle_gamma 90.000000
_cell_volume 3757.652531
_symmetry_space_group_name_H-M "C M M A"
_symmetry_group_IT_number 67
_symmetry_cell_setting 'orthorhombic'
loop_
_space_group_symop_operation_xyz
x,y,z
-x,1/2-y,z
x,-y,-z
-x,1/2+y,-z
-x,-y,-z
x,1/2+y,-z
-x,y,z
x,1/2-y,z
1/2+x,1/2+y,z
1/2-x,-y,z
1/2+x,1/2-y,-z
1/2-x,y,-z
1/2-x,1/2-y,-z
1/2+x,y,-z
1/2-x,1/2+y,z
1/2+x,-y,z
loop_
_atom_site_type_symbol
_atom_site_label
_atom_site_fract_x
_atom_site_fract_y
_atom_site_fract_z
Si Si1 0.367796 0.526593 0.627789
Si Si2 0.875304 0.894581 0.021940
Si Si3 0.785280 0.849823 0.217409
Si Si4 0.639054 0.150899 0.765876
Si Si5 0.500000 0.563648 0.886278
Si Si6 0.000000 0.050191 0.624844
O O1 0.346130 0.500000 0.500000
O O2 0.317430 0.577501 0.701971
O O3 0.383283 0.432284 0.690189
O O4 0.429970 0.586147 0.620582
O O5 0.816874 0.858675 0.091339
O O6 0.936299 0.883604 0.099863
O O7 0.886809 0.853833 0.896080
O O8 0.865156 0.000000 0.000000
O O9 0.797797 0.750000 0.261496
O O10 0.712360 0.861438 0.216880
O O11 0.627710 0.250000 0.716501
O O12 0.500000 0.517074 0.760578
O O13 0.500000 0.500000 0.000000
O O14 0.000000 0.000000 0.500000
#
# Coordination Sequence:
#
# PCOD9500958 Si02
#       6
#    16  16  16  16   8   8
#     4  11  23  42  66  90 121 163 212 261 314 375
#     4  11  20  36  62  89 124 160 204 251 315 373
#     4  11  23  39  61  90 125 163 206 254 310 374
#     4  11  24  40  60  91 127 163 204 256 313 376
#     4  10  18  34  61  92 125 161 206 262 314 371
#     4  10  20  40  66  92 122 164 208 257 316 379
#
# _framework density 21.289888000000001
#
# number of rings (size 3 to 8) (size 9 to 14) (size 15 to 20)
#    0.000    1.200    4.000    3.000    0.000    4.800 
#    0.000    7.000    0.000    3.600    0.000    0.000 
#    0.000    0.000    0.000    0.000    0.000    0.000 
#
# Total GULP energy -222995.466071 kJ/mol
# GULP energy per Si atom -5574.886652 kJ/mol
# Density = 2.124143 g / cm^3
# Si number density = 21.289888 Si / 1000 Ang^3
#
#
#
# Elastic Constant Matrix: (Units=GPa)
#
#
# Indices 1 2 3 4 5 6 
#
# 1 63.0278 13.7445 -1.8295 0.0000 0.0000 0.0000
# 2 13.7445 86.8450 11.9056 0.0000 0.0000 0.0000
# 3 -1.8295 11.9056 134.0709 0.0000 0.0000 0.0000
# 4 0.0000 0.0000 0.0000 -0.4892 0.0000 0.0000
# 5 0.0000 0.0000 0.0000 0.0000 15.2375 0.0000
# 6 0.0000 0.0000 0.0000 0.0000 0.0000 -5.6562
#
#
#
# Elastic Compliance Matrix: (Units=1/GPa)
#
#
# Indices 1 2 3 4 5 6 
#
# 1 0.016461 -0.002669 0.000462 0.000000 0.000000 0.000000
# 2 -0.002669 0.012089 -0.001110 0.000000 0.000000 0.000000
# 3 0.000462 -0.001110 0.007564 0.000000 0.000000 0.000000
# 4 0.000000 0.000000 0.000000 -2.044178 0.000000 0.000000
# 5 0.000000 0.000000 0.000000 0.000000 0.065627 0.000000
# 6 0.000000 0.000000 0.000000 0.000000 0.000000 -0.176797
#
#
# Mechanical properties :
#
#
# Convention : Reuss Voigt Hill
#
# Bulk Modulus (GPa) = 33.92079 36.84277 35.38178
# Shear Modulus (GPa) = -2.37781 19.15996 8.39108
#
# Velocity S-wave (km/s) = -1.05797 3.00318 1.98744
# Velocity P-wave (km/s) = 3.80460 5.41925 4.68206
#
# Compressibility (1/GPa) = 0.02948044
#
# Stress axis : x y z
#
# Youngs Moduli (GPa) = 60.74837 82.71801 132.21213
#
# Poissons Ratio (x) = 0.22074 -0.06103
# Poissons Ratio (y) = 0.16211 0.14675
# Poissons Ratio (z) = -0.02804 0.09181
#
# Static dielectric constant tensor:
#      x y z
#    x 1.800510 0.000000 0.000000 
#    y 0.000000 1.883600 0.000000 
#    z 0.000000 0.000000 1.766260 
# 
# From -- ./inp_files/18003.got.cif
#   From: 2010.05.17/outbox.cif.g08.bks.cpg/sg67_10_cif.got.tgz:18003.got - 2010.06.03 18:28:57.
