data_PCOD9500706
_publ_section_title
;
Structure prediction by ZEFSAII (Michael W. Deem and Ramdas Pophale) SiO2 
 PCOD9500706
Probable space group: C M M A
;
_chemical_formula_sum "Si O2"
_cell_formula_units_Z 96
_cell_length_a 26.316355
_cell_length_b 17.895170
_cell_length_c 13.233551
_cell_angle_alpha 90.000000
_cell_angle_beta 90.000000
_cell_angle_gamma 90.000000
_cell_volume 6232.150896
_symmetry_space_group_name_H-M "C M M A"
_symmetry_group_IT_number 67
_symmetry_cell_setting 'orthorhombic'
loop_
_space_group_symop_operation_xyz
x,y,z
-x,1/2-y,z
x,-y,-z
-x,1/2+y,-z
-x,-y,-z
x,1/2+y,-z
-x,y,z
x,1/2-y,z
1/2+x,1/2+y,z
1/2-x,-y,z
1/2+x,1/2-y,-z
1/2-x,y,-z
1/2-x,1/2-y,-z
1/2+x,y,-z
1/2-x,1/2+y,z
1/2+x,-y,z
loop_
_atom_site_type_symbol
_atom_site_label
_atom_site_fract_x
_atom_site_fract_y
_atom_site_fract_z
Si Si1 0.559265 0.959814 0.277366
Si Si2 0.558515 0.838005 0.445392
Si Si3 0.711057 0.064897 0.255340
Si Si4 0.222179 0.337624 0.108476
Si Si5 0.371585 0.062920 0.418028
Si Si6 0.140373 0.534025 0.890159
O O1 0.500000 0.976746 0.265540
O O2 0.564341 0.883232 0.340998
O O3 0.589187 0.955080 0.172892
O O4 0.587514 0.021648 0.345885
O O5 0.500000 0.852193 0.479823
O O6 0.565036 0.750000 0.432432
O O7 0.599005 0.872210 0.522887
O O8 0.742092 0.129169 0.197383
O O9 0.675239 0.087920 0.348235
O O10 0.750000 0.000000 0.289759
O O11 0.675490 0.024088 0.172375
O O12 0.211907 0.250000 0.123691
O O13 0.172302 0.389304 0.105411
O O14 0.250000 0.346710 0.000000
O O15 0.355358 0.000000 0.500000
O O16 0.131770 0.500000 0.000000
#
# Coordination Sequence:
#
# PCOD9500706 Si02
#       6
#    16  16  16  16  16  16
#     4   9  18  31  48  71  96 122 157 198 235 277
#     4   9  17  30  49  71  96 128 161 194 235 281
#     4   9  18  30  48  70  96 128 157 195 239 280
#     4  10  19  31  49  71  94 122 158 197 237 282
#     4   9  17  30  48  71  97 127 162 197 232 275
#     4  10  18  31  50  69  93 123 157 194 237 283
#
# _framework density 15.403991
#
# number of rings (size 3 to 8) (size 9 to 14) (size 15 to 20)
#    0.000    2.667    1.667    0.500    0.000    4.000 
#    0.000    0.000    0.000    0.000    0.000    9.333 
#    0.000    0.000    0.000    0.000    0.000    0.000 
#
# Total GULP energy -267453.144751 kJ/mol
# GULP energy per Si atom -5571.940516 kJ/mol
# Density = 1.536893 g / cm^3
# Si number density = 15.403991 Si / 1000 Ang^3
#
#
#
# Elastic Constant Matrix: (Units=GPa)
#
#
# Indices 1 2 3 4 5 6 
#
# 1 88.0386 35.9482 69.4372 0.0000 0.0000 0.0000
# 2 35.9482 73.0476 36.2483 0.0000 0.0000 0.0000
# 3 69.4372 36.2483 90.8542 0.0000 0.0000 0.0000
# 4 0.0000 0.0000 0.0000 10.8866 0.0000 0.0000
# 5 0.0000 0.0000 0.0000 0.0000 30.9958 0.0000
# 6 0.0000 0.0000 0.0000 0.0000 0.0000 16.0916
#
#
#
# Elastic Compliance Matrix: (Units=1/GPa)
#
#
# Indices 1 2 3 4 5 6 
#
# 1 0.029577 -0.004162 -0.020944 0.000000 0.000000 0.000000
# 2 -0.004162 0.017655 -0.003863 0.000000 0.000000 0.000000
# 3 -0.020944 -0.003863 0.028555 0.000000 0.000000 0.000000
# 4 0.000000 0.000000 0.000000 0.091856 0.000000 0.000000
# 5 0.000000 0.000000 0.000000 0.000000 0.032262 0.000000
# 6 0.000000 0.000000 0.000000 0.000000 0.000000 0.062144
#
#
# Mechanical properties :
#
#
# Convention : Reuss Voigt Hill
#
# Bulk Modulus (GPa) = 56.02777 59.46752 57.74764
# Shear Modulus (GPa) = 15.34031 18.94856 17.14444
#
# Velocity S-wave (km/s) = 3.15916 3.51109 3.33976
# Velocity P-wave (km/s) = 7.05395 7.42470 7.24170
#
# Compressibility (1/GPa) = 0.01784829
#
# Stress axis : x y z
#
# Youngs Moduli (GPa) = 33.80953 56.64170 35.02016
#
# Poissons Ratio (x) = 0.23576 0.73348
# Poissons Ratio (y) = 0.14073 0.13527
# Poissons Ratio (z) = 0.70812 0.21878
#
# Static dielectric constant tensor:
#      x y z
#    x 1.508140 0.000000 0.000000 
#    y 0.000000 1.488280 0.000000 
#    z 0.000000 0.000000 1.500930 
# 
# From -- ./inp_files/19647.got.cif
#   From: 2010.05.17/outbox.cif.g08.bks.cpg/sg67_10_cif.got.tgz:19647.got - 2010.06.03 18:28:57.
