data_PCOD9500854
_publ_section_title
;
Structure prediction by ZEFSAII (Michael W. Deem and Ramdas Pophale) SiO2 
 PCOD9500854
Probable space group: C M M A
;
_chemical_formula_sum "Si O2"
_cell_formula_units_Z 96
_cell_length_a 14.328045
_cell_length_b 27.259721
_cell_length_c 14.684921
_cell_angle_alpha 90.000000
_cell_angle_beta 90.000000
_cell_angle_gamma 90.000000
_cell_volume 5735.614552
_symmetry_space_group_name_H-M "C M M A"
_symmetry_group_IT_number 67
_symmetry_cell_setting 'orthorhombic'
loop_
_space_group_symop_operation_xyz
x,y,z
-x,1/2-y,z
x,-y,-z
-x,1/2+y,-z
-x,-y,-z
x,1/2+y,-z
-x,y,z
x,1/2-y,z
1/2+x,1/2+y,z
1/2-x,-y,z
1/2+x,1/2-y,-z
1/2-x,y,-z
1/2-x,1/2-y,-z
1/2+x,y,-z
1/2-x,1/2+y,z
1/2+x,-y,z
loop_
_atom_site_type_symbol
_atom_site_label
_atom_site_fract_x
_atom_site_fract_y
_atom_site_fract_z
Si Si1 0.209580 0.892086 0.713790
Si Si2 0.801267 0.194401 0.597005
Si Si3 0.500000 0.135713 0.680088
Si Si4 0.607834 0.022241 0.906734
Si Si5 0.823694 0.631075 0.917799
Si Si6 0.000000 0.307651 0.131216
Si Si7 0.750000 0.500000 0.249718
Si Si8 0.000000 0.307605 0.511643
O O1 0.255525 0.849293 0.653975
O O2 0.224485 0.874902 0.818598
O O3 0.097648 0.893006 0.694092
O O4 0.248822 0.947330 0.699889
O O5 0.792462 0.250000 0.636855
O O6 0.750000 0.195802 0.500000
O O7 0.908606 0.184051 0.572436
O O8 0.500000 0.174350 0.763519
O O9 0.500000 0.160911 0.580949
O O10 0.500000 0.009611 0.896857
O O11 0.621095 0.079825 0.921632
O O12 0.662745 0.003809 0.819090
O O13 0.644985 0.000000 0.000000
O O14 0.904860 0.671575 0.913210
O O15 0.750000 0.636312 0.000000
O O16 0.000000 0.250000 0.127154
O O17 0.000000 0.250000 0.484661
#
# Coordination Sequence:
#
# PCOD9500854 Si02
#       8
#    16  16   8  16  16   8   8   8
#     4  10  21  36  57  84 113 149 182 236 278 339
#     4  10  20  36  59  86 112 140 185 239 289 328
#     4  10  19  34  61  83 104 137 192 241 279 316
#     4  10  18  32  56  81 102 135 186 244 282 314
#     4  10  20  36  56  80 112 147 192 232 276 324
#     4  10  21  34  50  80 114 146 190 233 276 332
#     4  10  21  34  51  78 118 148 178 220 280 346
#     4  10  19  34  60  87 110 135 178 246 295 326
#
# _framework density 16.737527
#
# number of rings (size 3 to 8) (size 9 to 14) (size 15 to 20)
#    0.000    2.000    2.500    2.500    3.500    3.000 
#    1.500    1.250    0.000    2.000    0.000    0.000 
#    0.000    0.000    0.000    0.000    0.000    0.000 
#
# Total GULP energy -267427.848513 kJ/mol
# GULP energy per Si atom -5571.413511 kJ/mol
# Density = 1.669943 g / cm^3
# Si number density = 16.737527 Si / 1000 Ang^3
#
#
#
# Elastic Constant Matrix: (Units=GPa)
#
#
# Indices 1 2 3 4 5 6 
#
# 1 100.7307 47.5977 18.1078 0.0000 0.0000 0.0000
# 2 47.5977 135.8417 40.6047 0.0000 0.0000 0.0000
# 3 18.1078 40.6047 56.5650 0.0000 0.0000 0.0000
# 4 0.0000 0.0000 0.0000 25.0995 0.0000 0.0000
# 5 0.0000 0.0000 0.0000 0.0000 38.9510 0.0000
# 6 0.0000 0.0000 0.0000 0.0000 0.0000 8.6421
#
#
#
# Elastic Compliance Matrix: (Units=1/GPa)
#
#
# Indices 1 2 3 4 5 6 
#
# 1 0.011945 -0.003874 -0.001043 0.000000 0.000000 0.000000
# 2 -0.003874 0.010629 -0.006390 0.000000 0.000000 0.000000
# 3 -0.001043 -0.006390 0.022600 0.000000 0.000000 0.000000
# 4 0.000000 0.000000 0.000000 0.039841 0.000000 0.000000
# 5 0.000000 0.000000 0.000000 0.000000 0.025673 0.000000
# 6 0.000000 0.000000 0.000000 0.000000 0.000000 0.115712
#
#
# Mechanical properties :
#
#
# Convention : Reuss Voigt Hill
#
# Bulk Modulus (GPa) = 44.32562 56.19532 50.26047
# Shear Modulus (GPa) = 19.49056 26.99368 23.24212
#
# Velocity S-wave (km/s) = 3.41615 4.02028 3.73047
# Velocity P-wave (km/s) = 6.48848 7.42950 6.97488
#
# Compressibility (1/GPa) = 0.02256032
#
# Stress axis : x y z
#
# Youngs Moduli (GPa) = 83.71399 94.08410 44.24866
#
# Poissons Ratio (x) = 0.36446 0.04616
# Poissons Ratio (y) = 0.32428 0.28274
# Poissons Ratio (z) = 0.08734 0.60117
#
# Static dielectric constant tensor:
#      x y z
#    x 1.612910 0.000000 0.000000 
#    y 0.000000 1.594300 0.000000 
#    z 0.000000 0.000000 1.581130 
# 
# From -- ./inp_files/27460.got.cif
#   From: 2010.05.17/outbox.cif.g08.bks.cpg/sg67_14_cif.got.tgz:27460.got - 2010.06.03 18:28:57.
