data_PCOD9500082
_publ_section_title
;
Structure prediction by ZEFSAII (Michael W. Deem and Ramdas Pophale) SiO2 
 PCOD9500082
Probable space group: C C C M
;
_chemical_formula_sum "Si O2"
_cell_formula_units_Z 58
_cell_length_a 27.000000
_cell_length_b 24.000000
_cell_length_c 9.000000
_cell_angle_alpha 90.000000
_cell_angle_beta 90.000000
_cell_angle_gamma 90.000000
_cell_volume 5832.000000
_symmetry_space_group_name_H-M "C C C M"
_symmetry_group_IT_number 66
_symmetry_cell_setting 'orthorhombic'
loop_
_space_group_symop_operation_xyz
x,y,z
-x,-y,z
x,-y,1/2-z
-x,y,1/2-z
-x,-y,-z
x,y,-z
-x,y,1/2+z
x,-y,1/2+z
1/2+x,1/2+y,z
1/2-x,1/2-y,z
1/2+x,1/2-y,1/2-z
1/2-x,1/2+y,1/2-z
1/2-x,1/2-y,-z
1/2+x,1/2+y,-z
1/2-x,1/2+y,1/2+z
1/2+x,1/2-y,1/2+z
loop_
_atom_site_type_symbol
_atom_site_label
_atom_site_fract_x
_atom_site_fract_y
_atom_site_fract_z
Si Si1 0.500000 0.000000 0.250000
Si Si2 0.599298 0.945472 0.170225
Si Si3 0.842169 0.650607 0.676195
Si Si4 0.727091 0.342171 0.175729
Si Si5 0.650863 0.733171 0.825833
Si Si6 0.950686 0.796013 0.666067
Si Si7 0.158150 0.945306 0.178698
Si Si8 0.451683 0.428657 0.335548
O O1 0.459981 0.040880 0.171478
O O2 0.619282 0.895636 0.269944
O O3 0.621352 0.000000 0.250000
O O4 0.614927 0.938953 0.000000
O O5 0.848288 0.661885 0.500000
O O6 0.783536 0.639452 0.701016
O O7 0.851659 0.703145 0.779093
O O8 0.702178 0.291028 0.261181
O O9 0.690647 0.392376 0.216264
O O10 0.722507 0.329879 0.000000
O O11 0.601086 0.709640 0.750808
O O12 0.649250 0.723797 0.000000
O O13 0.947177 0.771614 0.500000
O O14 0.956414 0.862218 0.650926
O O15 0.000000 0.774719 0.750000
O O16 0.101785 0.939425 0.235458
O O17 0.180529 0.000000 0.250000
O O18 0.156613 0.948770 0.000000
O O19 0.500000 0.445846 0.250000
O O20 0.451295 0.453565 0.500000
#
# Coordination Sequence:
#
# PCOD9500082 Si02
#       8
#     4  16  16  16  16  16  16  16
#     4   8  22  40  74 100 134 176 210 252 318 384
#     4  10  21  40  67  97 132 167 208 254 309 378
#     4  11  24  41  65  94 125 165 211 260 317 377
#     4  10  22  43  64  84 119 166 211 260 322 382
#     4  12  24  39  62  92 125 163 209 261 319 382
#     4  10  19  36  59  85 118 157 201 247 302 366
#     4  10  21  38  57  82 114 153 199 250 304 362
#     4   9  18  33  55  78 109 146 188 239 292 349
#
# _framework density 9.9451300000000007
#
# number of rings (size 3 to 8) (size 9 to 14) (size 15 to 20)
#    0.414    1.379    1.379    3.103    0.000    5.241 
#    1.241    2.759    0.000    0.000    0.000    0.000 
#    0.000    0.000    0.000    0.000    0.000    0.000 
#
# Total GULP energy -323004.504312 kJ/mol
# GULP energy per Si atom -5569.043178 kJ/mol
# Density = 0.992249 g / cm^3
# Si number density = 9.945130 Si / 1000 Ang^3
#
#
#
# Elastic Constant Matrix: (Units=GPa)
#
#
# Indices 1 2 3 4 5 6 
#
# 1 97.0683 21.8291 39.3012 0.0000 0.0000 0.0000
# 2 21.8291 55.6728 7.4560 0.0000 0.0000 0.0000
# 3 39.3012 7.4560 60.0077 0.0000 0.0000 0.0000
# 4 0.0000 0.0000 0.0000 24.2569 0.0000 0.0000
# 5 0.0000 0.0000 0.0000 0.0000 24.9875 0.0000
# 6 0.0000 0.0000 0.0000 0.0000 0.0000 48.0849
#
#
#
# Elastic Compliance Matrix: (Units=1/GPa)
#
#
# Indices 1 2 3 4 5 6 
#
# 1 0.015132 -0.004684 -0.009329 0.000000 0.000000 0.000000
# 2 -0.004684 0.019716 0.000618 0.000000 0.000000 0.000000
# 3 -0.009329 0.000618 0.022697 0.000000 0.000000 0.000000
# 4 0.000000 0.000000 0.000000 0.041225 0.000000 0.000000
# 5 0.000000 0.000000 0.000000 0.000000 0.040020 0.000000
# 6 0.000000 0.000000 0.000000 0.000000 0.000000 0.020797
#
#
# Mechanical properties :
#
#
# Convention : Reuss Voigt Hill
#
# Bulk Modulus (GPa) = 32.51370 38.88015 35.69692
# Shear Modulus (GPa) = 25.42854 29.07670 27.25262
#
# Velocity S-wave (km/s) = 3.57941 3.82757 3.70557
# Velocity P-wave (km/s) = 5.78489 6.25488 6.02447
#
# Compressibility (1/GPa) = 0.03075627
#
# Stress axis : x y z
#
# Youngs Moduli (GPa) = 66.08318 50.72045 44.05774
#
# Poissons Ratio (x) = 0.23757 0.41101
# Poissons Ratio (y) = 0.30953 -0.02723
# Poissons Ratio (z) = 0.61648 -0.03135
#
# Static dielectric constant tensor:
#      x y z
#    x 1.717100 0.000000 0.000000 
#    y 0.000000 1.620140 0.000000 
#    z 0.000000 0.000000 1.707550 
# 
# From -- ./inp_files/10583.got.cif
#   From: 2010.05.17/outbox.ucp.g08.bks.cvg/sg66_6_cif.got.tgz:10583.got - 2010.06.11 16:44:13.
