data_PCOD9500698
_publ_section_title
;
Structure prediction by ZEFSAII (Michael W. Deem and Ramdas Pophale) SiO2 
 PCOD9500698
Probable space group: C M M A
;
_chemical_formula_sum "Si O2"
_cell_formula_units_Z 64
_cell_length_a 15.574168
_cell_length_b 24.407199
_cell_length_c 7.991544
_cell_angle_alpha 90.000000
_cell_angle_beta 90.000000
_cell_angle_gamma 90.000000
_cell_volume 3037.760231
_symmetry_space_group_name_H-M "C M M A"
_symmetry_group_IT_number 67
_symmetry_cell_setting 'orthorhombic'
loop_
_space_group_symop_operation_xyz
x,y,z
-x,1/2-y,z
x,-y,-z
-x,1/2+y,-z
-x,-y,-z
x,1/2+y,-z
-x,y,z
x,1/2-y,z
1/2+x,1/2+y,z
1/2-x,-y,z
1/2+x,1/2-y,-z
1/2-x,y,-z
1/2-x,1/2-y,-z
1/2+x,y,-z
1/2-x,1/2+y,z
1/2+x,-y,z
loop_
_atom_site_type_symbol
_atom_site_label
_atom_site_fract_x
_atom_site_fract_y
_atom_site_fract_z
Si Si1 0.650038 0.866131 0.698395
Si Si2 0.836717 0.250000 0.880064
Si Si3 0.148530 0.869454 0.672097
Si Si4 0.095212 0.250000 0.226254
Si Si5 0.855475 0.563469 0.992006
O O1 0.653268 0.803791 0.766456
O O2 0.750069 0.881823 0.674053
O O3 0.611398 0.874968 0.514400
O O4 0.613302 0.903295 0.846129
O O5 0.750000 0.250000 0.000000
O O6 0.906624 0.250000 0.025880
O O7 0.140096 0.805567 0.717535
O O8 0.113517 0.906553 0.822904
O O9 0.000000 0.250000 0.297671
O O10 0.879044 0.500000 0.000000
O O11 0.750000 0.566560 0.000000
#
# Coordination Sequence:
#
# PCOD9500698 Si02
#       5
#    16   8  16   8  16
#     4  10  18  30  56  81 104 139 183 218 261 321
#     4  12  17  33  56  76 106 142 182 221 268 328
#     4  10  19  33  52  79 108 143 177 216 266 322
#     4  12  23  35  53  80 114 143 175 226 275 316
#     4   9  17  30  50  81 115 139 171 225 270 306
#
# _framework density 21.068154
#
# number of rings (size 3 to 8) (size 9 to 14) (size 15 to 20)
#    0.000    1.750    5.000    1.500    0.000    3.000 
#    0.000    7.500    0.000    0.750    0.000    1.750 
#    0.000    0.000    0.000    0.000    0.000    0.000 
#
# Total GULP energy -178473.737538 kJ/mol
# GULP energy per Si atom -5577.304298 kJ/mol
# Density = 2.102020 g / cm^3
# Si number density = 21.068154 Si / 1000 Ang^3
#
#
#
# Elastic Constant Matrix: (Units=GPa)
#
#
# Indices 1 2 3 4 5 6 
#
# 1 37.7422 -6.5419 0.1941 0.0000 0.0000 0.0000
# 2 -6.5419 168.8211 122.2400 0.0000 0.0000 0.0000
# 3 0.1941 122.2400 248.3370 0.0000 0.0000 0.0000
# 4 0.0000 0.0000 0.0000 -111.8428 0.0000 0.0000
# 5 0.0000 0.0000 0.0000 0.0000 -4.1160 0.0000
# 6 0.0000 0.0000 0.0000 0.0000 0.0000 -12.7712
#
#
#
# Elastic Compliance Matrix: (Units=1/GPa)
#
#
# Indices 1 2 3 4 5 6 
#
# 1 0.026783 0.001636 -0.000826 0.000000 0.000000 0.000000
# 2 0.001636 0.009304 -0.004581 0.000000 0.000000 0.000000
# 3 -0.000826 -0.004581 0.006282 0.000000 0.000000 0.000000
# 4 0.000000 0.000000 0.000000 -0.008941 0.000000 0.000000
# 5 0.000000 0.000000 0.000000 0.000000 -0.242952 0.000000
# 6 0.000000 0.000000 0.000000 0.000000 0.000000 -0.078301
#
#
# Mechanical properties :
#
#
# Convention : Reuss Voigt Hill
#
# Bulk Modulus (GPa) = 28.71303 76.29829 52.50566
# Shear Modulus (GPa) = -18.60994 -3.14547 -10.87770
#
# Velocity S-wave (km/s) = -2.97530 -1.22321 -2.27471
# Velocity P-wave (km/s) = 1.36200 5.85650 4.25169
#
# Compressibility (1/GPa) = 0.03482739
#
# Stress axis : x y z
#
# Youngs Moduli (GPa) = 37.33658 107.48312 159.17688
#
# Poissons Ratio (x) = -0.17586 0.13153
# Poissons Ratio (y) = -0.06109 0.72918
# Poissons Ratio (z) = 0.03085 0.49237
#
# Static dielectric constant tensor:
#      x y z
#    x 1.802080 0.000000 0.000000 
#    y 0.000000 1.723770 0.000000 
#    z 0.000000 0.000000 1.791130 
# 
# From -- ./inp_files/11045.got.cif
#   From: 2010.05.17/outbox.cif.g08.bks.cpg/sg67_6_cif.got.tgz:11045.got - 2010.06.03 18:28:57.
