data_PCOD9500966
_publ_section_title
;
Structure prediction by ZEFSAII (Michael W. Deem and Ramdas Pophale) SiO2 
 PCOD9500966
Probable space group: C M M A
;
_chemical_formula_sum "Si O2"
_cell_formula_units_Z 96
_cell_length_a 27.907618
_cell_length_b 18.600347
_cell_length_c 9.979120
_cell_angle_alpha 90.000000
_cell_angle_beta 90.000000
_cell_angle_gamma 90.000000
_cell_volume 5180.075159
_symmetry_space_group_name_H-M "C M M A"
_symmetry_group_IT_number 67
_symmetry_cell_setting 'orthorhombic'
loop_
_space_group_symop_operation_xyz
x,y,z
-x,1/2-y,z
x,-y,-z
-x,1/2+y,-z
-x,-y,-z
x,1/2+y,-z
-x,y,z
x,1/2-y,z
1/2+x,1/2+y,z
1/2-x,-y,z
1/2+x,1/2-y,-z
1/2-x,y,-z
1/2-x,1/2-y,-z
1/2+x,y,-z
1/2-x,1/2+y,z
1/2+x,-y,z
loop_
_atom_site_type_symbol
_atom_site_label
_atom_site_fract_x
_atom_site_fract_y
_atom_site_fract_z
Si Si1 0.155050 0.668460 0.210295
Si Si2 0.944113 0.334269 0.391467
Si Si3 0.193388 0.671783 0.513010
Si Si4 0.696909 0.973448 0.849885
Si Si5 0.947425 0.836149 0.287064
Si Si6 0.368241 0.951465 0.368037
O O1 0.157500 0.750000 0.157794
O O2 0.169546 0.671497 0.366723
O O3 0.191422 0.612486 0.146829
O O4 0.100003 0.640772 0.208450
O O5 0.930161 0.250000 0.366157
O O6 0.940696 0.345874 0.553002
O O7 0.912377 0.398583 0.330871
O O8 0.000000 0.340645 0.355026
O O9 0.182814 0.750000 0.575112
O O10 0.250000 0.665281 0.500000
O O11 0.172341 0.605497 0.590941
O O12 0.750000 0.000000 0.807281
O O13 0.656142 0.001697 0.748131
O O14 0.688846 0.000000 0.000000
O O15 0.948984 0.750000 0.268884
O O16 0.000000 0.865691 0.249922
O O17 0.379449 0.000000 0.500000
#
# Coordination Sequence:
#
# PCOD9500966 Si02
#       6
#    16  16  16  16  16  16
#     4  10  18  35  58  80 110 149 189 227 277 333
#     4   9  17  31  51  80 118 151 181 227 285 339
#     4  10  19  30  49  81 112 140 184 238 281 326
#     4  11  25  43  57  79 115 153 187 233 288 340
#     4   8  13  24  48  82 116 145 179 225 274 326
#     4  12  21  32  57  85 111 146 188 235 287 337
#
# _framework density 18.532550000000001
#
# number of rings (size 3 to 8) (size 9 to 14) (size 15 to 20)
#    0.000    2.000    3.333    2.500    0.000    0.333 
#    0.000    5.000    0.000    2.000    0.000    2.333 
#    0.000    0.000    0.000    0.000    0.000    0.000 
#
# Total GULP energy -267404.542577 kJ/mol
# GULP energy per Si atom -5570.927970 kJ/mol
# Density = 1.849037 g / cm^3
# Si number density = 18.532550 Si / 1000 Ang^3
#
#
#
# Elastic Constant Matrix: (Units=GPa)
#
#
# Indices 1 2 3 4 5 6 
#
# 1 122.4165 48.9217 11.3281 0.0000 0.0000 0.0000
# 2 48.9217 113.2937 19.8226 0.0000 0.0000 0.0000
# 3 11.3281 19.8226 28.3455 0.0000 0.0000 0.0000
# 4 0.0000 0.0000 0.0000 -3.1573 0.0000 0.0000
# 5 0.0000 0.0000 0.0000 0.0000 1.6326 0.0000
# 6 0.0000 0.0000 0.0000 0.0000 0.0000 42.0774
#
#
#
# Elastic Compliance Matrix: (Units=1/GPa)
#
#
# Indices 1 2 3 4 5 6 
#
# 1 0.009903 -0.004083 -0.001102 0.000000 0.000000 0.000000
# 2 -0.004083 0.011741 -0.006579 0.000000 0.000000 0.000000
# 3 -0.001102 -0.006579 0.040320 0.000000 0.000000 0.000000
# 4 0.000000 0.000000 0.000000 -0.316728 0.000000 0.000000
# 5 0.000000 0.000000 0.000000 0.000000 0.612511 0.000000
# 6 0.000000 0.000000 0.000000 0.000000 0.000000 0.023766
#
#
# Mechanical properties :
#
#
# Convention : Reuss Voigt Hill
#
# Bulk Modulus (GPa) = 26.01766 47.13341 36.57554
# Shear Modulus (GPa) = 11.96595 20.37610 16.17103
#
# Velocity S-wave (km/s) = 2.54376 3.31943 2.95714
# Velocity P-wave (km/s) = 4.76414 6.33873 5.60698
#
# Compressibility (1/GPa) = 0.03843543
#
# Stress axis : x y z
#
# Youngs Moduli (GPa) = 100.98338 85.17236 24.80153
#
# Poissons Ratio (x) = 0.34778 0.02733
# Poissons Ratio (y) = 0.41234 0.16316
# Poissons Ratio (z) = 0.11128 0.56033
#
# Static dielectric constant tensor:
#      x y z
#    x 1.709470 0.000000 0.000000 
#    y 0.000000 1.682320 0.000000 
#    z 0.000000 0.000000 1.614680 
# 
# From -- ./inp_files/22938.got.cif
#   From: 2010.05.17/outbox.cif.g08.bks.cpg/sg67_12_cif.got.tgz:22938.got - 2010.06.03 18:28:57.
