data_PCOD9500813
_publ_section_title
;
Structure prediction by ZEFSAII (Michael W. Deem and Ramdas Pophale) SiO2 
 PCOD9500813
Probable space group: C M M A
;
_chemical_formula_sum "Si O2"
_cell_formula_units_Z 96
_cell_length_a 26.130359
_cell_length_b 25.048456
_cell_length_c 8.016024
_cell_angle_alpha 90.000000
_cell_angle_beta 90.000000
_cell_angle_gamma 90.000000
_cell_volume 5246.689292
_symmetry_space_group_name_H-M "C M M A"
_symmetry_group_IT_number 67
_symmetry_cell_setting 'orthorhombic'
loop_
_space_group_symop_operation_xyz
x,y,z
-x,1/2-y,z
x,-y,-z
-x,1/2+y,-z
-x,-y,-z
x,1/2+y,-z
-x,y,z
x,1/2-y,z
1/2+x,1/2+y,z
1/2-x,-y,z
1/2+x,1/2-y,-z
1/2-x,y,-z
1/2-x,1/2-y,-z
1/2+x,y,-z
1/2-x,1/2+y,z
1/2+x,-y,z
loop_
_atom_site_type_symbol
_atom_site_label
_atom_site_fract_x
_atom_site_fract_y
_atom_site_fract_z
Si Si1 0.060572 0.445885 0.603243
Si Si2 0.723327 0.573191 0.666493
Si Si3 0.331492 0.250000 0.421835
Si Si4 0.358023 0.449558 0.110510
Si Si5 0.728131 0.250000 0.780571
Si Si6 0.867146 0.860033 0.510278
Si Si7 0.188044 0.136097 0.142576
O O1 0.073708 0.500000 0.500000
O O2 0.092887 0.441693 0.773264
O O3 0.082197 0.394917 0.505022
O O4 0.000000 0.445105 0.628437
O O5 0.750000 0.553985 0.500000
O O6 0.690143 0.532760 0.774019
O O7 0.679717 0.612699 0.592558
O O8 0.763741 0.602771 0.784717
O O9 0.300138 0.250000 0.598479
O O10 0.288116 0.250000 0.276397
O O11 0.366986 0.301775 0.430373
O O12 0.369937 0.500000 0.000000
O O13 0.338270 0.397562 0.006958
O O14 0.709183 0.303361 0.875810
O O15 0.851066 0.859794 0.702999
#
# Coordination Sequence:
#
# PCOD9500813 Si02
#       7
#    16  16   8  16   8  16  16
#     4  10  22  42  63  78  97 136 192 247 293 343
#     4   9  18  33  52  73 108 154 190 216 258 321
#     4   9  14  28  56  87 117 156 193 228 255 308
#     4  11  23  37  53  80 114 141 181 236 290 341
#     4   9  16  28  54  84 121 163 194 216 249 322
#     4   9  17  32  57  85 112 145 189 232 275 319
#     4  10  18  32  53  84 119 152 184 221 270 326
#
# _framework density 18.297252
#
# number of rings (size 3 to 8) (size 9 to 14) (size 15 to 20)
#    0.000    2.333    1.667    1.500    0.000    1.667 
#    0.000   12.083    0.000    0.000    0.000    1.167 
#    0.000    0.000    0.000    0.000    0.000    0.000 
#
# Total GULP energy -267539.811857 kJ/mol
# GULP energy per Si atom -5573.746080 kJ/mol
# Density = 1.825561 g / cm^3
# Si number density = 18.297252 Si / 1000 Ang^3
#
#
#
# Elastic Constant Matrix: (Units=GPa)
#
#
# Indices 1 2 3 4 5 6 
#
# 1 92.8871 56.1068 49.2487 0.0000 0.0000 0.0000
# 2 56.1068 115.7172 36.0001 0.0000 0.0000 0.0000
# 3 49.2487 36.0001 92.8853 0.0000 0.0000 0.0000
# 4 0.0000 0.0000 0.0000 19.4409 0.0000 0.0000
# 5 0.0000 0.0000 0.0000 0.0000 21.0907 0.0000
# 6 0.0000 0.0000 0.0000 0.0000 0.0000 -16.1540
#
#
#
# Elastic Compliance Matrix: (Units=1/GPa)
#
#
# Indices 1 2 3 4 5 6 
#
# 1 0.018759 -0.006824 -0.007301 0.000000 0.000000 0.000000
# 2 -0.006824 0.012309 -0.001153 0.000000 0.000000 0.000000
# 3 -0.007301 -0.001153 0.015084 0.000000 0.000000 0.000000
# 4 0.000000 0.000000 0.000000 0.051438 0.000000 0.000000
# 5 0.000000 0.000000 0.000000 0.000000 0.047414 0.000000
# 6 0.000000 0.000000 0.000000 0.000000 0.000000 -0.061904
#
#
# Mechanical properties :
#
#
# Convention : Reuss Voigt Hill
#
# Bulk Modulus (GPa) = 64.11866 64.91120 64.51493
# Shear Modulus (GPa) = 42.06847 15.55112 28.80980
#
# Velocity S-wave (km/s) = 4.80017 2.91849 3.97236
# Velocity P-wave (km/s) = 8.11425 6.84907 7.50835
#
# Compressibility (1/GPa) = 0.01559608
#
# Stress axis : x y z
#
# Youngs Moduli (GPa) = 53.30844 81.24149 66.29601
#
# Poissons Ratio (x) = 0.55439 0.48405
# Poissons Ratio (y) = 0.36377 0.07641
# Poissons Ratio (z) = 0.38922 0.09364
#
# Static dielectric constant tensor:
#      x y z
#    x 1.590110 0.000000 0.000000 
#    y 0.000000 1.676770 0.000000 
#    z 0.000000 0.000000 1.710870 
# 
# From -- ./inp_files/13926.got.cif
#   From: 2010.05.17/outbox.cif.g08.bks.cpg/sg67_7_cif.got.tgz:13926.got - 2010.06.03 18:28:57.
