data_PCOD9500713
_publ_section_title
;
Structure prediction by ZEFSAII (Michael W. Deem and Ramdas Pophale) SiO2 
 PCOD9500713
Probable space group: C M M A
;
_chemical_formula_sum "Si O2"
_cell_formula_units_Z 112
_cell_length_a 30.313094
_cell_length_b 15.907459
_cell_length_c 12.819880
_cell_angle_alpha 90.000000
_cell_angle_beta 90.000000
_cell_angle_gamma 90.000000
_cell_volume 6181.801261
_symmetry_space_group_name_H-M "C M M A"
_symmetry_group_IT_number 67
_symmetry_cell_setting 'orthorhombic'
loop_
_space_group_symop_operation_xyz
x,y,z
-x,1/2-y,z
x,-y,-z
-x,1/2+y,-z
-x,-y,-z
x,1/2+y,-z
-x,y,z
x,1/2-y,z
1/2+x,1/2+y,z
1/2-x,-y,z
1/2+x,1/2-y,-z
1/2-x,y,-z
1/2-x,1/2-y,-z
1/2+x,y,-z
1/2-x,1/2+y,z
1/2+x,-y,z
loop_
_atom_site_type_symbol
_atom_site_label
_atom_site_fract_x
_atom_site_fract_y
_atom_site_fract_z
Si Si1 0.705742 0.352074 0.291688
Si Si2 0.859681 0.646888 0.870388
Si Si3 0.303775 0.348930 0.671474
Si Si4 0.296208 0.352586 0.051851
Si Si5 0.549176 0.351329 0.538477
Si Si6 0.549087 0.647706 0.218627
Si Si7 0.142543 0.403578 0.527905
O O1 0.704455 0.250000 0.295329
O O2 0.753736 0.381610 0.333518
O O3 0.701031 0.379135 0.171650
O O4 0.667036 0.383936 0.365156
O O5 0.859693 0.750000 0.869447
O O6 0.830641 0.617659 0.771151
O O7 0.909849 0.619470 0.850706
O O8 0.835986 0.620492 0.976732
O O9 0.298821 0.250000 0.692516
O O10 0.331737 0.357450 0.566362
O O11 0.295827 0.250000 0.052510
O O12 0.250000 0.379031 0.000000
O O13 0.500000 0.379897 0.506286
O O14 0.549087 0.250000 0.536420
O O15 0.556052 0.376237 0.659951
O O16 0.590967 0.381047 0.473382
O O17 0.500000 0.620127 0.186748
O O18 0.549055 0.750000 0.217457
O O19 0.147000 0.500000 0.500000
#
# Coordination Sequence:
#
# PCOD9500713 Si02
#       7
#    16  16  16  16  16  16  16
#     4  10  20  33  51  73 101 135 175 215 253 305
#     4   9  14  23  45  73  99 120 150 207 263 300
#     4  10  18  31  51  73  95 127 170 215 258 297
#     4   9  15  26  46  75 100 122 160 211 261 299
#     4   9  17  32  55  78  98 123 162 213 261 303
#     4   8  13  22  41  71  99 120 148 195 252 295
#     4  12  24  34  47  71 105 142 169 204 251 309
#
# _framework density 18.117695999999999
#
# number of rings (size 3 to 8) (size 9 to 14) (size 15 to 20)
#    0.000    2.429    2.857    2.571    0.000    2.571 
#    0.000    0.000    0.000    1.714    0.000    4.000 
#    0.000    2.286    0.000    0.000    0.000    0.000 
#
# Total GULP energy -312243.129019 kJ/mol
# GULP energy per Si atom -5575.770161 kJ/mol
# Density = 1.807646 g / cm^3
# Si number density = 18.117696 Si / 1000 Ang^3
#
#
#
# Elastic Constant Matrix: (Units=GPa)
#
#
# Indices 1 2 3 4 5 6 
#
# 1 189.3543 13.2451 82.0230 0.0000 0.0000 0.0000
# 2 13.2451 14.2774 7.3129 0.0000 0.0000 0.0000
# 3 82.0230 7.3129 108.0065 0.0000 0.0000 0.0000
# 4 0.0000 0.0000 0.0000 -11.7692 0.0000 0.0000
# 5 0.0000 0.0000 0.0000 0.0000 27.8159 0.0000
# 6 0.0000 0.0000 0.0000 0.0000 0.0000 -8.6844
#
#
#
# Elastic Compliance Matrix: (Units=1/GPa)
#
#
# Indices 1 2 3 4 5 6 
#
# 1 0.008145 -0.004546 -0.005878 0.000000 0.000000 0.000000
# 2 -0.004546 0.075094 -0.001632 0.000000 0.000000 0.000000
# 3 -0.005878 -0.001632 0.013833 0.000000 0.000000 0.000000
# 4 0.000000 0.000000 0.000000 -0.084968 0.000000 0.000000
# 5 0.000000 0.000000 0.000000 0.000000 0.035951 0.000000
# 6 0.000000 0.000000 0.000000 0.000000 0.000000 -0.115148
#
#
# Mechanical properties :
#
#
# Convention : Reuss Voigt Hill
#
# Bulk Modulus (GPa) = 13.70610 57.42223 35.56416
# Shear Modulus (GPa) = -267.92954 15.40962 -126.25996
#
# Velocity S-wave (km/s) = -12.17390 2.91955 -8.35704
# Velocity P-wave (km/s) = 13.78491 6.56718 8.57018
#
# Compressibility (1/GPa) = 0.07296024
#
# Stress axis : x y z
#
# Youngs Moduli (GPa) = 122.77147 13.31669 72.29053
#
# Poissons Ratio (x) = 0.06053 0.42492
# Poissons Ratio (y) = 0.55808 0.11800
# Poissons Ratio (z) = 0.72164 0.02174
#
# Static dielectric constant tensor:
#      x y z
#    x 1.646340 0.000000 0.000000 
#    y 0.000000 1.666890 0.000000 
#    z 0.000000 0.000000 1.610970 
# 
# From -- ./inp_files/23828.got.cif
#   From: 2010.05.17/outbox.cif.g08.bks.cpg/sg67_12_cif.got.tgz:23828.got - 2010.06.03 18:28:57.
