data_PCOD9500929
_publ_section_title
;
Structure prediction by ZEFSAII (Michael W. Deem and Ramdas Pophale) SiO2 
 PCOD9500929
Probable space group: C M M A
;
_chemical_formula_sum "Si O2"
_cell_formula_units_Z 80
_cell_length_a 14.874232
_cell_length_b 23.811528
_cell_length_c 10.308912
_cell_angle_alpha 90.000000
_cell_angle_beta 90.000000
_cell_angle_gamma 90.000000
_cell_volume 3651.191811
_symmetry_space_group_name_H-M "C M M A"
_symmetry_group_IT_number 67
_symmetry_cell_setting 'orthorhombic'
loop_
_space_group_symop_operation_xyz
x,y,z
-x,1/2-y,z
x,-y,-z
-x,1/2+y,-z
-x,-y,-z
x,1/2+y,-z
-x,y,z
x,1/2-y,z
1/2+x,1/2+y,z
1/2-x,-y,z
1/2+x,1/2-y,-z
1/2-x,y,-z
1/2-x,1/2-y,-z
1/2+x,y,-z
1/2-x,1/2+y,z
1/2+x,-y,z
loop_
_atom_site_type_symbol
_atom_site_label
_atom_site_fract_x
_atom_site_fract_y
_atom_site_fract_z
Si Si1 0.143982 0.873088 0.978337
Si Si2 0.604805 0.428023 0.248451
Si Si3 0.152662 0.750000 0.929676
Si Si4 0.889729 0.750000 0.630871
Si Si5 0.890354 0.365343 0.505938
Si Si6 0.608283 0.446073 0.722991
O O1 0.108821 0.906094 0.102716
O O2 0.250000 0.869074 0.000000
O O3 0.108329 0.809379 0.968118
O O4 0.128589 0.907824 0.847506
O O5 0.500000 0.433503 0.283106
O O6 0.642251 0.382995 0.351257
O O7 0.643645 0.490576 0.262042
O O8 0.154566 0.750000 0.773112
O O9 0.250000 0.750000 0.000000
O O10 0.862997 0.694577 0.551227
O O11 0.000000 0.750000 0.648535
O O12 0.862222 0.414281 0.406662
O O13 0.000000 0.362691 0.506151
O O14 0.500000 0.448994 0.716362
#
# Coordination Sequence:
#
# PCOD9500929 Si02
#       6
#    16  16   8   8  16  16
#     4  11  23  38  57  80 114 150 193 237 281 330
#     4  10  21  36  56  86 117 145 183 233 289 342
#     4  10  22  39  58  78 112 153 192 230 278 341
#     4  10  18  33  62  91 113 147 198 242 284 342
#     4   9  18  33  56  85 114 144 183 234 284 334
#     4  10  19  35  59  83 112 152 190 226 280 349
#
# _framework density 21.910654000000001
#
# number of rings (size 3 to 8) (size 9 to 14) (size 15 to 20)
#    0.000    2.000    2.000    1.800    0.000    7.200 
#    0.000    2.000    0.000    4.800    0.000    0.000 
#    0.000    0.000    0.000    0.000    0.000    0.000 
#
# Total GULP energy -223436.269125 kJ/mol
# GULP energy per Si atom -5585.906728 kJ/mol
# Density = 2.186078 g / cm^3
# Si number density = 21.910654 Si / 1000 Ang^3
#
#
#
# Elastic Constant Matrix: (Units=GPa)
#
#
# Indices 1 2 3 4 5 6 
#
# 1 54.2421 -8.8193 -16.3274 0.0000 0.0000 0.0000
# 2 -8.8193 111.7283 -15.4646 0.0000 0.0000 0.0000
# 3 -16.3274 -15.4646 48.5572 0.0000 0.0000 0.0000
# 4 0.0000 0.0000 0.0000 34.0170 0.0000 0.0000
# 5 0.0000 0.0000 0.0000 0.0000 -109.4638 0.0000
# 6 0.0000 0.0000 0.0000 0.0000 0.0000 22.3046
#
#
#
# Elastic Compliance Matrix: (Units=1/GPa)
#
#
# Indices 1 2 3 4 5 6 
#
# 1 0.021317 0.002798 0.008059 0.000000 0.000000 0.000000
# 2 0.002798 0.009730 0.004040 0.000000 0.000000 0.000000
# 3 0.008059 0.004040 0.024591 0.000000 0.000000 0.000000
# 4 0.000000 0.000000 0.000000 0.029397 0.000000 0.000000
# 5 0.000000 0.000000 0.000000 0.000000 -0.009135 0.000000
# 6 0.000000 0.000000 0.000000 0.000000 0.000000 0.044834
#
#
# Mechanical properties :
#
#
# Convention : Reuss Voigt Hill
#
# Bulk Modulus (GPa) = 11.70533 14.81166 13.25850
# Shear Modulus (GPa) = 41.87023 6.38082 24.12552
#
# Velocity S-wave (km/s) = 4.37619 1.70837 3.32186
# Velocity P-wave (km/s) = 5.55775 3.26589 4.55822
#
# Compressibility (1/GPa) = 0.08543113
#
# Stress axis : x y z
#
# Youngs Moduli (GPa) = 46.91172 102.77164 40.66582
#
# Poissons Ratio (x) = -0.28756 -0.32772
# Poissons Ratio (y) = -0.13126 -0.16428
# Poissons Ratio (z) = -0.37806 -0.41518
#
# Static dielectric constant tensor:
#      x y z
#    x 1.890030 0.000000 0.000000 
#    y 0.000000 1.805110 0.000000 
#    z 0.000000 0.000000 1.845820 
# 
# From -- ./inp_files/11122.got.cif
#   From: 2010.05.17/outbox.cif.g08.bks.cpg/sg67_6_cif.got.tgz:11122.got - 2010.06.03 18:28:57.
