data_PCOD9500185
_publ_section_title
;
Structure prediction by ZEFSAII (Michael W. Deem and Ramdas Pophale) SiO2 
 PCOD9500185
Probable space group: C M M A
;
_chemical_formula_sum "Si O2"
_cell_formula_units_Z 48
_cell_length_a 19.272602
_cell_length_b 5.562571
_cell_length_c 22.694768
_cell_angle_alpha 90.000000
_cell_angle_beta 90.000000
_cell_angle_gamma 90.000000
_cell_volume 2432.997528
_symmetry_space_group_name_H-M "C M M A"
_symmetry_group_IT_number 67
_symmetry_cell_setting 'orthorhombic'
loop_
_space_group_symop_operation_xyz
x,y,z
-x,1/2-y,z
x,-y,-z
-x,1/2+y,-z
-x,-y,-z
x,1/2+y,-z
-x,y,z
x,1/2-y,z
1/2+x,1/2+y,z
1/2-x,-y,z
1/2+x,1/2-y,-z
1/2-x,y,-z
1/2-x,1/2-y,-z
1/2+x,y,-z
1/2-x,1/2+y,z
1/2+x,-y,z
loop_
_atom_site_type_symbol
_atom_site_label
_atom_site_fract_x
_atom_site_fract_y
_atom_site_fract_z
Si Si1 0.671827 0.750000 0.476209
Si Si2 0.500000 0.250000 0.609059
Si Si3 0.850389 0.250000 0.338784
Si Si4 0.000000 0.250000 0.791939
Si Si5 0.620669 0.250000 0.303873
Si Si6 0.420431 0.250000 0.979127
Si Si7 0.500000 0.750000 0.136036
Si Si8 0.000000 0.750000 0.402162
O O1 0.640175 0.500000 0.500000
O O2 0.750000 0.750000 0.500000
O O3 0.675910 0.750000 0.405795
O O4 0.434164 0.250000 0.652092
O O5 0.500000 0.488542 0.570647
O O6 0.835915 0.503652 0.307811
O O7 0.068317 0.250000 0.750851
O O8 0.000000 0.500809 0.828074
O O9 0.569296 0.250000 0.361091
O O10 0.500000 0.250000 0.006276
O O11 0.435021 0.250000 0.909452
O O12 0.387897 0.500000 0.000000
#
# Coordination Sequence:
#
# PCOD9500185 Si02
#       8
#     8   4   8   4   8   8   4   4
#     4  10  21  36  52  69  84  97 120 159 204 247
#     4   8  14  23  40  58  74  97 124 142 162 212
#     4  10  17  31  47  60  81 107 127 149 189 245
#     4  11  18  25  36  57  82 104 136 172 206 251
#     4   9  17  26  39  57  77 105 130 151 185 242
#     4   8  13  22  32  44  64  96 139 182 225 270
#     4  10  16  22  34  51  74 104 136 181 226 254
#     4   7  12  22  34  50  70  93 122 147 166 199
#
# _framework density 19.728750999999999
#
# number of rings (size 3 to 8) (size 9 to 14) (size 15 to 20)
#    0.500    2.333    0.000    4.000    0.000    1.333 
#    0.000    0.833    0.000    0.000    0.000    0.000 
#    0.000    0.000    0.000    0.000    0.000    0.000 
#
# Total GULP energy -133625.201118 kJ/mol
# GULP energy per Si atom -5567.716713 kJ/mol
# Density = 1.968385 g / cm^3
# Si number density = 19.728751 Si / 1000 Ang^3
#
#
#
# Elastic Constant Matrix: (Units=GPa)
#
#
# Indices 1 2 3 4 5 6 
#
# 1 37.5858 2.1019 7.3474 0.0000 0.0000 0.0000
# 2 2.1019 304.2621 78.9281 0.0000 0.0000 0.0000
# 3 7.3474 78.9281 105.6282 0.0000 0.0000 0.0000
# 4 0.0000 0.0000 0.0000 39.0831 0.0000 0.0000
# 5 0.0000 0.0000 0.0000 0.0000 -2.6090 0.0000
# 6 0.0000 0.0000 0.0000 0.0000 0.0000 -7.3768
#
#
#
# Elastic Compliance Matrix: (Units=1/GPa)
#
#
# Indices 1 2 3 4 5 6 
#
# 1 0.027007 0.000373 -0.002157 0.000000 0.000000 0.000000
# 2 0.000373 0.004082 -0.003076 0.000000 0.000000 0.000000
# 3 -0.002157 -0.003076 0.011916 0.000000 0.000000 0.000000
# 4 0.000000 0.000000 0.000000 0.025587 0.000000 0.000000
# 5 0.000000 0.000000 0.000000 0.000000 -0.383293 0.000000
# 6 0.000000 0.000000 0.000000 0.000000 0.000000 -0.135559
#
#
# Mechanical properties :
#
#
# Convention : Reuss Voigt Hill
#
# Bulk Modulus (GPa) = 30.04475 69.35898 49.70186
# Shear Modulus (GPa) = -11.64292 29.75937 9.05823
#
# Velocity S-wave (km/s) = -2.43194 3.88806 2.14508
# Velocity P-wave (km/s) = 2.71592 7.44235 5.60200
#
# Compressibility (1/GPa) = 0.03328369
#
# Stress axis : x y z
#
# Youngs Moduli (GPa) = 37.02793 244.97539 83.92212
#
# Poissons Ratio (x) = -0.09139 0.18105
# Poissons Ratio (y) = -0.01381 0.25816
# Poissons Ratio (z) = 0.07988 0.75358
#
# Static dielectric constant tensor:
#      x y z
#    x 1.708510 0.000000 0.000000 
#    y 0.000000 1.908420 0.000000 
#    z 0.000000 0.000000 1.663600 
# 
# From -- ./inp_files/39454.got.cif
#   From: 2010.05.17/outbox.cif.g08.bks.cpg/sg67_20_cif.got.tgz:39454.got - 2010.06.03 18:28:57.
