data_PCOD9500253
_publ_section_title
;
Structure prediction by ZEFSAII (Michael W. Deem and Ramdas Pophale) SiO2 
 PCOD9500253
Probable space group: C M M A
;
_chemical_formula_sum "Si O2"
_cell_formula_units_Z 80
_cell_length_a 42.753111
_cell_length_b 14.361148
_cell_length_c 5.384429
_cell_angle_alpha 90.000000
_cell_angle_beta 90.000000
_cell_angle_gamma 90.000000
_cell_volume 3305.951933
_symmetry_space_group_name_H-M "C M M A"
_symmetry_group_IT_number 67
_symmetry_cell_setting 'orthorhombic'
loop_
_space_group_symop_operation_xyz
x,y,z
-x,1/2-y,z
x,-y,-z
-x,1/2+y,-z
-x,-y,-z
x,1/2+y,-z
-x,y,z
x,1/2-y,z
1/2+x,1/2+y,z
1/2-x,-y,z
1/2+x,1/2-y,-z
1/2-x,y,-z
1/2-x,1/2-y,-z
1/2+x,y,-z
1/2-x,1/2+y,z
1/2+x,-y,z
loop_
_atom_site_type_symbol
_atom_site_label
_atom_site_fract_x
_atom_site_fract_y
_atom_site_fract_z
Si Si1 0.236639 0.893650 0.253773
Si Si2 0.536017 0.636132 0.654941
Si Si3 0.642638 0.395050 0.937578
Si Si4 0.928462 0.136878 0.155681
Si Si5 0.334175 0.106898 0.432561
O O1 0.250000 0.848983 0.500000
O O2 0.199739 0.891861 0.302511
O O3 0.250000 0.000000 0.252239
O O4 0.250000 0.853572 0.000000
O O5 0.500000 0.605705 0.662405
O O6 0.535812 0.750000 0.654466
O O7 0.554475 0.607422 0.902093
O O8 0.552958 0.606985 0.401177
O O9 0.662927 0.352806 0.711660
O O10 0.653672 0.500000 0.000000
O O11 0.607178 0.396332 0.844495
O O12 0.643994 0.352674 0.215406
O O13 0.927582 0.250000 0.156785
O O14 0.342443 0.000000 0.500000
#
# Coordination Sequence:
#
# PCOD9500253 Si02
#       5
#    16  16  16  16  16
#     4  10  17  24  41  63  92 125 150 198 241 292
#     4   9  17  30  52  78  99 121 158 211 256 285
#     4  10  21  32  48  67 100 138 161 196 239 298
#     4  10  19  33  52  74  99 128 166 202 240 293
#     4  10  18  30  43  66  97 133 160 192 245 295
#
# _framework density 24.198782000000001
#
# number of rings (size 3 to 8) (size 9 to 14) (size 15 to 20)
#    0.000    2.200    2.000    3.000    5.600    2.400 
#    0.000    0.000    0.000    3.600    0.000    0.000 
#    0.000   16.000    0.000    0.000    0.000    0.800 
#
# Total GULP energy -223365.463046 kJ/mol
# GULP energy per Si atom -5584.136576 kJ/mol
# Density = 2.414370 g / cm^3
# Si number density = 24.198782 Si / 1000 Ang^3
#
#
#
# Elastic Constant Matrix: (Units=GPa)
#
#
# Indices 1 2 3 4 5 6 
#
# 1 160.0596 -4.5152 88.3728 0.0000 0.0000 0.0000
# 2 -4.5152 87.8933 20.2155 0.0000 0.0000 0.0000
# 3 88.3728 20.2155 281.1586 0.0000 0.0000 0.0000
# 4 0.0000 0.0000 0.0000 -20.1368 0.0000 0.0000
# 5 0.0000 0.0000 0.0000 0.0000 55.8210 0.0000
# 6 0.0000 0.0000 0.0000 0.0000 0.0000 27.6183
#
#
#
# Elastic Compliance Matrix: (Units=1/GPa)
#
#
# Indices 1 2 3 4 5 6 
#
# 1 0.007638 0.000960 -0.002470 0.000000 0.000000 0.000000
# 2 0.000960 0.011690 -0.001142 0.000000 0.000000 0.000000
# 3 -0.002470 -0.001142 0.004415 0.000000 0.000000 0.000000
# 4 0.000000 0.000000 0.000000 -0.049660 0.000000 0.000000
# 5 0.000000 0.000000 0.000000 0.000000 0.017914 0.000000
# 6 0.000000 0.000000 0.000000 0.000000 0.000000 0.036208
#
#
# Mechanical properties :
#
#
# Convention : Reuss Voigt Hill
#
# Bulk Modulus (GPa) = 54.23138 81.91751 68.07444
# Shear Modulus (GPa) = 126.08619 40.99639 83.54129
#
# Velocity S-wave (km/s) = 7.22617 4.12047 5.88200
# Velocity P-wave (km/s) = 9.59597 7.52085 8.62107
#
# Compressibility (1/GPa) = 0.01843951
#
# Stress axis : x y z
#
# Youngs Moduli (GPa) = 130.91576 85.54669 226.49024
#
# Poissons Ratio (x) = -0.08217 0.55942
# Poissons Ratio (y) = -0.12574 0.25874
# Poissons Ratio (z) = 0.32336 0.09773
#
# Static dielectric constant tensor:
#      x y z
#    x 1.889820 0.000000 0.000000 
#    y 0.000000 1.956820 0.000000 
#    z 0.000000 0.000000 1.977170 
# 
# From -- ./inp_files/4715.got.cif
#   From: 2010.05.17/outbox.cif.g08.bks.cpg/sg67_3_cif.got.tgz:4715.got - 2010.06.03 18:28:57.
