data_PCOD9500271
_publ_section_title
;
Structure prediction by ZEFSAII (Michael W. Deem and Ramdas Pophale) SiO2 
 PCOD9500271
Probable space group: C M M A
;
_chemical_formula_sum "Si O2"
_cell_formula_units_Z 72
_cell_length_a 27.502414
_cell_length_b 8.371889
_cell_length_c 15.235644
_cell_angle_alpha 90.000000
_cell_angle_beta 90.000000
_cell_angle_gamma 90.000000
_cell_volume 3507.963720
_symmetry_space_group_name_H-M "C M M A"
_symmetry_group_IT_number 67
_symmetry_cell_setting 'orthorhombic'
loop_
_space_group_symop_operation_xyz
x,y,z
-x,1/2-y,z
x,-y,-z
-x,1/2+y,-z
-x,-y,-z
x,1/2+y,-z
-x,y,z
x,1/2-y,z
1/2+x,1/2+y,z
1/2-x,-y,z
1/2+x,1/2-y,-z
1/2-x,y,-z
1/2-x,1/2-y,-z
1/2+x,y,-z
1/2-x,1/2+y,z
1/2+x,-y,z
loop_
_atom_site_type_symbol
_atom_site_label
_atom_site_fract_x
_atom_site_fract_y
_atom_site_fract_z
Si Si1 0.198419 0.564385 0.883115
Si Si2 0.200258 0.057360 0.687100
Si Si3 0.500000 0.060881 0.598950
Si Si4 0.908295 0.941887 0.292778
Si Si5 0.404782 0.934133 0.907169
O O1 0.190589 0.750000 0.904413
O O2 0.250000 0.500000 0.913599
O O3 0.200988 0.539574 0.778398
O O4 0.153560 0.456036 0.912250
O O5 0.203653 0.250000 0.700419
O O6 0.144114 0.022764 0.661284
O O7 0.250000 0.000000 0.639131
O O8 0.500000 0.250000 0.598818
O O9 0.500000 0.000000 0.500000
O O10 0.547552 0.000662 0.649528
O O11 0.909692 0.750000 0.285393
O O12 0.914391 0.003877 0.191175
O O13 0.418526 0.750000 0.904648
O O14 0.424659 0.000000 0.000000
#
# Coordination Sequence:
#
# PCOD9500271 Si02
#       5
#    16  16   8  16  16
#     4  10  17  26  41  64 100 147 199 250 292 337
#     4   9  16  28  50  81 117 158 197 239 289 344
#     4  12  26  44  71  98 119 146 187 240 300 358
#     4   9  20  39  61  87 123 160 198 245 297 347
#     4  10  20  34  52  77 111 153 196 241 289 341
#
# _framework density 20.524728
#
# number of rings (size 3 to 8) (size 9 to 14) (size 15 to 20)
#    0.000    2.222    0.000    7.000    0.000    5.778 
#    0.000    2.778    0.000    0.667    0.000    4.667 
#    0.000    0.000    0.000    0.000    0.000    0.000 
#
# Total GULP energy -200403.980753 kJ/mol
# GULP energy per Si atom -5566.777243 kJ/mol
# Density = 2.047801 g / cm^3
# Si number density = 20.524728 Si / 1000 Ang^3
#
#
#
# Elastic Constant Matrix: (Units=GPa)
#
#
# Indices 1 2 3 4 5 6 
#
# 1 144.8134 27.3450 70.2354 0.0000 0.0000 0.0000
# 2 27.3450 42.9646 4.3151 0.0000 0.0000 0.0000
# 3 70.2354 4.3151 82.9239 0.0000 0.0000 0.0000
# 4 0.0000 0.0000 0.0000 24.6396 0.0000 0.0000
# 5 0.0000 0.0000 0.0000 0.0000 -38.7239 0.0000
# 6 0.0000 0.0000 0.0000 0.0000 0.0000 30.0142
#
#
#
# Elastic Compliance Matrix: (Units=1/GPa)
#
#
# Indices 1 2 3 4 5 6 
#
# 1 0.013852 -0.007678 -0.011333 0.000000 0.000000 0.000000
# 2 -0.007678 0.027653 0.005064 0.000000 0.000000 0.000000
# 3 -0.011333 0.005064 0.021394 0.000000 0.000000 0.000000
# 4 0.000000 0.000000 0.000000 0.040585 0.000000 0.000000
# 5 0.000000 0.000000 0.000000 0.000000 -0.025824 0.000000
# 6 0.000000 0.000000 0.000000 0.000000 0.000000 0.033318
#
#
# Mechanical properties :
#
#
# Convention : Reuss Voigt Hill
#
# Bulk Modulus (GPa) = 28.56651 52.72144 40.64397
# Shear Modulus (GPa) = 33.21401 14.43974 23.82687
#
# Velocity S-wave (km/s) = 4.02710 2.65529 3.41087
# Velocity P-wave (km/s) = 5.96420 5.92818 5.94622
#
# Compressibility (1/GPa) = 0.03500603
#
# Stress axis : x y z
#
# Youngs Moduli (GPa) = 72.19396 36.16261 46.74149
#
# Poissons Ratio (x) = 0.27765 0.52970
# Poissons Ratio (y) = 0.55428 -0.23670
# Poissons Ratio (z) = 0.81814 -0.18312
#
# Static dielectric constant tensor:
#      x y z
#    x 1.792310 0.000000 0.000000 
#    y 0.000000 1.755870 0.000000 
#    z 0.000000 0.000000 1.788540 
# 
# From -- ./inp_files/25061.got.cif
#   From: 2010.05.17/outbox.cif.g08.bks.cpg/sg67_13_cif.got.tgz:25061.got - 2010.06.03 18:28:57.
