data_PCOD9500274
_publ_section_title
;
Structure prediction by ZEFSAII (Michael W. Deem and Ramdas Pophale) SiO2 
 PCOD9500274
Probable space group: C M M A
;
_chemical_formula_sum "Si O2"
_cell_formula_units_Z 88
_cell_length_a 15.245125
_cell_length_b 8.658503
_cell_length_c 32.346308
_cell_angle_alpha 90.000000
_cell_angle_beta 90.000000
_cell_angle_gamma 90.000000
_cell_volume 4269.711380
_symmetry_space_group_name_H-M "C M M A"
_symmetry_group_IT_number 67
_symmetry_cell_setting 'orthorhombic'
loop_
_space_group_symop_operation_xyz
x,y,z
-x,1/2-y,z
x,-y,-z
-x,1/2+y,-z
-x,-y,-z
x,1/2+y,-z
-x,y,z
x,1/2-y,z
1/2+x,1/2+y,z
1/2-x,-y,z
1/2+x,1/2-y,-z
1/2-x,y,-z
1/2-x,1/2-y,-z
1/2+x,y,-z
1/2-x,1/2+y,z
1/2+x,-y,z
loop_
_atom_site_type_symbol
_atom_site_label
_atom_site_fract_x
_atom_site_fract_y
_atom_site_fract_z
Si Si1 0.895446 0.578151 0.541472
Si Si2 0.149722 0.065789 0.716297
Si Si3 0.000000 0.562895 0.953853
Si Si4 0.150482 0.935315 0.800701
Si Si5 0.348259 0.436023 0.892218
Si Si6 0.848656 0.563324 0.631715
O O1 0.860396 0.500000 0.500000
O O2 0.857144 0.750000 0.543384
O O3 0.883175 0.508670 0.587047
O O4 0.000000 0.589388 0.536161
O O5 0.152627 0.250000 0.715436
O O6 0.250000 0.000000 0.716859
O O7 0.109354 0.007375 0.759425
O O8 0.109185 0.002505 0.673680
O O9 0.914459 0.512734 0.927864
O O10 0.000000 0.750000 0.954852
O O11 0.000000 0.500000 0.000000
O O12 0.151548 0.750000 0.796194
O O13 0.115243 0.975262 0.846271
O O14 0.250000 0.000000 0.802294
O O15 0.342817 0.250000 0.893325
O O16 0.250000 0.500000 0.896998
O O17 0.852753 0.750000 0.633699
O O18 0.750000 0.500000 0.632177
#
# Coordination Sequence:
#
# PCOD9500274 Si02
#       6
#    16  16   8  16  16  16
#     4   9  19  35  53  70  89 119 159 200 243 293
#     4  10  17  26  43  69 100 132 164 201 245 298
#     4  10  22  40  58  82 114 150 188 232 281 332
#     4   9  15  26  46  72  99 132 169 210 252 300
#     4   9  19  35  57  82 111 145 187 231 276 329
#     4  10  19  31  48  71  99 127 159 199 243 295
#
# _framework density 20.610292000000001
#
# number of rings (size 3 to 8) (size 9 to 14) (size 15 to 20)
#    0.000    2.545    0.000    4.909    0.000    3.636 
#    0.000    3.636    2.000    0.000    0.000    0.000 
#    0.000    0.000    0.000    0.000    0.000    0.000 
#
# Total GULP energy -245214.734590 kJ/mol
# GULP energy per Si atom -5573.062150 kJ/mol
# Density = 2.056338 g / cm^3
# Si number density = 20.610292 Si / 1000 Ang^3
#
#
#
# Elastic Constant Matrix: (Units=GPa)
#
#
# Indices 1 2 3 4 5 6 
#
# 1 55.5509 13.9445 52.6734 0.0000 0.0000 0.0000
# 2 13.9445 76.9617 68.4263 0.0000 0.0000 0.0000
# 3 52.6734 68.4263 259.2726 0.0000 0.0000 0.0000
# 4 0.0000 0.0000 0.0000 -130.5522 0.0000 0.0000
# 5 0.0000 0.0000 0.0000 0.0000 91.1080 0.0000
# 6 0.0000 0.0000 0.0000 0.0000 0.0000 7.0490
#
#
#
# Elastic Compliance Matrix: (Units=1/GPa)
#
#
# Indices 1 2 3 4 5 6 
#
# 1 0.022297 -0.000016 -0.004525 0.000000 0.000000 0.000000
# 2 -0.000016 0.016977 -0.004477 0.000000 0.000000 0.000000
# 3 -0.004525 -0.004477 0.005958 0.000000 0.000000 0.000000
# 4 0.000000 0.000000 0.000000 -0.007660 0.000000 0.000000
# 5 0.000000 0.000000 0.000000 0.000000 0.010976 0.000000
# 6 0.000000 0.000000 0.000000 0.000000 0.000000 0.141864
#
#
# Mechanical properties :
#
#
# Convention : Reuss Voigt Hill
#
# Bulk Modulus (GPa) = 36.77322 73.54151 55.15737
# Shear Modulus (GPa) = 22.98696 10.63702 16.81199
#
# Velocity S-wave (km/s) = 3.34326 2.27425 2.85916
# Velocity P-wave (km/s) = 5.72573 6.53113 6.14165
#
# Compressibility (1/GPa) = 0.02719370
#
# Stress axis : x y z
#
# Youngs Moduli (GPa) = 44.84981 58.90280 167.84332
#
# Poissons Ratio (x) = 0.00096 0.75956
# Poissons Ratio (y) = 0.00073 0.75147
# Poissons Ratio (z) = 0.20297 0.26372
#
# Static dielectric constant tensor:
#      x y z
#    x 1.778380 0.000000 0.000000 
#    y 0.000000 1.469080 0.000000 
#    z 0.000000 0.000000 1.814260 
# 
# From -- ./inp_files/45789.got.cif
#   From: 2010.05.17/outbox.cif.g08.bks.cpg/sg67_23_cif.got.tgz:45789.got - 2010.06.03 18:28:57.
