data_PCOD9500379
_publ_section_title
;
Structure prediction by ZEFSAII (Michael W. Deem and Ramdas Pophale) SiO2 
 PCOD9500379
Probable space group: C M M A
;
_chemical_formula_sum "Si O2"
_cell_formula_units_Z 96
_cell_length_a 8.642568
_cell_length_b 19.179833
_cell_length_c 31.968389
_cell_angle_alpha 90.000000
_cell_angle_beta 90.000000
_cell_angle_gamma 90.000000
_cell_volume 5299.176415
_symmetry_space_group_name_H-M "C M M A"
_symmetry_group_IT_number 67
_symmetry_cell_setting 'orthorhombic'
loop_
_space_group_symop_operation_xyz
x,y,z
-x,1/2-y,z
x,-y,-z
-x,1/2+y,-z
-x,-y,-z
x,1/2+y,-z
-x,y,z
x,1/2-y,z
1/2+x,1/2+y,z
1/2-x,-y,z
1/2+x,1/2-y,-z
1/2-x,y,-z
1/2-x,1/2-y,-z
1/2+x,y,-z
1/2-x,1/2+y,z
1/2+x,-y,z
loop_
_atom_site_type_symbol
_atom_site_label
_atom_site_fract_x
_atom_site_fract_y
_atom_site_fract_z
Si Si1 0.812681 0.831437 0.706792
Si Si2 0.814920 0.420673 0.457049
Si Si3 0.184779 0.921296 0.369534
Si Si4 0.686344 0.922602 0.214072
Si Si5 0.184895 0.331411 0.955623
Si Si6 0.185603 0.077546 0.119417
O O1 0.771079 0.750000 0.706337
O O2 0.737644 0.873568 0.668748
O O3 0.765858 0.868688 0.750159
O O4 0.000000 0.836392 0.703311
O O5 0.750000 0.500000 0.456669
O O6 0.750000 0.388197 0.500000
O O7 0.753454 0.391672 0.413137
O O8 0.000000 0.421943 0.457908
O O9 0.000000 0.925339 0.372558
O O10 0.250000 0.000000 0.363613
O O11 0.500000 0.926493 0.214637
O O12 0.732867 0.901922 0.166849
O O13 0.750000 0.000000 0.222680
O O14 0.229764 0.250000 0.952142
O O15 0.250039 0.372705 0.916269
O O16 0.000000 0.336136 0.956316
O O17 0.250000 0.357856 0.000000
O O18 0.000000 0.076615 0.117552
O O19 0.250000 0.000000 0.112612
#
# Coordination Sequence:
#
# PCOD9500379 Si02
#       6
#    16  16  16  16  16  16
#     4  10  21  37  55  77 107 141 177 218 265 316
#     4  10  17  28  47  74 106 137 172 215 264 312
#     4  11  21  34  53  78 107 140 180 221 265 315
#     4   9  19  35  56  80 106 139 176 217 264 316
#     4  10  21  37  56  79 108 142 180 221 265 314
#     4  10  20  35  56  82 111 141 176 218 265 316
#
# _framework density 18.116022000000001
#
# number of rings (size 3 to 8) (size 9 to 14) (size 15 to 20)
#    0.000    2.000    0.000    6.000    0.000    5.000 
#    0.000    3.333    0.000    0.500    0.000    0.000 
#    0.000    0.000    0.000    0.000    0.000    0.000 
#
# Total GULP energy -267924.711460 kJ/mol
# GULP energy per Si atom -5581.764822 kJ/mol
# Density = 1.807479 g / cm^3
# Si number density = 18.116022 Si / 1000 Ang^3
#
#
#
# Elastic Constant Matrix: (Units=GPa)
#
#
# Indices 1 2 3 4 5 6 
#
# 1 85.3261 41.2168 65.7873 0.0000 0.0000 0.0000
# 2 41.2168 80.0665 97.8969 0.0000 0.0000 0.0000
# 3 65.7873 97.8969 198.6184 0.0000 0.0000 0.0000
# 4 0.0000 0.0000 0.0000 -18.7694 0.0000 0.0000
# 5 0.0000 0.0000 0.0000 0.0000 45.3100 0.0000
# 6 0.0000 0.0000 0.0000 0.0000 0.0000 22.8604
#
#
#
# Elastic Compliance Matrix: (Units=1/GPa)
#
#
# Indices 1 2 3 4 5 6 
#
# 1 0.016365 -0.004522 -0.003192 0.000000 0.000000 0.000000
# 2 -0.004522 0.032682 -0.014611 0.000000 0.000000 0.000000
# 3 -0.003192 -0.014611 0.013293 0.000000 0.000000 0.000000
# 4 0.000000 0.000000 0.000000 -0.053278 0.000000 0.000000
# 5 0.000000 0.000000 0.000000 0.000000 0.022070 0.000000
# 6 0.000000 0.000000 0.000000 0.000000 0.000000 0.043744
#
#
# Mechanical properties :
#
#
# Convention : Reuss Voigt Hill
#
# Bulk Modulus (GPa) = 56.52438 85.97924 71.25181
# Shear Modulus (GPa) = 39.86538 20.48753 30.17646
#
# Velocity S-wave (km/s) = 4.69610 3.36654 4.08577
# Velocity P-wave (km/s) = 7.78932 7.91675 7.85329
#
# Compressibility (1/GPa) = 0.01769148
#
# Stress axis : x y z
#
# Youngs Moduli (GPa) = 61.10664 30.59784 75.22509
#
# Poissons Ratio (x) = 0.13836 0.24009
# Poissons Ratio (y) = 0.27632 1.09910
# Poissons Ratio (z) = 0.19503 0.44706
#
# Static dielectric constant tensor:
#      x y z
#    x 1.608710 0.000000 0.000000 
#    y 0.000000 1.590770 0.000000 
#    z 0.000000 0.000000 1.647480 
# 
# From -- ./inp_files/43439.got.cif
#   From: 2010.05.17/outbox.cif.g08.bks.cpg/sg67_22_cif.got.tgz:43439.got - 2010.06.03 18:28:57.
