data_PCOD9500711
_publ_section_title
;
Structure prediction by ZEFSAII (Michael W. Deem and Ramdas Pophale) SiO2 
 PCOD9500711
Probable space group: C M M A
;
_chemical_formula_sum "Si O2"
_cell_formula_units_Z 80
_cell_length_a 15.645682
_cell_length_b 20.355983
_cell_length_c 13.254334
_cell_angle_alpha 90.000000
_cell_angle_beta 90.000000
_cell_angle_gamma 90.000000
_cell_volume 4221.283194
_symmetry_space_group_name_H-M "C M M A"
_symmetry_group_IT_number 67
_symmetry_cell_setting 'orthorhombic'
loop_
_space_group_symop_operation_xyz
x,y,z
-x,1/2-y,z
x,-y,-z
-x,1/2+y,-z
-x,-y,-z
x,1/2+y,-z
-x,y,z
x,1/2-y,z
1/2+x,1/2+y,z
1/2-x,-y,z
1/2+x,1/2-y,-z
1/2-x,y,-z
1/2-x,1/2-y,-z
1/2+x,y,-z
1/2-x,1/2+y,z
1/2+x,-y,z
loop_
_atom_site_type_symbol
_atom_site_label
_atom_site_fract_x
_atom_site_fract_y
_atom_site_fract_z
Si Si1 0.895301 0.825365 0.888090
Si Si2 0.901565 0.894428 0.687971
Si Si3 0.840796 0.464634 0.730136
Si Si4 0.896703 0.430847 0.946808
Si Si5 0.399450 0.422449 0.473162
O O1 0.870511 0.750000 0.901431
O O2 0.863535 0.854362 0.781161
O O3 0.000000 0.828353 0.885637
O O4 0.868812 0.872544 0.979314
O O5 0.864306 0.888609 0.574916
O O6 0.000000 0.873361 0.677943
O O7 0.902076 0.971469 0.719110
O O8 0.750000 0.500000 0.725831
O O9 0.856939 0.430225 0.836066
O O10 0.854154 0.417489 0.634354
O O11 0.000000 0.428554 0.936606
O O12 0.875016 0.500000 0.000000
O O13 0.394032 0.500000 0.500000
O O14 0.500000 0.406589 0.460918
#
# Coordination Sequence:
#
# PCOD9500711 Si02
#       5
#    16  16  16  16  16
#     4   9  17  30  51  76  98 126 169 214 251 294
#     4   9  16  30  49  70  97 126 160 202 252 300
#     4  11  20  28  44  71 103 131 163 202 246 293
#     4  10  18  31  51  71  97 131 165 205 255 299
#     4   8  15  27  45  67  93 124 157 196 247 300
#
# _framework density 18.951584
#
# number of rings (size 3 to 8) (size 9 to 14) (size 15 to 20)
#    0.000    2.600    2.000    3.000    0.000    4.000 
#    0.000    0.000    0.000    3.600    0.000    7.000 
#    0.000    0.000    0.000    0.000    0.000    0.000 
#
# Total GULP energy -222917.096466 kJ/mol
# GULP energy per Si atom -5572.927412 kJ/mol
# Density = 1.890845 g / cm^3
# Si number density = 18.951584 Si / 1000 Ang^3
#
#
#
# Elastic Constant Matrix: (Units=GPa)
#
#
# Indices 1 2 3 4 5 6 
#
# 1 30.7968 4.0765 40.3130 0.0000 0.0000 0.0000
# 2 4.0765 81.9361 79.7952 0.0000 0.0000 0.0000
# 3 40.3130 79.7952 246.4661 0.0000 0.0000 0.0000
# 4 0.0000 0.0000 0.0000 19.6720 0.0000 0.0000
# 5 0.0000 0.0000 0.0000 0.0000 -8.3156 0.0000
# 6 0.0000 0.0000 0.0000 0.0000 0.0000 29.5881
#
#
#
# Elastic Compliance Matrix: (Units=1/GPa)
#
#
# Indices 1 2 3 4 5 6 
#
# 1 0.043923 0.007027 -0.009459 0.000000 0.000000 0.000000
# 2 0.007027 0.018949 -0.007284 0.000000 0.000000 0.000000
# 3 -0.009459 -0.007284 0.007963 0.000000 0.000000 0.000000
# 4 0.000000 0.000000 0.000000 0.050834 0.000000 0.000000
# 5 0.000000 0.000000 0.000000 0.000000 -0.120256 0.000000
# 6 0.000000 0.000000 0.000000 0.000000 0.000000 0.033797
#
#
# Mechanical properties :
#
#
# Convention : Reuss Voigt Hill
#
# Bulk Modulus (GPa) = 19.45473 67.50760 43.48116
# Shear Modulus (GPa) = 69.66058 23.85652 46.75855
#
# Velocity S-wave (km/s) = 6.06934 3.55183 4.97254
# Velocity P-wave (km/s) = 7.70738 7.24700 7.48073
#
# Compressibility (1/GPa) = 0.05140137
#
# Stress axis : x y z
#
# Youngs Moduli (GPa) = 22.76721 52.77355 125.58346
#
# Poissons Ratio (x) = -0.37083 1.18791
# Poissons Ratio (y) = -0.15998 0.91477
# Poissons Ratio (z) = 0.21536 0.38441
#
# Static dielectric constant tensor:
#      x y z
#    x 1.729990 0.000000 0.000000 
#    y 0.000000 1.628980 0.000000 
#    z 0.000000 0.000000 1.705600 
# 
# From -- ./inp_files/17960.got.cif
#   From: 2010.05.17/outbox.cif.g08.bks.cpg/sg67_9_cif.got.tgz:17960.got - 2010.06.03 18:28:57.
