data_PCOD9500701
_publ_section_title
;
Structure prediction by ZEFSAII (Michael W. Deem and Ramdas Pophale) SiO2 
 PCOD9500701
Probable space group: C M M A
;
_chemical_formula_sum "Si O2"
_cell_formula_units_Z 128
_cell_length_a 18.423795
_cell_length_b 25.681481
_cell_length_c 17.773133
_cell_angle_alpha 90.000000
_cell_angle_beta 90.000000
_cell_angle_gamma 90.000000
_cell_volume 8409.363944
_symmetry_space_group_name_H-M "C M M A"
_symmetry_group_IT_number 67
_symmetry_cell_setting 'orthorhombic'
loop_
_space_group_symop_operation_xyz
x,y,z
-x,1/2-y,z
x,-y,-z
-x,1/2+y,-z
-x,-y,-z
x,1/2+y,-z
-x,y,z
x,1/2-y,z
1/2+x,1/2+y,z
1/2-x,-y,z
1/2+x,1/2-y,-z
1/2-x,y,-z
1/2-x,1/2-y,-z
1/2+x,y,-z
1/2-x,1/2+y,z
1/2+x,-y,z
loop_
_atom_site_type_symbol
_atom_site_label
_atom_site_fract_x
_atom_site_fract_y
_atom_site_fract_z
Si Si1 0.861393 0.810266 0.711804
Si Si2 0.799801 0.344481 0.672424
Si Si3 0.918444 0.113614 0.409871
Si Si4 0.231294 0.440416 0.412351
Si Si5 0.672994 0.312743 0.878443
Si Si6 0.917973 0.313360 0.980105
Si Si7 0.083808 0.690631 0.449367
Si Si8 0.836078 0.687183 0.166126
O O1 0.883464 0.750000 0.707791
O O2 0.777395 0.814817 0.683489
O O3 0.908850 0.846951 0.659615
O O4 0.861676 0.828558 0.798662
O O5 0.776143 0.400500 0.639769
O O6 0.855762 0.319180 0.613810
O O7 0.836519 0.341998 0.754483
O O8 0.853975 0.072150 0.403749
O O9 0.906525 0.149095 0.484039
O O10 0.000000 0.092189 0.412342
O O11 0.250000 0.500000 0.395469
O O12 0.250000 0.430373 0.500000
O O13 0.666844 0.250000 0.879632
O O14 0.758230 0.323527 0.872494
O O15 0.634832 0.332450 0.953682
O O16 0.914119 0.250000 0.980454
O O17 0.894672 0.328280 0.896028
O O18 0.000000 0.328640 0.996834
O O19 0.091663 0.750000 0.478006
O O20 0.000000 0.685540 0.421634
O O21 0.840338 0.750000 0.180495
#
# Coordination Sequence:
#
# PCOD9500701 Si02
#       8
#    16  16  16  16  16  16  16  16
#     4   9  17  27  44  67  93 126 158 189 226 269
#     4  10  18  31  47  66  89 119 158 195 227 274
#     4  10  20  33  47  69  96 120 150 188 232 278
#     4  10  20  37  55  70  86 112 153 199 241 280
#     4   8  14  25  38  56  83 119 158 188 216 255
#     4   9  16  24  36  56  84 121 158 186 215 254
#     4  10  19  29  42  64  96 129 155 182 218 264
#     4   9  16  26  41  60  87 119 152 185 221 263
#
# _framework density 15.221126999999999
#
# number of rings (size 3 to 8) (size 9 to 14) (size 15 to 20)
#    0.000    2.625    1.250    2.625    0.000    3.250 
#    0.000    6.250    0.000    0.000    0.000    0.000 
#    0.000   18.000    0.000   11.250    0.000    1.125 
#
# Total GULP energy -356419.412415 kJ/mol
# GULP energy per Si atom -5569.053319 kJ/mol
# Density = 1.518648 g / cm^3
# Si number density = 15.221127 Si / 1000 Ang^3
#
#
#
# Elastic Constant Matrix: (Units=GPa)
#
#
# Indices 1 2 3 4 5 6 
#
# 1 52.8011 27.2021 18.8018 0.0000 0.0000 0.0000
# 2 27.2021 59.3813 23.0550 0.0000 0.0000 0.0000
# 3 18.8018 23.0550 60.5592 0.0000 0.0000 0.0000
# 4 0.0000 0.0000 0.0000 7.0368 0.0000 0.0000
# 5 0.0000 0.0000 0.0000 0.0000 18.9789 0.0000
# 6 0.0000 0.0000 0.0000 0.0000 0.0000 10.8414
#
#
#
# Elastic Compliance Matrix: (Units=1/GPa)
#
#
# Indices 1 2 3 4 5 6 
#
# 1 0.025625 -0.010150 -0.004092 0.000000 0.000000 0.000000
# 2 -0.010150 0.023782 -0.005902 0.000000 0.000000 0.000000
# 3 -0.004092 -0.005902 0.020030 0.000000 0.000000 0.000000
# 4 0.000000 0.000000 0.000000 0.142111 0.000000 0.000000
# 5 0.000000 0.000000 0.000000 0.000000 0.052690 0.000000
# 6 0.000000 0.000000 0.000000 0.000000 0.000000 0.092239
#
#
# Mechanical properties :
#
#
# Convention : Reuss Voigt Hill
#
# Bulk Modulus (GPa) = 34.30697 34.53994 34.42346
# Shear Modulus (GPa) = 12.30070 14.28360 13.29215
#
# Velocity S-wave (km/s) = 2.84585 3.06666 2.95832
# Velocity P-wave (km/s) = 5.77810 5.93975 5.85948
#
# Compressibility (1/GPa) = 0.02914859
#
# Stress axis : x y z
#
# Youngs Moduli (GPa) = 39.02429 42.04933 49.92466
#
# Poissons Ratio (x) = 0.42680 0.20427
# Poissons Ratio (y) = 0.39610 0.29468
# Poissons Ratio (z) = 0.15967 0.24819
#
# Static dielectric constant tensor:
#      x y z
#    x 1.526290 0.000000 0.000000 
#    y 0.000000 1.475080 0.000000 
#    z 0.000000 0.000000 1.519190 
# 
# From -- ./inp_files/34563.got.cif
#   From: 2010.05.17/outbox.cif.g08.bks.cpg/sg67_18_cif.got.tgz:34563.got - 2010.06.03 18:28:57.
