data_PCOD9500828
_publ_section_title
;
Structure prediction by ZEFSAII (Michael W. Deem and Ramdas Pophale) SiO2 
 PCOD9500828
Probable space group: C M M A
;
_chemical_formula_sum "Si O2"
_cell_formula_units_Z 72
_cell_length_a 20.513155
_cell_length_b 8.714215
_cell_length_c 24.830024
_cell_angle_alpha 90.000000
_cell_angle_beta 90.000000
_cell_angle_gamma 90.000000
_cell_volume 4438.516838
_symmetry_space_group_name_H-M "C M M A"
_symmetry_group_IT_number 67
_symmetry_cell_setting 'orthorhombic'
loop_
_space_group_symop_operation_xyz
x,y,z
-x,1/2-y,z
x,-y,-z
-x,1/2+y,-z
-x,-y,-z
x,1/2+y,-z
-x,y,z
x,1/2-y,z
1/2+x,1/2+y,z
1/2-x,-y,z
1/2+x,1/2-y,-z
1/2-x,y,-z
1/2-x,1/2-y,-z
1/2+x,y,-z
1/2-x,1/2+y,z
1/2+x,-y,z
loop_
_atom_site_type_symbol
_atom_site_label
_atom_site_fract_x
_atom_site_fract_y
_atom_site_fract_z
Si Si1 0.425201 0.934994 0.058582
Si Si2 0.500000 0.933063 0.559632
Si Si3 0.678368 0.434982 0.850863
Si Si4 0.572959 0.069355 0.653899
Si Si5 0.678670 0.933034 0.733267
O O1 0.500000 0.982543 0.070415
O O2 0.424124 0.750000 0.055915
O O3 0.374630 0.981959 0.104679
O O4 0.407570 0.000000 0.000000
O O5 0.500000 0.750000 0.558945
O O6 0.500000 0.000000 0.500000
O O7 0.561014 0.995966 0.594975
O O8 0.681285 0.250000 0.848459
O O9 0.750000 0.500000 0.864214
O O10 0.660981 0.498837 0.791868
O O11 0.500000 0.054233 0.679194
O O12 0.587305 0.250000 0.649322
O O13 0.626366 0.986072 0.689405
O O14 0.682182 0.750000 0.736545
O O15 0.750000 0.000000 0.719957
#
# Coordination Sequence:
#
# PCOD9500828 Si02
#       5
#    16   8  16  16  16
#     4   9  19  35  53  72  95 126 163 206 256 309
#     4  10  18  32  54  82 112 144 181 220 261 304
#     4  10  20  34  51  72  99 131 168 208 256 311
#     4   9  19  34  53  78 107 140 177 218 262 306
#     4  11  21  34  53  76 106 140 176 217 264 317
#
# _framework density 16.221634999999999
#
# number of rings (size 3 to 8) (size 9 to 14) (size 15 to 20)
#    0.667    1.556    0.000    5.333    0.000    3.111 
#    0.000    4.444    0.000    0.667    0.000    4.667 
#    0.000    0.000    0.000    0.000    0.000    0.000 
#
# Total GULP energy -200622.318129 kJ/mol
# GULP energy per Si atom -5572.842170 kJ/mol
# Density = 1.618471 g / cm^3
# Si number density = 16.221635 Si / 1000 Ang^3
#
#
#
# Elastic Constant Matrix: (Units=GPa)
#
#
# Indices 1 2 3 4 5 6 
#
# 1 87.3741 49.6820 100.1381 0.0000 0.0000 0.0000
# 2 49.6820 106.4199 57.8333 0.0000 0.0000 0.0000
# 3 100.1381 57.8333 143.7452 0.0000 0.0000 0.0000
# 4 0.0000 0.0000 0.0000 31.5343 0.0000 0.0000
# 5 0.0000 0.0000 0.0000 0.0000 -33.6418 0.0000
# 6 0.0000 0.0000 0.0000 0.0000 0.0000 27.1583
#
#
#
# Elastic Compliance Matrix: (Units=1/GPa)
#
#
# Indices 1 2 3 4 5 6 
#
# 1 0.060411 -0.006824 -0.039339 0.000000 0.000000 0.000000
# 2 -0.006824 0.012797 -0.000395 0.000000 0.000000 0.000000
# 3 -0.039339 -0.000395 0.034521 0.000000 0.000000 0.000000
# 4 0.000000 0.000000 0.000000 0.031712 0.000000 0.000000
# 5 0.000000 0.000000 0.000000 0.000000 -0.029725 0.000000
# 6 0.000000 0.000000 0.000000 0.000000 0.000000 0.036821
#
#
# Mechanical properties :
#
#
# Convention : Reuss Voigt Hill
#
# Bulk Modulus (GPa) = 68.43251 83.64957 76.04104
# Shear Modulus (GPa) = 20.44790 13.66920 17.05855
#
# Velocity S-wave (km/s) = 3.55425 2.90600 3.24634
# Velocity P-wave (km/s) = 7.68903 7.93337 7.81215
#
# Compressibility (1/GPa) = 0.01461294
#
# Stress axis : x y z
#
# Youngs Moduli (GPa) = 16.55317 78.14252 28.96828
#
# Poissons Ratio (x) = 0.53328 1.13959
# Poissons Ratio (y) = 0.11297 0.01143
# Poissons Ratio (z) = 0.65119 0.03083
#
# Static dielectric constant tensor:
#      x y z
#    x 1.537070 0.000000 0.000000 
#    y 0.000000 1.542780 0.000000 
#    z 0.000000 0.000000 1.518610 
# 
# From -- ./inp_files/35358.got.cif
#   From: 2010.05.17/outbox.cif.g08.bks.cpg/sg67_18_cif.got.tgz:35358.got - 2010.06.03 18:28:57.
