data_PCOD9500378
_publ_section_title
;
Structure prediction by ZEFSAII (Michael W. Deem and Ramdas Pophale) SiO2 
 PCOD9500378
Probable space group: C M M A
;
_chemical_formula_sum "Si O2"
_cell_formula_units_Z 80
_cell_length_a 8.627734
_cell_length_b 18.503365
_cell_length_c 27.270834
_cell_angle_alpha 90.000000
_cell_angle_beta 90.000000
_cell_angle_gamma 90.000000
_cell_volume 4353.573517
_symmetry_space_group_name_H-M "C M M A"
_symmetry_group_IT_number 67
_symmetry_cell_setting 'orthorhombic'
loop_
_space_group_symop_operation_xyz
x,y,z
-x,1/2-y,z
x,-y,-z
-x,1/2+y,-z
-x,-y,-z
x,1/2+y,-z
-x,y,z
x,1/2-y,z
1/2+x,1/2+y,z
1/2-x,-y,z
1/2+x,1/2-y,-z
1/2-x,y,-z
1/2-x,1/2-y,-z
1/2+x,y,-z
1/2-x,1/2+y,z
1/2+x,-y,z
loop_
_atom_site_type_symbol
_atom_site_label
_atom_site_fract_x
_atom_site_fract_y
_atom_site_fract_z
Si Si1 0.185541 0.417854 0.450060
Si Si2 0.685005 0.582334 0.050367
Si Si3 0.813228 0.665209 0.754887
Si Si4 0.815612 0.918682 0.152152
Si Si5 0.686960 0.081364 0.657471
O O1 0.250000 0.500000 0.449187
O O2 0.250000 0.383250 0.500000
O O3 0.230737 0.388097 0.396420
O O4 0.000000 0.420007 0.453431
O O5 0.500000 0.580601 0.049019
O O6 0.750000 0.500000 0.051094
O O7 0.744475 0.613475 0.101838
O O8 0.750000 0.615798 0.000000
O O9 0.779312 0.750000 0.754259
O O10 0.733864 0.626818 0.800798
O O11 0.763273 0.628448 0.703818
O O12 0.000000 0.656152 0.759314
O O13 0.000000 0.922629 0.147240
O O14 0.750000 0.000000 0.158221
O O15 0.500000 0.077793 0.658063
O O16 0.750000 0.000000 0.662178
#
# Coordination Sequence:
#
# PCOD9500378 Si02
#       5
#    16  16  16  16  16
#     4   9  15  24  40  65  95 123 154 193 241 292
#     4  10  17  28  47  74 106 136 167 204 250 297
#     4  10  21  37  54  72  98 133 171 211 257 306
#     4  11  21  34  53  78 106 135 171 211 252 299
#     4   9  18  31  49  73  98 127 163 204 248 297
#
# _framework density 18.375710000000002
#
# number of rings (size 3 to 8) (size 9 to 14) (size 15 to 20)
#    0.000    2.200    0.000    7.200    0.000    3.600 
#    0.000    0.000    0.000    1.200    0.000    0.000 
#    0.000    0.000    0.000    0.000    0.000    5.400 
#
# Total GULP energy -223028.353696 kJ/mol
# GULP energy per Si atom -5575.708842 kJ/mol
# Density = 1.833389 g / cm^3
# Si number density = 18.375710 Si / 1000 Ang^3
#
#
#
# Elastic Constant Matrix: (Units=GPa)
#
#
# Indices 1 2 3 4 5 6 
#
# 1 101.6124 30.1754 76.5273 0.0000 0.0000 0.0000
# 2 30.1754 38.9238 54.1280 0.0000 0.0000 0.0000
# 3 76.5273 54.1280 229.2825 0.0000 0.0000 0.0000
# 4 0.0000 0.0000 0.0000 -6.2391 0.0000 0.0000
# 5 0.0000 0.0000 0.0000 0.0000 35.7911 0.0000
# 6 0.0000 0.0000 0.0000 0.0000 0.0000 12.1238
#
#
#
# Elastic Compliance Matrix: (Units=1/GPa)
#
#
# Indices 1 2 3 4 5 6 
#
# 1 0.014192 -0.006573 -0.003185 0.000000 0.000000 0.000000
# 2 -0.006573 0.041292 -0.007554 0.000000 0.000000 0.000000
# 3 -0.003185 -0.007554 0.007208 0.000000 0.000000 0.000000
# 4 0.000000 0.000000 0.000000 -0.160280 0.000000 0.000000
# 5 0.000000 0.000000 0.000000 0.000000 0.027940 0.000000
# 6 0.000000 0.000000 0.000000 0.000000 0.000000 0.082482
#
#
# Mechanical properties :
#
#
# Convention : Reuss Voigt Hill
#
# Bulk Modulus (GPa) = 35.62875 76.83113 56.22994
# Shear Modulus (GPa) = 88.00581 22.26769 55.13675
#
# Velocity S-wave (km/s) = 6.92795 3.48487 5.48365
# Velocity P-wave (km/s) = 9.13380 7.62197 8.41192
#
# Compressibility (1/GPa) = 0.02806722
#
# Stress axis : x y z
#
# Youngs Moduli (GPa) = 70.46165 24.21786 138.73697
#
# Poissons Ratio (x) = 0.15918 0.44190
# Poissons Ratio (y) = 0.46315 1.04804
# Poissons Ratio (z) = 0.22443 0.18294
#
# Static dielectric constant tensor:
#      x y z
#    x 1.618060 0.000000 0.000000 
#    y 0.000000 1.584980 0.000000 
#    z 0.000000 0.000000 1.706470 
# 
# From -- ./inp_files/43269.got.cif
#   From: 2010.05.17/outbox.cif.g08.bks.cpg/sg67_22_cif.got.tgz:43269.got - 2010.06.03 18:28:57.
