data_PCOD9500296
_publ_section_title
;
Structure prediction by ZEFSAII (Michael W. Deem and Ramdas Pophale) SiO2 
 PCOD9500296
Probable space group: C M M A
;
_chemical_formula_sum "Si O2"
_cell_formula_units_Z 64
_cell_length_a 8.749228
_cell_length_b 31.678227
_cell_length_c 15.653799
_cell_angle_alpha 90.000000
_cell_angle_beta 90.000000
_cell_angle_gamma 90.000000
_cell_volume 4338.607411
_symmetry_space_group_name_H-M "C M M A"
_symmetry_group_IT_number 67
_symmetry_cell_setting 'orthorhombic'
loop_
_space_group_symop_operation_xyz
x,y,z
-x,1/2-y,z
x,-y,-z
-x,1/2+y,-z
-x,-y,-z
x,1/2+y,-z
-x,y,z
x,1/2-y,z
1/2+x,1/2+y,z
1/2-x,-y,z
1/2+x,1/2-y,-z
1/2-x,y,-z
1/2-x,1/2-y,-z
1/2+x,y,-z
1/2-x,1/2+y,z
1/2+x,-y,z
loop_
_atom_site_type_symbol
_atom_site_label
_atom_site_fract_x
_atom_site_fract_y
_atom_site_fract_z
Si Si1 0.675974 0.198686 0.588511
Si Si2 0.683526 0.956860 0.096791
Si Si3 0.684504 0.369035 0.095548
Si Si4 0.816254 0.798356 0.231355
O O1 0.500000 0.186141 0.591751
O O2 0.682954 0.250000 0.586509
O O3 0.750000 0.183684 0.500000
O O4 0.758607 0.186539 0.676165
O O5 0.500000 0.957828 0.094779
O O6 0.746102 0.912672 0.132375
O O7 0.750000 0.000000 0.136481
O O8 0.750000 0.956366 0.000000
O O9 0.500000 0.372452 0.091109
O O10 0.728360 0.330072 0.156102
O O11 0.750000 0.363051 0.000000
O O12 0.762109 0.750000 0.217368
O O13 0.000000 0.797350 0.233667
#
# Coordination Sequence:
#
# PCOD9500296 Si02
#       4
#    16  16  16  16
#     4   9  16  26  42  62  82 105 135 173 216 258
#     4  10  17  27  43  61  81 104 134 172 215 258
#     4  10  19  30  43  60  84 114 147 180 213 249
#     4   9  18  31  44  59  83 115 148 180 212 247
#
# _framework density 14.751276000000001
#
# number of rings (size 3 to 8) (size 9 to 14) (size 15 to 20)
#    0.000    2.500    0.000    6.000    0.000    5.500 
#    0.000    0.000    0.000    0.000    0.000    0.000 
#    0.000    1.000    0.000   10.500    0.000    5.000 
#
# Total GULP energy -178186.395077 kJ/mol
# GULP energy per Si atom -5568.324846 kJ/mol
# Density = 1.471770 g / cm^3
# Si number density = 14.751276 Si / 1000 Ang^3
#
#
#
# Elastic Constant Matrix: (Units=GPa)
#
#
# Indices 1 2 3 4 5 6 
#
# 1 68.6546 38.4906 30.8139 0.0000 0.0000 0.0000
# 2 38.4906 95.9453 58.6039 0.0000 0.0000 0.0000
# 3 30.8139 58.6039 83.4677 0.0000 0.0000 0.0000
# 4 0.0000 0.0000 0.0000 -0.2881 0.0000 0.0000
# 5 0.0000 0.0000 0.0000 0.0000 20.5099 0.0000
# 6 0.0000 0.0000 0.0000 0.0000 0.0000 8.9713
#
#
#
# Elastic Compliance Matrix: (Units=1/GPa)
#
#
# Indices 1 2 3 4 5 6 
#
# 1 0.019196 -0.005905 -0.002941 0.000000 0.000000 0.000000
# 2 -0.005905 0.020065 -0.011908 0.000000 0.000000 0.000000
# 3 -0.002941 -0.011908 0.021427 0.000000 0.000000 0.000000
# 4 0.000000 0.000000 0.000000 -3.470909 0.000000 0.000000
# 5 0.000000 0.000000 0.000000 0.000000 0.048757 0.000000
# 6 0.000000 0.000000 0.000000 0.000000 0.000000 0.111466
#
#
# Mechanical properties :
#
#
# Convention : Reuss Voigt Hill
#
# Bulk Modulus (GPa) = 52.13502 55.98716 54.06109
# Shear Modulus (GPa) = -1.56148 13.84923 6.14388
#
# Velocity S-wave (km/s) = -1.02997 3.06739 2.04304
# Velocity P-wave (km/s) = 5.83138 7.11208 6.50333
#
# Compressibility (1/GPa) = 0.01918097
#
# Stress axis : x y z
#
# Youngs Moduli (GPa) = 52.09431 49.83845 46.66969
#
# Poissons Ratio (x) = 0.29427 0.13725
# Poissons Ratio (y) = 0.30759 0.55574
# Poissons Ratio (z) = 0.15321 0.59348
#
# Static dielectric constant tensor:
#      x y z
#    x 1.474500 0.000000 0.000000 
#    y 0.000000 1.524680 0.000000 
#    z 0.000000 0.000000 1.470520 
# 
# From -- ./inp_files/25201.got.cif
#   From: 2010.05.17/outbox.cif.g08.bks.cpg/sg67_13_cif.got.tgz:25201.got - 2010.06.03 18:28:57.
