data_PCOD9500370
_publ_section_title
;
Structure prediction by ZEFSAII (Michael W. Deem and Ramdas Pophale) SiO2 
 PCOD9500370
Probable space group: C M M A
;
_chemical_formula_sum "Si O2"
_cell_formula_units_Z 64
_cell_length_a 8.811652
_cell_length_b 15.012811
_cell_length_c 21.707186
_cell_angle_alpha 90.000000
_cell_angle_beta 90.000000
_cell_angle_gamma 90.000000
_cell_volume 2871.592973
_symmetry_space_group_name_H-M "C M M A"
_symmetry_group_IT_number 67
_symmetry_cell_setting 'orthorhombic'
loop_
_space_group_symop_operation_xyz
x,y,z
-x,1/2-y,z
x,-y,-z
-x,1/2+y,-z
-x,-y,-z
x,1/2+y,-z
-x,y,z
x,1/2-y,z
1/2+x,1/2+y,z
1/2-x,-y,z
1/2+x,1/2-y,-z
1/2-x,y,-z
1/2-x,1/2-y,-z
1/2+x,y,-z
1/2-x,1/2+y,z
1/2+x,-y,z
loop_
_atom_site_type_symbol
_atom_site_label
_atom_site_fract_x
_atom_site_fract_y
_atom_site_fract_z
Si Si1 0.668119 0.355082 0.812078
Si Si2 0.326030 0.359221 0.064009
Si Si3 0.682306 0.601142 0.437250
Si Si4 0.680097 0.401435 0.313195
O O1 0.500000 0.393143 0.799093
O O2 0.651620 0.250000 0.822505
O O3 0.738245 0.391014 0.875229
O O4 0.774577 0.363202 0.752812
O O5 0.500000 0.387816 0.066486
O O6 0.325110 0.250000 0.064454
O O7 0.250000 0.386749 0.000000
O O8 0.500000 0.598832 0.439198
O O9 0.750000 0.500000 0.436369
O O10 0.750000 0.641599 0.500000
O O11 0.741250 0.642070 0.373173
O O12 0.500000 0.402657 0.322062
O O13 0.750000 0.500000 0.310438
#
# Coordination Sequence:
#
# PCOD9500370 Si02
#       4
#    16  16  16  16
#     4  10  20  34  52  75 103 134 168 207 251 298
#     4   9  16  27  45  70  98 128 164 206 249 291
#     4  10  17  28  46  70  98 127 163 205 249 292
#     4  11  21  34  52  75 103 134 169 207 250 298
#
# _framework density 22.287282000000001
#
# number of rings (size 3 to 8) (size 9 to 14) (size 15 to 20)
#    0.000    2.000    0.000    8.250    0.000    4.500 
#    0.000    0.000    0.000    1.500    0.000    5.250 
#    0.000    0.000    0.000    0.000    0.000    0.000 
#
# Total GULP energy -178733.145331 kJ/mol
# GULP energy per Si atom -5585.410792 kJ/mol
# Density = 2.223655 g / cm^3
# Si number density = 22.287282 Si / 1000 Ang^3
#
#
#
# Elastic Constant Matrix: (Units=GPa)
#
#
# Indices 1 2 3 4 5 6 
#
# 1 226.9678 10.0601 93.1751 0.0000 0.0000 0.0000
# 2 10.0601 40.1544 10.9942 0.0000 0.0000 0.0000
# 3 93.1751 10.9942 213.5523 0.0000 0.0000 0.0000
# 4 0.0000 0.0000 0.0000 -1.7111 0.0000 0.0000
# 5 0.0000 0.0000 0.0000 0.0000 37.6883 0.0000
# 6 0.0000 0.0000 0.0000 0.0000 0.0000 8.9433
#
#
#
# Elastic Compliance Matrix: (Units=1/GPa)
#
#
# Indices 1 2 3 4 5 6 
#
# 1 0.005388 -0.000716 -0.002314 0.000000 0.000000 0.000000
# 2 -0.000716 0.025355 -0.000993 0.000000 0.000000 0.000000
# 3 -0.002314 -0.000993 0.005743 0.000000 0.000000 0.000000
# 4 0.000000 0.000000 0.000000 -0.584428 0.000000 0.000000
# 5 0.000000 0.000000 0.000000 0.000000 0.026533 0.000000
# 6 0.000000 0.000000 0.000000 0.000000 0.000000 0.111816
#
#
# Mechanical properties :
#
#
# Convention : Reuss Voigt Hill
#
# Bulk Modulus (GPa) = 35.16138 78.79257 56.97698
# Shear Modulus (GPa) = -12.75293 33.41378 10.33042
#
# Velocity S-wave (km/s) = -2.39468 3.87619 2.15527
# Velocity P-wave (km/s) = 2.85739 7.44735 5.64038
#
# Compressibility (1/GPa) = 0.02844029
#
# Stress axis : x y z
#
# Youngs Moduli (GPa) = 185.61480 39.43972 174.11530
#
# Poissons Ratio (x) = 0.02825 0.40286
# Poissons Ratio (y) = 0.13295 0.17287
# Poissons Ratio (z) = 0.42947 0.03916
#
# Static dielectric constant tensor:
#      x y z
#    x 1.775700 0.000000 0.000000 
#    y 0.000000 1.906440 0.000000 
#    z 0.000000 0.000000 1.866560 
# 
# From -- ./inp_files/31730.got.cif
#   From: 2010.05.17/outbox.cif.g08.bks.cpg/sg67_16_cif.got.tgz:31730.got - 2010.06.03 18:28:57.
