data_PCOD9500074
_publ_section_title
;
Structure prediction by ZEFSAII (Michael W. Deem and Ramdas Pophale) SiO2 
 PCOD9500074
Probable space group: C C C M
;
_chemical_formula_sum "Si O2"
_cell_formula_units_Z 48
_cell_length_a 21.000000
_cell_length_b 27.000000
_cell_length_c 9.000000
_cell_angle_alpha 90.000000
_cell_angle_beta 90.000000
_cell_angle_gamma 90.000000
_cell_volume 5103.000000
_symmetry_space_group_name_H-M "C C C M"
_symmetry_group_IT_number 66
_symmetry_cell_setting 'orthorhombic'
loop_
_space_group_symop_operation_xyz
x,y,z
-x,-y,z
x,-y,1/2-z
-x,y,1/2-z
-x,-y,-z
x,y,-z
-x,y,1/2+z
x,-y,1/2+z
1/2+x,1/2+y,z
1/2-x,1/2-y,z
1/2+x,1/2-y,1/2-z
1/2-x,1/2+y,1/2-z
1/2-x,1/2-y,-z
1/2+x,1/2+y,-z
1/2-x,1/2+y,1/2+z
1/2+x,1/2-y,1/2+z
loop_
_atom_site_type_symbol
_atom_site_label
_atom_site_fract_x
_atom_site_fract_y
_atom_site_fract_z
Si Si1 0.810082 0.117343 0.678179
Si Si2 0.795716 0.551646 0.676714
Si Si3 0.564861 0.090879 0.821762
Si Si4 0.434461 0.199762 0.820185
Si Si5 0.435834 0.445967 0.822275
Si Si6 0.681953 0.269784 0.680596
O O1 0.798966 0.116803 0.500000
O O2 0.748575 0.094490 0.756818
O O3 0.872555 0.084957 0.708984
O O4 0.823940 0.173363 0.725761
O O5 0.775866 0.500000 0.750000
O O6 0.787619 0.549385 0.500000
O O7 0.870268 0.561421 0.708615
O O8 0.500000 0.069773 0.750000
O O9 0.573575 0.144969 0.747801
O O10 0.557023 0.095412 0.000000
O O11 0.500000 0.219413 0.750000
O O12 0.375766 0.234413 0.775493
O O13 0.438483 0.196986 0.000000
O O14 0.428421 0.500000 0.750000
O O15 0.500000 0.423953 0.750000
O O16 0.443692 0.449967 0.000000
O O17 0.682371 0.268910 0.500000
O O18 0.750000 0.250000 0.732626
#
# Coordination Sequence:
#
# PCOD9500074 Si02
#       6
#    16  16  16  16  16  16
#     4  10  21  37  57  81 109 143 184 226 268 320
#     4  11  24  39  57  82 110 142 180 224 274 327
#     4  10  21  37  57  82 111 143 181 222 269 324
#     4  10  19  33  56  82 110 145 182 222 269 320
#     4  10  20  34  54  78 105 138 176 217 263 315
#     4   9  18  33  54  79 106 140 181 220 261 312
#
# _framework density 9.4062319999999993
#
# number of rings (size 3 to 8) (size 9 to 14) (size 15 to 20)
#    0.000    2.000    0.000    5.000    0.000    7.667 
#    0.000    3.333    0.000    4.500    0.000    0.000 
#    0.000    0.000    0.000    0.000    0.000    0.000 
#
# Total GULP energy -268018.448811 kJ/mol
# GULP energy per Si atom -5583.717684 kJ/mol
# Density = 0.938482 g / cm^3
# Si number density = 9.406232 Si / 1000 Ang^3
#
#
#
# Elastic Constant Matrix: (Units=GPa)
#
#
# Indices 1 2 3 4 5 6 
#
# 1 93.1961 19.7375 33.9399 0.0000 0.0000 0.0000
# 2 19.7375 48.9266 12.9048 0.0000 0.0000 0.0000
# 3 33.9399 12.9048 52.3561 0.0000 0.0000 0.0000
# 4 0.0000 0.0000 0.0000 10.8198 0.0000 0.0000
# 5 0.0000 0.0000 0.0000 0.0000 4.0401 0.0000
# 6 0.0000 0.0000 0.0000 0.0000 0.0000 31.7819
#
#
#
# Elastic Compliance Matrix: (Units=1/GPa)
#
#
# Indices 1 2 3 4 5 6 
#
# 1 0.014627 -0.003636 -0.008586 0.000000 0.000000 0.000000
# 2 -0.003636 0.022764 -0.003254 0.000000 0.000000 0.000000
# 3 -0.008586 -0.003254 0.025468 0.000000 0.000000 0.000000
# 4 0.000000 0.000000 0.000000 0.092424 0.000000 0.000000
# 5 0.000000 0.000000 0.000000 0.000000 0.247521 0.000000
# 6 0.000000 0.000000 0.000000 0.000000 0.000000 0.031464
#
#
# Mechanical properties :
#
#
# Convention : Reuss Voigt Hill
#
# Bulk Modulus (GPa) = 31.34079 36.40481 33.87280
# Shear Modulus (GPa) = 10.50742 17.85478 14.18110
#
# Velocity S-wave (km/s) = 2.36590 3.08408 2.74855
# Velocity P-wave (km/s) = 4.91519 5.66352 5.30257
#
# Compressibility (1/GPa) = 0.03190730
#
# Stress axis : x y z
#
# Youngs Moduli (GPa) = 68.36759 43.92939 39.26558
#
# Poissons Ratio (x) = 0.15973 0.33712
# Poissons Ratio (y) = 0.24859 0.12776
# Poissons Ratio (z) = 0.58698 0.14294
#
# Static dielectric constant tensor:
#      x y z
#    x 1.654930 0.000000 0.000000 
#    y 0.000000 1.632570 0.000000 
#    z 0.000000 0.000000 1.629570 
# 
# From -- ./inp_files/8023.got.cif
#   From: 2010.05.17/outbox.ucp.g08.bks.cvg/sg66_5_cif.got.tgz:8023.got - 2010.06.11 16:44:13.
