data_PCOD9500311
_publ_section_title
;
Structure prediction by ZEFSAII (Michael W. Deem and Ramdas Pophale) SiO2 
 PCOD9500311
Probable space group: C M M A
;
_chemical_formula_sum "Si O2"
_cell_formula_units_Z 64
_cell_length_a 18.243436
_cell_length_b 8.700094
_cell_length_c 21.975412
_cell_angle_alpha 90.000000
_cell_angle_beta 90.000000
_cell_angle_gamma 90.000000
_cell_volume 3487.928780
_symmetry_space_group_name_H-M "C M M A"
_symmetry_group_IT_number 67
_symmetry_cell_setting 'orthorhombic'
loop_
_space_group_symop_operation_xyz
x,y,z
-x,1/2-y,z
x,-y,-z
-x,1/2+y,-z
-x,-y,-z
x,1/2+y,-z
-x,y,z
x,1/2-y,z
1/2+x,1/2+y,z
1/2-x,-y,z
1/2+x,1/2-y,-z
1/2-x,y,-z
1/2-x,1/2-y,-z
1/2+x,y,-z
1/2-x,1/2+y,z
1/2+x,-y,z
loop_
_atom_site_type_symbol
_atom_site_label
_atom_site_fract_x
_atom_site_fract_y
_atom_site_fract_z
Si Si1 0.914933 0.934724 0.188979
Si Si2 0.412973 0.432670 0.937092
Si Si3 0.333443 0.434035 0.562367
Si Si4 0.832127 0.564966 0.312345
O O1 0.912814 0.750000 0.183862
O O2 0.874194 0.978151 0.250835
O O3 0.000000 0.982602 0.194043
O O4 0.882941 0.003516 0.126569
O O5 0.500000 0.475177 0.936322
O O6 0.407398 0.250000 0.938335
O O7 0.382089 0.500000 0.000000
O O8 0.367186 0.500000 0.500000
O O9 0.331326 0.250000 0.560782
O O10 0.250000 0.500000 0.563304
O O11 0.366024 0.494645 0.625837
O O12 0.830309 0.750000 0.317942
O O13 0.750000 0.500000 0.307169
#
# Coordination Sequence:
#
# PCOD9500311 Si02
#       4
#    16  16  16  16
#     4   9  18  32  49  69  94 124 156 190 229 273
#     4   9  16  26  43  67  93 120 152 191 231 271
#     4  10  17  27  44  66  92 119 152 192 231 271
#     4  10  19  31  48  70  96 124 154 189 230 275
#
# _framework density 18.348998999999999
#
# number of rings (size 3 to 8) (size 9 to 14) (size 15 to 20)
#    0.000    2.500    0.000    6.000    0.000    5.000 
#    0.000    0.000    0.000    1.500    0.000    5.250 
#    0.000    0.000    0.000    0.000    0.000    0.000 
#
# Total GULP energy -178321.134090 kJ/mol
# GULP energy per Si atom -5572.535440 kJ/mol
# Density = 1.830724 g / cm^3
# Si number density = 18.348999 Si / 1000 Ang^3
#
#
#
# Elastic Constant Matrix: (Units=GPa)
#
#
# Indices 1 2 3 4 5 6 
#
# 1 13.2163 10.3506 36.7549 0.0000 0.0000 0.0000
# 2 10.3506 66.8764 68.6532 0.0000 0.0000 0.0000
# 3 36.7549 68.6532 243.6166 0.0000 0.0000 0.0000
# 4 0.0000 0.0000 0.0000 59.7514 0.0000 0.0000
# 5 0.0000 0.0000 0.0000 0.0000 23.3767 0.0000
# 6 0.0000 0.0000 0.0000 0.0000 0.0000 9.3586
#
#
#
# Elastic Compliance Matrix: (Units=1/GPa)
#
#
# Indices 1 2 3 4 5 6 
#
# 1 0.130361 0.000020 -0.019673 0.000000 0.000000 0.000000
# 2 0.000020 0.021040 -0.005932 0.000000 0.000000 0.000000
# 3 -0.019673 -0.005932 0.008745 0.000000 0.000000 0.000000
# 4 0.000000 0.000000 0.000000 0.016736 0.000000 0.000000
# 5 0.000000 0.000000 0.000000 0.000000 0.042778 0.000000
# 6 0.000000 0.000000 0.000000 0.000000 0.000000 0.106854
#
#
# Mechanical properties :
#
#
# Convention : Reuss Voigt Hill
#
# Bulk Modulus (GPa) = 9.17651 61.69185 35.43418
# Shear Modulus (GPa) = 12.07704 32.36072 22.21888
#
# Velocity S-wave (km/s) = 2.56830 4.20411 3.48358
# Velocity P-wave (km/s) = 3.71575 7.56706 5.96101
#
# Compressibility (1/GPa) = 0.10897394
#
# Stress axis : x y z
#
# Youngs Moduli (GPa) = 7.67101 47.52936 114.35487
#
# Poissons Ratio (x) = -0.00095 2.24975
# Poissons Ratio (y) = -0.00015 0.67837
# Poissons Ratio (z) = 0.15092 0.28195
#
# Static dielectric constant tensor:
#      x y z
#    x 1.634580 0.000000 0.000000 
#    y 0.000000 1.611190 0.000000 
#    z 0.000000 0.000000 1.697410 
# 
# From -- ./inp_files/31735.got.cif
#   From: 2010.05.17/outbox.cif.g08.bks.cpg/sg67_16_cif.got.tgz:31735.got - 2010.06.03 18:28:57.
