data_PCOD9500702
_publ_section_title
;
Structure prediction by ZEFSAII (Michael W. Deem and Ramdas Pophale) SiO2 
 PCOD9500702
Probable space group: C M M A
;
_chemical_formula_sum "Si O2"
_cell_formula_units_Z 88
_cell_length_a 25.729764
_cell_length_b 8.969731
_cell_length_c 25.991790
_cell_angle_alpha 90.000000
_cell_angle_beta 90.000000
_cell_angle_gamma 90.000000
_cell_volume 5998.620828
_symmetry_space_group_name_H-M "C M M A"
_symmetry_group_IT_number 67
_symmetry_cell_setting 'orthorhombic'
loop_
_space_group_symop_operation_xyz
x,y,z
-x,1/2-y,z
x,-y,-z
-x,1/2+y,-z
-x,-y,-z
x,1/2+y,-z
-x,y,z
x,1/2-y,z
1/2+x,1/2+y,z
1/2-x,-y,z
1/2+x,1/2-y,-z
1/2-x,y,-z
1/2-x,1/2-y,-z
1/2+x,y,-z
1/2-x,1/2+y,z
1/2+x,-y,z
loop_
_atom_site_type_symbol
_atom_site_label
_atom_site_fract_x
_atom_site_fract_y
_atom_site_fract_z
Si Si1 0.436748 0.578044 0.552470
Si Si2 0.563286 0.422963 0.657199
Si Si3 0.693575 0.570534 0.944828
Si Si4 0.396405 0.930389 0.120970
Si Si5 0.560117 0.068396 0.769829
Si Si6 0.000000 0.071618 0.056162
O O1 0.418948 0.500000 0.500000
O O2 0.500000 0.567442 0.552772
O O3 0.422687 0.750000 0.550831
O O4 0.418939 0.506602 0.606100
O O5 0.500000 0.427635 0.658175
O O6 0.578202 0.250000 0.652852
O O7 0.579229 0.482087 0.713522
O O8 0.696494 0.750000 0.948315
O O9 0.750000 0.500000 0.933283
O O10 0.651746 0.515926 0.903582
O O11 0.677897 0.500000 0.000000
O O12 0.388913 0.750000 0.118053
O O13 0.407047 0.972272 0.180251
O O14 0.448406 0.966963 0.088460
O O15 0.500000 0.021237 0.777070
O O16 0.559148 0.250000 0.767852
O O17 0.000000 0.250000 0.050352
O O18 0.000000 0.000000 0.000000
#
# Coordination Sequence:
#
# PCOD9500702 Si02
#       6
#    16  16  16  16  16   8
#     4   9  15  21  29  42  62  89 124 168 212 249
#     4   8  13  21  34  50  68  95 131 168 202 240
#     4  11  22  37  54  71  88 110 140 177 219 263
#     4  10  18  31  49  69  91 117 145 176 211 254
#     4   8  13  24  42  61  82 110 143 172 203 247
#     4  10  20  30  44  64  90 118 143 170 207 252
#
# _framework density 14.670038
#
# number of rings (size 3 to 8) (size 9 to 14) (size 15 to 20)
#    0.000    2.727    0.909    4.364    0.000    4.364 
#    0.000    0.909    0.000    1.091    0.000    0.000 
#    0.000    0.000    0.000    0.000    0.000    0.909 
#
# Total GULP energy -245022.305167 kJ/mol
# GULP energy per Si atom -5568.688754 kJ/mol
# Density = 1.463665 g / cm^3
# Si number density = 14.670038 Si / 1000 Ang^3
#
#
#
# Elastic Constant Matrix: (Units=GPa)
#
#
# Indices 1 2 3 4 5 6 
#
# 1 33.3897 26.7585 49.0786 0.0000 0.0000 0.0000
# 2 26.7585 66.8931 66.1511 0.0000 0.0000 0.0000
# 3 49.0786 66.1511 177.8006 0.0000 0.0000 0.0000
# 4 0.0000 0.0000 0.0000 21.4209 0.0000 0.0000
# 5 0.0000 0.0000 0.0000 0.0000 8.4843 0.0000
# 6 0.0000 0.0000 0.0000 0.0000 0.0000 12.8557
#
#
#
# Elastic Compliance Matrix: (Units=1/GPa)
#
#
# Indices 1 2 3 4 5 6 
#
# 1 0.055145 -0.011084 -0.011098 0.000000 0.000000 0.000000
# 2 -0.011084 0.025879 -0.006569 0.000000 0.000000 0.000000
# 3 -0.011098 -0.006569 0.011132 0.000000 0.000000 0.000000
# 4 0.000000 0.000000 0.000000 0.046683 0.000000 0.000000
# 5 0.000000 0.000000 0.000000 0.000000 0.117864 0.000000
# 6 0.000000 0.000000 0.000000 0.000000 0.000000 0.077787
#
#
# Mechanical properties :
#
#
# Convention : Reuss Voigt Hill
#
# Bulk Modulus (GPa) = 28.85700 62.45110 45.65405
# Shear Modulus (GPa) = 12.39028 17.62518 15.00773
#
# Velocity S-wave (km/s) = 2.90935 3.46994 3.20194
# Velocity P-wave (km/s) = 5.56769 7.66270 6.69761
#
# Compressibility (1/GPa) = 0.03465364
#
# Stress axis : x y z
#
# Youngs Moduli (GPa) = 18.13416 38.64138 89.83498
#
# Poissons Ratio (x) = 0.42831 0.99697
# Poissons Ratio (y) = 0.20100 0.59010
# Poissons Ratio (z) = 0.20125 0.25382
#
# Static dielectric constant tensor:
#      x y z
#    x 1.456500 0.000000 0.000000 
#    y 0.000000 1.497810 0.000000 
#    z 0.000000 0.000000 1.511970 
# 
# From -- ./inp_files/44599.got.cif
#   From: 2010.05.17/outbox.cif.g08.bks.cpg/sg67_23_cif.got.tgz:44599.got - 2010.06.03 18:28:57.
