data_PCOD9500087
_publ_section_title
;
Structure prediction by ZEFSAII (Michael W. Deem and Ramdas Pophale) SiO2 
 PCOD9500087
Probable space group: C C C M
;
_chemical_formula_sum "Si O2"
_cell_formula_units_Z 32
_cell_length_a 24.000000
_cell_length_b 15.000000
_cell_length_c 9.000000
_cell_angle_alpha 90.000000
_cell_angle_beta 90.000000
_cell_angle_gamma 90.000000
_cell_volume 3240.000000
_symmetry_space_group_name_H-M "C C C M"
_symmetry_group_IT_number 66
_symmetry_cell_setting 'orthorhombic'
loop_
_space_group_symop_operation_xyz
x,y,z
-x,-y,z
x,-y,1/2-z
-x,y,1/2-z
-x,-y,-z
x,y,-z
-x,y,1/2+z
x,-y,1/2+z
1/2+x,1/2+y,z
1/2-x,1/2-y,z
1/2+x,1/2-y,1/2-z
1/2-x,1/2+y,1/2-z
1/2-x,1/2-y,-z
1/2+x,1/2+y,-z
1/2-x,1/2+y,1/2+z
1/2+x,1/2-y,1/2+z
loop_
_atom_site_type_symbol
_atom_site_label
_atom_site_fract_x
_atom_site_fract_y
_atom_site_fract_z
Si Si1 0.164837 0.417736 0.826145
Si Si2 0.228241 0.850997 0.165821
Si Si3 0.373681 0.715636 0.332054
Si Si4 0.440644 0.416647 0.327763
O O1 0.133104 0.500000 0.750000
O O2 0.220683 0.406622 0.728771
O O3 0.136291 0.320793 0.818503
O O4 0.175866 0.434746 0.000000
O O5 0.250000 0.750000 0.149370
O O6 0.182035 0.839354 0.292300
O O7 0.209227 0.880267 0.000000
O O8 0.392193 0.695673 0.500000
O O9 0.414113 0.677769 0.208379
O O10 0.409530 0.500000 0.250000
O O11 0.500000 0.413094 0.250000
O O12 0.444733 0.433965 0.500000
#
# Coordination Sequence:
#
# PCOD9500087 Si02
#       4
#    16  16  16  16
#     4  10  20  33  51  75 107 144 180 218 258 305
#     4   9  17  30  48  71 100 134 173 214 255 300
#     4  10  20  35  54  78 107 139 176 217 262 310
#     4  11  22  38  59  82 107 134 167 210 261 315
#
# _framework density 9.8765429999999999
#
# number of rings (size 3 to 8) (size 9 to 14) (size 15 to 20)
#    0.000    2.000    0.000    5.250    0.000    7.000 
#    0.000    5.000    0.000    0.750    0.000    5.250 
#    0.000    0.000    0.000    0.000    0.000    0.000 
#
# Total GULP energy -178155.381164 kJ/mol
# GULP energy per Si atom -5567.355661 kJ/mol
# Density = 0.985406 g / cm^3
# Si number density = 9.876543 Si / 1000 Ang^3
#
#
#
# Elastic Constant Matrix: (Units=GPa)
#
#
# Indices 1 2 3 4 5 6 
#
# 1 14.1359 16.4608 7.8234 0.0000 0.0000 0.0000
# 2 16.4608 85.4885 56.6279 0.0000 0.0000 0.0000
# 3 7.8234 56.6279 155.0469 0.0000 0.0000 0.0000
# 4 0.0000 0.0000 0.0000 31.5555 0.0000 0.0000
# 5 0.0000 0.0000 0.0000 0.0000 17.6340 0.0000
# 6 0.0000 0.0000 0.0000 0.0000 0.0000 7.1450
#
#
#
# Elastic Compliance Matrix: (Units=1/GPa)
#
#
# Indices 1 2 3 4 5 6 
#
# 1 0.091864 -0.019283 0.002408 0.000000 0.000000 0.000000
# 2 -0.019283 0.019478 -0.006141 0.000000 0.000000 0.000000
# 3 0.002408 -0.006141 0.008571 0.000000 0.000000 0.000000
# 4 0.000000 0.000000 0.000000 0.031690 0.000000 0.000000
# 5 0.000000 0.000000 0.000000 0.000000 0.056709 0.000000
# 6 0.000000 0.000000 0.000000 0.000000 0.000000 0.139958
#
#
# Mechanical properties :
#
#
# Convention : Reuss Voigt Hill
#
# Bulk Modulus (GPa) = 13.53542 46.27729 29.90635
# Shear Modulus (GPa) = 11.93514 22.85084 17.39299
#
# Velocity S-wave (km/s) = 2.46075 3.40490 2.97058
# Velocity P-wave (km/s) = 3.86534 6.23992 5.19025
#
# Compressibility (1/GPa) = 0.07388022
#
# Stress axis : x y z
#
# Youngs Moduli (GPa) = 10.88561 51.33907 116.67107
#
# Poissons Ratio (x) = 0.98998 -0.28089
# Poissons Ratio (y) = 0.20991 0.71649
# Poissons Ratio (z) = -0.02621 0.31528
#
# Static dielectric constant tensor:
#      x y z
#    x 1.877340 0.000000 0.000000 
#    y 0.000000 1.895530 0.000000 
#    z 0.000000 0.000000 1.687630 
# 
# From -- ./inp_files/5068.got.cif
#   From: 2010.05.17/outbox.ucp.g08.bks.cvg/sg66_3_cif.got.tgz:5068.got - 2010.06.11 16:44:13.
