data_PCOD9500793
_publ_section_title
;
Structure prediction by ZEFSAII (Michael W. Deem and Ramdas Pophale) SiO2 
 PCOD9500793
Probable space group: C M M A
;
_chemical_formula_sum "Si O2"
_cell_formula_units_Z 104
_cell_length_a 8.727055
_cell_length_b 30.184747
_cell_length_c 20.689877
_cell_angle_alpha 90.000000
_cell_angle_beta 90.000000
_cell_angle_gamma 90.000000
_cell_volume 5450.209067
_symmetry_space_group_name_H-M "C M M A"
_symmetry_group_IT_number 67
_symmetry_cell_setting 'orthorhombic'
loop_
_space_group_symop_operation_xyz
x,y,z
-x,1/2-y,z
x,-y,-z
-x,1/2+y,-z
-x,-y,-z
x,1/2+y,-z
-x,y,z
x,1/2-y,z
1/2+x,1/2+y,z
1/2-x,-y,z
1/2+x,1/2-y,-z
1/2-x,y,-z
1/2-x,1/2-y,-z
1/2+x,y,-z
1/2-x,1/2+y,z
1/2+x,-y,z
loop_
_atom_site_type_symbol
_atom_site_label
_atom_site_fract_x
_atom_site_fract_y
_atom_site_fract_z
Si Si1 0.326317 0.953667 0.910624
Si Si2 0.681219 0.630433 0.304052
Si Si3 0.325040 0.545752 0.755115
Si Si4 0.317227 0.250000 0.572389
Si Si5 0.686792 0.698591 0.194059
Si Si6 0.318637 0.841519 0.571440
Si Si7 0.683367 0.642456 0.067534
O O1 0.500000 0.950595 0.935841
O O2 0.331962 0.955435 0.832751
O O3 0.237430 0.908566 0.926633
O O4 0.250000 0.000000 0.930692
O O5 0.500000 0.635440 0.315901
O O6 0.718667 0.586327 0.264649
O O7 0.733798 0.670995 0.257770
O O8 0.767875 0.625800 0.372232
O O9 0.500000 0.551244 0.731620
O O10 0.250000 0.500000 0.732340
O O11 0.500000 0.250000 0.572908
O O12 0.250000 0.250000 0.500000
O O13 0.252308 0.204474 0.598724
O O14 0.500000 0.698685 0.194279
O O15 0.736617 0.750000 0.194114
O O16 0.734523 0.671300 0.129864
O O17 0.500000 0.837597 0.564959
O O18 0.250000 0.849976 0.500000
O O19 0.500000 0.643612 0.065743
O O20 0.750000 0.660164 0.000000
#
# Coordination Sequence:
#
# PCOD9500793 Si02
#       7
#    16  16  16   8  16  16  16
#     4  10  20  35  57  84 116 149 186 233 290 350
#     4  11  21  36  61  89 118 155 197 241 293 349
#     4  10  20  35  58  87 119 151 190 238 291 349
#     4  10  18  32  52  76 108 150 193 236 285 344
#     4   9  20  38  59  84 114 151 196 242 288 341
#     4  11  22  37  55  82 118 157 199 244 294 350
#     4  11  22  38  59  83 114 152 195 241 292 348
#
# _framework density 19.081837
#
# number of rings (size 3 to 8) (size 9 to 14) (size 15 to 20)
#    0.000    1.692    1.538    4.846    1.077    1.846 
#    0.000    1.538    0.000    5.538    0.000    3.231 
#    0.000    0.000    0.000    0.000    0.000    0.000 
#
# Total GULP energy -290226.322465 kJ/mol
# GULP energy per Si atom -5581.275432 kJ/mol
# Density = 1.903841 g / cm^3
# Si number density = 19.081837 Si / 1000 Ang^3
#
#
#
# Elastic Constant Matrix: (Units=GPa)
#
#
# Indices 1 2 3 4 5 6 
#
# 1 104.1848 17.6118 36.3886 0.0000 0.0000 0.0000
# 2 17.6118 102.0088 42.0954 0.0000 0.0000 0.0000
# 3 36.3886 42.0954 113.2945 0.0000 0.0000 0.0000
# 4 0.0000 0.0000 0.0000 -0.7603 0.0000 0.0000
# 5 0.0000 0.0000 0.0000 0.0000 26.7387 0.0000
# 6 0.0000 0.0000 0.0000 0.0000 0.0000 26.7409
#
#
#
# Elastic Compliance Matrix: (Units=1/GPa)
#
#
# Indices 1 2 3 4 5 6 
#
# 1 0.010834 -0.000513 -0.003289 0.000000 0.000000 0.000000
# 2 -0.000513 0.011603 -0.004146 0.000000 0.000000 0.000000
# 3 -0.003289 -0.004146 0.011423 0.000000 0.000000 0.000000
# 4 0.000000 0.000000 0.000000 -1.315286 0.000000 0.000000
# 5 0.000000 0.000000 0.000000 0.000000 0.037399 0.000000
# 6 0.000000 0.000000 0.000000 0.000000 0.000000 0.037396
#
#
# Mechanical properties :
#
#
# Convention : Reuss Voigt Hill
#
# Bulk Modulus (GPa) = 55.66950 56.85329 56.26140
# Shear Modulus (GPa) = -4.22031 25.43667 10.60818
#
# Velocity S-wave (km/s) = -1.48879 3.65503 2.36038
# Velocity P-wave (km/s) = 5.12661 6.90445 6.08085
#
# Compressibility (1/GPa) = 0.01796316
#
# Stress axis : x y z
#
# Youngs Moduli (GPa) = 92.30348 86.18702 87.53893
#
# Poissons Ratio (x) = 0.04423 0.28791
# Poissons Ratio (y) = 0.04737 0.36296
# Poissons Ratio (z) = 0.30358 0.35735
#
# Static dielectric constant tensor:
#      x y z
#    x 1.665190 0.000000 0.000000 
#    y 0.000000 1.693260 0.000000 
#    z 0.000000 0.000000 1.665500 
# 
# From -- ./inp_files/37488.got.cif
#   From: 2010.05.17/outbox.cif.g08.bks.cpg/sg67_19_cif.got.tgz:37488.got - 2010.06.03 18:28:57.
