data_PCOD9500035
_publ_section_title
;
Structure prediction by ZEFSAII (Michael W. Deem and Ramdas Pophale) SiO2 
 PCOD9500035
Probable space group: C C C M
;
_chemical_formula_sum "Si O2"
_cell_formula_units_Z 64
_cell_length_a 13.202345
_cell_length_b 13.150462
_cell_length_c 14.424709
_cell_angle_alpha 90.000000
_cell_angle_beta 90.000000
_cell_angle_gamma 90.000000
_cell_volume 2504.373783
_symmetry_space_group_name_H-M "C C C M"
_symmetry_group_IT_number 66
_symmetry_cell_setting 'orthorhombic'
loop_
_space_group_symop_operation_xyz
x,y,z
-x,-y,z
x,-y,1/2-z
-x,y,1/2-z
-x,-y,-z
x,y,-z
-x,y,1/2+z
x,-y,1/2+z
1/2+x,1/2+y,z
1/2-x,1/2-y,z
1/2+x,1/2-y,1/2-z
1/2-x,1/2+y,1/2-z
1/2-x,1/2-y,-z
1/2+x,1/2+y,-z
1/2-x,1/2+y,1/2+z
1/2+x,1/2-y,1/2+z
loop_
_atom_site_type_symbol
_atom_site_label
_atom_site_fract_x
_atom_site_fract_y
_atom_site_fract_z
Si Si1 0.133571 0.792374 0.598596
Si Si2 0.127696 0.232422 0.310024
Si Si3 0.100465 0.454145 0.644345
Si Si4 0.328382 0.482059 0.639065
O O1 0.090712 0.754729 0.500000
O O2 0.250000 0.750000 0.600062
O O3 0.094584 0.768833 0.701982
O O4 0.129024 0.915054 0.597695
O O5 0.250000 0.250000 0.306372
O O6 0.087570 0.333790 0.355521
O O7 0.115641 0.126711 0.365681
O O8 0.104696 0.500000 0.750000
O O9 0.212012 0.475659 0.606231
O O10 0.000000 0.500000 0.601624
O O11 0.325925 0.500000 0.750000
#
# Coordination Sequence:
#
# PCOD9500035 Si02
#       4
#    16  16  16  16
#     4   9  15  23  40  66  90 115 153 199 241 282
#     4   8  14  25  40  60  90 121 149 191 245 288
#     4   9  15  23  40  65  89 114 148 189 240 295
#     4   8  14  25  40  61  88 117 150 192 240 279
#
# _framework density 25.555292000000001
#
# number of rings (size 3 to 8) (size 9 to 14) (size 15 to 20)
#    0.000    3.500    0.000    4.500    0.000    0.000 
#    0.000    0.000    0.000    8.250    0.000   75.250 
#    0.000   20.000    0.000    0.000    0.000    0.000 
#
# Total GULP energy -178668.871470 kJ/mol
# GULP energy per Si atom -5583.402233 kJ/mol
# Density = 2.549713 g / cm^3
# Si number density = 25.555292 Si / 1000 Ang^3
#
#
#
# Elastic Constant Matrix: (Units=GPa)
#
#
# Indices 1 2 3 4 5 6 
#
# 1 92.8021 47.1382 26.5992 0.0000 0.0000 0.0000
# 2 47.1382 163.5695 9.2315 0.0000 0.0000 0.0000
# 3 26.5992 9.2315 113.0551 0.0000 0.0000 0.0000
# 4 0.0000 0.0000 0.0000 6.4230 0.0000 0.0000
# 5 0.0000 0.0000 0.0000 0.0000 -28.6287 0.0000
# 6 0.0000 0.0000 0.0000 0.0000 0.0000 40.6693
#
#
#
# Elastic Compliance Matrix: (Units=1/GPa)
#
#
# Indices 1 2 3 4 5 6 
#
# 1 0.013491 -0.003726 -0.002870 0.000000 0.000000 0.000000
# 2 -0.003726 0.007171 0.000291 0.000000 0.000000 0.000000
# 3 -0.002870 0.000291 0.009497 0.000000 0.000000 0.000000
# 4 0.000000 0.000000 0.000000 0.155690 0.000000 0.000000
# 5 0.000000 0.000000 0.000000 0.000000 -0.034930 0.000000
# 6 0.000000 0.000000 0.000000 0.000000 0.000000 0.024589
#
#
# Mechanical properties :
#
#
# Convention : Reuss Voigt Hill
#
# Bulk Modulus (GPa) = 56.98298 59.48494 58.23396
# Shear Modulus (GPa) = 25.77780 22.78992 24.28386
#
# Velocity S-wave (km/s) = 3.17946 2.98952 3.08595
# Velocity P-wave (km/s) = 5.98539 5.93665 5.96107
#
# Compressibility (1/GPa) = 0.01754910
#
# Stress axis : x y z
#
# Youngs Moduli (GPa) = 74.12517 139.45226 105.30001
#
# Poissons Ratio (x) = 0.51958 0.30219
# Poissons Ratio (y) = 0.27618 -0.03065
# Poissons Ratio (z) = 0.21273 -0.04059
#
# Static dielectric constant tensor:
#      x y z
#    x 2.094430 0.000000 0.000000 
#    y 0.000000 1.973370 0.000000 
#    z 0.000000 0.000000 1.736830 
# 
# From -- ./inp_files/29698.got.cif
#   From: 2010.05.17/outbox.cif.g08.bks.cpg/sg66_15_cif.got.tgz:29698.got - 2010.06.03 17:51:23.
