data_PCOD9500678
_publ_section_title
;
Structure prediction by ZEFSAII (Michael W. Deem and Ramdas Pophale) SiO2 
 PCOD9500678
Probable space group: C M M A
;
_chemical_formula_sum "Si O2"
_cell_formula_units_Z 88
_cell_length_a 8.619613
_cell_length_b 21.715174
_cell_length_c 24.298062
_cell_angle_alpha 90.000000
_cell_angle_beta 90.000000
_cell_angle_gamma 90.000000
_cell_volume 4548.023678
_symmetry_space_group_name_H-M "C M M A"
_symmetry_group_IT_number 67
_symmetry_cell_setting 'orthorhombic'
loop_
_space_group_symop_operation_xyz
x,y,z
-x,1/2-y,z
x,-y,-z
-x,1/2+y,-z
-x,-y,-z
x,1/2+y,-z
-x,y,z
x,1/2-y,z
1/2+x,1/2+y,z
1/2-x,-y,z
1/2+x,1/2-y,-z
1/2-x,y,-z
1/2-x,1/2-y,-z
1/2+x,y,-z
1/2-x,1/2+y,z
1/2+x,-y,z
loop_
_atom_site_type_symbol
_atom_site_label
_atom_site_fract_x
_atom_site_fract_y
_atom_site_fract_z
Si Si1 0.811629 0.181795 0.865172
Si Si2 0.187219 0.933997 0.061971
Si Si3 0.814496 0.120719 0.438712
Si Si4 0.685370 0.250000 0.437653
Si Si5 0.815304 0.064020 0.328104
Si Si6 0.312854 0.681054 0.736208
O O1 0.759106 0.250000 0.884086
O O2 0.760083 0.123802 0.901150
O O3 0.771159 0.175459 0.800837
O O4 0.000000 0.182043 0.867516
O O5 0.000000 0.936023 0.060957
O O6 0.250000 0.000000 0.082505
O O7 0.250000 0.926378 0.000000
O O8 0.750000 0.109499 0.500000
O O9 0.749882 0.185850 0.415906
O O10 0.769522 0.071888 0.392378
O O11 0.000000 0.124959 0.442867
O O12 0.750000 0.250000 0.500000
O O13 0.000000 0.250000 0.563445
O O14 0.755963 0.123870 0.296234
O O15 0.000000 0.062807 0.325549
O O16 0.750000 0.000000 0.305905
O O17 0.500000 0.678880 0.731891
O O18 0.264441 0.750000 0.717494
#
# Coordination Sequence:
#
# PCOD9500678 Si02
#       6
#    16  16  16   8  16  16
#     4   8  16  33  56  81 109 142 181 226 275 325
#     4  10  19  32  51  76 110 149 187 228 271 320
#     4  10  21  37  56  80 110 144 179 223 273 328
#     4  10  18  30  52  80 108 138 174 216 259 312
#     4  11  25  41  58  82 114 147 183 229 279 332
#     4   9  19  38  63  87 111 144 186 228 277 337
#
# _framework density 19.349063000000001
#
# number of rings (size 3 to 8) (size 9 to 14) (size 15 to 20)
#    0.000    2.364    0.000    5.182    1.273    4.727 
#    0.000    5.455    0.000    3.818    0.000    0.000 
#    0.000    0.000    0.000    0.000    0.000    0.000 
#
# Total GULP energy -245489.798058 kJ/mol
# GULP energy per Si atom -5579.313592 kJ/mol
# Density = 1.930502 g / cm^3
# Si number density = 19.349063 Si / 1000 Ang^3
#
#
#
# Elastic Constant Matrix: (Units=GPa)
#
#
# Indices 1 2 3 4 5 6 
#
# 1 35.5038 35.6332 21.6480 0.0000 0.0000 0.0000
# 2 35.6332 200.4972 86.7610 0.0000 0.0000 0.0000
# 3 21.6480 86.7610 71.4430 0.0000 0.0000 0.0000
# 4 0.0000 0.0000 0.0000 24.5418 0.0000 0.0000
# 5 0.0000 0.0000 0.0000 0.0000 18.7856 0.0000
# 6 0.0000 0.0000 0.0000 0.0000 0.0000 19.2884
#
#
#
# Elastic Compliance Matrix: (Units=1/GPa)
#
#
# Indices 1 2 3 4 5 6 
#
# 1 0.035681 -0.003504 -0.006556 0.000000 0.000000 0.000000
# 2 -0.003504 0.010856 -0.012121 0.000000 0.000000 0.000000
# 3 -0.006556 -0.012121 0.030704 0.000000 0.000000 0.000000
# 4 0.000000 0.000000 0.000000 0.040747 0.000000 0.000000
# 5 0.000000 0.000000 0.000000 0.000000 0.053232 0.000000
# 6 0.000000 0.000000 0.000000 0.000000 0.000000 0.051845
#
#
# Mechanical properties :
#
#
# Convention : Reuss Voigt Hill
#
# Bulk Modulus (GPa) = 30.41642 66.16984 48.29313
# Shear Modulus (GPa) = 17.96068 23.41662 20.68865
#
# Velocity S-wave (km/s) = 3.05002 3.48260 3.27346
# Velocity P-wave (km/s) = 5.30636 7.10236 6.26901
#
# Compressibility (1/GPa) = 0.03287698
#
# Stress axis : x y z
#
# Youngs Moduli (GPa) = 28.02649 92.11757 32.56907
#
# Poissons Ratio (x) = 0.32282 0.21352
# Poissons Ratio (y) = 0.09822 0.39478
# Poissons Ratio (z) = 0.18374 1.11659
#
# Static dielectric constant tensor:
#      x y z
#    x 1.663760 0.000000 0.000000 
#    y 0.000000 1.698920 0.000000 
#    z 0.000000 0.000000 1.668580 
# 
# From -- ./inp_files/40679.got.cif
#   From: 2010.05.17/outbox.cif.g08.bks.cpg/sg67_21_cif.got.tgz:40679.got - 2010.06.03 18:28:57.
