data_PCOD9500949
_publ_section_title
;
Structure prediction by ZEFSAII (Michael W. Deem and Ramdas Pophale) SiO2 
 PCOD9500949
Probable space group: C M M A
;
_chemical_formula_sum "Si O2"
_cell_formula_units_Z 80
_cell_length_a 8.712579
_cell_length_b 24.310603
_cell_length_c 20.855701
_cell_angle_alpha 90.000000
_cell_angle_beta 90.000000
_cell_angle_gamma 90.000000
_cell_volume 4417.405343
_symmetry_space_group_name_H-M "C M M A"
_symmetry_group_IT_number 67
_symmetry_cell_setting 'orthorhombic'
loop_
_space_group_symop_operation_xyz
x,y,z
-x,1/2-y,z
x,-y,-z
-x,1/2+y,-z
-x,-y,-z
x,1/2+y,-z
-x,y,z
x,1/2-y,z
1/2+x,1/2+y,z
1/2-x,-y,z
1/2+x,1/2-y,-z
1/2-x,y,-z
1/2-x,1/2-y,-z
1/2+x,y,-z
1/2-x,1/2+y,z
1/2+x,-y,z
loop_
_atom_site_type_symbol
_atom_site_label
_atom_site_fract_x
_atom_site_fract_y
_atom_site_fract_z
Si Si1 0.184137 0.939175 0.690892
Si Si2 0.183433 0.131197 0.433837
Si Si3 0.324004 0.250000 0.257406
Si Si4 0.184507 0.686417 0.069715
Si Si5 0.324387 0.250000 0.410446
Si Si6 0.813631 0.635832 0.200762
O O1 0.233340 0.901384 0.630182
O O2 0.243808 0.912603 0.757078
O O3 0.000000 0.940613 0.691593
O O4 0.250000 0.000000 0.682993
O O5 0.250000 0.107125 0.500000
O O6 0.241428 0.193940 0.429615
O O7 0.000000 0.130423 0.436499
O O8 0.500000 0.250000 0.232324
O O9 0.327631 0.250000 0.333460
O O10 0.257286 0.192931 0.233105
O O11 0.231045 0.750000 0.085313
O O12 0.228554 0.644519 0.126307
O O13 0.000000 0.686452 0.066605
O O14 0.250000 0.672929 0.000000
O O15 0.500000 0.250000 0.434543
O O16 0.000000 0.632284 0.205422
#
# Coordination Sequence:
#
# PCOD9500949 Si02
#       6
#    16  16   8  16   8  16
#     4  11  25  42  60  82 107 140 186 237 283 330
#     4  11  24  40  58  83 114 146 182 226 277 333
#     4   9  16  28  53  84 110 144 182 219 270 329
#     4   9  17  29  49  80 119 156 187 219 262 322
#     4  11  20  34  59  86 115 150 182 220 274 332
#     4  10  18  34  58  83 113 149 188 227 272 327
#
# _framework density 18.110178999999999
#
# number of rings (size 3 to 8) (size 9 to 14) (size 15 to 20)
#    0.000    1.800    3.000    1.800    0.000    3.600 
#    0.000    2.500    0.000    0.600    0.000    4.200 
#    0.000    0.000    0.000    0.000    0.000    0.000 
#
# Total GULP energy -223196.572392 kJ/mol
# GULP energy per Si atom -5579.914310 kJ/mol
# Density = 1.806896 g / cm^3
# Si number density = 18.110179 Si / 1000 Ang^3
#
#
#
# Elastic Constant Matrix: (Units=GPa)
#
#
# Indices 1 2 3 4 5 6 
#
# 1 40.2902 29.3062 41.8523 0.0000 0.0000 0.0000
# 2 29.3062 106.8361 63.6694 0.0000 0.0000 0.0000
# 3 41.8523 63.6694 149.9374 0.0000 0.0000 0.0000
# 4 0.0000 0.0000 0.0000 -3.3387 0.0000 0.0000
# 5 0.0000 0.0000 0.0000 0.0000 29.9338 0.0000
# 6 0.0000 0.0000 0.0000 0.0000 0.0000 18.3730
#
#
#
# Elastic Compliance Matrix: (Units=1/GPa)
#
#
# Indices 1 2 3 4 5 6 
#
# 1 0.037118 -0.005365 -0.008083 0.000000 0.000000 0.000000
# 2 -0.005365 0.013307 -0.004153 0.000000 0.000000 0.000000
# 3 -0.008083 -0.004153 0.010689 0.000000 0.000000 0.000000
# 4 0.000000 0.000000 0.000000 -0.299521 0.000000 0.000000
# 5 0.000000 0.000000 0.000000 0.000000 0.033407 0.000000
# 6 0.000000 0.000000 0.000000 0.000000 0.000000 0.054428
#
#
# Mechanical properties :
#
#
# Convention : Reuss Voigt Hill
#
# Bulk Modulus (GPa) = 38.59098 62.96884 50.77991
# Shear Modulus (GPa) = -46.84618 19.80934 -13.51842
#
# Velocity S-wave (km/s) = -5.09151 3.31089 -2.73510
# Velocity P-wave (km/s) = 3.63447 7.03287 4.25746
#
# Compressibility (1/GPa) = 0.02591279
#
# Stress axis : x y z
#
# Youngs Moduli (GPa) = 26.94078 75.14919 93.55272
#
# Poissons Ratio (x) = 0.40318 0.75616
# Poissons Ratio (y) = 0.14454 0.38853
# Poissons Ratio (z) = 0.21775 0.31210
#
# Static dielectric constant tensor:
#      x y z
#    x 1.622830 0.000000 0.000000 
#    y 0.000000 1.602480 0.000000 
#    z 0.000000 0.000000 1.643060 
# 
# From -- ./inp_files/36869.got.cif
#   From: 2010.05.17/outbox.cif.g08.bks.cpg/sg67_19_cif.got.tgz:36869.got - 2010.06.03 18:28:57.
