data_PCOD9500026
_publ_section_title
;
Structure prediction by ZEFSAII (Michael W. Deem and Ramdas Pophale) SiO2 
 PCOD9500026
Probable space group: C C C M
;
_chemical_formula_sum "Si O2"
_cell_formula_units_Z 96
_cell_length_a 6.546720
_cell_length_b 33.985900
_cell_length_c 14.897771
_cell_angle_alpha 90.000000
_cell_angle_beta 90.000000
_cell_angle_gamma 90.000000
_cell_volume 3314.697008
_symmetry_space_group_name_H-M "C C C M"
_symmetry_group_IT_number 66
_symmetry_cell_setting 'orthorhombic'
loop_
_space_group_symop_operation_xyz
x,y,z
-x,-y,z
x,-y,1/2-z
-x,y,1/2-z
-x,-y,-z
x,y,-z
-x,y,1/2+z
x,-y,1/2+z
1/2+x,1/2+y,z
1/2-x,1/2-y,z
1/2+x,1/2-y,1/2-z
1/2-x,1/2+y,1/2-z
1/2-x,1/2-y,-z
1/2+x,1/2+y,-z
1/2-x,1/2+y,1/2+z
1/2+x,1/2-y,1/2+z
loop_
_atom_site_type_symbol
_atom_site_label
_atom_site_fract_x
_atom_site_fract_y
_atom_site_fract_z
Si Si1 0.534253 0.823019 0.644154
Si Si2 0.070546 0.844671 0.603830
Si Si3 0.353184 0.571848 0.602468
Si Si4 0.475382 0.738080 0.606689
Si Si5 0.268437 0.989253 0.890969
Si Si6 0.907122 0.592033 0.350022
O O1 0.500000 0.820759 0.750000
O O2 0.312134 0.832726 0.602606
O O3 0.595538 0.779178 0.614487
O O4 0.658422 0.863413 0.625320
O O5 0.007705 0.848965 0.500000
O O6 0.069914 0.887837 0.647702
O O7 0.974926 0.805094 0.645896
O O8 0.430337 0.569898 0.500000
O O9 0.357353 0.527671 0.641038
O O10 0.108140 0.580217 0.594590
O O11 0.456704 0.731475 0.500000
O O12 0.250000 0.750000 0.643794
O O13 0.248475 0.943688 0.861480
O O14 0.500000 0.000000 0.862668
O O15 0.258805 0.990313 0.000000
O O16 0.000000 0.592933 0.250000
#
# Coordination Sequence:
#
# PCOD9500026 Si02
#       6
#    16  16  16  16  16  16
#     4   9  15  20  26  40  61  78  96 128 163 187
#     4   8  13  22  34  44  55  73  98 130 165 196
#     4   8  13  20  28  37  49  66  91 124 157 183
#     4   8  13  21  33  45  55  72  99 130 163 195
#     4   8  13  19  25  33  46  67  94 120 146 172
#     4   9  15  19  23  33  51  76 101 123 146 168
#
# _framework density 28.961925999999998
#
# number of rings (size 3 to 8) (size 9 to 14) (size 15 to 20)
#    0.000    3.667    0.000    3.000    0.000    5.000 
#    0.000    0.000    0.000    0.000    0.000    0.000 
#    0.000   24.000    0.000    3.333    0.000    2.667 
#
# Total GULP energy -268306.074226 kJ/mol
# GULP energy per Si atom -5589.709880 kJ/mol
# Density = 2.889601 g / cm^3
# Si number density = 28.961926 Si / 1000 Ang^3
#
#
#
# Elastic Constant Matrix: (Units=GPa)
#
#
# Indices 1 2 3 4 5 6 
#
# 1 94.2866 83.8922 0.6792 0.0000 0.0000 0.0000
# 2 83.8922 463.7915 7.8272 0.0000 0.0000 0.0000
# 3 0.6792 7.8272 118.0094 0.0000 0.0000 0.0000
# 4 0.0000 0.0000 0.0000 -125.0734 0.0000 0.0000
# 5 0.0000 0.0000 0.0000 0.0000 2.2334 0.0000
# 6 0.0000 0.0000 0.0000 0.0000 0.0000 80.3902
#
#
#
# Elastic Compliance Matrix: (Units=1/GPa)
#
#
# Indices 1 2 3 4 5 6 
#
# 1 0.012641 -0.002288 0.000079 0.000000 0.000000 0.000000
# 2 -0.002288 0.002573 -0.000157 0.000000 0.000000 0.000000
# 3 0.000079 -0.000157 0.008484 0.000000 0.000000 0.000000
# 4 0.000000 0.000000 0.000000 -0.007995 0.000000 0.000000
# 5 0.000000 0.000000 0.000000 0.000000 0.447757 0.000000
# 6 0.000000 0.000000 0.000000 0.000000 0.000000 0.012439
#
#
# Mechanical properties :
#
#
# Convention : Reuss Voigt Hill
#
# Bulk Modulus (GPa) = 52.72907 95.65385 74.19146
# Shear Modulus (GPa) = 10.26794 30.42262 20.34528
#
# Velocity S-wave (km/s) = 1.88495 3.24456 2.65332
# Velocity P-wave (km/s) = 4.79408 6.86552 5.92109
#
# Compressibility (1/GPa) = 0.01896487
#
# Stress axis : x y z
#
# Youngs Moduli (GPa) = 79.10725 388.70570 117.87049
#
# Poissons Ratio (x) = 0.88932 -0.00931
# Poissons Ratio (y) = 0.18099 0.01856
# Poissons Ratio (z) = -0.00625 0.06121
#
# Static dielectric constant tensor:
#      x y z
#    x 2.379940 0.000000 0.000000 
#    y 0.000000 2.314440 0.000000 
#    z 0.000000 0.000000 2.081200 
# 
# From -- ./inp_files/28945.got.cif
#   From: 2010.05.17/outbox.cif.g08.bks.cpg/sg66_15_cif.got.tgz:28945.got - 2010.06.03 17:51:23.
