data_PCOD9500964
_publ_section_title
;
Structure prediction by ZEFSAII (Michael W. Deem and Ramdas Pophale) SiO2 
 PCOD9500964
Probable space group: C M M A
;
_chemical_formula_sum "Si O2"
_cell_formula_units_Z 112
_cell_length_a 15.391190
_cell_length_b 26.616607
_cell_length_c 12.637778
_cell_angle_alpha 90.000000
_cell_angle_beta 90.000000
_cell_angle_gamma 90.000000
_cell_volume 5177.208002
_symmetry_space_group_name_H-M "C M M A"
_symmetry_group_IT_number 67
_symmetry_cell_setting 'orthorhombic'
loop_
_space_group_symop_operation_xyz
x,y,z
-x,1/2-y,z
x,-y,-z
-x,1/2+y,-z
-x,-y,-z
x,1/2+y,-z
-x,y,z
x,1/2-y,z
1/2+x,1/2+y,z
1/2-x,-y,z
1/2+x,1/2-y,-z
1/2-x,y,-z
1/2-x,1/2-y,-z
1/2+x,y,-z
1/2-x,1/2+y,z
1/2+x,-y,z
loop_
_atom_site_type_symbol
_atom_site_label
_atom_site_fract_x
_atom_site_fract_y
_atom_site_fract_z
Si Si1 0.894415 0.807287 0.300301
Si Si2 0.653578 0.896156 0.857491
Si Si3 0.397870 0.160003 0.530946
Si Si4 0.652032 0.505570 0.203826
Si Si5 0.603252 0.304133 0.753889
Si Si6 0.655653 0.953266 0.442508
Si Si7 0.639555 0.397351 0.903250
O O1 0.868978 0.750000 0.274795
O O2 0.862760 0.849059 0.218095
O O3 0.862601 0.821722 0.418446
O O4 0.000000 0.809266 0.299937
O O5 0.756600 0.899158 0.881543
O O6 0.620180 0.948149 0.803525
O O7 0.615275 0.890125 0.974842
O O8 0.500000 0.172781 0.527973
O O9 0.359185 0.183939 0.637479
O O10 0.388474 0.100194 0.544132
O O11 0.750000 0.500000 0.160379
O O12 0.661172 0.529302 0.320934
O O13 0.605472 0.548550 0.136373
O O14 0.500000 0.300134 0.739947
O O15 0.636305 0.250000 0.792773
O O16 0.613473 0.350361 0.832291
O O17 0.750000 0.948229 0.500000
O O18 0.610193 0.000000 0.500000
#
# Coordination Sequence:
#
# PCOD9500964 Si02
#       7
#    16  16  16  16  16  16  16
#     4  10  22  40  60  82 112 152 193 234 286 344
#     4  10  22  38  60  84 113 150 194 238 281 330
#     4  10  21  37  57  82 114 148 187 231 284 345
#     4  10  18  35  57  85 116 149 185 226 280 341
#     4  10  21  38  60  84 113 150 190 236 288 341
#     4  11  20  31  54  87 116 150 183 226 279 338
#     4  10  21  38  59  86 113 150 194 235 281 335
#
# _framework density 21.633282000000001
#
# number of rings (size 3 to 8) (size 9 to 14) (size 15 to 20)
#    0.000    1.857    2.857    1.714    2.000    5.429 
#    0.000    4.286    0.000    4.286    0.000    0.000 
#    0.000    0.000    0.000    0.000    0.000    0.000 
#
# Total GULP energy -312483.482891 kJ/mol
# GULP energy per Si atom -5580.062194 kJ/mol
# Density = 2.158404 g / cm^3
# Si number density = 21.633282 Si / 1000 Ang^3
#
#
#
# Elastic Constant Matrix: (Units=GPa)
#
#
# Indices 1 2 3 4 5 6 
#
# 1 29.3003 3.3334 12.7324 0.0000 0.0000 0.0000
# 2 3.3334 205.9426 96.8456 0.0000 0.0000 0.0000
# 3 12.7324 96.8456 157.5256 0.0000 0.0000 0.0000
# 4 0.0000 0.0000 0.0000 -13.3912 0.0000 0.0000
# 5 0.0000 0.0000 0.0000 0.0000 18.6828 0.0000
# 6 0.0000 0.0000 0.0000 0.0000 0.0000 20.3563
#
#
#
# Elastic Compliance Matrix: (Units=1/GPa)
#
#
# Indices 1 2 3 4 5 6 
#
# 1 0.035545 0.001091 -0.003544 0.000000 0.000000 0.000000
# 2 0.001091 0.006864 -0.004308 0.000000 0.000000 0.000000
# 3 -0.003544 -0.004308 0.009283 0.000000 0.000000 0.000000
# 4 0.000000 0.000000 0.000000 -0.074676 0.000000 0.000000
# 5 0.000000 0.000000 0.000000 0.000000 0.053525 0.000000
# 6 0.000000 0.000000 0.000000 0.000000 0.000000 0.049125
#
#
# Mechanical properties :
#
#
# Convention : Reuss Voigt Hill
#
# Bulk Modulus (GPa) = 26.19804 68.73236 47.46520
# Shear Modulus (GPa) = 47.20908 23.78671 35.49790
#
# Velocity S-wave (km/s) = 4.67652 3.31953 4.05519
# Velocity P-wave (km/s) = 6.42620 6.82151 6.62680
#
# Compressibility (1/GPa) = 0.03817079
#
# Stress axis : x y z
#
# Youngs Moduli (GPa) = 28.13317 145.68816 107.72128
#
# Poissons Ratio (x) = -0.15897 0.38175
# Poissons Ratio (y) = -0.03070 0.46408
# Poissons Ratio (z) = 0.09970 0.62764
#
# Static dielectric constant tensor:
#      x y z
#    x 1.853390 0.000000 0.000000 
#    y 0.000000 1.795230 0.000000 
#    z 0.000000 0.000000 1.796050 
# 
# From -- ./inp_files/21063.got.cif
#   From: 2010.05.17/outbox.cif.g08.bks.cpg/sg67_11_cif.got.tgz:21063.got - 2010.06.03 18:28:57.
