data_PCOD9500655
_publ_section_title
;
Structure prediction by ZEFSAII (Michael W. Deem and Ramdas Pophale) SiO2 
 PCOD9500655
Probable space group: C M M A
;
_chemical_formula_sum "Si O2"
_cell_formula_units_Z 96
_cell_length_a 14.854995
_cell_length_b 25.287640
_cell_length_c 10.528908
_cell_angle_alpha 90.000000
_cell_angle_beta 90.000000
_cell_angle_gamma 90.000000
_cell_volume 3955.160766
_symmetry_space_group_name_H-M "C M M A"
_symmetry_group_IT_number 67
_symmetry_cell_setting 'orthorhombic'
loop_
_space_group_symop_operation_xyz
x,y,z
-x,1/2-y,z
x,-y,-z
-x,1/2+y,-z
-x,-y,-z
x,1/2+y,-z
-x,y,z
x,1/2-y,z
1/2+x,1/2+y,z
1/2-x,-y,z
1/2+x,1/2-y,-z
1/2-x,y,-z
1/2-x,1/2-y,-z
1/2+x,y,-z
1/2-x,1/2+y,z
1/2+x,-y,z
loop_
_atom_site_type_symbol
_atom_site_label
_atom_site_fract_x
_atom_site_fract_y
_atom_site_fract_z
Si Si1 0.141908 0.310083 0.974807
Si Si2 0.642494 0.857886 0.223532
Si Si3 0.857967 0.809656 0.526974
Si Si4 0.352749 0.521179 0.136401
Si Si5 0.601626 0.536133 0.613300
Si Si6 0.848176 0.645636 0.278463
O O1 0.125401 0.250000 0.933891
O O2 0.101989 0.322118 0.112802
O O3 0.250000 0.316080 0.000000
O O4 0.111232 0.349282 0.862315
O O5 0.606300 0.850073 0.366212
O O6 0.644714 0.916105 0.161454
O O7 0.745136 0.839498 0.249553
O O8 0.873812 0.750000 0.572019
O O9 0.750000 0.815981 0.500000
O O10 0.893860 0.818512 0.384989
O O11 0.250000 0.500000 0.142978
O O12 0.401241 0.497009 0.257649
O O13 0.386810 0.500000 0.000000
O O14 0.639741 0.500000 0.500000
O O15 0.500000 0.551352 0.575637
O O16 0.653773 0.588536 0.654546
#
# Coordination Sequence:
#
# PCOD9500655 Si02
#       6
#    16  16  16  16  16  16
#     4   9  17  28  49  78 109 140 174 220 278 339
#     4  10  18  30  50  78 110 142 176 222 285 341
#     4   9  17  28  46  74 107 137 174 222 274 333
#     4  11  22  36  58  84 114 148 189 241 287 349
#     4  11  24  40  56  79 113 154 200 242 284 341
#     4  10  18  32  51  74 106 143 181 225 281 334
#
# _framework density 24.272085000000001
#
# number of rings (size 3 to 8) (size 9 to 14) (size 15 to 20)
#    0.000    2.000    1.667    3.000    4.667    4.667 
#    0.000    0.000    0.000    2.000    0.000    0.000 
#    0.000    6.667    0.000    0.000    0.000    0.000 
#
# Total GULP energy -267769.768095 kJ/mol
# GULP energy per Si atom -5578.536835 kJ/mol
# Density = 2.421684 g / cm^3
# Si number density = 24.272085 Si / 1000 Ang^3
#
#
#
# Elastic Constant Matrix: (Units=GPa)
#
#
# Indices 1 2 3 4 5 6 
#
# 1 74.4592 -8.4082 11.8852 0.0000 0.0000 0.0000
# 2 -8.4082 87.9865 80.1619 0.0000 0.0000 0.0000
# 3 11.8852 80.1619 231.9444 0.0000 0.0000 0.0000
# 4 0.0000 0.0000 0.0000 48.8986 0.0000 0.0000
# 5 0.0000 0.0000 0.0000 0.0000 78.6331 0.0000
# 6 0.0000 0.0000 0.0000 0.0000 0.0000 -25.0890
#
#
#
# Elastic Compliance Matrix: (Units=1/GPa)
#
#
# Indices 1 2 3 4 5 6 
#
# 1 0.014035 0.002914 -0.001726 0.000000 0.000000 0.000000
# 2 0.002914 0.017194 -0.006092 0.000000 0.000000 0.000000
# 3 -0.001726 -0.006092 0.006505 0.000000 0.000000 0.000000
# 4 0.000000 0.000000 0.000000 0.020450 0.000000 0.000000
# 5 0.000000 0.000000 0.000000 0.000000 0.012717 0.000000
# 6 0.000000 0.000000 0.000000 0.000000 0.000000 -0.039858
#
#
# Mechanical properties :
#
#
# Convention : Reuss Voigt Hill
#
# Bulk Modulus (GPa) = 35.80918 62.40754 49.10836
# Shear Modulus (GPa) = 99.68161 41.20530 70.44345
#
# Velocity S-wave (km/s) = 6.41542 4.12471 5.39309
# Velocity P-wave (km/s) = 8.34638 6.96073 7.68485
#
# Compressibility (1/GPa) = 0.02792580
#
# Stress axis : x y z
#
# Youngs Moduli (GPa) = 71.25159 58.16074 153.72451
#
# Poissons Ratio (x) = -0.16948 0.26537
# Poissons Ratio (y) = -0.20762 0.93643
# Poissons Ratio (z) = 0.12300 0.35429
#
# Static dielectric constant tensor:
#      x y z
#    x 1.955380 0.000000 0.000000 
#    y 0.000000 1.950870 0.000000 
#    z 0.000000 0.000000 1.974350 
# 
# From -- ./inp_files/11493.got.cif
#   From: 2010.05.17/outbox.cif.g08.bks.cpg/sg67_6_cif.got.tgz:11493.got - 2010.06.03 18:28:57.
