data_PCOD9500723
_publ_section_title
;
Structure prediction by ZEFSAII (Michael W. Deem and Ramdas Pophale) SiO2 
 PCOD9500723
Probable space group: C M M A
;
_chemical_formula_sum "Si O2"
_cell_formula_units_Z 96
_cell_length_a 8.430712
_cell_length_b 29.732107
_cell_length_c 21.308786
_cell_angle_alpha 90.000000
_cell_angle_beta 90.000000
_cell_angle_gamma 90.000000
_cell_volume 5341.320630
_symmetry_space_group_name_H-M "C M M A"
_symmetry_group_IT_number 67
_symmetry_cell_setting 'orthorhombic'
loop_
_space_group_symop_operation_xyz
x,y,z
-x,1/2-y,z
x,-y,-z
-x,1/2+y,-z
-x,-y,-z
x,1/2+y,-z
-x,y,z
x,1/2-y,z
1/2+x,1/2+y,z
1/2-x,-y,z
1/2+x,1/2-y,-z
1/2-x,y,-z
1/2-x,1/2-y,-z
1/2+x,y,-z
1/2-x,1/2+y,z
1/2+x,-y,z
loop_
_atom_site_type_symbol
_atom_site_label
_atom_site_fract_x
_atom_site_fract_y
_atom_site_fract_z
Si Si1 0.691564 0.801890 0.569042
Si Si2 0.306384 0.357373 0.310852
Si Si3 0.688610 0.451483 0.884826
Si Si4 0.693758 0.301771 0.187961
Si Si5 0.189605 0.641927 0.066850
Si Si6 0.309538 0.451753 0.258327
O O1 0.500000 0.802340 0.569001
O O2 0.741594 0.750000 0.580628
O O3 0.750000 0.814991 0.500000
O O4 0.747432 0.834233 0.624861
O O5 0.500000 0.356819 0.311442
O O6 0.256312 0.328024 0.250615
O O7 0.258097 0.408843 0.299000
O O8 0.500000 0.451592 0.886047
O O9 0.750000 0.500000 0.907359
O O10 0.753111 0.409033 0.922588
O O11 0.746707 0.446236 0.812746
O O12 0.500000 0.302002 0.187893
O O13 0.744920 0.250000 0.188334
O O14 0.745852 0.328206 0.125723
O O15 0.000000 0.642241 0.067114
O O16 0.250000 0.658905 0.000000
O O17 0.500000 0.452286 0.255069
O O18 0.250000 0.500000 0.281829
#
# Coordination Sequence:
#
# PCOD9500723 Si02
#       6
#    16  16  16  16  16  16
#     4   9  17  30  50  77 108 140 173 210 254 305
#     4   9  16  29  52  79 104 134 174 214 253 301
#     4  11  21  35  55  78 104 135 169 211 263 316
#     4   9  17  31  53  78 101 130 173 219 257 300
#     4  11  22  37  54  76 104 136 174 215 262 314
#     4  10  18  31  51  78 106 135 169 213 259 308
#
# _framework density 17.973082000000002
#
# number of rings (size 3 to 8) (size 9 to 14) (size 15 to 20)
#    0.000    2.167    1.667    4.000    0.000    2.667 
#    0.000    3.333    0.000    2.000    0.000    3.500 
#    0.000    0.000    0.000    0.000    0.000    0.000 
#
# Total GULP energy -267920.752497 kJ/mol
# GULP energy per Si atom -5581.682344 kJ/mol
# Density = 1.793217 g / cm^3
# Si number density = 17.973082 Si / 1000 Ang^3
#
#
#
# Elastic Constant Matrix: (Units=GPa)
#
#
# Indices 1 2 3 4 5 6 
#
# 1 39.9098 17.6051 17.1459 0.0000 0.0000 0.0000
# 2 17.6051 138.2247 85.9215 0.0000 0.0000 0.0000
# 3 17.1459 85.9215 138.3254 0.0000 0.0000 0.0000
# 4 0.0000 0.0000 0.0000 26.6427 0.0000 0.0000
# 5 0.0000 0.0000 0.0000 0.0000 23.9390 0.0000
# 6 0.0000 0.0000 0.0000 0.0000 0.0000 11.8772
#
#
#
# Elastic Compliance Matrix: (Units=1/GPa)
#
#
# Indices 1 2 3 4 5 6 
#
# 1 0.026871 -0.002202 -0.001963 0.000000 0.000000 0.000000
# 2 -0.002202 0.011965 -0.007159 0.000000 0.000000 0.000000
# 3 -0.001963 -0.007159 0.011920 0.000000 0.000000 0.000000
# 4 0.000000 0.000000 0.000000 0.037534 0.000000 0.000000
# 5 0.000000 0.000000 0.000000 0.000000 0.041773 0.000000
# 6 0.000000 0.000000 0.000000 0.000000 0.000000 0.084195
#
#
# Mechanical properties :
#
#
# Convention : Reuss Voigt Hill
#
# Bulk Modulus (GPa) = 35.57793 61.97833 48.77813
# Shear Modulus (GPa) = 20.30243 25.54428 22.92335
#
# Velocity S-wave (km/s) = 3.36460 3.77404 3.57519
# Velocity P-wave (km/s) = 5.91034 7.31779 6.65140
#
# Compressibility (1/GPa) = 0.02810731
#
# Stress axis : x y z
#
# Youngs Moduli (GPa) = 37.21446 83.57396 83.89462
#
# Poissons Ratio (x) = 0.18407 0.16466
# Poissons Ratio (y) = 0.08196 0.60064
# Poissons Ratio (z) = 0.07304 0.59834
#
# Static dielectric constant tensor:
#      x y z
#    x 1.622630 0.000000 0.000000 
#    y 0.000000 1.618660 0.000000 
#    z 0.000000 0.000000 1.600560 
# 
# From -- ./inp_files/37210.got.cif
#   From: 2010.05.17/outbox.cif.g08.bks.cpg/sg67_19_cif.got.tgz:37210.got - 2010.06.03 18:28:57.
