data_PCOD9500081
_publ_section_title
;
Structure prediction by ZEFSAII (Michael W. Deem and Ramdas Pophale) SiO2 
 PCOD9500081
Probable space group: C C C M
;
_chemical_formula_sum "Si O2"
_cell_formula_units_Z 56
_cell_length_a 15.000000
_cell_length_b 15.000000
_cell_length_c 24.000000
_cell_angle_alpha 90.000000
_cell_angle_beta 90.000000
_cell_angle_gamma 90.000000
_cell_volume 5400.000000
_symmetry_space_group_name_H-M "C C C M"
_symmetry_group_IT_number 66
_symmetry_cell_setting 'orthorhombic'
loop_
_space_group_symop_operation_xyz
x,y,z
-x,-y,z
x,-y,1/2-z
-x,y,1/2-z
-x,-y,-z
x,y,-z
-x,y,1/2+z
x,-y,1/2+z
1/2+x,1/2+y,z
1/2-x,1/2-y,z
1/2+x,1/2-y,1/2-z
1/2-x,1/2+y,1/2-z
1/2-x,1/2-y,-z
1/2+x,1/2+y,-z
1/2-x,1/2+y,1/2+z
1/2+x,1/2-y,1/2+z
loop_
_atom_site_type_symbol
_atom_site_label
_atom_site_fract_x
_atom_site_fract_y
_atom_site_fract_z
Si Si1 0.772724 0.464494 0.165557
Si Si2 0.167901 0.179420 0.723915
Si Si3 0.971976 0.592637 0.313813
Si Si4 0.202087 0.155026 0.847021
Si Si5 0.546120 0.247460 0.876160
Si Si6 0.947913 0.093050 0.566566
Si Si7 0.798089 0.345234 0.935581
O O1 0.698315 0.417974 0.203366
O O2 0.864932 0.419698 0.186174
O O3 0.768267 0.571323 0.166276
O O4 0.760309 0.422336 0.103846
O O5 0.250000 0.250000 0.720498
O O6 0.146668 0.172283 0.789523
O O7 0.098479 0.213452 0.677620
O O8 0.015984 0.674943 0.346117
O O9 0.000000 0.500000 0.340798
O O10 0.000000 0.597525 0.250000
O O11 0.250000 0.250000 0.860558
O O12 0.138812 0.114918 0.895574
O O13 0.511546 0.325896 0.914407
O O14 0.604346 0.181292 0.914599
O O15 0.929910 0.094896 0.500000
O O16 0.000000 0.000000 0.578758
O O17 0.750000 0.250000 0.926962
O O18 0.792913 0.369269 0.000000
#
# Coordination Sequence:
#
# PCOD9500081 Si02
#       7
#    16  16  16  16  16  16  16
#     4  11  21  41  60  92 132 164 213 265 313 392
#     4  11  20  38  64 102 132 170 207 272 328 401
#     4  10  24  34  63  95 130 167 204 252 320 392
#     4  11  28  41  67  94 135 180 221 263 334 406
#     4  11  21  40  66  93 134 162 216 272 326 384
#     4  11  27  48  68  92 127 177 233 282 333 396
#     4  10  19  35  65  97 121 159 209 272 328 365
#
# _framework density 10.370369999999999
#
# number of rings (size 3 to 8) (size 9 to 14) (size 15 to 20)
#    0.000    1.286    4.286    1.714    8.000    0.857 
#    0.000    0.714    0.000    2.143    0.000    0.000 
#    0.000    0.000    0.000    0.000    0.000    0.000 
#
# Total GULP energy -312299.837283 kJ/mol
# GULP energy per Si atom -5576.782809 kJ/mol
# Density = 1.034677 g / cm^3
# Si number density = 10.370370 Si / 1000 Ang^3
#
#
#
# Elastic Constant Matrix: (Units=GPa)
#
#
# Indices 1 2 3 4 5 6 
#
# 1 27.4709 16.1014 21.0237 0.0000 0.0000 0.0000
# 2 16.1014 152.0584 39.0043 0.0000 0.0000 0.0000
# 3 21.0237 39.0043 130.5794 0.0000 0.0000 0.0000
# 4 0.0000 0.0000 0.0000 28.6907 0.0000 0.0000
# 5 0.0000 0.0000 0.0000 0.0000 23.8785 0.0000
# 6 0.0000 0.0000 0.0000 0.0000 0.0000 31.3256
#
#
#
# Elastic Compliance Matrix: (Units=1/GPa)
#
#
# Indices 1 2 3 4 5 6 
#
# 1 0.042737 -0.002989 -0.005988 0.000000 0.000000 0.000000
# 2 -0.002989 0.007331 -0.001709 0.000000 0.000000 0.000000
# 3 -0.005988 -0.001709 0.009133 0.000000 0.000000 0.000000
# 4 0.000000 0.000000 0.000000 0.034854 0.000000 0.000000
# 5 0.000000 0.000000 0.000000 0.000000 0.041879 0.000000
# 6 0.000000 0.000000 0.000000 0.000000 0.000000 0.031923
#
#
# Mechanical properties :
#
#
# Convention : Reuss Voigt Hill
#
# Bulk Modulus (GPa) = 26.43470 51.37417 38.90444
# Shear Modulus (GPa) = 24.77234 32.37759 28.57496
#
# Velocity S-wave (km/s) = 3.45973 3.95531 3.71579
# Velocity P-wave (km/s) = 5.36028 6.75891 6.09981
#
# Compressibility (1/GPa) = 0.03782906
#
# Stress axis : x y z
#
# Youngs Moduli (GPa) = 23.39897 136.40281 109.49814
#
# Poissons Ratio (x) = 0.40777 0.65565
# Poissons Ratio (y) = 0.06995 0.18708
# Poissons Ratio (z) = 0.14011 0.23305
#
# Static dielectric constant tensor:
#      x y z
#    x 1.926610 0.000000 0.000000 
#    y 0.000000 1.785310 0.000000 
#    z 0.000000 0.000000 1.742020 
# 
# From -- ./inp_files/58249.got.cif
#   From: 2010.05.17/outbox.ucp.g08.bks.cvg/sg66_30_cif.got.tgz:58249.got - 2010.06.11 16:44:13.
