data_PCOD9500123
_publ_section_title
;
Structure prediction by ZEFSAII (Michael W. Deem and Ramdas Pophale) SiO2 
 PCOD9500123
Probable space group: C C C M
;
_chemical_formula_sum "Si O2"
_cell_formula_units_Z 36
_cell_length_a 9.000000
_cell_length_b 27.000000
_cell_length_c 15.000000
_cell_angle_alpha 90.000000
_cell_angle_beta 90.000000
_cell_angle_gamma 90.000000
_cell_volume 3645.000000
_symmetry_space_group_name_H-M "C C C M"
_symmetry_group_IT_number 66
_symmetry_cell_setting 'orthorhombic'
loop_
_space_group_symop_operation_xyz
x,y,z
-x,-y,z
x,-y,1/2-z
-x,y,1/2-z
-x,-y,-z
x,y,-z
-x,y,1/2+z
x,-y,1/2+z
1/2+x,1/2+y,z
1/2-x,1/2-y,z
1/2+x,1/2-y,1/2-z
1/2-x,1/2+y,1/2-z
1/2-x,1/2-y,-z
1/2+x,1/2+y,-z
1/2-x,1/2+y,1/2+z
1/2+x,1/2-y,1/2+z
loop_
_atom_site_type_symbol
_atom_site_label
_atom_site_fract_x
_atom_site_fract_y
_atom_site_fract_z
Si Si1 0.235566 0.946128 0.000000
Si Si2 0.932435 0.199866 0.151563
Si Si3 0.786008 0.446994 0.500000
Si Si4 0.421919 0.190617 0.653961
Si Si5 0.534246 0.629653 0.000000
Si Si6 0.481705 0.919075 0.141632
O O1 0.333625 0.937085 0.089897
O O2 0.191912 0.003254 0.000000
O O3 0.099882 0.909215 0.000000
O O4 0.757183 0.187075 0.158141
O O5 0.949603 0.255528 0.112962
O O6 0.000000 0.197861 0.250000
O O7 0.014522 0.162763 0.086981
O O8 0.686504 0.399002 0.500000
O O9 0.888074 0.445987 0.412001
O O10 0.500000 0.193833 0.750000
O O11 0.484576 0.139483 0.616810
O O12 0.500000 0.924420 0.250000
#
# Coordination Sequence:
#
# PCOD9500123 Si02
#       6
#     8  16   8  16   8  16
#     4  11  23  44  61  87 117 158 200 257 298 347
#     4  10  22  39  61  90 127 159 195 238 294 357
#     4  11  27  40  60  87 124 149 206 258 297 343
#     4   9  19  37  65  90 121 156 196 240 293 349
#     4  12  25  39  60  90 119 167 197 237 303 362
#     4  10  21  41  67  91 115 155 198 246 301 355
#
# _framework density 9.8765429999999999
#
# number of rings (size 3 to 8) (size 9 to 14) (size 15 to 20)
#    0.000    1.778    2.222    1.667    6.222    5.333 
#    0.000    1.111    0.000    4.000    0.000    0.000 
#    0.000    0.000    0.000    0.000    0.000    0.000 
#
# Total GULP energy -200690.721943 kJ/mol
# GULP energy per Si atom -5574.742276 kJ/mol
# Density = 0.985406 g / cm^3
# Si number density = 9.876543 Si / 1000 Ang^3
#
#
#
# Elastic Constant Matrix: (Units=GPa)
#
#
# Indices 1 2 3 4 5 6 
#
# 1 20.0501 0.2395 10.3664 0.0000 0.0000 0.0000
# 2 0.2395 110.0406 21.3805 0.0000 0.0000 0.0000
# 3 10.3664 21.3805 112.0881 0.0000 0.0000 0.0000
# 4 0.0000 0.0000 0.0000 24.5407 0.0000 0.0000
# 5 0.0000 0.0000 0.0000 0.0000 8.6506 0.0000
# 6 0.0000 0.0000 0.0000 0.0000 0.0000 23.4136
#
#
#
# Elastic Compliance Matrix: (Units=1/GPa)
#
#
# Indices 1 2 3 4 5 6 
#
# 1 0.052458 0.000860 -0.005016 0.000000 0.000000 0.000000
# 2 0.000860 0.009451 -0.001882 0.000000 0.000000 0.000000
# 3 -0.005016 -0.001882 0.009744 0.000000 0.000000 0.000000
# 4 0.000000 0.000000 0.000000 0.040749 0.000000 0.000000
# 5 0.000000 0.000000 0.000000 0.000000 0.115599 0.000000
# 6 0.000000 0.000000 0.000000 0.000000 0.000000 0.042710
#
#
# Mechanical properties :
#
#
# Convention : Reuss Voigt Hill
#
# Bulk Modulus (GPa) = 16.78455 34.01685 25.40070
# Shear Modulus (GPa) = 16.52091 25.33381 20.92736
#
# Velocity S-wave (km/s) = 2.89515 3.58512 3.25845
# Velocity P-wave (km/s) = 4.43750 5.86480 5.20035
#
# Compressibility (1/GPa) = 0.05957859
#
# Stress axis : x y z
#
# Youngs Moduli (GPa) = 19.06282 105.80416 102.62219
#
# Poissons Ratio (x) = -0.09103 0.51472
# Poissons Ratio (y) = -0.01640 0.19318
# Poissons Ratio (z) = 0.09561 0.19917
#
# Static dielectric constant tensor:
#      x y z
#    x 1.679930 0.000000 0.000000 
#    y 0.000000 1.737060 0.000000 
#    z 0.000000 0.000000 1.683520 
# 
# From -- ./inp_files/24524.got.cif
#   From: 2010.05.17/outbox.ucp.g08.bks.cvg/sg66_13_cif.got.tgz:24524.got - 2010.06.11 16:44:13.
