data_PCOD9500380
_publ_section_title
;
Structure prediction by ZEFSAII (Michael W. Deem and Ramdas Pophale) SiO2 
 PCOD9500380
Probable space group: C M M A
;
_chemical_formula_sum "Si O2"
_cell_formula_units_Z 64
_cell_length_a 18.679831
_cell_length_b 8.653433
_cell_length_c 21.434583
_cell_angle_alpha 90.000000
_cell_angle_beta 90.000000
_cell_angle_gamma 90.000000
_cell_volume 3464.786010
_symmetry_space_group_name_H-M "C M M A"
_symmetry_group_IT_number 67
_symmetry_cell_setting 'orthorhombic'
loop_
_space_group_symop_operation_xyz
x,y,z
-x,1/2-y,z
x,-y,-z
-x,1/2+y,-z
-x,-y,-z
x,1/2+y,-z
-x,y,z
x,1/2-y,z
1/2+x,1/2+y,z
1/2-x,-y,z
1/2+x,1/2-y,-z
1/2-x,y,-z
1/2-x,1/2-y,-z
1/2+x,y,-z
1/2-x,1/2+y,z
1/2+x,-y,z
loop_
_atom_site_type_symbol
_atom_site_label
_atom_site_fract_x
_atom_site_fract_y
_atom_site_fract_z
Si Si1 0.670013 0.435205 0.433632
Si Si2 0.416062 0.564180 0.690238
Si Si3 0.330404 0.933801 0.193387
Si Si4 0.668560 0.934589 0.936035
O O1 0.643904 0.500000 0.500000
O O2 0.673550 0.250000 0.437406
O O3 0.750000 0.500000 0.423826
O O4 0.620833 0.478800 0.375233
O O5 0.500000 0.528379 0.689332
O O6 0.407794 0.750000 0.697775
O O7 0.376738 0.481704 0.747273
O O8 0.325923 0.750000 0.186664
O O9 0.250000 0.000000 0.201803
O O10 0.362066 0.005840 0.129479
O O11 0.670298 0.750000 0.937850
O O12 0.750000 0.000000 0.935091
O O13 0.635325 0.000000 0.000000
#
# Coordination Sequence:
#
# PCOD9500380 Si02
#       4
#    16  16  16  16
#     4  10  20  35  57  82 108 139 175 218 265 316
#     4  10  22  39  56  77 108 144 180 221 270 320
#     4  11  21  34  54  80 108 141 182 224 269 320
#     4  10  17  28  47  74 107 139 174 219 270 319
#
# _framework density 18.47156
#
# number of rings (size 3 to 8) (size 9 to 14) (size 15 to 20)
#    0.000    1.750    0.000    9.000    0.000    5.000 
#    0.000    0.000    0.000    0.750    0.000    0.000 
#    0.000    0.000    0.000    0.000    0.000    0.000 
#
# Total GULP energy -178692.791114 kJ/mol
# GULP energy per Si atom -5584.149722 kJ/mol
# Density = 1.842952 g / cm^3
# Si number density = 18.471560 Si / 1000 Ang^3
#
#
#
# Elastic Constant Matrix: (Units=GPa)
#
#
# Indices 1 2 3 4 5 6 
#
# 1 53.9648 44.9133 70.7104 0.0000 0.0000 0.0000
# 2 44.9133 134.1105 92.7957 0.0000 0.0000 0.0000
# 3 70.7104 92.7957 206.1994 0.0000 0.0000 0.0000
# 4 0.0000 0.0000 0.0000 42.6231 0.0000 0.0000
# 5 0.0000 0.0000 0.0000 0.0000 -12.6020 0.0000
# 6 0.0000 0.0000 0.0000 0.0000 0.0000 14.8257
#
#
#
# Elastic Compliance Matrix: (Units=1/GPa)
#
#
# Indices 1 2 3 4 5 6 
#
# 1 0.035893 -0.005088 -0.010019 0.000000 0.000000 0.000000
# 2 -0.005088 0.011550 -0.003453 0.000000 0.000000 0.000000
# 3 -0.010019 -0.003453 0.009839 0.000000 0.000000 0.000000
# 4 0.000000 0.000000 0.000000 0.023461 0.000000 0.000000
# 5 0.000000 0.000000 0.000000 0.000000 -0.079352 0.000000
# 6 0.000000 0.000000 0.000000 0.000000 0.000000 0.067450
#
#
# Mechanical properties :
#
#
# Convention : Reuss Voigt Hill
#
# Bulk Modulus (GPa) = 49.59732 90.12372 69.86052
# Shear Modulus (GPa) = 44.37290 21.35971 32.86631
#
# Velocity S-wave (km/s) = 4.90657 3.40421 4.22274
# Velocity P-wave (km/s) = 7.68168 8.02172 7.85354
#
# Compressibility (1/GPa) = 0.02016238
#
# Stress axis : x y z
#
# Youngs Moduli (GPa) = 27.86071 86.58230 101.63471
#
# Poissons Ratio (x) = 0.44055 1.01824
# Poissons Ratio (y) = 0.14176 0.35093
# Poissons Ratio (z) = 0.27913 0.29895
#
# Static dielectric constant tensor:
#      x y z
#    x 1.602540 0.000000 0.000000 
#    y 0.000000 1.622970 0.000000 
#    z 0.000000 0.000000 1.672150 
# 
# From -- ./inp_files/36567.got.cif
#   From: 2010.05.17/outbox.cif.g08.bks.cpg/sg67_19_cif.got.tgz:36567.got - 2010.06.03 18:28:57.
