data_PCOD9500801
_publ_section_title
;
Structure prediction by ZEFSAII (Michael W. Deem and Ramdas Pophale) SiO2 
 PCOD9500801
Probable space group: C M M A
;
_chemical_formula_sum "Si O2"
_cell_formula_units_Z 96
_cell_length_a 15.462698
_cell_length_b 8.825103
_cell_length_c 32.439249
_cell_angle_alpha 90.000000
_cell_angle_beta 90.000000
_cell_angle_gamma 90.000000
_cell_volume 4426.656756
_symmetry_space_group_name_H-M "C M M A"
_symmetry_group_IT_number 67
_symmetry_cell_setting 'orthorhombic'
loop_
_space_group_symop_operation_xyz
x,y,z
-x,1/2-y,z
x,-y,-z
-x,1/2+y,-z
-x,-y,-z
x,1/2+y,-z
-x,y,z
x,1/2-y,z
1/2+x,1/2+y,z
1/2-x,-y,z
1/2+x,1/2-y,-z
1/2-x,y,-z
1/2-x,1/2-y,-z
1/2+x,y,-z
1/2-x,1/2+y,z
1/2+x,-y,z
loop_
_atom_site_type_symbol
_atom_site_label
_atom_site_fract_x
_atom_site_fract_y
_atom_site_fract_z
Si Si1 0.651851 0.931725 0.291988
Si Si2 0.893977 0.424244 0.957191
Si Si3 0.897413 0.080127 0.459130
Si Si4 0.154245 0.929832 0.209077
Si Si5 0.153875 0.069424 0.624779
Si Si6 0.897385 0.581290 0.874006
O O1 0.654734 0.750000 0.292307
O O2 0.750000 0.000000 0.291857
O O3 0.611899 0.993052 0.249426
O O4 0.612108 0.995173 0.334343
O O5 0.867097 0.250000 0.955503
O O6 0.863032 0.511876 0.916528
O O7 0.000000 0.426531 0.956936
O O8 0.866647 0.500000 0.000000
O O9 0.860993 0.250000 0.453184
O O10 0.000000 0.095595 0.465622
O O11 0.860964 0.000000 0.500000
O O12 0.886586 0.980997 0.418283
O O13 0.156650 0.750000 0.214752
O O14 0.250000 0.000000 0.206894
O O15 0.114432 0.975498 0.165484
O O16 0.155922 0.250000 0.629204
O O17 0.250000 0.000000 0.622821
O O18 0.861367 0.750000 0.865887
O O19 0.000000 0.595408 0.879927
#
# Coordination Sequence:
#
# PCOD9500801 Si02
#       6
#    16  16  16  16  16  16
#     4  10  18  32  53  77 105 136 173 214 259 308
#     4   9  16  27  45  70  99 132 170 211 256 306
#     4  10  21  38  58  80 108 142 178 215 259 312
#     4  11  21  35  55  78 105 138 177 215 256 310
#     4  11  21  35  56  82 110 138 174 218 263 307
#     4  10  20  34  52  76 106 137 171 215 264 309
#
# _framework density 21.686795
#
# number of rings (size 3 to 8) (size 9 to 14) (size 15 to 20)
#    0.000    1.833    0.000    8.000    0.000    4.333 
#    0.000    2.500    0.000    5.500    0.000    3.500 
#    0.000    0.000    0.000    0.000    0.000    0.000 
#
# Total GULP energy -268103.529759 kJ/mol
# GULP energy per Si atom -5585.490203 kJ/mol
# Density = 2.163744 g / cm^3
# Si number density = 21.686795 Si / 1000 Ang^3
#
#
#
# Elastic Constant Matrix: (Units=GPa)
#
#
# Indices 1 2 3 4 5 6 
#
# 1 20.8797 8.6670 8.2092 0.0000 0.0000 0.0000
# 2 8.6670 230.4527 94.7893 0.0000 0.0000 0.0000
# 3 8.2092 94.7893 205.4383 0.0000 0.0000 0.0000
# 4 0.0000 0.0000 0.0000 35.9782 0.0000 0.0000
# 5 0.0000 0.0000 0.0000 0.0000 6.3465 0.0000
# 6 0.0000 0.0000 0.0000 0.0000 0.0000 15.2307
#
#
#
# Elastic Compliance Matrix: (Units=1/GPa)
#
#
# Indices 1 2 3 4 5 6 
#
# 1 0.048962 -0.001279 -0.001366 0.000000 0.000000 0.000000
# 2 -0.001279 0.005389 -0.002435 0.000000 0.000000 0.000000
# 3 -0.001366 -0.002435 0.006046 0.000000 0.000000 0.000000
# 4 0.000000 0.000000 0.000000 0.027795 0.000000 0.000000
# 5 0.000000 0.000000 0.000000 0.000000 0.157567 0.000000
# 6 0.000000 0.000000 0.000000 0.000000 0.000000 0.065657
#
#
# Mechanical properties :
#
#
# Convention : Reuss Voigt Hill
#
# Bulk Modulus (GPa) = 19.90655 75.56685 47.73670
# Shear Modulus (GPa) = 14.77880 34.51808 24.64844
#
# Velocity S-wave (km/s) = 2.61332 3.99389 3.37495
# Velocity P-wave (km/s) = 4.27843 7.49590 6.10301
#
# Compressibility (1/GPa) = 0.05023473
#
# Stress axis : x y z
#
# Youngs Moduli (GPa) = 20.42413 185.55847 165.40029
#
# Poissons Ratio (x) = 0.23741 0.22596
# Poissons Ratio (y) = 0.02613 0.40282
# Poissons Ratio (z) = 0.02790 0.45191
#
# Static dielectric constant tensor:
#      x y z
#    x 1.840760 0.000000 0.000000 
#    y 0.000000 1.756220 0.000000 
#    z 0.000000 0.000000 1.828790 
# 
# From -- ./inp_files/44609.got.cif
#   From: 2010.05.17/outbox.cif.g08.bks.cpg/sg67_23_cif.got.tgz:44609.got - 2010.06.03 18:28:57.
