data_PCOD9500976
_publ_section_title
;
Structure prediction by ZEFSAII (Michael W. Deem and Ramdas Pophale) SiO2 
 PCOD9500976
Probable space group: C M M A
;
_chemical_formula_sum "Si O2"
_cell_formula_units_Z 88
_cell_length_a 28.405480
_cell_length_b 8.113772
_cell_length_c 19.412272
_cell_angle_alpha 90.000000
_cell_angle_beta 90.000000
_cell_angle_gamma 90.000000
_cell_volume 4474.054809
_symmetry_space_group_name_H-M "C M M A"
_symmetry_group_IT_number 67
_symmetry_cell_setting 'orthorhombic'
loop_
_space_group_symop_operation_xyz
x,y,z
-x,1/2-y,z
x,-y,-z
-x,1/2+y,-z
-x,-y,-z
x,1/2+y,-z
-x,y,z
x,1/2-y,z
1/2+x,1/2+y,z
1/2-x,-y,z
1/2+x,1/2-y,-z
1/2-x,y,-z
1/2-x,1/2-y,-z
1/2+x,y,-z
1/2-x,1/2+y,z
1/2+x,-y,z
loop_
_atom_site_type_symbol
_atom_site_label
_atom_site_fract_x
_atom_site_fract_y
_atom_site_fract_z
Si Si1 0.198973 0.948360 0.829441
Si Si2 0.387763 0.051412 0.921366
Si Si3 0.000000 0.444752 0.578904
Si Si4 0.904111 0.948553 0.655147
Si Si5 0.947416 0.548931 0.796544
Si Si6 0.698326 0.948807 0.330255
O O1 0.195510 0.750000 0.826599
O O2 0.158762 0.007956 0.881015
O O3 0.195438 0.005948 0.749951
O O4 0.250000 0.000000 0.855361
O O5 0.387122 0.250000 0.920464
O O6 0.429976 0.996171 0.871415
O O7 0.390716 0.000000 0.000000
O O8 0.000000 0.500000 0.500000
O O9 0.049023 0.503417 0.613528
O O10 0.000000 0.250000 0.583198
O O11 0.902960 0.750000 0.653899
O O12 0.913713 0.001452 0.734198
O O13 0.851122 0.004854 0.635072
O O14 0.947444 0.750000 0.796096
O O15 0.000000 0.492323 0.781571
O O16 0.698136 0.750000 0.330456
O O17 0.750000 0.000000 0.357218
#
# Coordination Sequence:
#
# PCOD9500976 Si02
#       6
#    16  16   8  16  16  16
#     4   9  17  30  47  68  97 132 176 226 276 332
#     4  10  20  33  47  67  96 134 180 229 281 336
#     4  12  26  42  62  94 129 156 183 222 273 326
#     4  10  18  35  63  88 113 152 195 232 275 334
#     4   9  16  30  55  77  96 133 183 226 272 336
#     4   9  17  30  53  84 114 147 189 235 283 335
#
# _framework density 19.668959000000001
#
# number of rings (size 3 to 8) (size 9 to 14) (size 15 to 20)
#    0.000    2.364    2.727    0.818    0.000    2.182 
#    0.000    2.727    0.000    0.545    0.000    3.818 
#    0.000    0.000    0.000    0.000    0.000    0.000 
#
# Total GULP energy -245160.879665 kJ/mol
# GULP energy per Si atom -5571.838174 kJ/mol
# Density = 1.962419 g / cm^3
# Si number density = 19.668959 Si / 1000 Ang^3
#
#
#
# Elastic Constant Matrix: (Units=GPa)
#
#
# Indices 1 2 3 4 5 6 
#
# 1 188.1909 21.9408 40.5354 0.0000 0.0000 0.0000
# 2 21.9408 17.4012 4.8967 0.0000 0.0000 0.0000
# 3 40.5354 4.8967 57.2744 0.0000 0.0000 0.0000
# 4 0.0000 0.0000 0.0000 21.0306 0.0000 0.0000
# 5 0.0000 0.0000 0.0000 0.0000 16.3263 0.0000
# 6 0.0000 0.0000 0.0000 0.0000 0.0000 24.3056
#
#
#
# Elastic Compliance Matrix: (Units=1/GPa)
#
#
# Indices 1 2 3 4 5 6 
#
# 1 0.007173 -0.007804 -0.004410 0.000000 0.000000 0.000000
# 2 -0.007804 0.067374 -0.000237 0.000000 0.000000 0.000000
# 3 -0.004410 -0.000237 0.020601 0.000000 0.000000 0.000000
# 4 0.000000 0.000000 0.000000 0.047550 0.000000 0.000000
# 5 0.000000 0.000000 0.000000 0.000000 0.061251 0.000000
# 6 0.000000 0.000000 0.000000 0.000000 0.000000 0.041143
#
#
# Mechanical properties :
#
#
# Convention : Reuss Voigt Hill
#
# Bulk Modulus (GPa) = 14.23553 44.17915 29.20734
# Shear Modulus (GPa) = 17.04110 25.36541 21.20325
#
# Velocity S-wave (km/s) = 2.94665 3.59502 3.28686
# Velocity P-wave (km/s) = 4.33939 6.30415 5.41168
#
# Compressibility (1/GPa) = 0.07024676
#
# Stress axis : x y z
#
# Youngs Moduli (GPa) = 139.40345 14.84261 48.54131
#
# Poissons Ratio (x) = 0.11583 0.21405
# Poissons Ratio (y) = 1.08789 0.01151
# Poissons Ratio (z) = 0.61473 0.00352
#
# Static dielectric constant tensor:
#      x y z
#    x 1.742180 0.000000 0.000000 
#    y 0.000000 1.713800 0.000000 
#    z 0.000000 0.000000 1.661090 
# 
# From -- ./inp_files/32416.got.cif
#   From: 2010.05.17/outbox.cif.g08.bks.cpg/sg67_17_cif.got.tgz:32416.got - 2010.06.03 18:28:57.
