data_PCOD9500131
_publ_section_title
;
Structure prediction by ZEFSAII (Michael W. Deem and Ramdas Pophale) SiO2 
 PCOD9500131
Probable space group: C C C M
;
_chemical_formula_sum "Si O2"
_cell_formula_units_Z 44
_cell_length_a 21.000000
_cell_length_b 12.000000
_cell_length_c 18.000000
_cell_angle_alpha 90.000000
_cell_angle_beta 90.000000
_cell_angle_gamma 90.000000
_cell_volume 4536.000000
_symmetry_space_group_name_H-M "C C C M"
_symmetry_group_IT_number 66
_symmetry_cell_setting 'orthorhombic'
loop_
_space_group_symop_operation_xyz
x,y,z
-x,-y,z
x,-y,1/2-z
-x,y,1/2-z
-x,-y,-z
x,y,-z
-x,y,1/2+z
x,-y,1/2+z
1/2+x,1/2+y,z
1/2-x,1/2-y,z
1/2+x,1/2-y,1/2-z
1/2-x,1/2+y,1/2-z
1/2-x,1/2-y,-z
1/2+x,1/2+y,-z
1/2-x,1/2+y,1/2+z
1/2+x,1/2-y,1/2+z
loop_
_atom_site_type_symbol
_atom_site_label
_atom_site_fract_x
_atom_site_fract_y
_atom_site_fract_z
Si Si1 0.008891 0.339286 0.411484
Si Si2 0.234613 0.477523 0.408548
Si Si3 0.831713 0.893349 0.803741
Si Si4 0.477220 0.373490 0.833058
Si Si5 0.750000 0.750000 0.309585
Si Si6 0.100035 0.509243 0.659902
O O1 0.005946 0.360580 0.500000
O O2 0.070484 0.396189 0.374633
O O3 0.007113 0.209691 0.392505
O O4 0.949912 0.397312 0.367864
O O5 0.238689 0.469246 0.500000
O O6 0.286659 0.560394 0.370400
O O7 0.238180 0.356783 0.364618
O O8 0.167241 0.526362 0.380171
O O9 0.901015 0.863617 0.834384
O O10 0.802971 0.796633 0.749699
O O11 0.840399 0.000000 0.750000
O O12 0.500000 0.500000 0.844738
O O13 0.500000 0.340805 0.750000
O O14 0.104565 0.500000 0.750000
#
# Coordination Sequence:
#
# PCOD9500131 Si02
#       6
#    16  16  16  16   8  16
#     4  11  24  39  62  97 136 167 212 273 330 388
#     4  11  24  41  65  96 134 169 213 281 340 387
#     4  10  22  42  63  94 126 171 221 267 313 395
#     4  11  23  41  67  91 125 175 226 262 313 385
#     4  10  23  40  67  94 126 170 224 266 325 400
#     4  11  22  42  66  96 126 172 220 264 330 398
#
# _framework density 9.7001760000000008
#
# number of rings (size 3 to 8) (size 9 to 14) (size 15 to 20)
#    0.000    1.273    1.818    6.273    7.636    1.091 
#    0.000    2.273    0.000    0.000    0.000    0.000 
#    0.000    0.000    0.000    0.000    0.000    0.000 
#
# Total GULP energy -245659.024937 kJ/mol
# GULP energy per Si atom -5583.159658 kJ/mol
# Density = 0.967810 g / cm^3
# Si number density = 9.700176 Si / 1000 Ang^3
#
#
#
# Elastic Constant Matrix: (Units=GPa)
#
#
# Indices 1 2 3 4 5 6 
#
# 1 110.6108 20.2646 32.4910 0.0000 0.0000 0.0000
# 2 20.2646 55.7297 41.2645 0.0000 0.0000 0.0000
# 3 32.4910 41.2645 166.9009 0.0000 0.0000 0.0000
# 4 0.0000 0.0000 0.0000 33.1193 0.0000 0.0000
# 5 0.0000 0.0000 0.0000 0.0000 25.4417 0.0000
# 6 0.0000 0.0000 0.0000 0.0000 0.0000 17.6739
#
#
#
# Elastic Compliance Matrix: (Units=1/GPa)
#
#
# Indices 1 2 3 4 5 6 
#
# 1 0.009901 -0.002660 -0.001270 0.000000 0.000000 0.000000
# 2 -0.002660 0.022679 -0.005089 0.000000 0.000000 0.000000
# 3 -0.001270 -0.005089 0.007497 0.000000 0.000000 0.000000
# 4 0.000000 0.000000 0.000000 0.030194 0.000000 0.000000
# 5 0.000000 0.000000 0.000000 0.000000 0.039305 0.000000
# 6 0.000000 0.000000 0.000000 0.000000 0.000000 0.056580
#
#
# Mechanical properties :
#
#
# Convention : Reuss Voigt Hill
#
# Bulk Modulus (GPa) = 45.37404 57.92019 51.64712
# Shear Modulus (GPa) = 26.10392 31.19509 28.64950
#
# Velocity S-wave (km/s) = 3.67214 4.01429 3.84702
# Velocity P-wave (km/s) = 6.43572 7.16981 6.81266
#
# Compressibility (1/GPa) = 0.02203903
#
# Stress axis : x y z
#
# Youngs Moduli (GPa) = 100.99954 44.09290 133.38529
#
# Poissons Ratio (x) = 0.11729 0.16937
# Poissons Ratio (y) = 0.26866 0.67885
# Poissons Ratio (z) = 0.12825 0.22441
#
# Static dielectric constant tensor:
#      x y z
#    x 1.714410 0.000000 0.000000 
#    y 0.000000 1.721860 0.000000 
#    z 0.000000 0.000000 1.638170 
# 
# From -- ./inp_files/42758.got.cif
#   From: 2010.05.17/outbox.ucp.g08.bks.cvg/sg66_22_cif.got.tgz:42758.got - 2010.06.11 16:44:13.
