data_PCOD9500075
_publ_section_title
;
Structure prediction by ZEFSAII (Michael W. Deem and Ramdas Pophale) SiO2 
 PCOD9500075
Probable space group: C C C M
;
_chemical_formula_sum "Si O2"
_cell_formula_units_Z 48
_cell_length_a 21.000000
_cell_length_b 27.000000
_cell_length_c 9.000000
_cell_angle_alpha 90.000000
_cell_angle_beta 90.000000
_cell_angle_gamma 90.000000
_cell_volume 5103.000000
_symmetry_space_group_name_H-M "C C C M"
_symmetry_group_IT_number 66
_symmetry_cell_setting 'orthorhombic'
loop_
_space_group_symop_operation_xyz
x,y,z
-x,-y,z
x,-y,1/2-z
-x,y,1/2-z
-x,-y,-z
x,y,-z
-x,y,1/2+z
x,-y,1/2+z
1/2+x,1/2+y,z
1/2-x,1/2-y,z
1/2+x,1/2-y,1/2-z
1/2-x,1/2+y,1/2-z
1/2-x,1/2-y,-z
1/2+x,1/2+y,-z
1/2-x,1/2+y,1/2+z
1/2+x,1/2-y,1/2+z
loop_
_atom_site_type_symbol
_atom_site_label
_atom_site_fract_x
_atom_site_fract_y
_atom_site_fract_z
Si Si1 0.813388 0.120031 0.679839
Si Si2 0.802572 0.551595 0.820665
Si Si3 0.567034 0.086096 0.824078
Si Si4 0.433369 0.205045 0.674729
Si Si5 0.435169 0.445723 0.820843
Si Si6 0.678273 0.267701 0.678385
O O1 0.810588 0.122374 0.500000
O O2 0.747151 0.094529 0.725446
O O3 0.873426 0.086135 0.718238
O O4 0.824643 0.175682 0.732469
O O5 0.779915 0.500000 0.750000
O O6 0.872558 0.562433 0.757173
O O7 0.804011 0.548530 0.000000
O O8 0.500000 0.071114 0.750000
O O9 0.573076 0.145679 0.805892
O O10 0.567211 0.074719 0.000000
O O11 0.500000 0.220004 0.750000
O O12 0.436200 0.215274 0.500000
O O13 0.374257 0.233264 0.746888
O O14 0.427833 0.500000 0.750000
O O15 0.500000 0.424485 0.750000
O O16 0.440793 0.448938 0.000000
O O17 0.668211 0.266176 0.500000
O O18 0.750000 0.250000 0.707159
#
# Coordination Sequence:
#
# PCOD9500075 Si02
#       6
#    16  16  16  16  16  16
#     4   9  20  36  55  80 110 145 184 225 269 324
#     4  11  22  38  59  83 112 146 185 229 278 329
#     4  10  21  38  59  84 113 146 184 226 274 328
#     4  10  21  37  58  84 114 147 185 230 278 330
#     4  10  19  34  54  77 106 138 177 220 266 319
#     4  10  20  36  58  82 111 148 187 226 273 328
#
# _framework density 9.4062319999999993
#
# number of rings (size 3 to 8) (size 9 to 14) (size 15 to 20)
#    0.000    2.000    0.000    4.000    0.000    4.667 
#    0.000    9.167    0.000    0.000    0.000    0.000 
#    0.000    0.000    0.000    0.000    0.000    0.000 
#
# Total GULP energy -268097.046459 kJ/mol
# GULP energy per Si atom -5585.355135 kJ/mol
# Density = 0.938482 g / cm^3
# Si number density = 9.406232 Si / 1000 Ang^3
#
#
#
# Elastic Constant Matrix: (Units=GPa)
#
#
# Indices 1 2 3 4 5 6 
#
# 1 81.4926 13.0341 38.4970 0.0000 0.0000 0.0000
# 2 13.0341 35.3142 29.4497 0.0000 0.0000 0.0000
# 3 38.4970 29.4497 70.6513 0.0000 0.0000 0.0000
# 4 0.0000 0.0000 0.0000 25.3217 0.0000 0.0000
# 5 0.0000 0.0000 0.0000 0.0000 15.8190 0.0000
# 6 0.0000 0.0000 0.0000 0.0000 0.0000 34.1986
#
#
#
# Elastic Compliance Matrix: (Units=1/GPa)
#
#
# Indices 1 2 3 4 5 6 
#
# 1 0.016633 0.002175 -0.009970 0.000000 0.000000 0.000000
# 2 0.002175 0.043690 -0.019396 0.000000 0.000000 0.000000
# 3 -0.009970 -0.019396 0.027671 0.000000 0.000000 0.000000
# 4 0.000000 0.000000 0.000000 0.039492 0.000000 0.000000
# 5 0.000000 0.000000 0.000000 0.000000 0.063215 0.000000
# 6 0.000000 0.000000 0.000000 0.000000 0.000000 0.029241
#
#
# Mechanical properties :
#
#
# Convention : Reuss Voigt Hill
#
# Bulk Modulus (GPa) = 29.75140 38.82441 34.28790
# Shear Modulus (GPa) = 17.51144 22.16635 19.83890
#
# Velocity S-wave (km/s) = 3.05428 3.43633 3.25092
# Velocity P-wave (km/s) = 5.31857 6.03547 5.68833
#
# Compressibility (1/GPa) = 0.03361186
#
# Stress axis : x y z
#
# Youngs Moduli (GPa) = 60.12218 22.88871 36.13849
#
# Poissons Ratio (x) = -0.04978 0.36029
# Poissons Ratio (y) = -0.13076 0.70095
# Poissons Ratio (z) = 0.59939 0.44396
#
# Static dielectric constant tensor:
#      x y z
#    x 1.627360 0.000000 0.000000 
#    y 0.000000 1.699330 0.000000 
#    z 0.000000 0.000000 1.629710 
# 
# From -- ./inp_files/8026.got.cif
#   From: 2010.05.17/outbox.ucp.g08.bks.cvg/sg66_5_cif.got.tgz:8026.got - 2010.06.11 16:44:13.
