data_PCOD9500390
_publ_section_title
;
Structure prediction by ZEFSAII (Michael W. Deem and Ramdas Pophale) SiO2 
 PCOD9500390
Probable space group: C M M A
;
_chemical_formula_sum "Si O2"
_cell_formula_units_Z 72
_cell_length_a 8.624466
_cell_length_b 14.724771
_cell_length_c 30.155046
_cell_angle_alpha 90.000000
_cell_angle_beta 90.000000
_cell_angle_gamma 90.000000
_cell_volume 3829.488407
_symmetry_space_group_name_H-M "C M M A"
_symmetry_group_IT_number 67
_symmetry_cell_setting 'orthorhombic'
loop_
_space_group_symop_operation_xyz
x,y,z
-x,1/2-y,z
x,-y,-z
-x,1/2+y,-z
-x,-y,-z
x,1/2+y,-z
-x,y,z
x,1/2-y,z
1/2+x,1/2+y,z
1/2-x,-y,z
1/2+x,1/2-y,-z
1/2-x,y,-z
1/2-x,1/2-y,-z
1/2+x,y,-z
1/2-x,1/2+y,z
1/2+x,-y,z
loop_
_atom_site_type_symbol
_atom_site_label
_atom_site_fract_x
_atom_site_fract_y
_atom_site_fract_z
Si Si1 0.314657 0.603529 0.954312
Si Si2 0.686823 0.250000 0.308356
Si Si3 0.313607 0.250000 0.790404
Si Si4 0.813657 0.101748 0.138291
Si Si5 0.813026 0.750000 0.450560
Si Si6 0.312856 0.898449 0.620712
O O1 0.500000 0.603084 0.955280
O O2 0.250000 0.500000 0.953746
O O3 0.253729 0.641233 0.907733
O O4 0.250000 0.644415 0.000000
O O5 0.500000 0.250000 0.308096
O O6 0.745909 0.250000 0.258530
O O7 0.736198 0.338705 0.336555
O O8 0.500000 0.250000 0.787139
O O9 0.268551 0.336987 0.819924
O O10 0.000000 0.099580 0.134604
O O11 0.750000 0.000000 0.143671
O O12 0.750000 0.750000 0.500000
O O13 0.765050 0.661412 0.422078
O O14 0.000000 0.750000 0.451817
O O15 0.500000 0.901788 0.620839
O O16 0.250000 0.000000 0.620634
#
# Coordination Sequence:
#
# PCOD9500390 Si02
#       6
#    16   8   8  16   8  16
#     4  10  17  28  48  74 101 133 169 207 251 304
#     4   9  20  38  57  76 104 138 175 219 270 320
#     4  10  23  39  56  78 107 137 171 216 267 318
#     4  10  20  36  54  76 104 135 169 210 257 310
#     4   9  19  35  53  78 116 153 188 225 269 316
#     4   9  19  36  56  80 109 144 183 227 270 316
#
# _framework density 18.801466000000001
#
# number of rings (size 3 to 8) (size 9 to 14) (size 15 to 20)
#    0.000    2.444    0.000    6.000    0.000    4.889 
#    0.000    9.444    0.000    0.000    0.000    0.000 
#    0.000    0.000    0.000    0.000    0.000    0.000 
#
# Total GULP energy -200885.482511 kJ/mol
# GULP energy per Si atom -5580.152292 kJ/mol
# Density = 1.875867 g / cm^3
# Si number density = 18.801466 Si / 1000 Ang^3
#
#
#
# Elastic Constant Matrix: (Units=GPa)
#
#
# Indices 1 2 3 4 5 6 
#
# 1 69.4772 36.9613 54.0227 0.0000 0.0000 0.0000
# 2 36.9613 155.4993 99.9472 0.0000 0.0000 0.0000
# 3 54.0227 99.9472 223.4521 0.0000 0.0000 0.0000
# 4 0.0000 0.0000 0.0000 14.1982 0.0000 0.0000
# 5 0.0000 0.0000 0.0000 0.0000 38.9455 0.0000
# 6 0.0000 0.0000 0.0000 0.0000 0.0000 17.5593
#
#
#
# Elastic Compliance Matrix: (Units=1/GPa)
#
#
# Indices 1 2 3 4 5 6 
#
# 1 0.018202 -0.002103 -0.003460 0.000000 0.000000 0.000000
# 2 -0.002103 0.009269 -0.003637 0.000000 0.000000 0.000000
# 3 -0.003460 -0.003637 0.006939 0.000000 0.000000 0.000000
# 4 0.000000 0.000000 0.000000 0.070431 0.000000 0.000000
# 5 0.000000 0.000000 0.000000 0.000000 0.025677 0.000000
# 6 0.000000 0.000000 0.000000 0.000000 0.000000 0.056950
#
#
# Mechanical properties :
#
#
# Convention : Reuss Voigt Hill
#
# Bulk Modulus (GPa) = 62.46363 92.25459 77.35911
# Shear Modulus (GPa) = 23.67375 31.30710 27.49043
#
# Velocity S-wave (km/s) = 3.55229 4.08504 3.82795
# Velocity P-wave (km/s) = 7.07954 8.45129 7.79565
#
# Compressibility (1/GPa) = 0.01600932
#
# Stress axis : x y z
#
# Youngs Moduli (GPa) = 54.93820 107.89117 144.11800
#
# Poissons Ratio (x) = 0.22684 0.49868
# Poissons Ratio (y) = 0.11551 0.52422
# Poissons Ratio (z) = 0.19010 0.39244
#
# Static dielectric constant tensor:
#      x y z
#    x 1.635070 0.000000 0.000000 
#    y 0.000000 1.636020 0.000000 
#    z 0.000000 0.000000 1.652940 
# 
# From -- ./inp_files/45168.got.cif
#   From: 2010.05.17/outbox.cif.g08.bks.cpg/sg67_23_cif.got.tgz:45168.got - 2010.06.03 18:28:57.
