data_PCOD9500367
_publ_section_title
;
Structure prediction by ZEFSAII (Michael W. Deem and Ramdas Pophale) SiO2 
 PCOD9500367
Probable space group: C M M A
;
_chemical_formula_sum "Si O2"
_cell_formula_units_Z 72
_cell_length_a 15.882281
_cell_length_b 8.674831
_cell_length_c 25.446951
_cell_angle_alpha 90.000000
_cell_angle_beta 90.000000
_cell_angle_gamma 90.000000
_cell_volume 3505.981757
_symmetry_space_group_name_H-M "C M M A"
_symmetry_group_IT_number 67
_symmetry_cell_setting 'orthorhombic'
loop_
_space_group_symop_operation_xyz
x,y,z
-x,1/2-y,z
x,-y,-z
-x,1/2+y,-z
-x,-y,-z
x,1/2+y,-z
-x,y,z
x,1/2-y,z
1/2+x,1/2+y,z
1/2-x,-y,z
1/2+x,1/2-y,-z
1/2-x,y,-z
1/2-x,1/2-y,-z
1/2+x,y,-z
1/2-x,1/2+y,z
1/2+x,-y,z
loop_
_atom_site_type_symbol
_atom_site_label
_atom_site_fract_x
_atom_site_fract_y
_atom_site_fract_z
Si Si1 0.902004 0.572135 0.766839
Si Si2 0.845980 0.566172 0.553714
Si Si3 0.000000 0.065328 0.941188
Si Si4 0.339257 0.935633 0.120584
Si Si5 0.655980 0.931916 0.660747
O O1 0.878533 0.750000 0.754431
O O2 0.851169 0.520136 0.817980
O O3 0.889160 0.472840 0.714921
O O4 0.000000 0.570676 0.782004
O O5 0.884761 0.500000 0.500000
O O6 0.843401 0.750000 0.551598
O O7 0.750000 0.500000 0.554900
O O8 0.883849 0.509429 0.608823
O O9 0.000000 0.250000 0.941631
O O10 0.917138 0.004078 0.911463
O O11 0.000000 0.000000 0.000000
O O12 0.341608 0.750000 0.117751
O O13 0.250000 0.000000 0.101630
O O14 0.660393 0.750000 0.652299
O O15 0.750000 0.000000 0.666430
#
# Coordination Sequence:
#
# PCOD9500367 Si02
#       5
#    16  16   8  16  16
#     4  10  21  39  61  86 120 160 201 253 313 373
#     4  10  17  28  46  70 102 140 184 238 300 365
#     4  12  26  46  72 102 138 180 223 272 323 380
#     4  11  23  43  69 101 136 176 221 271 325 386
#     4  11  21  33  51  79 112 148 194 246 300 367
#
# _framework density 20.536331000000001
#
# number of rings (size 3 to 8) (size 9 to 14) (size 15 to 20)
#    0.000    1.333    1.111    8.333    0.000    4.444 
#    0.000    2.222    0.000    0.667    0.000    0.000 
#    0.000    0.000    0.000    0.000    0.000    0.000 
#
# Total GULP energy -201257.800012 kJ/mol
# GULP energy per Si atom -5590.494445 kJ/mol
# Density = 2.048959 g / cm^3
# Si number density = 20.536331 Si / 1000 Ang^3
#
#
#
# Elastic Constant Matrix: (Units=GPa)
#
#
# Indices 1 2 3 4 5 6 
#
# 1 97.2030 34.7380 51.6880 0.0000 0.0000 0.0000
# 2 34.7380 156.6144 70.7000 0.0000 0.0000 0.0000
# 3 51.6880 70.7000 145.7801 0.0000 0.0000 0.0000
# 4 0.0000 0.0000 0.0000 34.6034 0.0000 0.0000
# 5 0.0000 0.0000 0.0000 0.0000 16.9623 0.0000
# 6 0.0000 0.0000 0.0000 0.0000 0.0000 23.4599
#
#
#
# Elastic Compliance Matrix: (Units=1/GPa)
#
#
# Indices 1 2 3 4 5 6 
#
# 1 0.012802 -0.001012 -0.004048 0.000000 0.000000 0.000000
# 2 -0.001012 0.008255 -0.003645 0.000000 0.000000 0.000000
# 3 -0.004048 -0.003645 0.010063 0.000000 0.000000 0.000000
# 4 0.000000 0.000000 0.000000 0.028899 0.000000 0.000000
# 5 0.000000 0.000000 0.000000 0.000000 0.058954 0.000000
# 6 0.000000 0.000000 0.000000 0.000000 0.000000 0.042626
#
#
# Mechanical properties :
#
#
# Convention : Reuss Voigt Hill
#
# Bulk Modulus (GPa) = 72.94141 79.31663 76.12902
# Shear Modulus (GPa) = 27.23634 31.16990 29.20312
#
# Velocity S-wave (km/s) = 3.64572 3.90011 3.77506
# Velocity P-wave (km/s) = 7.30185 7.68034 7.49349
#
# Compressibility (1/GPa) = 0.01370963
#
# Stress axis : x y z
#
# Youngs Moduli (GPa) = 78.11191 121.14088 99.37830
#
# Poissons Ratio (x) = 0.12260 0.40231
# Poissons Ratio (y) = 0.07905 0.36219
# Poissons Ratio (z) = 0.31622 0.44151
#
# Static dielectric constant tensor:
#      x y z
#    x 1.746050 0.000000 0.000000 
#    y 0.000000 1.700350 0.000000 
#    z 0.000000 0.000000 1.758750 
# 
# From -- ./inp_files/44241.got.cif
#   From: 2010.05.17/outbox.cif.g08.bks.cpg/sg67_23_cif.got.tgz:44241.got - 2010.06.03 18:28:57.
