data_PCOD9500805
_publ_section_title
;
Structure prediction by ZEFSAII (Michael W. Deem and Ramdas Pophale) SiO2 
 PCOD9500805
Probable space group: C M M A
;
_chemical_formula_sum "Si O2"
_cell_formula_units_Z 96
_cell_length_a 24.275267
_cell_length_b 8.590107
_cell_length_c 26.046634
_cell_angle_alpha 90.000000
_cell_angle_beta 90.000000
_cell_angle_gamma 90.000000
_cell_volume 5431.430120
_symmetry_space_group_name_H-M "C M M A"
_symmetry_group_IT_number 67
_symmetry_cell_setting 'orthorhombic'
loop_
_space_group_symop_operation_xyz
x,y,z
-x,1/2-y,z
x,-y,-z
-x,1/2+y,-z
-x,-y,-z
x,1/2+y,-z
-x,y,z
x,1/2-y,z
1/2+x,1/2+y,z
1/2-x,-y,z
1/2+x,1/2-y,-z
1/2-x,y,-z
1/2-x,1/2-y,-z
1/2+x,y,-z
1/2-x,1/2+y,z
1/2+x,-y,z
loop_
_atom_site_type_symbol
_atom_site_label
_atom_site_fract_x
_atom_site_fract_y
_atom_site_fract_z
Si Si1 0.111810 0.936229 0.843560
Si Si2 0.436573 0.564173 0.943843
Si Si3 0.378036 0.561853 0.651855
Si Si4 0.500000 0.064290 0.782502
Si Si5 0.312147 0.936306 0.445474
Si Si6 0.500000 0.934676 0.669886
Si Si7 0.688018 0.437802 0.750660
O O1 0.115417 0.750000 0.849376
O O2 0.160454 0.985960 0.805030
O O3 0.054743 0.972036 0.814188
O O4 0.104635 0.009314 0.899482
O O5 0.500000 0.510156 0.932597
O O6 0.437252 0.750000 0.945397
O O7 0.422269 0.500000 0.000000
O O8 0.376493 0.750000 0.652606
O O9 0.346041 0.498714 0.602641
O O10 0.441522 0.506085 0.649410
O O11 0.349052 0.500894 0.703783
O O12 0.500000 0.250000 0.771414
O O13 0.500000 0.970680 0.730133
O O14 0.311216 0.750000 0.446189
O O15 0.333818 0.000000 0.500000
O O16 0.250000 0.000000 0.440482
O O17 0.500000 0.750000 0.661341
O O18 0.687810 0.250000 0.748250
O O19 0.750000 0.500000 0.745936
#
# Coordination Sequence:
#
# PCOD9500805 Si02
#       7
#    16  16  16   8  16   8  16
#     4  10  20  34  54  78 109 144 179 222 274 327
#     4  10  20  32  50  77 109 143 179 220 268 322
#     4  11  22  38  58  84 116 149 185 228 275 328
#     4  10  18  32  53  78 109 144 181 223 271 331
#     4  11  22  39  62  87 113 146 187 233 280 327
#     4  10  22  36  55  82 115 150 185 225 271 327
#     4  11  23  38  56  81 111 147 186 229 277 326
#
# _framework density 17.674904000000002
#
# number of rings (size 3 to 8) (size 9 to 14) (size 15 to 20)
#    0.000    1.500    2.500    4.000    0.000    3.333 
#    0.000    0.417    0.000    0.500    0.000    3.500 
#    0.000    0.000    0.000    0.000    0.000    0.000 
#
# Total GULP energy -268028.023970 kJ/mol
# GULP energy per Si atom -5583.917166 kJ/mol
# Density = 1.763467 g / cm^3
# Si number density = 17.674904 Si / 1000 Ang^3
#
#
#
# Elastic Constant Matrix: (Units=GPa)
#
#
# Indices 1 2 3 4 5 6 
#
# 1 110.9430 36.0820 65.9308 0.0000 0.0000 0.0000
# 2 36.0820 63.1650 43.0527 0.0000 0.0000 0.0000
# 3 65.9308 43.0527 149.8029 0.0000 0.0000 0.0000
# 4 0.0000 0.0000 0.0000 33.8534 0.0000 0.0000
# 5 0.0000 0.0000 0.0000 0.0000 18.1624 0.0000
# 6 0.0000 0.0000 0.0000 0.0000 0.0000 14.3715
#
#
#
# Elastic Compliance Matrix: (Units=1/GPa)
#
#
# Indices 1 2 3 4 5 6 
#
# 1 0.013133 -0.004430 -0.004507 0.000000 0.000000 0.000000
# 2 -0.004430 0.021183 -0.004138 0.000000 0.000000 0.000000
# 3 -0.004507 -0.004138 0.009848 0.000000 0.000000 0.000000
# 4 0.000000 0.000000 0.000000 0.029539 0.000000 0.000000
# 5 0.000000 0.000000 0.000000 0.000000 0.055059 0.000000
# 6 0.000000 0.000000 0.000000 0.000000 0.000000 0.069582
#
#
# Mechanical properties :
#
#
# Convention : Reuss Voigt Hill
#
# Bulk Modulus (GPa) = 55.51306 68.22687 61.86996
# Shear Modulus (GPa) = 21.69217 25.20050 23.44633
#
# Velocity S-wave (km/s) = 3.50707 3.78004 3.64611
# Velocity P-wave (km/s) = 6.91920 7.59845 7.26677
#
# Compressibility (1/GPa) = 0.01801378
#
# Stress axis : x y z
#
# Youngs Moduli (GPa) = 76.14594 47.20852 101.54169
#
# Poissons Ratio (x) = 0.20914 0.45762
# Poissons Ratio (y) = 0.33733 0.42018
# Poissons Ratio (z) = 0.34317 0.19535
#
# Static dielectric constant tensor:
#      x y z
#    x 1.603800 0.000000 0.000000 
#    y 0.000000 1.596110 0.000000 
#    z 0.000000 0.000000 1.584110 
# 
# From -- ./inp_files/42578.got.cif
#   From: 2010.05.17/outbox.cif.g08.bks.cpg/sg67_22_cif.got.tgz:42578.got - 2010.06.03 18:28:57.
