data_PCOD9500129
_publ_section_title
;
Structure prediction by ZEFSAII (Michael W. Deem and Ramdas Pophale) SiO2 
 PCOD9500129
Probable space group: C C C M
;
_chemical_formula_sum "Si O2"
_cell_formula_units_Z 40
_cell_length_a 12.000000
_cell_length_b 15.000000
_cell_length_c 24.000000
_cell_angle_alpha 90.000000
_cell_angle_beta 90.000000
_cell_angle_gamma 90.000000
_cell_volume 4320.000000
_symmetry_space_group_name_H-M "C C C M"
_symmetry_group_IT_number 66
_symmetry_cell_setting 'orthorhombic'
loop_
_space_group_symop_operation_xyz
x,y,z
-x,-y,z
x,-y,1/2-z
-x,y,1/2-z
-x,-y,-z
x,y,-z
-x,y,1/2+z
x,-y,1/2+z
1/2+x,1/2+y,z
1/2-x,1/2-y,z
1/2+x,1/2-y,1/2-z
1/2-x,1/2+y,1/2-z
1/2-x,1/2-y,-z
1/2+x,1/2+y,-z
1/2-x,1/2+y,1/2+z
1/2+x,1/2-y,1/2+z
loop_
_atom_site_type_symbol
_atom_site_label
_atom_site_fract_x
_atom_site_fract_y
_atom_site_fract_z
Si Si1 0.689243 0.095417 0.770537
Si Si2 0.252609 0.853358 0.934530
Si Si3 0.867691 0.018988 0.147301
Si Si4 0.289980 0.845326 0.351840
Si Si5 0.966110 0.602051 0.370280
O O1 0.806154 0.068446 0.800392
O O2 0.700295 0.153141 0.715566
O O3 0.604404 0.133027 0.816190
O O4 0.642903 0.000000 0.750000
O O5 0.250000 0.750000 0.916252
O O6 0.162152 0.913595 0.902727
O O7 0.376156 0.888351 0.919156
O O8 0.233144 0.857060 0.000000
O O9 0.794727 0.928238 0.137256
O O10 0.000000 0.000000 0.153921
O O11 0.250000 0.750000 0.371360
O O12 0.414063 0.854326 0.376146
O O13 0.000000 0.500000 0.362292
#
# Coordination Sequence:
#
# PCOD9500129 Si02
#       5
#    16  16  16  16  16
#     4   9  18  34  56  81 117 156 198 228 279 339
#     4  10  23  42  66  90 111 146 197 249 306 362
#     4  10  22  40  60  83 123 160 192 242 293 349
#     4  11  23  36  55  89 122 159 200 237 287 337
#     4  11  19  38  63  84 113 156 194 250 294 343
#
# _framework density 9.2592590000000001
#
# number of rings (size 3 to 8) (size 9 to 14) (size 15 to 20)
#    0.000    1.800    6.000    0.600    2.800    7.600 
#    3.600    0.000    0.000    1.200    0.000    0.000 
#    0.000    0.000    0.000    0.000    0.000    0.000 
#
# Total GULP energy -222865.911935 kJ/mol
# GULP energy per Si atom -5571.647798 kJ/mol
# Density = 0.923818 g / cm^3
# Si number density = 9.259259 Si / 1000 Ang^3
#
#
#
# Elastic Constant Matrix: (Units=GPa)
#
#
# Indices 1 2 3 4 5 6 
#
# 1 131.7738 12.6249 -7.8489 0.0000 0.0000 0.0000
# 2 12.6249 42.9415 4.4986 0.0000 0.0000 0.0000
# 3 -7.8489 4.4986 29.0403 0.0000 0.0000 0.0000
# 4 0.0000 0.0000 0.0000 10.7131 0.0000 0.0000
# 5 0.0000 0.0000 0.0000 0.0000 10.5611 0.0000
# 6 0.0000 0.0000 0.0000 0.0000 0.0000 31.3186
#
#
#
# Elastic Compliance Matrix: (Units=1/GPa)
#
#
# Indices 1 2 3 4 5 6 
#
# 1 0.007992 -0.002619 0.002566 0.000000 0.000000 0.000000
# 2 -0.002619 0.024530 -0.004508 0.000000 0.000000 0.000000
# 3 0.002566 -0.004508 0.035827 0.000000 0.000000 0.000000
# 4 0.000000 0.000000 0.000000 0.093343 0.000000 0.000000
# 5 0.000000 0.000000 0.000000 0.000000 0.094687 0.000000
# 6 0.000000 0.000000 0.000000 0.000000 0.000000 0.031930
#
#
# Mechanical properties :
#
#
# Convention : Reuss Voigt Hill
#
# Bulk Modulus (GPa) = 16.88391 24.70052 20.79222
# Shear Modulus (GPa) = 15.76431 23.48398 19.62415
#
# Velocity S-wave (km/s) = 2.92082 3.56495 3.25884
# Velocity P-wave (km/s) = 4.52902 5.50567 5.04105
#
# Compressibility (1/GPa) = 0.05922797
#
# Stress axis : x y z
#
# Youngs Moduli (GPa) = 125.11774 40.76710 27.91219
#
# Poissons Ratio (x) = 0.10675 -0.07162
# Poissons Ratio (y) = 0.32763 0.12582
# Poissons Ratio (z) = -0.32103 0.18376
#
# Static dielectric constant tensor:
#      x y z
#    x 1.869320 0.000000 0.000000 
#    y 0.000000 1.714970 0.000000 
#    z 0.000000 0.000000 1.671040 
# 
# From -- ./inp_files/56562.got.cif
#   From: 2010.05.17/outbox.ucp.g08.bks.cvg/sg66_29_cif.got.tgz:56562.got - 2010.06.11 16:44:13.
