data_PCOD9500623
_publ_section_title
;
Structure prediction by ZEFSAII (Michael W. Deem and Ramdas Pophale) SiO2 
 PCOD9500623
Probable space group: C M M A
;
_chemical_formula_sum "Si O2"
_cell_formula_units_Z 80
_cell_length_a 22.759157
_cell_length_b 19.199820
_cell_length_c 10.364414
_cell_angle_alpha 90.000000
_cell_angle_beta 90.000000
_cell_angle_gamma 90.000000
_cell_volume 4528.955789
_symmetry_space_group_name_H-M "C M M A"
_symmetry_group_IT_number 67
_symmetry_cell_setting 'orthorhombic'
loop_
_space_group_symop_operation_xyz
x,y,z
-x,1/2-y,z
x,-y,-z
-x,1/2+y,-z
-x,-y,-z
x,1/2+y,-z
-x,y,z
x,1/2-y,z
1/2+x,1/2+y,z
1/2-x,-y,z
1/2+x,1/2-y,-z
1/2-x,y,-z
1/2-x,1/2-y,-z
1/2+x,y,-z
1/2-x,1/2+y,z
1/2+x,-y,z
loop_
_atom_site_type_symbol
_atom_site_label
_atom_site_fract_x
_atom_site_fract_y
_atom_site_fract_z
Si Si1 0.183987 0.029306 0.641251
Si Si2 0.680652 0.174209 0.981605
Si Si3 0.500000 0.833058 0.794065
Si Si4 0.376438 0.047225 0.870421
Si Si5 0.631888 0.668048 0.728437
Si Si6 0.500000 0.578149 0.055195
O O1 0.172194 0.112447 0.652351
O O2 0.169732 0.000000 0.500000
O O3 0.250000 0.000000 0.669456
O O4 0.141036 0.998009 0.749006
O O5 0.660453 0.250000 0.933933
O O6 0.667171 0.111183 0.888293
O O7 0.750000 0.176517 0.000000
O O8 0.650057 0.162131 0.120306
O O9 0.500000 0.750000 0.815534
O O10 0.438085 0.849451 0.723348
O O11 0.500000 0.871265 0.932324
O O12 0.440558 0.081653 0.864828
O O13 0.372873 0.000000 0.000000
O O14 0.639970 0.750000 0.693062
O O15 0.500000 0.500000 0.000000
#
# Coordination Sequence:
#
# PCOD9500623 Si02
#       6
#    16  16   8  16  16   8
#     4  11  24  41  57  82 116 157 199 243 294 351
#     4  10  19  30  50  83 113 141 182 232 282 337
#     4  10  18  32  58  89 122 153 191 239 290 346
#     4  11  20  33  56  80 111 143 186 233 290 338
#     4  10  19  36  59  85 114 151 196 239 286 351
#     4  10  18  30  48  81 113 141 175 231 287 336
#
# _framework density 17.664116
#
# number of rings (size 3 to 8) (size 9 to 14) (size 15 to 20)
#    0.000    1.600    4.000    2.400    0.000    0.000 
#    0.000    5.000    0.000    0.000    0.000    0.000 
#    0.000    0.000    0.000    0.000    0.000    0.000 
#
# Total GULP energy -222931.395965 kJ/mol
# GULP energy per Si atom -5573.284899 kJ/mol
# Density = 1.762391 g / cm^3
# Si number density = 17.664116 Si / 1000 Ang^3
#
#
#
# Elastic Constant Matrix: (Units=GPa)
#
#
# Indices 1 2 3 4 5 6 
#
# 1 89.0096 35.2622 13.0512 0.0000 0.0000 0.0000
# 2 35.2622 112.9500 24.2433 0.0000 0.0000 0.0000
# 3 13.0512 24.2433 52.3640 0.0000 0.0000 0.0000
# 4 0.0000 0.0000 0.0000 20.1548 0.0000 0.0000
# 5 0.0000 0.0000 0.0000 0.0000 4.6361 0.0000
# 6 0.0000 0.0000 0.0000 0.0000 0.0000 31.9457
#
#
#
# Elastic Compliance Matrix: (Units=1/GPa)
#
#
# Indices 1 2 3 4 5 6 
#
# 1 0.012926 -0.003713 -0.001503 0.000000 0.000000 0.000000
# 2 -0.003713 0.010897 -0.004120 0.000000 0.000000 0.000000
# 3 -0.001503 -0.004120 0.021379 0.000000 0.000000 0.000000
# 4 0.000000 0.000000 0.000000 0.049616 0.000000 0.000000
# 5 0.000000 0.000000 0.000000 0.000000 0.215700 0.000000
# 6 0.000000 0.000000 0.000000 0.000000 0.000000 0.031303
#
#
# Mechanical properties :
#
#
# Convention : Reuss Voigt Hill
#
# Bulk Modulus (GPa) = 37.69117 44.38189 41.03653
# Shear Modulus (GPa) = 13.53786 23.46509 18.50148
#
# Velocity S-wave (km/s) = 2.77141 3.64868 3.23987
# Velocity P-wave (km/s) = 5.62361 6.55214 6.10555
#
# Compressibility (1/GPa) = 0.02653141
#
# Stress axis : x y z
#
# Youngs Moduli (GPa) = 77.36357 91.76981 46.77505
#
# Poissons Ratio (x) = 0.34073 0.07029
# Poissons Ratio (y) = 0.28724 0.19269
# Poissons Ratio (z) = 0.11625 0.37805
#
# Static dielectric constant tensor:
#      x y z
#    x 1.632110 0.000000 0.000000 
#    y 0.000000 1.583550 0.000000 
#    z 0.000000 0.000000 1.566320 
# 
# From -- ./inp_files/20555.got.cif
#   From: 2010.05.17/outbox.cif.g08.bks.cpg/sg67_11_cif.got.tgz:20555.got - 2010.06.03 18:28:57.
