data_PCOD9500814
_publ_section_title
;
Structure prediction by ZEFSAII (Michael W. Deem and Ramdas Pophale) SiO2 
 PCOD9500814
Probable space group: C M M A
;
_chemical_formula_sum "Si O2"
_cell_formula_units_Z 116
_cell_length_a 30.149041
_cell_length_b 7.843332
_cell_length_c 23.358832
_cell_angle_alpha 90.000000
_cell_angle_beta 90.000000
_cell_angle_gamma 90.000000
_cell_volume 5523.638197
_symmetry_space_group_name_H-M "C M M A"
_symmetry_group_IT_number 67
_symmetry_cell_setting 'orthorhombic'
loop_
_space_group_symop_operation_xyz
x,y,z
-x,1/2-y,z
x,-y,-z
-x,1/2+y,-z
-x,-y,-z
x,1/2+y,-z
-x,y,z
x,1/2-y,z
1/2+x,1/2+y,z
1/2-x,-y,z
1/2+x,1/2-y,-z
1/2-x,y,-z
1/2-x,1/2-y,-z
1/2+x,y,-z
1/2-x,1/2+y,z
1/2+x,-y,z
loop_
_atom_site_type_symbol
_atom_site_label
_atom_site_fract_x
_atom_site_fract_y
_atom_site_fract_z
Si Si1 0.500000 0.250000 0.953690
Si Si2 0.406269 0.445904 0.202398
Si Si3 0.333987 0.544752 0.061963
Si Si4 0.395486 0.951713 0.325478
Si Si5 0.564457 0.446265 0.081093
Si Si6 0.810257 0.442629 0.180050
Si Si7 0.796591 0.044544 0.303636
Si Si8 0.050408 0.547076 0.437089
O O1 0.538095 0.401918 0.947981
O O2 0.391620 0.250000 0.195781
O O3 0.418664 0.472568 0.268486
O O4 0.439922 0.474093 0.150219
O O5 0.363464 0.561174 0.190291
O O6 0.338233 0.750000 0.067015
O O7 0.383333 0.464621 0.066860
O O8 0.306036 0.481553 0.116899
O O9 0.315436 0.500000 0.000000
O O10 0.394567 0.750000 0.316361
O O11 0.344110 0.013524 0.328007
O O12 0.420676 0.987263 0.383946
O O13 0.550394 0.250000 0.068288
O O14 0.792565 0.250000 0.178422
O O15 0.794733 0.528204 0.238633
O O16 0.798749 0.250000 0.300635
O O17 0.750000 0.000000 0.332870
O O18 0.068015 0.500000 0.500000
O O19 0.048213 0.750000 0.434080
O O20 0.000000 0.477459 0.433079
#
# Coordination Sequence:
#
# PCOD9500814 Si02
#       8
#     4  16  16  16  16  16  16  16
#     4  12  22  36  54  66  98 136 170 210 294 336
#     4   9  17  30  50  74  99 129 169 220 266 321
#     4  10  18  32  54  74  95 125 169 225 274 327
#     4  10  20  34  55  81 114 150 192 230 279 335
#     4  10  21  36  52  71  97 129 173 220 275 344
#     4   8  16  30  49  72 101 135 169 209 264 324
#     4   9  18  32  52  82 115 149 184 225 275 337
#     4  10  21  38  59  83 114 149 192 238 283 329
#
# _framework density 21.000651000000001
#
# number of rings (size 3 to 8) (size 9 to 14) (size 15 to 20)
#    0.000    2.483    0.690    2.690    1.931    4.138 
#    1.241    0.345    0.000    0.828    0.000    5.793 
#    0.000    0.000    0.000    0.000    0.000    0.000 
#
# Total GULP energy -323008.287943 kJ/mol
# GULP energy per Si atom -5569.108413 kJ/mol
# Density = 2.095285 g / cm^3
# Si number density = 21.000651 Si / 1000 Ang^3
#
#
#
# Elastic Constant Matrix: (Units=GPa)
#
#
# Indices 1 2 3 4 5 6 
#
# 1 60.5364 19.6079 40.1312 0.0000 0.0000 0.0000
# 2 19.6079 98.4954 16.3805 0.0000 0.0000 0.0000
# 3 40.1312 16.3805 150.4976 0.0000 0.0000 0.0000
# 4 0.0000 0.0000 0.0000 29.2425 0.0000 0.0000
# 5 0.0000 0.0000 0.0000 0.0000 9.3779 0.0000
# 6 0.0000 0.0000 0.0000 0.0000 0.0000 2.2124
#
#
#
# Elastic Compliance Matrix: (Units=1/GPa)
#
#
# Indices 1 2 3 4 5 6 
#
# 1 0.021082 -0.003322 -0.005260 0.000000 0.000000 0.000000
# 2 -0.003322 0.010863 -0.000297 0.000000 0.000000 0.000000
# 3 -0.005260 -0.000297 0.008080 0.000000 0.000000 0.000000
# 4 0.000000 0.000000 0.000000 0.034197 0.000000 0.000000
# 5 0.000000 0.000000 0.000000 0.000000 0.106634 0.000000
# 6 0.000000 0.000000 0.000000 0.000000 0.000000 0.451996
#
#
# Mechanical properties :
#
#
# Convention : Reuss Voigt Hill
#
# Bulk Modulus (GPa) = 44.90835 51.30761 48.10798
# Shear Modulus (GPa) = 7.59841 23.72721 15.66281
#
# Velocity S-wave (km/s) = 1.90421 3.36494 2.73394
# Velocity P-wave (km/s) = 5.12498 6.29139 5.73790
#
# Compressibility (1/GPa) = 0.02226757
#
# Stress axis : x y z
#
# Youngs Moduli (GPa) = 47.43363 92.05202 123.76944
#
# Poissons Ratio (x) = 0.30581 0.65104
# Poissons Ratio (y) = 0.15758 0.03670
# Poissons Ratio (z) = 0.24951 0.02730
#
# Static dielectric constant tensor:
#      x y z
#    x 1.781670 0.000000 0.000000 
#    y 0.000000 1.766810 0.000000 
#    z 0.000000 0.000000 1.805590 
# 
# From -- ./inp_files/42979.got.cif
#   From: 2010.05.17/outbox.cif.g08.bks.cpg/sg67_22_cif.got.tgz:42979.got - 2010.06.03 18:28:57.
