data_PCOD9500662
_publ_section_title
;
Structure prediction by ZEFSAII (Michael W. Deem and Ramdas Pophale) SiO2 
 PCOD9500662
Probable space group: C M M A
;
_chemical_formula_sum "Si O2"
_cell_formula_units_Z 112
_cell_length_a 23.029189
_cell_length_b 23.590553
_cell_length_c 11.164483
_cell_angle_alpha 90.000000
_cell_angle_beta 90.000000
_cell_angle_gamma 90.000000
_cell_volume 6065.343234
_symmetry_space_group_name_H-M "C M M A"
_symmetry_group_IT_number 67
_symmetry_cell_setting 'orthorhombic'
loop_
_space_group_symop_operation_xyz
x,y,z
-x,1/2-y,z
x,-y,-z
-x,1/2+y,-z
-x,-y,-z
x,1/2+y,-z
-x,y,z
x,1/2-y,z
1/2+x,1/2+y,z
1/2-x,-y,z
1/2+x,1/2-y,-z
1/2-x,y,-z
1/2-x,1/2-y,-z
1/2+x,y,-z
1/2-x,1/2+y,z
1/2+x,-y,z
loop_
_atom_site_type_symbol
_atom_site_label
_atom_site_fract_x
_atom_site_fract_y
_atom_site_fract_z
Si Si1 0.568699 0.518459 0.180809
Si Si2 0.431580 0.595546 0.416770
Si Si3 0.627372 0.317424 0.188499
Si Si4 0.430357 0.586962 0.683237
Si Si5 0.431638 0.625148 0.039080
Si Si6 0.256935 0.818316 0.136204
Si Si7 0.376716 0.182552 0.740974
O O1 0.500000 0.512279 0.155560
O O2 0.574336 0.551685 0.307308
O O3 0.592383 0.456589 0.214900
O O4 0.589426 0.561902 0.078145
O O5 0.500000 0.610811 0.422117
O O6 0.415435 0.571539 0.546729
O O7 0.393830 0.649588 0.378810
O O8 0.618462 0.250000 0.187375
O O9 0.592624 0.350721 0.289495
O O10 0.695914 0.329182 0.200100
O O11 0.604058 0.343991 0.064263
O O12 0.500000 0.585559 0.692129
O O13 0.500000 0.622395 0.007335
O O14 0.422954 0.662823 0.158492
O O15 0.263343 0.750000 0.126680
O O16 0.314357 0.837176 0.205922
O O17 0.250000 0.839957 0.000000
O O18 0.376758 0.250000 0.726830
#
# Coordination Sequence:
#
# PCOD9500662 Si02
#       7
#    16  16  16  16  16  16  16
#     4   8  16  32  53  76  99 129 174 218 252 297
#     4   9  18  32  52  78 105 135 171 216 266 310
#     4  11  22  34  49  74 107 140 174 209 258 319
#     4  10  20  34  52  74 105 142 172 205 259 322
#     4  10  19  30  49  78 107 133 165 213 266 310
#     4   9  17  33  53  71  95 134 177 215 251 296
#     4  10  18  30  51  77 101 131 175 220 261 306
#
# _framework density 18.465567
#
# number of rings (size 3 to 8) (size 9 to 14) (size 15 to 20)
#    0.000    2.429    1.429    2.571    0.000    5.714 
#    0.000    4.286    0.000    6.000    0.000    4.000 
#    0.000    0.000    0.000    0.000    0.000    0.000 
#
# Total GULP energy -312047.433225 kJ/mol
# GULP energy per Si atom -5572.275593 kJ/mol
# Density = 1.842354 g / cm^3
# Si number density = 18.465567 Si / 1000 Ang^3
#
#
#
# Elastic Constant Matrix: (Units=GPa)
#
#
# Indices 1 2 3 4 5 6 
#
# 1 39.0366 26.3259 13.3451 0.0000 0.0000 0.0000
# 2 26.3259 82.1370 18.7285 0.0000 0.0000 0.0000
# 3 13.3451 18.7285 56.4590 0.0000 0.0000 0.0000
# 4 0.0000 0.0000 0.0000 22.4436 0.0000 0.0000
# 5 0.0000 0.0000 0.0000 0.0000 16.9655 0.0000
# 6 0.0000 0.0000 0.0000 0.0000 0.0000 -12.2644
#
#
#
# Elastic Compliance Matrix: (Units=1/GPa)
#
#
# Indices 1 2 3 4 5 6 
#
# 1 0.033823 -0.009756 -0.004759 0.000000 0.000000 0.000000
# 2 -0.009756 0.015985 -0.002997 0.000000 0.000000 0.000000
# 3 -0.004759 -0.002997 0.019831 0.000000 0.000000 0.000000
# 4 0.000000 0.000000 0.000000 0.044556 0.000000 0.000000
# 5 0.000000 0.000000 0.000000 0.000000 0.058943 0.000000
# 6 0.000000 0.000000 0.000000 0.000000 0.000000 -0.081536
#
#
# Mechanical properties :
#
#
# Convention : Reuss Voigt Hill
#
# Bulk Modulus (GPa) = 28.88753 32.71464 30.80108
# Shear Modulus (GPa) = 36.18954 13.37781 24.78367
#
# Velocity S-wave (km/s) = 4.43181 2.69452 3.66752
# Velocity P-wave (km/s) = 6.47038 5.23790 5.88649
#
# Compressibility (1/GPa) = 0.03461701
#
# Stress axis : x y z
#
# Youngs Moduli (GPa) = 29.56586 62.55939 50.42678
#
# Poissons Ratio (x) = 0.61030 0.23996
# Poissons Ratio (y) = 0.28843 0.15111
# Poissons Ratio (z) = 0.14069 0.18746
#
# Static dielectric constant tensor:
#      x y z
#    x 1.621400 0.000000 0.000000 
#    y 0.000000 1.675080 0.000000 
#    z 0.000000 0.000000 1.674790 
# 
# From -- ./inp_files/21117.got.cif
#   From: 2010.05.17/outbox.cif.g08.bks.cpg/sg67_11_cif.got.tgz:21117.got - 2010.06.03 18:28:57.
