data_PCOD9500424
_publ_section_title
;
Structure prediction by ZEFSAII (Michael W. Deem and Ramdas Pophale) SiO2 
 PCOD9500424
Probable space group: C M M A
;
_chemical_formula_sum "Si O2"
_cell_formula_units_Z 120
_cell_length_a 25.826152
_cell_length_b 25.146592
_cell_length_c 9.458273
_cell_angle_alpha 90.000000
_cell_angle_beta 90.000000
_cell_angle_gamma 90.000000
_cell_volume 6142.578048
_symmetry_space_group_name_H-M "C M M A"
_symmetry_group_IT_number 67
_symmetry_cell_setting 'orthorhombic'
loop_
_space_group_symop_operation_xyz
x,y,z
-x,1/2-y,z
x,-y,-z
-x,1/2+y,-z
-x,-y,-z
x,1/2+y,-z
-x,y,z
x,1/2-y,z
1/2+x,1/2+y,z
1/2-x,-y,z
1/2+x,1/2-y,-z
1/2-x,y,-z
1/2-x,1/2-y,-z
1/2+x,y,-z
1/2-x,1/2+y,z
1/2+x,-y,z
loop_
_atom_site_type_symbol
_atom_site_label
_atom_site_fract_x
_atom_site_fract_y
_atom_site_fract_z
Si Si1 0.915251 0.919906 0.579199
Si Si2 0.441629 0.471387 0.273623
Si Si3 0.383970 0.810397 0.411181
Si Si4 0.660423 0.191134 0.275172
Si Si5 0.654541 0.580832 0.840562
Si Si6 0.805430 0.562367 0.473829
Si Si7 0.750000 0.602993 0.000000
Si Si8 0.221705 0.809607 0.769271
O O1 0.933692 0.938038 0.421609
O O2 0.923949 0.858551 0.619135
O O3 0.852765 0.920742 0.570982
O O4 0.933419 0.967027 0.681585
O O5 0.500000 0.463371 0.224697
O O6 0.398589 0.451461 0.163213
O O7 0.403273 0.750000 0.388735
O O8 0.369281 0.816099 0.577365
O O9 0.329745 0.814484 0.324761
O O10 0.649305 0.250000 0.218928
O O11 0.646143 0.144615 0.166035
O O12 0.722122 0.189326 0.307315
O O13 0.678977 0.570209 0.686837
O O14 0.700446 0.569759 0.949169
O O15 0.801595 0.500000 0.500000
O O16 0.750000 0.587802 0.500000
O O17 0.728194 0.642500 0.120680
O O18 0.218951 0.750000 0.835634
#
# Coordination Sequence:
#
# PCOD9500424 Si02
#       8
#    16  16  16  16  16  16   8  16
#     4  10  17  30  48  78 107 139 179 219 279 337
#     4  10  19  35  56  77 102 139 189 232 269 330
#     4  10  18  27  46  74 108 140 176 227 282 339
#     4   9  16  26  43  69 106 144 180 219 271 336
#     4  10  19  33  48  78 110 146 187 220 276 327
#     4  10  18  28  47  71 106 143 172 211 268 343
#     4  10  21  30  48  73 116 150 183 225 276 324
#     4   9  18  30  44  68 102 153 195 216 257 329
#
# _framework density 19.535772000000001
#
# number of rings (size 3 to 8) (size 9 to 14) (size 15 to 20)
#    0.000    2.267    5.333    1.400    3.733    2.133 
#    0.000    0.000    0.000    9.200    0.000    2.800 
#    0.000    2.133    0.000    0.000    0.000    0.267 
#
# Total GULP energy -334308.203756 kJ/mol
# GULP energy per Si atom -5571.803396 kJ/mol
# Density = 1.949131 g / cm^3
# Si number density = 19.535772 Si / 1000 Ang^3
#
#
#
# Elastic Constant Matrix: (Units=GPa)
#
#
# Indices 1 2 3 4 5 6 
#
# 1 109.4138 34.7304 22.1987 0.0000 0.0000 0.0000
# 2 34.7304 127.5166 12.3786 0.0000 0.0000 0.0000
# 3 22.1987 12.3786 15.4710 0.0000 0.0000 0.0000
# 4 0.0000 0.0000 0.0000 2.3859 0.0000 0.0000
# 5 0.0000 0.0000 0.0000 0.0000 18.7215 0.0000
# 6 0.0000 0.0000 0.0000 0.0000 0.0000 3.9373
#
#
#
# Elastic Compliance Matrix: (Units=1/GPa)
#
#
# Indices 1 2 3 4 5 6 
#
# 1 0.013313 -0.001921 -0.017566 0.000000 0.000000 0.000000
# 2 -0.001921 0.008780 -0.004269 0.000000 0.000000 0.000000
# 3 -0.017566 -0.004269 0.093256 0.000000 0.000000 0.000000
# 4 0.000000 0.000000 0.000000 0.419135 0.000000 0.000000
# 5 0.000000 0.000000 0.000000 0.000000 0.053414 0.000000
# 6 0.000000 0.000000 0.000000 0.000000 0.000000 0.253978
#
#
# Mechanical properties :
#
#
# Convention : Reuss Voigt Hill
#
# Bulk Modulus (GPa) = 14.74075 43.44631 29.09353
# Shear Modulus (GPa) = 5.48245 17.21520 11.34883
#
# Velocity S-wave (km/s) = 1.67704 2.97175 2.41285
# Velocity P-wave (km/s) = 3.36331 5.83632 4.76311
#
# Compressibility (1/GPa) = 0.06783916
#
# Stress axis : x y z
#
# Youngs Moduli (GPa) = 75.11359 113.89992 10.72311
#
# Poissons Ratio (x) = 0.21878 0.18836
# Poissons Ratio (y) = 0.14428 0.04577
# Poissons Ratio (z) = 1.31942 0.48620
#
# Static dielectric constant tensor:
#      x y z
#    x 1.701400 0.000000 0.000000 
#    y 0.000000 1.808080 0.000000 
#    z 0.000000 0.000000 1.714440 
# 
# From -- ./inp_files/14103.got.cif
#   From: 2010.05.17/outbox.cif.g08.bks.cpg/sg67_8_cif.got.tgz:14103.got - 2010.06.03 18:28:57.
