data_PCOD9500746
_publ_section_title
;
Structure prediction by ZEFSAII (Michael W. Deem and Ramdas Pophale) SiO2 
 PCOD9500746
Probable space group: C M M A
;
_chemical_formula_sum "Si O2"
_cell_formula_units_Z 96
_cell_length_a 14.217142
_cell_length_b 17.148091
_cell_length_c 21.512425
_cell_angle_alpha 90.000000
_cell_angle_beta 90.000000
_cell_angle_gamma 90.000000
_cell_volume 5244.661338
_symmetry_space_group_name_H-M "C M M A"
_symmetry_group_IT_number 67
_symmetry_cell_setting 'orthorhombic'
loop_
_space_group_symop_operation_xyz
x,y,z
-x,1/2-y,z
x,-y,-z
-x,1/2+y,-z
-x,-y,-z
x,1/2+y,-z
-x,y,z
x,1/2-y,z
1/2+x,1/2+y,z
1/2-x,-y,z
1/2+x,1/2-y,-z
1/2-x,y,-z
1/2-x,1/2-y,-z
1/2+x,y,-z
1/2-x,1/2+y,z
1/2+x,-y,z
loop_
_atom_site_type_symbol
_atom_site_label
_atom_site_fract_x
_atom_site_fract_y
_atom_site_fract_z
Si Si1 0.000000 0.558587 0.197953
Si Si2 0.500000 0.058830 0.442193
Si Si3 0.810768 0.342427 0.561485
Si Si4 0.000000 0.952989 0.680317
Si Si5 0.192308 0.657741 0.195461
Si Si6 0.711701 0.410671 0.683262
Si Si7 0.500000 0.050815 0.062009
Si Si8 0.212644 0.090132 0.934353
O O1 0.906973 0.611973 0.200281
O O2 0.000000 0.501678 0.255954
O O3 0.000000 0.513802 0.131421
O O4 0.407938 0.111880 0.443725
O O5 0.500000 0.000000 0.500000
O O6 0.500000 0.010782 0.378308
O O7 0.826749 0.250000 0.565054
O O8 0.750000 0.359267 0.500000
O O9 0.757154 0.370811 0.623032
O O10 0.901096 0.908263 0.678183
O O11 0.177082 0.750000 0.196860
O O12 0.253988 0.630403 0.253773
O O13 0.238151 0.632710 0.129589
O O14 0.750000 0.500000 0.685139
O O15 0.400578 0.094360 0.060847
O O16 0.500000 0.000000 0.000000
O O17 0.250000 0.000000 0.929893
O O18 0.250000 0.121387 0.000000
#
# Coordination Sequence:
#
# PCOD9500746 Si02
#       8
#     8   8  16   8  16  16   8  16
#     4  10  21  36  62  85 120 151 200 256 304 355
#     4  12  23  39  68  96 125 163 210 262 301 357
#     4  11  25  43  64  94 131 168 204 252 313 369
#     4  12  24  38  61  99 116 153 205 258 300 354
#     4  11  23  39  59  87 123 159 198 249 309 368
#     4  12  23  41  65  90 122 158 206 254 304 362
#     4  10  18  31  53  86 112 144 188 248 301 338
#     4  10  20  34  58  85 114 152 199 247 295 355
#
# _framework density 18.304328999999999
#
# number of rings (size 3 to 8) (size 9 to 14) (size 15 to 20)
#    0.000    1.000    5.000    2.500    2.333    0.333 
#    0.000    5.000    0.000    0.000    0.000    0.000 
#    0.000    0.000    0.000    0.000    0.000    0.000 
#
# Total GULP energy -268017.144042 kJ/mol
# GULP energy per Si atom -5583.690501 kJ/mol
# Density = 1.826267 g / cm^3
# Si number density = 18.304329 Si / 1000 Ang^3
#
#
#
# Elastic Constant Matrix: (Units=GPa)
#
#
# Indices 1 2 3 4 5 6 
#
# 1 158.5848 44.3081 75.8667 0.0000 0.0000 0.0000
# 2 44.3081 55.3420 64.8475 0.0000 0.0000 0.0000
# 3 75.8667 64.8475 210.7022 0.0000 0.0000 0.0000
# 4 0.0000 0.0000 0.0000 16.6609 0.0000 0.0000
# 5 0.0000 0.0000 0.0000 0.0000 31.0421 0.0000
# 6 0.0000 0.0000 0.0000 0.0000 0.0000 122.9906
#
#
#
# Elastic Compliance Matrix: (Units=1/GPa)
#
#
# Indices 1 2 3 4 5 6 
#
# 1 0.008414 -0.004984 -0.001496 0.000000 0.000000 0.000000
# 2 -0.004984 0.031213 -0.007812 0.000000 0.000000 0.000000
# 3 -0.001496 -0.007812 0.007689 0.000000 0.000000 0.000000
# 4 0.000000 0.000000 0.000000 0.060021 0.000000 0.000000
# 5 0.000000 0.000000 0.000000 0.000000 0.032214 0.000000
# 6 0.000000 0.000000 0.000000 0.000000 0.000000 0.008131
#
#
# Mechanical properties :
#
#
# Convention : Reuss Voigt Hill
#
# Bulk Modulus (GPa) = 53.38121 88.29709 70.83915
# Shear Modulus (GPa) = 27.39592 50.11249 38.75420
#
# Velocity S-wave (km/s) = 3.87291 5.23802 4.60631
# Velocity P-wave (km/s) = 7.01610 9.21550 8.18997
#
# Compressibility (1/GPa) = 0.01873318
#
# Stress axis : x y z
#
# Youngs Moduli (GPa) = 118.85346 32.03762 130.05797
#
# Poissons Ratio (x) = 0.15966 0.19453
# Poissons Ratio (y) = 0.59232 1.01602
# Poissons Ratio (z) = 0.17777 0.25028
#
# Static dielectric constant tensor:
#      x y z
#    x 1.591980 0.000000 0.000000 
#    y 0.000000 1.576520 0.000000 
#    z 0.000000 0.000000 1.627970 
# 
# From -- ./inp_files/38598.got.cif
#   From: 2010.05.17/outbox.cif.g08.bks.cpg/sg67_20_cif.got.tgz:38598.got - 2010.06.03 18:28:57.
