data_PCOD9500033
_publ_section_title
;
Structure prediction by ZEFSAII (Michael W. Deem and Ramdas Pophale) SiO2 
 PCOD9500033
Probable space group: C C C M
;
_chemical_formula_sum "Si O2"
_cell_formula_units_Z 64
_cell_length_a 21.615964
_cell_length_b 9.517896
_cell_length_c 14.294426
_cell_angle_alpha 90.000000
_cell_angle_beta 90.000000
_cell_angle_gamma 90.000000
_cell_volume 2940.913725
_symmetry_space_group_name_H-M "C C C M"
_symmetry_group_IT_number 66
_symmetry_cell_setting 'orthorhombic'
loop_
_space_group_symop_operation_xyz
x,y,z
-x,-y,z
x,-y,1/2-z
-x,y,1/2-z
-x,-y,-z
x,y,-z
-x,y,1/2+z
x,-y,1/2+z
1/2+x,1/2+y,z
1/2-x,1/2-y,z
1/2+x,1/2-y,1/2-z
1/2-x,1/2+y,1/2-z
1/2-x,1/2-y,-z
1/2+x,1/2+y,-z
1/2-x,1/2+y,1/2+z
1/2+x,1/2-y,1/2+z
loop_
_atom_site_type_symbol
_atom_site_label
_atom_site_fract_x
_atom_site_fract_y
_atom_site_fract_z
Si Si1 0.831994 0.699850 0.603507
Si Si2 0.751971 0.049222 0.609297
Si Si3 0.652005 0.264705 0.311036
Si Si4 0.068439 0.534878 0.360205
O O1 0.832115 0.768412 0.500000
O O2 0.768152 0.611869 0.619184
O O3 0.851825 0.776694 0.698940
O O4 0.881796 0.571401 0.597498
O O5 0.745517 0.084566 0.500000
O O6 0.703449 0.143313 0.667539
O O7 0.819081 0.096402 0.644057
O O8 0.592140 0.196241 0.361168
O O9 0.069062 0.500000 0.250000
O O10 0.000000 0.500000 0.394761
#
# Coordination Sequence:
#
# PCOD9500033 Si02
#       4
#    16  16  16  16
#     4   9  17  27  39  57  83 115 145 172 207 252
#     4   9  16  27  42  57  74 105 148 181 206 245
#     4   9  15  25  41  58  79 108 141 174 208 243
#     4   8  14  24  37  54  77 107 140 169 198 236
#
# _framework density 21.761942999999999
#
# number of rings (size 3 to 8) (size 9 to 14) (size 15 to 20)
#    0.000    3.250    0.000    3.750    0.000    1.500 
#    0.000    2.500    0.000    3.000    0.000    0.000 
#    0.000    0.000    0.000  648.000    0.000 3084.500 
#
# Total GULP energy -178469.235400 kJ/mol
# GULP energy per Si atom -5577.163606 kJ/mol
# Density = 2.171241 g / cm^3
# Si number density = 21.761943 Si / 1000 Ang^3
#
#
#
# Elastic Constant Matrix: (Units=GPa)
#
#
# Indices 1 2 3 4 5 6 
#
# 1 100.4916 29.4425 14.1366 0.0000 0.0000 0.0000
# 2 29.4425 75.7091 11.4935 0.0000 0.0000 0.0000
# 3 14.1366 11.4935 156.4042 0.0000 0.0000 0.0000
# 4 0.0000 0.0000 0.0000 20.2273 0.0000 0.0000
# 5 0.0000 0.0000 0.0000 0.0000 -5.3999 0.0000
# 6 0.0000 0.0000 0.0000 0.0000 0.0000 27.8309
#
#
#
# Elastic Compliance Matrix: (Units=1/GPa)
#
#
# Indices 1 2 3 4 5 6 
#
# 1 0.011307 -0.004290 -0.000707 0.000000 0.000000 0.000000
# 2 -0.004290 0.014985 -0.000713 0.000000 0.000000 0.000000
# 3 -0.000707 -0.000713 0.006510 0.000000 0.000000 0.000000
# 4 0.000000 0.000000 0.000000 0.049438 0.000000 0.000000
# 5 0.000000 0.000000 0.000000 0.000000 -0.185188 0.000000
# 6 0.000000 0.000000 0.000000 0.000000 0.000000 0.035931
#
#
# Mechanical properties :
#
#
# Convention : Reuss Voigt Hill
#
# Bulk Modulus (GPa) = 46.76824 49.19447 47.98135
# Shear Modulus (GPa) = -103.16135 27.03380 -38.06377
#
# Velocity S-wave (km/s) = -6.89256 3.52838 -4.18676
# Velocity P-wave (km/s) = 6.46573 6.26531 1.12951
#
# Compressibility (1/GPa) = 0.02138203
#
# Stress axis : x y z
#
# Youngs Moduli (GPa) = 88.43753 66.73288 153.60986
#
# Poissons Ratio (x) = 0.28629 0.10857
# Poissons Ratio (y) = 0.37940 0.10959
# Poissons Ratio (z) = 0.06250 0.04761
#
# Static dielectric constant tensor:
#      x y z
#    x 1.873250 0.000000 0.000000 
#    y 0.000000 1.864670 0.000000 
#    z 0.000000 0.000000 1.796680 
# 
# From -- ./inp_files/26224.got.cif
#   From: 2010.05.17/outbox.cif.g08.bks.cpg/sg66_14_cif.got.tgz:26224.got - 2010.06.03 17:51:23.
