data_PCOD9500643
_publ_section_title
;
Structure prediction by ZEFSAII (Michael W. Deem and Ramdas Pophale) SiO2 
 PCOD9500643
Probable space group: C M M A
;
_chemical_formula_sum "Si O2"
_cell_formula_units_Z 80
_cell_length_a 15.607196
_cell_length_b 25.542299
_cell_length_c 9.708045
_cell_angle_alpha 90.000000
_cell_angle_beta 90.000000
_cell_angle_gamma 90.000000
_cell_volume 3870.050656
_symmetry_space_group_name_H-M "C M M A"
_symmetry_group_IT_number 67
_symmetry_cell_setting 'orthorhombic'
loop_
_space_group_symop_operation_xyz
x,y,z
-x,1/2-y,z
x,-y,-z
-x,1/2+y,-z
-x,-y,-z
x,1/2+y,-z
-x,y,z
x,1/2-y,z
1/2+x,1/2+y,z
1/2-x,-y,z
1/2+x,1/2-y,-z
1/2-x,y,-z
1/2-x,1/2-y,-z
1/2+x,y,-z
1/2-x,1/2+y,z
1/2+x,-y,z
loop_
_atom_site_type_symbol
_atom_site_label
_atom_site_fract_x
_atom_site_fract_y
_atom_site_fract_z
Si Si1 0.663896 0.574292 0.793315
Si Si2 0.134557 0.958554 0.782042
Si Si3 0.850309 0.408650 0.487248
Si Si4 0.404407 0.136969 0.964490
Si Si5 0.896087 0.309130 0.308041
O O1 0.764970 0.559464 0.788819
O O2 0.623373 0.517849 0.828722
O O3 0.623836 0.590128 0.646081
O O4 0.649211 0.619952 0.903075
O O5 0.110182 0.949379 0.622030
O O6 0.089494 0.916740 0.877402
O O7 0.750000 0.421934 0.500000
O O8 0.861422 0.352572 0.413306
O O9 0.500000 0.153856 0.006386
O O10 0.369389 0.176753 0.848927
O O11 0.871497 0.250000 0.343404
O O12 0.000000 0.313059 0.309747
#
# Coordination Sequence:
#
# PCOD9500643 Si02
#       5
#    16  16  16  16  16
#     4  10  18  30  50  75 101 129 162 200 238 283
#     4   9  18  32  49  70 102 139 162 183 235 303
#     4   9  18  32  52  76 100 125 162 205 242 286
#     4  10  20  32  48  71  97 128 167 206 242 286
#     4   9  19  37  55  68  92 133 170 201 251 310
#
# _framework density 20.671564
#
# number of rings (size 3 to 8) (size 9 to 14) (size 15 to 20)
#    0.000    2.600    0.000    1.800    0.000    6.800 
#    0.000    1.000    0.000   24.000    0.000    0.000 
#    0.000    0.000    0.000    0.000    0.000    0.000 
#
# Total GULP energy -222935.120362 kJ/mol
# GULP energy per Si atom -5573.378009 kJ/mol
# Density = 2.062451 g / cm^3
# Si number density = 20.671564 Si / 1000 Ang^3
#
#
#
# Elastic Constant Matrix: (Units=GPa)
#
#
# Indices 1 2 3 4 5 6 
#
# 1 23.0666 -6.3409 5.4132 0.0000 0.0000 0.0000
# 2 -6.3409 40.6617 -8.6377 0.0000 0.0000 0.0000
# 3 5.4132 -8.6377 85.5770 0.0000 0.0000 0.0000
# 4 0.0000 0.0000 0.0000 22.4619 0.0000 0.0000
# 5 0.0000 0.0000 0.0000 0.0000 39.3283 0.0000
# 6 0.0000 0.0000 0.0000 0.0000 0.0000 -78.9968
#
#
#
# Elastic Compliance Matrix: (Units=1/GPa)
#
#
# Indices 1 2 3 4 5 6 
#
# 1 0.045703 0.006656 -0.002219 0.000000 0.000000 0.000000
# 2 0.006656 0.026101 0.002214 0.000000 0.000000 0.000000
# 3 -0.002219 0.002214 0.012049 0.000000 0.000000 0.000000
# 4 0.000000 0.000000 0.000000 0.044520 0.000000 0.000000
# 5 0.000000 0.000000 0.000000 0.000000 0.025427 0.000000
# 6 0.000000 0.000000 0.000000 0.000000 0.000000 -0.012659
#
#
# Mechanical properties :
#
#
# Convention : Reuss Voigt Hill
#
# Bulk Modulus (GPa) = 10.29297 14.46382 12.37839
# Shear Modulus (GPa) = 31.20592 7.15008 19.17800
#
# Velocity S-wave (km/s) = 3.88958 1.86183 3.04920
# Velocity P-wave (km/s) = 5.01616 3.41087 4.28928
#
# Compressibility (1/GPa) = 0.09715373
#
# Stress axis : x y z
#
# Youngs Moduli (GPa) = 21.88034 38.31228 82.99325
#
# Poissons Ratio (x) = -0.25500 0.18417
# Poissons Ratio (y) = -0.14563 -0.18371
# Poissons Ratio (z) = 0.04856 -0.08481
#
# Static dielectric constant tensor:
#      x y z
#    x 1.826560 0.000000 0.000000 
#    y 0.000000 1.708940 0.000000 
#    z 0.000000 0.000000 1.799310 
# 
# From -- ./inp_files/9902.got.cif
#   From: 2010.05.17/outbox.cif.g08.bks.cpg/sg67_5_cif.got.tgz:9902.got - 2010.06.03 18:28:57.
