data_PCOD9500454
_publ_section_title
;
Structure prediction by ZEFSAII (Michael W. Deem and Ramdas Pophale) SiO2 
 PCOD9500454
Probable space group: C M M A
;
_chemical_formula_sum "Si O2"
_cell_formula_units_Z 52
_cell_length_a 5.347329
_cell_length_b 27.380227
_cell_length_c 17.944740
_cell_angle_alpha 90.000000
_cell_angle_beta 90.000000
_cell_angle_gamma 90.000000
_cell_volume 2627.308797
_symmetry_space_group_name_H-M "C M M A"
_symmetry_group_IT_number 67
_symmetry_cell_setting 'orthorhombic'
loop_
_space_group_symop_operation_xyz
x,y,z
-x,1/2-y,z
x,-y,-z
-x,1/2+y,-z
-x,-y,-z
x,1/2+y,-z
-x,y,z
x,1/2-y,z
1/2+x,1/2+y,z
1/2-x,-y,z
1/2+x,1/2-y,-z
1/2-x,y,-z
1/2-x,1/2-y,-z
1/2+x,y,-z
1/2-x,1/2+y,z
1/2+x,-y,z
loop_
_atom_site_type_symbol
_atom_site_label
_atom_site_fract_x
_atom_site_fract_y
_atom_site_fract_z
Si Si1 0.000000 0.250000 0.452752
Si Si2 0.000000 0.446045 0.466183
Si Si3 0.000000 0.068394 0.295784
Si Si4 0.500000 0.579711 0.797784
Si Si5 0.500000 0.182288 0.684071
Si Si6 0.000000 0.303622 0.777372
Si Si7 0.000000 0.444676 0.968009
O O1 0.250000 0.250000 0.500000
O O2 0.000000 0.295587 0.397165
O O3 0.000000 0.500000 0.500000
O O4 0.250000 0.421500 0.500000
O O5 0.000000 0.455302 0.377329
O O6 0.747581 0.062643 0.247140
O O7 0.000000 0.124748 0.318849
O O8 0.500000 0.639706 0.808612
O O9 0.500000 0.556285 0.879408
O O10 0.250505 0.197183 0.728000
O O11 0.000000 0.250000 0.819171
O O12 0.000000 0.500000 0.000000
O O13 0.250000 0.420632 0.000000
#
# Coordination Sequence:
#
# PCOD9500454 Si02
#       7
#     4   8   8   8   8   8   8
#     4  12  22  30  44  70 104 142 186 224 274 346
#     4  10  21  38  55  75 106 147 186 230 300 340
#     4  10  21  37  58  81 110 143 197 249 268 331
#     4  10  21  36  60  90 110 145 198 230 276 342
#     4  10  20  33  49  73 104 141 178 233 284 316
#     4  10  17  33  57  76 107 141 178 232 275 317
#     4  10  21  40  61  86 121 156 177 221 293 349
#
# _framework density 19.792114999999999
#
# number of rings (size 3 to 8) (size 9 to 14) (size 15 to 20)
#    0.000    1.846    1.538    2.769    0.000    1.231 
#    0.000   18.462    0.000    0.923    0.000    0.000 
#    0.000    0.000    0.000    0.000    0.000    0.000 
#
# Total GULP energy -144904.651824 kJ/mol
# GULP energy per Si atom -5573.255839 kJ/mol
# Density = 1.974707 g / cm^3
# Si number density = 19.792115 Si / 1000 Ang^3
#
#
#
# Elastic Constant Matrix: (Units=GPa)
#
#
# Indices 1 2 3 4 5 6 
#
# 1 211.6175 8.7428 80.4843 0.0000 0.0000 0.0000
# 2 8.7428 75.6098 37.5879 0.0000 0.0000 0.0000
# 3 80.4843 37.5879 177.1363 0.0000 0.0000 0.0000
# 4 0.0000 0.0000 0.0000 17.9472 0.0000 0.0000
# 5 0.0000 0.0000 0.0000 0.0000 -30.8074 0.0000
# 6 0.0000 0.0000 0.0000 0.0000 0.0000 -4.1429
#
#
#
# Elastic Compliance Matrix: (Units=1/GPa)
#
#
# Indices 1 2 3 4 5 6 
#
# 1 0.005746 0.000708 -0.002761 0.000000 0.000000 0.000000
# 2 0.000708 0.014873 -0.003478 0.000000 0.000000 0.000000
# 3 -0.002761 -0.003478 0.007638 0.000000 0.000000 0.000000
# 4 0.000000 0.000000 0.000000 0.055719 0.000000 0.000000
# 5 0.000000 0.000000 0.000000 0.000000 -0.032460 0.000000
# 6 0.000000 0.000000 0.000000 0.000000 0.000000 -0.241376
#
#
# Mechanical properties :
#
#
# Convention : Reuss Voigt Hill
#
# Bulk Modulus (GPa) = 58.15436 79.77707 68.96572
# Shear Modulus (GPa) = -28.89077 19.10261 -4.89408
#
# Velocity S-wave (km/s) = -3.82476 3.11008 -1.57420
# Velocity P-wave (km/s) = 3.15298 7.30012 5.62286
#
# Compressibility (1/GPa) = 0.01719562
#
# Stress axis : x y z
#
# Youngs Moduli (GPa) = 174.02097 67.23682 130.92498
#
# Poissons Ratio (x) = -0.04762 0.36152
# Poissons Ratio (y) = -0.12325 0.45533
# Poissons Ratio (z) = 0.48052 0.23383
#
# Static dielectric constant tensor:
#      x y z
#    x 1.881610 0.000000 0.000000 
#    y 0.000000 1.641150 0.000000 
#    z 0.000000 0.000000 1.661430 
# 
# From -- ./inp_files/24237.got.cif
#   From: 2010.05.17/outbox.cif.g08.bks.cpg/sg67_13_cif.got.tgz:24237.got - 2010.06.03 18:28:57.
