data_PCOD9500137
_publ_section_title
;
Structure prediction by ZEFSAII (Michael W. Deem and Ramdas Pophale) SiO2 
 PCOD9500137
Probable space group: C C C M
;
_chemical_formula_sum "Si O2"
_cell_formula_units_Z 58
_cell_length_a 9.000000
_cell_length_b 24.000000
_cell_length_c 27.000000
_cell_angle_alpha 90.000000
_cell_angle_beta 90.000000
_cell_angle_gamma 90.000000
_cell_volume 5832.000000
_symmetry_space_group_name_H-M "C C C M"
_symmetry_group_IT_number 66
_symmetry_cell_setting 'orthorhombic'
loop_
_space_group_symop_operation_xyz
x,y,z
-x,-y,z
x,-y,1/2-z
-x,y,1/2-z
-x,-y,-z
x,y,-z
-x,y,1/2+z
x,-y,1/2+z
1/2+x,1/2+y,z
1/2-x,1/2-y,z
1/2+x,1/2-y,1/2-z
1/2-x,1/2+y,1/2-z
1/2-x,1/2-y,-z
1/2+x,1/2+y,-z
1/2-x,1/2+y,1/2+z
1/2+x,1/2-y,1/2+z
loop_
_atom_site_type_symbol
_atom_site_label
_atom_site_fract_x
_atom_site_fract_y
_atom_site_fract_z
Si Si1 0.668681 0.482661 0.440335
Si Si2 0.979791 0.329201 0.102367
Si Si3 0.889503 0.386005 0.207620
Si Si4 0.365715 0.302145 0.287799
Si Si5 0.230575 0.600886 0.943506
Si Si6 0.500000 0.000000 0.250000
Si Si7 0.568081 0.700494 0.401143
Si Si8 0.275778 0.645895 0.440933
O O1 0.500000 0.500000 0.428062
O O2 0.681945 0.480519 0.500000
O O3 0.759043 0.537829 0.423464
O O4 0.704513 0.419445 0.424754
O O5 0.937415 0.358479 0.154836
O O6 0.933606 0.375089 0.061254
O O7 0.911700 0.267600 0.091772
O O8 0.154211 0.325382 0.093931
O O9 0.728724 0.359267 0.218284
O O10 0.000000 0.363364 0.250000
O O11 0.908922 0.453903 0.215906
O O12 0.500000 0.296252 0.250000
O O13 0.250000 0.250000 0.285105
O O14 0.437801 0.303019 0.342098
O O15 0.317177 0.650948 0.916173
O O16 0.284820 0.599572 0.000000
O O17 0.424971 0.680209 0.430764
O O18 0.244274 0.647979 0.500000
#
# Coordination Sequence:
#
# PCOD9500137 Si02
#       8
#    16  16  16  16  16   4  16  16
#     4   9  18  38  63  87 120 173 235 283 334 394
#     4  12  25  41  63  98 139 171 232 282 341 415
#     4  10  23  48  70 101 136 182 224 282 356 419
#     4  12  25  44  74 104 135 176 229 291 356 423
#     4  11  22  39  65  91 131 184 224 281 343 403
#     4   8  24  44  82  96 146 188 222 278 376 424
#     4  12  24  41  64  98 135 178 228 276 338 418
#     4  11  25  42  64  98 139 186 236 287 341 404
#
# _framework density 9.9451300000000007
#
# number of rings (size 3 to 8) (size 9 to 14) (size 15 to 20)
#    0.414    0.690    4.138    2.069    1.931    4.966 
#    0.000    2.414    3.034    0.000    0.000    0.000 
#    0.000    0.000    0.000    0.000    0.000    0.000 
#
# Total GULP energy -322915.375786 kJ/mol
# GULP energy per Si atom -5567.506479 kJ/mol
# Density = 0.992249 g / cm^3
# Si number density = 9.945130 Si / 1000 Ang^3
#
#
#
# Elastic Constant Matrix: (Units=GPa)
#
#
# Indices 1 2 3 4 5 6 
#
# 1 41.0009 7.5484 22.0718 0.0000 0.0000 0.0000
# 2 7.5484 148.9614 31.6957 0.0000 0.0000 0.0000
# 3 22.0718 31.6957 84.0773 0.0000 0.0000 0.0000
# 4 0.0000 0.0000 0.0000 30.1175 0.0000 0.0000
# 5 0.0000 0.0000 0.0000 0.0000 15.5459 0.0000
# 6 0.0000 0.0000 0.0000 0.0000 0.0000 32.0098
#
#
#
# Elastic Compliance Matrix: (Units=1/GPa)
#
#
# Indices 1 2 3 4 5 6 
#
# 1 0.028407 0.000160 -0.007518 0.000000 0.000000 0.000000
# 2 0.000160 0.007299 -0.002794 0.000000 0.000000 0.000000
# 3 -0.007518 -0.002794 0.014921 0.000000 0.000000 0.000000
# 4 0.000000 0.000000 0.000000 0.033203 0.000000 0.000000
# 5 0.000000 0.000000 0.000000 0.000000 0.064326 0.000000
# 6 0.000000 0.000000 0.000000 0.000000 0.000000 0.031240
#
#
# Mechanical properties :
#
#
# Convention : Reuss Voigt Hill
#
# Bulk Modulus (GPa) = 32.97675 44.07458 38.52566
# Shear Modulus (GPa) = 23.83133 29.71621 26.77377
#
# Velocity S-wave (km/s) = 3.46517 3.86943 3.67287
# Velocity P-wave (km/s) = 5.71185 6.49387 6.11537
#
# Compressibility (1/GPa) = 0.03032439
#
# Stress axis : x y z
#
# Youngs Moduli (GPa) = 35.20232 136.99571 67.02157
#
# Poissons Ratio (x) = -0.02194 0.50385
# Poissons Ratio (y) = -0.00564 0.18725
# Poissons Ratio (z) = 0.26464 0.38274
#
# Static dielectric constant tensor:
#      x y z
#    x 1.758090 0.000000 0.000000 
#    y 0.000000 1.712150 0.000000 
#    z 0.000000 0.000000 1.691260 
# 
# From -- ./inp_files/62881.got.cif
#   From: 2010.05.17/outbox.ucp.g08.bks.cvg/sg66_32_cif.got.tgz:62881.got - 2010.06.11 16:44:13.
