data_PCOD9500083
_publ_section_title
;
Structure prediction by ZEFSAII (Michael W. Deem and Ramdas Pophale) SiO2 
 PCOD9500083
Probable space group: C C C M
;
_chemical_formula_sum "Si O2"
_cell_formula_units_Z 48
_cell_length_a 15.000000
_cell_length_b 15.000000
_cell_length_c 24.000000
_cell_angle_alpha 90.000000
_cell_angle_beta 90.000000
_cell_angle_gamma 90.000000
_cell_volume 5400.000000
_symmetry_space_group_name_H-M "C C C M"
_symmetry_group_IT_number 66
_symmetry_cell_setting 'orthorhombic'
loop_
_space_group_symop_operation_xyz
x,y,z
-x,-y,z
x,-y,1/2-z
-x,y,1/2-z
-x,-y,-z
x,y,-z
-x,y,1/2+z
x,-y,1/2+z
1/2+x,1/2+y,z
1/2-x,1/2-y,z
1/2+x,1/2-y,1/2-z
1/2-x,1/2+y,1/2-z
1/2-x,1/2-y,-z
1/2+x,1/2+y,-z
1/2-x,1/2+y,1/2+z
1/2+x,1/2-y,1/2+z
loop_
_atom_site_type_symbol
_atom_site_label
_atom_site_fract_x
_atom_site_fract_y
_atom_site_fract_z
Si Si1 0.922728 0.431647 0.899269
Si Si2 0.825521 0.176213 0.332020
Si Si3 0.301092 0.882066 0.000000
Si Si4 0.891435 0.186244 0.000000
Si Si5 0.775754 0.493335 0.816109
Si Si6 0.668414 0.318577 0.199529
Si Si7 0.513920 0.271495 0.885649
O O1 0.845787 0.424812 0.945795
O O2 0.868078 0.467575 0.845963
O O3 0.970331 0.335391 0.891895
O O4 0.000000 0.500000 0.915232
O O5 0.750000 0.250000 0.343209
O O6 0.849783 0.181321 0.265850
O O7 0.914483 0.197223 0.367894
O O8 0.774309 0.081625 0.338301
O O9 0.193640 0.880407 0.000000
O O10 0.341031 0.781802 0.000000
O O11 0.950824 0.185051 0.943770
O O12 0.793485 0.500000 0.750000
O O13 0.706381 0.412567 0.820848
O O14 0.750000 0.250000 0.189291
O O15 0.581978 0.296421 0.163837
#
# Coordination Sequence:
#
# PCOD9500083 Si02
#       7
#    16  16   8   8  16  16  16
#     4  11  21  35  57  86 116 151 196 240 294 349
#     4  10  22  38  55  82 123 155 190 232 295 359
#     4   9  19  36  57  83 113 148 188 252 295 343
#     4   9  20  34  60  85 109 143 207 244 291 344
#     4  10  21  37  56  84 117 155 190 239 293 349
#     4  10  19  36  60  84 113 152 194 240 292 346
#     4  11  21  37  60  86 112 154 197 244 289 348
#
# _framework density 8.8888890000000007
#
# number of rings (size 3 to 8) (size 9 to 14) (size 15 to 20)
#    0.000    1.833    1.667    2.750    2.333    1.000 
#    3.000    3.750    0.000    2.000    0.000    0.000 
#    0.000    0.000    0.000    0.000    0.000    0.000 
#
# Total GULP energy -267726.958248 kJ/mol
# GULP energy per Si atom -5577.644964 kJ/mol
# Density = 0.886866 g / cm^3
# Si number density = 8.888889 Si / 1000 Ang^3
#
#
#
# Elastic Constant Matrix: (Units=GPa)
#
#
# Indices 1 2 3 4 5 6 
#
# 1 138.7989 51.2341 60.5139 0.0000 0.0000 0.0000
# 2 51.2341 114.3137 29.7801 0.0000 0.0000 0.0000
# 3 60.5139 29.7801 70.2122 0.0000 0.0000 0.0000
# 4 0.0000 0.0000 0.0000 3.2507 0.0000 0.0000
# 5 0.0000 0.0000 0.0000 0.0000 26.6639 0.0000
# 6 0.0000 0.0000 0.0000 0.0000 0.0000 24.1204
#
#
#
# Elastic Compliance Matrix: (Units=1/GPa)
#
#
# Indices 1 2 3 4 5 6 
#
# 1 0.012467 -0.003135 -0.009415 0.000000 0.000000 0.000000
# 2 -0.003135 0.010623 -0.001804 0.000000 0.000000 0.000000
# 3 -0.009415 -0.001804 0.023122 0.000000 0.000000 0.000000
# 4 0.000000 0.000000 0.000000 0.307623 0.000000 0.000000
# 5 0.000000 0.000000 0.000000 0.000000 0.037504 0.000000
# 6 0.000000 0.000000 0.000000 0.000000 0.000000 0.041459
#
#
# Mechanical properties :
#
#
# Convention : Reuss Voigt Hill
#
# Bulk Modulus (GPa) = 57.12880 67.37568 62.25224
# Shear Modulus (GPa) = 10.69887 22.92679 16.81283
#
# Velocity S-wave (km/s) = 2.45585 3.59504 3.07860
# Velocity P-wave (km/s) = 6.34400 7.43058 6.90868
#
# Compressibility (1/GPa) = 0.01750431
#
# Stress axis : x y z
#
# Youngs Moduli (GPa) = 80.21487 94.13801 43.24853
#
# Poissons Ratio (x) = 0.29509 0.40718
# Poissons Ratio (y) = 0.25144 0.07802
# Poissons Ratio (z) = 0.75522 0.16982
#
# Static dielectric constant tensor:
#      x y z
#    x 1.570600 0.000000 0.000000 
#    y 0.000000 1.655190 0.000000 
#    z 0.000000 0.000000 1.635830 
# 
# From -- ./inp_files/58176.got.cif
#   From: 2010.05.17/outbox.ucp.g08.bks.cvg/sg66_30_cif.got.tgz:58176.got - 2010.06.11 16:44:13.
