data_PCOD9500441
_publ_section_title
;
Structure prediction by ZEFSAII (Michael W. Deem and Ramdas Pophale) SiO2 
 PCOD9500441
Probable space group: C M M A
;
_chemical_formula_sum "Si O2"
_cell_formula_units_Z 60
_cell_length_a 13.660340
_cell_length_b 26.218424
_cell_length_c 7.470666
_cell_angle_alpha 90.000000
_cell_angle_beta 90.000000
_cell_angle_gamma 90.000000
_cell_volume 2675.638348
_symmetry_space_group_name_H-M "C M M A"
_symmetry_group_IT_number 67
_symmetry_cell_setting 'orthorhombic'
loop_
_space_group_symop_operation_xyz
x,y,z
-x,1/2-y,z
x,-y,-z
-x,1/2+y,-z
-x,-y,-z
x,1/2+y,-z
-x,y,z
x,1/2-y,z
1/2+x,1/2+y,z
1/2-x,-y,z
1/2+x,1/2-y,-z
1/2-x,y,-z
1/2-x,1/2-y,-z
1/2+x,y,-z
1/2-x,1/2+y,z
1/2+x,-y,z
loop_
_atom_site_type_symbol
_atom_site_label
_atom_site_fract_x
_atom_site_fract_y
_atom_site_fract_z
Si Si1 0.389884 0.192783 0.098156
Si Si2 0.750000 0.614521 0.000000
Si Si3 0.250000 0.500000 0.500000
Si Si4 0.381749 0.918051 0.301035
Si Si5 0.887295 0.194948 0.338743
O O1 0.500000 0.179979 0.154883
O O2 0.366010 0.250000 0.159161
O O3 0.389870 0.194322 0.880069
O O4 0.308574 0.151269 0.138389
O O5 0.834006 0.584522 0.897137
O O6 0.323409 0.463132 0.606417
O O7 0.500000 0.923387 0.296848
O O8 0.357874 0.862472 0.389233
O O9 0.842434 0.250000 0.389115
O O10 0.000000 0.197642 0.398297
#
# Coordination Sequence:
#
# PCOD9500441 Si02
#       5
#    16   8   4  16  16
#     4   8  13  22  41  78 125 158 179 216 279 355
#     4  10  17  31  58  90 114 146 193 247 300 346
#     4  12  26  46  62  78 108 166 214 246 296 348
#     4  10  22  41  63  89 120 153 196 246 293 350
#     4   7  11  24  50  82 114 146 178 221 281 341
#
# _framework density 22.424555000000002
#
# number of rings (size 3 to 8) (size 9 to 14) (size 15 to 20)
#    0.000    3.200    0.000    4.800    0.000    1.600 
#    0.000    7.333    0.000    0.000    0.000    3.733 
#    0.000    0.000    0.000    0.000    0.000    0.000 
#
# Total GULP energy -167063.012831 kJ/mol
# GULP energy per Si atom -5568.767094 kJ/mol
# Density = 2.237352 g / cm^3
# Si number density = 22.424555 Si / 1000 Ang^3
#
#
#
# Elastic Constant Matrix: (Units=GPa)
#
#
# Indices 1 2 3 4 5 6 
#
# 1 195.0351 79.2791 51.8325 0.0000 0.0000 0.0000
# 2 79.2791 159.3396 32.1768 0.0000 0.0000 0.0000
# 3 51.8325 32.1768 37.5929 0.0000 0.0000 0.0000
# 4 0.0000 0.0000 0.0000 -8.9459 0.0000 0.0000
# 5 0.0000 0.0000 0.0000 0.0000 16.8803 0.0000
# 6 0.0000 0.0000 0.0000 0.0000 0.0000 -1.5829
#
#
#
# Elastic Compliance Matrix: (Units=1/GPa)
#
#
# Indices 1 2 3 4 5 6 
#
# 1 0.008747 -0.002317 -0.010077 0.000000 0.000000 0.000000
# 2 -0.002317 0.008201 -0.003825 0.000000 0.000000 0.000000
# 3 -0.010077 -0.003825 0.043769 0.000000 0.000000 0.000000
# 4 0.000000 0.000000 0.000000 -0.111783 0.000000 0.000000
# 5 0.000000 0.000000 0.000000 0.000000 0.059241 0.000000
# 6 0.000000 0.000000 0.000000 0.000000 0.000000 -0.631749
#
#
# Mechanical properties :
#
#
# Convention : Reuss Voigt Hill
#
# Bulk Modulus (GPa) = 35.36195 79.83827 57.60011
# Shear Modulus (GPa) = -8.59537 16.51556 3.96010
#
# Velocity S-wave (km/s) = -1.95993 2.71679 1.33034
# Velocity P-wave (km/s) = 3.26829 6.74697 5.30110
#
# Compressibility (1/GPa) = 0.02827899
#
# Stress axis : x y z
#
# Youngs Moduli (GPa) = 114.32012 121.93365 22.84726
#
# Poissons Ratio (x) = 0.28255 0.23024
# Poissons Ratio (y) = 0.26491 0.08738
# Poissons Ratio (z) = 1.15205 0.46635
#
# Static dielectric constant tensor:
#      x y z
#    x 1.890770 0.000000 0.000000 
#    y 0.000000 1.913180 0.000000 
#    z 0.000000 0.000000 1.876410 
# 
# From -- ./inp_files/7887.got.cif
#   From: 2010.05.17/outbox.cif.g08.bks.cpg/sg67_4_cif.got.tgz:7887.got - 2010.06.03 18:28:57.
