data_PCOD9500693
_publ_section_title
;
Structure prediction by ZEFSAII (Michael W. Deem and Ramdas Pophale) SiO2 
 PCOD9500693
Probable space group: C M M A
;
_chemical_formula_sum "Si O2"
_cell_formula_units_Z 68
_cell_length_a 20.038646
_cell_length_b 21.463863
_cell_length_c 7.975965
_cell_angle_alpha 90.000000
_cell_angle_beta 90.000000
_cell_angle_gamma 90.000000
_cell_volume 3430.516404
_symmetry_space_group_name_H-M "C M M A"
_symmetry_group_IT_number 67
_symmetry_cell_setting 'orthorhombic'
loop_
_space_group_symop_operation_xyz
x,y,z
-x,1/2-y,z
x,-y,-z
-x,1/2+y,-z
-x,-y,-z
x,1/2+y,-z
-x,y,z
x,1/2-y,z
1/2+x,1/2+y,z
1/2-x,-y,z
1/2+x,1/2-y,-z
1/2-x,y,-z
1/2-x,1/2-y,-z
1/2+x,y,-z
1/2-x,1/2+y,z
1/2+x,-y,z
loop_
_atom_site_type_symbol
_atom_site_label
_atom_site_fract_x
_atom_site_fract_y
_atom_site_fract_z
Si Si1 0.758864 0.175709 0.303257
Si Si2 0.610520 0.178093 0.206916
Si Si3 0.598832 0.647063 0.174726
Si Si4 0.500000 0.750000 0.306052
Si Si5 0.500000 0.090788 0.356680
Si Si6 0.000000 0.953973 0.741559
O O1 0.769056 0.250000 0.281901
O O2 0.750000 0.162685 0.500000
O O3 0.688208 0.160472 0.219208
O O4 0.824326 0.144573 0.227739
O O5 0.602800 0.250000 0.264290
O O6 0.563851 0.133051 0.313801
O O7 0.590396 0.173574 0.012787
O O8 0.558136 0.695038 0.291897
O O9 0.564207 0.579974 0.181442
O O10 0.500000 0.066678 0.546249
O O11 0.500000 0.028007 0.245867
#
# Coordination Sequence:
#
# PCOD9500693 Si02
#       6
#    16  16  16   4   8   8
#     4  10  20  35  56  87 124 157 192 239 295 351
#     4  11  22  36  62  90 120 154 192 250 294 348
#     4  11  20  37  59  88 119 155 197 233 299 347
#     4  10  18  30  54  82 118 150 178 236 276 340
#     4  11  23  44  57  84 120 154 208 241 294 349
#     4  10  25  40  61  81 118 165 193 249 289 349
#
# _framework density 19.822088000000001
#
# number of rings (size 3 to 8) (size 9 to 14) (size 15 to 20)
#    0.000    1.412    2.353    3.882    0.000    3.765 
#    8.471    1.176    0.000    7.059    0.000    0.000 
#    0.000    0.000    0.000    0.000    0.000    0.000 
#
# Total GULP energy -189572.376584 kJ/mol
# GULP energy per Si atom -5575.658135 kJ/mol
# Density = 1.977697 g / cm^3
# Si number density = 19.822088 Si / 1000 Ang^3
#
#
#
# Elastic Constant Matrix: (Units=GPa)
#
#
# Indices 1 2 3 4 5 6 
#
# 1 137.5346 70.9522 29.8734 0.0000 0.0000 0.0000
# 2 70.9522 101.4290 10.3467 0.0000 0.0000 0.0000
# 3 29.8734 10.3467 34.7699 0.0000 0.0000 0.0000
# 4 0.0000 0.0000 0.0000 23.5906 0.0000 0.0000
# 5 0.0000 0.0000 0.0000 0.0000 14.8548 0.0000
# 6 0.0000 0.0000 0.0000 0.0000 0.0000 8.2817
#
#
#
# Elastic Compliance Matrix: (Units=1/GPa)
#
#
# Indices 1 2 3 4 5 6 
#
# 1 0.013754 -0.008679 -0.009235 0.000000 0.000000 0.000000
# 2 -0.008679 0.015645 0.002802 0.000000 0.000000 0.000000
# 3 -0.009235 0.002802 0.035861 0.000000 0.000000 0.000000
# 4 0.000000 0.000000 0.000000 0.042390 0.000000 0.000000
# 5 0.000000 0.000000 0.000000 0.000000 0.067319 0.000000
# 6 0.000000 0.000000 0.000000 0.000000 0.000000 0.120748
#
#
# Mechanical properties :
#
#
# Convention : Reuss Voigt Hill
#
# Bulk Modulus (GPa) = 28.54267 55.11979 41.83123
# Shear Modulus (GPa) = 14.80957 20.18284 17.49621
#
# Velocity S-wave (km/s) = 2.73632 3.19439 2.97419
# Velocity P-wave (km/s) = 4.94105 6.43996 5.73965
#
# Compressibility (1/GPa) = 0.03503526
#
# Stress axis : x y z
#
# Youngs Moduli (GPa) = 72.70442 63.91882 27.88556
#
# Poissons Ratio (x) = 0.55478 0.25751
# Poissons Ratio (y) = 0.63104 -0.07813
# Poissons Ratio (z) = 0.67139 -0.17908
#
# Static dielectric constant tensor:
#      x y z
#    x 1.687470 0.000000 0.000000 
#    y 0.000000 1.677240 0.000000 
#    z 0.000000 0.000000 1.756250 
# 
# From -- ./inp_files/9543.got.cif
#   From: 2010.05.17/outbox.cif.g08.bks.cpg/sg67_5_cif.got.tgz:9543.got - 2010.06.03 18:28:57.
