data_PCOD9500419
_publ_section_title
;
Structure prediction by ZEFSAII (Michael W. Deem and Ramdas Pophale) SiO2 
 PCOD9500419
Probable space group: C M M A
;
_chemical_formula_sum "Si O2"
_cell_formula_units_Z 80
_cell_length_a 8.566340
_cell_length_b 14.915866
_cell_length_c 31.103261
_cell_angle_alpha 90.000000
_cell_angle_beta 90.000000
_cell_angle_gamma 90.000000
_cell_volume 3974.199876
_symmetry_space_group_name_H-M "C M M A"
_symmetry_group_IT_number 67
_symmetry_cell_setting 'orthorhombic'
loop_
_space_group_symop_operation_xyz
x,y,z
-x,1/2-y,z
x,-y,-z
-x,1/2+y,-z
-x,-y,-z
x,1/2+y,-z
-x,y,z
x,1/2-y,z
1/2+x,1/2+y,z
1/2-x,-y,z
1/2+x,1/2-y,-z
1/2-x,y,-z
1/2-x,1/2-y,-z
1/2+x,y,-z
1/2-x,1/2+y,z
1/2+x,-y,z
loop_
_atom_site_type_symbol
_atom_site_label
_atom_site_fract_x
_atom_site_fract_y
_atom_site_fract_z
Si Si1 0.811773 0.600720 0.361474
Si Si2 0.813118 0.397753 0.544089
Si Si3 0.186613 0.897495 0.955541
Si Si4 0.186566 0.398656 0.865037
Si Si5 0.810417 0.750000 0.294187
Si Si6 0.313879 0.750000 0.197856
O O1 0.750000 0.500000 0.356918
O O2 0.766305 0.637916 0.408860
O O3 0.762529 0.664185 0.322630
O O4 0.000000 0.597901 0.361360
O O5 0.750000 0.500000 0.544691
O O6 0.750000 0.355983 0.500000
O O7 0.000000 0.398324 0.541549
O O8 0.249148 0.860665 0.910472
O O9 0.000000 0.897322 0.955926
O O10 0.250000 0.000000 0.955293
O O11 0.250000 0.856884 0.000000
O O12 0.250000 0.500000 0.860077
O O13 0.245355 0.336279 0.826734
O O14 0.000000 0.400763 0.866729
O O15 0.737922 0.750000 0.247246
O O16 0.000000 0.750000 0.290595
O O17 0.500000 0.750000 0.194276
#
# Coordination Sequence:
#
# PCOD9500419 Si02
#       6
#    16  16  16  16   8   8
#     4   9  19  35  57  81 110 145 185 227 277 334
#     4   9  15  25  44  73 105 141 178 218 264 321
#     4  10  17  29  51  83 120 159 198 239 284 339
#     4  11  22  40  64  91 121 158 198 242 293 349
#     4  10  22  42  61  80 108 146 186 234 291 348
#     4  12  26  44  63  88 117 150 193 246 300 356
#
# _framework density 20.129836999999998
#
# number of rings (size 3 to 8) (size 9 to 14) (size 15 to 20)
#    0.000    2.000    0.000    7.500    0.000    2.400 
#    0.000    3.000    0.000    0.000    0.000    0.000 
#    0.000    0.000    0.000    0.000    0.000    0.000 
#
# Total GULP energy -223355.894486 kJ/mol
# GULP energy per Si atom -5583.897362 kJ/mol
# Density = 2.008402 g / cm^3
# Si number density = 20.129837 Si / 1000 Ang^3
#
#
#
# Elastic Constant Matrix: (Units=GPa)
#
#
# Indices 1 2 3 4 5 6 
#
# 1 142.1221 33.6840 77.1202 0.0000 0.0000 0.0000
# 2 33.6840 99.9212 77.9823 0.0000 0.0000 0.0000
# 3 77.1202 77.9823 233.8659 0.0000 0.0000 0.0000
# 4 0.0000 0.0000 0.0000 41.5026 0.0000 0.0000
# 5 0.0000 0.0000 0.0000 0.0000 35.6907 0.0000
# 6 0.0000 0.0000 0.0000 0.0000 0.0000 -0.5767
#
#
#
# Elastic Compliance Matrix: (Units=1/GPa)
#
#
# Indices 1 2 3 4 5 6 
#
# 1 0.008633 -0.000931 -0.002537 0.000000 0.000000 0.000000
# 2 -0.000931 0.013629 -0.004238 0.000000 0.000000 0.000000
# 3 -0.002537 -0.004238 0.006525 0.000000 0.000000 0.000000
# 4 0.000000 0.000000 0.000000 0.024095 0.000000 0.000000
# 5 0.000000 0.000000 0.000000 0.000000 0.028019 0.000000
# 6 0.000000 0.000000 0.000000 0.000000 0.000000 -1.733977
#
#
# Mechanical properties :
#
#
# Convention : Reuss Voigt Hill
#
# Bulk Modulus (GPa) = 74.75090 94.83134 84.79112
# Shear Modulus (GPa) = -3.06146 34.46484 15.70169
#
# Velocity S-wave (km/s) = -1.23457 4.14227 2.79591
# Velocity P-wave (km/s) = 5.93151 8.37198 7.25510
#
# Compressibility (1/GPa) = 0.01337776
#
# Stress axis : x y z
#
# Youngs Moduli (GPa) = 115.83176 73.37398 153.24613
#
# Poissons Ratio (x) = 0.06829 0.38872
# Poissons Ratio (y) = 0.10780 0.64940
# Poissons Ratio (z) = 0.29382 0.31093
#
# Static dielectric constant tensor:
#      x y z
#    x 1.672060 0.000000 0.000000 
#    y 0.000000 1.720200 0.000000 
#    z 0.000000 0.000000 1.739050 
# 
# From -- ./inp_files/43383.got.cif
#   From: 2010.05.17/outbox.cif.g08.bks.cpg/sg67_22_cif.got.tgz:43383.got - 2010.06.03 18:28:57.
