data_PCOD9500027
_publ_section_title
;
Structure prediction by ZEFSAII (Michael W. Deem and Ramdas Pophale) SiO2 
 PCOD9500027
Probable space group: C C C M
;
_chemical_formula_sum "Si O2"
_cell_formula_units_Z 80
_cell_length_a 6.501953
_cell_length_b 28.361449
_cell_length_c 15.385322
_cell_angle_alpha 90.000000
_cell_angle_beta 90.000000
_cell_angle_gamma 90.000000
_cell_volume 2837.127356
_symmetry_space_group_name_H-M "C C C M"
_symmetry_group_IT_number 66
_symmetry_cell_setting 'orthorhombic'
loop_
_space_group_symop_operation_xyz
x,y,z
-x,-y,z
x,-y,1/2-z
-x,y,1/2-z
-x,-y,-z
x,y,-z
-x,y,1/2+z
x,-y,1/2+z
1/2+x,1/2+y,z
1/2-x,1/2-y,z
1/2+x,1/2-y,1/2-z
1/2-x,1/2+y,1/2-z
1/2-x,1/2-y,-z
1/2+x,1/2+y,-z
1/2-x,1/2+y,1/2+z
1/2+x,1/2-y,1/2+z
loop_
_atom_site_type_symbol
_atom_site_label
_atom_site_fract_x
_atom_site_fract_y
_atom_site_fract_z
Si Si1 0.733321 0.012690 0.394299
Si Si2 0.085709 0.609260 0.651086
Si Si3 0.942927 0.813592 0.399466
Si Si4 0.523600 0.211359 0.647254
Si Si5 0.136491 0.913471 0.100249
O O1 0.742344 0.011734 0.500000
O O2 0.748906 0.067293 0.364322
O O3 0.500000 0.000000 0.366693
O O4 0.862748 0.966839 0.363760
O O5 0.000000 0.608340 0.750000
O O6 0.146108 0.662892 0.625355
O O7 0.883444 0.596577 0.596102
O O8 0.991783 0.819347 0.500000
O O9 0.701729 0.799031 0.392313
O O10 0.062274 0.766788 0.369721
O O11 0.944190 0.865298 0.355510
O O12 0.500000 0.209629 0.750000
O O13 0.064904 0.915708 0.000000
#
# Coordination Sequence:
#
# PCOD9500027 Si02
#       5
#    16  16  16  16  16
#     4   8  13  20  29  42  64  95 126 155 187 224
#     4   9  15  20  28  46  73 103 131 154 188 241
#     4   9  16  27  42  57  75 106 148 183 206 242
#     4   9  16  24  35  55  80 106 138 174 214 247
#     4   8  14  23  33  46  66  95 133 171 198 222
#
# _framework density 28.197534999999998
#
# number of rings (size 3 to 8) (size 9 to 14) (size 15 to 20)
#    0.000    3.400    0.000    3.000    0.000    6.000 
#    0.000    0.000    0.000    0.000    0.000   11.200 
#    0.000    6.400    0.000   91.600    0.000  565.200 
#
# Total GULP energy -223456.400036 kJ/mol
# GULP energy per Si atom -5586.410001 kJ/mol
# Density = 2.813336 g / cm^3
# Si number density = 28.197535 Si / 1000 Ang^3
#
#
#
# Elastic Constant Matrix: (Units=GPa)
#
#
# Indices 1 2 3 4 5 6 
#
# 1 87.9912 100.9426 0.7134 0.0000 0.0000 0.0000
# 2 100.9426 448.0416 16.5620 0.0000 0.0000 0.0000
# 3 0.7134 16.5620 101.4665 0.0000 0.0000 0.0000
# 4 0.0000 0.0000 0.0000 46.9422 0.0000 0.0000
# 5 0.0000 0.0000 0.0000 0.0000 -167.2583 0.0000
# 6 0.0000 0.0000 0.0000 0.0000 0.0000 94.7540
#
#
#
# Elastic Compliance Matrix: (Units=1/GPa)
#
#
# Indices 1 2 3 4 5 6 
#
# 1 0.015347 -0.003475 0.000459 0.000000 0.000000 0.000000
# 2 -0.003475 0.003032 -0.000470 0.000000 0.000000 0.000000
# 3 0.000459 -0.000470 0.009929 0.000000 0.000000 0.000000
# 4 0.000000 0.000000 0.000000 0.021303 0.000000 0.000000
# 5 0.000000 0.000000 0.000000 0.000000 -0.005979 0.000000
# 6 0.000000 0.000000 0.000000 0.000000 0.000000 0.010554
#
#
# Mechanical properties :
#
#
# Convention : Reuss Voigt Hill
#
# Bulk Modulus (GPa) = 46.86798 97.10392 71.98595
# Shear Modulus (GPa) = 73.23866 29.50633 51.37249
#
# Velocity S-wave (km/s) = 5.10194 3.23834 4.27298
# Velocity P-wave (km/s) = 7.16685 6.96378 7.06605
#
# Compressibility (1/GPa) = 0.02133653
#
# Stress axis : x y z
#
# Youngs Moduli (GPa) = 65.15876 329.79836 100.71471
#
# Poissons Ratio (x) = 1.14593 -0.04625
# Poissons Ratio (y) = 0.22640 0.04739
# Poissons Ratio (z) = -0.02992 0.15517
#
# Static dielectric constant tensor:
#      x y z
#    x 2.361620 0.000000 0.000000 
#    y 0.000000 2.325170 0.000000 
#    z 0.000000 0.000000 3.472920 
# 
# From -- ./inp_files/26834.got.cif
#   From: 2010.05.17/outbox.cif.g08.bks.cpg/sg66_14_cif.got.tgz:26834.got - 2010.06.03 17:51:23.
