data_PCOD9500657
_publ_section_title
;
Structure prediction by ZEFSAII (Michael W. Deem and Ramdas Pophale) SiO2 
 PCOD9500657
Probable space group: C M M A
;
_chemical_formula_sum "Si O2"
_cell_formula_units_Z 88
_cell_length_a 10.804655
_cell_length_b 18.889984
_cell_length_c 22.728917
_cell_angle_alpha 90.000000
_cell_angle_beta 90.000000
_cell_angle_gamma 90.000000
_cell_volume 4638.966506
_symmetry_space_group_name_H-M "C M M A"
_symmetry_group_IT_number 67
_symmetry_cell_setting 'orthorhombic'
loop_
_space_group_symop_operation_xyz
x,y,z
-x,1/2-y,z
x,-y,-z
-x,1/2+y,-z
-x,-y,-z
x,1/2+y,-z
-x,y,z
x,1/2-y,z
1/2+x,1/2+y,z
1/2-x,-y,z
1/2+x,1/2-y,-z
1/2-x,y,-z
1/2-x,1/2-y,-z
1/2+x,y,-z
1/2-x,1/2+y,z
1/2+x,-y,z
loop_
_atom_site_type_symbol
_atom_site_label
_atom_site_fract_x
_atom_site_fract_y
_atom_site_fract_z
Si Si1 0.750000 0.000000 0.352869
Si Si2 0.862373 0.750000 0.404430
Si Si3 0.000000 0.587053 0.933167
Si Si4 0.135745 0.250000 0.315458
Si Si5 0.000000 0.585913 0.070610
Si Si6 0.139432 0.599643 0.745911
Si Si7 0.639884 0.593751 0.545232
Si Si8 0.251726 0.583957 0.129838
O O1 0.827054 0.050407 0.309337
O O2 0.667590 0.049255 0.395598
O O3 0.749413 0.750000 0.359638
O O4 0.854309 0.677529 0.440962
O O5 0.000000 0.750000 0.376063
O O6 0.000000 0.500706 0.928169
O O7 0.874844 0.613040 0.901710
O O8 0.000000 0.605157 0.001972
O O9 0.141654 0.320128 0.276414
O O10 0.000000 0.250000 0.345905
O O11 0.876258 0.611630 0.103304
O O12 0.232005 0.591618 0.800311
O O13 0.000000 0.581589 0.766506
O O14 0.500000 0.578562 0.523930
O O15 0.750000 0.577827 0.500000
O O16 0.250000 0.500000 0.117536
#
# Coordination Sequence:
#
# PCOD9500657 Si02
#       8
#     8   8   8   8   8  16  16  16
#     4  12  23  38  64  88 125 154 196 246 304 348
#     4  10  21  43  65  92 118 153 199 240 293 350
#     4   9  16  30  48  73 117 155 191 240 286 347
#     4  10  22  41  63  84 116 158 207 240 288 355
#     4   9  18  28  46  79 113 155 193 232 298 347
#     4  11  22  38  59  87 118 159 201 245 296 356
#     4  11  25  43  65  92 122 157 197 243 294 353
#     4  10  18  30  50  79 114 151 194 242 291 346
#
# _framework density 18.969742
#
# number of rings (size 3 to 8) (size 9 to 14) (size 15 to 20)
#    0.000    1.636    3.636    1.636    0.000    5.091 
#    3.273    0.000    0.000    0.000    0.000    3.818 
#    0.000    0.000    0.000    0.000    0.000    0.000 
#
# Total GULP energy -245539.087582 kJ/mol
# GULP energy per Si atom -5580.433809 kJ/mol
# Density = 1.892657 g / cm^3
# Si number density = 18.969742 Si / 1000 Ang^3
#
#
#
# Elastic Constant Matrix: (Units=GPa)
#
#
# Indices 1 2 3 4 5 6 
#
# 1 179.6800 23.4499 83.4559 0.0000 0.0000 0.0000
# 2 23.4499 74.9225 17.2477 0.0000 0.0000 0.0000
# 3 83.4559 17.2477 112.3385 0.0000 0.0000 0.0000
# 4 0.0000 0.0000 0.0000 21.7585 0.0000 0.0000
# 5 0.0000 0.0000 0.0000 0.0000 39.1803 0.0000
# 6 0.0000 0.0000 0.0000 0.0000 0.0000 -21.8273
#
#
#
# Elastic Compliance Matrix: (Units=1/GPa)
#
#
# Indices 1 2 3 4 5 6 
#
# 1 0.008612 -0.001267 -0.006203 0.000000 0.000000 0.000000
# 2 -0.001267 0.014023 -0.001211 0.000000 0.000000 0.000000
# 3 -0.006203 -0.001211 0.013696 0.000000 0.000000 0.000000
# 4 0.000000 0.000000 0.000000 0.045959 0.000000 0.000000
# 5 0.000000 0.000000 0.000000 0.000000 0.025523 0.000000
# 6 0.000000 0.000000 0.000000 0.000000 0.000000 -0.045814
#
#
# Mechanical properties :
#
#
# Convention : Reuss Voigt Hill
#
# Bulk Modulus (GPa) = 52.72418 68.36088 60.54253
# Shear Modulus (GPa) = 58.35314 24.00814 41.18064
#
# Velocity S-wave (km/s) = 5.55229 3.56139 4.66430
# Velocity P-wave (km/s) = 8.30410 7.28192 7.80975
#
# Compressibility (1/GPa) = 0.01896663
#
# Stress axis : x y z
#
# Youngs Moduli (GPa) = 116.11548 71.31298 73.01362
#
# Poissons Ratio (x) = 0.09039 0.45293
# Poissons Ratio (y) = 0.14717 0.08845
# Poissons Ratio (z) = 0.72030 0.08639
#
# Static dielectric constant tensor:
#      x y z
#    x 1.682250 0.000000 0.000000 
#    y 0.000000 1.648480 0.000000 
#    z 0.000000 0.000000 1.629320 
# 
# From -- ./inp_files/40735.got.cif
#   From: 2010.05.17/outbox.cif.g08.bks.cpg/sg67_21_cif.got.tgz:40735.got - 2010.06.03 18:28:57.
