data_PCOD9500873
_publ_section_title
;
Structure prediction by ZEFSAII (Michael W. Deem and Ramdas Pophale) SiO2 
 PCOD9500873
Probable space group: C M M A
;
_chemical_formula_sum "Si O2"
_cell_formula_units_Z 112
_cell_length_a 27.780153
_cell_length_b 13.955324
_cell_length_c 12.761348
_cell_angle_alpha 90.000000
_cell_angle_beta 90.000000
_cell_angle_gamma 90.000000
_cell_volume 4947.332612
_symmetry_space_group_name_H-M "C M M A"
_symmetry_group_IT_number 67
_symmetry_cell_setting 'orthorhombic'
loop_
_space_group_symop_operation_xyz
x,y,z
-x,1/2-y,z
x,-y,-z
-x,1/2+y,-z
-x,-y,-z
x,1/2+y,-z
-x,y,z
x,1/2-y,z
1/2+x,1/2+y,z
1/2-x,-y,z
1/2+x,1/2-y,-z
1/2-x,y,-z
1/2-x,1/2-y,-z
1/2+x,y,-z
1/2-x,1/2+y,z
1/2+x,-y,z
loop_
_atom_site_type_symbol
_atom_site_label
_atom_site_fract_x
_atom_site_fract_y
_atom_site_fract_z
Si Si1 0.355079 0.134943 0.934740
Si Si2 0.338752 0.359661 0.556696
Si Si3 0.552740 0.089835 0.578409
Si Si4 0.182202 0.133154 0.672724
Si Si5 0.106027 0.136451 0.843497
Si Si6 0.216260 0.632587 0.762422
Si Si7 0.052375 0.956080 0.824985
O O1 0.355458 0.250000 0.927794
O O2 0.308643 0.100713 0.870135
O O3 0.403178 0.097396 0.878353
O O4 0.359999 0.112340 0.057173
O O5 0.321165 0.250000 0.555675
O O6 0.396648 0.358843 0.557811
O O7 0.320980 0.402054 0.446566
O O8 0.317466 0.399020 0.664969
O O9 0.500000 0.137433 0.561976
O O10 0.554039 0.059867 0.700166
O O11 0.553461 0.000000 0.500000
O O12 0.183426 0.250000 0.669232
O O13 0.134815 0.109967 0.738532
O O14 0.229782 0.102730 0.734624
O O15 0.096009 0.250000 0.844728
O O16 0.060316 0.068083 0.848960
O O17 0.216738 0.750000 0.766150
O O18 0.000000 0.923123 0.862717
#
# Coordination Sequence:
#
# PCOD9500873 Si02
#       7
#    16  16  16  16  16  16  16
#     4  10  21  38  60  88 121 155 194 243 294 350
#     4  10  18  32  57  85 115 149 189 240 292 348
#     4  10  21  36  55  80 113 153 192 237 296 353
#     4   9  18  33  56  85 117 156 196 237 290 348
#     4  10  22  39  59  85 117 155 201 247 292 350
#     4   9  17  32  56  86 117 150 190 238 292 346
#     4  11  23  40  62  86 117 156 197 246 302 354
#
# _framework density 22.638462000000001
#
# number of rings (size 3 to 8) (size 9 to 14) (size 15 to 20)
#    0.000    2.143    1.429    1.714    0.000    4.286 
#    0.000    6.429    0.000    7.714    0.000    0.000 
#    0.000    0.000    0.000    0.000    0.000    0.000 
#
# Total GULP energy -312887.530122 kJ/mol
# GULP energy per Si atom -5587.277324 kJ/mol
# Density = 2.258694 g / cm^3
# Si number density = 22.638462 Si / 1000 Ang^3
#
#
#
# Elastic Constant Matrix: (Units=GPa)
#
#
# Indices 1 2 3 4 5 6 
#
# 1 71.1427 -7.7508 -16.7711 0.0000 0.0000 0.0000
# 2 -7.7508 38.0226 14.5419 0.0000 0.0000 0.0000
# 3 -16.7711 14.5419 62.0796 0.0000 0.0000 0.0000
# 4 0.0000 0.0000 0.0000 18.7839 0.0000 0.0000
# 5 0.0000 0.0000 0.0000 0.0000 29.7296 0.0000
# 6 0.0000 0.0000 0.0000 0.0000 0.0000 -52.3945
#
#
#
# Elastic Compliance Matrix: (Units=1/GPa)
#
#
# Indices 1 2 3 4 5 6 
#
# 1 0.015108 0.001668 0.003691 0.000000 0.000000 0.000000
# 2 0.001668 0.029072 -0.006359 0.000000 0.000000 0.000000
# 3 0.003691 -0.006359 0.018595 0.000000 0.000000 0.000000
# 4 0.000000 0.000000 0.000000 0.053237 0.000000 0.000000
# 5 0.000000 0.000000 0.000000 0.000000 0.033637 0.000000
# 6 0.000000 0.000000 0.000000 0.000000 0.000000 -0.019086
#
#
# Mechanical properties :
#
#
# Convention : Reuss Voigt Hill
#
# Bulk Modulus (GPa) = 16.45424 16.80943 16.63184
# Shear Modulus (GPa) = 32.71769 11.30544 22.01157
#
# Velocity S-wave (km/s) = 3.80574 2.23713 3.12157
# Velocity P-wave (km/s) = 5.15709 3.75690 4.51164
#
# Compressibility (1/GPa) = 0.06077459
#
# Stress axis : x y z
#
# Youngs Moduli (GPa) = 66.18985 34.39686 53.77761
#
# Poissons Ratio (x) = -0.05738 -0.19848
# Poissons Ratio (y) = -0.11042 0.34199
# Poissons Ratio (z) = -0.24429 0.21874
#
# Static dielectric constant tensor:
#      x y z
#    x 1.799740 0.000000 0.000000 
#    y 0.000000 1.880550 0.000000 
#    z 0.000000 0.000000 1.810700 
# 
# From -- ./inp_files/18592.got.cif
#   From: 2010.05.17/outbox.cif.g08.bks.cpg/sg67_10_cif.got.tgz:18592.got - 2010.06.03 18:28:57.
