data_PCOD9500811
_publ_section_title
;
Structure prediction by ZEFSAII (Michael W. Deem and Ramdas Pophale) SiO2 
 PCOD9500811
Probable space group: C M M A
;
_chemical_formula_sum "Si O2"
_cell_formula_units_Z 116
_cell_length_a 28.557166
_cell_length_b 16.230942
_cell_length_c 13.126354
_cell_angle_alpha 90.000000
_cell_angle_beta 90.000000
_cell_angle_gamma 90.000000
_cell_volume 6084.192471
_symmetry_space_group_name_H-M "C M M A"
_symmetry_group_IT_number 67
_symmetry_cell_setting 'orthorhombic'
loop_
_space_group_symop_operation_xyz
x,y,z
-x,1/2-y,z
x,-y,-z
-x,1/2+y,-z
-x,-y,-z
x,1/2+y,-z
-x,y,z
x,1/2-y,z
1/2+x,1/2+y,z
1/2-x,-y,z
1/2+x,1/2-y,-z
1/2-x,y,-z
1/2-x,1/2-y,-z
1/2+x,y,-z
1/2-x,1/2+y,z
1/2+x,-y,z
loop_
_atom_site_type_symbol
_atom_site_label
_atom_site_fract_x
_atom_site_fract_y
_atom_site_fract_z
Si Si1 0.084363 0.380583 0.221059
Si Si2 0.614308 0.047308 0.173212
Si Si3 0.256627 0.348904 0.678330
Si Si4 0.850855 0.849713 0.357855
Si Si5 0.000000 0.750000 0.755708
Si Si6 0.363432 0.156442 0.988565
Si Si7 0.648381 0.849751 0.415405
Si Si8 0.792735 0.940732 0.875897
O O1 0.076234 0.476341 0.192428
O O2 0.040851 0.322304 0.241959
O O3 0.111234 0.345343 0.121247
O O4 0.117453 0.380404 0.321257
O O5 0.620346 0.106891 0.269076
O O6 0.663066 0.996385 0.159348
O O7 0.609668 0.100809 0.070815
O O8 0.255888 0.250000 0.679385
O O9 0.203767 0.375190 0.655138
O O10 0.297324 0.374509 0.599968
O O11 0.274930 0.382142 0.785741
O O12 0.853141 0.750000 0.349276
O O13 0.866985 0.873963 0.471344
O O14 0.358911 0.250000 0.024534
O O15 0.313301 0.114278 0.967166
O O16 0.646745 0.750000 0.410734
O O17 0.750000 0.000000 0.897167
#
# Coordination Sequence:
#
# PCOD9500811 Si02
#       8
#    16  16  16  16   4  16  16  16
#     4  11  22  41  67  98 118 148 193 262 327 386
#     4  11  23  38  58  87 127 169 207 253 313 372
#     4  10  18  32  53  81 121 169 223 265 297 346
#     4  10  21  35  54  89 127 173 222 251 290 356
#     4  12  24  44  78 106 122 134 204 262 332 420
#     4  11  22  41  64  85 122 174 212 254 318 382
#     4  10  18  34  60  87 123 170 208 261 317 358
#     4  11  20  34  51  80 123 167 222 274 300 338
#
# _framework density 19.065801
#
# number of rings (size 3 to 8) (size 9 to 14) (size 15 to 20)
#    0.000    1.379    5.517    2.897    0.000    3.310 
#    0.000    2.069    0.000    1.655    0.000    0.000 
#    0.000    0.000    0.000    0.000    0.000    0.000 
#
# Total GULP energy -323186.068373 kJ/mol
# GULP energy per Si atom -5572.173593 kJ/mol
# Density = 1.902241 g / cm^3
# Si number density = 19.065801 Si / 1000 Ang^3
#
#
#
# Elastic Constant Matrix: (Units=GPa)
#
#
# Indices 1 2 3 4 5 6 
#
# 1 50.9458 22.4716 9.2194 0.0000 0.0000 0.0000
# 2 22.4716 83.4112 32.7514 0.0000 0.0000 0.0000
# 3 9.2194 32.7514 105.0217 0.0000 0.0000 0.0000
# 4 0.0000 0.0000 0.0000 15.1580 0.0000 0.0000
# 5 0.0000 0.0000 0.0000 0.0000 -2.1252 0.0000
# 6 0.0000 0.0000 0.0000 0.0000 0.0000 35.6642
#
#
#
# Elastic Compliance Matrix: (Units=1/GPa)
#
#
# Indices 1 2 3 4 5 6 
#
# 1 0.022277 -0.005964 -0.000096 0.000000 0.000000 0.000000
# 2 -0.005964 0.015258 -0.004235 0.000000 0.000000 0.000000
# 3 -0.000096 -0.004235 0.010851 0.000000 0.000000 0.000000
# 4 0.000000 0.000000 0.000000 0.065972 0.000000 0.000000
# 5 0.000000 0.000000 0.000000 0.000000 -0.470544 0.000000
# 6 0.000000 0.000000 0.000000 0.000000 0.000000 0.028039
#
#
# Mechanical properties :
#
#
# Convention : Reuss Voigt Hill
#
# Bulk Modulus (GPa) = 35.97512 40.91815 38.44663
# Shear Modulus (GPa) = -16.76207 21.40182 2.31988
#
# Velocity S-wave (km/s) = -2.96830 3.35404 1.10427
# Velocity P-wave (km/s) = 2.67623 6.04215 4.67278
#
# Compressibility (1/GPa) = 0.02779699
#
# Stress axis : x y z
#
# Youngs Moduli (GPa) = 44.89009 65.53796 92.15836
#
# Poissons Ratio (x) = 0.39086 0.00882
# Poissons Ratio (y) = 0.26772 0.39027
# Poissons Ratio (z) = 0.00430 0.27754
#
# Static dielectric constant tensor:
#      x y z
#    x 1.636880 0.000000 0.000000 
#    y 0.000000 1.702850 0.000000 
#    z 0.000000 0.000000 1.703360 
# 
# From -- ./inp_files/23974.got.cif
#   From: 2010.05.17/outbox.cif.g08.bks.cpg/sg67_12_cif.got.tgz:23974.got - 2010.06.03 18:28:57.
