data_PCOD9500863
_publ_section_title
;
Structure prediction by ZEFSAII (Michael W. Deem and Ramdas Pophale) SiO2 
 PCOD9500863
Probable space group: C M M A
;
_chemical_formula_sum "Si O2"
_cell_formula_units_Z 96
_cell_length_a 16.201689
_cell_length_b 24.698650
_cell_length_c 11.423288
_cell_angle_alpha 90.000000
_cell_angle_beta 90.000000
_cell_angle_gamma 90.000000
_cell_volume 4571.141167
_symmetry_space_group_name_H-M "C M M A"
_symmetry_group_IT_number 67
_symmetry_cell_setting 'orthorhombic'
loop_
_space_group_symop_operation_xyz
x,y,z
-x,1/2-y,z
x,-y,-z
-x,1/2+y,-z
-x,-y,-z
x,1/2+y,-z
-x,y,z
x,1/2-y,z
1/2+x,1/2+y,z
1/2-x,-y,z
1/2+x,1/2-y,-z
1/2-x,y,-z
1/2-x,1/2-y,-z
1/2+x,y,-z
1/2-x,1/2+y,z
1/2+x,-y,z
loop_
_atom_site_type_symbol
_atom_site_label
_atom_site_fract_x
_atom_site_fract_y
_atom_site_fract_z
Si Si1 0.399266 0.407037 0.835830
Si Si2 0.400852 0.029930 0.190685
Si Si3 0.153076 0.750000 0.490516
Si Si4 0.339219 0.949486 0.561239
Si Si5 0.600382 0.750000 0.783388
Si Si6 0.098996 0.645158 0.065828
Si Si7 0.096236 0.638426 0.590241
O O1 0.500000 0.404901 0.838200
O O2 0.380450 0.470461 0.860741
O O3 0.367815 0.390053 0.706815
O O4 0.369222 0.364173 0.933239
O O5 0.500000 0.028021 0.220458
O O6 0.344007 0.038053 0.303767
O O7 0.389066 0.085068 0.119023
O O8 0.250000 0.750000 0.500000
O O9 0.127124 0.750000 0.353229
O O10 0.122978 0.698167 0.561354
O O11 0.250000 0.945520 0.500000
O O12 0.384284 0.895340 0.525806
O O13 0.383920 0.000000 0.500000
O O14 0.500000 0.750000 0.781387
O O15 0.628458 0.804399 0.854467
O O16 0.000000 0.653582 0.058583
O O17 0.000000 0.638021 0.609852
#
# Coordination Sequence:
#
# PCOD9500863 Si02
#       7
#    16  16   8  16   8  16  16
#     4   9  18  32  54  87 118 147 189 247 303 349
#     4  10  18  32  56  85 117 154 201 249 296 350
#     4  12  26  43  62  86 118 159 195 246 301 358
#     4  11  22  35  54  84 121 165 197 243 296 356
#     4  10  20  37  60  87 116 153 200 241 286 352
#     4   9  18  32  55  86 118 150 190 246 298 346
#     4  11  22  38  61  88 119 153 199 249 297 354
#
# _framework density 21.001321000000001
#
# number of rings (size 3 to 8) (size 9 to 14) (size 15 to 20)
#    0.000    1.833    1.667    3.250    0.000    4.667 
#    0.000    2.500    0.000    5.000    0.000    0.000 
#    0.000    0.000    0.000    0.000    0.000    0.000 
#
# Total GULP energy -267594.415419 kJ/mol
# GULP energy per Si atom -5574.883655 kJ/mol
# Density = 2.095352 g / cm^3
# Si number density = 21.001321 Si / 1000 Ang^3
#
#
#
# Elastic Constant Matrix: (Units=GPa)
#
#
# Indices 1 2 3 4 5 6 
#
# 1 17.4651 16.0472 15.4626 0.0000 0.0000 0.0000
# 2 16.0472 141.9536 31.2623 0.0000 0.0000 0.0000
# 3 15.4626 31.2623 88.0301 0.0000 0.0000 0.0000
# 4 0.0000 0.0000 0.0000 38.2900 0.0000 0.0000
# 5 0.0000 0.0000 0.0000 0.0000 9.9407 0.0000
# 6 0.0000 0.0000 0.0000 0.0000 0.0000 7.8923
#
#
#
# Elastic Compliance Matrix: (Units=1/GPa)
#
#
# Indices 1 2 3 4 5 6 
#
# 1 0.071955 -0.005805 -0.010578 0.000000 0.000000 0.000000
# 2 -0.005805 0.008111 -0.001861 0.000000 0.000000 0.000000
# 3 -0.010578 -0.001861 0.013879 0.000000 0.000000 0.000000
# 4 0.000000 0.000000 0.000000 0.026116 0.000000 0.000000
# 5 0.000000 0.000000 0.000000 0.000000 0.100597 0.000000
# 6 0.000000 0.000000 0.000000 0.000000 0.000000 0.126706
#
#
# Mechanical properties :
#
#
# Convention : Reuss Voigt Hill
#
# Bulk Modulus (GPa) = 17.40394 41.44367 29.42381
# Shear Modulus (GPa) = 12.40686 23.53638 17.97162
#
# Velocity S-wave (km/s) = 2.43320 3.35133 2.92847
# Velocity P-wave (km/s) = 4.02480 5.89508 5.04732
#
# Compressibility (1/GPa) = 0.05745825
#
# Stress axis : x y z
#
# Youngs Moduli (GPa) = 13.89752 123.29651 72.05381
#
# Poissons Ratio (x) = 0.71570 0.76216
# Poissons Ratio (y) = 0.08067 0.13407
# Poissons Ratio (z) = 0.14700 0.22942
#
# Static dielectric constant tensor:
#      x y z
#    x 2.279160 0.000000 0.000000 
#    y 0.000000 1.848150 0.000000 
#    z 0.000000 0.000000 1.816240 
# 
# From -- ./inp_files/19707.got.cif
#   From: 2010.05.17/outbox.cif.g08.bks.cpg/sg67_10_cif.got.tgz:19707.got - 2010.06.03 18:28:57.
