data_PCOD9500184
_publ_section_title
;
Structure prediction by ZEFSAII (Michael W. Deem and Ramdas Pophale) SiO2 
 PCOD9500184
Probable space group: C M M A
;
_chemical_formula_sum "Si O2"
_cell_formula_units_Z 104
_cell_length_a 22.264412
_cell_length_b 8.582146
_cell_length_c 30.714832
_cell_angle_alpha 90.000000
_cell_angle_beta 90.000000
_cell_angle_gamma 90.000000
_cell_volume 5868.880581
_symmetry_space_group_name_H-M "C M M A"
_symmetry_group_IT_number 67
_symmetry_cell_setting 'orthorhombic'
loop_
_space_group_symop_operation_xyz
x,y,z
-x,1/2-y,z
x,-y,-z
-x,1/2+y,-z
-x,-y,-z
x,1/2+y,-z
-x,y,z
x,1/2-y,z
1/2+x,1/2+y,z
1/2-x,-y,z
1/2+x,1/2-y,-z
1/2-x,y,-z
1/2-x,1/2-y,-z
1/2+x,y,-z
1/2-x,1/2+y,z
1/2+x,-y,z
loop_
_atom_site_type_symbol
_atom_site_label
_atom_site_fract_x
_atom_site_fract_y
_atom_site_fract_z
Si Si1 0.682100 0.563707 0.365986
Si Si2 0.500000 0.063881 0.951728
Si Si3 0.183083 0.436262 0.045152
Si Si4 0.099665 0.435783 0.887637
Si Si5 0.681359 0.435412 0.455100
Si Si6 0.068780 0.561651 0.792340
Si Si7 0.681257 0.938015 0.267781
O O1 0.682439 0.750000 0.370588
O O2 0.750000 0.500000 0.365584
O O3 0.653107 0.491930 0.409474
O O4 0.660761 0.523345 0.317380
O O5 0.500000 0.250000 0.951893
O O6 0.555069 0.998663 0.924347
O O7 0.500000 0.000000 0.000000
O O8 0.179319 0.250000 0.044277
O O9 0.250000 0.500000 0.042736
O O10 0.160484 0.501525 0.091318
O O11 0.153068 0.500000 0.000000
O O12 0.098573 0.250000 0.885169
O O13 0.081358 0.505483 0.841358
O O14 0.653836 0.500000 0.500000
O O15 0.816453 0.750000 0.456423
O O16 0.750000 0.500000 0.454646
O O17 0.068769 0.750000 0.791152
O O18 0.126598 0.509600 0.763601
O O19 0.000000 0.512211 0.779836
O O20 0.685733 0.750000 0.264860
O O21 0.750000 0.000000 0.260174
#
# Coordination Sequence:
#
# PCOD9500184 Si02
#       7
#    16   8  16  16  16  16  16
#     4   9  15  25  40  61  91 125 166 212 260 313
#     4  12  24  40  60  84 110 138 170 210 253 304
#     4  11  22  39  60  84 113 145 178 214 258 307
#     4  12  24  39  58  83 110 139 175 214 260 314
#     4  10  16  22  33  53  84 124 167 207 255 310
#     4  10  21  39  60  80 108 144 183 226 276 327
#     4   9  19  34  54  79 105 139 180 225 274 326
#
# _framework density 17.720585
#
# number of rings (size 3 to 8) (size 9 to 14) (size 15 to 20)
#    0.000    1.692    0.769    7.615    0.000    1.846 
#    0.000    1.538    0.000    0.000    0.000    0.000 
#    0.000    0.615    0.000    1.077    0.000    6.308 
#
# Total GULP energy -289635.368271 kJ/mol
# GULP energy per Si atom -5569.910928 kJ/mol
# Density = 1.768025 g / cm^3
# Si number density = 17.720585 Si / 1000 Ang^3
#
#
#
# Elastic Constant Matrix: (Units=GPa)
#
#
# Indices 1 2 3 4 5 6 
#
# 1 78.4957 19.3247 59.2246 0.0000 0.0000 0.0000
# 2 19.3247 80.2393 36.2592 0.0000 0.0000 0.0000
# 3 59.2246 36.2592 157.4053 0.0000 0.0000 0.0000
# 4 0.0000 0.0000 0.0000 29.8761 0.0000 0.0000
# 5 0.0000 0.0000 0.0000 0.0000 30.6650 0.0000
# 6 0.0000 0.0000 0.0000 0.0000 0.0000 17.9859
#
#
#
# Elastic Compliance Matrix: (Units=1/GPa)
#
#
# Indices 1 2 3 4 5 6 
#
# 1 0.017933 -0.001417 -0.006421 0.000000 0.000000 0.000000
# 2 -0.001417 0.014023 -0.002697 0.000000 0.000000 0.000000
# 3 -0.006421 -0.002697 0.009390 0.000000 0.000000 0.000000
# 4 0.000000 0.000000 0.000000 0.033472 0.000000 0.000000
# 5 0.000000 0.000000 0.000000 0.000000 0.032610 0.000000
# 6 0.000000 0.000000 0.000000 0.000000 0.000000 0.055599
#
#
# Mechanical properties :
#
#
# Convention : Reuss Voigt Hill
#
# Bulk Modulus (GPa) = 49.32054 60.63970 54.98012
# Shear Modulus (GPa) = 26.19774 29.12752 27.66263
#
# Velocity S-wave (km/s) = 3.84914 4.05867 3.95529
# Velocity P-wave (km/s) = 6.90270 7.50053 7.20782
#
# Compressibility (1/GPa) = 0.02027553
#
# Stress axis : x y z
#
# Youngs Moduli (GPa) = 55.76302 71.31244 106.49431
#
# Poissons Ratio (x) = 0.10108 0.68379
# Poissons Ratio (y) = 0.07904 0.28721
# Poissons Ratio (z) = 0.35805 0.19232
#
# Static dielectric constant tensor:
#      x y z
#    x 1.909720 0.000000 0.000000 
#    y 0.000000 1.595460 0.000000 
#    z 0.000000 0.000000 1.655690 
# 
# From -- ./inp_files/44827.got.cif
#   From: 2010.05.17/outbox.cif.g08.bks.cpg/sg67_23_cif.got.tgz:44827.got - 2010.06.03 18:28:57.
