data_PCOD9500573
_publ_section_title
;
Structure prediction by ZEFSAII (Michael W. Deem and Ramdas Pophale) SiO2 
 PCOD9500573
Probable space group: C M M A
;
_chemical_formula_sum "Si O2"
_cell_formula_units_Z 104
_cell_length_a 25.372438
_cell_length_b 20.364869
_cell_length_c 9.601908
_cell_angle_alpha 90.000000
_cell_angle_beta 90.000000
_cell_angle_gamma 90.000000
_cell_volume 4961.367086
_symmetry_space_group_name_H-M "C M M A"
_symmetry_group_IT_number 67
_symmetry_cell_setting 'orthorhombic'
loop_
_space_group_symop_operation_xyz
x,y,z
-x,1/2-y,z
x,-y,-z
-x,1/2+y,-z
-x,-y,-z
x,1/2+y,-z
-x,y,z
x,1/2-y,z
1/2+x,1/2+y,z
1/2-x,-y,z
1/2+x,1/2-y,-z
1/2-x,y,-z
1/2-x,1/2-y,-z
1/2+x,y,-z
1/2-x,1/2+y,z
1/2+x,-y,z
loop_
_atom_site_type_symbol
_atom_site_label
_atom_site_fract_x
_atom_site_fract_y
_atom_site_fract_z
Si Si1 0.441232 0.750000 0.472786
Si Si2 0.440821 0.750000 0.920726
Si Si3 0.342864 0.428983 0.980582
Si Si4 0.438303 0.101692 0.175906
Si Si5 0.211873 0.672378 0.185442
Si Si6 0.822570 0.123008 0.299502
Si Si7 0.386908 0.750000 0.209364
Si Si8 0.871834 0.631704 0.413382
O O1 0.500000 0.750000 0.527630
O O2 0.438687 0.750000 0.305085
O O3 0.410395 0.813773 0.523387
O O4 0.500000 0.750000 0.980258
O O5 0.436072 0.818184 0.837973
O O6 0.399735 0.750000 0.047164
O O7 0.400335 0.424391 0.053173
O O8 0.308998 0.370416 0.053506
O O9 0.317700 0.500000 0.000000
O O10 0.345940 0.425224 0.814891
O O11 0.500000 0.083042 0.168623
O O12 0.408839 0.084516 0.320557
O O13 0.220492 0.750000 0.153858
O O14 0.262449 0.638312 0.257400
O O15 0.167198 0.665695 0.303208
O O16 0.852902 0.189032 0.257944
O O17 0.836871 0.105439 0.457766
#
# Coordination Sequence:
#
# PCOD9500573 Si02
#       8
#     8   8  16  16  16  16   8  16
#     4  10  18  29  50  83 133 166 190 248 322 373
#     4  10  18  32  57  89 123 161 207 252 306 374
#     4  11  26  44  64  91 127 167 218 269 319 378
#     4  10  21  38  63  90 126 169 211 255 315 383
#     4  11  23  39  64  92 125 168 213 261 324 389
#     4  11  22  37  62  90 127 163 205 260 321 374
#     4  10  19  31  52  91 123 151 197 256 310 364
#     4  10  21  35  56  93 127 162 204 262 311 380
#
# _framework density 20.961964999999999
#
# number of rings (size 3 to 8) (size 9 to 14) (size 15 to 20)
#    0.000    1.538    3.077    2.077    4.308    3.385 
#    0.000    3.846    0.000    4.615    0.000    0.000 
#    0.000    0.000    0.000    0.000    0.000    0.000 
#
# Total GULP energy -290086.364272 kJ/mol
# GULP energy per Si atom -5578.583928 kJ/mol
# Density = 2.091425 g / cm^3
# Si number density = 20.961965 Si / 1000 Ang^3
#
#
#
# Elastic Constant Matrix: (Units=GPa)
#
#
# Indices 1 2 3 4 5 6 
#
# 1 144.0149 -7.5899 36.8501 0.0000 0.0000 0.0000
# 2 -7.5899 40.9013 9.2341 0.0000 0.0000 0.0000
# 3 36.8501 9.2341 99.1110 0.0000 0.0000 0.0000
# 4 0.0000 0.0000 0.0000 22.3407 0.0000 0.0000
# 5 0.0000 0.0000 0.0000 0.0000 28.6163 0.0000
# 6 0.0000 0.0000 0.0000 0.0000 0.0000 -0.5971
#
#
#
# Elastic Compliance Matrix: (Units=1/GPa)
#
#
# Indices 1 2 3 4 5 6 
#
# 1 0.007857 0.002163 -0.003123 0.000000 0.000000 0.000000
# 2 0.002163 0.025570 -0.003187 0.000000 0.000000 0.000000
# 3 -0.003123 -0.003187 0.011548 0.000000 0.000000 0.000000
# 4 0.000000 0.000000 0.000000 0.044761 0.000000 0.000000
# 5 0.000000 0.000000 0.000000 0.000000 0.034945 0.000000
# 6 0.000000 0.000000 0.000000 0.000000 0.000000 -1.674696
#
#
# Mechanical properties :
#
#
# Convention : Reuss Voigt Hill
#
# Bulk Modulus (GPa) = 27.26156 40.11285 33.68721
# Shear Modulus (GPa) = -3.26905 26.44084 11.58590
#
# Velocity S-wave (km/s) = -1.25016 3.55543 2.35353
# Velocity P-wave (km/s) = 3.30902 6.00270 4.84675
#
# Compressibility (1/GPa) = 0.03668168
#
# Stress axis : x y z
#
# Youngs Moduli (GPa) = 127.27912 39.10856 86.59793
#
# Poissons Ratio (x) = -0.08459 0.27042
# Poissons Ratio (y) = -0.27530 0.27595
# Poissons Ratio (z) = 0.39746 0.12462
#
# Static dielectric constant tensor:
#      x y z
#    x 1.783880 0.000000 0.000000 
#    y 0.000000 1.716860 0.000000 
#    z 0.000000 0.000000 1.799510 
# 
# From -- ./inp_files/13832.got.cif
#   From: 2010.05.17/outbox.cif.g08.bks.cpg/sg67_7_cif.got.tgz:13832.got - 2010.06.03 18:28:57.
