data_PCOD9500845
_publ_section_title
;
Structure prediction by ZEFSAII (Michael W. Deem and Ramdas Pophale) SiO2 
 PCOD9500845
Probable space group: C M M A
;
_chemical_formula_sum "Si O2"
_cell_formula_units_Z 96
_cell_length_a 24.638992
_cell_length_b 25.115875
_cell_length_c 8.152034
_cell_angle_alpha 90.000000
_cell_angle_beta 90.000000
_cell_angle_gamma 90.000000
_cell_volume 5044.721922
_symmetry_space_group_name_H-M "C M M A"
_symmetry_group_IT_number 67
_symmetry_cell_setting 'orthorhombic'
loop_
_space_group_symop_operation_xyz
x,y,z
-x,1/2-y,z
x,-y,-z
-x,1/2+y,-z
-x,-y,-z
x,1/2+y,-z
-x,y,z
x,1/2-y,z
1/2+x,1/2+y,z
1/2-x,-y,z
1/2+x,1/2-y,-z
1/2-x,y,-z
1/2-x,1/2-y,-z
1/2+x,y,-z
1/2-x,1/2+y,z
1/2+x,-y,z
loop_
_atom_site_type_symbol
_atom_site_label
_atom_site_fract_x
_atom_site_fract_y
_atom_site_fract_z
Si Si1 0.434356 0.141918 0.423579
Si Si2 0.310365 0.915609 0.938161
Si Si3 0.413850 0.458014 0.866755
Si Si4 0.872575 0.190051 0.888638
Si Si5 0.864879 0.963730 0.368871
Si Si6 0.939542 0.837951 0.792838
O O1 0.500000 0.134402 0.412606
O O2 0.412310 0.172821 0.262179
O O3 0.399876 0.087184 0.422862
O O4 0.422890 0.168389 0.601937
O O5 0.325779 0.854154 0.904189
O O6 0.323553 0.945162 0.769592
O O7 0.250000 0.922544 0.000000
O O8 0.354833 0.939575 0.064043
O O9 0.406979 0.494127 0.708499
O O10 0.441163 0.401807 0.829865
O O11 0.436767 0.500000 0.000000
O O12 0.853665 0.250000 0.860431
O O13 0.903208 0.186283 0.063613
O O14 0.834979 0.000000 0.500000
O O15 0.000000 0.816473 0.809135
#
# Coordination Sequence:
#
# PCOD9500845 Si02
#       6
#    16  16  16  16  16  16
#     4  10  21  35  55  85 118 150 189 229 267 328
#     4   9  20  38  57  78 107 140 184 239 282 336
#     4   9  18  31  50  76 112 148 183 222 266 326
#     4  10  22  39  59  80 107 144 187 241 294 335
#     4  10  18  32  55  81 115 151 181 222 271 327
#     4  10  20  34  53  79 114 151 184 225 275 328
#
# _framework density 19.029789000000001
#
# number of rings (size 3 to 8) (size 9 to 14) (size 15 to 20)
#    0.000    2.333    1.667    1.500    0.000    6.667 
#    0.000    3.333    0.000    0.000    0.000    4.667 
#    0.000    0.000    0.000    0.000    0.000    0.000 
#
# Total GULP energy -267434.711921 kJ/mol
# GULP energy per Si atom -5571.556498 kJ/mol
# Density = 1.898648 g / cm^3
# Si number density = 19.029789 Si / 1000 Ang^3
#
#
#
# Elastic Constant Matrix: (Units=GPa)
#
#
# Indices 1 2 3 4 5 6 
#
# 1 77.6490 3.0430 22.5402 0.0000 0.0000 0.0000
# 2 3.0430 90.9218 6.2456 0.0000 0.0000 0.0000
# 3 22.5402 6.2456 83.1682 0.0000 0.0000 0.0000
# 4 0.0000 0.0000 0.0000 16.0730 0.0000 0.0000
# 5 0.0000 0.0000 0.0000 0.0000 4.6109 0.0000
# 6 0.0000 0.0000 0.0000 0.0000 0.0000 -5.5022
#
#
#
# Elastic Compliance Matrix: (Units=1/GPa)
#
#
# Indices 1 2 3 4 5 6 
#
# 1 0.013982 -0.000209 -0.003774 0.000000 0.000000 0.000000
# 2 -0.000209 0.011059 -0.000774 0.000000 0.000000 0.000000
# 3 -0.003774 -0.000774 0.013105 0.000000 0.000000 0.000000
# 4 0.000000 0.000000 0.000000 0.062216 0.000000 0.000000
# 5 0.000000 0.000000 0.000000 0.000000 0.216879 0.000000
# 6 0.000000 0.000000 0.000000 0.000000 0.000000 -0.181744
#
#
# Mechanical properties :
#
#
# Convention : Reuss Voigt Hill
#
# Bulk Modulus (GPa) = 34.92513 35.04407 34.98460
# Shear Modulus (GPa) = 32.35128 17.69699 25.02414
#
# Velocity S-wave (km/s) = 4.12762 3.05284 3.63022
# Velocity P-wave (km/s) = 6.41163 5.55714 5.99962
#
# Compressibility (1/GPa) = 0.02863268
#
# Stress axis : x y z
#
# Youngs Moduli (GPa) = 71.51996 90.42733 76.30843
#
# Poissons Ratio (x) = 0.01888 0.28797
# Poissons Ratio (y) = 0.01493 0.05905
# Poissons Ratio (z) = 0.26990 0.06998
#
# Static dielectric constant tensor:
#      x y z
#    x 1.629910 0.000000 0.000000 
#    y 0.000000 1.686940 0.000000 
#    z 0.000000 0.000000 1.772300 
# 
# From -- ./inp_files/12626.got.cif
#   From: 2010.05.17/outbox.cif.g08.bks.cpg/sg67_7_cif.got.tgz:12626.got - 2010.06.03 18:28:57.
