data_PCOD9500886
_publ_section_title
;
Structure prediction by ZEFSAII (Michael W. Deem and Ramdas Pophale) SiO2 
 PCOD9500886
Probable space group: C M M A
;
_chemical_formula_sum "Si O2"
_cell_formula_units_Z 80
_cell_length_a 23.462183
_cell_length_b 15.537047
_cell_length_c 11.275527
_cell_angle_alpha 90.000000
_cell_angle_beta 90.000000
_cell_angle_gamma 90.000000
_cell_volume 4110.302135
_symmetry_space_group_name_H-M "C M M A"
_symmetry_group_IT_number 67
_symmetry_cell_setting 'orthorhombic'
loop_
_space_group_symop_operation_xyz
x,y,z
-x,1/2-y,z
x,-y,-z
-x,1/2+y,-z
-x,-y,-z
x,1/2+y,-z
-x,y,z
x,1/2-y,z
1/2+x,1/2+y,z
1/2-x,-y,z
1/2+x,1/2-y,-z
1/2-x,y,-z
1/2-x,1/2-y,-z
1/2+x,y,-z
1/2-x,1/2+y,z
1/2+x,-y,z
loop_
_atom_site_type_symbol
_atom_site_label
_atom_site_fract_x
_atom_site_fract_y
_atom_site_fract_z
Si Si1 0.564913 0.484877 0.636013
Si Si2 0.663567 0.397554 0.022074
Si Si3 0.390982 0.151042 0.254843
Si Si4 0.733385 0.600297 0.752827
Si Si5 0.146113 0.656155 0.753470
O O1 0.581812 0.500000 0.500000
O O2 0.500000 0.452110 0.639941
O O3 0.568243 0.578647 0.695234
O O4 0.607598 0.420010 0.702016
O O5 0.615363 0.364736 0.113521
O O6 0.718729 0.382147 0.107458
O O7 0.660962 0.500000 0.000000
O O8 0.654594 0.355223 0.895141
O O9 0.404196 0.250000 0.280196
O O10 0.327016 0.126781 0.303116
O O11 0.750000 0.500000 0.743019
O O12 0.788794 0.648980 0.708292
O O13 0.122138 0.750000 0.726062
#
# Coordination Sequence:
#
# PCOD9500886 Si02
#       5
#    16  16  16  16  16
#     4  11  26  47  67  83 109 161 221 270 312 355
#     4  10  18  32  59  96 133 164 193 231 296 379
#     4  10  21  37  61  93 125 158 199 249 306 376
#     4  10  18  32  59  96 132 164 193 229 295 378
#     4  12  22  36  62  97 131 162 197 248 311 368
#
# _framework density 19.463291000000002
#
# number of rings (size 3 to 8) (size 9 to 14) (size 15 to 20)
#    1.200    0.200    6.000    1.800    0.000    2.400 
#    0.000    6.000    0.000    4.800    0.000    0.000 
#    0.000    0.000    0.000    0.000    0.000    0.000 
#
# Total GULP energy -222739.292542 kJ/mol
# GULP energy per Si atom -5568.482314 kJ/mol
# Density = 1.941899 g / cm^3
# Si number density = 19.463291 Si / 1000 Ang^3
#
#
#
# Elastic Constant Matrix: (Units=GPa)
#
#
# Indices 1 2 3 4 5 6 
#
# 1 52.2623 38.1232 27.3530 0.0000 0.0000 0.0000
# 2 38.1232 120.3492 29.7136 0.0000 0.0000 0.0000
# 3 27.3530 29.7136 39.5543 0.0000 0.0000 0.0000
# 4 0.0000 0.0000 0.0000 -10.2539 0.0000 0.0000
# 5 0.0000 0.0000 0.0000 0.0000 19.6473 0.0000
# 6 0.0000 0.0000 0.0000 0.0000 0.0000 -51.6135
#
#
#
# Elastic Compliance Matrix: (Units=1/GPa)
#
#
# Indices 1 2 3 4 5 6 
#
# 1 0.033117 -0.005938 -0.018441 0.000000 0.000000 0.000000
# 2 -0.005938 0.011266 -0.004357 0.000000 0.000000 0.000000
# 3 -0.018441 -0.004357 0.041307 0.000000 0.000000 0.000000
# 4 0.000000 0.000000 0.000000 -0.097524 0.000000 0.000000
# 5 0.000000 0.000000 0.000000 0.000000 0.050898 0.000000
# 6 0.000000 0.000000 0.000000 0.000000 0.000000 -0.019375
#
#
# Mechanical properties :
#
#
# Convention : Reuss Voigt Hill
#
# Bulk Modulus (GPa) = 35.43729 44.72728 40.08228
# Shear Modulus (GPa) = 57.75906 -0.64562 28.55672
#
# Velocity S-wave (km/s) = 5.45347 -0.57657 3.83457
# Velocity P-wave (km/s) = 7.60924 4.75258 6.34380
#
# Compressibility (1/GPa) = 0.02821886
#
# Stress axis : x y z
#
# Youngs Moduli (GPa) = 30.19579 88.76502 24.20876
#
# Poissons Ratio (x) = 0.52705 0.44644
# Poissons Ratio (y) = 0.17929 0.10548
# Poissons Ratio (z) = 0.55685 0.38674
#
# Static dielectric constant tensor:
#      x y z
#    x 1.709290 0.000000 0.000000 
#    y 0.000000 1.698880 0.000000 
#    z 0.000000 0.000000 1.708660 
# 
# From -- ./inp_files/22770.got.cif
#   From: 2010.05.17/outbox.cif.g08.bks.cpg/sg67_12_cif.got.tgz:22770.got - 2010.06.03 18:28:57.
