data_PCOD9500490
_publ_section_title
;
Structure prediction by ZEFSAII (Michael W. Deem and Ramdas Pophale) SiO2 
 PCOD9500490
Probable space group: C M M A
;
_chemical_formula_sum "Si O2"
_cell_formula_units_Z 104
_cell_length_a 27.957930
_cell_length_b 8.492534
_cell_length_c 24.690857
_cell_angle_alpha 90.000000
_cell_angle_beta 90.000000
_cell_angle_gamma 90.000000
_cell_volume 5862.440820
_symmetry_space_group_name_H-M "C M M A"
_symmetry_group_IT_number 67
_symmetry_cell_setting 'orthorhombic'
loop_
_space_group_symop_operation_xyz
x,y,z
-x,1/2-y,z
x,-y,-z
-x,1/2+y,-z
-x,-y,-z
x,1/2+y,-z
-x,y,z
x,1/2-y,z
1/2+x,1/2+y,z
1/2-x,-y,z
1/2+x,1/2-y,-z
1/2-x,y,-z
1/2-x,1/2-y,-z
1/2+x,y,-z
1/2-x,1/2+y,z
1/2+x,-y,z
loop_
_atom_site_type_symbol
_atom_site_label
_atom_site_fract_x
_atom_site_fract_y
_atom_site_fract_z
Si Si1 0.944680 0.560125 0.940887
Si Si2 0.397537 0.061368 0.439056
Si Si3 0.301498 0.062358 0.769127
Si Si4 0.852166 0.940035 0.332799
Si Si5 0.500000 0.938100 0.438123
Si Si6 0.103160 0.559393 0.831217
Si Si7 0.052167 0.560178 0.271094
O O1 0.944393 0.750000 0.941688
O O2 0.910935 0.508064 0.891546
O O3 0.000000 0.509786 0.931403
O O4 0.930133 0.500000 0.000000
O O5 0.399748 0.250000 0.440931
O O6 0.356967 0.013873 0.395699
O O7 0.390226 0.000000 0.500000
O O8 0.449372 0.002927 0.417461
O O9 0.301244 0.250000 0.770495
O O10 0.345437 0.006523 0.807367
O O11 0.250000 0.000000 0.786288
O O12 0.312889 0.008350 0.707618
O O13 0.849000 0.750000 0.330417
O O14 0.902710 0.991790 0.306365
O O15 0.500000 0.750000 0.436698
O O16 0.500000 0.000000 0.500000
O O17 0.102525 0.750000 0.829759
O O18 0.063622 0.496706 0.789386
O O19 0.051911 0.750000 0.272569
O O20 0.000000 0.503109 0.289085
#
# Coordination Sequence:
#
# PCOD9500490 Si02
#       7
#    16  16  16  16   8  16  16
#     4   9  17  29  46  70 102 138 171 201 234 274
#     4  10  19  31  48  67  94 130 165 202 242 289
#     4  10  20  35  56  77  98 122 156 202 252 304
#     4   9  19  33  50  71  96 127 161 197 243 295
#     4  10  18  28  42  62  90 126 168 204 233 274
#     4   9  18  32  49  70  97 129 163 201 244 289
#     4   9  17  28  44  67  95 127 161 197 236 283
#
# _framework density 17.740051000000001
#
# number of rings (size 3 to 8) (size 9 to 14) (size 15 to 20)
#    0.000    2.615    0.000    3.000    1.077    3.385 
#    0.000    1.538    0.000    0.923    0.000    6.462 
#    0.000    0.000    0.000    0.000    0.000    0.000 
#
# Total GULP energy -289802.994085 kJ/mol
# GULP energy per Si atom -5573.134502 kJ/mol
# Density = 1.769967 g / cm^3
# Si number density = 17.740051 Si / 1000 Ang^3
#
#
#
# Elastic Constant Matrix: (Units=GPa)
#
#
# Indices 1 2 3 4 5 6 
#
# 1 65.8912 8.8612 25.3017 0.0000 0.0000 0.0000
# 2 8.8612 23.6295 14.0186 0.0000 0.0000 0.0000
# 3 25.3017 14.0186 103.5753 0.0000 0.0000 0.0000
# 4 0.0000 0.0000 0.0000 20.4320 0.0000 0.0000
# 5 0.0000 0.0000 0.0000 0.0000 18.8928 0.0000
# 6 0.0000 0.0000 0.0000 0.0000 0.0000 19.4556
#
#
#
# Elastic Compliance Matrix: (Units=1/GPa)
#
#
# Indices 1 2 3 4 5 6 
#
# 1 0.017138 -0.004287 -0.003606 0.000000 0.000000 0.000000
# 2 -0.004287 0.047087 -0.005326 0.000000 0.000000 0.000000
# 3 -0.003606 -0.005326 0.011257 0.000000 0.000000 0.000000
# 4 0.000000 0.000000 0.000000 0.048943 0.000000 0.000000
# 5 0.000000 0.000000 0.000000 0.000000 0.052930 0.000000
# 6 0.000000 0.000000 0.000000 0.000000 0.000000 0.051399
#
#
# Mechanical properties :
#
#
# Convention : Reuss Voigt Hill
#
# Bulk Modulus (GPa) = 20.39026 32.16213 26.27619
# Shear Modulus (GPa) = 18.41347 21.41705 19.91526
#
# Velocity S-wave (km/s) = 3.22523 3.47835 3.35418
# Velocity P-wave (km/s) = 5.03869 5.85670 5.46303
#
# Compressibility (1/GPa) = 0.04904303
#
# Stress axis : x y z
#
# Youngs Moduli (GPa) = 58.35032 21.23714 88.83702
#
# Poissons Ratio (x) = 0.09105 0.32036
# Poissons Ratio (y) = 0.25017 0.47313
# Poissons Ratio (z) = 0.21042 0.11310
#
# Static dielectric constant tensor:
#      x y z
#    x 1.619560 0.000000 0.000000 
#    y 0.000000 1.573380 0.000000 
#    z 0.000000 0.000000 1.623030 
# 
# From -- ./inp_files/42750.got.cif
#   From: 2010.05.17/outbox.cif.g08.bks.cpg/sg67_22_cif.got.tgz:42750.got - 2010.06.03 18:28:57.
