data_PCOD9500927
_publ_section_title
;
Structure prediction by ZEFSAII (Michael W. Deem and Ramdas Pophale) SiO2 
 PCOD9500927
Probable space group: C M M A
;
_chemical_formula_sum "Si O2"
_cell_formula_units_Z 116
_cell_length_a 17.797370
_cell_length_b 26.303121
_cell_length_c 11.901655
_cell_angle_alpha 90.000000
_cell_angle_beta 90.000000
_cell_angle_gamma 90.000000
_cell_volume 5571.478631
_symmetry_space_group_name_H-M "C M M A"
_symmetry_group_IT_number 67
_symmetry_cell_setting 'orthorhombic'
loop_
_space_group_symop_operation_xyz
x,y,z
-x,1/2-y,z
x,-y,-z
-x,1/2+y,-z
-x,-y,-z
x,1/2+y,-z
-x,y,z
x,1/2-y,z
1/2+x,1/2+y,z
1/2-x,-y,z
1/2+x,1/2-y,-z
1/2-x,y,-z
1/2-x,1/2-y,-z
1/2+x,y,-z
1/2-x,1/2+y,z
1/2+x,-y,z
loop_
_atom_site_type_symbol
_atom_site_label
_atom_site_fract_x
_atom_site_fract_y
_atom_site_fract_z
Si Si1 0.375073 0.340436 0.173502
Si Si2 0.338117 0.900398 0.033052
Si Si3 0.334932 0.479008 0.780065
Si Si4 0.294377 0.694867 0.167474
Si Si5 0.164477 0.582724 0.547088
Si Si6 0.327878 0.804250 0.431392
Si Si7 0.588072 0.072552 0.326299
Si Si8 0.500000 0.750000 0.822022
O O1 0.293404 0.316589 0.151417
O O2 0.373461 0.374765 0.285971
O O3 0.434801 0.295489 0.177696
O O4 0.385062 0.382635 0.074945
O O5 0.359214 0.948051 0.109709
O O6 0.338961 0.850693 0.111887
O O7 0.250000 0.908419 0.000000
O O8 0.250000 0.500000 0.793566
O O9 0.336292 0.442558 0.669702
O O10 0.386148 0.527088 0.753725
O O11 0.314262 0.750000 0.119108
O O12 0.308898 0.696094 0.299836
O O13 0.250000 0.581230 0.500000
O O14 0.135774 0.641097 0.549749
O O15 0.115014 0.557380 0.450534
O O16 0.366699 0.750000 0.459447
O O17 0.250000 0.804441 0.500000
O O18 0.500000 0.080696 0.321635
#
# Coordination Sequence:
#
# PCOD9500927 Si02
#       8
#    16  16  16  16  16  16  16   4
#     4  11  23  43  62  93 126 169 215 264 327 393
#     4  10  23  38  64  98 129 163 215 279 325 381
#     4  12  23  42  67  96 129 178 221 270 330 384
#     4  10  18  33  61  95 127 156 199 264 321 377
#     4  11  21  39  66  95 129 170 220 268 320 393
#     4   9  17  30  54  92 128 160 198 254 322 380
#     4  12  27  44  64  95 131 168 224 273 326 393
#     4  12  24  44  70  86 130 180 224 258 328 412
#
# _framework density 20.820325
#
# number of rings (size 3 to 8) (size 9 to 14) (size 15 to 20)
#    0.000    1.241    4.138    3.724    0.966    3.862 
#    2.483    0.690    0.000    0.000    0.000    0.000 
#    0.000    0.000    0.000    0.000    0.000    0.000 
#
# Total GULP energy -323339.739597 kJ/mol
# GULP energy per Si atom -5574.823096 kJ/mol
# Density = 2.077294 g / cm^3
# Si number density = 20.820325 Si / 1000 Ang^3
#
#
#
# Elastic Constant Matrix: (Units=GPa)
#
#
# Indices 1 2 3 4 5 6 
#
# 1 4.3526 2.6385 -14.0636 0.0000 0.0000 0.0000
# 2 2.6385 135.9158 34.5675 0.0000 0.0000 0.0000
# 3 -14.0636 34.5675 84.9370 0.0000 0.0000 0.0000
# 4 0.0000 0.0000 0.0000 31.5334 0.0000 0.0000
# 5 0.0000 0.0000 0.0000 0.0000 -6.2888 0.0000
# 6 0.0000 0.0000 0.0000 0.0000 0.0000 26.4633
#
#
#
# Elastic Compliance Matrix: (Units=1/GPa)
#
#
# Indices 1 2 3 4 5 6 
#
# 1 0.689607 -0.047326 0.133444 0.000000 0.000000 0.000000
# 2 -0.047326 0.011455 -0.012498 0.000000 0.000000 0.000000
# 3 0.133444 -0.012498 0.038955 0.000000 0.000000 0.000000
# 4 0.000000 0.000000 0.000000 0.031712 0.000000 0.000000
# 5 0.000000 0.000000 0.000000 0.000000 -0.159013 0.000000
# 6 0.000000 0.000000 0.000000 0.000000 0.000000 0.037788
#
#
# Mechanical properties :
#
#
# Convention : Reuss Voigt Hill
#
# Bulk Modulus (GPa) = 1.12707 30.16558 15.64632
# Shear Modulus (GPa) = 6.25769 23.81246 15.03508
#
# Velocity S-wave (km/s) = 1.73554 3.38555 2.69017
# Velocity P-wave (km/s) = 2.13510 5.45917 4.14495
#
# Compressibility (1/GPa) = 0.88725641
#
# Stress axis : x y z
#
# Youngs Moduli (GPa) = 1.45010 87.29938 25.67061
#
# Poissons Ratio (x) = 4.13153 -3.42558
# Poissons Ratio (y) = 0.06863 0.32083
# Poissons Ratio (z) = -0.19351 1.09106
#
# Static dielectric constant tensor:
#      x y z
#    x 1.705100 0.000000 0.000000 
#    y 0.000000 1.801890 0.000000 
#    z 0.000000 0.000000 1.777180 
# 
# From -- ./inp_files/19973.got.cif
#   From: 2010.05.17/outbox.cif.g08.bks.cpg/sg67_10_cif.got.tgz:19973.got - 2010.06.03 18:28:57.
