data_PCOD9500297
_publ_section_title
;
Structure prediction by ZEFSAII (Michael W. Deem and Ramdas Pophale) SiO2 
 PCOD9500297
Probable space group: C M M A
;
_chemical_formula_sum "Si O2"
_cell_formula_units_Z 80
_cell_length_a 29.202159
_cell_length_b 8.060488
_cell_length_c 20.040071
_cell_angle_alpha 90.000000
_cell_angle_beta 90.000000
_cell_angle_gamma 90.000000
_cell_volume 4717.105102
_symmetry_space_group_name_H-M "C M M A"
_symmetry_group_IT_number 67
_symmetry_cell_setting 'orthorhombic'
loop_
_space_group_symop_operation_xyz
x,y,z
-x,1/2-y,z
x,-y,-z
-x,1/2+y,-z
-x,-y,-z
x,1/2+y,-z
-x,y,z
x,1/2-y,z
1/2+x,1/2+y,z
1/2-x,-y,z
1/2+x,1/2-y,-z
1/2-x,y,-z
1/2-x,1/2-y,-z
1/2+x,y,-z
1/2-x,1/2+y,z
1/2+x,-y,z
loop_
_atom_site_type_symbol
_atom_site_label
_atom_site_fract_x
_atom_site_fract_y
_atom_site_fract_z
Si Si1 0.696519 0.054948 0.283111
Si Si2 0.799304 0.552379 0.923222
Si Si3 0.052947 0.549354 0.074070
Si Si4 0.303215 0.446661 0.571142
Si Si5 0.626810 0.059624 0.174275
O O1 0.697850 0.250000 0.269685
O O2 0.657571 0.981698 0.233760
O O3 0.750000 0.000000 0.275874
O O4 0.680707 0.023492 0.359229
O O5 0.805996 0.750000 0.916453
O O6 0.750000 0.500000 0.894879
O O7 0.837452 0.448387 0.886190
O O8 0.799574 0.500000 0.000000
O O9 0.054362 0.750000 0.076377
O O10 0.081943 0.486066 0.137771
O O11 0.000000 0.494957 0.077837
O O12 0.070602 0.500000 0.000000
O O13 0.324102 0.500000 0.500000
O O14 0.305540 0.250000 0.576572
O O15 0.250000 0.500000 0.568388
O O16 0.615762 0.250000 0.193320
#
# Coordination Sequence:
#
# PCOD9500297 Si02
#       5
#    16  16  16  16  16
#     4  10  19  30  43  62  90 121 152 183 217 257
#     4  11  21  32  45  60  82 112 147 183 217 258
#     4   9  18  33  51  69  88 112 145 186 231 276
#     4  10  17  27  43  62  86 117 153 186 216 250
#     4  10  20  32  46  65  89 116 146 182 224 269
#
# _framework density 16.959554000000001
#
# number of rings (size 3 to 8) (size 9 to 14) (size 15 to 20)
#    0.000    2.000    0.000    7.800    0.000    5.600 
#    0.000    0.000    0.000    0.000    0.000    0.000 
#    0.000    0.800    0.000    1.400    0.000    2.400 
#
# Total GULP energy -222724.612028 kJ/mol
# GULP energy per Si atom -5568.115301 kJ/mol
# Density = 1.692095 g / cm^3
# Si number density = 16.959554 Si / 1000 Ang^3
#
#
#
# Elastic Constant Matrix: (Units=GPa)
#
#
# Indices 1 2 3 4 5 6 
#
# 1 60.6575 -3.2114 43.8111 0.0000 0.0000 0.0000
# 2 -3.2114 40.2631 -7.2886 0.0000 0.0000 0.0000
# 3 43.8111 -7.2886 114.8369 0.0000 0.0000 0.0000
# 4 0.0000 0.0000 0.0000 24.2822 0.0000 0.0000
# 5 0.0000 0.0000 0.0000 0.0000 74.1346 0.0000
# 6 0.0000 0.0000 0.0000 0.0000 0.0000 9.7369
#
#
#
# Elastic Compliance Matrix: (Units=1/GPa)
#
#
# Indices 1 2 3 4 5 6 
#
# 1 0.022759 0.000246 -0.008667 0.000000 0.000000 0.000000
# 2 0.000246 0.025128 0.001501 0.000000 0.000000 0.000000
# 3 -0.008667 0.001501 0.012110 0.000000 0.000000 0.000000
# 4 0.000000 0.000000 0.000000 0.041183 0.000000 0.000000
# 5 0.000000 0.000000 0.000000 0.000000 0.013489 0.000000
# 6 0.000000 0.000000 0.000000 0.000000 0.000000 0.102702
#
#
# Mechanical properties :
#
#
# Convention : Reuss Voigt Hill
#
# Bulk Modulus (GPa) = 21.66520 31.37555 26.52037
# Shear Modulus (GPa) = 20.27612 33.79384 27.03498
#
# Velocity S-wave (km/s) = 3.46143 4.46871 3.99693
# Velocity P-wave (km/s) = 5.36449 6.72058 6.08046
#
# Compressibility (1/GPa) = 0.04615697
#
# Stress axis : x y z
#
# Youngs Moduli (GPa) = 43.93862 39.79632 82.57758
#
# Poissons Ratio (x) = -0.00980 0.71571
# Poissons Ratio (y) = -0.01082 -0.12394
# Poissons Ratio (z) = 0.38082 -0.05973
#
# Static dielectric constant tensor:
#      x y z
#    x 1.597360 0.000000 0.000000 
#    y 0.000000 1.608960 0.000000 
#    z 0.000000 0.000000 1.640470 
# 
# From -- ./inp_files/37385.got.cif
#   From: 2010.05.17/outbox.cif.g08.bks.cpg/sg67_19_cif.got.tgz:37385.got - 2010.06.03 18:28:57.
