data_PCOD9500314
_publ_section_title
;
Structure prediction by ZEFSAII (Michael W. Deem and Ramdas Pophale) SiO2 
 PCOD9500314
Probable space group: C M M A
;
_chemical_formula_sum "Si O2"
_cell_formula_units_Z 104
_cell_length_a 27.477977
_cell_length_b 8.756363
_cell_length_c 25.223565
_cell_angle_alpha 90.000000
_cell_angle_beta 90.000000
_cell_angle_gamma 90.000000
_cell_volume 6068.969863
_symmetry_space_group_name_H-M "C M M A"
_symmetry_group_IT_number 67
_symmetry_cell_setting 'orthorhombic'
loop_
_space_group_symop_operation_xyz
x,y,z
-x,1/2-y,z
x,-y,-z
-x,1/2+y,-z
-x,-y,-z
x,1/2+y,-z
-x,y,z
x,1/2-y,z
1/2+x,1/2+y,z
1/2-x,-y,z
1/2+x,1/2-y,-z
1/2-x,y,-z
1/2-x,1/2-y,-z
1/2+x,y,-z
1/2-x,1/2+y,z
1/2+x,-y,z
loop_
_atom_site_type_symbol
_atom_site_label
_atom_site_fract_x
_atom_site_fract_y
_atom_site_fract_z
Si Si1 0.598475 0.566155 0.379484
Si Si2 0.500000 0.065215 0.558838
Si Si3 0.057075 0.068680 0.724941
Si Si4 0.442563 0.421305 0.833305
Si Si5 0.798181 0.432466 0.940248
Si Si6 0.899120 0.932861 0.941591
Si Si7 0.697583 0.934800 0.440509
O O1 0.598048 0.750000 0.378853
O O2 0.550036 0.516148 0.412014
O O3 0.589807 0.506013 0.320336
O O4 0.649866 0.520382 0.406205
O O5 0.500000 0.250000 0.557569
O O6 0.500000 0.000000 0.500000
O O7 0.058163 0.250000 0.719781
O O8 0.000000 0.019805 0.717560
O O9 0.074203 0.022101 0.783943
O O10 0.500000 0.410910 0.826176
O O11 0.421354 0.250000 0.829021
O O12 0.434997 0.472625 0.893811
O O13 0.797114 0.250000 0.941832
O O14 0.750000 0.500000 0.913673
O O15 0.848547 0.498154 0.919904
O O16 0.798222 0.500000 0.000000
O O17 0.895683 0.750000 0.947799
O O18 0.909862 0.000000 0.000000
O O19 0.700228 0.750000 0.442377
O O20 0.690928 0.000000 0.500000
O O21 0.750000 0.000000 0.421428
#
# Coordination Sequence:
#
# PCOD9500314 Si02
#       7
#    16   8  16  16  16  16  16
#     4  10  20  34  53  75 103 140 176 211 259 313
#     4  10  20  32  48  74 108 140 167 204 253 306
#     4  10  20  33  52  78 102 128 167 213 258 304
#     4   9  19  35  53  71  97 135 172 206 248 302
#     4  10  17  27  44  66  93 123 155 192 236 288
#     4  10  19  31  48  72 100 130 165 204 251 304
#     4  10  20  34  53  77 105 142 183 221 261 306
#
# _framework density 17.136351000000001
#
# number of rings (size 3 to 8) (size 9 to 14) (size 15 to 20)
#    0.000    2.154    0.769    5.077    0.000    4.000 
#    0.000    0.000    0.000    0.923    0.000    4.308 
#    0.000    0.000    0.000    0.000    0.000    0.000 
#
# Total GULP energy -289576.243207 kJ/mol
# GULP energy per Si atom -5568.773908 kJ/mol
# Density = 1.709735 g / cm^3
# Si number density = 17.136351 Si / 1000 Ang^3
#
#
#
# Elastic Constant Matrix: (Units=GPa)
#
#
# Indices 1 2 3 4 5 6 
#
# 1 93.8284 35.9496 54.7210 0.0000 0.0000 0.0000
# 2 35.9496 54.0181 37.4436 0.0000 0.0000 0.0000
# 3 54.7210 37.4436 107.8384 0.0000 0.0000 0.0000
# 4 0.0000 0.0000 0.0000 31.6445 0.0000 0.0000
# 5 0.0000 0.0000 0.0000 0.0000 21.3332 0.0000
# 6 0.0000 0.0000 0.0000 0.0000 0.0000 23.3599
#
#
#
# Elastic Compliance Matrix: (Units=1/GPa)
#
#
# Indices 1 2 3 4 5 6 
#
# 1 0.016933 -0.006997 -0.006163 0.000000 0.000000 0.000000
# 2 -0.006997 0.027272 -0.005919 0.000000 0.000000 0.000000
# 3 -0.006163 -0.005919 0.014455 0.000000 0.000000 0.000000
# 4 0.000000 0.000000 0.000000 0.031601 0.000000 0.000000
# 5 0.000000 0.000000 0.000000 0.000000 0.046875 0.000000
# 6 0.000000 0.000000 0.000000 0.000000 0.000000 0.042808
#
#
# Mechanical properties :
#
#
# Convention : Reuss Voigt Hill
#
# Bulk Modulus (GPa) = 48.77398 56.87928 52.82663
# Shear Modulus (GPa) = 22.22854 23.77221 23.00037
#
# Velocity S-wave (km/s) = 3.60551 3.72861 3.66758
# Velocity P-wave (km/s) = 6.77178 7.19728 6.98777
#
# Compressibility (1/GPa) = 0.02050274
#
# Stress axis : x y z
#
# Youngs Moduli (GPa) = 59.05703 36.66815 69.17823
#
# Poissons Ratio (x) = 0.25657 0.42633
# Poissons Ratio (y) = 0.41323 0.40944
# Poissons Ratio (z) = 0.36395 0.21703
#
# Static dielectric constant tensor:
#      x y z
#    x 1.656920 0.000000 0.000000 
#    y 0.000000 1.594470 0.000000 
#    z 0.000000 0.000000 1.543200 
# 
# From -- ./inp_files/44955.got.cif
#   From: 2010.05.17/outbox.cif.g08.bks.cpg/sg67_23_cif.got.tgz:44955.got - 2010.06.03 18:28:57.
