data_PCOD9500974
_publ_section_title
;
Structure prediction by ZEFSAII (Michael W. Deem and Ramdas Pophale) SiO2 
 PCOD9500974
Probable space group: C M M A
;
_chemical_formula_sum "Si O2"
_cell_formula_units_Z 96
_cell_length_a 28.402780
_cell_length_b 15.160669
_cell_length_c 11.782798
_cell_angle_alpha 90.000000
_cell_angle_beta 90.000000
_cell_angle_gamma 90.000000
_cell_volume 5073.733456
_symmetry_space_group_name_H-M "C M M A"
_symmetry_group_IT_number 67
_symmetry_cell_setting 'orthorhombic'
loop_
_space_group_symop_operation_xyz
x,y,z
-x,1/2-y,z
x,-y,-z
-x,1/2+y,-z
-x,-y,-z
x,1/2+y,-z
-x,y,z
x,1/2-y,z
1/2+x,1/2+y,z
1/2-x,-y,z
1/2+x,1/2-y,-z
1/2-x,y,-z
1/2-x,1/2-y,-z
1/2+x,y,-z
1/2-x,1/2+y,z
1/2+x,-y,z
loop_
_atom_site_type_symbol
_atom_site_label
_atom_site_fract_x
_atom_site_fract_y
_atom_site_fract_z
Si Si1 0.500000 0.516472 0.362637
Si Si2 0.140331 0.647297 0.206064
Si Si3 0.843218 0.851451 0.771679
Si Si4 0.393602 0.993665 0.634738
Si Si5 0.745434 0.105997 0.130426
Si Si6 0.500000 0.856580 0.158868
Si Si7 0.092174 0.356159 0.019895
O O1 0.500000 0.500000 0.500000
O O2 0.551611 0.481667 0.329788
O O3 0.500000 0.607534 0.288209
O O4 0.129978 0.750000 0.222633
O O5 0.132623 0.590951 0.317535
O O6 0.194140 0.635325 0.169423
O O7 0.106747 0.610902 0.104298
O O8 0.855548 0.750000 0.743623
O O9 0.787343 0.860231 0.788744
O O10 0.864549 0.872524 0.895742
O O11 0.868560 0.920349 0.688656
O O12 0.391642 0.000000 0.500000
O O13 0.750000 0.000000 0.131467
O O14 0.750000 0.136469 0.000000
O O15 0.500000 0.750000 0.163656
O O16 0.545535 0.886495 0.085971
O O17 0.087363 0.250000 0.008686
#
# Coordination Sequence:
#
# PCOD9500974 Si02
#       7
#     8  16  16  16  16   8  16
#     4  10  22  41  61  87 123 162 209 262 298 353
#     4  11  23  41  63  90 129 168 202 250 315 372
#     4  11  21  37  62  92 124 159 201 255 309 363
#     4  11  25  44  63  88 123 163 216 262 300 362
#     4  11  21  35  62  96 128 163 203 247 306 379
#     4  10  18  35  61  93 126 162 207 257 315 374
#     4   9  19  33  57  91 124 155 196 250 308 372
#
# _framework density 18.920978000000002
#
# number of rings (size 3 to 8) (size 9 to 14) (size 15 to 20)
#    0.000    1.500    5.000    0.500    0.000    2.667 
#    0.000    6.250    0.000    2.000    0.000    0.000 
#    0.000    0.000    0.000    0.000    0.000    0.000 
#
# Total GULP energy -267607.024683 kJ/mol
# GULP energy per Si atom -5575.146348 kJ/mol
# Density = 1.887791 g / cm^3
# Si number density = 18.920978 Si / 1000 Ang^3
#
#
#
# Elastic Constant Matrix: (Units=GPa)
#
#
# Indices 1 2 3 4 5 6 
#
# 1 110.2403 16.3094 42.4118 0.0000 0.0000 0.0000
# 2 16.3094 80.9079 41.4384 0.0000 0.0000 0.0000
# 3 42.4118 41.4384 90.4379 0.0000 0.0000 0.0000
# 4 0.0000 0.0000 0.0000 14.4464 0.0000 0.0000
# 5 0.0000 0.0000 0.0000 0.0000 33.1045 0.0000
# 6 0.0000 0.0000 0.0000 0.0000 0.0000 16.1691
#
#
#
# Elastic Compliance Matrix: (Units=1/GPa)
#
#
# Indices 1 2 3 4 5 6 
#
# 1 0.011087 0.000559 -0.005456 0.000000 0.000000 0.000000
# 2 0.000559 0.016178 -0.007675 0.000000 0.000000 0.000000
# 3 -0.005456 -0.007675 0.017132 0.000000 0.000000 0.000000
# 4 0.000000 0.000000 0.000000 0.069222 0.000000 0.000000
# 5 0.000000 0.000000 0.000000 0.000000 0.030207 0.000000
# 6 0.000000 0.000000 0.000000 0.000000 0.000000 0.061847
#
#
# Mechanical properties :
#
#
# Convention : Reuss Voigt Hill
#
# Bulk Modulus (GPa) = 51.93508 53.54503 52.74006
# Shear Modulus (GPa) = 21.07622 24.83908 22.95765
#
# Velocity S-wave (km/s) = 3.34115 3.62716 3.48709
# Velocity P-wave (km/s) = 6.51094 6.77514 6.64435
#
# Compressibility (1/GPa) = 0.01925481
#
# Stress axis : x y z
#
# Youngs Moduli (GPa) = 90.19332 61.81291 58.36864
#
# Poissons Ratio (x) = -0.03457 0.31845
# Poissons Ratio (y) = -0.05044 0.44798
# Poissons Ratio (z) = 0.49207 0.47441
#
# Static dielectric constant tensor:
#      x y z
#    x 1.698270 0.000000 0.000000 
#    y 0.000000 1.674920 0.000000 
#    z 0.000000 0.000000 1.631120 
# 
# From -- ./inp_files/23755.got.cif
#   From: 2010.05.17/outbox.cif.g08.bks.cpg/sg67_12_cif.got.tgz:23755.got - 2010.06.03 18:28:57.
