data_PCOD9500931
_publ_section_title
;
Structure prediction by ZEFSAII (Michael W. Deem and Ramdas Pophale) SiO2 
 PCOD9500931
Probable space group: C M M A
;
_chemical_formula_sum "Si O2"
_cell_formula_units_Z 96
_cell_length_a 26.895649
_cell_length_b 17.988357
_cell_length_c 11.819692
_cell_angle_alpha 90.000000
_cell_angle_beta 90.000000
_cell_angle_gamma 90.000000
_cell_volume 5718.467882
_symmetry_space_group_name_H-M "C M M A"
_symmetry_group_IT_number 67
_symmetry_cell_setting 'orthorhombic'
loop_
_space_group_symop_operation_xyz
x,y,z
-x,1/2-y,z
x,-y,-z
-x,1/2+y,-z
-x,-y,-z
x,1/2+y,-z
-x,y,z
x,1/2-y,z
1/2+x,1/2+y,z
1/2-x,-y,z
1/2+x,1/2-y,-z
1/2-x,y,-z
1/2-x,1/2-y,-z
1/2+x,y,-z
1/2-x,1/2+y,z
1/2+x,-y,z
loop_
_atom_site_type_symbol
_atom_site_label
_atom_site_fract_x
_atom_site_fract_y
_atom_site_fract_z
Si Si1 0.796335 0.103100 0.343585
Si Si2 0.359068 0.161783 0.853837
Si Si3 0.372280 0.837243 0.521115
Si Si4 0.804376 0.415135 0.958652
Si Si5 0.184863 0.570426 0.310260
Si Si6 0.056655 0.159517 0.320447
O O1 0.812615 0.138443 0.224724
O O2 0.825461 0.148804 0.437926
O O3 0.737440 0.101062 0.356976
O O4 0.814762 0.017264 0.339543
O O5 0.362020 0.250000 0.862055
O O6 0.407221 0.135080 0.782177
O O7 0.347813 0.127570 0.975409
O O8 0.376538 0.750000 0.548757
O O9 0.360263 0.887312 0.629507
O O10 0.418409 0.860436 0.440903
O O11 0.811681 0.416822 0.824167
O O12 0.805989 0.500000 0.000000
O O13 0.750000 0.386201 0.000000
O O14 0.057029 0.250000 0.317964
O O15 0.000000 0.134236 0.309566
#
# Coordination Sequence:
#
# PCOD9500931 Si02
#       6
#    16  16  16  16  16  16
#     4  10  18  34  48  70  99 145 178 197 233 304
#     4  10  19  31  52  79  98 126 178 219 248 282
#     4  10  21  32  48  78 104 125 166 216 262 300
#     4  11  19  35  50  72 106 146 180 200 235 301
#     4  11  20  31  51  70 105 145 173 196 244 311
#     4   8  16  34  57  75  96 128 169 217 259 305
#
# _framework density 16.787713
#
# number of rings (size 3 to 8) (size 9 to 14) (size 15 to 20)
#    0.000    2.000    3.333    3.500    0.000    4.333 
#    0.000    0.000    0.000    9.500    0.000    4.667 
#    0.000    0.000    0.000    0.000    0.000    0.000 
#
# Total GULP energy -267534.274432 kJ/mol
# GULP energy per Si atom -5573.630717 kJ/mol
# Density = 1.674950 g / cm^3
# Si number density = 16.787713 Si / 1000 Ang^3
#
#
#
# Elastic Constant Matrix: (Units=GPa)
#
#
# Indices 1 2 3 4 5 6 
#
# 1 87.3661 27.0406 24.8881 0.0000 0.0000 0.0000
# 2 27.0406 32.6852 14.9253 0.0000 0.0000 0.0000
# 3 24.8881 14.9253 58.3241 0.0000 0.0000 0.0000
# 4 0.0000 0.0000 0.0000 24.6953 0.0000 0.0000
# 5 0.0000 0.0000 0.0000 0.0000 11.3892 0.0000
# 6 0.0000 0.0000 0.0000 0.0000 0.0000 10.4138
#
#
#
# Elastic Compliance Matrix: (Units=1/GPa)
#
#
# Indices 1 2 3 4 5 6 
#
# 1 0.016144 -0.011561 -0.003930 0.000000 0.000000 0.000000
# 2 -0.011561 0.042922 -0.006051 0.000000 0.000000 0.000000
# 3 -0.003930 -0.006051 0.020371 0.000000 0.000000 0.000000
# 4 0.000000 0.000000 0.000000 0.040494 0.000000 0.000000
# 5 0.000000 0.000000 0.000000 0.000000 0.087802 0.000000
# 6 0.000000 0.000000 0.000000 0.000000 0.000000 0.096026
#
#
# Mechanical properties :
#
#
# Convention : Reuss Voigt Hill
#
# Bulk Modulus (GPa) = 27.50795 34.67593 31.09194
# Shear Modulus (GPa) = 13.92903 16.73442 15.33173
#
# Velocity S-wave (km/s) = 2.88360 3.16068 3.02532
# Velocity P-wave (km/s) = 5.24483 5.83269 5.54655
#
# Compressibility (1/GPa) = 0.03635312
#
# Stress axis : x y z
#
# Youngs Moduli (GPa) = 61.94225 23.29781 49.08904
#
# Poissons Ratio (x) = 0.26935 0.19294
# Poissons Ratio (y) = 0.71613 0.29702
# Poissons Ratio (z) = 0.24346 0.14097
#
# Static dielectric constant tensor:
#      x y z
#    x 1.566030 0.000000 0.000000 
#    y 0.000000 1.569180 0.000000 
#    z 0.000000 0.000000 1.610670 
# 
# From -- ./inp_files/19826.got.cif
#   From: 2010.05.17/outbox.cif.g08.bks.cpg/sg67_10_cif.got.tgz:19826.got - 2010.06.03 18:28:57.
