data_PCOD9500518
_publ_section_title
;
Structure prediction by ZEFSAII (Michael W. Deem and Ramdas Pophale) SiO2 
 PCOD9500518
Probable space group: C M M A
;
_chemical_formula_sum "Si O2"
_cell_formula_units_Z 80
_cell_length_a 19.798244
_cell_length_b 14.311157
_cell_length_c 12.970804
_cell_angle_alpha 90.000000
_cell_angle_beta 90.000000
_cell_angle_gamma 90.000000
_cell_volume 3675.092845
_symmetry_space_group_name_H-M "C M M A"
_symmetry_group_IT_number 67
_symmetry_cell_setting 'orthorhombic'
loop_
_space_group_symop_operation_xyz
x,y,z
-x,1/2-y,z
x,-y,-z
-x,1/2+y,-z
-x,-y,-z
x,1/2+y,-z
-x,y,z
x,1/2-y,z
1/2+x,1/2+y,z
1/2-x,-y,z
1/2+x,1/2-y,-z
1/2-x,y,-z
1/2-x,1/2-y,-z
1/2+x,y,-z
1/2-x,1/2+y,z
1/2+x,-y,z
loop_
_atom_site_type_symbol
_atom_site_label
_atom_site_fract_x
_atom_site_fract_y
_atom_site_fract_z
Si Si1 0.427733 0.638656 0.857696
Si Si2 0.777263 0.104311 0.894673
Si Si3 0.258977 0.148235 0.338350
Si Si4 0.603560 0.439886 0.361863
Si Si5 0.106160 0.142670 0.416464
O O1 0.500000 0.604961 0.899095
O O2 0.425020 0.750000 0.869110
O O3 0.358169 0.600759 0.902263
O O4 0.423358 0.613392 0.737051
O O5 0.753765 0.148279 0.786304
O O6 0.750000 0.000000 0.889216
O O7 0.750000 0.147595 0.000000
O O8 0.288843 0.250000 0.368224
O O9 0.314519 0.069723 0.360649
O O10 0.187322 0.141547 0.394888
O O11 0.583049 0.548798 0.356282
O O12 0.586152 0.387178 0.467621
O O13 0.084619 0.250000 0.393524
#
# Coordination Sequence:
#
# PCOD9500518 Si02
#       5
#    16  16  16  16  16
#     4  10  21  38  61  88 117 152 196 243 291 347
#     4  10  20  35  56  84 115 150 194 243 297 351
#     4  10  18  28  47  75 108 145 186 237 294 345
#     4  10  18  31  50  72 107 149 189 236 283 335
#     4  10  19  29  46  76 110 147 191 236 287 343
#
# _framework density 21.768158
#
# number of rings (size 3 to 8) (size 9 to 14) (size 15 to 20)
#    0.000    2.000    0.000    7.200    0.000    4.800 
#    0.000    4.000    0.000    1.800    0.000    0.000 
#    0.000    0.000    0.000    0.000    0.000    0.000 
#
# Total GULP energy -223090.651205 kJ/mol
# GULP energy per Si atom -5577.266280 kJ/mol
# Density = 2.171861 g / cm^3
# Si number density = 21.768158 Si / 1000 Ang^3
#
#
#
# Elastic Constant Matrix: (Units=GPa)
#
#
# Indices 1 2 3 4 5 6 
#
# 1 148.4179 29.4902 24.4931 0.0000 0.0000 0.0000
# 2 29.4902 144.3825 1.4031 0.0000 0.0000 0.0000
# 3 24.4931 1.4031 68.2313 0.0000 0.0000 0.0000
# 4 0.0000 0.0000 0.0000 -24.3882 0.0000 0.0000
# 5 0.0000 0.0000 0.0000 0.0000 -10.6692 0.0000
# 6 0.0000 0.0000 0.0000 0.0000 0.0000 7.7941
#
#
#
# Elastic Compliance Matrix: (Units=1/GPa)
#
#
# Indices 1 2 3 4 5 6 
#
# 1 0.007474 -0.001501 -0.002652 0.000000 0.000000 0.000000
# 2 -0.001501 0.007229 0.000390 0.000000 0.000000 0.000000
# 3 -0.002652 0.000390 0.015600 0.000000 0.000000 0.000000
# 4 0.000000 0.000000 0.000000 -0.041003 0.000000 0.000000
# 5 0.000000 0.000000 0.000000 0.000000 -0.093728 0.000000
# 6 0.000000 0.000000 0.000000 0.000000 0.000000 0.128302
#
#
# Mechanical properties :
#
#
# Convention : Reuss Voigt Hill
#
# Bulk Modulus (GPa) = 43.90367 52.42274 48.16320
# Shear Modulus (GPa) = 128.23741 14.92371 71.58056
#
# Velocity S-wave (km/s) = 7.68365 2.62119 5.74060
# Velocity P-wave (km/s) = 9.94638 5.77022 8.13099
#
# Compressibility (1/GPa) = 0.02277714
#
# Stress axis : x y z
#
# Youngs Moduli (GPa) = 133.80501 138.33597 64.10270
#
# Poissons Ratio (x) = 0.20760 0.17000
# Poissons Ratio (y) = 0.20080 -0.02500
# Poissons Ratio (z) = 0.35484 -0.05396
#
# Static dielectric constant tensor:
#      x y z
#    x 1.562690 0.000000 0.000000 
#    y 0.000000 1.844240 0.000000 
#    z 0.000000 0.000000 1.810880 
# 
# From -- ./inp_files/29082.got.cif
#   From: 2010.05.17/outbox.cif.g08.bks.cpg/sg67_15_cif.got.tgz:29082.got - 2010.06.03 18:28:57.
