data_PCOD9500907
_publ_section_title
;
Structure prediction by ZEFSAII (Michael W. Deem and Ramdas Pophale) SiO2 
 PCOD9500907
Probable space group: C M M A
;
_chemical_formula_sum "Si O2"
_cell_formula_units_Z 104
_cell_length_a 8.491223
_cell_length_b 27.886947
_cell_length_c 24.743205
_cell_angle_alpha 90.000000
_cell_angle_beta 90.000000
_cell_angle_gamma 90.000000
_cell_volume 5859.049556
_symmetry_space_group_name_H-M "C M M A"
_symmetry_group_IT_number 67
_symmetry_cell_setting 'orthorhombic'
loop_
_space_group_symop_operation_xyz
x,y,z
-x,1/2-y,z
x,-y,-z
-x,1/2+y,-z
-x,-y,-z
x,1/2+y,-z
-x,y,z
x,1/2-y,z
1/2+x,1/2+y,z
1/2-x,-y,z
1/2+x,1/2-y,-z
1/2-x,y,-z
1/2-x,1/2-y,-z
1/2+x,y,-z
1/2-x,1/2+y,z
1/2+x,-y,z
loop_
_atom_site_type_symbol
_atom_site_label
_atom_site_fract_x
_atom_site_fract_y
_atom_site_fract_z
Si Si1 0.188504 0.447471 0.854267
Si Si2 0.688746 0.052093 0.271590
Si Si3 0.190383 0.652146 0.877047
Si Si4 0.808390 0.303695 0.233721
Si Si5 0.311437 0.141120 0.661946
Si Si6 0.811750 0.304775 0.559952
Si Si7 0.690474 0.250000 0.939021
O O1 0.250000 0.500000 0.871706
O O2 0.241857 0.441131 0.791171
O O3 0.246916 0.401328 0.888135
O O4 0.000000 0.448261 0.854879
O O5 0.500000 0.053904 0.272035
O O6 0.755111 0.091181 0.312798
O O7 0.750000 0.000000 0.287792
O O8 0.243085 0.663549 0.815678
O O9 0.240279 0.699528 0.910877
O O10 0.000000 0.650496 0.879252
O O11 0.756220 0.250000 0.222818
O O12 0.757341 0.321114 0.292186
O O13 0.000000 0.304224 0.233319
O O14 0.500000 0.141328 0.659491
O O15 0.246660 0.158070 0.604698
O O16 0.757958 0.250000 0.573252
O O17 0.750000 0.315846 0.500000
O O18 0.000000 0.304851 0.559113
O O19 0.500000 0.250000 0.936740
O O20 0.750000 0.250000 0.000000
#
# Coordination Sequence:
#
# PCOD9500907 Si02
#       7
#    16  16  16  16  16  16   8
#     4  10  20  33  52  79 112 148 185 228 278 333
#     4  10  20  33  49  73 107 142 179 218 267 322
#     4  10  18  33  55  79 109 147 187 227 271 323
#     4   9  16  27  46  74 106 138 174 213 260 319
#     4  11  20  31  52  78 106 140 177 218 269 326
#     4  10  21  37  55  75 103 138 179 225 268 317
#     4  10  22  38  60  84 114 154 195 232 273 326
#
# _framework density 17.750319999999999
#
# number of rings (size 3 to 8) (size 9 to 14) (size 15 to 20)
#    0.000    2.000    2.308    2.308    0.000    3.385 
#    0.000    0.000    0.000    1.846    0.000    6.462 
#    0.000    0.000    0.000    0.000    0.000    0.000 
#
# Total GULP energy -289941.636196 kJ/mol
# GULP energy per Si atom -5575.800696 kJ/mol
# Density = 1.770992 g / cm^3
# Si number density = 17.750320 Si / 1000 Ang^3
#
#
#
# Elastic Constant Matrix: (Units=GPa)
#
#
# Indices 1 2 3 4 5 6 
#
# 1 31.7317 24.3319 16.0738 0.0000 0.0000 0.0000
# 2 24.3319 154.2519 43.2092 0.0000 0.0000 0.0000
# 3 16.0738 43.2092 59.9878 0.0000 0.0000 0.0000
# 4 0.0000 0.0000 0.0000 16.6419 0.0000 0.0000
# 5 0.0000 0.0000 0.0000 0.0000 21.2943 0.0000
# 6 0.0000 0.0000 0.0000 0.0000 0.0000 26.3742
#
#
#
# Elastic Compliance Matrix: (Units=1/GPa)
#
#
# Indices 1 2 3 4 5 6 
#
# 1 0.038309 -0.003968 -0.007407 0.000000 0.000000 0.000000
# 2 -0.003968 0.008533 -0.005083 0.000000 0.000000 0.000000
# 3 -0.007407 -0.005083 0.022316 0.000000 0.000000 0.000000
# 4 0.000000 0.000000 0.000000 0.060089 0.000000 0.000000
# 5 0.000000 0.000000 0.000000 0.000000 0.046961 0.000000
# 6 0.000000 0.000000 0.000000 0.000000 0.000000 0.037916
#
#
# Mechanical properties :
#
#
# Convention : Reuss Voigt Hill
#
# Bulk Modulus (GPa) = 27.59218 45.91126 36.75172
# Shear Modulus (GPa) = 19.29614 23.68584 21.49099
#
# Velocity S-wave (km/s) = 3.30068 3.65689 3.48334
# Velocity P-wave (km/s) = 5.48674 6.61450 6.07684
#
# Compressibility (1/GPa) = 0.03624215
#
# Stress axis : x y z
#
# Youngs Moduli (GPa) = 26.10362 117.19702 44.81127
#
# Poissons Ratio (x) = 0.46505 0.33190
# Poissons Ratio (y) = 0.10358 0.22777
# Poissons Ratio (z) = 0.19334 0.59569
#
# Static dielectric constant tensor:
#      x y z
#    x 1.605320 0.000000 0.000000 
#    y 0.000000 1.612880 0.000000 
#    z 0.000000 0.000000 1.584470 
# 
# From -- ./inp_files/39948.got.cif
#   From: 2010.05.17/outbox.cif.g08.bks.cpg/sg67_20_cif.got.tgz:39948.got - 2010.06.03 18:28:57.
