data_PCOD9500389
_publ_section_title
;
Structure prediction by ZEFSAII (Michael W. Deem and Ramdas Pophale) SiO2 
 PCOD9500389
Probable space group: C M M A
;
_chemical_formula_sum "Si O2"
_cell_formula_units_Z 96
_cell_length_a 13.790249
_cell_length_b 25.630602
_cell_length_c 10.720212
_cell_angle_alpha 90.000000
_cell_angle_beta 90.000000
_cell_angle_gamma 90.000000
_cell_volume 3789.084484
_symmetry_space_group_name_H-M "C M M A"
_symmetry_group_IT_number 67
_symmetry_cell_setting 'orthorhombic'
loop_
_space_group_symop_operation_xyz
x,y,z
-x,1/2-y,z
x,-y,-z
-x,1/2+y,-z
-x,-y,-z
x,1/2+y,-z
-x,y,z
x,1/2-y,z
1/2+x,1/2+y,z
1/2-x,-y,z
1/2+x,1/2-y,-z
1/2-x,y,-z
1/2-x,1/2-y,-z
1/2+x,y,-z
1/2-x,1/2+y,z
1/2+x,-y,z
loop_
_atom_site_type_symbol
_atom_site_label
_atom_site_fract_x
_atom_site_fract_y
_atom_site_fract_z
Si Si1 0.881646 0.886567 0.706489
Si Si2 0.117914 0.609873 0.430117
Si Si3 0.392986 0.337106 0.955092
Si Si4 0.357897 0.052021 0.055676
Si Si5 0.618647 0.192473 0.221688
Si Si6 0.614739 0.006126 0.322203
O O1 0.856183 0.869012 0.566913
O O2 0.000000 0.886909 0.717982
O O3 0.849157 0.947762 0.711110
O O4 0.847640 0.849467 0.819521
O O5 0.149793 0.646874 0.316553
O O6 0.147720 0.548490 0.425336
O O7 0.000000 0.608914 0.424441
O O8 0.500000 0.313498 0.934405
O O9 0.403794 0.395423 0.009652
O O10 0.346969 0.310756 0.077226
O O11 0.367175 0.041749 0.200788
O O12 0.250000 0.054946 0.000000
O O13 0.401740 0.000000 0.000000
O O14 0.500000 0.188827 0.214436
O O15 0.642958 0.250000 0.270896
O O16 0.500000 0.998739 0.342799
#
# Coordination Sequence:
#
# PCOD9500389 Si02
#       6
#    16  16  16  16  16  16
#     4   9  17  26  43  72 101 124 157 202 243 291
#     4   9  16  27  44  71 100 126 160 204 250 295
#     4  10  18  31  50  71  95 129 171 208 246 296
#     4  11  21  30  44  71 103 135 161 204 248 293
#     4   9  17  29  47  71  98 128 167 214 259 299
#     4  10  17  28  48  71  97 132 170 201 240 298
#
# _framework density 25.335934999999999
#
# number of rings (size 3 to 8) (size 9 to 14) (size 15 to 20)
#    0.000    2.333    3.333    1.000    0.000    2.667 
#    0.000    0.833    0.000    6.500    0.000    0.000 
#    0.000    1.333    0.000    0.000    0.000    0.000 
#
# Total GULP energy -268000.765730 kJ/mol
# GULP energy per Si atom -5583.349286 kJ/mol
# Density = 2.527827 g / cm^3
# Si number density = 25.335935 Si / 1000 Ang^3
#
#
#
# Elastic Constant Matrix: (Units=GPa)
#
#
# Indices 1 2 3 4 5 6 
#
# 1 98.7326 4.8600 9.2503 0.0000 0.0000 0.0000
# 2 4.8600 129.7885 44.8229 0.0000 0.0000 0.0000
# 3 9.2503 44.8229 167.8988 0.0000 0.0000 0.0000
# 4 0.0000 0.0000 0.0000 27.4112 0.0000 0.0000
# 5 0.0000 0.0000 0.0000 0.0000 30.7875 0.0000
# 6 0.0000 0.0000 0.0000 0.0000 0.0000 -75.0287
#
#
#
# Elastic Compliance Matrix: (Units=1/GPa)
#
#
# Indices 1 2 3 4 5 6 
#
# 1 0.010186 -0.000207 -0.000506 0.000000 0.000000 0.000000
# 2 -0.000207 0.008492 -0.002256 0.000000 0.000000 0.000000
# 3 -0.000506 -0.002256 0.006586 0.000000 0.000000 0.000000
# 4 0.000000 0.000000 0.000000 0.036481 0.000000 0.000000
# 5 0.000000 0.000000 0.000000 0.000000 0.032481 0.000000
# 6 0.000000 0.000000 0.000000 0.000000 0.000000 -0.013328
#
#
# Mechanical properties :
#
#
# Convention : Reuss Voigt Hill
#
# Bulk Modulus (GPa) = 51.74102 57.14293 54.44198
# Shear Modulus (GPa) = 53.60424 19.13312 36.36868
#
# Velocity S-wave (km/s) = 4.60471 2.75103 3.79285
# Velocity P-wave (km/s) = 6.98122 5.71786 6.38088
#
# Compressibility (1/GPa) = 0.01932702
#
# Stress axis : x y z
#
# Youngs Moduli (GPa) = 98.17448 117.76420 151.83724
#
# Poissons Ratio (x) = 0.02434 0.07683
# Poissons Ratio (y) = 0.02029 0.34248
# Poissons Ratio (z) = 0.04968 0.26562
#
# Static dielectric constant tensor:
#      x y z
#    x 2.039540 0.000000 0.000000 
#    y 0.000000 1.951620 0.000000 
#    z 0.000000 0.000000 2.100330 
# 
# From -- ./inp_files/21017.got.cif
#   From: 2010.05.17/outbox.cif.g08.bks.cpg/sg67_11_cif.got.tgz:21017.got - 2010.06.03 18:28:57.
