data_PCOD9500182
_publ_section_title
;
Structure prediction by ZEFSAII (Michael W. Deem and Ramdas Pophale) SiO2 
 PCOD9500182
Probable space group: C M M A
;
_chemical_formula_sum "Si O2"
_cell_formula_units_Z 80
_cell_length_a 18.274773
_cell_length_b 8.719998
_cell_length_c 27.047319
_cell_angle_alpha 90.000000
_cell_angle_beta 90.000000
_cell_angle_gamma 90.000000
_cell_volume 4310.152134
_symmetry_space_group_name_H-M "C M M A"
_symmetry_group_IT_number 67
_symmetry_cell_setting 'orthorhombic'
loop_
_space_group_symop_operation_xyz
x,y,z
-x,1/2-y,z
x,-y,-z
-x,1/2+y,-z
-x,-y,-z
x,1/2+y,-z
-x,y,z
x,1/2-y,z
1/2+x,1/2+y,z
1/2-x,-y,z
1/2+x,1/2-y,-z
1/2-x,y,-z
1/2-x,1/2-y,-z
1/2+x,y,-z
1/2-x,1/2+y,z
1/2+x,-y,z
loop_
_atom_site_type_symbol
_atom_site_label
_atom_site_fract_x
_atom_site_fract_y
_atom_site_fract_z
Si Si1 0.833270 0.933341 0.050565
Si Si2 0.167458 0.433607 0.150960
Si Si3 0.831540 0.432500 0.448116
Si Si4 0.167786 0.066343 0.260664
Si Si5 0.912918 0.929952 0.354799
O O1 0.830486 0.750000 0.048868
O O2 0.750000 0.000000 0.051383
O O3 0.867375 0.991176 0.102188
O O4 0.866899 0.000000 0.000000
O O5 0.170412 0.250000 0.144448
O O6 0.250000 0.500000 0.153354
O O7 0.136711 0.467786 0.205557
O O8 0.860231 0.500000 0.500000
O O9 0.827316 0.250000 0.451541
O O10 0.750000 0.500000 0.441442
O O11 0.879275 0.483535 0.401702
O O12 0.171491 0.250000 0.265528
O O13 0.250000 0.000000 0.263887
O O14 0.120807 0.995947 0.304511
O O15 0.894420 0.750000 0.358832
O O16 0.000000 0.946699 0.354273
#
# Coordination Sequence:
#
# PCOD9500182 Si02
#       5
#    16  16  16  16  16
#     4  10  16  22  33  51  80 118 157 198 246 301
#     4   9  16  26  40  61  88 120 160 204 250 301
#     4  11  22  39  63  88 115 144 178 217 257 306
#     4  10  20  34  54  77 103 136 175 219 264 313
#     4  11  24  40  57  79 109 143 179 219 263 311
#
# _framework density 18.560828999999998
#
# number of rings (size 3 to 8) (size 9 to 14) (size 15 to 20)
#    0.000    1.800    0.000    8.400    0.000    4.400 
#    0.000    0.000    0.000    0.000    0.000    0.000 
#    0.000    0.800    0.000    2.600    0.000   10.400 
#
# Total GULP energy -223228.141698 kJ/mol
# GULP energy per Si atom -5580.703542 kJ/mol
# Density = 1.851858 g / cm^3
# Si number density = 18.560829 Si / 1000 Ang^3
#
#
#
# Elastic Constant Matrix: (Units=GPa)
#
#
# Indices 1 2 3 4 5 6 
#
# 1 15.1244 33.0819 38.8243 0.0000 0.0000 0.0000
# 2 33.0819 167.3378 98.8919 0.0000 0.0000 0.0000
# 3 38.8243 98.8919 202.5278 0.0000 0.0000 0.0000
# 4 0.0000 0.0000 0.0000 39.2902 0.0000 0.0000
# 5 0.0000 0.0000 0.0000 0.0000 -11.1444 0.0000
# 6 0.0000 0.0000 0.0000 0.0000 0.0000 15.0305
#
#
#
# Elastic Compliance Matrix: (Units=1/GPa)
#
#
# Indices 1 2 3 4 5 6 
#
# 1 0.166499 -0.019754 -0.022272 0.000000 0.000000 0.000000
# 2 -0.019754 0.010743 -0.001459 0.000000 0.000000 0.000000
# 3 -0.022272 -0.001459 0.009920 0.000000 0.000000 0.000000
# 4 0.000000 0.000000 0.000000 0.025452 0.000000 0.000000
# 5 0.000000 0.000000 0.000000 0.000000 -0.089731 0.000000
# 6 0.000000 0.000000 0.000000 0.000000 0.000000 0.066531
#
#
# Mechanical properties :
#
#
# Convention : Reuss Voigt Hill
#
# Bulk Modulus (GPa) = 9.98086 80.73181 45.35633
# Shear Modulus (GPa) = 16.14042 22.91471 19.52757
#
# Velocity S-wave (km/s) = 2.95209 3.51746 3.24710
# Velocity P-wave (km/s) = 4.12418 7.75158 6.20869
#
# Compressibility (1/GPa) = 0.10019177
#
# Stress axis : x y z
#
# Youngs Moduli (GPa) = 6.00605 93.07966 100.81064
#
# Poissons Ratio (x) = 1.83868 2.24526
# Poissons Ratio (y) = 0.11864 0.14709
# Poissons Ratio (z) = 0.13377 0.13581
#
# Static dielectric constant tensor:
#      x y z
#    x 1.609870 0.000000 0.000000 
#    y 0.000000 1.620640 0.000000 
#    z 0.000000 0.000000 1.700680 
# 
# From -- ./inp_files/43289.got.cif
#   From: 2010.05.17/outbox.cif.g08.bks.cpg/sg67_22_cif.got.tgz:43289.got - 2010.06.03 18:28:57.
