data_PCOD9500499
_publ_section_title
;
Structure prediction by ZEFSAII (Michael W. Deem and Ramdas Pophale) SiO2 
 PCOD9500499
Probable space group: C M M A
;
_chemical_formula_sum "Si O2"
_cell_formula_units_Z 104
_cell_length_a 14.464413
_cell_length_b 21.323437
_cell_length_c 16.168150
_cell_angle_alpha 90.000000
_cell_angle_beta 90.000000
_cell_angle_gamma 90.000000
_cell_volume 4986.758662
_symmetry_space_group_name_H-M "C M M A"
_symmetry_group_IT_number 67
_symmetry_cell_setting 'orthorhombic'
loop_
_space_group_symop_operation_xyz
x,y,z
-x,1/2-y,z
x,-y,-z
-x,1/2+y,-z
-x,-y,-z
x,1/2+y,-z
-x,y,z
x,1/2-y,z
1/2+x,1/2+y,z
1/2-x,-y,z
1/2+x,1/2-y,-z
1/2-x,y,-z
1/2-x,1/2-y,-z
1/2+x,y,-z
1/2-x,1/2+y,z
1/2+x,-y,z
loop_
_atom_site_type_symbol
_atom_site_label
_atom_site_fract_x
_atom_site_fract_y
_atom_site_fract_z
Si Si1 0.389603 0.538207 0.415713
Si Si2 0.604529 0.324690 0.348338
Si Si3 0.360088 0.068478 0.020918
Si Si4 0.297747 0.118756 0.189631
Si Si5 0.613356 0.822215 0.464787
Si Si6 0.167970 0.683022 0.931284
Si Si7 0.750000 0.500000 0.717969
O O1 0.367853 0.500000 0.500000
O O2 0.500000 0.536341 0.405587
O O3 0.361689 0.612550 0.418691
O O4 0.337752 0.502673 0.342282
O O5 0.500000 0.349927 0.352034
O O6 0.600798 0.250000 0.336873
O O7 0.652869 0.353319 0.269204
O O8 0.645408 0.333256 0.440224
O O9 0.391924 0.124326 0.961019
O O10 0.250000 0.063706 0.000000
O O11 0.363694 0.093463 0.115184
O O12 0.397849 0.000000 0.000000
O O13 0.224696 0.166773 0.150835
O O14 0.244259 0.058853 0.222624
O O15 0.500000 0.820486 0.465719
O O16 0.641382 0.750000 0.439724
O O17 0.120479 0.750000 0.926646
O O18 0.250000 0.687926 0.000000
#
# Coordination Sequence:
#
# PCOD9500499 Si02
#       7
#    16  16  16  16  16  16   8
#     4  10  21  37  55  74 100 135 174 214 254 302
#     4   9  17  29  47  71  97 126 158 196 253 313
#     4   8  14  26  43  62  86 123 163 197 238 291
#     4  10  18  28  44  67  99 124 154 205 253 288
#     4   8  15  31  53  71  91 127 171 209 249 301
#     4   8  14  25  43  66  90 122 164 204 242 291
#     4  12  23  32  49  78 104 132 170 212 257 308
#
# _framework density 20.855229000000001
#
# number of rings (size 3 to 8) (size 9 to 14) (size 15 to 20)
#    0.000    3.231    0.000    4.385    0.000    2.462 
#    0.000    1.538    0.000    4.154    0.000   21.538 
#    0.000    5.538    0.000    0.000    0.000    0.000 
#
# Total GULP energy -289664.932324 kJ/mol
# GULP energy per Si atom -5570.479468 kJ/mol
# Density = 2.080776 g / cm^3
# Si number density = 20.855229 Si / 1000 Ang^3
#
#
#
# Elastic Constant Matrix: (Units=GPa)
#
#
# Indices 1 2 3 4 5 6 
#
# 1 37.7496 7.9578 -3.8551 0.0000 0.0000 0.0000
# 2 7.9578 136.9530 15.4016 0.0000 0.0000 0.0000
# 3 -3.8551 15.4016 40.7894 0.0000 0.0000 0.0000
# 4 0.0000 0.0000 0.0000 -428.7612 0.0000 0.0000
# 5 0.0000 0.0000 0.0000 0.0000 12.6049 0.0000
# 6 0.0000 0.0000 0.0000 0.0000 0.0000 -0.3510
#
#
#
# Elastic Compliance Matrix: (Units=1/GPa)
#
#
# Indices 1 2 3 4 5 6 
#
# 1 0.027241 -0.001955 0.003313 0.000000 0.000000 0.000000
# 2 -0.001955 0.007766 -0.003117 0.000000 0.000000 0.000000
# 3 0.003313 -0.003117 0.026006 0.000000 0.000000 0.000000
# 4 0.000000 0.000000 0.000000 -0.002332 0.000000 0.000000
# 5 0.000000 0.000000 0.000000 0.000000 0.079334 0.000000
# 6 0.000000 0.000000 0.000000 0.000000 0.000000 -2.848773
#
#
# Mechanical properties :
#
#
# Convention : Reuss Voigt Hill
#
# Bulk Modulus (GPa) = 17.39319 28.27785 22.83552
# Shear Modulus (GPa) = -1.86007 -70.23561 -36.04784
#
# Velocity S-wave (km/s) = -0.94543 -5.80954 -4.16201
# Velocity P-wave (km/s) = 2.67699 5.60469 3.48183
#
# Compressibility (1/GPa) = 0.05749377
#
# Stress axis : x y z
#
# Youngs Moduli (GPa) = 36.70957 128.76727 38.45230
#
# Poissons Ratio (x) = 0.25179 -0.12739
# Poissons Ratio (y) = 0.07178 0.11986
# Poissons Ratio (z) = -0.12162 0.40139
#
# Static dielectric constant tensor:
#      x y z
#    x 1.789430 0.000000 0.000000 
#    y 0.000000 1.856670 0.000000 
#    z 0.000000 0.000000 1.736230 
# 
# From -- ./inp_files/28700.got.cif
#   From: 2010.05.17/outbox.cif.g08.bks.cpg/sg67_15_cif.got.tgz:28700.got - 2010.06.03 18:28:57.
