data_PCOD9500862
_publ_section_title
;
Structure prediction by ZEFSAII (Michael W. Deem and Ramdas Pophale) SiO2 
 PCOD9500862
Probable space group: C M M A
;
_chemical_formula_sum "Si O2"
_cell_formula_units_Z 88
_cell_length_a 8.669248
_cell_length_b 16.161904
_cell_length_c 31.591176
_cell_angle_alpha 90.000000
_cell_angle_beta 90.000000
_cell_angle_gamma 90.000000
_cell_volume 4426.288760
_symmetry_space_group_name_H-M "C M M A"
_symmetry_group_IT_number 67
_symmetry_cell_setting 'orthorhombic'
loop_
_space_group_symop_operation_xyz
x,y,z
-x,1/2-y,z
x,-y,-z
-x,1/2+y,-z
-x,-y,-z
x,1/2+y,-z
-x,y,z
x,1/2-y,z
1/2+x,1/2+y,z
1/2-x,-y,z
1/2+x,1/2-y,-z
1/2-x,y,-z
1/2-x,1/2-y,-z
1/2+x,y,-z
1/2-x,1/2+y,z
1/2+x,-y,z
loop_
_atom_site_type_symbol
_atom_site_label
_atom_site_fract_x
_atom_site_fract_y
_atom_site_fract_z
Si Si1 0.685320 0.592806 0.042989
Si Si2 0.685743 0.594007 0.605136
Si Si3 0.673404 0.652510 0.134974
Si Si4 0.314017 0.250000 0.452758
Si Si5 0.684245 0.406151 0.694780
Si Si6 0.818398 0.091982 0.780122
O O1 0.500000 0.593591 0.040735
O O2 0.750000 0.500000 0.043172
O O3 0.731942 0.628521 0.088472
O O4 0.750000 0.633559 0.000000
O O5 0.500000 0.587864 0.606363
O O6 0.750000 0.500000 0.597660
O O7 0.731683 0.664926 0.571493
O O8 0.746721 0.625596 0.650779
O O9 0.500000 0.615378 0.140686
O O10 0.658296 0.750000 0.134912
O O11 0.777508 0.629806 0.174673
O O12 0.500000 0.250000 0.453662
O O13 0.250000 0.250000 0.500000
O O14 0.500000 0.407152 0.693097
O O15 0.750000 0.500000 0.696147
O O16 0.740209 0.366470 0.738867
O O17 0.000000 0.089448 0.773027
O O18 0.750000 0.000000 0.782590
#
# Coordination Sequence:
#
# PCOD9500862 Si02
#       6
#    16  16  16   8  16  16
#     4  10  20  35  57  81 104 134 174 223 273 326
#     4  10  20  38  61  89 121 159 201 252 304 359
#     4  10  22  39  55  76 110 146 181 225 277 333
#     4  10  24  42  62  88 124 162 204 252 303 358
#     4  10  18  32  56  85 114 149 189 236 286 341
#     4  11  21  35  57  83 111 147 188 232 280 335
#
# _framework density 19.881214
#
# number of rings (size 3 to 8) (size 9 to 14) (size 15 to 20)
#    0.000    1.818    0.000    7.636    0.000    5.455 
#    1.636    1.818    0.000    0.000    0.000    0.000 
#    0.000    0.000    0.000    0.000    0.000    0.000 
#
# Total GULP energy -245449.284308 kJ/mol
# GULP energy per Si atom -5578.392825 kJ/mol
# Density = 1.983596 g / cm^3
# Si number density = 19.881214 Si / 1000 Ang^3
#
#
#
# Elastic Constant Matrix: (Units=GPa)
#
#
# Indices 1 2 3 4 5 6 
#
# 1 102.3682 26.8228 64.1906 0.0000 0.0000 0.0000
# 2 26.8228 63.5918 64.4162 0.0000 0.0000 0.0000
# 3 64.1906 64.4162 206.8188 0.0000 0.0000 0.0000
# 4 0.0000 0.0000 0.0000-2498.3975 0.0000 0.0000
# 5 0.0000 0.0000 0.0000 0.0000 38.9267 0.0000
# 6 0.0000 0.0000 0.0000 0.0000 0.0000 14.6312
#
#
#
# Elastic Compliance Matrix: (Units=1/GPa)
#
#
# Indices 1 2 3 4 5 6 
#
# 1 0.012289 -0.001928 -0.003214 0.000000 0.000000 0.000000
# 2 -0.001928 0.023276 -0.006651 0.000000 0.000000 0.000000
# 3 -0.003214 -0.006651 0.007904 0.000000 0.000000 0.000000
# 4 0.000000 0.000000 0.000000 -0.000400 0.000000 0.000000
# 5 0.000000 0.000000 0.000000 0.000000 0.025689 0.000000
# 6 0.000000 0.000000 0.000000 0.000000 0.000000 0.068347
#
#
# Mechanical properties :
#
#
# Convention : Reuss Voigt Hill
#
# Bulk Modulus (GPa) = 50.29357 75.95978 63.12668
# Shear Modulus (GPa) = 29.88306 -474.47799 -222.29746
#
# Velocity S-wave (km/s) = 3.88116 -15.46527 -10.58563
# Velocity P-wave (km/s) = 6.74066 16.75141 10.84373
#
# Compressibility (1/GPa) = 0.01988326
#
# Stress axis : x y z
#
# Youngs Moduli (GPa) = 81.37361 42.96276 126.51613
#
# Poissons Ratio (x) = 0.08284 0.40657
# Poissons Ratio (y) = 0.15691 0.84147
# Poissons Ratio (z) = 0.26150 0.28575
#
# Static dielectric constant tensor:
#      x y z
#    x 1.700910 0.000000 0.000000 
#    y 0.000000 1.717420 0.000000 
#    z 0.000000 0.000000 1.778730 
# 
# From -- ./inp_files/45196.got.cif
#   From: 2010.05.17/outbox.cif.g08.bks.cpg/sg67_23_cif.got.tgz:45196.got - 2010.06.03 18:28:57.
