data_PCOD9500402
_publ_section_title
;
Structure prediction by ZEFSAII (Michael W. Deem and Ramdas Pophale) SiO2 
 PCOD9500402
Probable space group: C M M A
;
_chemical_formula_sum "Si O2"
_cell_formula_units_Z 64
_cell_length_a 18.480481
_cell_length_b 19.750437
_cell_length_c 9.005663
_cell_angle_alpha 90.000000
_cell_angle_beta 90.000000
_cell_angle_gamma 90.000000
_cell_volume 3287.045163
_symmetry_space_group_name_H-M "C M M A"
_symmetry_group_IT_number 67
_symmetry_cell_setting 'orthorhombic'
loop_
_space_group_symop_operation_xyz
x,y,z
-x,1/2-y,z
x,-y,-z
-x,1/2+y,-z
-x,-y,-z
x,1/2+y,-z
-x,y,z
x,1/2-y,z
1/2+x,1/2+y,z
1/2-x,-y,z
1/2+x,1/2-y,-z
1/2-x,y,-z
1/2-x,1/2-y,-z
1/2+x,y,-z
1/2-x,1/2+y,z
1/2+x,-y,z
loop_
_atom_site_type_symbol
_atom_site_label
_atom_site_fract_x
_atom_site_fract_y
_atom_site_fract_z
Si Si1 0.750000 0.607375 0.500000
Si Si2 0.000000 0.437731 0.880609
Si Si3 0.651559 0.629386 0.250593
Si Si4 0.000000 0.828093 0.862926
Si Si5 0.346037 0.534626 0.751156
Si Si6 0.750000 0.106409 0.000000
O O1 0.696919 0.649491 0.394351
O O2 0.696555 0.564156 0.608453
O O3 0.928144 0.441784 0.780190
O O4 0.000000 0.500000 0.000000
O O5 0.000000 0.373118 0.988219
O O6 0.570929 0.654437 0.232259
O O7 0.651810 0.546757 0.253465
O O8 0.697151 0.648506 0.105092
O O9 0.000000 0.750000 0.902566
O O10 0.300531 0.561974 0.891678
#
# Coordination Sequence:
#
# PCOD9500402 Si02
#       6
#     8   8  16   8  16   8
#     4  10  23  34  59 100 129 152 190 255 312 361
#     4  12  20  37  63  92 115 162 207 256 306 357
#     4  11  19  36  57  89 126 155 195 246 306 359
#     4  12  26  41  59  87 123 164 211 254 297 352
#     4  11  18  32  58  95 126 151 192 247 311 359
#     4  10  17  28  59  90 121 154 191 248 301 360
#
# _framework density 19.470374
#
# number of rings (size 3 to 8) (size 9 to 14) (size 15 to 20)
#    0.000    1.000    5.000    6.000    0.000    1.000 
#    0.000    3.750    0.000    3.000    0.000    0.000 
#    0.000    0.000    0.000    0.000    0.000    0.000 
#
# Total GULP energy -178748.389074 kJ/mol
# GULP energy per Si atom -5585.887159 kJ/mol
# Density = 1.942606 g / cm^3
# Si number density = 19.470374 Si / 1000 Ang^3
#
#
#
# Elastic Constant Matrix: (Units=GPa)
#
#
# Indices 1 2 3 4 5 6 
#
# 1 211.1406 29.2632 72.4858 0.0000 0.0000 0.0000
# 2 29.2632 51.5694 17.9502 0.0000 0.0000 0.0000
# 3 72.4858 17.9502 128.8021 0.0000 0.0000 0.0000
# 4 0.0000 0.0000 0.0000 8.9026 0.0000 0.0000
# 5 0.0000 0.0000 0.0000 0.0000 18.5119 0.0000
# 6 0.0000 0.0000 0.0000 0.0000 0.0000 -9.6648
#
#
#
# Elastic Compliance Matrix: (Units=1/GPa)
#
#
# Indices 1 2 3 4 5 6 
#
# 1 0.006140 -0.002398 -0.003121 0.000000 0.000000 0.000000
# 2 -0.002398 0.021316 -0.001621 0.000000 0.000000 0.000000
# 3 -0.003121 -0.001621 0.009746 0.000000 0.000000 0.000000
# 4 0.000000 0.000000 0.000000 0.112327 0.000000 0.000000
# 5 0.000000 0.000000 0.000000 0.000000 0.054019 0.000000
# 6 0.000000 0.000000 0.000000 0.000000 0.000000 -0.103469
#
#
# Mechanical properties :
#
#
# Convention : Reuss Voigt Hill
#
# Bulk Modulus (GPa) = 43.62619 70.10119 56.86369
# Shear Modulus (GPa) = 40.98288 21.67079 31.32684
#
# Velocity S-wave (km/s) = 4.59288 3.33981 4.01552
# Velocity P-wave (km/s) = 7.11204 7.13825 7.12516
#
# Compressibility (1/GPa) = 0.02292201
#
# Stress axis : x y z
#
# Youngs Moduli (GPa) = 162.86517 46.91250 102.60239
#
# Poissons Ratio (x) = 0.11248 0.32025
# Poissons Ratio (y) = 0.39051 0.16635
# Poissons Ratio (z) = 0.50835 0.07606
#
# Static dielectric constant tensor:
#      x y z
#    x 1.707410 0.000000 0.000000 
#    y 0.000000 1.664030 0.000000 
#    z 0.000000 0.000000 1.710230 
# 
# From -- ./inp_files/9440.got.cif
#   From: 2010.05.17/outbox.cif.g08.bks.cpg/sg67_5_cif.got.tgz:9440.got - 2010.06.03 18:28:57.
