data_PCOD9500928
_publ_section_title
;
Structure prediction by ZEFSAII (Michael W. Deem and Ramdas Pophale) SiO2 
 PCOD9500928
Probable space group: C M M A
;
_chemical_formula_sum "Si O2"
_cell_formula_units_Z 68
_cell_length_a 13.712483
_cell_length_b 19.278876
_cell_length_c 11.816808
_cell_angle_alpha 90.000000
_cell_angle_beta 90.000000
_cell_angle_gamma 90.000000
_cell_volume 3123.906245
_symmetry_space_group_name_H-M "C M M A"
_symmetry_group_IT_number 67
_symmetry_cell_setting 'orthorhombic'
loop_
_space_group_symop_operation_xyz
x,y,z
-x,1/2-y,z
x,-y,-z
-x,1/2+y,-z
-x,-y,-z
x,1/2+y,-z
-x,y,z
x,1/2-y,z
1/2+x,1/2+y,z
1/2-x,-y,z
1/2+x,1/2-y,-z
1/2-x,y,-z
1/2-x,1/2-y,-z
1/2+x,y,-z
1/2-x,1/2+y,z
1/2+x,-y,z
loop_
_atom_site_type_symbol
_atom_site_label
_atom_site_fract_x
_atom_site_fract_y
_atom_site_fract_z
Si Si1 0.892578 0.134193 0.737796
Si Si2 0.611709 0.920272 0.483601
Si Si3 0.819596 0.142816 0.258271
Si Si4 0.387865 0.511105 0.128768
Si Si5 0.500000 0.750000 0.224743
O O1 0.891334 0.117053 0.604195
O O2 0.789762 0.170744 0.763991
O O3 0.000000 0.165224 0.764453
O O4 0.888386 0.060500 0.802453
O O5 0.500000 0.924010 0.439429
O O6 0.671313 0.878647 0.390303
O O7 0.642920 0.000000 0.500000
O O8 0.828730 0.070753 0.190599
O O9 0.911829 0.190500 0.229081
O O10 0.500000 0.535418 0.124716
O O11 0.357007 0.500000 0.000000
#
# Coordination Sequence:
#
# PCOD9500928 Si02
#       5
#    16  16  16  16   4
#     4  10  22  36  61  98 129 165 202 269 333 368
#     4  10  18  33  61  95 131 161 206 268 327 372
#     4  12  22  41  63  94 133 168 217 253 316 390
#     4  10  20  37  65 104 135 154 204 278 334 370
#     4  12  28  44  64  90 126 184 216 254 298 398
#
# _framework density 21.767620000000001
#
# number of rings (size 3 to 8) (size 9 to 14) (size 15 to 20)
#    0.000    1.412    4.706    1.412    0.000    2.824 
#    0.000    2.941    0.000    2.824    0.000    0.000 
#    0.000    0.000    0.000    0.000    0.000    0.000 
#
# Total GULP energy -189340.571500 kJ/mol
# GULP energy per Si atom -5568.840338 kJ/mol
# Density = 2.171808 g / cm^3
# Si number density = 21.767620 Si / 1000 Ang^3
#
#
#
# Elastic Constant Matrix: (Units=GPa)
#
#
# Indices 1 2 3 4 5 6 
#
# 1 259.3847 36.4543 2.7473 0.0000 0.0000 0.0000
# 2 36.4543 84.9406 18.9861 0.0000 0.0000 0.0000
# 3 2.7473 18.9861 108.8205 0.0000 0.0000 0.0000
# 4 0.0000 0.0000 0.0000 -4.8281 0.0000 0.0000
# 5 0.0000 0.0000 0.0000 0.0000 23.1257 0.0000
# 6 0.0000 0.0000 0.0000 0.0000 0.0000 -795.8500
#
#
#
# Elastic Compliance Matrix: (Units=1/GPa)
#
#
# Indices 1 2 3 4 5 6 
#
# 1 0.004107 -0.001810 0.000212 0.000000 0.000000 0.000000
# 2 -0.001810 0.013048 -0.002231 0.000000 0.000000 0.000000
# 3 0.000212 -0.002231 0.009573 0.000000 0.000000 0.000000
# 4 0.000000 0.000000 0.000000 -0.207120 0.000000 0.000000
# 5 0.000000 0.000000 0.000000 0.000000 0.043242 0.000000
# 6 0.000000 0.000000 0.000000 0.000000 0.000000 -0.001257
#
#
# Mechanical properties :
#
#
# Convention : Reuss Voigt Hill
#
# Bulk Modulus (GPa) = 52.43484 63.28014 57.85749
# Shear Modulus (GPa) = -40.19610 -129.17994 -84.68802
#
# Velocity S-wave (km/s) = -4.30187 -7.71193 -6.24419
# Velocity P-wave (km/s) = 0.73078 7.08269 5.03481
#
# Compressibility (1/GPa) = 0.01907129
#
# Stress axis : x y z
#
# Youngs Moduli (GPa) = 243.46051 76.63723 104.45704
#
# Poissons Ratio (x) = 0.13873 -0.02216
# Poissons Ratio (y) = 0.44072 0.23303
# Poissons Ratio (z) = -0.05165 0.17097
#
# Static dielectric constant tensor:
#      x y z
#    x 1.900480 0.000000 0.000000 
#    y 0.000000 1.718690 0.000000 
#    z 0.000000 0.000000 1.751440 
# 
# From -- ./inp_files/17693.got.cif
#   From: 2010.05.17/outbox.cif.g08.bks.cpg/sg67_9_cif.got.tgz:17693.got - 2010.06.03 18:28:57.
