data_PCOD9500626
_publ_section_title
;
Structure prediction by ZEFSAII (Michael W. Deem and Ramdas Pophale) SiO2 
 PCOD9500626
Probable space group: C M M A
;
_chemical_formula_sum "Si O2"
_cell_formula_units_Z 96
_cell_length_a 27.379298
_cell_length_b 20.760353
_cell_length_c 9.939144
_cell_angle_alpha 90.000000
_cell_angle_beta 90.000000
_cell_angle_gamma 90.000000
_cell_volume 5649.448127
_symmetry_space_group_name_H-M "C M M A"
_symmetry_group_IT_number 67
_symmetry_cell_setting 'orthorhombic'
loop_
_space_group_symop_operation_xyz
x,y,z
-x,1/2-y,z
x,-y,-z
-x,1/2+y,-z
-x,-y,-z
x,1/2+y,-z
-x,y,z
x,1/2-y,z
1/2+x,1/2+y,z
1/2-x,-y,z
1/2+x,1/2-y,-z
1/2-x,y,-z
1/2-x,1/2-y,-z
1/2+x,y,-z
1/2-x,1/2+y,z
1/2+x,-y,z
loop_
_atom_site_type_symbol
_atom_site_label
_atom_site_fract_x
_atom_site_fract_y
_atom_site_fract_z
Si Si1 0.868659 0.325080 0.506919
Si Si2 0.331636 0.325683 0.787779
Si Si3 0.140029 0.673362 0.080510
Si Si4 0.699683 0.940111 0.580588
Si Si5 0.235606 0.406099 0.851099
Si Si6 0.554864 0.327533 0.277903
O O1 0.856232 0.250000 0.536800
O O2 0.862473 0.334287 0.347770
O O3 0.831568 0.375613 0.571837
O O4 0.920785 0.337808 0.575840
O O5 0.316700 0.250000 0.794150
O O6 0.283304 0.369876 0.791948
O O7 0.363065 0.339559 0.921153
O O8 0.142054 0.750000 0.099930
O O9 0.191910 0.644376 0.123061
O O10 0.094434 0.648680 0.168246
O O11 0.750000 0.929112 0.500000
O O12 0.712927 0.952161 0.736474
O O13 0.676068 0.000000 0.500000
O O14 0.250000 0.430506 0.000000
O O15 0.500000 0.353303 0.265123
O O16 0.551983 0.250000 0.260438
#
# Coordination Sequence:
#
# PCOD9500626 Si02
#       6
#    16  16  16  16  16  16
#     4  10  19  32  52  74 100 136 178 217 255 305
#     4   9  17  27  44  73 103 129 162 206 252 303
#     4   9  16  27  45  71 103 131 163 209 259 306
#     4  11  22  35  49  73 109 141 166 207 253 307
#     4  10  18  30  49  71  97 132 170 205 249 306
#     4   9  17  29  47  72 100 132 173 220 266 308
#
# _framework density 16.992809999999999
#
# number of rings (size 3 to 8) (size 9 to 14) (size 15 to 20)
#    0.000    2.333    3.333    0.500    0.000    3.000 
#    0.000    2.500    0.000    5.500    0.000    0.000 
#    0.000    1.333    0.000    0.000    0.000    0.000 
#
# Total GULP energy -267229.346206 kJ/mol
# GULP energy per Si atom -5567.278046 kJ/mol
# Density = 1.695413 g / cm^3
# Si number density = 16.992810 Si / 1000 Ang^3
#
#
#
# Elastic Constant Matrix: (Units=GPa)
#
#
# Indices 1 2 3 4 5 6 
#
# 1 102.6486 26.6568 44.6257 0.0000 0.0000 0.0000
# 2 26.6568 40.8411 29.7333 0.0000 0.0000 0.0000
# 3 44.6257 29.7333 145.8175 0.0000 0.0000 0.0000
# 4 0.0000 0.0000 0.0000 8.3166 0.0000 0.0000
# 5 0.0000 0.0000 0.0000 0.0000 14.8525 0.0000
# 6 0.0000 0.0000 0.0000 0.0000 0.0000 2.1210
#
#
#
# Elastic Compliance Matrix: (Units=1/GPa)
#
#
# Indices 1 2 3 4 5 6 
#
# 1 0.012480 -0.006300 -0.002535 0.000000 0.000000 0.000000
# 2 -0.006300 0.031934 -0.004583 0.000000 0.000000 0.000000
# 3 -0.002535 -0.004583 0.008568 0.000000 0.000000 0.000000
# 4 0.000000 0.000000 0.000000 0.120241 0.000000 0.000000
# 5 0.000000 0.000000 0.000000 0.000000 0.067329 0.000000
# 6 0.000000 0.000000 0.000000 0.000000 0.000000 0.471479
#
#
# Mechanical properties :
#
#
# Convention : Reuss Voigt Hill
#
# Bulk Modulus (GPa) = 38.24760 54.59319 46.42040
# Shear Modulus (GPa) = 6.68821 17.61079 12.14950
#
# Velocity S-wave (km/s) = 1.98606 3.22276 2.67681
# Velocity P-wave (km/s) = 5.27411 6.78566 6.07707
#
# Compressibility (1/GPa) = 0.02614543
#
# Stress axis : x y z
#
# Youngs Moduli (GPa) = 80.12787 31.31436 116.71066
#
# Poissons Ratio (x) = 0.19729 0.29582
# Poissons Ratio (y) = 0.50484 0.53494
# Poissons Ratio (z) = 0.20310 0.14353
#
# Static dielectric constant tensor:
#      x y z
#    x 1.544270 0.000000 0.000000 
#    y 0.000000 1.605570 0.000000 
#    z 0.000000 0.000000 1.634980 
# 
# From -- ./inp_files/12750.got.cif
#   From: 2010.05.17/outbox.cif.g08.bks.cpg/sg67_7_cif.got.tgz:12750.got - 2010.06.03 18:28:57.
