data_PCOD9500775
_publ_section_title
;
Structure prediction by ZEFSAII (Michael W. Deem and Ramdas Pophale) SiO2 
 PCOD9500775
Probable space group: C M M A
;
_chemical_formula_sum "Si O2"
_cell_formula_units_Z 116
_cell_length_a 28.894468
_cell_length_b 17.445204
_cell_length_c 11.653117
_cell_angle_alpha 90.000000
_cell_angle_beta 90.000000
_cell_angle_gamma 90.000000
_cell_volume 5873.985390
_symmetry_space_group_name_H-M "C M M A"
_symmetry_group_IT_number 67
_symmetry_cell_setting 'orthorhombic'
loop_
_space_group_symop_operation_xyz
x,y,z
-x,1/2-y,z
x,-y,-z
-x,1/2+y,-z
-x,-y,-z
x,1/2+y,-z
-x,y,z
x,1/2-y,z
1/2+x,1/2+y,z
1/2-x,-y,z
1/2+x,1/2-y,-z
1/2-x,y,-z
1/2-x,1/2-y,-z
1/2+x,y,-z
1/2-x,1/2+y,z
1/2+x,-y,z
loop_
_atom_site_type_symbol
_atom_site_label
_atom_site_fract_x
_atom_site_fract_y
_atom_site_fract_z
Si Si1 0.686587 0.659902 0.252840
Si Si2 0.326916 0.162521 0.017250
Si Si3 0.648762 0.994329 0.366767
Si Si4 0.554952 0.994069 0.255664
Si Si5 0.070104 0.367369 0.900469
Si Si6 0.722097 0.921978 0.789213
Si Si7 0.052574 0.832214 0.838556
Si Si8 0.500000 0.750000 0.801829
O O1 0.678755 0.750000 0.282181
O O2 0.661967 0.592162 0.325026
O O3 0.741489 0.640197 0.258767
O O4 0.671512 0.647873 0.118914
O O5 0.311006 0.250000 0.031133
O O6 0.376590 0.153292 0.078937
O O7 0.294592 0.106507 0.087626
O O8 0.660435 0.000000 0.500000
O O9 0.594578 0.015309 0.346650
O O10 0.679412 0.054320 0.292601
O O11 0.500000 0.998053 0.286073
O O12 0.563093 0.046748 0.143644
O O13 0.569119 0.907866 0.222076
O O14 0.040764 0.316103 0.813067
O O15 0.050441 0.348270 0.026096
O O16 0.750000 0.000000 0.802411
O O17 0.076457 0.750000 0.820347
O O18 0.000000 0.825030 0.798078
#
# Coordination Sequence:
#
# PCOD9500775 Si02
#       8
#    16  16  16  16  16  16  16   4
#     4  10  23  42  67  94 127 160 201 254 316 388
#     4  11  21  35  61  96 134 166 194 245 317 388
#     4  11  25  45  65  88 122 164 217 269 315 363
#     4  11  23  37  61  89 118 165 217 261 307 369
#     4  12  19  33  54  86 129 168 206 246 300 370
#     4  10  22  40  63  93 125 164 202 255 315 381
#     4  10  18  32  51  82 120 160 200 247 298 359
#     4  12  20  32  54  88 130 182 208 250 294 378
#
# _framework density 19.748092
#
# number of rings (size 3 to 8) (size 9 to 14) (size 15 to 20)
#    0.000    1.241    4.138    2.069    0.000   10.483 
#    0.000    2.069    1.517    0.000    0.000    0.000 
#    0.000    0.000    0.000    0.000    0.000    0.000 
#
# Total GULP energy -322918.149787 kJ/mol
# GULP energy per Si atom -5567.554307 kJ/mol
# Density = 1.970314 g / cm^3
# Si number density = 19.748092 Si / 1000 Ang^3
#
#
#
# Elastic Constant Matrix: (Units=GPa)
#
#
# Indices 1 2 3 4 5 6 
#
# 1 96.5718 43.0949 27.2903 0.0000 0.0000 0.0000
# 2 43.0949 83.0453 47.1991 0.0000 0.0000 0.0000
# 3 27.2903 47.1991 75.2244 0.0000 0.0000 0.0000
# 4 0.0000 0.0000 0.0000 3.9051 0.0000 0.0000
# 5 0.0000 0.0000 0.0000 0.0000 3.2556 0.0000
# 6 0.0000 0.0000 0.0000 0.0000 0.0000 13.0128
#
#
#
# Elastic Compliance Matrix: (Units=1/GPa)
#
#
# Indices 1 2 3 4 5 6 
#
# 1 0.013505 -0.006565 -0.000780 0.000000 0.000000 0.000000
# 2 -0.006565 0.021907 -0.011364 0.000000 0.000000 0.000000
# 3 -0.000780 -0.011364 0.020707 0.000000 0.000000 0.000000
# 4 0.000000 0.000000 0.000000 0.256075 0.000000 0.000000
# 5 0.000000 0.000000 0.000000 0.000000 0.307168 0.000000
# 6 0.000000 0.000000 0.000000 0.000000 0.000000 0.076847
#
#
# Mechanical properties :
#
#
# Convention : Reuss Voigt Hill
#
# Bulk Modulus (GPa) = 53.47321 54.44556 53.95938
# Shear Modulus (GPa) = 6.75804 13.18517 9.97160
#
# Velocity S-wave (km/s) = 1.85190 2.58673 2.24952
# Velocity P-wave (km/s) = 5.63109 6.04578 5.84212
#
# Compressibility (1/GPa) = 0.01870095
#
# Stress axis : x y z
#
# Youngs Moduli (GPa) = 74.04673 45.64785 48.29319
#
# Poissons Ratio (x) = 0.29966 0.03769
# Poissons Ratio (y) = 0.48609 0.54879
# Poissons Ratio (z) = 0.05779 0.51873
#
# Static dielectric constant tensor:
#      x y z
#    x 1.820960 0.000000 0.000000 
#    y 0.000000 1.657740 0.000000 
#    z 0.000000 0.000000 1.649800 
# 
# From -- ./inp_files/23969.got.cif
#   From: 2010.05.17/outbox.cif.g08.bks.cpg/sg67_12_cif.got.tgz:23969.got - 2010.06.03 18:28:57.
