data_PCOD9500627
_publ_section_title
;
Structure prediction by ZEFSAII (Michael W. Deem and Ramdas Pophale) SiO2 
 PCOD9500627
Probable space group: C M M A
;
_chemical_formula_sum "Si O2"
_cell_formula_units_Z 80
_cell_length_a 26.492109
_cell_length_b 14.657178
_cell_length_c 9.978314
_cell_angle_alpha 90.000000
_cell_angle_beta 90.000000
_cell_angle_gamma 90.000000
_cell_volume 3874.574908
_symmetry_space_group_name_H-M "C M M A"
_symmetry_group_IT_number 67
_symmetry_cell_setting 'orthorhombic'
loop_
_space_group_symop_operation_xyz
x,y,z
-x,1/2-y,z
x,-y,-z
-x,1/2+y,-z
-x,-y,-z
x,1/2+y,-z
-x,y,z
x,1/2-y,z
1/2+x,1/2+y,z
1/2-x,-y,z
1/2+x,1/2-y,-z
1/2-x,y,-z
1/2-x,1/2-y,-z
1/2+x,y,-z
1/2-x,1/2+y,z
1/2+x,-y,z
loop_
_atom_site_type_symbol
_atom_site_label
_atom_site_fract_x
_atom_site_fract_y
_atom_site_fract_z
Si Si1 0.703814 0.856631 0.600169
Si Si2 0.864999 0.510445 0.283630
Si Si3 0.789988 0.145114 0.210462
Si Si4 0.943651 0.574775 0.880036
Si Si5 0.647499 0.648520 0.960202
O O1 0.691866 0.750000 0.581091
O O2 0.750000 0.879927 0.500000
O O3 0.654450 0.919643 0.603047
O O4 0.732874 0.869431 0.742774
O O5 0.825844 0.427080 0.283151
O O6 0.920517 0.469386 0.256340
O O7 0.858429 0.569710 0.147386
O O8 0.801842 0.250000 0.248620
O O9 0.804138 0.136407 0.055222
O O10 0.000000 0.612019 0.860377
O O11 0.947551 0.500000 0.000000
O O12 0.900380 0.641207 0.938008
O O13 0.647995 0.750000 0.899840
#
# Coordination Sequence:
#
# PCOD9500627 Si02
#       5
#    16  16  16  16  16
#     4  10  21  35  50  70  95 125 165 210 256 309
#     4  10  18  30  49  71  99 130 163 207 253 301
#     4   9  18  31  46  67  96 129 165 205 250 305
#     4   8  15  28  45  68  99 132 164 200 245 301
#     4   9  17  29  46  71 100 130 165 202 245 297
#
# _framework density 20.647427
#
# number of rings (size 3 to 8) (size 9 to 14) (size 15 to 20)
#    0.000    2.800    0.000    3.000    0.000    2.800 
#    0.000    9.000    0.000    1.800    0.000   11.200 
#    0.000   19.200    0.000    0.000    0.000    0.000 
#
# Total GULP energy -222896.839901 kJ/mol
# GULP energy per Si atom -5572.420998 kJ/mol
# Density = 2.060043 g / cm^3
# Si number density = 20.647427 Si / 1000 Ang^3
#
#
#
# Elastic Constant Matrix: (Units=GPa)
#
#
# Indices 1 2 3 4 5 6 
#
# 1 114.4005 21.9827 20.4262 0.0000 0.0000 0.0000
# 2 21.9827 60.2259 7.3359 0.0000 0.0000 0.0000
# 3 20.4262 7.3359 47.0134 0.0000 0.0000 0.0000
# 4 0.0000 0.0000 0.0000 18.7176 0.0000 0.0000
# 5 0.0000 0.0000 0.0000 0.0000 26.2817 0.0000
# 6 0.0000 0.0000 0.0000 0.0000 0.0000 11.9975
#
#
#
# Elastic Compliance Matrix: (Units=1/GPa)
#
#
# Indices 1 2 3 4 5 6 
#
# 1 0.010046 -0.003196 -0.003866 0.000000 0.000000 0.000000
# 2 -0.003196 0.017943 -0.001411 0.000000 0.000000 0.000000
# 3 -0.003866 -0.001411 0.023170 0.000000 0.000000 0.000000
# 4 0.000000 0.000000 0.000000 0.053426 0.000000 0.000000
# 5 0.000000 0.000000 0.000000 0.000000 0.038049 0.000000
# 6 0.000000 0.000000 0.000000 0.000000 0.000000 0.083351
#
#
# Mechanical properties :
#
#
# Convention : Reuss Voigt Hill
#
# Bulk Modulus (GPa) = 29.22894 35.68102 32.45498
# Shear Modulus (GPa) = 19.65919 22.85904 21.25912
#
# Velocity S-wave (km/s) = 3.08902 3.33094 3.21226
# Velocity P-wave (km/s) = 5.18745 5.66676 5.43240
#
# Compressibility (1/GPa) = 0.03421267
#
# Stress axis : x y z
#
# Youngs Moduli (GPa) = 99.54645 55.73353 43.15859
#
# Poissons Ratio (x) = 0.17811 0.16685
# Poissons Ratio (y) = 0.31813 0.06091
# Poissons Ratio (z) = 0.38484 0.07865
#
# Static dielectric constant tensor:
#      x y z
#    x 1.737120 0.000000 0.000000 
#    y 0.000000 1.755790 0.000000 
#    z 0.000000 0.000000 1.875860 
# 
# From -- ./inp_files/18237.got.cif
#   From: 2010.05.17/outbox.cif.g08.bks.cpg/sg67_10_cif.got.tgz:18237.got - 2010.06.03 18:28:57.
