data_PCOD9500218
_publ_section_title
;
Structure prediction by ZEFSAII (Michael W. Deem and Ramdas Pophale) SiO2 
 PCOD9500218
Probable space group: C M M A
;
_chemical_formula_sum "Si O2"
_cell_formula_units_Z 96
_cell_length_a 26.613942
_cell_length_b 18.966090
_cell_length_c 12.145860
_cell_angle_alpha 90.000000
_cell_angle_beta 90.000000
_cell_angle_gamma 90.000000
_cell_volume 6130.773677
_symmetry_space_group_name_H-M "C M M A"
_symmetry_group_IT_number 67
_symmetry_cell_setting 'orthorhombic'
loop_
_space_group_symop_operation_xyz
x,y,z
-x,1/2-y,z
x,-y,-z
-x,1/2+y,-z
-x,-y,-z
x,1/2+y,-z
-x,y,z
x,1/2-y,z
1/2+x,1/2+y,z
1/2-x,-y,z
1/2+x,1/2-y,-z
1/2-x,y,-z
1/2-x,1/2-y,-z
1/2+x,y,-z
1/2-x,1/2+y,z
1/2+x,-y,z
loop_
_atom_site_type_symbol
_atom_site_label
_atom_site_fract_x
_atom_site_fract_y
_atom_site_fract_z
Si Si1 0.691682 0.583604 0.976743
Si Si2 0.638166 0.167696 0.835321
Si Si3 0.204265 0.408492 0.328650
Si Si4 0.682164 0.430893 0.276053
Si Si5 0.874276 0.417770 0.513873
Si Si6 0.058537 0.665247 0.654710
O O1 0.679261 0.594696 0.848730
O O2 0.688915 0.500000 0.000000
O O3 0.750000 0.604517 0.000000
O O4 0.654065 0.624084 0.057692
O O5 0.633831 0.250000 0.861390
O O6 0.682387 0.152990 0.747094
O O7 0.588877 0.144647 0.765869
O O8 0.263885 0.408628 0.325279
O O9 0.185496 0.483397 0.277304
O O10 0.177903 0.406562 0.446825
O O11 0.638469 0.406281 0.358335
O O12 0.888013 0.500000 0.500000
O O13 0.914600 0.370743 0.449837
O O14 0.063145 0.750000 0.645178
O O15 0.000000 0.646825 0.660848
#
# Coordination Sequence:
#
# PCOD9500218 Si02
#       6
#    16  16  16  16  16  16
#     4  11  18  30  48  70 101 140 169 189 225 286
#     4  10  19  31  48  72  95 123 167 207 234 269
#     4   9  15  29  44  68  99 133 166 189 223 283
#     4  10  16  27  46  70 101 134 162 189 231 288
#     4   9  18  28  49  77  99 123 155 205 245 281
#     4   9  19  37  57  71  90 124 164 204 245 293
#
# _framework density 15.658708000000001
#
# number of rings (size 3 to 8) (size 9 to 14) (size 15 to 20)
#    0.000    2.333    3.333    1.500    0.000    2.667 
#    0.000    1.667    0.000    5.500    0.000    2.333 
#    0.000    0.000    0.000    0.000    0.000    0.000 
#
# Total GULP energy -267346.091800 kJ/mol
# GULP energy per Si atom -5569.710246 kJ/mol
# Density = 1.562307 g / cm^3
# Si number density = 15.658708 Si / 1000 Ang^3
#
#
#
# Elastic Constant Matrix: (Units=GPa)
#
#
# Indices 1 2 3 4 5 6 
#
# 1 98.8124 36.8611 60.1167 0.0000 0.0000 0.0000
# 2 36.8611 30.9500 34.4557 0.0000 0.0000 0.0000
# 3 60.1167 34.4557 137.1377 0.0000 0.0000 0.0000
# 4 0.0000 0.0000 0.0000 18.5438 0.0000 0.0000
# 5 0.0000 0.0000 0.0000 0.0000 9.6327 0.0000
# 6 0.0000 0.0000 0.0000 0.0000 0.0000 17.2802
#
#
#
# Elastic Compliance Matrix: (Units=1/GPa)
#
#
# Indices 1 2 3 4 5 6 
#
# 1 0.019522 -0.019052 -0.003771 0.000000 0.000000 0.000000
# 2 -0.019052 0.063451 -0.007590 0.000000 0.000000 0.000000
# 3 -0.003771 -0.007590 0.010852 0.000000 0.000000 0.000000
# 4 0.000000 0.000000 0.000000 0.053926 0.000000 0.000000
# 5 0.000000 0.000000 0.000000 0.000000 0.103813 0.000000
# 6 0.000000 0.000000 0.000000 0.000000 0.000000 0.057870
#
#
# Mechanical properties :
#
#
# Convention : Reuss Voigt Hill
#
# Bulk Modulus (GPa) = 30.30455 58.86301 44.58378
# Shear Modulus (GPa) = 13.11447 18.12245 15.61846
#
# Velocity S-wave (km/s) = 2.89713 3.40566 3.16164
# Velocity P-wave (km/s) = 5.53049 7.28955 6.47008
#
# Compressibility (1/GPa) = 0.03299835
#
# Stress axis : x y z
#
# Youngs Moduli (GPa) = 51.22548 15.76024 92.14925
#
# Poissons Ratio (x) = 0.30026 0.34748
# Poissons Ratio (y) = 0.97595 0.69943
# Poissons Ratio (z) = 0.19316 0.11962
#
# Static dielectric constant tensor:
#      x y z
#    x 1.511260 0.000000 0.000000 
#    y 0.000000 1.531770 0.000000 
#    z 0.000000 0.000000 1.539050 
# 
# From -- ./inp_files/19829.got.cif
#   From: 2010.05.17/outbox.cif.g08.bks.cpg/sg67_10_cif.got.tgz:19829.got - 2010.06.03 18:28:57.
