data_PCOD9500063
_publ_section_title
;
Structure prediction by ZEFSAII (Michael W. Deem and Ramdas Pophale) SiO2 
 PCOD9500063
Probable space group: C C C M
;
_chemical_formula_sum "Si O2"
_cell_formula_units_Z 56
_cell_length_a 27.000000
_cell_length_b 15.000000
_cell_length_c 15.000000
_cell_angle_alpha 90.000000
_cell_angle_beta 90.000000
_cell_angle_gamma 90.000000
_cell_volume 6075.000000
_symmetry_space_group_name_H-M "C C C M"
_symmetry_group_IT_number 66
_symmetry_cell_setting 'orthorhombic'
loop_
_space_group_symop_operation_xyz
x,y,z
-x,-y,z
x,-y,1/2-z
-x,y,1/2-z
-x,-y,-z
x,y,-z
-x,y,1/2+z
x,-y,1/2+z
1/2+x,1/2+y,z
1/2-x,1/2-y,z
1/2+x,1/2-y,1/2-z
1/2-x,1/2+y,1/2-z
1/2-x,1/2-y,-z
1/2+x,1/2+y,-z
1/2-x,1/2+y,1/2+z
1/2+x,1/2-y,1/2+z
loop_
_atom_site_type_symbol
_atom_site_label
_atom_site_fract_x
_atom_site_fract_y
_atom_site_fract_z
Si Si1 0.782220 0.839505 0.767172
Si Si2 0.275152 0.884439 0.899059
Si Si3 0.443088 0.804400 0.275515
Si Si4 0.362155 0.256322 0.106384
Si Si5 0.791702 0.411909 0.401390
Si Si6 0.383419 0.840785 0.895357
Si Si7 0.557919 0.027401 0.399404
O O1 0.750000 0.750000 0.770638
O O2 0.771298 0.873789 0.666962
O O3 0.831479 0.817827 0.823632
O O4 0.750632 0.903980 0.829274
O O5 0.324838 0.829936 0.873881
O O6 0.300049 0.982935 0.901631
O O7 0.260297 0.862702 0.000000
O O8 0.500000 0.788890 0.250000
O O9 0.417483 0.747445 0.354228
O O10 0.412419 0.792591 0.184238
O O11 0.437578 0.903592 0.318282
O O12 0.336508 0.157015 0.115956
O O13 0.359166 0.278391 0.000000
O O14 0.772991 0.386028 0.500000
O O15 0.407244 0.940794 0.890268
O O16 0.390288 0.814512 0.000000
O O17 0.568389 0.065559 0.500000
O O18 0.500000 0.000000 0.399873
#
# Coordination Sequence:
#
# PCOD9500063 Si02
#       7
#    16  16  16  16  16  16  16
#     4  10  19  32  50  71  97 133 172 210 255 308
#     4  10  20  33  50  73 101 134 170 211 260 313
#     4  12  22  31  47  66  91 129 175 216 253 293
#     4  10  21  36  53  74 101 135 175 216 261 311
#     4   9  17  31  51  75 100 128 166 213 259 302
#     4  10  20  31  43  64  97 132 167 205 250 303
#     4  10  19  31  45  65  95 130 170 218 263 294
#
# _framework density 9.2181069999999998
#
# number of rings (size 3 to 8) (size 9 to 14) (size 15 to 20)
#    0.000    1.857    1.429    4.286    0.000    6.000 
#    0.000    0.714    0.000    0.000    0.000    0.000 
#    0.000    2.286    0.000    8.571    0.000    0.143 
#
# Total GULP energy -311757.852610 kJ/mol
# GULP energy per Si atom -5567.104511 kJ/mol
# Density = 0.919713 g / cm^3
# Si number density = 9.218107 Si / 1000 Ang^3
#
#
#
# Elastic Constant Matrix: (Units=GPa)
#
#
# Indices 1 2 3 4 5 6 
#
# 1 75.4871 13.2617 64.9494 0.0000 0.0000 0.0000
# 2 13.2617 16.7971 9.2464 0.0000 0.0000 0.0000
# 3 64.9494 9.2464 140.9184 0.0000 0.0000 0.0000
# 4 0.0000 0.0000 0.0000 20.6559 0.0000 0.0000
# 5 0.0000 0.0000 0.0000 0.0000 24.4218 0.0000
# 6 0.0000 0.0000 0.0000 0.0000 0.0000 17.0529
#
#
#
# Elastic Compliance Matrix: (Units=1/GPa)
#
#
# Indices 1 2 3 4 5 6 
#
# 1 0.024662 -0.013709 -0.010467 0.000000 0.000000 0.000000
# 2 -0.013709 0.069386 0.001766 0.000000 0.000000 0.000000
# 3 -0.010467 0.001766 0.011805 0.000000 0.000000 0.000000
# 4 0.000000 0.000000 0.000000 0.048412 0.000000 0.000000
# 5 0.000000 0.000000 0.000000 0.000000 0.040947 0.000000
# 6 0.000000 0.000000 0.000000 0.000000 0.000000 0.058641
#
#
# Mechanical properties :
#
#
# Convention : Reuss Voigt Hill
#
# Bulk Modulus (GPa) = 16.38502 45.34640 30.86571
# Shear Modulus (GPa) = 15.67313 22.14244 18.90779
#
# Velocity S-wave (km/s) = 2.91886 3.46935 3.20594
# Velocity P-wave (km/s) = 4.50182 6.37952 5.52108
#
# Compressibility (1/GPa) = 0.06103136
#
# Stress axis : x y z
#
# Youngs Moduli (GPa) = 40.54882 14.41218 84.71191
#
# Poissons Ratio (x) = 0.19758 0.88668
# Poissons Ratio (y) = 0.55589 -0.14958
# Poissons Ratio (z) = 0.42443 -0.02545
#
# Static dielectric constant tensor:
#      x y z
#    x 1.654360 0.000000 0.000000 
#    y 0.000000 1.710770 0.000000 
#    z 0.000000 0.000000 1.709940 
# 
# From -- ./inp_files/33304.got.cif
#   From: 2010.05.17/outbox.ucp.g08.bks.cvg/sg66_17_cif.got.tgz:33304.got - 2010.06.11 16:44:13.
