data_PCOD9500546
_publ_section_title
;
Structure prediction by ZEFSAII (Michael W. Deem and Ramdas Pophale) SiO2 
 PCOD9500546
Probable space group: C M M A
;
_chemical_formula_sum "Si O2"
_cell_formula_units_Z 80
_cell_length_a 10.603166
_cell_length_b 14.615039
_cell_length_c 25.561947
_cell_angle_alpha 90.000000
_cell_angle_beta 90.000000
_cell_angle_gamma 90.000000
_cell_volume 3961.224617
_symmetry_space_group_name_H-M "C M M A"
_symmetry_group_IT_number 67
_symmetry_cell_setting 'orthorhombic'
loop_
_space_group_symop_operation_xyz
x,y,z
-x,1/2-y,z
x,-y,-z
-x,1/2+y,-z
-x,-y,-z
x,1/2+y,-z
-x,y,z
x,1/2-y,z
1/2+x,1/2+y,z
1/2-x,-y,z
1/2+x,1/2-y,-z
1/2-x,y,-z
1/2-x,1/2-y,-z
1/2+x,y,-z
1/2-x,1/2+y,z
1/2+x,-y,z
loop_
_atom_site_type_symbol
_atom_site_label
_atom_site_fract_x
_atom_site_fract_y
_atom_site_fract_z
Si Si1 0.500000 0.387873 0.440920
Si Si2 0.251540 0.391621 0.381690
Si Si3 0.000000 0.388302 0.437939
Si Si4 0.846874 0.645133 0.157571
Si Si5 0.354303 0.637808 0.957735
Si Si6 0.643964 0.860010 0.729377
O O1 0.375570 0.355762 0.410843
O O2 0.500000 0.499663 0.438700
O O3 0.500000 0.361001 0.501468
O O4 0.250000 0.500000 0.390950
O O5 0.123942 0.356722 0.407408
O O6 0.268218 0.378679 0.319882
O O7 0.799639 0.750000 0.156559
O O8 0.816953 0.605217 0.100719
O O9 0.810477 0.604750 0.213906
O O10 0.000000 0.648440 0.159211
O O11 0.500000 0.610691 0.969007
O O12 0.355464 0.750000 0.956267
O O13 0.250000 0.610398 0.000000
O O14 0.500000 0.893419 0.718707
O O15 0.635803 0.750000 0.734422
#
# Coordination Sequence:
#
# PCOD9500546 Si02
#       6
#     8  16   8  16  16  16
#     4   9  16  30  47  67  87 113 148 175 210 258
#     4  10  18  29  47  70  90 111 143 182 218 255
#     4   9  18  28  45  67  93 115 134 177 224 262
#     4   7  11  20  35  55  76 103 141 177 204 238
#     4   8  12  18  30  49  73 100 131 168 207 243
#     4   9  16  28  47  66  86 117 155 184 206 249
#
# _framework density 20.195775999999999
#
# number of rings (size 3 to 8) (size 9 to 14) (size 15 to 20)
#    0.000    3.400    1.000    3.000    0.000    2.400 
#    0.000    0.500    2.200    3.600    0.000    0.000 
#    0.000    0.800    0.000    7.200    0.000    6.400 
#
# Total GULP energy -222816.130489 kJ/mol
# GULP energy per Si atom -5570.403262 kJ/mol
# Density = 2.014981 g / cm^3
# Si number density = 20.195776 Si / 1000 Ang^3
#
#
#
# Elastic Constant Matrix: (Units=GPa)
#
#
# Indices 1 2 3 4 5 6 
#
# 1 128.8468 11.1117 113.2747 0.0000 0.0000 0.0000
# 2 11.1117 52.5909 -1.2942 0.0000 0.0000 0.0000
# 3 113.2747 -1.2942 229.7738 0.0000 0.0000 0.0000
# 4 0.0000 0.0000 0.0000 14.5137 0.0000 0.0000
# 5 0.0000 0.0000 0.0000 0.0000 21.9049 0.0000
# 6 0.0000 0.0000 0.0000 0.0000 0.0000 -8.1507
#
#
#
# Elastic Compliance Matrix: (Units=1/GPa)
#
#
# Indices 1 2 3 4 5 6 
#
# 1 0.014209 -0.003175 -0.007023 0.000000 0.000000 0.000000
# 2 -0.003175 0.019727 0.001676 0.000000 0.000000 0.000000
# 3 -0.007023 0.001676 0.007824 0.000000 0.000000 0.000000
# 4 0.000000 0.000000 0.000000 0.068901 0.000000 0.000000
# 5 0.000000 0.000000 0.000000 0.000000 0.045652 0.000000
# 6 0.000000 0.000000 0.000000 0.000000 0.000000 -0.122690
#
#
# Mechanical properties :
#
#
# Convention : Reuss Voigt Hill
#
# Bulk Modulus (GPa) = 40.45851 73.04401 56.75126
# Shear Modulus (GPa) = 84.88464 24.86154 54.87309
#
# Velocity S-wave (km/s) = 6.49016 3.51241 5.21820
# Velocity P-wave (km/s) = 8.73152 7.25919 8.02917
#
# Compressibility (1/GPa) = 0.02471668
#
# Stress axis : x y z
#
# Youngs Moduli (GPa) = 70.37878 50.69257 127.81880
#
# Poissons Ratio (x) = 0.16095 0.89762
# Poissons Ratio (y) = 0.22345 -0.21426
# Poissons Ratio (z) = 0.49424 -0.08498
#
# Static dielectric constant tensor:
#      x y z
#    x 1.694190 0.000000 0.000000 
#    y 0.000000 1.775600 0.000000 
#    z 0.000000 0.000000 1.747400 
# 
# From -- ./inp_files/43374.got.cif
#   From: 2010.05.17/outbox.cif.g08.bks.cpg/sg67_22_cif.got.tgz:43374.got - 2010.06.03 18:28:57.
