data_PCOD9500561
_publ_section_title
;
Structure prediction by ZEFSAII (Michael W. Deem and Ramdas Pophale) SiO2 
 PCOD9500561
Probable space group: C M M A
;
_chemical_formula_sum "Si O2"
_cell_formula_units_Z 80
_cell_length_a 20.534113
_cell_length_b 15.498091
_cell_length_c 13.573640
_cell_angle_alpha 90.000000
_cell_angle_beta 90.000000
_cell_angle_gamma 90.000000
_cell_volume 4319.669111
_symmetry_space_group_name_H-M "C M M A"
_symmetry_group_IT_number 67
_symmetry_cell_setting 'orthorhombic'
loop_
_space_group_symop_operation_xyz
x,y,z
-x,1/2-y,z
x,-y,-z
-x,1/2+y,-z
-x,-y,-z
x,1/2+y,-z
-x,y,z
x,1/2-y,z
1/2+x,1/2+y,z
1/2-x,-y,z
1/2+x,1/2-y,-z
1/2-x,y,-z
1/2-x,1/2-y,-z
1/2+x,y,-z
1/2-x,1/2+y,z
1/2+x,-y,z
loop_
_atom_site_type_symbol
_atom_site_label
_atom_site_fract_x
_atom_site_fract_y
_atom_site_fract_z
Si Si1 0.568620 0.750000 0.851167
Si Si2 0.212321 0.924737 0.217685
Si Si3 0.072332 0.080419 0.714128
Si Si4 0.291500 0.852666 0.400136
Si Si5 0.926802 0.854315 0.509171
Si Si6 0.796171 0.750000 0.093003
O O1 0.500000 0.750000 0.904156
O O2 0.571050 0.668956 0.777442
O O3 0.626842 0.750000 0.927934
O O4 0.140125 0.957690 0.246974
O O5 0.253751 0.902885 0.315543
O O6 0.212502 0.836119 0.157392
O O7 0.250000 0.000000 0.161762
O O8 0.079519 0.103822 0.598859
O O9 0.000000 0.039918 0.727616
O O10 0.291990 0.750000 0.376357
O O11 0.250000 0.862746 0.500000
O O12 0.365913 0.880150 0.423051
O O13 0.922619 0.750000 0.496614
O O14 0.000000 0.874482 0.546181
O O15 0.750000 0.750000 0.000000
#
# Coordination Sequence:
#
# PCOD9500561 Si02
#       6
#     8  16  16  16  16   8
#     4   8  14  26  53  83 106 128 165 221 278 325
#     4  11  22  36  56  83 110 145 183 222 273 331
#     4   9  15  27  47  76 109 140 179 228 268 302
#     4  10  18  29  49  73 109 148 181 215 262 308
#     4   9  15  24  43  71 106 150 191 224 258 304
#     4  10  22  40  62  84 109 133 174 230 288 331
#
# _framework density 18.519936999999999
#
# number of rings (size 3 to 8) (size 9 to 14) (size 15 to 20)
#    0.000    2.400    4.000    0.000    0.000    0.800 
#    0.000    1.000    0.000    4.800    0.000    5.600 
#    0.000    0.000    0.000    0.000    0.000    0.000 
#
# Total GULP energy -222890.480322 kJ/mol
# GULP energy per Si atom -5572.262008 kJ/mol
# Density = 1.847778 g / cm^3
# Si number density = 18.519937 Si / 1000 Ang^3
#
#
#
# Elastic Constant Matrix: (Units=GPa)
#
#
# Indices 1 2 3 4 5 6 
#
# 1 179.9876 32.4710 42.8034 0.0000 0.0000 0.0000
# 2 32.4710 52.1464 9.4523 0.0000 0.0000 0.0000
# 3 42.8034 9.4523 42.9435 0.0000 0.0000 0.0000
# 4 0.0000 0.0000 0.0000 -8.0727 0.0000 0.0000
# 5 0.0000 0.0000 0.0000 0.0000 27.0912 0.0000
# 6 0.0000 0.0000 0.0000 0.0000 0.0000 17.3902
#
#
#
# Elastic Compliance Matrix: (Units=1/GPa)
#
#
# Indices 1 2 3 4 5 6 
#
# 1 0.007892 -0.003633 -0.007066 0.000000 0.000000 0.000000
# 2 -0.003633 0.021646 -0.001143 0.000000 0.000000 0.000000
# 3 -0.007066 -0.001143 0.030581 0.000000 0.000000 0.000000
# 4 0.000000 0.000000 0.000000 -0.123874 0.000000 0.000000
# 5 0.000000 0.000000 0.000000 0.000000 0.036912 0.000000
# 6 0.000000 0.000000 0.000000 0.000000 0.000000 0.057504
#
#
# Mechanical properties :
#
#
# Convention : Reuss Voigt Hill
#
# Bulk Modulus (GPa) = 27.44691 49.39231 38.41961
# Shear Modulus (GPa) = 75.19703 19.97181 47.58442
#
# Velocity S-wave (km/s) = 6.37898 3.28745 5.07439
# Velocity P-wave (km/s) = 8.31310 6.41385 7.42446
#
# Compressibility (1/GPa) = 0.03643397
#
# Stress axis : x y z
#
# Youngs Moduli (GPa) = 126.71231 46.19710 32.69964
#
# Poissons Ratio (x) = 0.16785 0.23107
# Poissons Ratio (y) = 0.46038 0.03738
# Poissons Ratio (z) = 0.89540 0.05281
#
# Static dielectric constant tensor:
#      x y z
#    x 1.712520 0.000000 0.000000 
#    y 0.000000 1.696900 0.000000 
#    z 0.000000 0.000000 1.573930 
# 
# From -- ./inp_files/20570.got.cif
#   From: 2010.05.17/outbox.cif.g08.bks.cpg/sg67_11_cif.got.tgz:20570.got - 2010.06.03 18:28:57.
