data_PCOD9500509
_publ_section_title
;
Structure prediction by ZEFSAII (Michael W. Deem and Ramdas Pophale) SiO2 
 PCOD9500509
Probable space group: C M M A
;
_chemical_formula_sum "Si O2"
_cell_formula_units_Z 128
_cell_length_a 25.626434
_cell_length_b 17.856843
_cell_length_c 17.135525
_cell_angle_alpha 90.000000
_cell_angle_beta 90.000000
_cell_angle_gamma 90.000000
_cell_volume 7841.339763
_symmetry_space_group_name_H-M "C M M A"
_symmetry_group_IT_number 67
_symmetry_cell_setting 'orthorhombic'
loop_
_space_group_symop_operation_xyz
x,y,z
-x,1/2-y,z
x,-y,-z
-x,1/2+y,-z
-x,-y,-z
x,1/2+y,-z
-x,y,z
x,1/2-y,z
1/2+x,1/2+y,z
1/2-x,-y,z
1/2+x,1/2-y,-z
1/2-x,y,-z
1/2-x,1/2-y,-z
1/2+x,y,-z
1/2-x,1/2+y,z
1/2+x,-y,z
loop_
_atom_site_type_symbol
_atom_site_label
_atom_site_fract_x
_atom_site_fract_y
_atom_site_fract_z
Si Si1 0.561525 0.920138 0.903371
Si Si2 0.697018 0.835770 0.680837
Si Si3 0.397492 0.439174 0.812691
Si Si4 0.437220 0.164979 0.941634
Si Si5 0.557954 0.016774 0.339154
Si Si6 0.915583 0.334839 0.751341
Si Si7 0.332043 0.519637 0.587654
Si Si8 0.213257 0.933781 0.735735
O O1 0.500000 0.941915 0.906732
O O2 0.568054 0.855010 0.838971
O O3 0.593956 0.989614 0.869652
O O4 0.578581 0.888847 0.986826
O O5 0.700069 0.750000 0.654126
O O6 0.646954 0.841949 0.738399
O O7 0.685087 0.896882 0.613693
O O8 0.749943 0.862544 0.722541
O O9 0.419113 0.368984 0.859867
O O10 0.428581 0.462455 0.734087
O O11 0.337996 0.426053 0.787549
O O12 0.500000 0.165573 0.943140
O O13 0.418843 0.250000 0.953282
O O14 0.500000 0.001598 0.369063
O O15 0.560352 0.100618 0.302857
O O16 0.605706 0.011959 0.399043
O O17 0.930432 0.250000 0.731141
O O18 0.317514 0.500000 0.500000
O O19 0.306033 0.464603 0.651306
O O20 0.250000 0.000000 0.768022
#
# Coordination Sequence:
#
# PCOD9500509 Si02
#       8
#    16  16  16  16  16  16  16  16
#     4  10  18  28  45  69  94 120 152 187 227 275
#     4   9  18  32  50  71  93 119 151 187 230 274
#     4  10  18  30  48  66  89 121 155 191 226 267
#     4  10  20  31  44  66  94 122 153 191 235 274
#     4   9  17  28  45  69  93 122 158 184 213 269
#     4   9  16  27  45  69  97 122 145 184 232 273
#     4   9  18  32  48  69  96 121 146 184 230 272
#     4   9  18  32  50  70  90 116 152 188 227 274
#
# _framework density 16.323740999999998
#
# number of rings (size 3 to 8) (size 9 to 14) (size 15 to 20)
#    0.000    2.625    0.000    5.250    0.000    5.500 
#    0.000    1.250    0.000    6.000    0.000    5.250 
#    0.000    0.000    0.000    0.000    0.000    0.000 
#
# Total GULP energy -356627.387366 kJ/mol
# GULP energy per Si atom -5572.302928 kJ/mol
# Density = 1.628659 g / cm^3
# Si number density = 16.323741 Si / 1000 Ang^3
#
#
#
# Elastic Constant Matrix: (Units=GPa)
#
#
# Indices 1 2 3 4 5 6 
#
# 1 87.3171 25.2261 10.1523 0.0000 0.0000 0.0000
# 2 25.2261 49.8182 24.2823 0.0000 0.0000 0.0000
# 3 10.1523 24.2823 53.7372 0.0000 0.0000 0.0000
# 4 0.0000 0.0000 0.0000 12.5096 0.0000 0.0000
# 5 0.0000 0.0000 0.0000 0.0000 7.1873 0.0000
# 6 0.0000 0.0000 0.0000 0.0000 0.0000 18.7958
#
#
#
# Elastic Compliance Matrix: (Units=1/GPa)
#
#
# Indices 1 2 3 4 5 6 
#
# 1 0.013435 -0.007138 0.000687 0.000000 0.000000 0.000000
# 2 -0.007138 0.029535 -0.011998 0.000000 0.000000 0.000000
# 3 0.000687 -0.011998 0.023901 0.000000 0.000000 0.000000
# 4 0.000000 0.000000 0.000000 0.079938 0.000000 0.000000
# 5 0.000000 0.000000 0.000000 0.000000 0.139134 0.000000
# 6 0.000000 0.000000 0.000000 0.000000 0.000000 0.053203
#
#
# Mechanical properties :
#
#
# Convention : Reuss Voigt Hill
#
# Bulk Modulus (GPa) = 33.36207 34.46599 33.91403
# Shear Modulus (GPa) = 12.95224 16.44601 14.69912
#
# Velocity S-wave (km/s) = 2.81990 3.17754 3.00405
# Velocity P-wave (km/s) = 5.57535 5.88407 5.73179
#
# Compressibility (1/GPa) = 0.02997416
#
# Stress axis : x y z
#
# Youngs Moduli (GPa) = 74.43394 33.85800 41.83996
#
# Poissons Ratio (x) = 0.24167 -0.02875
# Poissons Ratio (y) = 0.53130 0.50198
# Poissons Ratio (z) = -0.05115 0.40621
#
# Static dielectric constant tensor:
#      x y z
#    x 1.568220 0.000000 0.000000 
#    y 0.000000 1.559240 0.000000 
#    z 0.000000 0.000000 1.526540 
# 
# From -- ./inp_files/35598.got.cif
#   From: 2010.05.17/outbox.cif.g08.bks.cpg/sg67_18_cif.got.tgz:35598.got - 2010.06.03 18:28:57.
