data_PCOD9500130
_publ_section_title
;
Structure prediction by ZEFSAII (Michael W. Deem and Ramdas Pophale) SiO2 
 PCOD9500130
Probable space group: C C C M
;
_chemical_formula_sum "Si O2"
_cell_formula_units_Z 56
_cell_length_a 27.000000
_cell_length_b 15.000000
_cell_length_c 15.000000
_cell_angle_alpha 90.000000
_cell_angle_beta 90.000000
_cell_angle_gamma 90.000000
_cell_volume 6075.000000
_symmetry_space_group_name_H-M "C C C M"
_symmetry_group_IT_number 66
_symmetry_cell_setting 'orthorhombic'
loop_
_space_group_symop_operation_xyz
x,y,z
-x,-y,z
x,-y,1/2-z
-x,y,1/2-z
-x,-y,-z
x,y,-z
-x,y,1/2+z
x,-y,1/2+z
1/2+x,1/2+y,z
1/2-x,1/2-y,z
1/2+x,1/2-y,1/2-z
1/2-x,1/2+y,1/2-z
1/2-x,1/2-y,-z
1/2+x,1/2+y,-z
1/2-x,1/2+y,1/2+z
1/2+x,1/2-y,1/2+z
loop_
_atom_site_type_symbol
_atom_site_label
_atom_site_fract_x
_atom_site_fract_y
_atom_site_fract_z
Si Si1 0.710366 0.173942 0.192516
Si Si2 0.872207 0.611147 0.173531
Si Si3 0.946756 0.280224 0.208255
Si Si4 0.865929 0.189068 0.895185
Si Si5 0.290877 0.535221 0.149430
Si Si6 0.783362 0.886712 0.000000
Si Si7 0.054439 0.462546 0.393796
Si Si8 0.326114 0.196153 0.000000
O O1 0.750000 0.250000 0.228665
O O2 0.676346 0.119671 0.262931
O O3 0.671854 0.231074 0.133463
O O4 0.743359 0.101117 0.141063
O O5 0.913624 0.675040 0.215274
O O6 0.900483 0.517715 0.152276
O O7 0.854246 0.656826 0.083873
O O8 0.915417 0.201863 0.162748
O O9 0.947815 0.360058 0.135608
O O10 0.000000 0.258784 0.250000
O O11 0.837537 0.097705 0.873096
O O12 0.875822 0.194695 0.000000
O O13 0.292513 0.500000 0.250000
O O14 0.288650 0.451047 0.084743
O O15 0.728979 0.844218 0.000000
O O16 0.820698 0.803096 0.000000
O O17 0.060280 0.471456 0.500000
O O18 0.000000 0.500000 0.368109
#
# Coordination Sequence:
#
# PCOD9500130 Si02
#       8
#    16  16  16  16  16   8  16   8
#     4   9  22  37  63  89 130 161 212 257 308 374
#     4  11  22  39  60  86 124 172 209 254 305 376
#     4  11  23  39  63  87 124 163 205 261 317 371
#     4  10  22  41  64  94 123 161 216 259 313 382
#     4  11  23  41  64  91 124 170 206 262 320 376
#     4  11  26  40  65  87 131 165 205 264 313 370
#     4  11  22  38  58  87 125 162 209 255 305 376
#     4  11  26  40  57  93 125 161 214 250 311 377
#
# _framework density 9.2181069999999998
#
# number of rings (size 3 to 8) (size 9 to 14) (size 15 to 20)
#    0.000    1.429    2.857    1.714    9.000    6.571 
#    1.286    0.000    0.000    0.429    0.000    2.000 
#    0.000    0.000    0.000    0.000    0.000    0.000 
#
# Total GULP energy -312757.895534 kJ/mol
# GULP energy per Si atom -5584.962420 kJ/mol
# Density = 0.919713 g / cm^3
# Si number density = 9.218107 Si / 1000 Ang^3
#
#
#
# Elastic Constant Matrix: (Units=GPa)
#
#
# Indices 1 2 3 4 5 6 
#
# 1 115.3992 32.4141 28.8979 0.0000 0.0000 0.0000
# 2 32.4141 95.5183 27.5171 0.0000 0.0000 0.0000
# 3 28.8979 27.5171 86.9883 0.0000 0.0000 0.0000
# 4 0.0000 0.0000 0.0000 6.5195 0.0000 0.0000
# 5 0.0000 0.0000 0.0000 0.0000 12.4811 0.0000
# 6 0.0000 0.0000 0.0000 0.0000 0.0000 27.2287
#
#
#
# Elastic Compliance Matrix: (Units=1/GPa)
#
#
# Indices 1 2 3 4 5 6 
#
# 1 0.010044 -0.002693 -0.002485 0.000000 0.000000 0.000000
# 2 -0.002693 0.012241 -0.002978 0.000000 0.000000 0.000000
# 3 -0.002485 -0.002978 0.013263 0.000000 0.000000 0.000000
# 4 0.000000 0.000000 0.000000 0.153386 0.000000 0.000000
# 5 0.000000 0.000000 0.000000 0.000000 0.080121 0.000000
# 6 0.000000 0.000000 0.000000 0.000000 0.000000 0.036726
#
#
# Mechanical properties :
#
#
# Convention : Reuss Voigt Hill
#
# Bulk Modulus (GPa) = 51.98117 52.84044 52.41080
# Shear Modulus (GPa) = 15.22051 23.18431 19.20241
#
# Velocity S-wave (km/s) = 2.87640 3.55003 3.23082
# Velocity P-wave (km/s) = 6.26801 6.74737 6.51210
#
# Compressibility (1/GPa) = 0.01923774
#
# Stress axis : x y z
#
# Youngs Moduli (GPa) = 99.56030 81.69438 75.39638
#
# Poissons Ratio (x) = 0.21997 0.18736
# Poissons Ratio (y) = 0.26808 0.22450
# Poissons Ratio (z) = 0.24740 0.24326
#
# Static dielectric constant tensor:
#      x y z
#    x 1.645270 0.000000 0.000000 
#    y 0.000000 1.637130 0.000000 
#    z 0.000000 0.000000 1.659870 
# 
# From -- ./inp_files/28916.got.cif
#   From: 2010.05.17/outbox.ucp.g08.bks.cvg/sg66_15_cif.got.tgz:28916.got - 2010.06.11 16:44:13.
