data_PCOD9500774
_publ_section_title
;
Structure prediction by ZEFSAII (Michael W. Deem and Ramdas Pophale) SiO2 
 PCOD9500774
Probable space group: C M M A
;
_chemical_formula_sum "Si O2"
_cell_formula_units_Z 80
_cell_length_a 18.049021
_cell_length_b 14.640350
_cell_length_c 15.463391
_cell_angle_alpha 90.000000
_cell_angle_beta 90.000000
_cell_angle_gamma 90.000000
_cell_volume 4086.108053
_symmetry_space_group_name_H-M "C M M A"
_symmetry_group_IT_number 67
_symmetry_cell_setting 'orthorhombic'
loop_
_space_group_symop_operation_xyz
x,y,z
-x,1/2-y,z
x,-y,-z
-x,1/2+y,-z
-x,-y,-z
x,1/2+y,-z
-x,y,z
x,1/2-y,z
1/2+x,1/2+y,z
1/2-x,-y,z
1/2+x,1/2-y,-z
1/2-x,y,-z
1/2-x,1/2-y,-z
1/2+x,y,-z
1/2-x,1/2+y,z
1/2+x,-y,z
loop_
_atom_site_type_symbol
_atom_site_label
_atom_site_fract_x
_atom_site_fract_y
_atom_site_fract_z
Si Si1 0.812053 0.648341 0.570697
Si Si2 0.081824 0.645209 0.814770
Si Si3 0.711876 0.100351 0.275002
Si Si4 0.415435 0.992294 0.348427
Si Si5 0.735167 0.891747 0.095283
O O1 0.842173 0.750000 0.552135
O O2 0.750000 0.624837 0.500000
O O3 0.766028 0.651789 0.660137
O O4 0.872677 0.569389 0.581101
O O5 0.088067 0.750000 0.783043
O O6 0.084207 0.574566 0.735703
O O7 0.150558 0.625967 0.876911
O O8 0.000000 0.636205 0.855881
O O9 0.715288 0.138864 0.177862
O O10 0.750000 0.000000 0.269864
O O11 0.633090 0.079683 0.319252
O O12 0.500000 0.013237 0.371470
O O13 0.750000 0.000000 0.089391
O O14 0.750000 0.853568 0.000000
#
# Coordination Sequence:
#
# PCOD9500774 Si02
#       5
#    16  16  16  16  16
#     4  10  20  34  54  79 104 133 169 211 262 311
#     4  10  19  32  51  77 106 133 170 223 270 301
#     4   9  17  33  50  73 105 138 171 213 250 307
#     4  10  19  33  54  79 104 133 172 215 264 307
#     4  10  18  32  51  76 108 143 180 210 254 318
#
# _framework density 19.578533
#
# number of rings (size 3 to 8) (size 9 to 14) (size 15 to 20)
#    0.000    2.200    6.000    0.600    0.000    5.200 
#    0.000    5.000    0.000    1.800    0.000    0.000 
#    0.000    0.000    0.000    0.000    0.000    0.000 
#
# Total GULP energy -222965.423731 kJ/mol
# GULP energy per Si atom -5574.135593 kJ/mol
# Density = 1.953397 g / cm^3
# Si number density = 19.578533 Si / 1000 Ang^3
#
#
#
# Elastic Constant Matrix: (Units=GPa)
#
#
# Indices 1 2 3 4 5 6 
#
# 1 145.1260 23.4743 20.2844 0.0000 0.0000 0.0000
# 2 23.4743 49.8454 -3.3850 0.0000 0.0000 0.0000
# 3 20.2844 -3.3850 70.5673 0.0000 0.0000 0.0000
# 4 0.0000 0.0000 0.0000 -17.6103 0.0000 0.0000
# 5 0.0000 0.0000 0.0000 0.0000 38.4315 0.0000
# 6 0.0000 0.0000 0.0000 0.0000 0.0000 73.0765
#
#
#
# Elastic Compliance Matrix: (Units=1/GPa)
#
#
# Indices 1 2 3 4 5 6 
#
# 1 0.007858 -0.003866 -0.002444 0.000000 0.000000 0.000000
# 2 -0.003866 0.022030 0.002168 0.000000 0.000000 0.000000
# 3 -0.002444 0.002168 0.014977 0.000000 0.000000 0.000000
# 4 0.000000 0.000000 0.000000 -0.056785 0.000000 0.000000
# 5 0.000000 0.000000 0.000000 0.000000 0.026020 0.000000
# 6 0.000000 0.000000 0.000000 0.000000 0.000000 0.013684
#
#
# Mechanical properties :
#
#
# Convention : Reuss Voigt Hill
#
# Bulk Modulus (GPa) = 27.33708 38.47623 32.90665
# Shear Modulus (GPa) = 103.59911 33.79055 68.69483
#
# Velocity S-wave (km/s) = 7.28214 4.15890 5.92984
# Velocity P-wave (km/s) = 9.20321 6.53887 7.98298
#
# Compressibility (1/GPa) = 0.03658035
#
# Stress axis : x y z
#
# Youngs Moduli (GPa) = 127.26561 45.39235 66.76713
#
# Poissons Ratio (x) = 0.17551 0.16319
# Poissons Ratio (y) = 0.49207 -0.14476
# Poissons Ratio (z) = 0.31105 -0.09842
#
# Static dielectric constant tensor:
#      x y z
#    x 1.699150 0.000000 0.000000 
#    y 0.000000 1.711740 0.000000 
#    z 0.000000 0.000000 1.747140 
# 
# From -- ./inp_files/28361.got.cif
#   From: 2010.05.17/outbox.cif.g08.bks.cpg/sg67_15_cif.got.tgz:28361.got - 2010.06.03 18:28:57.
