data_PCOD9500839
_publ_section_title
;
Structure prediction by ZEFSAII (Michael W. Deem and Ramdas Pophale) SiO2 
 PCOD9500839
Probable space group: C M M A
;
_chemical_formula_sum "Si O2"
_cell_formula_units_Z 64
_cell_length_a 20.972030
_cell_length_b 17.103938
_cell_length_c 7.801437
_cell_angle_alpha 90.000000
_cell_angle_beta 90.000000
_cell_angle_gamma 90.000000
_cell_volume 2798.409005
_symmetry_space_group_name_H-M "C M M A"
_symmetry_group_IT_number 67
_symmetry_cell_setting 'orthorhombic'
loop_
_space_group_symop_operation_xyz
x,y,z
-x,1/2-y,z
x,-y,-z
-x,1/2+y,-z
-x,-y,-z
x,1/2+y,-z
-x,y,z
x,1/2-y,z
1/2+x,1/2+y,z
1/2-x,-y,z
1/2+x,1/2-y,-z
1/2-x,y,-z
1/2-x,1/2-y,-z
1/2+x,y,-z
1/2-x,1/2+y,z
1/2+x,-y,z
loop_
_atom_site_type_symbol
_atom_site_label
_atom_site_fract_x
_atom_site_fract_y
_atom_site_fract_z
Si Si1 0.500000 0.486332 0.800960
Si Si2 0.241368 0.090128 0.790989
Si Si3 0.404003 0.613737 0.700986
Si Si4 0.000000 0.660204 0.586380
Si Si5 0.701588 0.250000 0.833164
Si Si6 0.570386 0.250000 0.029479
O O1 0.437457 0.530254 0.730979
O O2 0.500000 0.397880 0.744394
O O3 0.500000 0.500000 0.000000
O O4 0.171152 0.110097 0.722671
O O5 0.283834 0.166610 0.741899
O O6 0.250000 0.000000 0.732544
O O7 0.250000 0.086652 0.000000
O O8 0.437082 0.642402 0.527548
O O9 0.424387 0.674234 0.848892
O O10 0.000000 0.750000 0.618721
O O11 0.870552 0.250000 0.099563
O O12 0.750000 0.250000 0.000000
O O13 0.500000 0.250000 0.958195
#
# Coordination Sequence:
#
# PCOD9500839 Si02
#       6
#     8  16  16   8   8   8
#     4  11  27  42  65 102 144 183 240 303 374 461
#     4  10  20  32  59  98 145 189 248 311 371 425
#     4  11  19  38  68  99 139 191 246 296 363 441
#     4  11  23  45  73 105 147 190 243 312 376 445
#     4  10  18  32  54  90 146 186 254 313 372 432
#     4  12  18  32  58 102 136 190 242 307 372 447
#
# _framework density 22.870137
#
# number of rings (size 3 to 8) (size 9 to 14) (size 15 to 20)
#    0.000    1.250    8.750    1.500    3.500    0.000 
#    2.250    0.000    2.750    3.000    0.000    1.750 
#    0.000    0.000    0.000    0.000    0.000    0.000 
#
# Total GULP energy -178773.111982 kJ/mol
# GULP energy per Si atom -5586.659749 kJ/mol
# Density = 2.281808 g / cm^3
# Si number density = 22.870137 Si / 1000 Ang^3
#
#
#
# Elastic Constant Matrix: (Units=GPa)
#
#
# Indices 1 2 3 4 5 6 
#
# 1 170.0788 67.3810 44.0797 0.0000 0.0000 0.0000
# 2 67.3810 242.5537 60.8453 0.0000 0.0000 0.0000
# 3 44.0797 60.8453 87.7920 0.0000 0.0000 0.0000
# 4 0.0000 0.0000 0.0000 21.2199 0.0000 0.0000
# 5 0.0000 0.0000 0.0000 0.0000 41.8937 0.0000
# 6 0.0000 0.0000 0.0000 0.0000 0.0000 -36.2564
#
#
#
# Elastic Compliance Matrix: (Units=1/GPa)
#
#
# Indices 1 2 3 4 5 6 
#
# 1 0.007083 -0.001302 -0.002654 0.000000 0.000000 0.000000
# 2 -0.001302 0.005230 -0.002971 0.000000 0.000000 0.000000
# 3 -0.002654 -0.002971 0.014782 0.000000 0.000000 0.000000
# 4 0.000000 0.000000 0.000000 0.047126 0.000000 0.000000
# 5 0.000000 0.000000 0.000000 0.000000 0.023870 0.000000
# 6 0.000000 0.000000 0.000000 0.000000 0.000000 -0.027581
#
#
# Mechanical properties :
#
#
# Convention : Reuss Voigt Hill
#
# Bulk Modulus (GPa) = 75.52098 93.89294 84.70696
# Shear Modulus (GPa) = 56.32090 27.24600 41.78345
#
# Velocity S-wave (km/s) = 4.96788 3.45532 4.27896
# Velocity P-wave (km/s) = 8.12403 7.55400 7.84419
#
# Compressibility (1/GPa) = 0.01324135
#
# Stress axis : x y z
#
# Youngs Moduli (GPa) = 141.17704 191.21520 67.64906
#
# Poissons Ratio (x) = 0.24895 0.17955
# Poissons Ratio (y) = 0.18380 0.20097
# Poissons Ratio (z) = 0.37471 0.56807
#
# Static dielectric constant tensor:
#      x y z
#    x 1.189830 0.000000 0.000000 
#    y 0.000000 1.902520 0.000000 
#    z 0.000000 0.000000 1.894470 
# 
# From -- ./inp_files/10749.got.cif
#   From: 2010.05.17/outbox.cif.g08.bks.cpg/sg67_6_cif.got.tgz:10749.got - 2010.06.03 18:28:57.
