data_PCOD9500439
_publ_section_title
;
Structure prediction by ZEFSAII (Michael W. Deem and Ramdas Pophale) SiO2 
 PCOD9500439
Probable space group: C M M A
;
_chemical_formula_sum "Si O2"
_cell_formula_units_Z 48
_cell_length_a 10.115844
_cell_length_b 28.532516
_cell_length_c 8.737432
_cell_angle_alpha 90.000000
_cell_angle_beta 90.000000
_cell_angle_gamma 90.000000
_cell_volume 2521.889199
_symmetry_space_group_name_H-M "C M M A"
_symmetry_group_IT_number 67
_symmetry_cell_setting 'orthorhombic'
loop_
_space_group_symop_operation_xyz
x,y,z
-x,1/2-y,z
x,-y,-z
-x,1/2+y,-z
-x,-y,-z
x,1/2+y,-z
-x,y,z
x,1/2-y,z
1/2+x,1/2+y,z
1/2-x,-y,z
1/2+x,1/2-y,-z
1/2-x,y,-z
1/2-x,1/2-y,-z
1/2+x,y,-z
1/2-x,1/2+y,z
1/2+x,-y,z
loop_
_atom_site_type_symbol
_atom_site_label
_atom_site_fract_x
_atom_site_fract_y
_atom_site_fract_z
Si Si1 0.500000 0.697701 0.676324
Si Si2 0.000000 0.457726 0.121023
Si Si3 0.733632 0.929270 0.330166
Si Si4 0.000000 0.099637 0.835305
Si Si5 0.750000 0.661274 0.500000
O O1 0.500000 0.750000 0.741285
O O2 0.500000 0.654569 0.795232
O O3 0.631010 0.689895 0.573650
O O4 0.872015 0.455875 0.228227
O O5 0.000000 0.500000 0.000000
O O6 0.000000 0.411817 0.013559
O O7 0.750000 0.949774 0.500000
O O8 0.692059 0.875496 0.373548
O O9 0.871654 0.923498 0.242979
#
# Coordination Sequence:
#
# PCOD9500439 Si02
#       5
#     8   8  16   8   8
#     4  10  17  31  56  88 119 156 199 243 298 360
#     4  12  24  39  61  91 120 156 203 247 309 361
#     4   9  19  39  63  82 116 156 205 245 292 349
#     4  10  21  36  56  88 121 159 190 251 309 350
#     4   8  17  32  60  83 114 154 202 251 291 334
#
# _framework density 19.033349999999999
#
# number of rings (size 3 to 8) (size 9 to 14) (size 15 to 20)
#    1.000    1.333    0.000    3.500    0.000    2.667 
#    0.000    5.000    0.000   20.000    0.000    0.000 
#    0.000    0.000    0.000    0.000    0.000    0.000 
#
# Total GULP energy -133817.443046 kJ/mol
# GULP energy per Si atom -5575.726794 kJ/mol
# Density = 1.899003 g / cm^3
# Si number density = 19.033350 Si / 1000 Ang^3
#
#
#
# Elastic Constant Matrix: (Units=GPa)
#
#
# Indices 1 2 3 4 5 6 
#
# 1 115.2441 56.0576 63.6517 0.0000 0.0000 0.0000
# 2 56.0576 115.7743 41.9046 0.0000 0.0000 0.0000
# 3 63.6517 41.9046 131.6036 0.0000 0.0000 0.0000
# 4 0.0000 0.0000 0.0000 17.9092 0.0000 0.0000
# 5 0.0000 0.0000 0.0000 0.0000 27.5092 0.0000
# 6 0.0000 0.0000 0.0000 0.0000 0.0000 3.2052
#
#
#
# Elastic Compliance Matrix: (Units=1/GPa)
#
#
# Indices 1 2 3 4 5 6 
#
# 1 0.013898 -0.004856 -0.005176 0.000000 0.000000 0.000000
# 2 -0.004856 0.011459 -0.001300 0.000000 0.000000 0.000000
# 3 -0.005176 -0.001300 0.010516 0.000000 0.000000 0.000000
# 4 0.000000 0.000000 0.000000 0.055837 0.000000 0.000000
# 5 0.000000 0.000000 0.000000 0.000000 0.036351 0.000000
# 6 0.000000 0.000000 0.000000 0.000000 0.000000 0.311989
#
#
# Mechanical properties :
#
#
# Convention : Reuss Voigt Hill
#
# Bulk Modulus (GPa) = 75.70342 76.20552 75.95447
# Shear Modulus (GPa) = 10.70394 23.12525 16.91460
#
# Velocity S-wave (km/s) = 2.37402 3.48945 2.98431
# Velocity P-wave (km/s) = 6.88296 7.50732 7.20191
#
# Compressibility (1/GPa) = 0.01320944
#
# Stress axis : x y z
#
# Youngs Moduli (GPa) = 71.95300 87.26489 95.09445
#
# Poissons Ratio (x) = 0.42376 0.49218
# Poissons Ratio (y) = 0.34940 0.12364
# Poissons Ratio (z) = 0.37241 0.11346
#
# Static dielectric constant tensor:
#      x y z
#    x 1.663010 0.000000 0.000000 
#    y 0.000000 1.694260 0.000000 
#    z 0.000000 0.000000 1.648050 
# 
# From -- ./inp_files/5713.got.cif
#   From: 2010.05.17/outbox.cif.g08.bks.cpg/sg67_3_cif.got.tgz:5713.got - 2010.06.03 18:28:57.
