data_PCOD9500140
_publ_section_title
;
Structure prediction by ZEFSAII (Michael W. Deem and Ramdas Pophale) SiO2 
 PCOD9500140
Probable space group: C C C M
;
_chemical_formula_sum "Si O2"
_cell_formula_units_Z 40
_cell_length_a 27.000000
_cell_length_b 18.000000
_cell_length_c 9.000000
_cell_angle_alpha 90.000000
_cell_angle_beta 90.000000
_cell_angle_gamma 90.000000
_cell_volume 4374.000000
_symmetry_space_group_name_H-M "C C C M"
_symmetry_group_IT_number 66
_symmetry_cell_setting 'orthorhombic'
loop_
_space_group_symop_operation_xyz
x,y,z
-x,-y,z
x,-y,1/2-z
-x,y,1/2-z
-x,-y,-z
x,y,-z
-x,y,1/2+z
x,-y,1/2+z
1/2+x,1/2+y,z
1/2-x,1/2-y,z
1/2+x,1/2-y,1/2-z
1/2-x,1/2+y,1/2-z
1/2-x,1/2-y,-z
1/2+x,1/2+y,-z
1/2-x,1/2+y,1/2+z
1/2+x,1/2-y,1/2+z
loop_
_atom_site_type_symbol
_atom_site_label
_atom_site_fract_x
_atom_site_fract_y
_atom_site_fract_z
Si Si1 0.949384 0.333435 0.672568
Si Si2 0.346879 0.167426 0.322606
Si Si3 0.549665 0.347925 0.670313
Si Si4 0.156234 0.828681 0.678526
Si Si5 0.256408 0.920166 0.676838
O O1 0.947424 0.354852 0.500000
O O2 0.900161 0.357610 0.758720
O O3 0.950046 0.242702 0.677274
O O4 0.000000 0.358820 0.750000
O O5 0.346578 0.163703 0.500000
O O6 0.339924 0.251845 0.266345
O O7 0.302440 0.120995 0.252276
O O8 0.500000 0.374043 0.750000
O O9 0.545897 0.370614 0.500000
O O10 0.604710 0.368242 0.725560
O O11 0.151818 0.812964 0.500000
O O12 0.205458 0.875602 0.701567
O O13 0.264534 0.925094 0.500000
O O14 0.251531 0.000000 0.750000
#
# Coordination Sequence:
#
# PCOD9500140 Si02
#       5
#    16  16  16  16  16
#     4   9  16  28  47  74 107 139 171 210 257 305
#     4  11  21  33  53  81 109 138 175 216 258 310
#     4   8  14  25  43  70 101 131 163 201 249 301
#     4   9  19  35  54  76 105 139 173 215 266 313
#     4  11  23  39  56  74 101 137 176 220 270 319
#
# _framework density 9.1449470000000002
#
# number of rings (size 3 to 8) (size 9 to 14) (size 15 to 20)
#    0.000    2.400    0.000    4.800    0.000    8.800 
#    0.000    0.000    0.000    1.200    0.000    8.400 
#    0.000    0.000    0.000    0.000    0.000    0.000 
#
# Total GULP energy -223075.234569 kJ/mol
# GULP energy per Si atom -5576.880864 kJ/mol
# Density = 0.912413 g / cm^3
# Si number density = 9.144947 Si / 1000 Ang^3
#
#
#
# Elastic Constant Matrix: (Units=GPa)
#
#
# Indices 1 2 3 4 5 6 
#
# 1 221.7563 61.4726 117.4549 0.0000 0.0000 0.0000
# 2 61.4726 37.9039 49.5547 0.0000 0.0000 0.0000
# 3 117.4549 49.5547 130.3877 0.0000 0.0000 0.0000
# 4 0.0000 0.0000 0.0000 4.1087 0.0000 0.0000
# 5 0.0000 0.0000 0.0000 0.0000 34.7372 0.0000
# 6 0.0000 0.0000 0.0000 0.0000 0.0000 -28.5879
#
#
#
# Elastic Compliance Matrix: (Units=1/GPa)
#
#
# Indices 1 2 3 4 5 6 
#
# 1 0.009892 -0.008731 -0.005592 0.000000 0.000000 0.000000
# 2 -0.008731 0.060145 -0.014993 0.000000 0.000000 0.000000
# 3 -0.005592 -0.014993 0.018405 0.000000 0.000000 0.000000
# 4 0.000000 0.000000 0.000000 0.243385 0.000000 0.000000
# 5 0.000000 0.000000 0.000000 0.000000 0.028788 0.000000
# 6 0.000000 0.000000 0.000000 0.000000 0.000000 -0.034980
#
#
# Mechanical properties :
#
#
# Convention : Reuss Voigt Hill
#
# Bulk Modulus (GPa) = 33.54766 94.11248 63.83007
# Shear Modulus (GPa) = 12.68380 12.82266 12.75323
#
# Velocity S-wave (km/s) = 2.63627 2.65066 2.64348
# Velocity P-wave (km/s) = 5.25819 7.80613 6.65523
#
# Compressibility (1/GPa) = 0.02980834
#
# Stress axis : x y z
#
# Youngs Moduli (GPa) = 101.09305 16.62660 54.33243
#
# Poissons Ratio (x) = 0.14517 0.30384
# Poissons Ratio (y) = 0.88269 0.81460
# Poissons Ratio (z) = 0.56534 0.24928
#
# Static dielectric constant tensor:
#      x y z
#    x 1.655110 0.000000 0.000000 
#    y 0.000000 1.621960 0.000000 
#    z 0.000000 0.000000 1.613080 
# 
# From -- ./inp_files/6693.got.cif
#   From: 2010.05.17/outbox.ucp.g08.bks.cvg/sg66_4_cif.got.tgz:6693.got - 2010.06.11 16:44:13.
