data_PCOD9500349
_publ_section_title
;
Structure prediction by ZEFSAII (Michael W. Deem and Ramdas Pophale) SiO2 
 PCOD9500349
Probable space group: C M M A
;
_chemical_formula_sum "Si O2"
_cell_formula_units_Z 116
_cell_length_a 27.957916
_cell_length_b 14.808071
_cell_length_c 14.690375
_cell_angle_alpha 90.000000
_cell_angle_beta 90.000000
_cell_angle_gamma 90.000000
_cell_volume 6081.856459
_symmetry_space_group_name_H-M "C M M A"
_symmetry_group_IT_number 67
_symmetry_cell_setting 'orthorhombic'
loop_
_space_group_symop_operation_xyz
x,y,z
-x,1/2-y,z
x,-y,-z
-x,1/2+y,-z
-x,-y,-z
x,1/2+y,-z
-x,y,z
x,1/2-y,z
1/2+x,1/2+y,z
1/2-x,-y,z
1/2+x,1/2-y,-z
1/2-x,y,-z
1/2-x,1/2-y,-z
1/2+x,y,-z
1/2-x,1/2+y,z
1/2+x,-y,z
loop_
_atom_site_type_symbol
_atom_site_label
_atom_site_fract_x
_atom_site_fract_y
_atom_site_fract_z
Si Si1 0.804751 0.859848 0.102049
Si Si2 0.734981 0.139954 0.600086
Si Si3 0.830636 0.640685 0.296177
Si Si4 0.146483 0.142242 0.284443
Si Si5 0.925105 0.605767 0.401648
Si Si6 0.054267 0.896805 0.606402
Si Si7 0.500000 0.250000 0.336768
Si Si8 0.693166 0.860057 0.099659
O O1 0.805273 0.750000 0.102303
O O2 0.833775 0.888482 0.190998
O O3 0.748862 0.885536 0.112378
O O4 0.821485 0.889281 0.001990
O O5 0.732515 0.250000 0.595870
O O6 0.750000 0.108728 0.500000
O O7 0.778134 0.116559 0.667546
O O8 0.684691 0.107136 0.640792
O O9 0.833890 0.750000 0.299952
O O10 0.872020 0.604720 0.361066
O O11 0.153469 0.250000 0.281383
O O12 0.092815 0.126905 0.317278
O O13 0.161650 0.108386 0.184579
O O14 0.927834 0.636688 0.507210
O O15 0.945303 0.505036 0.398888
O O16 0.958226 0.671845 0.344193
O O17 0.000000 0.864792 0.621035
O O18 0.692257 0.750000 0.099323
#
# Coordination Sequence:
#
# PCOD9500349 Si02
#       8
#    16  16  16  16  16  16   4  16
#     4   8  13  23  45  75 110 136 172 227 268 309
#     4   9  16  26  39  69 109 138 172 215 254 312
#     4  10  17  27  50  80 104 136 177 215 269 327
#     4  10  19  30  51  76 105 147 188 214 260 324
#     4  11  22  37  56  80 106 134 174 226 269 315
#     4  11  23  39  52  75 108 140 176 227 272 305
#     4  12  20  38  64  80 100 134 184 228 260 320
#     4   8  13  25  44  74 108 141 176 221 266 309
#
# _framework density 19.073122999999999
#
# number of rings (size 3 to 8) (size 9 to 14) (size 15 to 20)
#    0.000    2.345    3.448    2.069    0.966    1.379 
#    0.000    0.690    0.000    3.310    1.793    2.897 
#    0.000    0.000    0.000    0.000    0.000    0.000 
#
# Total GULP energy -323175.335277 kJ/mol
# GULP energy per Si atom -5571.988539 kJ/mol
# Density = 1.902971 g / cm^3
# Si number density = 19.073123 Si / 1000 Ang^3
#
#
#
# Elastic Constant Matrix: (Units=GPa)
#
#
# Indices 1 2 3 4 5 6 
#
# 1 122.8132 0.5905 76.4521 0.0000 0.0000 0.0000
# 2 0.5905 51.9171 1.6356 0.0000 0.0000 0.0000
# 3 76.4521 1.6356 150.1129 0.0000 0.0000 0.0000
# 4 0.0000 0.0000 0.0000 -363.6110 0.0000 0.0000
# 5 0.0000 0.0000 0.0000 0.0000 9.5094 0.0000
# 6 0.0000 0.0000 0.0000 0.0000 0.0000 -27.6674
#
#
#
# Elastic Compliance Matrix: (Units=1/GPa)
#
#
# Indices 1 2 3 4 5 6 
#
# 1 0.011922 0.000056 -0.006073 0.000000 0.000000 0.000000
# 2 0.000056 0.019268 -0.000238 0.000000 0.000000 0.000000
# 3 -0.006073 -0.000238 0.009757 0.000000 0.000000 0.000000
# 4 0.000000 0.000000 0.000000 -0.002750 0.000000 0.000000
# 5 0.000000 0.000000 0.000000 0.000000 0.105160 0.000000
# 6 0.000000 0.000000 0.000000 0.000000 0.000000 -0.036144
#
#
# Mechanical properties :
#
#
# Convention : Reuss Voigt Hill
#
# Bulk Modulus (GPa) = 35.16507 53.57772 44.37140
# Shear Modulus (GPa) = 38.69868 -59.94281 -10.62206
#
# Velocity S-wave (km/s) = 4.50929 -5.61214 -2.36246
# Velocity P-wave (km/s) = 6.75193 3.72064 3.98406
#
# Compressibility (1/GPa) = 0.02843731
#
# Stress axis : x y z
#
# Youngs Moduli (GPa) = 83.87515 51.89854 102.48986
#
# Poissons Ratio (x) = -0.00289 0.62239
# Poissons Ratio (y) = -0.00467 0.02443
# Poissons Ratio (z) = 0.50935 0.01237
#
# Static dielectric constant tensor:
#      x y z
#    x 1.652430 0.000000 0.000000 
#    y 0.000000 1.732640 0.000000 
#    z 0.000000 0.000000 1.690310 
# 
# From -- ./inp_files/28779.got.cif
#   From: 2010.05.17/outbox.cif.g08.bks.cpg/sg67_15_cif.got.tgz:28779.got - 2010.06.03 18:28:57.
