data_PCOD9500434
_publ_section_title
;
Structure prediction by ZEFSAII (Michael W. Deem and Ramdas Pophale) SiO2 
 PCOD9500434
Probable space group: C M M A
;
_chemical_formula_sum "Si O2"
_cell_formula_units_Z 48
_cell_length_a 13.965739
_cell_length_b 13.902742
_cell_length_c 11.296332
_cell_angle_alpha 90.000000
_cell_angle_beta 90.000000
_cell_angle_gamma 90.000000
_cell_volume 2193.319161
_symmetry_space_group_name_H-M "C M M A"
_symmetry_group_IT_number 67
_symmetry_cell_setting 'orthorhombic'
loop_
_space_group_symop_operation_xyz
x,y,z
-x,1/2-y,z
x,-y,-z
-x,1/2+y,-z
-x,-y,-z
x,1/2+y,-z
-x,y,z
x,1/2-y,z
1/2+x,1/2+y,z
1/2-x,-y,z
1/2+x,1/2-y,-z
1/2-x,y,-z
1/2-x,1/2-y,-z
1/2+x,y,-z
1/2-x,1/2+y,z
1/2+x,-y,z
loop_
_atom_site_type_symbol
_atom_site_label
_atom_site_fract_x
_atom_site_fract_y
_atom_site_fract_z
Si Si1 0.887877 0.750000 0.193298
Si Si2 0.140399 0.037022 0.372939
Si Si3 0.206060 0.750000 0.629571
Si Si4 0.140647 0.539030 0.122877
O O1 0.801047 0.750000 0.288377
O O2 0.869893 0.846655 0.120321
O O3 0.000000 0.750000 0.235564
O O4 0.145389 0.152197 0.359243
O O5 0.101583 0.000000 0.500000
O O6 0.250000 0.000000 0.375840
O O7 0.100902 0.993463 0.250898
O O8 0.250000 0.750000 0.500000
O O9 0.250000 0.500000 0.125383
O O10 0.100525 0.500000 0.000000
#
# Coordination Sequence:
#
# PCOD9500434 Si02
#       4
#     8  16   8  16
#     4  12  24  38  60  97 127 162 204 258 324 376
#     4  10  17  30  56  89 116 148 209 252 300 342
#     4  12  18  33  61  86 116 162 210 246 298 370
#     4  10  21  37  60  88 123 159 215 257 297 363
#
# _framework density 21.884639
#
# number of rings (size 3 to 8) (size 9 to 14) (size 15 to 20)
#    0.000    1.333   10.000    0.000    0.000    4.667 
#    0.000    0.000    0.000   16.000    0.000    2.333 
#    0.000    0.000    0.000    0.000    0.000    0.000 
#
# Total GULP energy -133801.878492 kJ/mol
# GULP energy per Si atom -5575.078271 kJ/mol
# Density = 2.183483 g / cm^3
# Si number density = 21.884639 Si / 1000 Ang^3
#
#
#
# Elastic Constant Matrix: (Units=GPa)
#
#
# Indices 1 2 3 4 5 6 
#
# 1 127.0997 26.7990 28.9966 0.0000 0.0000 0.0000
# 2 26.7990 247.1394 85.2236 0.0000 0.0000 0.0000
# 3 28.9966 85.2236 234.8906 0.0000 0.0000 0.0000
# 4 0.0000 0.0000 0.0000 25.7127 0.0000 0.0000
# 5 0.0000 0.0000 0.0000 0.0000 -34.0353 0.0000
# 6 0.0000 0.0000 0.0000 0.0000 0.0000 58.2042
#
#
#
# Elastic Compliance Matrix: (Units=1/GPa)
#
#
# Indices 1 2 3 4 5 6 
#
# 1 0.008177 -0.000616 -0.000786 0.000000 0.000000 0.000000
# 2 -0.000616 0.004671 -0.001619 0.000000 0.000000 0.000000
# 3 -0.000786 -0.001619 0.004942 0.000000 0.000000 0.000000
# 4 0.000000 0.000000 0.000000 0.038891 0.000000 0.000000
# 5 0.000000 0.000000 0.000000 0.000000 -0.029381 0.000000
# 6 0.000000 0.000000 0.000000 0.000000 0.000000 0.017181
#
#
# Mechanical properties :
#
#
# Convention : Reuss Voigt Hill
#
# Bulk Modulus (GPa) = 85.11441 99.01868 92.06655
# Shear Modulus (GPa) = 91.84699 41.18368 66.51534
#
# Velocity S-wave (km/s) = 6.48535 4.34274 5.51902
# Velocity P-wave (km/s) = 9.74969 8.39582 9.09798
#
# Compressibility (1/GPa) = 0.01174889
#
# Stress axis : x y z
#
# Youngs Moduli (GPa) = 122.29464 214.07315 202.35973
#
# Poissons Ratio (x) = 0.13179 0.15907
# Poissons Ratio (y) = 0.07529 0.32759
# Poissons Ratio (z) = 0.09613 0.34655
#
# Static dielectric constant tensor:
#      x y z
#    x 1.803270 0.000000 0.000000 
#    y 0.000000 1.789330 0.000000 
#    z 0.000000 0.000000 1.826200 
# 
# From -- ./inp_files/17155.got.cif
#   From: 2010.05.17/outbox.cif.g08.bks.cpg/sg67_9_cif.got.tgz:17155.got - 2010.06.03 18:28:57.
