data_PCOD9500151
_publ_section_title
;
Structure prediction by ZEFSAII (Michael W. Deem and Ramdas Pophale) SiO2 
 PCOD9500151
Probable space group: C M M A
;
_chemical_formula_sum "Si O2"
_cell_formula_units_Z 116
_cell_length_a 30.199723
_cell_length_b 13.991738
_cell_length_c 12.422840
_cell_angle_alpha 90.000000
_cell_angle_beta 90.000000
_cell_angle_gamma 90.000000
_cell_volume 5249.228952
_symmetry_space_group_name_H-M "C M M A"
_symmetry_group_IT_number 67
_symmetry_cell_setting 'orthorhombic'
loop_
_space_group_symop_operation_xyz
x,y,z
-x,1/2-y,z
x,-y,-z
-x,1/2+y,-z
-x,-y,-z
x,1/2+y,-z
-x,y,z
x,1/2-y,z
1/2+x,1/2+y,z
1/2-x,-y,z
1/2+x,1/2-y,-z
1/2-x,y,-z
1/2-x,1/2-y,-z
1/2+x,y,-z
1/2-x,1/2+y,z
1/2+x,-y,z
loop_
_atom_site_type_symbol
_atom_site_label
_atom_site_fract_x
_atom_site_fract_y
_atom_site_fract_z
Si Si1 0.141994 0.137773 0.463874
Si Si2 0.366257 0.633930 0.906511
Si Si3 0.177991 0.133848 0.681544
Si Si4 0.792379 0.633986 0.929302
Si Si5 0.047444 0.565900 0.192447
Si Si6 0.000000 0.250000 0.734619
Si Si7 0.778394 0.632963 0.685708
Si Si8 0.950964 0.069401 0.396151
O O1 0.150880 0.250000 0.472250
O O2 0.145711 0.100256 0.586030
O O3 0.182335 0.099892 0.391629
O O4 0.093639 0.127553 0.414198
O O5 0.372230 0.750000 0.907582
O O6 0.338116 0.607280 0.800035
O O7 0.413077 0.583405 0.889410
O O8 0.337552 0.608087 0.010537
O O9 0.177987 0.250000 0.684497
O O10 0.228385 0.104757 0.656668
O O11 0.791364 0.750000 0.926690
O O12 0.788091 0.601164 0.807369
O O13 0.750000 0.605435 0.000000
O O14 0.038023 0.665451 0.255987
O O15 0.054419 0.487764 0.284632
O O16 0.000000 0.545818 0.137507
O O17 0.778630 0.750000 0.685176
O O18 0.000000 0.117230 0.393960
O O19 0.952393 0.000000 0.500000
#
# Coordination Sequence:
#
# PCOD9500151 Si02
#       8
#    16  16  16  16  16   4  16  16
#     4  10  20  33  52  77 106 144 186 219 262 319
#     4  10  15  24  46  76 108 136 173 217 273 331
#     4   9  16  25  44  73 104 138 179 225 266 310
#     4   9  15  24  42  75 111 138 169 220 270 313
#     4   9  17  31  50  73 107 136 173 228 280 326
#     4   8  16  32  50  80 104 134 180 228 284 324
#     4   9  16  29  46  72 108 143 181 222 260 314
#     4  10  21  37  52  75 106 139 176 224 277 324
#
# _framework density 22.098483999999999
#
# number of rings (size 3 to 8) (size 9 to 14) (size 15 to 20)
#    0.414    2.207    2.069    1.241    0.000    1.931 
#    1.241    0.000    0.000    7.448    0.000    6.759 
#    0.000    0.000    0.000    0.000    0.000    0.000 
#
# Total GULP energy -323374.735410 kJ/mol
# GULP energy per Si atom -5575.426473 kJ/mol
# Density = 2.204819 g / cm^3
# Si number density = 22.098484 Si / 1000 Ang^3
#
#
#
# Elastic Constant Matrix: (Units=GPa)
#
#
# Indices 1 2 3 4 5 6 
#
# 1 134.4619 6.1538 27.7500 0.0000 0.0000 0.0000
# 2 6.1538 50.8878 2.8050 0.0000 0.0000 0.0000
# 3 27.7500 2.8050 49.1043 0.0000 0.0000 0.0000
# 4 0.0000 0.0000 0.0000 6.8164 0.0000 0.0000
# 5 0.0000 0.0000 0.0000 0.0000 27.5170 0.0000
# 6 0.0000 0.0000 0.0000 0.0000 0.0000 26.8185
#
#
#
# Elastic Compliance Matrix: (Units=1/GPa)
#
#
# Indices 1 2 3 4 5 6 
#
# 1 0.008448 -0.000761 -0.004731 0.000000 0.000000 0.000000
# 2 -0.000761 0.019782 -0.000700 0.000000 0.000000 0.000000
# 3 -0.004731 -0.000700 0.023078 0.000000 0.000000 0.000000
# 4 0.000000 0.000000 0.000000 0.146705 0.000000 0.000000
# 5 0.000000 0.000000 0.000000 0.000000 0.036341 0.000000
# 6 0.000000 0.000000 0.000000 0.000000 0.000000 0.037288
#
#
# Mechanical properties :
#
#
# Convention : Reuss Voigt Hill
#
# Bulk Modulus (GPa) = 25.69057 34.20796 29.94927
# Shear Modulus (GPa) = 16.83499 25.41340 21.12419
#
# Velocity S-wave (km/s) = 2.76310 3.39485 3.09514
# Velocity P-wave (km/s) = 4.67229 5.55699 5.13373
#
# Compressibility (1/GPa) = 0.03892479
#
# Stress axis : x y z
#
# Youngs Moduli (GPa) = 118.36830 50.55180 43.33075
#
# Poissons Ratio (x) = 0.03846 0.20499
# Poissons Ratio (y) = 0.09006 0.03033
# Poissons Ratio (z) = 0.55998 0.03539
#
# Static dielectric constant tensor:
#      x y z
#    x 1.815630 0.000000 0.000000 
#    y 0.000000 1.863040 0.000000 
#    z 0.000000 0.000000 1.779330 
# 
# From -- ./inp_files/23986.got.cif
#   From: 2010.05.17/outbox.cif.g08.bks.cpg/sg67_12_cif.got.tgz:23986.got - 2010.06.03 18:28:57.
