data_PCOD9500795
_publ_section_title
;
Structure prediction by ZEFSAII (Michael W. Deem and Ramdas Pophale) SiO2 
 PCOD9500795
Probable space group: C M M A
;
_chemical_formula_sum "Si O2"
_cell_formula_units_Z 116
_cell_length_a 15.770072
_cell_length_b 25.173164
_cell_length_c 15.617750
_cell_angle_alpha 90.000000
_cell_angle_beta 90.000000
_cell_angle_gamma 90.000000
_cell_volume 6199.975138
_symmetry_space_group_name_H-M "C M M A"
_symmetry_group_IT_number 67
_symmetry_cell_setting 'orthorhombic'
loop_
_space_group_symop_operation_xyz
x,y,z
-x,1/2-y,z
x,-y,-z
-x,1/2+y,-z
-x,-y,-z
x,1/2+y,-z
-x,y,z
x,1/2-y,z
1/2+x,1/2+y,z
1/2-x,-y,z
1/2+x,1/2-y,-z
1/2-x,y,-z
1/2-x,1/2-y,-z
1/2+x,y,-z
1/2-x,1/2+y,z
1/2+x,-y,z
loop_
_atom_site_type_symbol
_atom_site_label
_atom_site_fract_x
_atom_site_fract_y
_atom_site_fract_z
Si Si1 0.098689 0.188857 0.026395
Si Si2 0.000000 0.250000 0.310435
Si Si3 0.344261 0.688883 0.700860
Si Si4 0.857249 0.392936 0.169833
Si Si5 0.601010 0.187499 0.487051
Si Si6 0.352804 0.003919 0.100238
Si Si7 0.649858 0.164191 0.666043
Si Si8 0.657419 0.378641 0.135292
O O1 0.130395 0.250000 0.035588
O O2 0.142816 0.155300 0.950919
O O3 0.000000 0.191946 0.002823
O O4 0.104021 0.155328 0.114325
O O5 0.925275 0.204680 0.313733
O O6 0.370678 0.750000 0.713154
O O7 0.379307 0.670143 0.609141
O O8 0.242187 0.686235 0.691919
O O9 0.371641 0.654111 0.781733
O O10 0.888771 0.450912 0.143099
O O11 0.865594 0.384815 0.270936
O O12 0.757946 0.387637 0.145888
O O13 0.500000 0.186197 0.501226
O O14 0.627143 0.250000 0.494334
O O15 0.646181 0.156564 0.563817
O O16 0.250000 0.000000 0.110808
O O17 0.380907 0.062226 0.130189
O O18 0.370620 0.000000 0.000000
#
# Coordination Sequence:
#
# PCOD9500795 Si02
#       8
#    16   4  16  16  16  16  16  16
#     4  11  24  35  49  74 110 143 173 212 268 325
#     4  12  20  32  54  76 118 156 172 216 280 332
#     4  10  20  32  52  82 110 142 185 222 264 324
#     4  10  22  34  56  81 102 140 178 223 269 316
#     4  10  18  32  52  77 108 146 180 219 268 326
#     4   9  16  34  59  79 100 133 183 227 267 310
#     4  11  20  32  51  78 114 145 180 221 269 325
#     4  10  20  37  57  76 104 139 179 225 264 314
#
# _framework density 18.709752000000002
#
# number of rings (size 3 to 8) (size 9 to 14) (size 15 to 20)
#    0.000    1.793    3.448    1.241    1.931    3.310 
#    0.000    2.759    0.000    0.828    0.000    5.793 
#    0.000    0.000    0.000    0.000    0.000    0.000 
#
# Total GULP energy -323027.743112 kJ/mol
# GULP energy per Si atom -5569.443847 kJ/mol
# Density = 1.866717 g / cm^3
# Si number density = 18.709752 Si / 1000 Ang^3
#
#
#
# Elastic Constant Matrix: (Units=GPa)
#
#
# Indices 1 2 3 4 5 6 
#
# 1 22.7295 2.3715 2.3987 0.0000 0.0000 0.0000
# 2 2.3715 129.7012 65.9459 0.0000 0.0000 0.0000
# 3 2.3987 65.9459 127.0057 0.0000 0.0000 0.0000
# 4 0.0000 0.0000 0.0000 26.2428 0.0000 0.0000
# 5 0.0000 0.0000 0.0000 0.0000 7.1427 0.0000
# 6 0.0000 0.0000 0.0000 0.0000 0.0000 -142.1723
#
#
#
# Elastic Compliance Matrix: (Units=1/GPa)
#
#
# Indices 1 2 3 4 5 6 
#
# 1 0.044109 -0.000520 -0.000563 0.000000 0.000000 0.000000
# 2 -0.000520 0.010482 -0.005433 0.000000 0.000000 0.000000
# 3 -0.000563 -0.005433 0.010705 0.000000 0.000000 0.000000
# 4 0.000000 0.000000 0.000000 0.038106 0.000000 0.000000
# 5 0.000000 0.000000 0.000000 0.000000 0.140004 0.000000
# 6 0.000000 0.000000 0.000000 0.000000 0.000000 -0.007034
#
#
# Mechanical properties :
#
#
# Convention : Reuss Voigt Hill
#
# Bulk Modulus (GPa) = 19.13346 46.76318 32.94832
# Shear Modulus (GPa) = 18.73885 -7.84269 5.44808
#
# Velocity S-wave (km/s) = 3.16817 -2.04960 1.70828
# Velocity P-wave (km/s) = 4.86125 4.40989 4.64106
#
# Compressibility (1/GPa) = 0.05226448
#
# Stress axis : x y z
#
# Youngs Moduli (GPa) = 22.67091 95.40388 93.41315
#
# Poissons Ratio (x) = 0.04964 0.05258
# Poissons Ratio (y) = 0.01180 0.50748
# Poissons Ratio (z) = 0.01276 0.51830
#
# Static dielectric constant tensor:
#      x y z
#    x 1.675710 0.000000 0.000000 
#    y 0.000000 1.653030 0.000000 
#    z 0.000000 0.000000 1.670060 
# 
# From -- ./inp_files/28770.got.cif
#   From: 2010.05.17/outbox.cif.g08.bks.cpg/sg67_15_cif.got.tgz:28770.got - 2010.06.03 18:28:57.
