data_PCOD9500562
_publ_section_title
;
Structure prediction by ZEFSAII (Michael W. Deem and Ramdas Pophale) SiO2 
 PCOD9500562
Probable space group: C M M A
;
_chemical_formula_sum "Si O2"
_cell_formula_units_Z 104
_cell_length_a 8.037128
_cell_length_b 27.961349
_cell_length_c 25.125182
_cell_angle_alpha 90.000000
_cell_angle_beta 90.000000
_cell_angle_gamma 90.000000
_cell_volume 5646.355542
_symmetry_space_group_name_H-M "C M M A"
_symmetry_group_IT_number 67
_symmetry_cell_setting 'orthorhombic'
loop_
_space_group_symop_operation_xyz
x,y,z
-x,1/2-y,z
x,-y,-z
-x,1/2+y,-z
-x,-y,-z
x,1/2+y,-z
-x,y,z
x,1/2-y,z
1/2+x,1/2+y,z
1/2-x,-y,z
1/2+x,1/2-y,-z
1/2-x,y,-z
1/2-x,1/2-y,-z
1/2+x,y,-z
1/2-x,1/2+y,z
1/2+x,-y,z
loop_
_atom_site_type_symbol
_atom_site_label
_atom_site_fract_x
_atom_site_fract_y
_atom_site_fract_z
Si Si1 0.198284 0.553091 0.229951
Si Si2 0.700709 0.194962 0.940507
Si Si3 0.200858 0.250000 0.438640
Si Si4 0.301920 0.553427 0.648177
Si Si5 0.700456 0.653907 0.377285
Si Si6 0.199822 0.356887 0.163923
Si Si7 0.203012 0.695863 0.732228
O O1 0.250000 0.500000 0.214013
O O2 0.265154 0.559947 0.290731
O O3 0.260225 0.591230 0.187156
O O4 0.000000 0.556786 0.232471
O O5 0.500000 0.195842 0.938548
O O6 0.758134 0.250000 0.931957
O O7 0.762335 0.160405 0.893439
O O8 0.750000 0.180321 0.000000
O O9 0.250000 0.250000 0.500000
O O10 0.258908 0.199808 0.411778
O O11 0.000000 0.250000 0.433441
O O12 0.500000 0.553849 0.650895
O O13 0.250000 0.500000 0.630645
O O14 0.249101 0.598891 0.612579
O O15 0.500000 0.655611 0.378361
O O16 0.760586 0.664420 0.317133
O O17 0.261695 0.321877 0.210721
O O18 0.000000 0.352756 0.161983
O O19 0.251922 0.750000 0.722075
O O20 0.000000 0.694158 0.732591
#
# Coordination Sequence:
#
# PCOD9500562 Si02
#       7
#    16  16   8  16  16  16  16
#     4  10  20  32  47  70 102 135 168 204 252 311
#     4   9  18  32  49  71  97 130 171 209 248 299
#     4  10  22  38  58  84 112 150 191 222 260 311
#     4  10  20  33  51  77 109 144 179 217 266 321
#     4  10  18  32  54  79 107 141 181 219 259 310
#     4  10  18  29  49  73  98 130 169 209 254 305
#     4   9  15  25  45  73 102 131 164 207 253 300
#
# _framework density 18.418959000000001
#
# number of rings (size 3 to 8) (size 9 to 14) (size 15 to 20)
#    0.000    2.308    2.308    1.385    0.000    4.308 
#    0.000    0.000    0.000    3.231    0.000    6.462 
#    0.000    0.000    0.000    0.000    0.000    0.000 
#
# Total GULP energy -289784.883160 kJ/mol
# GULP energy per Si atom -5572.786215 kJ/mol
# Density = 1.837704 g / cm^3
# Si number density = 18.418959 Si / 1000 Ang^3
#
#
#
# Elastic Constant Matrix: (Units=GPa)
#
#
# Indices 1 2 3 4 5 6 
#
# 1 17.4416 6.3848 12.4168 0.0000 0.0000 0.0000
# 2 6.3848 155.0796 55.3865 0.0000 0.0000 0.0000
# 3 12.4168 55.3865 69.8037 0.0000 0.0000 0.0000
# 4 0.0000 0.0000 0.0000 17.1721 0.0000 0.0000
# 5 0.0000 0.0000 0.0000 0.0000 18.6515 0.0000
# 6 0.0000 0.0000 0.0000 0.0000 0.0000 21.5080
#
#
#
# Elastic Compliance Matrix: (Units=1/GPa)
#
#
# Indices 1 2 3 4 5 6 
#
# 1 0.066117 0.002063 -0.013398 0.000000 0.000000 0.000000
# 2 0.002063 0.009063 -0.007558 0.000000 0.000000 0.000000
# 3 -0.013398 -0.007558 0.022706 0.000000 0.000000 0.000000
# 4 0.000000 0.000000 0.000000 0.058234 0.000000 0.000000
# 5 0.000000 0.000000 0.000000 0.000000 0.053615 0.000000
# 6 0.000000 0.000000 0.000000 0.000000 0.000000 0.046494
#
#
# Mechanical properties :
#
#
# Convention : Reuss Voigt Hill
#
# Bulk Modulus (GPa) = 16.63889 43.41125 30.02507
# Shear Modulus (GPa) = 15.92115 22.67546 19.29831
#
# Velocity S-wave (km/s) = 2.94324 3.51250 3.24039
# Velocity P-wave (km/s) = 4.53910 6.33010 5.50788
#
# Compressibility (1/GPa) = 0.06010017
#
# Stress axis : x y z
#
# Youngs Moduli (GPa) = 15.12468 110.34330 44.04136
#
# Poissons Ratio (x) = -0.22763 0.59006
# Poissons Ratio (y) = -0.03120 0.33286
# Poissons Ratio (z) = 0.20264 0.83395
#
# Static dielectric constant tensor:
#      x y z
#    x 1.663700 0.000000 0.000000 
#    y 0.000000 1.661440 0.000000 
#    z 0.000000 0.000000 1.630930 
# 
# From -- ./inp_files/40995.got.cif
#   From: 2010.05.17/outbox.cif.g08.bks.cpg/sg67_21_cif.got.tgz:40995.got - 2010.06.03 18:28:57.
