data_PCOD9500840
_publ_section_title
;
Structure prediction by ZEFSAII (Michael W. Deem and Ramdas Pophale) SiO2 
 PCOD9500840
Probable space group: C M M A
;
_chemical_formula_sum "Si O2"
_cell_formula_units_Z 96
_cell_length_a 14.583521
_cell_length_b 22.803700
_cell_length_c 12.471205
_cell_angle_alpha 90.000000
_cell_angle_beta 90.000000
_cell_angle_gamma 90.000000
_cell_volume 4147.401958
_symmetry_space_group_name_H-M "C M M A"
_symmetry_group_IT_number 67
_symmetry_cell_setting 'orthorhombic'
loop_
_space_group_symop_operation_xyz
x,y,z
-x,1/2-y,z
x,-y,-z
-x,1/2+y,-z
-x,-y,-z
x,1/2+y,-z
-x,y,z
x,1/2-y,z
1/2+x,1/2+y,z
1/2-x,-y,z
1/2+x,1/2-y,-z
1/2-x,y,-z
1/2-x,1/2-y,-z
1/2+x,y,-z
1/2-x,1/2+y,z
1/2+x,-y,z
loop_
_atom_site_type_symbol
_atom_site_label
_atom_site_fract_x
_atom_site_fract_y
_atom_site_fract_z
Si Si1 0.389508 0.398398 0.749013
Si Si2 0.388626 0.986043 0.619260
Si Si3 0.151227 0.815448 0.556498
Si Si4 0.103608 0.137013 0.665595
Si Si5 0.111512 0.814490 0.118834
Si Si6 0.111620 0.930622 0.987589
O O1 0.500000 0.388905 0.747674
O O2 0.370394 0.461177 0.697171
O O3 0.349788 0.351465 0.665799
O O4 0.361015 0.404408 0.871835
O O5 0.500000 0.980375 0.611995
O O6 0.348351 0.925657 0.662564
O O7 0.356379 0.000000 0.500000
O O8 0.118691 0.750000 0.577842
O O9 0.250000 0.813554 0.500000
O O10 0.097003 0.843399 0.457320
O O11 0.139211 0.181158 0.755065
O O12 0.000000 0.126601 0.704350
O O13 0.144046 0.750000 0.077926
O O14 0.000000 0.812204 0.106368
O O15 0.139531 0.877754 0.068705
O O16 0.000000 0.933224 0.992232
O O17 0.140445 0.000000 0.000000
#
# Coordination Sequence:
#
# PCOD9500840 Si02
#       6
#    16  16  16  16  16  16
#     4  10  19  33  55  81 108 142 181 217 267 335
#     4   9  15  26  47  76 104 126 159 209 255 304
#     4  11  24  38  50  71 108 146 181 228 279 323
#     4  10  18  32  55  78 103 136 175 218 267 329
#     4   9  17  28  45  73 104 133 171 219 263 305
#     4   9  17  30  50  79 113 142 171 217 278 335
#
# _framework density 23.147020000000001
#
# number of rings (size 3 to 8) (size 9 to 14) (size 15 to 20)
#    0.000    2.333    1.667    2.000    0.000    6.667 
#    0.000    3.333    0.000    1.000    0.000    4.667 
#    0.000    0.000    0.000    0.000    0.000    0.000 
#
# Total GULP energy -267631.664224 kJ/mol
# GULP energy per Si atom -5575.659671 kJ/mol
# Density = 2.309434 g / cm^3
# Si number density = 23.147020 Si / 1000 Ang^3
#
#
#
# Elastic Constant Matrix: (Units=GPa)
#
#
# Indices 1 2 3 4 5 6 
#
# 1 58.9261 0.9408 -1.0860 0.0000 0.0000 0.0000
# 2 0.9408 171.2333 45.1754 0.0000 0.0000 0.0000
# 3 -1.0860 45.1754 100.3815 0.0000 0.0000 0.0000
# 4 0.0000 0.0000 0.0000 28.6223 0.0000 0.0000
# 5 0.0000 0.0000 0.0000 0.0000 -0.5634 0.0000
# 6 0.0000 0.0000 0.0000 0.0000 0.0000 329.3487
#
#
#
# Elastic Compliance Matrix: (Units=1/GPa)
#
#
# Indices 1 2 3 4 5 6 
#
# 1 0.016978 -0.000161 0.000256 0.000000 0.000000 0.000000
# 2 -0.000161 0.006628 -0.002985 0.000000 0.000000 0.000000
# 3 0.000256 -0.002985 0.011308 0.000000 0.000000 0.000000
# 4 0.000000 0.000000 0.000000 0.034938 0.000000 0.000000
# 5 0.000000 0.000000 0.000000 0.000000 -1.775084 0.000000
# 6 0.000000 0.000000 0.000000 0.000000 0.000000 0.003036
#
#
# Mechanical properties :
#
#
# Convention : Reuss Voigt Hill
#
# Bulk Modulus (GPa) = 34.32300 46.73350 40.52825
# Shear Modulus (GPa) = -2.96436 90.51558 43.77561
#
# Velocity S-wave (km/s) = -1.13289 6.26015 4.35351
# Velocity P-wave (km/s) = 3.62618 8.51389 6.54353
#
# Compressibility (1/GPa) = 0.02913498
#
# Stress axis : x y z
#
# Youngs Moduli (GPa) = 58.90084 150.86804 88.43299
#
# Poissons Ratio (x) = 0.02426 -0.02264
# Poissons Ratio (y) = 0.00947 0.26395
# Poissons Ratio (z) = -0.01508 0.45030
#
# Static dielectric constant tensor:
#      x y z
#    x 2.045700 0.000000 0.000000 
#    y 0.000000 1.873320 0.000000 
#    z 0.000000 0.000000 1.943580 
# 
# From -- ./inp_files/20875.got.cif
#   From: 2010.05.17/outbox.cif.g08.bks.cpg/sg67_11_cif.got.tgz:20875.got - 2010.06.03 18:28:57.
