data_PCOD9500533
_publ_section_title
;
Structure prediction by ZEFSAII (Michael W. Deem and Ramdas Pophale) SiO2 
 PCOD9500533
Probable space group: C M M A
;
_chemical_formula_sum "Si O2"
_cell_formula_units_Z 96
_cell_length_a 8.427627
_cell_length_b 28.358033
_cell_length_c 24.699359
_cell_angle_alpha 90.000000
_cell_angle_beta 90.000000
_cell_angle_gamma 90.000000
_cell_volume 5902.922644
_symmetry_space_group_name_H-M "C M M A"
_symmetry_group_IT_number 67
_symmetry_cell_setting 'orthorhombic'
loop_
_space_group_symop_operation_xyz
x,y,z
-x,1/2-y,z
x,-y,-z
-x,1/2+y,-z
-x,-y,-z
x,1/2+y,-z
-x,y,z
x,1/2-y,z
1/2+x,1/2+y,z
1/2-x,-y,z
1/2+x,1/2-y,-z
1/2-x,y,-z
1/2-x,1/2-y,-z
1/2+x,y,-z
1/2-x,1/2+y,z
1/2+x,-y,z
loop_
_atom_site_type_symbol
_atom_site_label
_atom_site_fract_x
_atom_site_fract_y
_atom_site_fract_z
Si Si1 0.810072 0.947556 0.724029
Si Si2 0.306830 0.604748 0.166694
Si Si3 0.308588 0.304478 0.440958
Si Si4 0.309422 0.553513 0.058820
Si Si5 0.190387 0.856288 0.333085
Si Si6 0.808000 0.803260 0.772788
O O1 0.757706 0.929363 0.783762
O O2 0.749140 0.908457 0.681977
O O3 0.000000 0.947056 0.723350
O O4 0.750000 0.000000 0.713765
O O5 0.500000 0.604511 0.165843
O O6 0.252964 0.585341 0.108956
O O7 0.256173 0.657382 0.183629
O O8 0.500000 0.304627 0.441234
O O9 0.256545 0.250000 0.432666
O O10 0.250000 0.319801 0.500000
O O11 0.254658 0.336684 0.391081
O O12 0.500000 0.552878 0.058304
O O13 0.250000 0.500000 0.066765
O O14 0.250000 0.569621 0.000000
O O15 0.251606 0.822093 0.285416
O O16 0.000000 0.855830 0.332210
O O17 0.753121 0.750000 0.782907
O O18 0.000000 0.803297 0.772465
#
# Coordination Sequence:
#
# PCOD9500533 Si02
#       6
#    16  16  16  16  16  16
#     4  10  19  32  49  70  94 121 154 188 227 273
#     4   8  16  29  45  66  91 118 149 185 223 267
#     4   9  18  31  47  68  94 123 154 187 224 267
#     4  10  18  29  44  63  88 115 146 183 224 269
#     4  10  19  31  47  69  97 125 152 186 229 272
#     4   9  17  30  48  69  92 120 154 189 226 270
#
# _framework density 16.26313
#
# number of rings (size 3 to 8) (size 9 to 14) (size 15 to 20)
#    0.000    2.667    0.000    4.000    0.000    2.333 
#    0.000    9.167    0.000    1.000    0.000    3.500 
#    0.000    0.000    0.000    0.000    0.000    0.667 
#
# Total GULP energy -267585.326217 kJ/mol
# GULP energy per Si atom -5574.694296 kJ/mol
# Density = 1.622611 g / cm^3
# Si number density = 16.263130 Si / 1000 Ang^3
#
#
#
# Elastic Constant Matrix: (Units=GPa)
#
#
# Indices 1 2 3 4 5 6 
#
# 1 23.8992 19.9890 21.5665 0.0000 0.0000 0.0000
# 2 19.9890 135.1159 94.6053 0.0000 0.0000 0.0000
# 3 21.5665 94.6053 162.5307 0.0000 0.0000 0.0000
# 4 0.0000 0.0000 0.0000 -3.4371 0.0000 0.0000
# 5 0.0000 0.0000 0.0000 0.0000 17.0580 0.0000
# 6 0.0000 0.0000 0.0000 0.0000 0.0000 20.0160
#
#
#
# Elastic Compliance Matrix: (Units=1/GPa)
#
#
# Indices 1 2 3 4 5 6 
#
# 1 0.049148 -0.004565 -0.003864 0.000000 0.000000 0.000000
# 2 -0.004565 0.012917 -0.006913 0.000000 0.000000 0.000000
# 3 -0.003864 -0.006913 0.010689 0.000000 0.000000 0.000000
# 4 0.000000 0.000000 0.000000 -0.290945 0.000000 0.000000
# 5 0.000000 0.000000 0.000000 0.000000 0.058623 0.000000
# 6 0.000000 0.000000 0.000000 0.000000 0.000000 0.049960
#
#
# Mechanical properties :
#
#
# Convention : Reuss Voigt Hill
#
# Bulk Modulus (GPa) = 23.77035 65.98527 44.87781
# Shear Modulus (GPa) = -77.04043 19.08638 -28.97703
#
# Velocity S-wave (km/s) = -6.89014 3.42950 -4.22567
# Velocity P-wave (km/s) = 6.97502 7.50624 1.96120
#
# Compressibility (1/GPa) = 0.04206922
#
# Stress axis : x y z
#
# Youngs Moduli (GPa) = 20.34679 77.42025 93.55326
#
# Poissons Ratio (x) = 0.35345 0.36150
# Poissons Ratio (y) = 0.09289 0.64670
# Poissons Ratio (z) = 0.07862 0.53518
#
# Static dielectric constant tensor:
#      x y z
#    x 1.557590 0.000000 0.000000 
#    y 0.000000 1.539850 0.000000 
#    z 0.000000 0.000000 1.538710 
# 
# From -- ./inp_files/40921.got.cif
#   From: 2010.05.17/outbox.cif.g08.bks.cpg/sg67_21_cif.got.tgz:40921.got - 2010.06.03 18:28:57.
