data_PCOD9500216
_publ_section_title
;
Structure prediction by ZEFSAII (Michael W. Deem and Ramdas Pophale) SiO2 
 PCOD9500216
Probable space group: C M M A
;
_chemical_formula_sum "Si O2"
_cell_formula_units_Z 60
_cell_length_a 16.257476
_cell_length_b 24.579811
_cell_length_c 7.584071
_cell_angle_alpha 90.000000
_cell_angle_beta 90.000000
_cell_angle_gamma 90.000000
_cell_volume 3030.637905
_symmetry_space_group_name_H-M "C M M A"
_symmetry_group_IT_number 67
_symmetry_cell_setting 'orthorhombic'
loop_
_space_group_symop_operation_xyz
x,y,z
-x,1/2-y,z
x,-y,-z
-x,1/2+y,-z
-x,-y,-z
x,1/2+y,-z
-x,y,z
x,1/2-y,z
1/2+x,1/2+y,z
1/2-x,-y,z
1/2+x,1/2-y,-z
1/2-x,y,-z
1/2-x,1/2-y,-z
1/2+x,y,-z
1/2-x,1/2+y,z
1/2+x,-y,z
loop_
_atom_site_type_symbol
_atom_site_label
_atom_site_fract_x
_atom_site_fract_y
_atom_site_fract_z
Si Si1 0.095179 0.250000 0.804060
Si Si2 0.830718 0.974580 0.299429
Si Si3 0.500000 0.982576 0.290631
Si Si4 0.500000 0.641265 0.370706
Si Si5 0.334293 0.649174 0.604284
Si Si6 0.500000 0.250000 0.857378
O O1 0.142511 0.303010 0.738216
O O2 0.000000 0.250000 0.729670
O O3 0.078351 0.250000 0.011947
O O4 0.822647 0.910032 0.310704
O O5 0.832745 0.000000 0.500000
O O6 0.750000 0.000000 0.214791
O O7 0.916747 0.992051 0.216724
O O8 0.500000 0.917540 0.277254
O O9 0.500000 0.000000 0.500000
O O10 0.415626 0.643131 0.482645
O O11 0.500000 0.694952 0.252427
O O12 0.250000 0.662058 0.500000
#
# Coordination Sequence:
#
# PCOD9500216 Si02
#       6
#     8  16   8   8  16   4
#     4  10  24  42  55  78 122 162 201 249 298 343
#     4  10  16  29  49  91 129 136 169 242 320 356
#     4  10  16  26  50  86 117 142 179 239 310 336
#     4  12  19  36  60  87 116 156 205 251 290 372
#     4  12  20  35  65  94 117 150 198 260 310 353
#     4  10  26  44  58  74 124 176 206 244 294 362
#
# _framework density 19.797813000000001
#
# number of rings (size 3 to 8) (size 9 to 14) (size 15 to 20)
#    0.400    0.800    9.333    1.200    0.000    0.000 
#    0.000    2.667    0.000    3.200    0.000    3.733 
#    0.000    0.000    0.000    0.000    0.000    0.000 
#
# Total GULP energy -167362.472364 kJ/mol
# GULP energy per Si atom -5578.749079 kJ/mol
# Density = 1.975275 g / cm^3
# Si number density = 19.797813 Si / 1000 Ang^3
#
#
#
# Elastic Constant Matrix: (Units=GPa)
#
#
# Indices 1 2 3 4 5 6 
#
# 1 187.3348 43.9307 29.1206 0.0000 0.0000 0.0000
# 2 43.9307 197.6719 41.8062 0.0000 0.0000 0.0000
# 3 29.1206 41.8062 33.1676 0.0000 0.0000 0.0000
# 4 0.0000 0.0000 0.0000 -12.4294 0.0000 0.0000
# 5 0.0000 0.0000 0.0000 0.0000 -5.8615 0.0000
# 6 0.0000 0.0000 0.0000 0.0000 0.0000 78.9278
#
#
#
# Elastic Compliance Matrix: (Units=1/GPa)
#
#
# Indices 1 2 3 4 5 6 
#
# 1 0.006196 -0.000309 -0.005050 0.000000 0.000000 0.000000
# 2 -0.000309 0.006913 -0.008442 0.000000 0.000000 0.000000
# 3 -0.005050 -0.008442 0.045225 0.000000 0.000000 0.000000
# 4 0.000000 0.000000 0.000000 -0.080454 0.000000 0.000000
# 5 0.000000 0.000000 0.000000 0.000000 -0.170606 0.000000
# 6 0.000000 0.000000 0.000000 0.000000 0.000000 0.012670
#
#
# Mechanical properties :
#
#
# Convention : Reuss Voigt Hill
#
# Bulk Modulus (GPa) = 32.54074 71.98770 52.26422
# Shear Modulus (GPa) = -35.15932 32.34850 -1.40541
#
# Velocity S-wave (km/s) = -4.21874 4.04659 -0.84346
# Velocity P-wave (km/s) = 2.69409 7.63371 5.05052
#
# Compressibility (1/GPa) = 0.03073070
#
# Stress axis : x y z
#
# Youngs Moduli (GPa) = 161.40736 144.65434 22.11152
#
# Poissons Ratio (x) = 0.04467 0.11167
# Poissons Ratio (y) = 0.04984 0.18668
# Poissons Ratio (z) = 0.81516 1.22124
#
# Static dielectric constant tensor:
#      x y z
#    x 1.684590 0.000000 0.000000 
#    y 0.000000 1.674710 0.000000 
#    z 0.000000 0.000000 1.714870 
# 
# From -- ./inp_files/9433.got.cif
#   From: 2010.05.17/outbox.cif.g08.bks.cpg/sg67_5_cif.got.tgz:9433.got - 2010.06.03 18:28:57.
