data_PCOD9500455
_publ_section_title
;
Structure prediction by ZEFSAII (Michael W. Deem and Ramdas Pophale) SiO2 
 PCOD9500455
Probable space group: C M M A
;
_chemical_formula_sum "Si O2"
_cell_formula_units_Z 52
_cell_length_a 18.906729
_cell_length_b 13.747518
_cell_length_c 9.031224
_cell_angle_alpha 90.000000
_cell_angle_beta 90.000000
_cell_angle_gamma 90.000000
_cell_volume 2347.401136
_symmetry_space_group_name_H-M "C M M A"
_symmetry_group_IT_number 67
_symmetry_cell_setting 'orthorhombic'
loop_
_space_group_symop_operation_xyz
x,y,z
-x,1/2-y,z
x,-y,-z
-x,1/2+y,-z
-x,-y,-z
x,1/2+y,-z
-x,y,z
x,1/2-y,z
1/2+x,1/2+y,z
1/2-x,-y,z
1/2+x,1/2-y,-z
1/2-x,y,-z
1/2-x,1/2-y,-z
1/2+x,y,-z
1/2-x,1/2+y,z
1/2+x,-y,z
loop_
_atom_site_type_symbol
_atom_site_label
_atom_site_fract_x
_atom_site_fract_y
_atom_site_fract_z
Si Si1 0.156907 0.359147 0.561836
Si Si2 0.000000 0.645183 0.380979
Si Si3 0.000000 0.536740 0.831661
Si Si4 0.250000 0.000000 0.000000
Si Si5 0.156393 0.559326 0.742300
O O1 0.173454 0.250000 0.613727
O O2 0.071973 0.361754 0.529333
O O3 0.163460 0.447980 0.677533
O O4 0.186596 0.380532 0.397790
O O5 0.000000 0.560277 0.265492
O O6 0.000000 0.750000 0.304088
O O7 0.075551 0.583934 0.788901
O O8 0.000000 0.500000 0.000000
O O9 0.201553 0.063326 0.109058
#
# Coordination Sequence:
#
# PCOD9500455 Si02
#       5
#    16   8   8   4  16
#     4   9  18  36  60  84 108 143 187 230 273 323
#     4   8  15  29  55  86 110 133 179 234 272 317
#     4  10  17  33  57  81 110 146 179 216 277 337
#     4  12  24  40  54  80 120 150 180 228 278 324
#     4  10  21  37  59  83 112 145 183 228 274 326
#
# _framework density 22.152156999999999
#
# number of rings (size 3 to 8) (size 9 to 14) (size 15 to 20)
#    0.000    2.462    1.538    0.923    0.000    6.154 
#    0.000    7.692    0.000    0.000    0.000    0.000 
#    0.000    0.000    0.000    0.000    0.000    0.000 
#
# Total GULP energy -144964.084182 kJ/mol
# GULP energy per Si atom -5575.541699 kJ/mol
# Density = 2.210174 g / cm^3
# Si number density = 22.152157 Si / 1000 Ang^3
#
#
#
# Elastic Constant Matrix: (Units=GPa)
#
#
# Indices 1 2 3 4 5 6 
#
# 1 96.5532 -4.7081 28.1603 0.0000 0.0000 0.0000
# 2 -4.7081 52.8950 2.2680 0.0000 0.0000 0.0000
# 3 28.1603 2.2680 116.0127 0.0000 0.0000 0.0000
# 4 0.0000 0.0000 0.0000 3.0533 0.0000 0.0000
# 5 0.0000 0.0000 0.0000 0.0000 45.6938 0.0000
# 6 0.0000 0.0000 0.0000 0.0000 0.0000 13.1507
#
#
#
# Elastic Compliance Matrix: (Units=1/GPa)
#
#
# Indices 1 2 3 4 5 6 
#
# 1 0.011211 0.001116 -0.002743 0.000000 0.000000 0.000000
# 2 0.001116 0.019032 -0.000643 0.000000 0.000000 0.000000
# 3 -0.002743 -0.000643 0.009298 0.000000 0.000000 0.000000
# 4 0.000000 0.000000 0.000000 0.327515 0.000000 0.000000
# 5 0.000000 0.000000 0.000000 0.000000 0.021885 0.000000
# 6 0.000000 0.000000 0.000000 0.000000 0.000000 0.076041
#
#
# Mechanical properties :
#
#
# Convention : Reuss Voigt Hill
#
# Bulk Modulus (GPa) = 28.57077 35.21125 31.89101
# Shear Modulus (GPa) = 10.39089 28.36228 19.37658
#
# Velocity S-wave (km/s) = 2.16815 3.58206 2.96075
# Velocity P-wave (km/s) = 4.38102 5.74786 5.11035
#
# Compressibility (1/GPa) = 0.03500081
#
# Stress axis : x y z
#
# Youngs Moduli (GPa) = 89.19447 52.54248 107.54782
#
# Poissons Ratio (x) = -0.05861 0.29503
# Poissons Ratio (y) = -0.09950 0.06914
# Poissons Ratio (z) = 0.24468 0.03378
#
# Static dielectric constant tensor:
#      x y z
#    x 2.000780 0.000000 0.000000 
#    y 0.000000 1.786960 0.000000 
#    z 0.000000 0.000000 1.763420 
# 
# From -- ./inp_files/7810.got.cif
#   From: 2010.05.17/outbox.cif.g08.bks.cpg/sg67_4_cif.got.tgz:7810.got - 2010.06.03 18:28:57.
