data_PCOD9500199
_publ_section_title
;
Structure prediction by ZEFSAII (Michael W. Deem and Ramdas Pophale) SiO2 
 PCOD9500199
Probable space group: C M M A
;
_chemical_formula_sum "Si O2"
_cell_formula_units_Z 56
_cell_length_a 8.565694
_cell_length_b 14.824350
_cell_length_c 21.146642
_cell_angle_alpha 90.000000
_cell_angle_beta 90.000000
_cell_angle_gamma 90.000000
_cell_volume 2685.218488
_symmetry_space_group_name_H-M "C M M A"
_symmetry_group_IT_number 67
_symmetry_cell_setting 'orthorhombic'
loop_
_space_group_symop_operation_xyz
x,y,z
-x,1/2-y,z
x,-y,-z
-x,1/2+y,-z
-x,-y,-z
x,1/2+y,-z
-x,y,z
x,1/2-y,z
1/2+x,1/2+y,z
1/2-x,-y,z
1/2+x,1/2-y,-z
1/2-x,y,-z
1/2-x,1/2-y,-z
1/2+x,y,-z
1/2-x,1/2+y,z
1/2+x,-y,z
loop_
_atom_site_type_symbol
_atom_site_label
_atom_site_fract_x
_atom_site_fract_y
_atom_site_fract_z
Si Si1 0.187792 0.250000 0.929310
Si Si2 0.687654 0.101516 0.170845
Si Si3 0.686500 0.603124 0.303563
Si Si4 0.686456 0.396633 0.434477
O O1 0.235588 0.336851 0.888073
O O2 0.000000 0.250000 0.931758
O O3 0.250000 0.250000 0.000000
O O4 0.500000 0.099680 0.175332
O O5 0.753512 0.140444 0.236914
O O6 0.750000 0.000000 0.163159
O O7 0.500000 0.603149 0.305543
O O8 0.750000 0.500000 0.302404
O O9 0.752408 0.643715 0.368604
O O10 0.500000 0.397430 0.435107
O O11 0.750000 0.500000 0.434129
O O12 0.750000 0.356370 0.500000
#
# Coordination Sequence:
#
# PCOD9500199 Si02
#       4
#     8  16  16  16
#     4  10  24  42  62  86 117 148 183 224 274 332
#     4  10  20  37  58  84 113 148 186 229 276 328
#     4  10  17  27  44  69  99 137 180 226 273 326
#     4  10  16  23  35  57  92 134 177 226 275 325
#
# _framework density 20.854914000000001
#
# number of rings (size 3 to 8) (size 9 to 14) (size 15 to 20)
#    0.000    2.000    0.000   10.286    0.000    2.857 
#    0.000    2.857    0.000    0.000    0.000    1.000 
#    0.000    0.000    0.000    0.857    0.000    0.000 
#
# Total GULP energy -156396.654743 kJ/mol
# GULP energy per Si atom -5585.594812 kJ/mol
# Density = 2.080745 g / cm^3
# Si number density = 20.854914 Si / 1000 Ang^3
#
#
#
# Elastic Constant Matrix: (Units=GPa)
#
#
# Indices 1 2 3 4 5 6 
#
# 1 167.5147 28.4225 81.6590 0.0000 0.0000 0.0000
# 2 28.4225 92.2093 68.8515 0.0000 0.0000 0.0000
# 3 81.6590 68.8515 265.9068 0.0000 0.0000 0.0000
# 4 0.0000 0.0000 0.0000 78.4700 0.0000 0.0000
# 5 0.0000 0.0000 0.0000 0.0000 45.4951 0.0000
# 6 0.0000 0.0000 0.0000 0.0000 0.0000 1.0063
#
#
#
# Elastic Compliance Matrix: (Units=1/GPa)
#
#
# Indices 1 2 3 4 5 6 
#
# 1 0.007056 -0.000690 -0.001988 0.000000 0.000000 0.000000
# 2 -0.000690 0.013512 -0.003287 0.000000 0.000000 0.000000
# 3 -0.001988 -0.003287 0.005222 0.000000 0.000000 0.000000
# 4 0.000000 0.000000 0.000000 0.012744 0.000000 0.000000
# 5 0.000000 0.000000 0.000000 0.000000 0.021980 0.000000
# 6 0.000000 0.000000 0.000000 0.000000 0.000000 0.993723
#
#
# Mechanical properties :
#
#
# Convention : Reuss Voigt Hill
#
# Bulk Modulus (GPa) = 72.15147 98.16630 85.15889
# Shear Modulus (GPa) = 4.66946 48.10747 26.38847
#
# Velocity S-wave (km/s) = 1.49796 4.80809 3.56101
# Velocity P-wave (km/s) = 6.13709 8.83159 7.60463
#
# Compressibility (1/GPa) = 0.01385973
#
# Stress axis : x y z
#
# Youngs Moduli (GPa) = 141.72536 74.00961 191.48878
#
# Poissons Ratio (x) = 0.05110 0.38069
# Poissons Ratio (y) = 0.09785 0.62934
# Poissons Ratio (z) = 0.28176 0.24324
#
# Static dielectric constant tensor:
#      x y z
#    x 1.691690 0.000000 0.000000 
#    y 0.000000 2.034390 0.000000 
#    z 0.000000 0.000000 1.786750 
# 
# From -- ./inp_files/31627.got.cif
#   From: 2010.05.17/outbox.cif.g08.bks.cpg/sg67_16_cif.got.tgz:31627.got - 2010.06.03 18:28:57.
