data_PCOD9500298
_publ_section_title
;
Structure prediction by ZEFSAII (Michael W. Deem and Ramdas Pophale) SiO2 
 PCOD9500298
Probable space group: C M M A
;
_chemical_formula_sum "Si O2"
_cell_formula_units_Z 96
_cell_length_a 19.378304
_cell_length_b 8.576993
_cell_length_c 32.675312
_cell_angle_alpha 90.000000
_cell_angle_beta 90.000000
_cell_angle_gamma 90.000000
_cell_volume 5430.884460
_symmetry_space_group_name_H-M "C M M A"
_symmetry_group_IT_number 67
_symmetry_cell_setting 'orthorhombic'
loop_
_space_group_symop_operation_xyz
x,y,z
-x,1/2-y,z
x,-y,-z
-x,1/2+y,-z
-x,-y,-z
x,1/2+y,-z
-x,y,z
x,1/2-y,z
1/2+x,1/2+y,z
1/2-x,-y,z
1/2+x,1/2-y,-z
1/2-x,y,-z
1/2-x,1/2-y,-z
1/2+x,y,-z
1/2-x,1/2+y,z
1/2+x,-y,z
loop_
_atom_site_type_symbol
_atom_site_label
_atom_site_fract_x
_atom_site_fract_y
_atom_site_fract_z
Si Si1 0.171187 0.563914 0.457769
Si Si2 0.672336 0.437733 0.043758
Si Si3 0.579690 0.440391 0.704802
Si Si4 0.328016 0.437635 0.627892
Si Si5 0.079059 0.562825 0.119430
Si Si6 0.916121 0.568997 0.794316
O O1 0.139352 0.500000 0.500000
O O2 0.172521 0.750000 0.458490
O O3 0.250000 0.500000 0.457364
O O4 0.141797 0.502406 0.414878
O O5 0.673665 0.250000 0.042596
O O6 0.750000 0.500000 0.048789
O O7 0.625715 0.491046 0.081765
O O8 0.646342 0.500000 0.000000
O O9 0.500000 0.489082 0.699183
O O10 0.579461 0.250000 0.706284
O O11 0.626898 0.486893 0.666890
O O12 0.605600 0.493121 0.749694
O O13 0.326177 0.250000 0.625671
O O14 0.250000 0.500000 0.632296
O O15 0.077214 0.750000 0.117896
O O16 0.105920 0.514993 0.164232
O O17 0.000000 0.505261 0.115377
O O18 0.896289 0.750000 0.797470
O O19 0.000000 0.562127 0.793116
#
# Coordination Sequence:
#
# PCOD9500298 Si02
#       6
#    16  16  16  16  16  16
#     4  10  17  27  43  64  90 118 152 189 227 273
#     4  10  20  34  51  69  93 125 157 189 226 273
#     4   8  15  29  49  70  91 120 158 193 225 267
#     4  10  18  29  46  68  95 122 149 187 232 273
#     4   9  18  32  49  71  97 121 148 188 235 274
#     4   8  14  27  48  71  92 118 155 193 226 266
#
# _framework density 17.676680000000001
#
# number of rings (size 3 to 8) (size 9 to 14) (size 15 to 20)
#    0.000    2.833    0.000    5.500    0.000    1.667 
#    0.000    2.500    0.000    8.500    0.000    0.000 
#    0.000    0.000    0.000    0.000    0.000    0.000 
#
# Total GULP energy -267354.041900 kJ/mol
# GULP energy per Si atom -5569.875873 kJ/mol
# Density = 1.763645 g / cm^3
# Si number density = 17.676680 Si / 1000 Ang^3
#
#
#
# Elastic Constant Matrix: (Units=GPa)
#
#
# Indices 1 2 3 4 5 6 
#
# 1 37.3894 14.0559 66.6994 0.0000 0.0000 0.0000
# 2 14.0559 54.9003 41.2541 0.0000 0.0000 0.0000
# 3 66.6994 41.2541 224.6490 0.0000 0.0000 0.0000
# 4 0.0000 0.0000 0.0000 38.8637 0.0000 0.0000
# 5 0.0000 0.0000 0.0000 0.0000 30.5092 0.0000
# 6 0.0000 0.0000 0.0000 0.0000 0.0000 10.9423
#
#
#
# Elastic Compliance Matrix: (Units=1/GPa)
#
#
# Indices 1 2 3 4 5 6 
#
# 1 0.057088 -0.002180 -0.016549 0.000000 0.000000 0.000000
# 2 -0.002180 0.021214 -0.003248 0.000000 0.000000 0.000000
# 3 -0.016549 -0.003248 0.009961 0.000000 0.000000 0.000000
# 4 0.000000 0.000000 0.000000 0.025731 0.000000 0.000000
# 5 0.000000 0.000000 0.000000 0.000000 0.032777 0.000000
# 6 0.000000 0.000000 0.000000 0.000000 0.000000 0.091388
#
#
# Mechanical properties :
#
#
# Convention : Reuss Voigt Hill
#
# Bulk Modulus (GPa) = 22.56956 62.32862 42.44909
# Shear Modulus (GPa) = 16.84159 29.05832 22.94995
#
# Velocity S-wave (km/s) = 3.09003 4.05888 3.60713
# Velocity P-wave (km/s) = 5.05240 7.56987 6.43543
#
# Compressibility (1/GPa) = 0.04430747
#
# Stress axis : x y z
#
# Youngs Moduli (GPa) = 17.51695 47.13873 100.38679
#
# Poissons Ratio (x) = 0.10277 1.66132
# Poissons Ratio (y) = 0.03819 0.32610
# Poissons Ratio (z) = 0.28989 0.15313
#
# Static dielectric constant tensor:
#      x y z
#    x 1.590330 0.000000 0.000000 
#    y 0.000000 1.605250 0.000000 
#    z 0.000000 0.000000 1.649030 
# 
# From -- ./inp_files/44785.got.cif
#   From: 2010.05.17/outbox.cif.g08.bks.cpg/sg67_23_cif.got.tgz:44785.got - 2010.06.03 18:28:57.
