data_PCOD9500590
_publ_section_title
;
Structure prediction by ZEFSAII (Michael W. Deem and Ramdas Pophale) SiO2 
 PCOD9500590
Probable space group: C M M A
;
_chemical_formula_sum "Si O2"
_cell_formula_units_Z 88
_cell_length_a 33.819720
_cell_length_b 10.534176
_cell_length_c 18.017965
_cell_angle_alpha 90.000000
_cell_angle_beta 90.000000
_cell_angle_gamma 90.000000
_cell_volume 6419.132152
_symmetry_space_group_name_H-M "C M M A"
_symmetry_group_IT_number 67
_symmetry_cell_setting 'orthorhombic'
loop_
_space_group_symop_operation_xyz
x,y,z
-x,1/2-y,z
x,-y,-z
-x,1/2+y,-z
-x,-y,-z
x,1/2+y,-z
-x,y,z
x,1/2-y,z
1/2+x,1/2+y,z
1/2-x,-y,z
1/2+x,1/2-y,-z
1/2-x,y,-z
1/2-x,1/2-y,-z
1/2+x,y,-z
1/2-x,1/2+y,z
1/2+x,-y,z
loop_
_atom_site_type_symbol
_atom_site_label
_atom_site_fract_x
_atom_site_fract_y
_atom_site_fract_z
Si Si1 0.000000 0.396342 0.935634
Si Si2 0.793290 0.750000 0.089077
Si Si3 0.547902 0.750000 0.567457
Si Si4 0.547982 0.482253 0.325892
Si Si5 0.951967 0.750000 0.602705
Si Si6 0.702835 0.750000 0.090835
Si Si7 0.344242 0.503288 0.910217
Si Si8 0.077839 0.099781 0.834477
O O1 0.038768 0.412831 0.885002
O O2 0.000000 0.250000 0.963700
O O3 0.000000 0.500000 0.000000
O O4 0.748241 0.750000 0.116992
O O5 0.816789 0.623289 0.109878
O O6 0.793497 0.750000 0.999015
O O7 0.500000 0.750000 0.564326
O O8 0.558969 0.624681 0.613557
O O9 0.562039 0.750000 0.482661
O O10 0.500000 0.477984 0.317430
O O11 0.559389 0.621220 0.355270
O O12 0.567273 0.448012 0.247543
O O13 0.000000 0.750000 0.600349
O O14 0.678475 0.875151 0.111550
O O15 0.386161 0.523844 0.871187
O O16 0.349620 0.500000 0.000000
O O17 0.087710 0.250000 0.832077
#
# Coordination Sequence:
#
# PCOD9500590 Si02
#       8
#     8   8   8  16   8   8  16  16
#     4  10  22  38  50  62  79 115 164 208 239 265
#     4   9  16  31  48  67  89 112 138 182 230 287
#     4   9  16  27  48  64  84 113 147 182 226 279
#     4  10  18  30  46  64  87 117 154 186 230 271
#     4   9  18  29  42  68  90 105 139 198 234 265
#     4   9  18  29  48  69  87 110 142 182 236 277
#     4  10  19  31  47  67  90 114 151 192 227 270
#     4  11  20  33  49  62  87 122 158 194 234 272
#
# _framework density 13.709018
#
# number of rings (size 3 to 8) (size 9 to 14) (size 15 to 20)
#    0.000    2.182    2.727    1.636    0.000    5.091 
#    3.273    0.000    0.000    0.000    0.000    0.000 
#    0.000    0.000    0.000    0.000    0.000   63.636 
#
# Total GULP energy -245262.251971 kJ/mol
# GULP energy per Si atom -5574.142090 kJ/mol
# Density = 1.367782 g / cm^3
# Si number density = 13.709018 Si / 1000 Ang^3
#
#
#
# Elastic Constant Matrix: (Units=GPa)
#
#
# Indices 1 2 3 4 5 6 
#
# 1 88.2222 51.9632 30.5454 0.0000 0.0000 0.0000
# 2 51.9632 130.9961 48.9805 0.0000 0.0000 0.0000
# 3 30.5454 48.9805 74.0310 0.0000 0.0000 0.0000
# 4 0.0000 0.0000 0.0000 18.8658 0.0000 0.0000
# 5 0.0000 0.0000 0.0000 0.0000 2.3406 0.0000
# 6 0.0000 0.0000 0.0000 0.0000 0.0000 17.7834
#
#
#
# Elastic Compliance Matrix: (Units=1/GPa)
#
#
# Indices 1 2 3 4 5 6 
#
# 1 0.015292 -0.004925 -0.003051 0.000000 0.000000 0.000000
# 2 -0.004925 0.011729 -0.005728 0.000000 0.000000 0.000000
# 3 -0.003051 -0.005728 0.018557 0.000000 0.000000 0.000000
# 4 0.000000 0.000000 0.000000 0.053006 0.000000 0.000000
# 5 0.000000 0.000000 0.000000 0.000000 0.427237 0.000000
# 6 0.000000 0.000000 0.000000 0.000000 0.000000 0.056232
#
#
# Mechanical properties :
#
#
# Convention : Reuss Voigt Hill
#
# Bulk Modulus (GPa) = 55.03777 61.80306 58.42042
# Shear Modulus (GPa) = 8.12322 18.58196 13.35259
#
# Velocity S-wave (km/s) = 2.43687 3.68564 3.12428
# Velocity P-wave (km/s) = 6.93917 7.95562 7.46471
#
# Compressibility (1/GPa) = 0.01816934
#
# Stress axis : x y z
#
# Youngs Moduli (GPa) = 65.39180 85.25564 53.88915
#
# Poissons Ratio (x) = 0.41992 0.16441
# Poissons Ratio (y) = 0.32208 0.30869
# Poissons Ratio (z) = 0.19951 0.48836
#
# Static dielectric constant tensor:
#      x y z
#    x 1.428820 0.000000 0.000000 
#    y 0.000000 1.459860 0.000000 
#    z 0.000000 0.000000 1.424420 
# 
# From -- ./inp_files/36246.got.cif
#   From: 2010.05.17/outbox.cif.g08.bks.cpg/sg67_19_cif.got.tgz:36246.got - 2010.06.03 18:28:57.
