data_PCOD9500656
_publ_section_title
;
Structure prediction by ZEFSAII (Michael W. Deem and Ramdas Pophale) SiO2 
 PCOD9500656
Probable space group: C M M A
;
_chemical_formula_sum "Si O2"
_cell_formula_units_Z 88
_cell_length_a 10.234546
_cell_length_b 22.490197
_cell_length_c 22.073642
_cell_angle_alpha 90.000000
_cell_angle_beta 90.000000
_cell_angle_gamma 90.000000
_cell_volume 5080.843718
_symmetry_space_group_name_H-M "C M M A"
_symmetry_group_IT_number 67
_symmetry_cell_setting 'orthorhombic'
loop_
_space_group_symop_operation_xyz
x,y,z
-x,1/2-y,z
x,-y,-z
-x,1/2+y,-z
-x,-y,-z
x,1/2+y,-z
-x,y,z
x,1/2-y,z
1/2+x,1/2+y,z
1/2-x,-y,z
1/2+x,1/2-y,-z
1/2-x,y,-z
1/2-x,1/2-y,-z
1/2+x,y,-z
1/2-x,1/2+y,z
1/2+x,-y,z
loop_
_atom_site_type_symbol
_atom_site_label
_atom_site_fract_x
_atom_site_fract_y
_atom_site_fract_z
Si Si1 0.500000 0.921148 0.055824
Si Si2 0.258790 0.120072 0.866562
Si Si3 0.350452 0.162129 0.663468
Si Si4 0.347835 0.555584 0.255363
Si Si5 0.852833 0.750000 0.553404
Si Si6 0.646172 0.250000 0.282398
Si Si7 0.352756 0.750000 0.861295
Si Si8 0.000000 0.938986 0.084168
O O1 0.371088 0.894645 0.085712
O O2 0.500000 0.990631 0.073843
O O3 0.500000 0.912993 0.983845
O O4 0.310432 0.099652 0.800392
O O5 0.221512 0.188949 0.874259
O O6 0.128767 0.082362 0.881065
O O7 0.500000 0.178118 0.683363
O O8 0.337822 0.093280 0.681972
O O9 0.339557 0.191600 0.596773
O O10 0.233817 0.194501 0.698240
O O11 0.500000 0.537613 0.247450
O O12 0.250000 0.500000 0.254470
O O13 0.750000 0.750000 0.500000
O O14 0.000000 0.750000 0.529112
O O15 0.500000 0.250000 0.309176
O O16 0.633802 0.250000 0.211015
O O17 0.500000 0.750000 0.887771
#
# Coordination Sequence:
#
# PCOD9500656 Si02
#       8
#     8  16  16  16   8   8   8   8
#     4  11  24  43  61  95 103 150 199 248 298 353
#     4  12  23  40  61  87 115 153 198 242 303 363
#     4   9  19  36  54  82 118 156 191 234 286 341
#     4  11  23  37  58  88 121 153 194 244 300 355
#     4   9  18  34  59  86 119 156 197 244 280 331
#     4  10  18  30  50  79 113 148 186 223 277 333
#     4  11  23  39  56  83 118 156 182 237 300 357
#     4  11  24  43  67  77 123 146 191 250 300 361
#
# _framework density 17.319958
#
# number of rings (size 3 to 8) (size 9 to 14) (size 15 to 20)
#    0.000    1.455    3.636    3.000    1.273    4.000 
#    1.636    2.727    0.000    0.545    0.000    3.818 
#    0.000    0.000    0.000    0.000    0.000    0.000 
#
# Total GULP energy -245288.951085 kJ/mol
# GULP energy per Si atom -5574.748888 kJ/mol
# Density = 1.728054 g / cm^3
# Si number density = 17.319958 Si / 1000 Ang^3
#
#
#
# Elastic Constant Matrix: (Units=GPa)
#
#
# Indices 1 2 3 4 5 6 
#
# 1 153.9590 55.5585 46.0907 0.0000 0.0000 0.0000
# 2 55.5585 100.1665 26.6068 0.0000 0.0000 0.0000
# 3 46.0907 26.6068 66.9638 0.0000 0.0000 0.0000
# 4 0.0000 0.0000 0.0000 1.8678 0.0000 0.0000
# 5 0.0000 0.0000 0.0000 0.0000 25.6407 0.0000
# 6 0.0000 0.0000 0.0000 0.0000 0.0000 12.6020
#
#
#
# Elastic Compliance Matrix: (Units=1/GPa)
#
#
# Indices 1 2 3 4 5 6 
#
# 1 0.009368 -0.003894 -0.004900 0.000000 0.000000 0.000000
# 2 -0.003894 0.012780 -0.002398 0.000000 0.000000 0.000000
# 3 -0.004900 -0.002398 0.019259 0.000000 0.000000 0.000000
# 4 0.000000 0.000000 0.000000 0.535383 0.000000 0.000000
# 5 0.000000 0.000000 0.000000 0.000000 0.039001 0.000000
# 6 0.000000 0.000000 0.000000 0.000000 0.000000 0.079353
#
#
# Mechanical properties :
#
#
# Convention : Reuss Voigt Hill
#
# Bulk Modulus (GPa) = 52.56955 64.17791 58.37373
# Shear Modulus (GPa) = 6.90734 20.87764 13.89249
#
# Velocity S-wave (km/s) = 1.99918 3.47567 2.83522
# Velocity P-wave (km/s) = 5.97887 7.29670 6.67041
#
# Compressibility (1/GPa) = 0.01902242
#
# Stress axis : x y z
#
# Youngs Moduli (GPa) = 106.75191 78.24607 51.92391
#
# Poissons Ratio (x) = 0.30470 0.25444
# Poissons Ratio (y) = 0.41571 0.12449
# Poissons Ratio (z) = 0.52312 0.18761
#
# Static dielectric constant tensor:
#      x y z
#    x 1.589770 0.000000 0.000000 
#    y 0.000000 1.608520 0.000000 
#    z 0.000000 0.000000 1.584110 
# 
# From -- ./inp_files/40743.got.cif
#   From: 2010.05.17/outbox.cif.g08.bks.cpg/sg67_21_cif.got.tgz:40743.got - 2010.06.03 18:28:57.
