data_PCOD9500220
_publ_section_title
;
Structure prediction by ZEFSAII (Michael W. Deem and Ramdas Pophale) SiO2 
 PCOD9500220
Probable space group: C M M A
;
_chemical_formula_sum "Si O2"
_cell_formula_units_Z 80
_cell_length_a 25.437893
_cell_length_b 18.510149
_cell_length_c 10.331865
_cell_angle_alpha 90.000000
_cell_angle_beta 90.000000
_cell_angle_gamma 90.000000
_cell_volume 4864.853582
_symmetry_space_group_name_H-M "C M M A"
_symmetry_group_IT_number 67
_symmetry_cell_setting 'orthorhombic'
loop_
_space_group_symop_operation_xyz
x,y,z
-x,1/2-y,z
x,-y,-z
-x,1/2+y,-z
-x,-y,-z
x,1/2+y,-z
-x,y,z
x,1/2-y,z
1/2+x,1/2+y,z
1/2-x,-y,z
1/2+x,1/2-y,-z
1/2-x,y,-z
1/2-x,1/2-y,-z
1/2+x,y,-z
1/2-x,1/2+y,z
1/2+x,-y,z
loop_
_atom_site_type_symbol
_atom_site_label
_atom_site_fract_x
_atom_site_fract_y
_atom_site_fract_z
Si Si1 0.231345 0.583433 0.355407
Si Si2 0.712466 0.165628 0.875915
Si Si3 0.884585 0.539573 0.360976
Si Si4 0.114474 0.438241 0.110057
Si Si5 0.500000 0.540283 0.637586
Si Si6 0.500000 0.939466 0.111662
O O1 0.250000 0.500000 0.333583
O O2 0.250000 0.602363 0.500000
O O3 0.258245 0.632712 0.248376
O O4 0.168071 0.586240 0.347266
O O5 0.700984 0.250000 0.857039
O O6 0.660222 0.119437 0.899488
O O7 0.750000 0.157653 0.000000
O O8 0.881109 0.500000 0.500000
O O9 0.882359 0.480086 0.247002
O O10 0.942362 0.576952 0.352101
O O11 0.056522 0.402481 0.099473
O O12 0.119616 0.500000 0.000000
O O13 0.500000 0.500000 0.500000
O O14 0.500000 0.481271 0.751830
O O15 0.500000 0.000000 0.000000
#
# Coordination Sequence:
#
# PCOD9500220 Si02
#       6
#    16  16  16  16   8   8
#     4  11  19  32  53  77 100 131 172 209 246 298
#     4  11  24  36  48  74 105 134 167 205 253 308
#     4  10  16  28  46  73  99 124 163 205 245 290
#     4  10  18  31  52  72  97 131 166 206 249 292
#     4   8  16  24  40  67 101 125 147 202 256 281
#     4   8  16  28  45  73  96 119 164 209 243 287
#
# _framework density 16.444483000000002
#
# number of rings (size 3 to 8) (size 9 to 14) (size 15 to 20)
#    0.000    2.000    4.000    1.200    0.000    0.400 
#    0.000    0.500    0.000    0.000    0.000    2.100 
#    0.000    0.000    0.000    5.600    0.000    0.000 
#
# Total GULP energy -222777.848711 kJ/mol
# GULP energy per Si atom -5569.446218 kJ/mol
# Density = 1.640705 g / cm^3
# Si number density = 16.444483 Si / 1000 Ang^3
#
#
#
# Elastic Constant Matrix: (Units=GPa)
#
#
# Indices 1 2 3 4 5 6 
#
# 1 208.5188 59.9916 30.2837 0.0000 0.0000 0.0000
# 2 59.9916 57.6493 54.3045 0.0000 0.0000 0.0000
# 3 30.2837 54.3045 108.0009 0.0000 0.0000 0.0000
# 4 0.0000 0.0000 0.0000 13.8546 0.0000 0.0000
# 5 0.0000 0.0000 0.0000 0.0000 23.6013 0.0000
# 6 0.0000 0.0000 0.0000 0.0000 0.0000 -2.9156
#
#
#
# Elastic Compliance Matrix: (Units=1/GPa)
#
#
# Indices 1 2 3 4 5 6 
#
# 1 0.007463 -0.011010 0.003443 0.000000 0.000000 0.000000
# 2 -0.011010 0.049198 -0.021650 0.000000 0.000000 0.000000
# 3 0.003443 -0.021650 0.019180 0.000000 0.000000 0.000000
# 4 0.000000 0.000000 0.000000 0.072178 0.000000 0.000000
# 5 0.000000 0.000000 0.000000 0.000000 0.042370 0.000000
# 6 0.000000 0.000000 0.000000 0.000000 0.000000 -0.342979
#
#
# Mechanical properties :
#
#
# Convention : Reuss Voigt Hill
#
# Bulk Modulus (GPa) = 57.44841 73.70318 65.57579
# Shear Modulus (GPa) = -56.59036 22.21401 -17.18817
#
# Velocity S-wave (km/s) = -5.87262 3.67938 -3.23650
# Velocity P-wave (km/s) = 3.31255 7.93518 5.09873
#
# Compressibility (1/GPa) = 0.01740692
#
# Stress axis : x y z
#
# Youngs Moduli (GPa) = 133.98932 20.32619 52.13855
#
# Poissons Ratio (x) = 0.22379 -0.17953
# Poissons Ratio (y) = 1.47523 1.12880
# Poissons Ratio (z) = -0.46137 0.44006
#
# Static dielectric constant tensor:
#      x y z
#    x 1.623360 0.000000 0.000000 
#    y 0.000000 1.489950 0.000000 
#    z 0.000000 0.000000 1.556070 
# 
# From -- ./inp_files/12374.got.cif
#   From: 2010.05.17/outbox.cif.g08.bks.cpg/sg67_7_cif.got.tgz:12374.got - 2010.06.03 18:28:57.
