data_PCOD9500459
_publ_section_title
;
Structure prediction by ZEFSAII (Michael W. Deem and Ramdas Pophale) SiO2 
 PCOD9500459
Probable space group: C M M A
;
_chemical_formula_sum "Si O2"
_cell_formula_units_Z 104
_cell_length_a 33.042185
_cell_length_b 8.720552
_cell_length_c 21.760906
_cell_angle_alpha 90.000000
_cell_angle_beta 90.000000
_cell_angle_gamma 90.000000
_cell_volume 6270.320033
_symmetry_space_group_name_H-M "C M M A"
_symmetry_group_IT_number 67
_symmetry_cell_setting 'orthorhombic'
loop_
_space_group_symop_operation_xyz
x,y,z
-x,1/2-y,z
x,-y,-z
-x,1/2+y,-z
-x,-y,-z
x,1/2+y,-z
-x,y,z
x,1/2-y,z
1/2+x,1/2+y,z
1/2-x,-y,z
1/2+x,1/2-y,-z
1/2-x,y,-z
1/2-x,1/2-y,-z
1/2+x,y,-z
1/2-x,1/2+y,z
1/2+x,-y,z
loop_
_atom_site_type_symbol
_atom_site_label
_atom_site_fract_x
_atom_site_fract_y
_atom_site_fract_z
Si Si1 0.831563 0.066634 0.563206
Si Si2 0.500000 0.575061 0.605322
Si Si3 0.086477 0.566059 0.613930
Si Si4 0.706525 0.566766 0.692906
Si Si5 0.125637 0.935115 0.744608
Si Si6 0.436199 0.567745 0.161236
Si Si7 0.000000 0.572579 0.247891
Si Si8 0.000000 0.932291 0.068052
O O1 0.834191 0.250000 0.560280
O O2 0.805084 0.023365 0.622635
O O3 0.814887 0.000000 0.500000
O O4 0.876369 0.998292 0.574271
O O5 0.500000 0.750000 0.582348
O O6 0.457108 0.494867 0.591377
O O7 0.500000 0.576724 0.679597
O O8 0.085897 0.750000 0.612272
O O9 0.098824 0.517464 0.684283
O O10 0.707004 0.750000 0.696807
O O11 0.750000 0.500000 0.709211
O O12 0.669931 0.501616 0.733461
O O13 0.126493 0.750000 0.743067
O O14 0.107238 0.979654 0.811194
O O15 0.436917 0.750000 0.150828
O O16 0.463132 0.521144 0.219824
O O17 0.460053 0.488962 0.105300
O O18 0.000000 0.750000 0.225441
O O19 0.000000 0.750000 0.065952
O O20 0.000000 0.000000 0.000000
#
# Coordination Sequence:
#
# PCOD9500459 Si02
#       8
#    16   8  16  16  16  16   8   8
#     4  10  21  37  54  72  92 121 157 198 244 299
#     4  11  20  28  42  66  95 122 153 194 236 284
#     4  10  19  32  49  69  93 124 158 199 246 293
#     4  10  21  35  53  75 101 127 156 196 247 302
#     4   9  18  31  49  72  99 128 161 199 246 298
#     4  10  18  30  48  71  99 134 173 211 247 290
#     4  10  18  25  39  65  96 126 158 198 234 275
#     4  11  22  35  49  71 105 148 188 224 255 283
#
# _framework density 16.586075999999998
#
# number of rings (size 3 to 8) (size 9 to 14) (size 15 to 20)
#    0.000    2.000    1.538    3.923    0.000    4.615 
#    0.000    1.923    0.000    0.000    0.000    0.000 
#    0.000    0.615    0.000    6.462    0.000    2.769 
#
# Total GULP energy -289840.203172 kJ/mol
# GULP energy per Si atom -5573.850061 kJ/mol
# Density = 1.654833 g / cm^3
# Si number density = 16.586076 Si / 1000 Ang^3
#
#
#
# Elastic Constant Matrix: (Units=GPa)
#
#
# Indices 1 2 3 4 5 6 
#
# 1 106.7395 27.4844 28.0225 0.0000 0.0000 0.0000
# 2 27.4844 49.0889 24.9803 0.0000 0.0000 0.0000
# 3 28.0225 24.9803 74.2919 0.0000 0.0000 0.0000
# 4 0.0000 0.0000 0.0000 20.2670 0.0000 0.0000
# 5 0.0000 0.0000 0.0000 0.0000 12.8839 0.0000
# 6 0.0000 0.0000 0.0000 0.0000 0.0000 18.1732
#
#
#
# Elastic Compliance Matrix: (Units=1/GPa)
#
#
# Indices 1 2 3 4 5 6 
#
# 1 0.011344 -0.005036 -0.002586 0.000000 0.000000 0.000000
# 2 -0.005036 0.026812 -0.007116 0.000000 0.000000 0.000000
# 3 -0.002586 -0.007116 0.016828 0.000000 0.000000 0.000000
# 4 0.000000 0.000000 0.000000 0.049341 0.000000 0.000000
# 5 0.000000 0.000000 0.000000 0.000000 0.077617 0.000000
# 6 0.000000 0.000000 0.000000 0.000000 0.000000 0.055026
#
#
# Mechanical properties :
#
#
# Convention : Reuss Voigt Hill
#
# Bulk Modulus (GPa) = 39.20073 43.45497 41.32785
# Shear Modulus (GPa) = 18.18538 20.24033 19.21286
#
# Velocity S-wave (km/s) = 3.31482 3.49710 3.40718
# Velocity P-wave (km/s) = 6.19167 6.52402 6.36001
#
# Compressibility (1/GPa) = 0.02550973
#
# Stress axis : x y z
#
# Youngs Moduli (GPa) = 88.15181 37.29705 59.42322
#
# Poissons Ratio (x) = 0.18781 0.15365
# Poissons Ratio (y) = 0.44390 0.42285
# Poissons Ratio (z) = 0.22793 0.26540
#
# Static dielectric constant tensor:
#      x y z
#    x 1.585540 0.000000 0.000000 
#    y 0.000000 1.558780 0.000000 
#    z 0.000000 0.000000 1.563460 
# 
# From -- ./inp_files/42958.got.cif
#   From: 2010.05.17/outbox.cif.g08.bks.cpg/sg67_22_cif.got.tgz:42958.got - 2010.06.03 18:28:57.
