data_PCOD9500869
_publ_section_title
;
Structure prediction by ZEFSAII (Michael W. Deem and Ramdas Pophale) SiO2 
 PCOD9500869
Probable space group: C M M A
;
_chemical_formula_sum "Si O2"
_cell_formula_units_Z 72
_cell_length_a 8.904059
_cell_length_b 18.819414
_cell_length_c 25.221852
_cell_angle_alpha 90.000000
_cell_angle_beta 90.000000
_cell_angle_gamma 90.000000
_cell_volume 4226.404871
_symmetry_space_group_name_H-M "C M M A"
_symmetry_group_IT_number 67
_symmetry_cell_setting 'orthorhombic'
loop_
_space_group_symop_operation_xyz
x,y,z
-x,1/2-y,z
x,-y,-z
-x,1/2+y,-z
-x,-y,-z
x,1/2+y,-z
-x,y,z
x,1/2-y,z
1/2+x,1/2+y,z
1/2-x,-y,z
1/2+x,1/2-y,-z
1/2-x,y,-z
1/2-x,1/2-y,-z
1/2+x,y,-z
1/2-x,1/2+y,z
1/2+x,-y,z
loop_
_atom_site_type_symbol
_atom_site_label
_atom_site_fract_x
_atom_site_fract_y
_atom_site_fract_z
Si Si1 0.820939 0.077700 0.760465
Si Si2 0.673131 0.336522 0.445471
Si Si3 0.679712 0.750000 0.941908
Si Si4 0.677274 0.164913 0.665277
Si Si5 0.675672 0.670149 0.149020
O O1 0.766838 0.124521 0.710761
O O2 0.757562 0.115442 0.813208
O O3 0.000000 0.073901 0.762185
O O4 0.750000 0.000000 0.755798
O O5 0.500000 0.359294 0.442410
O O6 0.673795 0.250000 0.446750
O O7 0.750000 0.360780 0.500000
O O8 0.763499 0.356930 0.392801
O O9 0.500000 0.750000 0.943309
O O10 0.742730 0.683628 0.907197
O O11 0.750000 0.750000 0.000000
O O12 0.500000 0.150454 0.670348
O O13 0.699079 0.250000 0.670246
O O14 0.500000 0.652841 0.142047
O O15 0.682364 0.750000 0.174174
#
# Coordination Sequence:
#
# PCOD9500869 Si02
#       5
#    16  16   8  16  16
#     4  12  24  37  54  76 107 144 183 224 271 324
#     4   9  16  27  45  71 101 132 169 214 266 319
#     4  10  18  32  56  88 118 148 183 222 265 308
#     4  10  20  34  53  77 106 138 175 221 271 322
#     4   9  19  35  56  82 112 143 179 223 266 312
#
# _framework density 17.035755000000002
#
# number of rings (size 3 to 8) (size 9 to 14) (size 15 to 20)
#    0.667    1.333    0.000    5.333    0.000    6.667 
#    0.000    0.000    0.000    1.333    0.000    9.333 
#    0.000    0.000    0.000    0.000    0.000    0.000 
#
# Total GULP energy -200746.550784 kJ/mol
# GULP energy per Si atom -5576.293077 kJ/mol
# Density = 1.699698 g / cm^3
# Si number density = 17.035755 Si / 1000 Ang^3
#
#
#
# Elastic Constant Matrix: (Units=GPa)
#
#
# Indices 1 2 3 4 5 6 
#
# 1 189.4099 53.4194 85.2182 0.0000 0.0000 0.0000
# 2 53.4194 37.8019 41.3090 0.0000 0.0000 0.0000
# 3 85.2182 41.3090 147.7232 0.0000 0.0000 0.0000
# 4 0.0000 0.0000 0.0000 -3.9406 0.0000 0.0000
# 5 0.0000 0.0000 0.0000 0.0000 36.7007 0.0000
# 6 0.0000 0.0000 0.0000 0.0000 0.0000 23.2664
#
#
#
# Elastic Compliance Matrix: (Units=1/GPa)
#
#
# Indices 1 2 3 4 5 6 
#
# 1 0.009355 -0.010545 -0.002448 0.000000 0.000000 0.000000
# 2 -0.010545 0.049980 -0.007893 0.000000 0.000000 0.000000
# 3 -0.002448 -0.007893 0.010389 0.000000 0.000000 0.000000
# 4 0.000000 0.000000 0.000000 -0.253768 0.000000 0.000000
# 5 0.000000 0.000000 0.000000 0.000000 0.027247 0.000000
# 6 0.000000 0.000000 0.000000 0.000000 0.000000 0.042980
#
#
# Mechanical properties :
#
#
# Convention : Reuss Voigt Hill
#
# Bulk Modulus (GPa) = 35.77542 81.64758 58.71150
# Shear Modulus (GPa) = -79.71073 24.20452 -27.75310
#
# Velocity S-wave (km/s) = -6.84776 3.77345 -4.04060
# Velocity P-wave (km/s) = 6.44024 8.18636 3.57350
#
# Compressibility (1/GPa) = 0.02795215
#
# Stress axis : x y z
#
# Youngs Moduli (GPa) = 106.89679 20.00781 96.25686
#
# Poissons Ratio (x) = 0.21098 0.23563
# Poissons Ratio (y) = 1.12719 0.75980
# Poissons Ratio (z) = 0.26167 0.15793
#
# Static dielectric constant tensor:
#      x y z
#    x 1.564200 0.000000 0.000000 
#    y 0.000000 1.566450 0.000000 
#    z 0.000000 0.000000 1.563270 
# 
# From -- ./inp_files/43194.got.cif
#   From: 2010.05.17/outbox.cif.g08.bks.cpg/sg67_22_cif.got.tgz:43194.got - 2010.06.03 18:28:57.
