data_PCOD9500287
_publ_section_title
;
Structure prediction by ZEFSAII (Michael W. Deem and Ramdas Pophale) SiO2 
 PCOD9500287
Probable space group: C M M A
;
_chemical_formula_sum "Si O2"
_cell_formula_units_Z 96
_cell_length_a 8.646136
_cell_length_b 27.848658
_cell_length_c 24.698209
_cell_angle_alpha 90.000000
_cell_angle_beta 90.000000
_cell_angle_gamma 90.000000
_cell_volume 5946.915884
_symmetry_space_group_name_H-M "C M M A"
_symmetry_group_IT_number 67
_symmetry_cell_setting 'orthorhombic'
loop_
_space_group_symop_operation_xyz
x,y,z
-x,1/2-y,z
x,-y,-z
-x,1/2+y,-z
-x,-y,-z
x,1/2+y,-z
-x,y,z
x,1/2-y,z
1/2+x,1/2+y,z
1/2-x,-y,z
1/2+x,1/2-y,-z
1/2-x,y,-z
1/2-x,1/2-y,-z
1/2+x,y,-z
1/2-x,1/2+y,z
1/2+x,-y,z
loop_
_atom_site_type_symbol
_atom_site_label
_atom_site_fract_x
_atom_site_fract_y
_atom_site_fract_z
Si Si1 0.184700 0.054198 0.831540
Si Si2 0.313650 0.196564 0.665188
Si Si3 0.315003 0.445379 0.944304
Si Si4 0.315425 0.850331 0.558841
Si Si5 0.313980 0.400565 0.723469
Si Si6 0.314623 0.948773 0.616639
O O1 0.253664 0.075071 0.887583
O O2 0.238582 0.083806 0.779547
O O3 0.000000 0.051860 0.835309
O O4 0.250000 0.000000 0.825134
O O5 0.500000 0.195755 0.662616
O O6 0.263793 0.250000 0.681500
O O7 0.250131 0.183466 0.605976
O O8 0.267691 0.153215 0.704958
O O9 0.500000 0.446438 0.945405
O O10 0.250000 0.500000 0.943689
O O11 0.250000 0.423236 0.000000
O O12 0.500000 0.846865 0.558287
O O13 0.250000 0.839210 0.500000
O O14 0.273058 0.904841 0.576787
O O15 0.500000 0.403428 0.727365
O O16 0.256800 0.435029 0.674965
O O17 0.500000 0.950723 0.621257
O O18 0.250000 0.000000 0.598687
#
# Coordination Sequence:
#
# PCOD9500287 Si02
#       6
#    16  16  16  16  16  16
#     4  11  20  30  44  65  94 128 164 197 230 267
#     4   9  19  36  56  74  92 116 146 183 230 280
#     4  10  17  27  41  60  88 124 164 200 234 268
#     4  10  21  35  51  71  94 119 149 185 223 269
#     4  10  19  32  49  69  93 119 150 189 230 273
#     4  10  20  33  48  67  91 121 154 186 224 267
#
# _framework density 16.14282
#
# number of rings (size 3 to 8) (size 9 to 14) (size 15 to 20)
#    0.000    2.000    0.000    6.500    0.000    3.667 
#    0.000    1.667    0.000    0.000    0.000    0.000 
#    0.000    0.667    0.000    1.833    0.000    3.000 
#
# Total GULP energy -267851.767565 kJ/mol
# GULP energy per Si atom -5580.245158 kJ/mol
# Density = 1.610608 g / cm^3
# Si number density = 16.142820 Si / 1000 Ang^3
#
#
#
# Elastic Constant Matrix: (Units=GPa)
#
#
# Indices 1 2 3 4 5 6 
#
# 1 82.9918 16.9937 34.6870 0.0000 0.0000 0.0000
# 2 16.9937 64.6945 20.5944 0.0000 0.0000 0.0000
# 3 34.6870 20.5944 117.3597 0.0000 0.0000 0.0000
# 4 0.0000 0.0000 0.0000 9.3507 0.0000 0.0000
# 5 0.0000 0.0000 0.0000 0.0000 36.4089 0.0000
# 6 0.0000 0.0000 0.0000 0.0000 0.0000 11.2818
#
#
#
# Elastic Compliance Matrix: (Units=1/GPa)
#
#
# Indices 1 2 3 4 5 6 
#
# 1 0.014126 -0.002522 -0.003732 0.000000 0.000000 0.000000
# 2 -0.002522 0.016822 -0.002206 0.000000 0.000000 0.000000
# 3 -0.003732 -0.002206 0.010011 0.000000 0.000000 0.000000
# 4 0.000000 0.000000 0.000000 0.106944 0.000000 0.000000
# 5 0.000000 0.000000 0.000000 0.000000 0.027466 0.000000
# 6 0.000000 0.000000 0.000000 0.000000 0.000000 0.088638
#
#
# Mechanical properties :
#
#
# Convention : Reuss Voigt Hill
#
# Bulk Modulus (GPa) = 41.60301 45.51068 43.55685
# Shear Modulus (GPa) = 17.30452 24.25967 20.78210
#
# Velocity S-wave (km/s) = 3.27764 3.88082 3.59191
# Velocity P-wave (km/s) = 6.33653 6.95232 6.65156
#
# Compressibility (1/GPa) = 0.02403672
#
# Stress axis : x y z
#
# Youngs Moduli (GPa) = 70.79206 59.44522 99.88845
#
# Poissons Ratio (x) = 0.14994 0.37283
# Poissons Ratio (y) = 0.17856 0.22040
# Poissons Ratio (z) = 0.26423 0.13116
#
# Static dielectric constant tensor:
#      x y z
#    x 1.536910 0.000000 0.000000 
#    y 0.000000 1.540010 0.000000 
#    z 0.000000 0.000000 1.551660 
# 
# From -- ./inp_files/40796.got.cif
#   From: 2010.05.17/outbox.cif.g08.bks.cpg/sg67_21_cif.got.tgz:40796.got - 2010.06.03 18:28:57.
