data_PCOD9500141
_publ_section_title
;
Structure prediction by ZEFSAII (Michael W. Deem and Ramdas Pophale) SiO2 
 PCOD9500141
Probable space group: C C C M
;
_chemical_formula_sum "Si O2"
_cell_formula_units_Z 44
_cell_length_a 15.000000
_cell_length_b 18.000000
_cell_length_c 18.000000
_cell_angle_alpha 90.000000
_cell_angle_beta 90.000000
_cell_angle_gamma 90.000000
_cell_volume 4860.000000
_symmetry_space_group_name_H-M "C C C M"
_symmetry_group_IT_number 66
_symmetry_cell_setting 'orthorhombic'
loop_
_space_group_symop_operation_xyz
x,y,z
-x,-y,z
x,-y,1/2-z
-x,y,1/2-z
-x,-y,-z
x,y,-z
-x,y,1/2+z
x,-y,1/2+z
1/2+x,1/2+y,z
1/2-x,1/2-y,z
1/2+x,1/2-y,1/2-z
1/2-x,1/2+y,1/2-z
1/2-x,1/2-y,-z
1/2+x,1/2+y,-z
1/2-x,1/2+y,1/2+z
1/2+x,1/2-y,1/2+z
loop_
_atom_site_type_symbol
_atom_site_label
_atom_site_fract_x
_atom_site_fract_y
_atom_site_fract_z
Si Si1 0.205221 0.472780 0.089141
Si Si2 0.444449 0.867778 0.670502
Si Si3 0.901026 0.034285 0.333907
Si Si4 0.871459 0.360830 0.914080
Si Si5 0.903765 0.202662 0.288781
Si Si6 0.750000 0.250000 0.183190
O O1 0.135316 0.422532 0.139886
O O2 0.308089 0.477658 0.119973
O O3 0.167479 0.556370 0.093178
O O4 0.204258 0.450835 0.000000
O O5 0.500000 0.884080 0.750000
O O6 0.526361 0.864234 0.612985
O O7 0.401627 0.784993 0.674849
O O8 0.905870 0.124405 0.331752
O O9 0.889046 0.000000 0.250000
O O10 0.000000 0.000000 0.357982
O O11 0.812529 0.304414 0.865059
O O12 0.867054 0.337979 0.000000
O O13 0.819010 0.202928 0.233582
O O14 0.000000 0.203607 0.250000
#
# Coordination Sequence:
#
# PCOD9500141 Si02
#       6
#    16  16  16  16  16   8
#     4  11  26  44  63  94 134 169 211 269 326 389
#     4  11  23  42  65  95 125 166 212 269 321 384
#     4  11  23  40  68  96 125 172 218 264 317 381
#     4  11  24  40  63  93 129 166 207 263 327 390
#     4  11  21  40  62  97 126 157 213 273 309 372
#     4  12  21  40  64  92 129 166 212 268 325 388
#
# _framework density 9.0534979999999994
#
# number of rings (size 3 to 8) (size 9 to 14) (size 15 to 20)
#    0.000    0.909    5.455    3.545    2.545    2.545 
#    0.000    2.727    0.000    0.000    0.000    0.000 
#    0.000    0.000    0.000    0.000    0.000    0.000 
#
# Total GULP energy -245155.410106 kJ/mol
# GULP energy per Si atom -5571.713866 kJ/mol
# Density = 0.903289 g / cm^3
# Si number density = 9.053498 Si / 1000 Ang^3
#
#
#
# Elastic Constant Matrix: (Units=GPa)
#
#
# Indices 1 2 3 4 5 6 
#
# 1 165.3178 39.7439 55.5557 0.0000 0.0000 0.0000
# 2 39.7439 97.5122 37.7864 0.0000 0.0000 0.0000
# 3 55.5557 37.7864 73.1492 0.0000 0.0000 0.0000
# 4 0.0000 0.0000 0.0000 17.8632 0.0000 0.0000
# 5 0.0000 0.0000 0.0000 0.0000 38.4401 0.0000
# 6 0.0000 0.0000 0.0000 0.0000 0.0000 39.0931
#
#
#
# Elastic Compliance Matrix: (Units=1/GPa)
#
#
# Indices 1 2 3 4 5 6 
#
# 1 0.008226 -0.001165 -0.005646 0.000000 0.000000 0.000000
# 2 -0.001165 0.012987 -0.005824 0.000000 0.000000 0.000000
# 3 -0.005646 -0.005824 0.020967 0.000000 0.000000 0.000000
# 4 0.000000 0.000000 0.000000 0.055981 0.000000 0.000000
# 5 0.000000 0.000000 0.000000 0.000000 0.026014 0.000000
# 6 0.000000 0.000000 0.000000 0.000000 0.000000 0.025580
#
#
# Mechanical properties :
#
#
# Convention : Reuss Voigt Hill
#
# Bulk Modulus (GPa) = 59.13407 66.90568 63.01987
# Shear Modulus (GPa) = 27.67604 32.60551 30.14078
#
# Velocity S-wave (km/s) = 3.91381 4.24808 4.08437
# Velocity P-wave (km/s) = 7.29060 7.81614 7.55794
#
# Compressibility (1/GPa) = 0.01691073
#
# Stress axis : x y z
#
# Youngs Moduli (GPa) = 121.55974 77.00211 47.69397
#
# Poissons Ratio (x) = 0.08971 0.26928
# Poissons Ratio (y) = 0.14162 0.27775
# Poissons Ratio (z) = 0.68633 0.44843
#
# Static dielectric constant tensor:
#      x y z
#    x 1.617710 0.000000 0.000000 
#    y 0.000000 1.647810 0.000000 
#    z 0.000000 0.000000 1.657110 
# 
# From -- ./inp_files/40319.got.cif
#   From: 2010.05.17/outbox.ucp.g08.bks.cvg/sg66_21_cif.got.tgz:40319.got - 2010.06.11 16:44:13.
