data_PCOD9500406
_publ_section_title
;
Structure prediction by ZEFSAII (Michael W. Deem and Ramdas Pophale) SiO2 
 PCOD9500406
Probable space group: C M M A
;
_chemical_formula_sum "Si O2"
_cell_formula_units_Z 96
_cell_length_a 24.750227
_cell_length_b 20.413198
_cell_length_c 10.419742
_cell_angle_alpha 90.000000
_cell_angle_beta 90.000000
_cell_angle_gamma 90.000000
_cell_volume 5264.379633
_symmetry_space_group_name_H-M "C M M A"
_symmetry_group_IT_number 67
_symmetry_cell_setting 'orthorhombic'
loop_
_space_group_symop_operation_xyz
x,y,z
-x,1/2-y,z
x,-y,-z
-x,1/2+y,-z
-x,-y,-z
x,1/2+y,-z
-x,y,z
x,1/2-y,z
1/2+x,1/2+y,z
1/2-x,-y,z
1/2+x,1/2-y,-z
1/2-x,y,-z
1/2-x,1/2-y,-z
1/2+x,y,-z
1/2-x,1/2+y,z
1/2+x,-y,z
loop_
_atom_site_type_symbol
_atom_site_label
_atom_site_fract_x
_atom_site_fract_y
_atom_site_fract_z
Si Si1 0.398711 0.822937 0.346890
Si Si2 0.801773 0.135452 0.838813
Si Si3 0.646855 0.498372 0.858529
Si Si4 0.194605 0.173527 0.557776
Si Si5 0.321036 0.149085 0.879342
Si Si6 0.937853 0.030047 0.359708
O O1 0.423798 0.750000 0.365030
O O2 0.352557 0.832098 0.454614
O O3 0.366220 0.821737 0.212327
O O4 0.432412 0.890317 0.354634
O O5 0.822916 0.148931 0.696984
O O6 0.740859 0.163702 0.842888
O O7 0.810335 0.057321 0.853193
O O8 0.828898 0.162568 0.969364
O O9 0.675492 0.428549 0.853552
O O10 0.603259 0.499210 0.745099
O O11 0.880015 0.500000 0.000000
O O12 0.205876 0.250000 0.577859
O O13 0.250000 0.143057 0.500000
O O14 0.000000 0.012856 0.331221
O O15 0.924854 0.000000 0.500000
#
# Coordination Sequence:
#
# PCOD9500406 Si02
#       6
#    16  16  16  16  16  16
#     4  10  20  35  52  73 105 137 168 209 255 303
#     4  10  17  29  48  69 100 138 171 202 244 293
#     4   9  18  32  50  73  99 128 164 209 258 303
#     4  10  19  30  44  66  97 133 168 200 238 291
#     4   9  18  29  46  72 101 134 169 204 241 297
#     4  10  21  37  56  77  99 127 170 220 263 306
#
# _framework density 18.235766000000002
#
# number of rings (size 3 to 8) (size 9 to 14) (size 15 to 20)
#    0.000    2.333    1.667    1.500    0.000    3.333 
#    0.000    1.667    0.000    0.000    0.000    0.000 
#    0.000    8.000    0.000    0.000    0.000    0.000 
#
# Total GULP energy -267215.134911 kJ/mol
# GULP energy per Si atom -5566.981977 kJ/mol
# Density = 1.819426 g / cm^3
# Si number density = 18.235766 Si / 1000 Ang^3
#
#
#
# Elastic Constant Matrix: (Units=GPa)
#
#
# Indices 1 2 3 4 5 6 
#
# 1 42.7240 4.2472 27.0663 0.0000 0.0000 0.0000
# 2 4.2472 51.8661 0.1725 0.0000 0.0000 0.0000
# 3 27.0663 0.1725 117.2078 0.0000 0.0000 0.0000
# 4 0.0000 0.0000 0.0000 44.3260 0.0000 0.0000
# 5 0.0000 0.0000 0.0000 0.0000 17.3282 0.0000
# 6 0.0000 0.0000 0.0000 0.0000 0.0000 8.1169
#
#
#
# Elastic Compliance Matrix: (Units=1/GPa)
#
#
# Indices 1 2 3 4 5 6 
#
# 1 0.027676 -0.002245 -0.006388 0.000000 0.000000 0.000000
# 2 -0.002245 0.019463 0.000490 0.000000 0.000000 0.000000
# 3 -0.006388 0.000490 0.010006 0.000000 0.000000 0.000000
# 4 0.000000 0.000000 0.000000 0.022560 0.000000 0.000000
# 5 0.000000 0.000000 0.000000 0.000000 0.057709 0.000000
# 6 0.000000 0.000000 0.000000 0.000000 0.000000 0.123199
#
#
# Mechanical properties :
#
#
# Convention : Reuss Voigt Hill
#
# Bulk Modulus (GPa) = 24.47457 30.53000 27.50228
# Shear Modulus (GPa) = 17.21054 25.97502 21.59278
#
# Velocity S-wave (km/s) = 3.07543 3.77822 3.44479
# Velocity P-wave (km/s) = 5.10503 5.98426 5.56205
#
# Compressibility (1/GPa) = 0.04085874
#
# Stress axis : x y z
#
# Youngs Moduli (GPa) = 36.13233 51.38051 99.93758
#
# Poissons Ratio (x) = 0.11535 0.63838
# Poissons Ratio (y) = 0.08112 -0.04895
# Poissons Ratio (z) = 0.23081 -0.02517
#
# Static dielectric constant tensor:
#      x y z
#    x 1.597660 0.000000 0.000000 
#    y 0.000000 1.663630 0.000000 
#    z 0.000000 0.000000 1.658480 
# 
# From -- ./inp_files/11464.got.cif
#   From: 2010.05.17/outbox.cif.g08.bks.cpg/sg67_6_cif.got.tgz:11464.got - 2010.06.03 18:28:57.
