data_PCOD9500617
_publ_section_title
;
Structure prediction by ZEFSAII (Michael W. Deem and Ramdas Pophale) SiO2 
 PCOD9500617
Probable space group: C M M A
;
_chemical_formula_sum "Si O2"
_cell_formula_units_Z 104
_cell_length_a 9.176221
_cell_length_b 30.455042
_cell_length_c 20.433524
_cell_angle_alpha 90.000000
_cell_angle_beta 90.000000
_cell_angle_gamma 90.000000
_cell_volume 5710.397488
_symmetry_space_group_name_H-M "C M M A"
_symmetry_group_IT_number 67
_symmetry_cell_setting 'orthorhombic'
loop_
_space_group_symop_operation_xyz
x,y,z
-x,1/2-y,z
x,-y,-z
-x,1/2+y,-z
-x,-y,-z
x,1/2+y,-z
-x,y,z
x,1/2-y,z
1/2+x,1/2+y,z
1/2-x,-y,z
1/2+x,1/2-y,-z
1/2-x,y,-z
1/2-x,1/2-y,-z
1/2+x,y,-z
1/2-x,1/2+y,z
1/2+x,-y,z
loop_
_atom_site_type_symbol
_atom_site_label
_atom_site_fract_x
_atom_site_fract_y
_atom_site_fract_z
Si Si1 0.164463 0.543618 0.409890
Si Si2 0.172062 0.163658 0.068912
Si Si3 0.674798 0.750000 0.928303
Si Si4 0.677210 0.644328 0.567599
Si Si5 0.331427 0.373049 0.792994
Si Si6 0.837097 0.457545 0.747770
Si Si7 0.175012 0.198300 0.314466
O O1 0.250000 0.500000 0.430338
O O2 0.221014 0.592606 0.425381
O O3 0.159503 0.541581 0.331057
O O4 0.000000 0.541163 0.435822
O O5 0.257127 0.205635 0.098634
O O6 0.181018 0.130143 0.128637
O O7 0.000000 0.173508 0.056849
O O8 0.250000 0.152160 0.000000
O O9 0.500000 0.750000 0.929790
O O10 0.750000 0.750000 0.000000
O O11 0.500000 0.646546 0.566488
O O12 0.750000 0.660190 0.500000
O O13 0.740227 0.672649 0.627891
O O14 0.500000 0.382739 0.777473
O O15 0.234461 0.412222 0.767575
O O16 0.296801 0.328425 0.752918
O O17 0.750000 0.500000 0.770737
O O18 0.000000 0.459905 0.773078
O O19 0.214270 0.250000 0.310612
O O20 0.000000 0.196036 0.326693
#
# Coordination Sequence:
#
# PCOD9500617 Si02
#       7
#    16  16   8  16  16  16  16
#     4   9  19  34  54  81 113 145 179 222 275 332
#     4  10  20  34  53  78 113 152 191 233 281 339
#     4  10  18  30  48  72 104 144 187 228 273 328
#     4  11  23  40  59  83 113 148 189 232 281 334
#     4  10  21  36  59  86 114 149 188 233 283 337
#     4  10  19  34  57  85 116 147 184 229 279 337
#     4  10  22  40  61  84 110 145 190 236 283 332
#
# _framework density 18.212392999999999
#
# number of rings (size 3 to 8) (size 9 to 14) (size 15 to 20)
#    0.000    2.000    1.538    3.000    1.077    4.000 
#    0.000    1.538    0.000    0.462    0.000    3.231 
#    0.000    0.000    0.000    0.000    0.000    0.000 
#
# Total GULP energy -289826.199928 kJ/mol
# GULP energy per Si atom -5573.580768 kJ/mol
# Density = 1.817094 g / cm^3
# Si number density = 18.212393 Si / 1000 Ang^3
#
#
#
# Elastic Constant Matrix: (Units=GPa)
#
#
# Indices 1 2 3 4 5 6 
#
# 1 94.9500 67.8675 57.6714 0.0000 0.0000 0.0000
# 2 67.8675 122.6771 39.3725 0.0000 0.0000 0.0000
# 3 57.6714 39.3725 84.0511 0.0000 0.0000 0.0000
# 4 0.0000 0.0000 0.0000 -1.3564 0.0000 0.0000
# 5 0.0000 0.0000 0.0000 0.0000 -2.0907 0.0000
# 6 0.0000 0.0000 0.0000 0.0000 0.0000 32.1114
#
#
#
# Elastic Compliance Matrix: (Units=1/GPa)
#
#
# Indices 1 2 3 4 5 6 
#
# 1 0.025401 -0.009956 -0.012766 0.000000 0.000000 0.000000
# 2 -0.009956 0.013496 0.000509 0.000000 0.000000 0.000000
# 3 -0.012766 0.000509 0.020418 0.000000 0.000000 0.000000
# 4 0.000000 0.000000 0.000000 -0.737264 0.000000 0.000000
# 5 0.000000 0.000000 0.000000 0.000000 -0.478319 0.000000
# 6 0.000000 0.000000 0.000000 0.000000 0.000000 0.031142
#
#
# Mechanical properties :
#
#
# Convention : Reuss Voigt Hill
#
# Bulk Modulus (GPa) = 67.15384 70.16679 68.66031
# Shear Modulus (GPa) = -4.64797 14.85066 5.10135
#
# Velocity S-wave (km/s) = -1.59926 2.85865 1.67544
# Velocity P-wave (km/s) = 5.79159 7.03608 6.44395
#
# Compressibility (1/GPa) = 0.01489118
#
# Stress axis : x y z
#
# Youngs Moduli (GPa) = 39.36790 74.09768 48.97621
#
# Poissons Ratio (x) = 0.73768 0.62521
# Poissons Ratio (y) = 0.39193 -0.02493
# Poissons Ratio (z) = 0.50255 -0.03772
#
# Static dielectric constant tensor:
#      x y z
#    x 1.625390 0.000000 0.000000 
#    y 0.000000 1.643010 0.000000 
#    z 0.000000 0.000000 1.633550 
# 
# From -- ./inp_files/37306.got.cif
#   From: 2010.05.17/outbox.cif.g08.bks.cpg/sg67_19_cif.got.tgz:37306.got - 2010.06.03 18:28:57.
