data_PCOD9500431
_publ_section_title
;
Structure prediction by ZEFSAII (Michael W. Deem and Ramdas Pophale) SiO2 
 PCOD9500431
Probable space group: C M M A
;
_chemical_formula_sum "Si O2"
_cell_formula_units_Z 96
_cell_length_a 20.873486
_cell_length_b 14.276375
_cell_length_c 15.033235
_cell_angle_alpha 90.000000
_cell_angle_beta 90.000000
_cell_angle_gamma 90.000000
_cell_volume 4479.869659
_symmetry_space_group_name_H-M "C M M A"
_symmetry_group_IT_number 67
_symmetry_cell_setting 'orthorhombic'
loop_
_space_group_symop_operation_xyz
x,y,z
-x,1/2-y,z
x,-y,-z
-x,1/2+y,-z
-x,-y,-z
x,1/2+y,-z
-x,y,z
x,1/2-y,z
1/2+x,1/2+y,z
1/2-x,-y,z
1/2+x,1/2-y,-z
1/2-x,y,-z
1/2-x,1/2-y,-z
1/2+x,y,-z
1/2-x,1/2+y,z
1/2+x,-y,z
loop_
_atom_site_type_symbol
_atom_site_label
_atom_site_fract_x
_atom_site_fract_y
_atom_site_fract_z
Si Si1 0.313298 0.135662 0.055285
Si Si2 0.872215 0.136481 0.262710
Si Si3 0.805740 0.143451 0.561188
Si Si4 0.278898 0.863635 0.751149
Si Si5 0.427682 0.635681 0.071777
Si Si6 0.571577 0.599941 0.452176
O O1 0.313669 0.250000 0.057186
O O2 0.307268 0.100322 0.156146
O O3 0.250000 0.109539 0.000000
O O4 0.376362 0.106726 0.002137
O O5 0.877742 0.250000 0.270699
O O6 0.796585 0.115758 0.257129
O O7 0.905081 0.107556 0.170426
O O8 0.905801 0.095785 0.350119
O O9 0.783637 0.250000 0.578216
O O10 0.750000 0.100869 0.500000
O O11 0.811197 0.101667 0.659816
O O12 0.871213 0.147121 0.507122
O O13 0.285282 0.750000 0.757422
O O14 0.500000 0.605068 0.053942
O O15 0.427188 0.750000 0.072240
O O16 0.568314 0.500000 0.500000
O O17 0.500000 0.641234 0.456395
#
# Coordination Sequence:
#
# PCOD9500431 Si02
#       6
#    16  16  16  16  16  16
#     4   9  14  23  40  64 101 137 159 194 253 309
#     4  10  17  30  52  76 103 134 175 224 264 306
#     4  10  19  34  55  77 103 134 174 220 261 312
#     4   9  16  27  46  74 102 131 169 211 256 304
#     4   9  16  24  39  68 102 135 171 210 254 305
#     4  11  24  38  51  73 106 139 173 217 269 320
#
# _framework density 21.429195
#
# number of rings (size 3 to 8) (size 9 to 14) (size 15 to 20)
#    0.000    2.333    3.333    1.000    0.000    2.333 
#    0.000    0.833    0.000    3.000    0.000    1.167 
#    0.000    4.000    0.000    0.000    0.000    0.000 
#
# Total GULP energy -268092.766158 kJ/mol
# GULP energy per Si atom -5585.265962 kJ/mol
# Density = 2.138042 g / cm^3
# Si number density = 21.429195 Si / 1000 Ang^3
#
#
#
# Elastic Constant Matrix: (Units=GPa)
#
#
# Indices 1 2 3 4 5 6 
#
# 1 178.0152 4.1773 120.2288 0.0000 0.0000 0.0000
# 2 4.1773 61.8576 15.7550 0.0000 0.0000 0.0000
# 3 120.2288 15.7550 245.0685 0.0000 0.0000 0.0000
# 4 0.0000 0.0000 0.0000 5.3035 0.0000 0.0000
# 5 0.0000 0.0000 0.0000 0.0000 30.9553 0.0000
# 6 0.0000 0.0000 0.0000 0.0000 0.0000 -3.0933
#
#
#
# Elastic Compliance Matrix: (Units=1/GPa)
#
#
# Indices 1 2 3 4 5 6 
#
# 1 0.008416 0.000491 -0.004160 0.000000 0.000000 0.000000
# 2 0.000491 0.016464 -0.001299 0.000000 0.000000 0.000000
# 3 -0.004160 -0.001299 0.006205 0.000000 0.000000 0.000000
# 4 0.000000 0.000000 0.000000 0.188556 0.000000 0.000000
# 5 0.000000 0.000000 0.000000 0.000000 0.032305 0.000000
# 6 0.000000 0.000000 0.000000 0.000000 0.000000 -0.323280
#
#
# Mechanical properties :
#
#
# Convention : Reuss Voigt Hill
#
# Bulk Modulus (GPa) = 47.28616 85.02929 66.15772
# Shear Modulus (GPa) = -91.99971 29.61843 -31.19064
#
# Velocity S-wave (km/s) = -6.55936 3.72177 -3.81927
# Velocity P-wave (km/s) = 5.93740 7.63112 3.38979
#
# Compressibility (1/GPa) = 0.02114784
#
# Stress axis : x y z
#
# Youngs Moduli (GPa) = 118.82444 60.73874 161.15915
#
# Poissons Ratio (x) = -0.02984 0.67047
# Poissons Ratio (y) = -0.05838 0.20942
# Poissons Ratio (z) = 0.49435 0.07893
#
# Static dielectric constant tensor:
#      x y z
#    x 1.735990 0.000000 0.000000 
#    y 0.000000 1.919540 0.000000 
#    z 0.000000 0.000000 1.772970 
# 
# From -- ./inp_files/29262.got.cif
#   From: 2010.05.17/outbox.cif.g08.bks.cpg/sg67_15_cif.got.tgz:29262.got - 2010.06.03 18:28:57.
