data_PCOD9500760
_publ_section_title
;
Structure prediction by ZEFSAII (Michael W. Deem and Ramdas Pophale) SiO2 
 PCOD9500760
Probable space group: C M M A
;
_chemical_formula_sum "Si O2"
_cell_formula_units_Z 64
_cell_length_a 25.520043
_cell_length_b 8.639688
_cell_length_c 14.934949
_cell_angle_alpha 90.000000
_cell_angle_beta 90.000000
_cell_angle_gamma 90.000000
_cell_volume 3292.935356
_symmetry_space_group_name_H-M "C M M A"
_symmetry_group_IT_number 67
_symmetry_cell_setting 'orthorhombic'
loop_
_space_group_symop_operation_xyz
x,y,z
-x,1/2-y,z
x,-y,-z
-x,1/2+y,-z
-x,-y,-z
x,1/2+y,-z
-x,y,z
x,1/2-y,z
1/2+x,1/2+y,z
1/2-x,-y,z
1/2+x,1/2-y,-z
1/2-x,y,-z
1/2-x,1/2-y,-z
1/2+x,y,-z
1/2-x,1/2+y,z
1/2+x,-y,z
loop_
_atom_site_type_symbol
_atom_site_label
_atom_site_fract_x
_atom_site_fract_y
_atom_site_fract_z
Si Si1 0.609067 0.435445 0.100408
Si Si2 0.500000 0.436598 0.601112
Si Si3 0.500000 0.565240 0.101582
Si Si4 0.808371 0.435207 0.749067
Si Si5 0.114923 0.436226 0.398975
O O1 0.604440 0.250000 0.095867
O O2 0.554687 0.503272 0.139391
O O3 0.657360 0.478475 0.163723
O O4 0.615986 0.500000 0.000000
O O5 0.500000 0.250000 0.600325
O O6 0.500000 0.500000 0.500000
O O7 0.443086 0.484236 0.637620
O O8 0.500000 0.750000 0.101770
O O9 0.500000 0.500000 0.000000
O O10 0.806577 0.250000 0.744129
O O11 0.750000 0.500000 0.753374
O O12 0.839880 0.499105 0.663898
O O13 0.119709 0.500000 0.500000
O O14 0.117222 0.250000 0.401130
#
# Coordination Sequence:
#
# PCOD9500760 Si02
#       5
#    16   8   8  16  16
#     4  10  21  38  60  86 117 151 188 233 286 341
#     4   8  16  31  54  85 116 146 180 221 273 333
#     4  10  18  31  56  87 118 150 186 229 280 339
#     4  11  25  42  59  82 112 149 195 242 285 335
#     4  10  20  37  61  88 119 152 188 231 282 338
#
# _framework density 19.435548000000001
#
# number of rings (size 3 to 8) (size 9 to 14) (size 15 to 20)
#    0.000    2.000    0.000    4.875    0.000    7.000 
#    0.000    7.500    0.000    0.000    0.000    0.000 
#    0.000    0.000    0.000    0.000    0.000    0.000 
#
# Total GULP energy -178667.122165 kJ/mol
# GULP energy per Si atom -5583.347568 kJ/mol
# Density = 1.939131 g / cm^3
# Si number density = 19.435548 Si / 1000 Ang^3
#
#
#
# Elastic Constant Matrix: (Units=GPa)
#
#
# Indices 1 2 3 4 5 6 
#
# 1 236.4282 68.9189 91.4773 0.0000 0.0000 0.0000
# 2 68.9189 67.3835 40.0184 0.0000 0.0000 0.0000
# 3 91.4773 40.0184 111.9916 0.0000 0.0000 0.0000
# 4 0.0000 0.0000 0.0000 23.2678 0.0000 0.0000
# 5 0.0000 0.0000 0.0000 0.0000 34.8975 0.0000
# 6 0.0000 0.0000 0.0000 0.0000 0.0000 25.7601
#
#
#
# Elastic Compliance Matrix: (Units=1/GPa)
#
#
# Indices 1 2 3 4 5 6 
#
# 1 0.007300 -0.004983 -0.004183 0.000000 0.000000 0.000000
# 2 -0.004983 0.022239 -0.003877 0.000000 0.000000 0.000000
# 3 -0.004183 -0.003877 0.013731 0.000000 0.000000 0.000000
# 4 0.000000 0.000000 0.000000 0.042978 0.000000 0.000000
# 5 0.000000 0.000000 0.000000 0.000000 0.028655 0.000000
# 6 0.000000 0.000000 0.000000 0.000000 0.000000 0.038820
#
#
# Mechanical properties :
#
#
# Convention : Reuss Voigt Hill
#
# Bulk Modulus (GPa) = 58.18615 90.73693 74.46154
# Shear Modulus (GPa) = 26.94889 31.14432 29.04661
#
# Velocity S-wave (km/s) = 3.72772 4.00739 3.87008
# Velocity P-wave (km/s) = 6.96641 8.25831 7.63972
#
# Compressibility (1/GPa) = 0.01718622
#
# Stress axis : x y z
#
# Youngs Moduli (GPa) = 136.97889 44.96590 72.82776
#
# Poissons Ratio (x) = 0.22405 0.30461
# Poissons Ratio (y) = 0.68253 0.28234
# Poissons Ratio (z) = 0.57293 0.17432
#
# Static dielectric constant tensor:
#      x y z
#    x 1.695130 0.000000 0.000000 
#    y 0.000000 1.684120 0.000000 
#    z 0.000000 0.000000 1.661120 
# 
# From -- ./inp_files/29779.got.cif
#   From: 2010.05.17/outbox.cif.g08.bks.cpg/sg67_15_cif.got.tgz:29779.got - 2010.06.03 18:28:57.
