data_PCOD9500695
_publ_section_title
;
Structure prediction by ZEFSAII (Michael W. Deem and Ramdas Pophale) SiO2 
 PCOD9500695
Probable space group: C M M A
;
_chemical_formula_sum "Si O2"
_cell_formula_units_Z 72
_cell_length_a 9.027402
_cell_length_b 18.931415
_cell_length_c 25.294675
_cell_angle_alpha 90.000000
_cell_angle_beta 90.000000
_cell_angle_gamma 90.000000
_cell_volume 4322.897738
_symmetry_space_group_name_H-M "C M M A"
_symmetry_group_IT_number 67
_symmetry_cell_setting 'orthorhombic'
loop_
_space_group_symop_operation_xyz
x,y,z
-x,1/2-y,z
x,-y,-z
-x,1/2+y,-z
-x,-y,-z
x,1/2+y,-z
-x,y,z
x,1/2-y,z
1/2+x,1/2+y,z
1/2-x,-y,z
1/2+x,1/2-y,-z
1/2-x,y,-z
1/2-x,1/2-y,-z
1/2+x,y,-z
1/2-x,1/2+y,z
1/2+x,-y,z
loop_
_atom_site_type_symbol
_atom_site_label
_atom_site_fract_x
_atom_site_fract_y
_atom_site_fract_z
Si Si1 0.321536 0.576798 0.242979
Si Si2 0.675341 0.250000 0.056994
Si Si3 0.670776 0.663997 0.446200
Si Si4 0.175472 0.334581 0.663551
Si Si5 0.172425 0.828431 0.854794
O O1 0.500000 0.573553 0.245521
O O2 0.250000 0.500000 0.246483
O O3 0.259634 0.624722 0.290237
O O4 0.280177 0.613724 0.187223
O O5 0.500000 0.250000 0.052722
O O6 0.732374 0.316351 0.092413
O O7 0.750000 0.250000 0.000000
O O8 0.500000 0.641043 0.443972
O O9 0.670697 0.750000 0.447485
O O10 0.750000 0.640008 0.500000
O O11 0.758963 0.643873 0.393439
O O12 0.196770 0.250000 0.669140
O O13 0.000000 0.348722 0.665760
O O14 0.180442 0.750000 0.828356
O O15 0.000000 0.839801 0.868933
#
# Coordination Sequence:
#
# PCOD9500695 Si02
#       5
#    16   8  16  16  16
#     4  11  22  36  53  74 105 141 176 216 262 311
#     4  10  18  30  54  84 112 138 171 212 253 298
#     4   9  16  27  45  70  99 130 165 209 262 313
#     4  10  20  33  51  76 104 134 173 218 261 312
#     4   8  17  34  53  76 105 137 173 211 254 302
#
# _framework density 16.655494999999998
#
# number of rings (size 3 to 8) (size 9 to 14) (size 15 to 20)
#    0.667    1.778    0.000    3.333    0.000    6.667 
#    0.000    0.000    0.000    1.333    0.000    9.333 
#    0.000    0.000    0.000    0.000    0.000    0.000 
#
# Total GULP energy -200536.059687 kJ/mol
# GULP energy per Si atom -5570.446102 kJ/mol
# Density = 1.661759 g / cm^3
# Si number density = 16.655495 Si / 1000 Ang^3
#
#
#
# Elastic Constant Matrix: (Units=GPa)
#
#
# Indices 1 2 3 4 5 6 
#
# 1 114.8199 44.3510 87.0243 0.0000 0.0000 0.0000
# 2 44.3510 42.0634 49.5104 0.0000 0.0000 0.0000
# 3 87.0243 49.5104 160.5226 0.0000 0.0000 0.0000
# 4 0.0000 0.0000 0.0000 -1.6830 0.0000 0.0000
# 5 0.0000 0.0000 0.0000 0.0000 32.7652 0.0000
# 6 0.0000 0.0000 0.0000 0.0000 0.0000 19.6334
#
#
#
# Elastic Compliance Matrix: (Units=1/GPa)
#
#
# Indices 1 2 3 4 5 6 
#
# 1 0.017794 -0.011629 -0.006060 0.000000 0.000000 0.000000
# 2 -0.011629 0.044923 -0.007551 0.000000 0.000000 0.000000
# 3 -0.006060 -0.007551 0.011844 0.000000 0.000000 0.000000
# 4 0.000000 0.000000 0.000000 -0.594178 0.000000 0.000000
# 5 0.000000 0.000000 0.000000 0.000000 0.030520 0.000000
# 6 0.000000 0.000000 0.000000 0.000000 0.000000 0.050934
#
#
# Mechanical properties :
#
#
# Convention : Reuss Voigt Hill
#
# Bulk Modulus (GPa) = 41.52687 75.46413 58.49550
# Shear Modulus (GPa) = -13.16985 19.24447 3.03731
#
# Velocity S-wave (km/s) = -2.81503 3.40287 1.35188
# Velocity P-wave (km/s) = 3.79752 7.80042 6.13464
#
# Compressibility (1/GPa) = 0.02408079
#
# Stress axis : x y z
#
# Youngs Moduli (GPa) = 56.19815 22.26015 84.43049
#
# Poissons Ratio (x) = 0.25886 0.51165
# Poissons Ratio (y) = 0.65353 0.63757
# Poissons Ratio (z) = 0.34056 0.16809
#
# Static dielectric constant tensor:
#      x y z
#    x 1.557200 0.000000 0.000000 
#    y 0.000000 1.552190 0.000000 
#    z 0.000000 0.000000 1.544840 
# 
# From -- ./inp_files/43191.got.cif
#   From: 2010.05.17/outbox.cif.g08.bks.cpg/sg67_22_cif.got.tgz:43191.got - 2010.06.03 18:28:57.
