data_PCOD9500405
_publ_section_title
;
Structure prediction by ZEFSAII (Michael W. Deem and Ramdas Pophale) SiO2 
 PCOD9500405
Probable space group: C M M A
;
_chemical_formula_sum "Si O2"
_cell_formula_units_Z 92
_cell_length_a 20.987949
_cell_length_b 18.360640
_cell_length_c 10.254071
_cell_angle_alpha 90.000000
_cell_angle_beta 90.000000
_cell_angle_gamma 90.000000
_cell_volume 3951.428572
_symmetry_space_group_name_H-M "C M M A"
_symmetry_group_IT_number 67
_symmetry_cell_setting 'orthorhombic'
loop_
_space_group_symop_operation_xyz
x,y,z
-x,1/2-y,z
x,-y,-z
-x,1/2+y,-z
-x,-y,-z
x,1/2+y,-z
-x,y,z
x,1/2-y,z
1/2+x,1/2+y,z
1/2-x,-y,z
1/2+x,1/2-y,-z
1/2-x,y,-z
1/2-x,1/2-y,-z
1/2+x,y,-z
1/2-x,1/2+y,z
1/2+x,-y,z
loop_
_atom_site_type_symbol
_atom_site_label
_atom_site_fract_x
_atom_site_fract_y
_atom_site_fract_z
Si Si1 0.500000 0.906921 0.493499
Si Si2 0.270323 0.167720 0.349722
Si Si3 0.307321 0.943534 0.179338
Si Si4 0.623525 0.668537 0.037279
Si Si5 0.130952 0.957695 0.378291
Si Si6 0.578096 0.750000 0.806573
Si Si7 0.000000 0.750000 0.398507
Si Si8 0.000000 0.163854 0.222505
O O1 0.438538 0.939047 0.567109
O O2 0.500000 0.823525 0.526999
O O3 0.500000 0.898026 0.335694
O O4 0.280023 0.250000 0.297591
O O5 0.250000 0.172850 0.500000
O O6 0.217056 0.123138 0.270033
O O7 0.331238 0.115448 0.346901
O O8 0.332004 0.900733 0.053374
O O9 0.250000 0.000000 0.160797
O O10 0.361786 0.988089 0.256362
O O11 0.650917 0.750000 0.070088
O O12 0.562668 0.657520 0.131177
O O13 0.600756 0.681523 0.889401
O O14 0.164265 0.000000 0.500000
O O15 0.500000 0.750000 0.808204
O O16 0.576074 0.750000 0.654000
O O17 0.000000 0.250000 0.265658
#
# Coordination Sequence:
#
# PCOD9500405 Si02
#       8
#     8  16  16  16  16   8   4   8
#     4  12  25  35  54  82 125 161 189 234 295 364
#     4  10  20  33  53  76 110 166 217 237 263 331
#     4  10  20  32  51  79 120 155 193 243 284 347
#     4   9  16  32  59  88 114 147 192 241 299 340
#     4  11  22  37  49  76 125 173 196 223 287 355
#     4   8  16  37  62  88 109 136 189 259 299 352
#     4  10  22  42  60  86 120 150 200 252 304 354
#     4  10  17  29  47  83 115 145 181 231 279 347
#
# _framework density 23.282717999999999
#
# number of rings (size 3 to 8) (size 9 to 14) (size 15 to 20)
#    0.783    1.217    3.043    1.826    1.217    0.696 
#    0.000    0.000    0.000    2.087    0.000   13.391 
#    0.000    0.000    0.000    0.000    0.000    0.000 
#
# Total GULP energy -256554.324877 kJ/mol
# GULP energy per Si atom -5577.267932 kJ/mol
# Density = 2.322973 g / cm^3
# Si number density = 23.282718 Si / 1000 Ang^3
#
#
#
# Elastic Constant Matrix: (Units=GPa)
#
#
# Indices 1 2 3 4 5 6 
#
# 1 59.2037 41.2507 13.4801 0.0000 0.0000 0.0000
# 2 41.2507 155.5455 23.7565 0.0000 0.0000 0.0000
# 3 13.4801 23.7565 70.2196 0.0000 0.0000 0.0000
# 4 0.0000 0.0000 0.0000 13.1340 0.0000 0.0000
# 5 0.0000 0.0000 0.0000 0.0000 46.6936 0.0000
# 6 0.0000 0.0000 0.0000 0.0000 0.0000 34.5322
#
#
#
# Elastic Compliance Matrix: (Units=1/GPa)
#
#
# Indices 1 2 3 4 5 6 
#
# 1 0.021057 -0.005238 -0.002270 0.000000 0.000000 0.000000
# 2 -0.005238 0.008082 -0.001729 0.000000 0.000000 0.000000
# 3 -0.002270 -0.001729 0.015262 0.000000 0.000000 0.000000
# 4 0.000000 0.000000 0.000000 0.076138 0.000000 0.000000
# 5 0.000000 0.000000 0.000000 0.000000 0.021416 0.000000
# 6 0.000000 0.000000 0.000000 0.000000 0.000000 0.028958
#
#
# Mechanical properties :
#
#
# Convention : Reuss Voigt Hill
#
# Bulk Modulus (GPa) = 38.56931 49.10481 43.83706
# Shear Modulus (GPa) = 25.24872 32.63739 28.94306
#
# Velocity S-wave (km/s) = 3.29666 3.74811 3.52961
# Velocity P-wave (km/s) = 5.57604 6.31407 5.95650
#
# Compressibility (1/GPa) = 0.02592735
#
# Stress axis : x y z
#
# Youngs Moduli (GPa) = 47.48983 123.73108 65.52314
#
# Poissons Ratio (x) = 0.64805 0.14876
# Poissons Ratio (y) = 0.24873 0.11328
# Poissons Ratio (z) = 0.10782 0.21391
#
# Static dielectric constant tensor:
#      x y z
#    x 1.935960 0.000000 0.000000 
#    y 0.000000 1.876600 0.000000 
#    z 0.000000 0.000000 1.868230 
# 
# From -- ./inp_files/29454.got.cif
#   From: 2010.05.17/outbox.cif.g08.bks.cpg/sg67_15_cif.got.tgz:29454.got - 2010.06.03 18:28:57.
