data_PCOD9500005
_publ_section_title
;
Structure prediction by ZEFSAII (Michael W. Deem and Ramdas Pophale) SiO2 
 PCOD9500005
Probable space group: C C C M
;
_chemical_formula_sum "Si O2"
_cell_formula_units_Z 56
_cell_length_a 11.411112
_cell_length_b 10.729504
_cell_length_c 19.038461
_cell_angle_alpha 90.000000
_cell_angle_beta 90.000000
_cell_angle_gamma 90.000000
_cell_volume 2330.984860
_symmetry_space_group_name_H-M "C C C M"
_symmetry_group_IT_number 66
_symmetry_cell_setting 'orthorhombic'
loop_
_space_group_symop_operation_xyz
x,y,z
-x,-y,z
x,-y,1/2-z
-x,y,1/2-z
-x,-y,-z
x,y,-z
-x,y,1/2+z
x,-y,1/2+z
1/2+x,1/2+y,z
1/2-x,1/2-y,z
1/2+x,1/2-y,1/2-z
1/2-x,1/2+y,1/2-z
1/2-x,1/2-y,-z
1/2+x,1/2+y,-z
1/2-x,1/2+y,1/2+z
1/2+x,1/2-y,1/2+z
loop_
_atom_site_type_symbol
_atom_site_label
_atom_site_fract_x
_atom_site_fract_y
_atom_site_fract_z
Si Si1 0.386557 0.415786 0.656940
Si Si2 0.584388 0.117517 0.500000
Si Si3 0.308840 0.884349 0.652011
Si Si4 0.123033 0.183251 0.500000
Si Si5 0.500000 0.794233 0.250000
O O1 0.500000 0.500000 0.669583
O O2 0.272922 0.499616 0.671876
O O3 0.381850 0.387148 0.574037
O O4 0.411944 0.293496 0.703681
O O5 0.661941 0.112419 0.569553
O O6 0.493984 0.232281 0.500000
O O7 0.500000 0.000000 0.500000
O O8 0.250000 0.750000 0.664665
O O9 0.427030 0.875800 0.695857
O O10 0.250000 0.250000 0.500000
#
# Coordination Sequence:
#
# PCOD9500005 Si02
#       5
#    16   8  16   8   8
#     4  12  25  50  78 113 150 206 262 324 397 472
#     4  12  25  52  73 117 147 199 272 334 392 468
#     4  12  26  49  80 109 156 203 265 325 397 476
#     4  12  25  48  81 107 151 201 264 336 391 465
#     4  12  27  52  77 114 168 205 262 323 402 492
#
# _framework density 24.024179
#
# number of rings (size 3 to 8) (size 9 to 14) (size 15 to 20)
#    0.000    0.000    5.714    3.857    0.000    1.143 
#   10.286    0.000    0.000    0.000    0.000    0.000 
#    0.000    0.000    0.000    0.000    0.000    0.000 
#
# Total GULP energy -157065.360403 kJ/mol
# GULP energy per Si atom -5609.477157 kJ/mol
# Density = 2.396950 g / cm^3
# Si number density = 24.024179 Si / 1000 Ang^3
#
#
#
# Elastic Constant Matrix: (Units=GPa)
#
#
# Indices 1 2 3 4 5 6 
#
# 1 143.6673 64.9669 73.8450 0.0000 0.0000 0.0000
# 2 64.9669 103.0149 55.8355 0.0000 0.0000 0.0000
# 3 73.8450 55.8355 222.3119 0.0000 0.0000 0.0000
# 4 0.0000 0.0000 0.0000 -3.3809 0.0000 0.0000
# 5 0.0000 0.0000 0.0000 0.0000 -239.3443 0.0000
# 6 0.0000 0.0000 0.0000 0.0000 0.0000 60.5733
#
#
#
# Elastic Compliance Matrix: (Units=1/GPa)
#
#
# Indices 1 2 3 4 5 6 
#
# 1 0.010535 -0.005495 -0.002119 0.000000 0.000000 0.000000
# 2 -0.005495 0.014103 -0.001717 0.000000 0.000000 0.000000
# 3 -0.002119 -0.001717 0.005633 0.000000 0.000000 0.000000
# 4 0.000000 0.000000 0.000000 -0.295777 0.000000 0.000000
# 5 0.000000 0.000000 0.000000 0.000000 -0.004178 0.000000
# 6 0.000000 0.000000 0.000000 0.000000 0.000000 0.016509
#
#
# Mechanical properties :
#
#
# Convention : Reuss Voigt Hill
#
# Bulk Modulus (GPa) = 86.13931 95.36541 90.75236
# Shear Modulus (GPa) = -21.67858 -18.14060 -19.90959
#
# Velocity S-wave (km/s) = -3.00720 -2.75089 -2.88189
# Velocity P-wave (km/s) = 4.88625 5.44903 5.17530
#
# Compressibility (1/GPa) = 0.01160910
#
# Stress axis : x y z
#
# Youngs Moduli (GPa) = 94.92443 70.90457 177.51568
#
# Poissons Ratio (x) = 0.38963 0.37618
# Poissons Ratio (y) = 0.52162 0.30477
# Poissons Ratio (z) = 0.20116 0.12173
#
# Static dielectric constant tensor:
#      x y z
#    x 2.034090 0.000000 0.000000 
#    y 0.000000 1.907660 0.000000 
#    z 0.000000 0.000000 2.003910 
# 
# From -- ./inp_files/47945.got.cif
#   From: 2010.05.17/outbox.cif.g08.bks.cpg/sg66_24_cif.got.tgz:47945.got - 2010.06.03 17:51:23.
