data_PCOD9500094
_publ_section_title
;
Structure prediction by ZEFSAII (Michael W. Deem and Ramdas Pophale) SiO2 
 PCOD9500094
Probable space group: C C C M
;
_chemical_formula_sum "Si O2"
_cell_formula_units_Z 40
_cell_length_a 27.000000
_cell_length_b 18.000000
_cell_length_c 9.000000
_cell_angle_alpha 90.000000
_cell_angle_beta 90.000000
_cell_angle_gamma 90.000000
_cell_volume 4374.000000
_symmetry_space_group_name_H-M "C C C M"
_symmetry_group_IT_number 66
_symmetry_cell_setting 'orthorhombic'
loop_
_space_group_symop_operation_xyz
x,y,z
-x,-y,z
x,-y,1/2-z
-x,y,1/2-z
-x,-y,-z
x,y,-z
-x,y,1/2+z
x,-y,1/2+z
1/2+x,1/2+y,z
1/2-x,1/2-y,z
1/2+x,1/2-y,1/2-z
1/2-x,1/2+y,1/2-z
1/2-x,1/2-y,-z
1/2+x,1/2+y,-z
1/2-x,1/2+y,1/2+z
1/2+x,1/2-y,1/2+z
loop_
_atom_site_type_symbol
_atom_site_label
_atom_site_fract_x
_atom_site_fract_y
_atom_site_fract_z
Si Si1 0.553915 0.572612 0.824325
Si Si2 0.601585 0.710581 0.675495
Si Si3 0.448328 0.868669 0.824798
Si Si4 0.194381 0.721549 0.673500
Si Si5 0.659076 0.924236 0.679008
O O1 0.577467 0.500000 0.750000
O O2 0.500000 0.579900 0.750000
O O3 0.583305 0.644535 0.777027
O O4 0.549349 0.564209 0.000000
O O5 0.599718 0.693086 0.500000
O O6 0.566690 0.782544 0.700432
O O7 0.656414 0.731161 0.728023
O O8 0.500000 0.888139 0.750000
O O9 0.398855 0.912089 0.777876
O O10 0.454097 0.879529 0.000000
O O11 0.178684 0.720994 0.500000
O O12 0.250000 0.750000 0.681083
O O13 0.189709 0.640873 0.745286
O O14 0.662085 0.921427 0.500000
O O15 0.676371 0.000000 0.750000
#
# Coordination Sequence:
#
# PCOD9500094 Si02
#       5
#    16  16  16  16  16
#     4  11  21  34  52  76 108 145 183 223 270 322
#     4  10  20  35  54  78 107 140 180 223 269 320
#     4   9  19  32  49  75 106 141 178 214 254 304
#     4  10  21  38  60  84 108 137 176 221 271 325
#     4  10  21  37  56  80 110 143 179 219 265 315
#
# _framework density 9.1449470000000002
#
# number of rings (size 3 to 8) (size 9 to 14) (size 15 to 20)
#    0.000    2.000    0.000    6.000    0.000    8.400 
#    0.000    3.000    0.000    4.800    0.000    0.000 
#    0.000    0.000    0.000    0.000    0.000    0.000 
#
# Total GULP energy -223148.058603 kJ/mol
# GULP energy per Si atom -5578.701465 kJ/mol
# Density = 0.912413 g / cm^3
# Si number density = 9.144947 Si / 1000 Ang^3
#
#
#
# Elastic Constant Matrix: (Units=GPa)
#
#
# Indices 1 2 3 4 5 6 
#
# 1 49.6127 26.1399 23.2429 0.0000 0.0000 0.0000
# 2 26.1399 77.9888 41.4668 0.0000 0.0000 0.0000
# 3 23.2429 41.4668 96.9185 0.0000 0.0000 0.0000
# 4 0.0000 0.0000 0.0000 22.5131 0.0000 0.0000
# 5 0.0000 0.0000 0.0000 0.0000 30.9329 0.0000
# 6 0.0000 0.0000 0.0000 0.0000 0.0000 -59.4840
#
#
#
# Elastic Compliance Matrix: (Units=1/GPa)
#
#
# Indices 1 2 3 4 5 6 
#
# 1 0.025198 -0.006774 -0.003145 0.000000 0.000000 0.000000
# 2 -0.006774 0.018419 -0.006256 0.000000 0.000000 0.000000
# 3 -0.003145 -0.006256 0.013749 0.000000 0.000000 0.000000
# 4 0.000000 0.000000 0.000000 0.044419 0.000000 0.000000
# 5 0.000000 0.000000 0.000000 0.000000 0.032328 0.000000
# 6 0.000000 0.000000 0.000000 0.000000 0.000000 -0.016811
#
#
# Mechanical properties :
#
#
# Convention : Reuss Voigt Hill
#
# Bulk Modulus (GPa) = 39.97314 45.13544 42.55429
# Shear Modulus (GPa) = 31.64749 7.70377 19.67563
#
# Velocity S-wave (km/s) = 4.16423 2.05455 3.28344
# Velocity P-wave (km/s) = 6.70998 5.50996 6.13936
#
# Compressibility (1/GPa) = 0.02501680
#
# Stress axis : x y z
#
# Youngs Moduli (GPa) = 39.68507 54.29121 72.73314
#
# Poissons Ratio (x) = 0.36775 0.22874
# Poissons Ratio (y) = 0.26882 0.45503
# Poissons Ratio (z) = 0.12481 0.33966
#
# Static dielectric constant tensor:
#      x y z
#    x 1.616610 0.000000 0.000000 
#    y 0.000000 1.670410 0.000000 
#    z 0.000000 0.000000 1.609910 
# 
# From -- ./inp_files/6674.got.cif
#   From: 2010.05.17/outbox.ucp.g08.bks.cvg/sg66_4_cif.got.tgz:6674.got - 2010.06.11 16:44:13.
