data_PCOD9500043
_publ_section_title
;
Structure prediction by ZEFSAII (Michael W. Deem and Ramdas Pophale) SiO2 
 PCOD9500043
Probable space group: C C C M
;
_chemical_formula_sum "Si O2"
_cell_formula_units_Z 80
_cell_length_a 9.625284
_cell_length_b 28.779237
_cell_length_c 15.726749
_cell_angle_alpha 90.000000
_cell_angle_beta 90.000000
_cell_angle_gamma 90.000000
_cell_volume 4356.440468
_symmetry_space_group_name_H-M "C C C M"
_symmetry_group_IT_number 66
_symmetry_cell_setting 'orthorhombic'
loop_
_space_group_symop_operation_xyz
x,y,z
-x,-y,z
x,-y,1/2-z
-x,y,1/2-z
-x,-y,-z
x,y,-z
-x,y,1/2+z
x,-y,1/2+z
1/2+x,1/2+y,z
1/2-x,1/2-y,z
1/2+x,1/2-y,1/2-z
1/2-x,1/2+y,1/2-z
1/2-x,1/2-y,-z
1/2+x,1/2+y,-z
1/2-x,1/2+y,1/2+z
1/2+x,1/2-y,1/2+z
loop_
_atom_site_type_symbol
_atom_site_label
_atom_site_fract_x
_atom_site_fract_y
_atom_site_fract_z
Si Si1 0.919431 0.386900 0.662934
Si Si2 0.117063 0.061267 0.603406
Si Si3 0.837842 0.706592 0.241813
Si Si4 0.304228 0.460126 0.103021
Si Si5 0.298754 0.851469 0.096904
O O1 0.834607 0.339554 0.683389
O O2 0.819512 0.428019 0.635111
O O3 0.000000 0.398865 0.750000
O O4 0.045116 0.372658 0.600705
O O5 0.117105 0.060235 0.500000
O O6 0.196623 0.107611 0.627973
O O7 0.956245 0.058798 0.629926
O O8 0.195187 0.014100 0.630972
O O9 0.750000 0.750000 0.211131
O O10 0.791139 0.689874 0.335509
O O11 0.000000 0.719212 0.250000
O O12 0.300186 0.459564 0.000000
O O13 0.265355 0.838660 0.000000
#
# Coordination Sequence:
#
# PCOD9500043 Si02
#       5
#    16  16  16  16  16
#     4   9  19  33  48  70  99 131 162 198 241 290
#     4   8  16  29  48  76 102 126 161 202 239 278
#     4   9  20  36  51  68  93 125 158 198 249 297
#     4   9  16  30  51  73 101 134 165 197 236 281
#     4   9  17  32  52  74  98 123 160 204 242 284
#
# _framework density 18.363616
#
# number of rings (size 3 to 8) (size 9 to 14) (size 15 to 20)
#    0.000    3.600    0.000    1.800    0.000    2.800 
#    0.000   14.000    0.000   24.600    0.000    0.000 
#    0.000    0.000    0.000    0.000    0.000    0.000 
#
# Total GULP energy -222872.178275 kJ/mol
# GULP energy per Si atom -5571.804457 kJ/mol
# Density = 1.832182 g / cm^3
# Si number density = 18.363616 Si / 1000 Ang^3
#
#
#
# Elastic Constant Matrix: (Units=GPa)
#
#
# Indices 1 2 3 4 5 6 
#
# 1 32.0138 36.7221 1.2588 0.0000 0.0000 0.0000
# 2 36.7221 59.6200 7.7338 0.0000 0.0000 0.0000
# 3 1.2588 7.7338 27.5081 0.0000 0.0000 0.0000
# 4 0.0000 0.0000 0.0000 11.2439 0.0000 0.0000
# 5 0.0000 0.0000 0.0000 0.0000 11.5773 0.0000
# 6 0.0000 0.0000 0.0000 0.0000 0.0000 39.0881
#
#
#
# Elastic Compliance Matrix: (Units=1/GPa)
#
#
# Indices 1 2 3 4 5 6 
#
# 1 0.111957 -0.070879 0.014804 0.000000 0.000000 0.000000
# 2 -0.070879 0.062280 -0.014266 0.000000 0.000000 0.000000
# 3 0.014804 -0.014266 0.039686 0.000000 0.000000 0.000000
# 4 0.000000 0.000000 0.000000 0.088937 0.000000 0.000000
# 5 0.000000 0.000000 0.000000 0.000000 0.086376 0.000000
# 6 0.000000 0.000000 0.000000 0.000000 0.000000 0.025583
#
#
# Mechanical properties :
#
#
# Convention : Reuss Voigt Hill
#
# Bulk Modulus (GPa) = 13.65348 23.39681 18.52514
# Shear Modulus (GPa) = 8.62194 17.27702 12.94948
#
# Velocity S-wave (km/s) = 2.16917 3.07062 2.65839
# Velocity P-wave (km/s) = 3.70472 5.03390 4.41956
#
# Compressibility (1/GPa) = 0.07324142
#
# Stress axis : x y z
#
# Youngs Moduli (GPa) = 8.93198 16.05647 25.19764
#
# Poissons Ratio (x) = 1.13806 -0.37302
# Poissons Ratio (y) = 0.63309 0.35947
# Poissons Ratio (z) = -0.13223 0.22906
#
# Static dielectric constant tensor:
#      x y z
#    x 1.626710 0.000000 0.000000 
#    y 0.000000 1.613560 0.000000 
#    z 0.000000 0.000000 1.670130 
# 
# From -- ./inp_files/37151.got.cif
#   From: 2010.05.17/outbox.cif.g08.bks.cpg/sg66_19_cif.got.tgz:37151.got - 2010.06.03 17:51:23.
