data_PCOD9500759
_publ_section_title
;
Structure prediction by ZEFSAII (Michael W. Deem and Ramdas Pophale) SiO2 
 PCOD9500759
Probable space group: C M M A
;
_chemical_formula_sum "Si O2"
_cell_formula_units_Z 116
_cell_length_a 16.138023
_cell_length_b 20.700744
_cell_length_c 16.252933
_cell_angle_alpha 90.000000
_cell_angle_beta 90.000000
_cell_angle_gamma 90.000000
_cell_volume 5429.602420
_symmetry_space_group_name_H-M "C M M A"
_symmetry_group_IT_number 67
_symmetry_cell_setting 'orthorhombic'
loop_
_space_group_symop_operation_xyz
x,y,z
-x,1/2-y,z
x,-y,-z
-x,1/2+y,-z
-x,-y,-z
x,1/2+y,-z
-x,y,z
x,1/2-y,z
1/2+x,1/2+y,z
1/2-x,-y,z
1/2+x,1/2-y,-z
1/2-x,y,-z
1/2-x,1/2-y,-z
1/2+x,y,-z
1/2-x,1/2+y,z
1/2+x,-y,z
loop_
_atom_site_type_symbol
_atom_site_label
_atom_site_fract_x
_atom_site_fract_y
_atom_site_fract_z
Si Si1 0.203073 0.180415 0.586731
Si Si2 0.850656 0.853936 0.689227
Si Si3 0.399437 0.325328 0.002605
Si Si4 0.500000 0.750000 0.301337
Si Si5 0.906323 0.414891 0.678795
Si Si6 0.398671 0.069673 0.136915
Si Si7 0.399341 0.079138 0.851869
Si Si8 0.094350 0.038742 0.425222
O O1 0.159543 0.250000 0.582985
O O2 0.250000 0.173668 0.500000
O O3 0.266314 0.180438 0.663839
O O4 0.141345 0.123809 0.609218
O O5 0.852661 0.899023 0.769474
O O6 0.864130 0.898499 0.609235
O O7 0.927159 0.805785 0.698579
O O8 0.500000 0.322008 0.008450
O O9 0.370423 0.250000 0.004189
O O10 0.381942 0.365353 0.919286
O O11 0.370278 0.374221 0.074679
O O12 0.871207 0.413067 0.770647
O O13 0.909070 0.488748 0.650087
O O14 0.000000 0.390066 0.682655
O O15 0.500000 0.070428 0.135090
O O16 0.376799 0.994158 0.120322
O O17 0.500000 0.078764 0.837569
O O18 0.000000 0.055153 0.450608
O O19 0.134656 0.000000 0.500000
#
# Coordination Sequence:
#
# PCOD9500759 Si02
#       8
#    16  16  16   4  16  16  16  16
#     4  11  26  45  59  88 129 164 206 264 320 379
#     4  12  22  39  62  91 127 164 207 258 320 378
#     4   9  18  28  48  85 126 164 210 262 308 367
#     4  12  24  36  64 100 124 174 208 252 322 392
#     4  10  21  40  64  89 117 164 217 259 310 373
#     4   9  17  33  55  84 121 163 211 262 311 369
#     4  10  18  31  56  85 126 163 209 258 317 377
#     4  10  19  34  59  88 118 150 203 261 306 361
#
# _framework density 21.364363999999998
#
# number of rings (size 3 to 8) (size 9 to 14) (size 15 to 20)
#    0.000    1.793    3.448    1.241    0.966    3.034 
#    1.241    2.759    0.000    0.828    0.000    3.862 
#    0.000    0.000    0.000    0.000    0.000    0.000 
#
# Total GULP energy -322990.948021 kJ/mol
# GULP energy per Si atom -5568.809449 kJ/mol
# Density = 2.131574 g / cm^3
# Si number density = 21.364364 Si / 1000 Ang^3
#
#
#
# Elastic Constant Matrix: (Units=GPa)
#
#
# Indices 1 2 3 4 5 6 
#
# 1 16.1877 14.6363 -3.7830 0.0000 0.0000 0.0000
# 2 14.6363 168.1402 49.6785 0.0000 0.0000 0.0000
# 3 -3.7830 49.6785 101.0043 0.0000 0.0000 0.0000
# 4 0.0000 0.0000 0.0000 4.4708 0.0000 0.0000
# 5 0.0000 0.0000 0.0000 0.0000 11.5907 0.0000
# 6 0.0000 0.0000 0.0000 0.0000 0.0000 13.3980
#
#
#
# Elastic Compliance Matrix: (Units=1/GPa)
#
#
# Indices 1 2 3 4 5 6 
#
# 1 0.070660 -0.008112 0.006636 0.000000 0.000000 0.000000
# 2 -0.008112 0.007890 -0.004184 0.000000 0.000000 0.000000
# 3 0.006636 -0.004184 0.012207 0.000000 0.000000 0.000000
# 4 0.000000 0.000000 0.000000 0.223676 0.000000 0.000000
# 5 0.000000 0.000000 0.000000 0.000000 0.086276 0.000000
# 6 0.000000 0.000000 0.000000 0.000000 0.000000 0.074638
#
#
# Mechanical properties :
#
#
# Convention : Reuss Voigt Hill
#
# Bulk Modulus (GPa) = 12.58850 45.15512 28.87181
# Shear Modulus (GPa) = 9.74382 20.87857 15.31119
#
# Velocity S-wave (km/s) = 2.13791 3.12951 2.67997
# Velocity P-wave (km/s) = 3.46400 5.85150 4.80829
#
# Compressibility (1/GPa) = 0.07943761
#
# Stress axis : x y z
#
# Youngs Moduli (GPa) = 14.15223 126.74554 81.91901
#
# Poissons Ratio (x) = 1.02810 -0.54362
# Poissons Ratio (y) = 0.11480 0.34278
# Poissons Ratio (z) = -0.09392 0.53035
#
# Static dielectric constant tensor:
#      x y z
#    x 1.774650 0.000000 0.000000 
#    y 0.000000 1.797260 0.000000 
#    z 0.000000 0.000000 1.790120 
# 
# From -- ./inp_files/34381.got.cif
#   From: 2010.05.17/outbox.cif.g08.bks.cpg/sg67_18_cif.got.tgz:34381.got - 2010.06.03 18:28:57.
