data_PCOD9500477
_publ_section_title
;
Structure prediction by ZEFSAII (Michael W. Deem and Ramdas Pophale) SiO2 
 PCOD9500477
Probable space group: C M M A
;
_chemical_formula_sum "Si O2"
_cell_formula_units_Z 88
_cell_length_a 28.634494
_cell_length_b 8.478478
_cell_length_c 19.656043
_cell_angle_alpha 90.000000
_cell_angle_beta 90.000000
_cell_angle_gamma 90.000000
_cell_volume 4772.033725
_symmetry_space_group_name_H-M "C M M A"
_symmetry_group_IT_number 67
_symmetry_cell_setting 'orthorhombic'
loop_
_space_group_symop_operation_xyz
x,y,z
-x,1/2-y,z
x,-y,-z
-x,1/2+y,-z
-x,-y,-z
x,1/2+y,-z
-x,y,z
x,1/2-y,z
1/2+x,1/2+y,z
1/2-x,-y,z
1/2+x,1/2-y,-z
1/2-x,y,-z
1/2-x,1/2-y,-z
1/2+x,y,-z
1/2-x,1/2+y,z
1/2+x,-y,z
loop_
_atom_site_type_symbol
_atom_site_label
_atom_site_fract_x
_atom_site_fract_y
_atom_site_fract_z
Si Si1 0.859723 0.441753 0.211741
Si Si2 0.552363 0.059397 0.698051
Si Si3 0.400263 0.938828 0.076645
Si Si4 0.000000 0.061503 0.922336
Si Si5 0.301514 0.939487 0.337890
Si Si6 0.388881 0.437979 0.423653
O O1 0.859375 0.250000 0.211167
O O2 0.907513 0.492402 0.249491
O O3 0.862817 0.491959 0.133280
O O4 0.818203 0.491267 0.261989
O O5 0.500000 0.004239 0.713842
O O6 0.552289 0.250000 0.698845
O O7 0.569973 0.003196 0.624502
O O8 0.401239 0.750000 0.073228
O O9 0.451034 0.994900 0.103953
O O10 0.393022 0.000000 0.000000
O O11 0.000000 0.250000 0.920359
O O12 0.000000 0.000000 0.000000
O O13 0.302460 0.750000 0.340489
O O14 0.250000 0.000000 0.353061
O O15 0.340533 0.002710 0.389710
O O16 0.392886 0.500000 0.500000
O O17 0.389631 0.250000 0.422962
#
# Coordination Sequence:
#
# PCOD9500477 Si02
#       6
#    16  16  16   8  16  16
#     4   8  17  32  53  76 101 136 175 213 257 314
#     4   9  18  34  55  77 103 140 184 222 260 307
#     4  10  18  30  48  70  99 136 175 215 259 306
#     4  10  18  28  40  62  94 130 167 208 251 298
#     4  10  20  38  60  83 106 132 169 212 264 319
#     4  11  22  37  56  80 110 141 174 214 258 305
#
# _framework density 18.440774000000001
#
# number of rings (size 3 to 8) (size 9 to 14) (size 15 to 20)
#    0.000    2.364    0.000    5.727    1.273    1.091 
#    0.000   10.909    0.000    0.545    0.000    3.818 
#    0.000    0.000    0.000    0.000    0.000    0.000 
#
# Total GULP energy -245359.382863 kJ/mol
# GULP energy per Si atom -5576.349611 kJ/mol
# Density = 1.839880 g / cm^3
# Si number density = 18.440774 Si / 1000 Ang^3
#
#
#
# Elastic Constant Matrix: (Units=GPa)
#
#
# Indices 1 2 3 4 5 6 
#
# 1 39.4267 -1.1325 -14.2420 0.0000 0.0000 0.0000
# 2 -1.1325 47.3797 0.1037 0.0000 0.0000 0.0000
# 3 -14.2420 0.1037 76.2462 0.0000 0.0000 0.0000
# 4 0.0000 0.0000 0.0000 18.8305 0.0000 0.0000
# 5 0.0000 0.0000 0.0000 0.0000 14.7764 0.0000
# 6 0.0000 0.0000 0.0000 0.0000 0.0000 13.7664
#
#
#
# Elastic Compliance Matrix: (Units=1/GPa)
#
#
# Indices 1 2 3 4 5 6 
#
# 1 0.027218 0.000639 0.005083 0.000000 0.000000 0.000000
# 2 0.000639 0.021121 0.000091 0.000000 0.000000 0.000000
# 3 0.005083 0.000091 0.014065 0.000000 0.000000 0.000000
# 4 0.000000 0.000000 0.000000 0.053105 0.000000 0.000000
# 5 0.000000 0.000000 0.000000 0.000000 0.067675 0.000000
# 6 0.000000 0.000000 0.000000 0.000000 0.000000 0.072641
#
#
# Mechanical properties :
#
#
# Convention : Reuss Voigt Hill
#
# Bulk Modulus (GPa) = 13.50789 14.72343 14.11566
# Shear Modulus (GPa) = 18.59597 21.36291 19.97944
#
# Velocity S-wave (km/s) = 3.17900 3.40731 3.29513
# Velocity P-wave (km/s) = 4.56242 4.84574 4.70621
#
# Compressibility (1/GPa) = 0.07403083
#
# Stress axis : x y z
#
# Youngs Moduli (GPa) = 36.74029 47.34588 71.09966
#
# Poissons Ratio (x) = -0.03028 -0.36141
# Poissons Ratio (y) = -0.02349 -0.00645
# Poissons Ratio (z) = -0.18676 -0.00430
#
# Static dielectric constant tensor:
#      x y z
#    x 1.633770 0.000000 0.000000 
#    y 0.000000 1.622420 0.000000 
#    z 0.000000 0.000000 1.645200 
# 
# From -- ./inp_files/36134.got.cif
#   From: 2010.05.17/outbox.cif.g08.bks.cpg/sg67_19_cif.got.tgz:36134.got - 2010.06.03 18:28:57.
