data_PCOD9500451
_publ_section_title
;
Structure prediction by ZEFSAII (Michael W. Deem and Ramdas Pophale) SiO2 
 PCOD9500451
Probable space group: C M M A
;
_chemical_formula_sum "Si O2"
_cell_formula_units_Z 96
_cell_length_a 22.266966
_cell_length_b 15.186991
_cell_length_c 16.503899
_cell_angle_alpha 90.000000
_cell_angle_beta 90.000000
_cell_angle_gamma 90.000000
_cell_volume 5581.094020
_symmetry_space_group_name_H-M "C M M A"
_symmetry_group_IT_number 67
_symmetry_cell_setting 'orthorhombic'
loop_
_space_group_symop_operation_xyz
x,y,z
-x,1/2-y,z
x,-y,-z
-x,1/2+y,-z
-x,-y,-z
x,1/2+y,-z
-x,y,z
x,1/2-y,z
1/2+x,1/2+y,z
1/2-x,-y,z
1/2+x,1/2-y,-z
1/2-x,y,-z
1/2-x,1/2-y,-z
1/2+x,y,-z
1/2-x,1/2+y,z
1/2+x,-y,z
loop_
_atom_site_type_symbol
_atom_site_label
_atom_site_fract_x
_atom_site_fract_y
_atom_site_fract_z
Si Si1 0.407630 0.644654 0.718167
Si Si2 0.229957 0.901063 0.250719
Si Si3 0.798212 0.143169 0.932781
Si Si4 0.231410 0.250000 0.360176
Si Si5 0.344827 0.250000 0.482286
Si Si6 0.933910 0.356340 0.905453
Si Si7 0.067023 0.910194 0.453234
O O1 0.416857 0.750000 0.702775
O O2 0.337350 0.622396 0.721532
O O3 0.431300 0.626823 0.808548
O O4 0.433562 0.587771 0.644777
O O5 0.227667 0.883816 0.154647
O O6 0.270238 0.833934 0.301586
O O7 0.250000 0.000000 0.266909
O O8 0.800370 0.250000 0.934416
O O9 0.868545 0.112979 0.939781
O O10 0.750000 0.113970 0.000000
O O11 0.292267 0.250000 0.414875
O O12 0.181253 0.250000 0.427951
O O13 0.384837 0.164000 0.471734
O O14 0.933784 0.250000 0.915215
O O15 0.000000 0.387809 0.935637
O O16 0.000000 0.884017 0.479747
O O17 0.081813 0.000000 0.500000
#
# Coordination Sequence:
#
# PCOD9500451 Si02
#       7
#    16  16  16   8   8  16  16
#     4  10  17  33  51  71 101 133 176 219 268 316
#     4  11  20  33  54  76 106 141 173 216 265 319
#     4   9  17  31  51  77 112 141 169 213 263 320
#     4  11  22  38  51  80 104 135 182 221 261 322
#     4  11  23  36  56  70 107 142 173 225 269 310
#     4   8  14  24  46  77 102 131 168 210 260 310
#     4  11  22  34  50  75 102 135 179 222 268 319
#
# _framework density 17.200928999999999
#
# number of rings (size 3 to 8) (size 9 to 14) (size 15 to 20)
#    0.000    2.000    4.167    1.750    2.333    1.000 
#    0.000    1.667    0.000    0.000    0.000   12.833 
#    0.000    0.000    0.000    0.000    0.000    0.000 
#
# Total GULP energy -267343.562121 kJ/mol
# GULP energy per Si atom -5569.657544 kJ/mol
# Density = 1.716178 g / cm^3
# Si number density = 17.200929 Si / 1000 Ang^3
#
#
#
# Elastic Constant Matrix: (Units=GPa)
#
#
# Indices 1 2 3 4 5 6 
#
# 1 82.3370 23.2132 48.4243 0.0000 0.0000 0.0000
# 2 23.2132 53.6280 31.9364 0.0000 0.0000 0.0000
# 3 48.4243 31.9364 88.6129 0.0000 0.0000 0.0000
# 4 0.0000 0.0000 0.0000 5.1706 0.0000 0.0000
# 5 0.0000 0.0000 0.0000 0.0000 -13.0707 0.0000
# 6 0.0000 0.0000 0.0000 0.0000 0.0000 7.5080
#
#
#
# Elastic Compliance Matrix: (Units=1/GPa)
#
#
# Indices 1 2 3 4 5 6 
#
# 1 0.018153 -0.002483 -0.009025 0.000000 0.000000 0.000000
# 2 -0.002483 0.024082 -0.007323 0.000000 0.000000 0.000000
# 3 -0.009025 -0.007323 0.018856 0.000000 0.000000 0.000000
# 4 0.000000 0.000000 0.000000 0.193403 0.000000 0.000000
# 5 0.000000 0.000000 0.000000 0.000000 -0.076507 0.000000
# 6 0.000000 0.000000 0.000000 0.000000 0.000000 0.133191
#
#
# Mechanical properties :
#
#
# Convention : Reuss Voigt Hill
#
# Bulk Modulus (GPa) = 42.67997 47.96950 45.32474
# Shear Modulus (GPa) = 14.01932 7.98851 11.00391
#
# Velocity S-wave (km/s) = 2.85797 2.15739 2.53203
# Velocity P-wave (km/s) = 5.97973 5.84414 5.91233
#
# Compressibility (1/GPa) = 0.02343019
#
# Stress axis : x y z
#
# Youngs Moduli (GPa) = 55.08659 41.52402 53.03303
#
# Poissons Ratio (x) = 0.10310 0.47864
# Poissons Ratio (y) = 0.13678 0.38833
# Poissons Ratio (z) = 0.49717 0.30406
#
# Static dielectric constant tensor:
#      x y z
#    x 1.760350 0.000000 0.000000 
#    y 0.000000 1.557480 0.000000 
#    z 0.000000 0.000000 1.598860 
# 
# From -- ./inp_files/30080.got.cif
#   From: 2010.05.17/outbox.cif.g08.bks.cpg/sg67_16_cif.got.tgz:30080.got - 2010.06.03 18:28:57.
