data_PCOD9500762
_publ_section_title
;
Structure prediction by ZEFSAII (Michael W. Deem and Ramdas Pophale) SiO2 
 PCOD9500762
Probable space group: C M M A
;
_chemical_formula_sum "Si O2"
_cell_formula_units_Z 68
_cell_length_a 14.626112
_cell_length_b 17.494852
_cell_length_c 11.919124
_cell_angle_alpha 90.000000
_cell_angle_beta 90.000000
_cell_angle_gamma 90.000000
_cell_volume 3049.885292
_symmetry_space_group_name_H-M "C M M A"
_symmetry_group_IT_number 67
_symmetry_cell_setting 'orthorhombic'
loop_
_space_group_symop_operation_xyz
x,y,z
-x,1/2-y,z
x,-y,-z
-x,1/2+y,-z
-x,-y,-z
x,1/2+y,-z
-x,y,z
x,1/2-y,z
1/2+x,1/2+y,z
1/2-x,-y,z
1/2+x,1/2-y,-z
1/2-x,y,-z
1/2-x,1/2-y,-z
1/2+x,y,-z
1/2-x,1/2+y,z
1/2+x,-y,z
loop_
_atom_site_type_symbol
_atom_site_label
_atom_site_fract_x
_atom_site_fract_y
_atom_site_fract_z
Si Si1 0.351092 0.661209 0.258096
Si Si2 0.861385 0.088861 0.493945
Si Si3 0.866448 0.871837 0.263588
Si Si4 0.500000 0.250000 0.171930
Si Si5 0.640497 0.516768 0.123882
O O1 0.373088 0.750000 0.241041
O O2 0.385557 0.630471 0.378470
O O3 0.240806 0.649334 0.258970
O O4 0.382091 0.602125 0.162761
O O5 0.750000 0.088086 0.500000
O O6 0.893183 0.132316 0.605644
O O7 0.889629 0.000000 0.500000
O O8 0.921195 0.815832 0.184859
O O9 0.886411 0.957109 0.220154
O O10 0.750000 0.500000 0.118873
O O11 0.604963 0.500000 0.000000
#
# Coordination Sequence:
#
# PCOD9500762 Si02
#       5
#    16  16  16   4  16
#     4  10  18  31  57  89 113 136 178 234 287 333
#     4   9  16  29  54  80 108 141 176 221 277 333
#     4  10  20  35  51  79 114 152 183 218 274 332
#     4  12  24  36  50  78 116 152 194 226 246 330
#     4   9  18  35  56  82 113 141 178 235 296 329
#
# _framework density 22.295921
#
# number of rings (size 3 to 8) (size 9 to 14) (size 15 to 20)
#    0.000    2.353    3.529    0.000    1.647    1.412 
#    2.118    3.529    0.000    0.000    0.000    0.000 
#    0.000    0.000    0.000    0.000    0.000    0.000 
#
# Total GULP energy -189344.335640 kJ/mol
# GULP energy per Si atom -5568.951048 kJ/mol
# Density = 2.224517 g / cm^3
# Si number density = 22.295921 Si / 1000 Ang^3
#
#
#
# Elastic Constant Matrix: (Units=GPa)
#
#
# Indices 1 2 3 4 5 6 
#
# 1 70.6911 -7.6759 -2.7220 0.0000 0.0000 0.0000
# 2 -7.6759 192.0093 61.1551 0.0000 0.0000 0.0000
# 3 -2.7220 61.1551 133.0058 0.0000 0.0000 0.0000
# 4 0.0000 0.0000 0.0000 14.1612 0.0000 0.0000
# 5 0.0000 0.0000 0.0000 0.0000 -14.5334 0.0000
# 6 0.0000 0.0000 0.0000 0.0000 0.0000 37.5496
#
#
#
# Elastic Compliance Matrix: (Units=1/GPa)
#
#
# Indices 1 2 3 4 5 6 
#
# 1 0.014208 0.000557 0.000035 0.000000 0.000000 0.000000
# 2 0.000557 0.006123 -0.002804 0.000000 0.000000 0.000000
# 3 0.000035 -0.002804 0.008808 0.000000 0.000000 0.000000
# 4 0.000000 0.000000 0.000000 0.070615 0.000000 0.000000
# 5 0.000000 0.000000 0.000000 0.000000 -0.068807 0.000000
# 6 0.000000 0.000000 0.000000 0.000000 0.000000 0.026631
#
#
# Mechanical properties :
#
#
# Convention : Reuss Voigt Hill
#
# Bulk Modulus (GPa) = 40.46153 55.24673 47.85413
# Shear Modulus (GPa) = 71.18144 30.43207 50.80676
#
# Velocity S-wave (km/s) = 5.65642 3.69849 4.77880
# Velocity P-wave (km/s) = 7.80045 6.56285 7.20826
#
# Compressibility (1/GPa) = 0.02471484
#
# Stress axis : x y z
#
# Youngs Moduli (GPa) = 70.38353 163.30631 113.52675
#
# Poissons Ratio (x) = -0.09095 -0.00394
# Poissons Ratio (y) = -0.03920 0.31834
# Poissons Ratio (z) = -0.00244 0.45793
#
# Static dielectric constant tensor:
#      x y z
#    x 1.864340 0.000000 0.000000 
#    y 0.000000 1.812890 0.000000 
#    z 0.000000 0.000000 1.807990 
# 
# From -- ./inp_files/19131.got.cif
#   From: 2010.05.17/outbox.cif.g08.bks.cpg/sg67_10_cif.got.tgz:19131.got - 2010.06.03 18:28:57.
