data_PCOD9500062
_publ_section_title
;
Structure prediction by ZEFSAII (Michael W. Deem and Ramdas Pophale) SiO2 
 PCOD9500062
Probable space group: C C C M
;
_chemical_formula_sum "Si O2"
_cell_formula_units_Z 56
_cell_length_a 15.000000
_cell_length_b 24.000000
_cell_length_c 15.000000
_cell_angle_alpha 90.000000
_cell_angle_beta 90.000000
_cell_angle_gamma 90.000000
_cell_volume 5400.000000
_symmetry_space_group_name_H-M "C C C M"
_symmetry_group_IT_number 66
_symmetry_cell_setting 'orthorhombic'
loop_
_space_group_symop_operation_xyz
x,y,z
-x,-y,z
x,-y,1/2-z
-x,y,1/2-z
-x,-y,-z
x,y,-z
-x,y,1/2+z
x,-y,1/2+z
1/2+x,1/2+y,z
1/2-x,1/2-y,z
1/2+x,1/2-y,1/2-z
1/2-x,1/2+y,1/2-z
1/2-x,1/2-y,-z
1/2+x,1/2+y,-z
1/2-x,1/2+y,1/2+z
1/2+x,1/2-y,1/2+z
loop_
_atom_site_type_symbol
_atom_site_label
_atom_site_fract_x
_atom_site_fract_y
_atom_site_fract_z
Si Si1 0.947499 0.945593 0.399661
Si Si2 0.802841 0.936459 0.259563
Si Si3 0.788525 0.188054 0.102977
Si Si4 0.140023 0.378880 0.716311
Si Si5 0.882846 0.133951 0.601813
Si Si6 0.986122 0.221533 0.893278
Si Si7 0.027898 0.350843 0.891459
O O1 0.916349 0.959724 0.500000
O O2 0.866809 0.921362 0.342374
O O3 0.025588 0.900799 0.404437
O O4 0.000000 0.000000 0.364258
O O5 0.697935 0.934339 0.275629
O O6 0.823769 0.898796 0.173156
O O7 0.829722 0.000000 0.250000
O O8 0.750000 0.250000 0.093791
O O9 0.718260 0.159085 0.170455
O O10 0.890552 0.197639 0.136364
O O11 0.788910 0.164404 0.000000
O O12 0.057794 0.383550 0.647936
O O13 0.104420 0.361338 0.815424
O O14 0.846003 0.138377 0.500000
O O15 0.922638 0.191981 0.638125
O O16 0.996477 0.286931 0.878680
O O17 0.985812 0.212873 0.000000
O O18 0.044822 0.359190 0.000000
#
# Coordination Sequence:
#
# PCOD9500062 Si02
#       7
#    16  16  16  16  16  16  16
#     4  10  20  37  60  87 123 166 206 242 293 363
#     4  12  25  40  61  89 126 161 205 262 310 359
#     4  10  18  33  59  93 129 158 198 252 299 358
#     4  11  24  39  62  95 118 160 210 262 319 366
#     4  10  21  37  58  88 126 166 201 234 291 371
#     4   9  18  36  62  88 121 167 202 240 299 366
#     4  10  22  45  67  86 121 162 207 260 316 373
#
# _framework density 10.370369999999999
#
# number of rings (size 3 to 8) (size 9 to 14) (size 15 to 20)
#    0.000    1.714    2.857    1.714    0.000    4.000 
#    5.143    1.429    0.000    3.857    0.000    0.000 
#    0.000    0.000    0.000    0.000    0.000    0.000 
#
# Total GULP energy -311924.548436 kJ/mol
# GULP energy per Si atom -5570.081222 kJ/mol
# Density = 1.034677 g / cm^3
# Si number density = 10.370370 Si / 1000 Ang^3
#
#
#
# Elastic Constant Matrix: (Units=GPa)
#
#
# Indices 1 2 3 4 5 6 
#
# 1 83.8531 24.7132 47.2312 0.0000 0.0000 0.0000
# 2 24.7132 39.2539 16.4068 0.0000 0.0000 0.0000
# 3 47.2312 16.4068 131.5460 0.0000 0.0000 0.0000
# 4 0.0000 0.0000 0.0000 15.8518 0.0000 0.0000
# 5 0.0000 0.0000 0.0000 0.0000 14.7402 0.0000
# 6 0.0000 0.0000 0.0000 0.0000 0.0000 32.5484
#
#
#
# Elastic Compliance Matrix: (Units=1/GPa)
#
#
# Indices 1 2 3 4 5 6 
#
# 1 0.017430 -0.008817 -0.005158 0.000000 0.000000 0.000000
# 2 -0.008817 0.031337 -0.000743 0.000000 0.000000 0.000000
# 3 -0.005158 -0.000743 0.009547 0.000000 0.000000 0.000000
# 4 0.000000 0.000000 0.000000 0.063084 0.000000 0.000000
# 5 0.000000 0.000000 0.000000 0.000000 0.067842 0.000000
# 6 0.000000 0.000000 0.000000 0.000000 0.000000 0.030723
#
#
# Mechanical properties :
#
#
# Convention : Reuss Voigt Hill
#
# Bulk Modulus (GPa) = 34.63017 47.92838 41.27927
# Shear Modulus (GPa) = 19.30317 23.71486 21.50901
#
# Velocity S-wave (km/s) = 3.05403 3.38508 3.22381
# Velocity P-wave (km/s) = 5.40084 6.19975 5.81403
#
# Compressibility (1/GPa) = 0.02887656
#
# Stress axis : x y z
#
# Youngs Moduli (GPa) = 57.37310 31.91149 104.74906
#
# Poissons Ratio (x) = 0.28137 0.54034
# Poissons Ratio (y) = 0.50587 0.07778
# Poissons Ratio (z) = 0.29595 0.02370
#
# Static dielectric constant tensor:
#      x y z
#    x 1.757290 0.000000 0.000000 
#    y 0.000000 1.980610 0.000000 
#    z 0.000000 0.000000 1.815220 
# 
# From -- ./inp_files/28747.got.cif
#   From: 2010.05.17/outbox.ucp.g08.bks.cvg/sg66_15_cif.got.tgz:28747.got - 2010.06.11 16:44:13.
