data_PCOD9500374
_publ_section_title
;
Structure prediction by ZEFSAII (Michael W. Deem and Ramdas Pophale) SiO2 
 PCOD9500374
Probable space group: C M M A
;
_chemical_formula_sum "Si O2"
_cell_formula_units_Z 96
_cell_length_a 23.231846
_cell_length_b 26.076613
_cell_length_c 10.177550
_cell_angle_alpha 90.000000
_cell_angle_beta 90.000000
_cell_angle_gamma 90.000000
_cell_volume 6165.639759
_symmetry_space_group_name_H-M "C M M A"
_symmetry_group_IT_number 67
_symmetry_cell_setting 'orthorhombic'
loop_
_space_group_symop_operation_xyz
x,y,z
-x,1/2-y,z
x,-y,-z
-x,1/2+y,-z
-x,-y,-z
x,1/2+y,-z
-x,y,z
x,1/2-y,z
1/2+x,1/2+y,z
1/2-x,-y,z
1/2+x,1/2-y,-z
1/2-x,y,-z
1/2-x,1/2-y,-z
1/2+x,y,-z
1/2-x,1/2+y,z
1/2+x,-y,z
loop_
_atom_site_type_symbol
_atom_site_label
_atom_site_fract_x
_atom_site_fract_y
_atom_site_fract_z
Si Si1 0.000000 0.962183 0.713595
Si Si2 0.622446 0.112748 0.453659
Si Si3 0.787834 0.190342 0.632067
Si Si4 0.304649 0.970220 0.698053
Si Si5 0.000000 0.572229 0.404939
Si Si6 0.376470 0.571363 0.253118
Si Si7 0.238280 0.114526 0.148150
O O1 0.000000 0.946258 0.558291
O O2 0.057060 0.939252 0.780610
O O3 0.000000 0.023944 0.694911
O O4 0.651053 0.165240 0.406119
O O5 0.664894 0.068678 0.399664
O O6 0.559282 0.103319 0.394486
O O7 0.621914 0.102763 0.609525
O O8 0.792020 0.250000 0.666902
O O9 0.750000 0.185191 0.500000
O O10 0.758036 0.157110 0.746663
O O11 0.276930 0.935837 0.814822
O O12 0.250000 0.000000 0.641486
O O13 0.350100 0.014283 0.731210
O O14 0.328979 0.600144 0.165611
O O15 0.250000 0.130354 0.000000
#
# Coordination Sequence:
#
# PCOD9500374 Si02
#       7
#     8  16  16  16   8  16  16
#     4   9  16  26  42  74 104 142 173 204 237 289
#     4  10  17  29  46  76 102 133 167 209 263 301
#     4  10  20  36  56  77  98 123 165 223 274 310
#     4   9  18  25  43  68 101 134 169 205 237 296
#     4   9  16  26  45  71 111 137 165 209 247 301
#     4  10  17  28  46  71 105 139 171 201 244 295
#     4  10  21  34  49  73 103 138 171 206 260 306
#
# _framework density 15.570161000000001
#
# number of rings (size 3 to 8) (size 9 to 14) (size 15 to 20)
#    0.000    2.333    3.333    0.500    0.000    5.333 
#    0.000    0.417    0.000    6.000    0.000    0.583 
#    0.000    0.000    0.000    0.000    0.000    0.000 
#
# Total GULP energy -267233.437180 kJ/mol
# GULP energy per Si atom -5567.363275 kJ/mol
# Density = 1.553472 g / cm^3
# Si number density = 15.570161 Si / 1000 Ang^3
#
#
#
# Elastic Constant Matrix: (Units=GPa)
#
#
# Indices 1 2 3 4 5 6 
#
# 1 133.9848 37.2883 26.2304 0.0000 0.0000 0.0000
# 2 37.2883 87.3086 30.3405 0.0000 0.0000 0.0000
# 3 26.2304 30.3405 57.9168 0.0000 0.0000 0.0000
# 4 0.0000 0.0000 0.0000 5.1898 0.0000 0.0000
# 5 0.0000 0.0000 0.0000 0.0000 -20.4338 0.0000
# 6 0.0000 0.0000 0.0000 0.0000 0.0000 16.1028
#
#
#
# Elastic Compliance Matrix: (Units=1/GPa)
#
#
# Indices 1 2 3 4 5 6 
#
# 1 0.008746 -0.002884 -0.002450 0.000000 0.000000 0.000000
# 2 -0.002884 0.014954 -0.006528 0.000000 0.000000 0.000000
# 3 -0.002450 -0.006528 0.021795 0.000000 0.000000 0.000000
# 4 0.000000 0.000000 0.000000 0.192686 0.000000 0.000000
# 5 0.000000 0.000000 0.000000 0.000000 -0.048938 0.000000
# 6 0.000000 0.000000 0.000000 0.000000 0.000000 0.062101
#
#
# Mechanical properties :
#
#
# Convention : Reuss Voigt Hill
#
# Bulk Modulus (GPa) = 45.93135 51.88097 48.90616
# Shear Modulus (GPa) = 17.71019 12.52849 15.11934
#
# Velocity S-wave (km/s) = 3.37626 2.83971 3.11954
# Velocity P-wave (km/s) = 6.69048 6.64417 6.66737
#
# Compressibility (1/GPa) = 0.02177162
#
# Stress axis : x y z
#
# Youngs Moduli (GPa) = 114.34103 66.87335 45.88112
#
# Poissons Ratio (x) = 0.19284 0.11242
# Poissons Ratio (y) = 0.32973 0.29950
# Poissons Ratio (z) = 0.28017 0.43653
#
# Static dielectric constant tensor:
#      x y z
#    x 1.565840 0.000000 0.000000 
#    y 0.000000 1.525130 0.000000 
#    z 0.000000 0.000000 1.514240 
# 
# From -- ./inp_files/12805.got.cif
#   From: 2010.05.17/outbox.cif.g08.bks.cpg/sg67_7_cif.got.tgz:12805.got - 2010.06.03 18:28:57.
