data_PCOD9500446
_publ_section_title
;
Structure prediction by ZEFSAII (Michael W. Deem and Ramdas Pophale) SiO2 
 PCOD9500446
Probable space group: C M M A
;
_chemical_formula_sum "Si O2"
_cell_formula_units_Z 80
_cell_length_a 25.634471
_cell_length_b 17.862902
_cell_length_c 9.871233
_cell_angle_alpha 90.000000
_cell_angle_beta 90.000000
_cell_angle_gamma 90.000000
_cell_volume 4520.097245
_symmetry_space_group_name_H-M "C M M A"
_symmetry_group_IT_number 67
_symmetry_cell_setting 'orthorhombic'
loop_
_space_group_symop_operation_xyz
x,y,z
-x,1/2-y,z
x,-y,-z
-x,1/2+y,-z
-x,-y,-z
x,1/2+y,-z
-x,y,z
x,1/2-y,z
1/2+x,1/2+y,z
1/2-x,-y,z
1/2+x,1/2-y,-z
1/2-x,y,-z
1/2-x,1/2-y,-z
1/2+x,y,-z
1/2-x,1/2+y,z
1/2+x,-y,z
loop_
_atom_site_type_symbol
_atom_site_label
_atom_site_fract_x
_atom_site_fract_y
_atom_site_fract_z
Si Si1 0.308743 0.911847 0.037686
Si Si2 0.153996 0.554443 0.684786
Si Si3 0.194014 0.398055 0.576988
Si Si4 0.939250 0.520347 0.160994
Si Si5 0.372733 0.165303 0.188974
O O1 0.316370 0.903124 0.196628
O O2 0.250000 0.896215 0.000000
O O3 0.345162 0.858841 0.950640
O O4 0.318618 0.000000 0.000000
O O5 0.187713 0.479735 0.648442
O O6 0.152655 0.599488 0.546243
O O7 0.099009 0.531286 0.749436
O O8 0.250000 0.387253 0.500000
O O9 0.171295 0.344710 0.693316
O O10 0.918368 0.603399 0.197364
O O11 0.000000 0.511690 0.193112
O O12 0.933325 0.500000 0.000000
O O13 0.391375 0.250000 0.187869
#
# Coordination Sequence:
#
# PCOD9500446 Si02
#       5
#    16  16  16  16  16
#     4  11  19  31  56  81 107 139 183 231 267 314
#     4  10  17  32  53  82 107 131 184 233 270 306
#     4  10  20  32  52  81 113 151 179 211 261 327
#     4  10  19  36  60  84 104 132 184 241 282 318
#     4  11  22  38  52  78 117 148 181 220 273 333
#
# _framework density 17.698734000000002
#
# number of rings (size 3 to 8) (size 9 to 14) (size 15 to 20)
#    0.000    1.600    6.000    2.400    2.800    1.200 
#    0.000    9.000    0.000    0.000    0.000    0.000 
#    0.000    0.000    0.000    0.000    0.000    0.000 
#
# Total GULP energy -222844.399704 kJ/mol
# GULP energy per Si atom -5571.109993 kJ/mol
# Density = 1.765845 g / cm^3
# Si number density = 17.698734 Si / 1000 Ang^3
#
#
#
# Elastic Constant Matrix: (Units=GPa)
#
#
# Indices 1 2 3 4 5 6 
#
# 1 121.9907 7.7192 29.9771 0.0000 0.0000 0.0000
# 2 7.7192 40.3074 19.7283 0.0000 0.0000 0.0000
# 3 29.9771 19.7283 124.2274 0.0000 0.0000 0.0000
# 4 0.0000 0.0000 0.0000 5.2604 0.0000 0.0000
# 5 0.0000 0.0000 0.0000 0.0000 29.1076 0.0000
# 6 0.0000 0.0000 0.0000 0.0000 0.0000 7.2899
#
#
#
# Elastic Compliance Matrix: (Units=1/GPa)
#
#
# Indices 1 2 3 4 5 6 
#
# 1 0.008732 -0.000695 -0.001997 0.000000 0.000000 0.000000
# 2 -0.000695 0.026956 -0.004113 0.000000 0.000000 0.000000
# 3 -0.001997 -0.004113 0.009185 0.000000 0.000000 0.000000
# 4 0.000000 0.000000 0.000000 0.190098 0.000000 0.000000
# 5 0.000000 0.000000 0.000000 0.000000 0.034355 0.000000
# 6 0.000000 0.000000 0.000000 0.000000 0.000000 0.137176
#
#
# Mechanical properties :
#
#
# Convention : Reuss Voigt Hill
#
# Bulk Modulus (GPa) = 31.98689 44.59719 38.29204
# Shear Modulus (GPa) = 11.61354 23.60498 17.60926
#
# Velocity S-wave (km/s) = 2.56438 3.65596 3.15770
# Velocity P-wave (km/s) = 5.18462 6.56308 5.91415
#
# Compressibility (1/GPa) = 0.03126281
#
# Stress axis : x y z
#
# Youngs Moduli (GPa) = 114.52156 37.09811 108.87585
#
# Poissons Ratio (x) = 0.02578 0.21740
# Poissons Ratio (y) = 0.07959 0.44781
# Poissons Ratio (z) = 0.22867 0.15259
#
# Static dielectric constant tensor:
#      x y z
#    x 1.613130 0.000000 0.000000 
#    y 0.000000 1.632830 0.000000 
#    z 0.000000 0.000000 1.645000 
# 
# From -- ./inp_files/14691.got.cif
#   From: 2010.05.17/outbox.cif.g08.bks.cpg/sg67_8_cif.got.tgz:14691.got - 2010.06.03 18:28:57.
