data_PCOD9500231
_publ_section_title
;
Structure prediction by ZEFSAII (Michael W. Deem and Ramdas Pophale) SiO2 
 PCOD9500231
Probable space group: C M M A
;
_chemical_formula_sum "Si O2"
_cell_formula_units_Z 60
_cell_length_a 24.101221
_cell_length_b 5.432544
_cell_length_c 24.594662
_cell_angle_alpha 90.000000
_cell_angle_beta 90.000000
_cell_angle_gamma 90.000000
_cell_volume 3220.202302
_symmetry_space_group_name_H-M "C M M A"
_symmetry_group_IT_number 67
_symmetry_cell_setting 'orthorhombic'
loop_
_space_group_symop_operation_xyz
x,y,z
-x,1/2-y,z
x,-y,-z
-x,1/2+y,-z
-x,-y,-z
x,1/2+y,-z
-x,y,z
x,1/2-y,z
1/2+x,1/2+y,z
1/2-x,-y,z
1/2+x,1/2-y,-z
1/2-x,y,-z
1/2-x,1/2-y,-z
1/2+x,y,-z
1/2-x,1/2+y,z
1/2+x,-y,z
loop_
_atom_site_type_symbol
_atom_site_label
_atom_site_fract_x
_atom_site_fract_y
_atom_site_fract_z
Si Si1 0.433888 0.250000 0.297321
Si Si2 0.273236 0.750000 0.438117
Si Si3 0.895113 0.250000 0.110241
Si Si4 0.902892 0.250000 0.465713
Si Si5 0.063548 0.750000 0.654692
Si Si6 0.773597 0.250000 0.062808
Si Si7 0.000000 0.250000 0.033241
Si Si8 0.933108 0.750000 0.167343
O O1 0.500000 0.250000 0.311036
O O2 0.410018 0.499082 0.323156
O O3 0.429264 0.250000 0.232555
O O4 0.250000 0.500000 0.412247
O O5 0.250000 0.750000 0.500000
O O6 0.338996 0.750000 0.445487
O O7 0.838955 0.250000 0.074505
O O8 0.945740 0.250000 0.069174
O O9 0.904101 0.501913 0.144558
O O10 0.912516 0.500000 0.500000
O O11 0.936936 0.250000 0.410189
O O12 0.000000 0.750000 0.675646
O O13 0.750000 0.500000 0.087615
O O14 0.750000 0.250000 0.000000
O O15 0.000000 0.500000 0.000000
O O16 0.000000 0.750000 0.153415
#
# Coordination Sequence:
#
# PCOD9500231 Si02
#       8
#     8   8   8   8   8   8   4   8
#     4   9  19  36  59  78 111 147 180 234 290 339
#     4  10  16  30  47  68  97 124 166 221 268 310
#     4  12  23  39  60  91 123 154 205 244 298 356
#     4  12  21  31  51  76 106 147 182 226 263 328
#     4  10  21  36  50  78 113 152 189 216 269 348
#     4  10  23  40  58  79 114 162 212 247 262 327
#     4  12  26  36  56  86 136 174 170 228 312 368
#     4  11  20  38  62  95 119 143 189 255 313 370
#
# _framework density 18.632369000000001
#
# number of rings (size 3 to 8) (size 9 to 14) (size 15 to 20)
#    0.000    1.333    4.000    3.200    3.733    2.667 
#    0.000    0.000    0.000    0.000    0.000   18.667 
#    0.000    0.000    0.000    0.000    0.000    0.000 
#
# Total GULP energy -167248.309203 kJ/mol
# GULP energy per Si atom -5574.943640 kJ/mol
# Density = 1.858996 g / cm^3
# Si number density = 18.632369 Si / 1000 Ang^3
#
#
#
# Elastic Constant Matrix: (Units=GPa)
#
#
# Indices 1 2 3 4 5 6 
#
# 1 83.5681 28.4219 14.3973 0.0000 0.0000 0.0000
# 2 28.4219 231.8319 62.1094 0.0000 0.0000 0.0000
# 3 14.3973 62.1094 63.2674 0.0000 0.0000 0.0000
# 4 0.0000 0.0000 0.0000 15.4596 0.0000 0.0000
# 5 0.0000 0.0000 0.0000 0.0000 13.4293 0.0000
# 6 0.0000 0.0000 0.0000 0.0000 0.0000 13.0329
#
#
#
# Elastic Compliance Matrix: (Units=1/GPa)
#
#
# Indices 1 2 3 4 5 6 
#
# 1 0.012643 -0.001057 -0.001839 0.000000 0.000000 0.000000
# 2 -0.001057 0.005941 -0.005592 0.000000 0.000000 0.000000
# 3 -0.001839 -0.005592 0.021714 0.000000 0.000000 0.000000
# 4 0.000000 0.000000 0.000000 0.064685 0.000000 0.000000
# 5 0.000000 0.000000 0.000000 0.000000 0.074464 0.000000
# 6 0.000000 0.000000 0.000000 0.000000 0.000000 0.076729
#
#
# Mechanical properties :
#
#
# Convention : Reuss Voigt Hill
#
# Bulk Modulus (GPa) = 42.87907 65.39163 54.13535
# Shear Modulus (GPa) = 17.79832 26.63362 22.21597
#
# Velocity S-wave (km/s) = 3.09404 3.78488 3.45676
# Velocity P-wave (km/s) = 5.98559 7.36697 6.71192
#
# Compressibility (1/GPa) = 0.02332140
#
# Stress axis : x y z
#
# Youngs Moduli (GPa) = 79.09694 168.31669 46.05336
#
# Poissons Ratio (x) = 0.17795 0.08470
# Poissons Ratio (y) = 0.08362 0.25752
# Poissons Ratio (z) = 0.14547 0.94120
#
# Static dielectric constant tensor:
#      x y z
#    x 1.660720 0.000000 0.000000 
#    y 0.000000 1.913800 0.000000 
#    z 0.000000 0.000000 1.608790 
# 
# From -- ./inp_files/39470.got.cif
#   From: 2010.05.17/outbox.cif.g08.bks.cpg/sg67_20_cif.got.tgz:39470.got - 2010.06.03 18:28:57.
