data_PCOD9500946
_publ_section_title
;
Structure prediction by ZEFSAII (Michael W. Deem and Ramdas Pophale) SiO2 
 PCOD9500946
Probable space group: C M M A
;
_chemical_formula_sum "Si O2"
_cell_formula_units_Z 100
_cell_length_a 20.110371
_cell_length_b 14.779804
_cell_length_c 15.306472
_cell_angle_alpha 90.000000
_cell_angle_beta 90.000000
_cell_angle_gamma 90.000000
_cell_volume 4549.501984
_symmetry_space_group_name_H-M "C M M A"
_symmetry_group_IT_number 67
_symmetry_cell_setting 'orthorhombic'
loop_
_space_group_symop_operation_xyz
x,y,z
-x,1/2-y,z
x,-y,-z
-x,1/2+y,-z
-x,-y,-z
x,1/2+y,-z
-x,y,z
x,1/2-y,z
1/2+x,1/2+y,z
1/2-x,-y,z
1/2+x,1/2-y,-z
1/2-x,y,-z
1/2-x,1/2-y,-z
1/2+x,y,-z
1/2-x,1/2+y,z
1/2+x,-y,z
loop_
_atom_site_type_symbol
_atom_site_label
_atom_site_fract_x
_atom_site_fract_y
_atom_site_fract_z
Si Si1 0.164867 0.640155 0.197419
Si Si2 0.603488 0.403037 0.022513
Si Si3 0.659174 0.360216 0.578489
Si Si4 0.575812 0.639184 0.256553
Si Si5 0.811782 0.139590 0.612544
Si Si6 0.000000 0.750000 0.977073
Si Si7 0.807676 0.359374 0.123898
O O1 0.163544 0.750000 0.197124
O O2 0.112642 0.609468 0.125445
O O3 0.156132 0.609068 0.296918
O O4 0.237862 0.611248 0.164392
O O5 0.576791 0.500000 0.000000
O O6 0.557391 0.327244 0.982599
O O7 0.673863 0.392204 0.972449
O O8 0.658447 0.250000 0.578212
O O9 0.603757 0.387739 0.648082
O O10 0.733667 0.386101 0.609422
O O11 0.654153 0.389990 0.477696
O O12 0.500000 0.609480 0.240202
O O13 0.574586 0.750000 0.252956
O O14 0.631431 0.610962 0.186568
O O15 0.812436 0.250000 0.612521
O O16 0.805812 0.250000 0.122928
#
# Coordination Sequence:
#
# PCOD9500946 Si02
#       7
#    16  16  16  16  16   4  16
#     4  10  18  34  57  87 122 165 209 259 323 378
#     4  12  26  42  66  91 121 163 207 258 317 375
#     4   8  12  22  38  71 107 151 209 256 302 366
#     4   9  16  24  42  71 112 156 205 259 314 367
#     4   8  13  22  45  71 109 153 204 257 308 369
#     4  12  26  52  66  86 120 164 214 264 300 386
#     4  10  19  33  56  86 121 162 204 255 314 371
#
# _framework density 21.980428
#
# number of rings (size 3 to 8) (size 9 to 14) (size 15 to 20)
#    0.000    2.400    3.200    1.680    1.120    2.560 
#    0.000    0.000    1.760    0.000    0.000    1.120 
#    0.000    1.280    0.000    0.160    0.000    0.480 
#
# Total GULP energy -278883.230150 kJ/mol
# GULP energy per Si atom -5577.664603 kJ/mol
# Density = 2.193040 g / cm^3
# Si number density = 21.980428 Si / 1000 Ang^3
#
#
#
# Elastic Constant Matrix: (Units=GPa)
#
#
# Indices 1 2 3 4 5 6 
#
# 1 45.0934 6.7379 -1.9808 0.0000 0.0000 0.0000
# 2 6.7379 77.8385 0.5491 0.0000 0.0000 0.0000
# 3 -1.9808 0.5491 116.4129 0.0000 0.0000 0.0000
# 4 0.0000 0.0000 0.0000 -29.1309 0.0000 0.0000
# 5 0.0000 0.0000 0.0000 0.0000 -11.1249 0.0000
# 6 0.0000 0.0000 0.0000 0.0000 0.0000 2.5795
#
#
#
# Elastic Compliance Matrix: (Units=1/GPa)
#
#
# Indices 1 2 3 4 5 6 
#
# 1 0.022485 -0.001949 0.000392 0.000000 0.000000 0.000000
# 2 -0.001949 0.013016 -0.000095 0.000000 0.000000 0.000000
# 3 0.000392 -0.000095 0.008597 0.000000 0.000000 0.000000
# 4 0.000000 0.000000 0.000000 -0.034328 0.000000 0.000000
# 5 0.000000 0.000000 0.000000 0.000000 -0.089888 0.000000
# 6 0.000000 0.000000 0.000000 0.000000 0.000000 0.387674
#
#
# Mechanical properties :
#
#
# Convention : Reuss Voigt Hill
#
# Bulk Modulus (GPa) = 24.51304 27.77301 26.14303
# Shear Modulus (GPa) = 15.41031 8.06730 11.73881
#
# Velocity S-wave (km/s) = 2.65069 1.91786 2.31348
# Velocity P-wave (km/s) = 4.53262 4.19130 4.36530
#
# Compressibility (1/GPa) = 0.04079461
#
# Stress axis : x y z
#
# Youngs Moduli (GPa) = 44.47484 76.82558 116.31659
#
# Poissons Ratio (x) = 0.14974 -0.04557
# Poissons Ratio (y) = 0.08669 0.01100
# Poissons Ratio (z) = -0.01742 0.00726
#
# Static dielectric constant tensor:
#      x y z
#    x 1.822620 0.000000 0.000000 
#    y 0.000000 1.833540 0.000000 
#    z 0.000000 0.000000 1.835260 
# 
# From -- ./inp_files/29499.got.cif
#   From: 2010.05.17/outbox.cif.g08.bks.cpg/sg67_15_cif.got.tgz:29499.got - 2010.06.03 18:28:57.
