data_PCOD9500093
_publ_section_title
;
Structure prediction by ZEFSAII (Michael W. Deem and Ramdas Pophale) SiO2 
 PCOD9500093
Probable space group: C C C M
;
_chemical_formula_sum "Si O2"
_cell_formula_units_Z 40
_cell_length_a 18.000000
_cell_length_b 27.000000
_cell_length_c 9.000000
_cell_angle_alpha 90.000000
_cell_angle_beta 90.000000
_cell_angle_gamma 90.000000
_cell_volume 4374.000000
_symmetry_space_group_name_H-M "C C C M"
_symmetry_group_IT_number 66
_symmetry_cell_setting 'orthorhombic'
loop_
_space_group_symop_operation_xyz
x,y,z
-x,-y,z
x,-y,1/2-z
-x,y,1/2-z
-x,-y,-z
x,y,-z
-x,y,1/2+z
x,-y,1/2+z
1/2+x,1/2+y,z
1/2-x,1/2-y,z
1/2+x,1/2-y,1/2-z
1/2-x,1/2+y,1/2-z
1/2-x,1/2-y,-z
1/2+x,1/2+y,-z
1/2-x,1/2+y,1/2+z
1/2+x,1/2-y,1/2+z
loop_
_atom_site_type_symbol
_atom_site_label
_atom_site_fract_x
_atom_site_fract_y
_atom_site_fract_z
Si Si1 0.580775 0.549180 0.676526
Si Si2 0.659762 0.755441 0.328237
Si Si3 0.082318 0.448853 0.320314
Si Si4 0.164915 0.643964 0.323670
Si Si5 0.674809 0.352274 0.822470
O O1 0.615660 0.500000 0.750000
O O2 0.500000 0.554507 0.750000
O O3 0.573839 0.541691 0.500000
O O4 0.626338 0.599134 0.702176
O O5 0.640853 0.766085 0.500000
O O6 0.750000 0.750000 0.320252
O O7 0.636403 0.801721 0.228250
O O8 0.634108 0.699915 0.288012
O O9 0.113996 0.500000 0.250000
O O10 0.079846 0.451827 0.500000
O O11 0.126271 0.400665 0.264991
O O12 0.000000 0.444731 0.250000
O O13 0.156246 0.637710 0.500000
O O14 0.251021 0.643750 0.274273
O O15 0.694039 0.349854 0.000000
#
# Coordination Sequence:
#
# PCOD9500093 Si02
#       5
#    16  16  16  16  16
#     4  10  20  35  54  75 102 136 173 212 260 313
#     4   8  15  31  52  73 102 139 174 213 264 312
#     4  11  22  39  59  79 106 139 175 214 260 312
#     4  11  21  33  53  82 110 138 174 215 259 309
#     4   9  19  35  54  76 104 140 178 219 266 311
#
# _framework density 9.1449470000000002
#
# number of rings (size 3 to 8) (size 9 to 14) (size 15 to 20)
#    0.000    2.200    0.000    6.600    0.000    6.000 
#    0.000    3.000    0.000    2.400    0.000    0.000 
#    0.000    0.000    0.000    0.000    0.000    0.000 
#
# Total GULP energy -223099.270443 kJ/mol
# GULP energy per Si atom -5577.481761 kJ/mol
# Density = 0.912413 g / cm^3
# Si number density = 9.144947 Si / 1000 Ang^3
#
#
#
# Elastic Constant Matrix: (Units=GPa)
#
#
# Indices 1 2 3 4 5 6 
#
# 1 20.8563 40.6743 28.2726 0.0000 0.0000 0.0000
# 2 40.6743 191.5674 83.4208 0.0000 0.0000 0.0000
# 3 28.2726 83.4208 143.9833 0.0000 0.0000 0.0000
# 4 0.0000 0.0000 0.0000 33.8300 0.0000 0.0000
# 5 0.0000 0.0000 0.0000 0.0000 21.4496 0.0000
# 6 0.0000 0.0000 0.0000 0.0000 0.0000 156.9605
#
#
#
# Elastic Compliance Matrix: (Units=1/GPa)
#
#
# Indices 1 2 3 4 5 6 
#
# 1 0.089411 -0.015165 -0.008771 0.000000 0.000000 0.000000
# 2 -0.015165 0.009554 -0.002557 0.000000 0.000000 0.000000
# 3 -0.008771 -0.002557 0.010149 0.000000 0.000000 0.000000
# 4 0.000000 0.000000 0.000000 0.029560 0.000000 0.000000
# 5 0.000000 0.000000 0.000000 0.000000 0.046621 0.000000
# 6 0.000000 0.000000 0.000000 0.000000 0.000000 0.006371
#
#
# Mechanical properties :
#
#
# Convention : Reuss Voigt Hill
#
# Bulk Modulus (GPa) = 17.81631 73.46024 45.63827
# Shear Modulus (GPa) = 18.98537 56.05065 37.51801
#
# Velocity S-wave (km/s) = 3.22534 5.54186 4.53404
# Velocity P-wave (km/s) = 4.86134 9.01117 7.23995
#
# Compressibility (1/GPa) = 0.05612834
#
# Stress axis : x y z
#
# Youngs Moduli (GPa) = 11.18427 104.67264 98.53054
#
# Poissons Ratio (x) = 1.58734 0.86417
# Poissons Ratio (y) = 0.16961 0.25198
# Poissons Ratio (z) = 0.09809 0.26769
#
# Static dielectric constant tensor:
#      x y z
#    x 1.627210 0.000000 0.000000 
#    y 0.000000 1.678380 0.000000 
#    z 0.000000 0.000000 1.613550 
# 
# From -- ./inp_files/6700.got.cif
#   From: 2010.05.17/outbox.ucp.g08.bks.cvg/sg66_4_cif.got.tgz:6700.got - 2010.06.11 16:44:13.
