data_PCOD9500935
_publ_section_title
;
Structure prediction by ZEFSAII (Michael W. Deem and Ramdas Pophale) SiO2 
 PCOD9500935
Probable space group: C M M A
;
_chemical_formula_sum "Si O2"
_cell_formula_units_Z 96
_cell_length_a 17.677182
_cell_length_b 17.887404
_cell_length_c 16.734930
_cell_angle_alpha 90.000000
_cell_angle_beta 90.000000
_cell_angle_gamma 90.000000
_cell_volume 5291.566391
_symmetry_space_group_name_H-M "C M M A"
_symmetry_group_IT_number 67
_symmetry_cell_setting 'orthorhombic'
loop_
_space_group_symop_operation_xyz
x,y,z
-x,1/2-y,z
x,-y,-z
-x,1/2+y,-z
-x,-y,-z
x,1/2+y,-z
-x,y,z
x,1/2-y,z
1/2+x,1/2+y,z
1/2-x,-y,z
1/2+x,1/2-y,-z
1/2-x,y,-z
1/2-x,1/2-y,-z
1/2+x,y,-z
1/2-x,1/2+y,z
1/2+x,-y,z
loop_
_atom_site_type_symbol
_atom_site_label
_atom_site_fract_x
_atom_site_fract_y
_atom_site_fract_z
Si Si1 0.587747 0.108086 0.655712
Si Si2 0.721201 0.162438 0.909634
Si Si3 0.088808 0.928667 0.837087
Si Si4 0.315394 0.936726 0.794273
Si Si5 0.159815 0.830043 0.505007
Si Si6 0.668821 0.041463 0.384277
O O1 0.500000 0.124091 0.643173
O O2 0.603445 0.109821 0.750158
O O3 0.635838 0.158824 0.596552
O O4 0.609192 0.024164 0.629949
O O5 0.707527 0.250000 0.893502
O O6 0.645335 0.113712 0.896392
O O7 0.784701 0.128783 0.849985
O O8 0.750000 0.154193 0.000000
O O9 0.000000 0.922373 0.855418
O O10 0.113245 0.015660 0.826533
O O11 0.323411 0.916626 0.700987
O O12 0.250000 0.000000 0.794864
O O13 0.129416 0.750000 0.475875
O O14 0.250000 0.827794 0.500000
O O15 0.141083 0.902042 0.451822
O O16 0.750000 0.000000 0.401820
#
# Coordination Sequence:
#
# PCOD9500935 Si02
#       6
#    16  16  16  16  16  16
#     4  10  21  37  57  80 106 140 181 229 279 320
#     4  10  21  36  55  82 117 149 179 216 267 331
#     4   9  19  37  61  86 109 138 181 232 281 322
#     4   8  17  33  54  79 107 140 182 227 269 318
#     4  11  23  33  47  75 111 146 186 227 267 317
#     4  10  18  34  54  75 102 140 184 227 266 319
#
# _framework density 18.142075999999999
#
# number of rings (size 3 to 8) (size 9 to 14) (size 15 to 20)
#    0.000    2.333    1.667    1.500    0.000    6.333 
#    0.000    3.333    0.000    1.500    0.000    4.667 
#    0.000    0.000    0.000    0.000    0.000    0.000 
#
# Total GULP energy -267544.336715 kJ/mol
# GULP energy per Si atom -5573.840348 kJ/mol
# Density = 1.810078 g / cm^3
# Si number density = 18.142076 Si / 1000 Ang^3
#
#
#
# Elastic Constant Matrix: (Units=GPa)
#
#
# Indices 1 2 3 4 5 6 
#
# 1 76.4091 10.7530 22.9553 0.0000 0.0000 0.0000
# 2 10.7530 40.2226 14.4921 0.0000 0.0000 0.0000
# 3 22.9553 14.4921 46.2807 0.0000 0.0000 0.0000
# 4 0.0000 0.0000 0.0000 -18.8913 0.0000 0.0000
# 5 0.0000 0.0000 0.0000 0.0000 22.2389 0.0000
# 6 0.0000 0.0000 0.0000 0.0000 0.0000 -13.3559
#
#
#
# Elastic Compliance Matrix: (Units=1/GPa)
#
#
# Indices 1 2 3 4 5 6 
#
# 1 0.015464 -0.001545 -0.007186 0.000000 0.000000 0.000000
# 2 -0.001545 0.028178 -0.008057 0.000000 0.000000 0.000000
# 3 -0.007186 -0.008057 0.027695 0.000000 0.000000 0.000000
# 4 0.000000 0.000000 0.000000 -0.052934 0.000000 0.000000
# 5 0.000000 0.000000 0.000000 0.000000 0.044966 0.000000
# 6 0.000000 0.000000 0.000000 0.000000 0.000000 -0.074873
#
#
# Mechanical properties :
#
#
# Convention : Reuss Voigt Hill
#
# Bulk Modulus (GPa) = 26.48341 28.81256 27.64799
# Shear Modulus (GPa) = 144.26867 5.64582 74.95725
#
# Velocity S-wave (km/s) = 8.92716 1.76600 6.43479
# Velocity P-wave (km/s) = 10.99493 4.48045 8.39532
#
# Compressibility (1/GPa) = 0.03775948
#
# Stress axis : x y z
#
# Youngs Moduli (GPa) = 64.66715 35.48919 36.10800
#
# Poissons Ratio (x) = 0.05482 0.25948
# Poissons Ratio (y) = 0.09990 0.29093
# Poissons Ratio (z) = 0.46472 0.28594
#
# Static dielectric constant tensor:
#      x y z
#    x 1.636530 0.000000 0.000000 
#    y 0.000000 1.637240 0.000000 
#    z 0.000000 0.000000 1.648940 
# 
# From -- ./inp_files/34253.got.cif
#   From: 2010.05.17/outbox.cif.g08.bks.cpg/sg67_18_cif.got.tgz:34253.got - 2010.06.03 18:28:57.
