data_PCOD9500095
_publ_section_title
;
Structure prediction by ZEFSAII (Michael W. Deem and Ramdas Pophale) SiO2 
 PCOD9500095
Probable space group: C C C M
;
_chemical_formula_sum "Si O2"
_cell_formula_units_Z 58
_cell_length_a 27.000000
_cell_length_b 30.000000
_cell_length_c 9.000000
_cell_angle_alpha 90.000000
_cell_angle_beta 90.000000
_cell_angle_gamma 90.000000
_cell_volume 7290.000000
_symmetry_space_group_name_H-M "C C C M"
_symmetry_group_IT_number 66
_symmetry_cell_setting 'orthorhombic'
loop_
_space_group_symop_operation_xyz
x,y,z
-x,-y,z
x,-y,1/2-z
-x,y,1/2-z
-x,-y,-z
x,y,-z
-x,y,1/2+z
x,-y,1/2+z
1/2+x,1/2+y,z
1/2-x,1/2-y,z
1/2+x,1/2-y,1/2-z
1/2-x,1/2+y,1/2-z
1/2-x,1/2-y,-z
1/2+x,1/2+y,-z
1/2-x,1/2+y,1/2+z
1/2+x,1/2-y,1/2+z
loop_
_atom_site_type_symbol
_atom_site_label
_atom_site_fract_x
_atom_site_fract_y
_atom_site_fract_z
Si Si1 0.582419 0.925146 0.826047
Si Si2 0.340846 0.701325 0.821718
Si Si3 0.500000 0.000000 0.250000
Si Si4 0.189357 0.451196 0.319823
Si Si5 0.744300 0.636880 0.677937
Si Si6 0.582518 0.168336 0.821307
Si Si7 0.050076 0.768265 0.176913
Si Si8 0.182355 0.705549 0.322226
O O1 0.540264 0.964100 0.817133
O O2 0.634447 0.938457 0.744576
O O3 0.565197 0.878245 0.751544
O O4 0.592937 0.917596 0.000000
O O5 0.312771 0.653989 0.795356
O O6 0.398917 0.706765 0.777946
O O7 0.315816 0.744179 0.742166
O O8 0.338382 0.709370 0.000000
O O9 0.201962 0.500000 0.250000
O O10 0.186025 0.454620 0.500000
O O11 0.230222 0.411641 0.286043
O O12 0.752507 0.642079 0.500000
O O13 0.773102 0.674542 0.769352
O O14 0.554460 0.215007 0.789787
O O15 0.635760 0.180193 0.751898
O O16 0.585270 0.162799 0.000000
O O17 0.000000 0.785631 0.250000
O O18 0.046371 0.772133 0.000000
O O19 0.178088 0.707085 0.500000
#
# Coordination Sequence:
#
# PCOD9500095 Si02
#       8
#    16  16   4  16  16  16  16  16
#     4  12  25  41  59  76  97 129 173 229 279 322
#     4   9  19  35  52  73 104 141 176 208 248 311
#     4  12  30  44  56  74 102 132 178 224 292 332
#     4  11  23  39  60  80 103 135 172 217 270 328
#     4  10  20  35  55  75 101 139 174 206 257 319
#     4  10  21  37  54  73  99 134 175 216 262 319
#     4   9  19  34  52  74 102 137 172 208 250 300
#     4  11  20  30  49  78 107 135 168 212 262 309
#
# _framework density 7.9561039999999998
#
# number of rings (size 3 to 8) (size 9 to 14) (size 15 to 20)
#    0.000    1.655    2.069    3.931    0.966    7.172 
#    0.000    0.000    0.000    0.000    0.000    0.000 
#    0.000    0.552    0.000    6.897    0.000    0.000 
#
# Total GULP energy -323114.186698 kJ/mol
# GULP energy per Si atom -5570.934253 kJ/mol
# Density = 0.793800 g / cm^3
# Si number density = 7.956104 Si / 1000 Ang^3
#
#
#
# Elastic Constant Matrix: (Units=GPa)
#
#
# Indices 1 2 3 4 5 6 
#
# 1 106.9496 52.2336 34.8515 0.0000 0.0000 0.0000
# 2 52.2336 94.1712 29.5425 0.0000 0.0000 0.0000
# 3 34.8515 29.5425 57.0543 0.0000 0.0000 0.0000
# 4 0.0000 0.0000 0.0000 -11.2893 0.0000 0.0000
# 5 0.0000 0.0000 0.0000 0.0000 18.7509 0.0000
# 6 0.0000 0.0000 0.0000 0.0000 0.0000 27.8793
#
#
#
# Elastic Compliance Matrix: (Units=1/GPa)
#
#
# Indices 1 2 3 4 5 6 
#
# 1 0.014116 -0.006118 -0.005455 0.000000 0.000000 0.000000
# 2 -0.006118 0.015330 -0.004201 0.000000 0.000000 0.000000
# 3 -0.005455 -0.004201 0.023034 0.000000 0.000000 0.000000
# 4 0.000000 0.000000 0.000000 -0.088580 0.000000 0.000000
# 5 0.000000 0.000000 0.000000 0.000000 0.053331 0.000000
# 6 0.000000 0.000000 0.000000 0.000000 0.000000 0.035869
#
#
# Mechanical properties :
#
#
# Convention : Reuss Voigt Hill
#
# Bulk Modulus (GPa) = 47.77091 54.60337 51.18714
# Shear Modulus (GPa) = 54.57001 16.50468 35.53734
#
# Velocity S-wave (km/s) = 5.86250 3.22411 4.73095
# Velocity P-wave (km/s) = 8.71274 6.94620 7.87914
#
# Compressibility (1/GPa) = 0.02093324
#
# Stress axis : x y z
#
# Youngs Moduli (GPa) = 70.84217 65.22976 43.41381
#
# Poissons Ratio (x) = 0.39911 0.23680
# Poissons Ratio (y) = 0.43344 0.18236
# Poissons Ratio (z) = 0.38641 0.27400
#
# Static dielectric constant tensor:
#      x y z
#    x 1.586010 0.000000 0.000000 
#    y 0.000000 1.531390 0.000000 
#    z 0.000000 0.000000 1.534650 
# 
# From -- ./inp_files/10931.got.cif
#   From: 2010.05.17/outbox.ucp.g08.bks.cvg/sg66_6_cif.got.tgz:10931.got - 2010.06.11 16:44:13.
