data_PCOD9500408
_publ_section_title
;
Structure prediction by ZEFSAII (Michael W. Deem and Ramdas Pophale) SiO2 
 PCOD9500408
Probable space group: C M M A
;
_chemical_formula_sum "Si O2"
_cell_formula_units_Z 116
_cell_length_a 25.414261
_cell_length_b 15.494971
_cell_length_c 16.781979
_cell_angle_alpha 90.000000
_cell_angle_beta 90.000000
_cell_angle_gamma 90.000000
_cell_volume 6608.629837
_symmetry_space_group_name_H-M "C M M A"
_symmetry_group_IT_number 67
_symmetry_cell_setting 'orthorhombic'
loop_
_space_group_symop_operation_xyz
x,y,z
-x,1/2-y,z
x,-y,-z
-x,1/2+y,-z
-x,-y,-z
x,1/2+y,-z
-x,y,z
x,1/2-y,z
1/2+x,1/2+y,z
1/2-x,-y,z
1/2+x,1/2-y,-z
1/2-x,y,-z
1/2-x,1/2-y,-z
1/2+x,y,-z
1/2-x,1/2+y,z
1/2+x,-y,z
loop_
_atom_site_type_symbol
_atom_site_label
_atom_site_fract_x
_atom_site_fract_y
_atom_site_fract_z
Si Si1 0.630581 0.981594 0.092502
Si Si2 0.500000 0.250000 0.277184
Si Si3 0.936563 0.929839 0.658446
Si Si4 0.063001 0.344758 0.181818
Si Si5 0.665491 0.846917 0.822616
Si Si6 0.438624 0.850219 0.506375
Si Si7 0.595933 0.377715 0.318824
Si Si8 0.273633 0.150453 0.910768
O O1 0.585876 0.922351 0.130600
O O2 0.683056 0.922903 0.101759
O O3 0.636270 0.074063 0.134595
O O4 0.621925 0.000000 0.000000
O O5 0.546747 0.324592 0.282847
O O6 0.922175 0.860563 0.725761
O O7 0.920447 0.905448 0.568827
O O8 0.000000 0.934966 0.656044
O O9 0.914129 0.020663 0.686214
O O10 0.081165 0.250000 0.155365
O O11 0.000000 0.346516 0.177631
O O12 0.650559 0.750000 0.851055
O O13 0.647793 0.853346 0.730736
O O14 0.726401 0.857336 0.847021
O O15 0.500000 0.873241 0.526459
O O16 0.439471 0.750000 0.481987
O O17 0.405589 0.858098 0.586862
O O18 0.293413 0.250000 0.907078
O O19 0.250000 0.138843 0.000000
#
# Coordination Sequence:
#
# PCOD9500408 Si02
#       8
#    16   4  16  16  16  16  16  16
#     4  12  23  38  64  86 111 147 189 239 300 348
#     4  12  20  32  54  72 122 164 196 228 276 344
#     4  10  19  30  51  78 108 150 199 239 280 329
#     4  10  22  40  58  81 119 158 195 237 285 343
#     4  11  23  36  54  85 119 145 184 232 295 352
#     4  10  17  29  48  76 112 151 195 236 280 329
#     4  12  19  33  49  78 115 157 190 231 281 339
#     4  10  21  39  63  90 112 137 179 240 299 346
#
# _framework density 17.552807000000001
#
# number of rings (size 3 to 8) (size 9 to 14) (size 15 to 20)
#    0.000    1.241    5.517    1.655    0.000    3.586 
#    0.000    0.000    0.000    0.000    0.000    0.966 
#    0.000    4.414    0.276    0.000    0.000    0.000 
#
# Total GULP energy -322968.768241 kJ/mol
# GULP energy per Si atom -5568.427039 kJ/mol
# Density = 1.751286 g / cm^3
# Si number density = 17.552807 Si / 1000 Ang^3
#
#
#
# Elastic Constant Matrix: (Units=GPa)
#
#
# Indices 1 2 3 4 5 6 
#
# 1 44.9421 19.1996 40.8306 0.0000 0.0000 0.0000
# 2 19.1996 123.8545 36.5725 0.0000 0.0000 0.0000
# 3 40.8306 36.5725 99.7892 0.0000 0.0000 0.0000
# 4 0.0000 0.0000 0.0000 28.7104 0.0000 0.0000
# 5 0.0000 0.0000 0.0000 0.0000 23.9574 0.0000
# 6 0.0000 0.0000 0.0000 0.0000 0.0000 24.1625
#
#
#
# Elastic Compliance Matrix: (Units=1/GPa)
#
#
# Indices 1 2 3 4 5 6 
#
# 1 0.035621 -0.001366 -0.014074 0.000000 0.000000 0.000000
# 2 -0.001366 0.009106 -0.002779 0.000000 0.000000 0.000000
# 3 -0.014074 -0.002779 0.016798 0.000000 0.000000 0.000000
# 4 0.000000 0.000000 0.000000 0.034831 0.000000 0.000000
# 5 0.000000 0.000000 0.000000 0.000000 0.041741 0.000000
# 6 0.000000 0.000000 0.000000 0.000000 0.000000 0.041386
#
#
# Mechanical properties :
#
#
# Convention : Reuss Voigt Hill
#
# Bulk Modulus (GPa) = 39.85985 51.31013 45.58499
# Shear Modulus (GPa) = 22.29318 26.83162 24.56240
#
# Velocity S-wave (km/s) = 3.56766 3.91400 3.74484
# Velocity P-wave (km/s) = 6.30308 7.05133 6.68767
#
# Compressibility (1/GPa) = 0.02508790
#
# Stress axis : x y z
#
# Youngs Moduli (GPa) = 28.07314 109.81549 59.52992
#
# Poissons Ratio (x) = 0.15000 0.83785
# Poissons Ratio (y) = 0.03835 0.16540
# Poissons Ratio (z) = 0.39512 0.30512
#
# Static dielectric constant tensor:
#      x y z
#    x 1.235410 0.000000 0.000000 
#    y 0.000000 1.637920 0.000000 
#    z 0.000000 0.000000 1.610880 
# 
# From -- ./inp_files/35540.got.cif
#   From: 2010.05.17/outbox.cif.g08.bks.cpg/sg67_18_cif.got.tgz:35540.got - 2010.06.03 18:28:57.
