data_PCOD9500178
_publ_section_title
;
Structure prediction by ZEFSAII (Michael W. Deem and Ramdas Pophale) SiO2 
 PCOD9500178
Probable space group: C M M A
;
_chemical_formula_sum "Si O2"
_cell_formula_units_Z 116
_cell_length_a 29.246570
_cell_length_b 8.955007
_cell_length_c 28.705804
_cell_angle_alpha 90.000000
_cell_angle_beta 90.000000
_cell_angle_gamma 90.000000
_cell_volume 7518.143048
_symmetry_space_group_name_H-M "C M M A"
_symmetry_group_IT_number 67
_symmetry_cell_setting 'orthorhombic'
loop_
_space_group_symop_operation_xyz
x,y,z
-x,1/2-y,z
x,-y,-z
-x,1/2+y,-z
-x,-y,-z
x,1/2+y,-z
-x,y,z
x,1/2-y,z
1/2+x,1/2+y,z
1/2-x,-y,z
1/2+x,1/2-y,-z
1/2-x,y,-z
1/2-x,1/2-y,-z
1/2+x,y,-z
1/2-x,1/2+y,z
1/2+x,-y,z
loop_
_atom_site_type_symbol
_atom_site_label
_atom_site_fract_x
_atom_site_fract_y
_atom_site_fract_z
Si Si1 0.824286 0.916468 0.423518
Si Si2 0.698488 0.930271 0.047147
Si Si3 0.150680 0.571776 0.669029
Si Si4 0.250000 0.500000 0.500000
Si Si5 0.450930 0.070396 0.643988
Si Si6 0.199877 0.072242 0.756473
Si Si7 0.699172 0.570824 0.859701
Si Si8 0.571060 0.424235 0.452390
O O1 0.823007 0.750000 0.403256
O O2 0.873720 0.937473 0.447427
O O3 0.823842 0.026719 0.379298
O O4 0.785271 0.926457 0.462933
O O5 0.700348 0.750000 0.045504
O O6 0.750000 0.000000 0.048010
O O7 0.677186 0.990634 0.095447
O O8 0.677497 0.000000 0.000000
O O9 0.152604 0.750000 0.673485
O O10 0.097424 0.522420 0.665677
O O11 0.172434 0.495402 0.713713
O O12 0.500000 0.025279 0.665397
O O13 0.449716 0.250000 0.642566
O O14 0.449115 0.007372 0.591907
O O15 0.204122 0.250000 0.751628
O O16 0.179090 0.043534 0.808168
O O17 0.250000 0.000000 0.755229
O O18 0.702159 0.750000 0.867332
O O19 0.750000 0.500000 0.856646
O O20 0.556597 0.500000 0.500000
O O21 0.559529 0.250000 0.451596
#
# Coordination Sequence:
#
# PCOD9500178 Si02
#       8
#    16  16  16   4  16  16  16  16
#     4  10  22  36  50  67  89 115 144 177 212 257
#     4  10  16  22  33  50  75 107 144 188 231 269
#     4  10  21  36  54  72  92 116 144 182 224 267
#     4  12  22  36  52  70  88 116 148 182 216 260
#     4   9  19  36  55  73  91 112 139 172 213 264
#     4  10  20  33  49  67  91 121 154 191 227 265
#     4   9  16  26  39  56  78 108 146 187 227 263
#     4  10  19  33  50  69  91 114 137 166 205 250
#
# _framework density 15.429342
#
# number of rings (size 3 to 8) (size 9 to 14) (size 15 to 20)
#    0.000    2.207    0.690    4.345    0.966    4.414 
#    0.000    0.000    0.000    0.000    0.000    0.000 
#    0.000    0.000    0.000    0.000    0.000    0.690 
#
# Total GULP energy -322964.299993 kJ/mol
# GULP energy per Si atom -5568.350000 kJ/mol
# Density = 1.539422 g / cm^3
# Si number density = 15.429342 Si / 1000 Ang^3
#
#
#
# Elastic Constant Matrix: (Units=GPa)
#
#
# Indices 1 2 3 4 5 6 
#
# 1 62.5749 17.9319 34.9989 0.0000 0.0000 0.0000
# 2 17.9319 67.5658 50.8709 0.0000 0.0000 0.0000
# 3 34.9989 50.8709 128.8452 0.0000 0.0000 0.0000
# 4 0.0000 0.0000 0.0000 26.0484 0.0000 0.0000
# 5 0.0000 0.0000 0.0000 0.0000 4.0028 0.0000
# 6 0.0000 0.0000 0.0000 0.0000 0.0000 2.2590
#
#
#
# Elastic Compliance Matrix: (Units=1/GPa)
#
#
# Indices 1 2 3 4 5 6 
#
# 1 0.018971 -0.001644 -0.004504 0.000000 0.000000 0.000000
# 2 -0.001644 0.021204 -0.007925 0.000000 0.000000 0.000000
# 3 -0.004504 -0.007925 0.012114 0.000000 0.000000 0.000000
# 4 0.000000 0.000000 0.000000 0.038390 0.000000 0.000000
# 5 0.000000 0.000000 0.000000 0.000000 0.249826 0.000000
# 6 0.000000 0.000000 0.000000 0.000000 0.000000 0.442664
#
#
# Mechanical properties :
#
#
# Convention : Reuss Voigt Hill
#
# Bulk Modulus (GPa) = 41.42097 51.84326 46.63212
# Shear Modulus (GPa) = 6.10231 16.80765 11.45498
#
# Velocity S-wave (km/s) = 1.99088 3.30408 2.72769
# Velocity P-wave (km/s) = 5.67350 6.94473 6.34105
#
# Compressibility (1/GPa) = 0.02414236
#
# Stress axis : x y z
#
# Youngs Moduli (GPa) = 52.71155 47.16200 82.55045
#
# Poissons Ratio (x) = 0.07752 0.37183
# Poissons Ratio (y) = 0.08664 0.65422
# Poissons Ratio (z) = 0.23743 0.37377
#
# Static dielectric constant tensor:
#      x y z
#    x 1.540700 0.000000 0.000000 
#    y 0.000000 1.520700 0.000000 
#    z 0.000000 0.000000 1.541720 
# 
# From -- ./inp_files/45105.got.cif
#   From: 2010.05.17/outbox.cif.g08.bks.cpg/sg67_23_cif.got.tgz:45105.got - 2010.06.03 18:28:57.
