data_PCOD9500175
_publ_section_title
;
Structure prediction by ZEFSAII (Michael W. Deem and Ramdas Pophale) SiO2 
 PCOD9500175
Probable space group: C M M A
;
_chemical_formula_sum "Si O2"
_cell_formula_units_Z 72
_cell_length_a 8.650668
_cell_length_b 25.867865
_cell_length_c 21.216669
_cell_angle_alpha 90.000000
_cell_angle_beta 90.000000
_cell_angle_gamma 90.000000
_cell_volume 4747.745508
_symmetry_space_group_name_H-M "C M M A"
_symmetry_group_IT_number 67
_symmetry_cell_setting 'orthorhombic'
loop_
_space_group_symop_operation_xyz
x,y,z
-x,1/2-y,z
x,-y,-z
-x,1/2+y,-z
-x,-y,-z
x,1/2+y,-z
-x,y,z
x,1/2-y,z
1/2+x,1/2+y,z
1/2-x,-y,z
1/2+x,1/2-y,-z
1/2-x,y,-z
1/2-x,1/2-y,-z
1/2+x,y,-z
1/2-x,1/2+y,z
1/2+x,-y,z
loop_
_atom_site_type_symbol
_atom_site_label
_atom_site_fract_x
_atom_site_fract_y
_atom_site_fract_z
Si Si1 0.315078 0.750000 0.428568
Si Si2 0.815739 0.058879 0.935257
Si Si3 0.684617 0.558359 0.193259
Si Si4 0.684538 0.142165 0.429049
Si Si5 0.185499 0.941649 0.665893
O O1 0.500000 0.750000 0.429169
O O2 0.250000 0.750000 0.500000
O O3 0.251828 0.696131 0.401813
O O4 0.759005 0.082971 0.869213
O O5 0.000000 0.056896 0.937465
O O6 0.750000 0.000000 0.934255
O O7 0.750000 0.082550 0.000000
O O8 0.500000 0.556557 0.185119
O O9 0.750000 0.500000 0.195836
O O10 0.719361 0.579202 0.263144
O O11 0.500000 0.145254 0.432239
O O12 0.750000 0.135791 0.500000
O O13 0.739324 0.095100 0.385844
O O14 0.000000 0.943031 0.658602
O O15 0.250000 0.000000 0.660802
#
# Coordination Sequence:
#
# PCOD9500175 Si02
#       5
#     8  16  16  16  16
#     4  10  18  32  52  72  92 112 139 176 221 268
#     4  10  16  22  33  49  71  98 134 174 212 249
#     4   9  16  26  39  54  76 105 139 175 212 254
#     4  11  21  34  51  70  91 115 146 183 223 266
#     4  10  20  33  47  65  89 119 152 185 222 265
#
# _framework density 15.165092
#
# number of rings (size 3 to 8) (size 9 to 14) (size 15 to 20)
#    0.000    2.000    0.000    9.667    0.000    3.111 
#    0.000    2.222    0.000    0.000    0.000    0.000 
#    0.000    0.000    0.000    1.000    0.000   13.778 
#
# Total GULP energy -200547.776897 kJ/mol
# GULP energy per Si atom -5570.771580 kJ/mol
# Density = 1.513058 g / cm^3
# Si number density = 15.165092 Si / 1000 Ang^3
#
#
#
# Elastic Constant Matrix: (Units=GPa)
#
#
# Indices 1 2 3 4 5 6 
#
# 1 140.5041 34.6237 61.4320 0.0000 0.0000 0.0000
# 2 34.6237 59.9974 45.2236 0.0000 0.0000 0.0000
# 3 61.4320 45.2236 116.8964 0.0000 0.0000 0.0000
# 4 0.0000 0.0000 0.0000 -0.8864 0.0000 0.0000
# 5 0.0000 0.0000 0.0000 0.0000 25.7862 0.0000
# 6 0.0000 0.0000 0.0000 0.0000 0.0000 16.4705
#
#
#
# Elastic Compliance Matrix: (Units=1/GPa)
#
#
# Indices 1 2 3 4 5 6 
#
# 1 0.009483 -0.002423 -0.004047 0.000000 0.000000 0.000000
# 2 -0.002423 0.024147 -0.008069 0.000000 0.000000 0.000000
# 3 -0.004047 -0.008069 0.013803 0.000000 0.000000 0.000000
# 4 0.000000 0.000000 0.000000 -1.128156 0.000000 0.000000
# 5 0.000000 0.000000 0.000000 0.000000 0.038780 0.000000
# 6 0.000000 0.000000 0.000000 0.000000 0.000000 0.060715
#
#
# Mechanical properties :
#
#
# Convention : Reuss Voigt Hill
#
# Bulk Modulus (GPa) = 54.47313 66.66183 60.56748
# Shear Modulus (GPa) = -5.28523 20.01530 7.36504
#
# Velocity S-wave (km/s) = -1.86888 3.63688 2.20615
# Velocity P-wave (km/s) = 5.59831 7.85422 6.82019
#
# Compressibility (1/GPa) = 0.01835768
#
# Stress axis : x y z
#
# Youngs Moduli (GPa) = 105.44639 41.41249 72.44986
#
# Poissons Ratio (x) = 0.10033 0.29317
# Poissons Ratio (y) = 0.25546 0.58457
# Poissons Ratio (z) = 0.42669 0.33414
#
# Static dielectric constant tensor:
#      x y z
#    x 1.503550 0.000000 0.000000 
#    y 0.000000 1.464200 0.000000 
#    z 0.000000 0.000000 1.575970 
# 
# From -- ./inp_files/32072.got.cif
#   From: 2010.05.17/outbox.cif.g08.bks.cpg/sg67_17_cif.got.tgz:32072.got - 2010.06.03 18:28:57.
