data_PCOD9500575
_publ_section_title
;
Structure prediction by ZEFSAII (Michael W. Deem and Ramdas Pophale) SiO2 
 PCOD9500575
Probable space group: C M M A
;
_chemical_formula_sum "Si O2"
_cell_formula_units_Z 112
_cell_length_a 15.488320
_cell_length_b 14.551075
_cell_length_c 23.754074
_cell_angle_alpha 90.000000
_cell_angle_beta 90.000000
_cell_angle_gamma 90.000000
_cell_volume 5353.496181
_symmetry_space_group_name_H-M "C M M A"
_symmetry_group_IT_number 67
_symmetry_cell_setting 'orthorhombic'
loop_
_space_group_symop_operation_xyz
x,y,z
-x,1/2-y,z
x,-y,-z
-x,1/2+y,-z
-x,-y,-z
x,1/2+y,-z
-x,y,z
x,1/2-y,z
1/2+x,1/2+y,z
1/2-x,-y,z
1/2+x,1/2-y,-z
1/2-x,y,-z
1/2-x,1/2-y,-z
1/2+x,y,-z
1/2-x,1/2+y,z
1/2+x,-y,z
loop_
_atom_site_type_symbol
_atom_site_label
_atom_site_fract_x
_atom_site_fract_y
_atom_site_fract_z
Si Si1 0.853729 0.014314 0.849226
Si Si2 0.852814 0.144254 0.072880
Si Si3 0.371214 0.145249 0.457546
Si Si4 0.903642 0.519498 0.357438
Si Si5 0.896530 0.643891 0.255786
Si Si6 0.671838 0.645345 0.418003
Si Si7 0.856579 0.644036 0.052213
O O1 0.876963 0.069941 0.793122
O O2 0.888526 0.080053 0.898640
O O3 0.750000 0.000000 0.847434
O O4 0.881623 0.914971 0.873625
O O5 0.876718 0.250000 0.080141
O O6 0.747982 0.141145 0.063013
O O7 0.881875 0.113092 0.010522
O O8 0.399866 0.250000 0.447539
O O9 0.411531 0.072702 0.416213
O O10 0.379852 0.126063 0.523839
O O11 0.270377 0.141461 0.439214
O O12 0.866851 0.593652 0.313159
O O13 0.848391 0.429441 0.370963
O O14 0.000000 0.492031 0.338193
O O15 0.863624 0.750000 0.248059
O O16 0.000000 0.652192 0.259550
O O17 0.653410 0.750000 0.400294
O O18 0.882482 0.750000 0.058222
#
# Coordination Sequence:
#
# PCOD9500575 Si02
#       7
#    16  16  16  16  16  16  16
#     4  10  18  29  51  80 102 126 171 225 263 298
#     4   8  14  24  41  71 109 138 158 195 256 318
#     4   9  18  34  56  81 110 140 168 202 251 310
#     4  11  22  35  53  76 102 136 178 221 260 300
#     4  10  23  42  57  70  97 139 183 224 267 314
#     4   9  19  35  55  81 111 140 166 199 252 317
#     4   8  13  23  42  71 106 137 163 199 254 311
#
# _framework density 20.920908000000001
#
# number of rings (size 3 to 8) (size 9 to 14) (size 15 to 20)
#    0.000    2.714    0.000    3.857    0.000    6.857 
#    0.000    2.143    0.000    3.000    0.000    2.000 
#    0.000    0.000    0.000    0.000    0.000    0.000 
#
# Total GULP energy -311924.442026 kJ/mol
# GULP energy per Si atom -5570.079322 kJ/mol
# Density = 2.087329 g / cm^3
# Si number density = 20.920908 Si / 1000 Ang^3
#
#
#
# Elastic Constant Matrix: (Units=GPa)
#
#
# Indices 1 2 3 4 5 6 
#
# 1 29.4974 21.6126 17.6522 0.0000 0.0000 0.0000
# 2 21.6126 141.9377 77.6016 0.0000 0.0000 0.0000
# 3 17.6522 77.6016 71.9889 0.0000 0.0000 0.0000
# 4 0.0000 0.0000 0.0000 -15.5479 0.0000 0.0000
# 5 0.0000 0.0000 0.0000 0.0000 38.6039 0.0000
# 6 0.0000 0.0000 0.0000 0.0000 0.0000 20.6231
#
#
#
# Elastic Compliance Matrix: (Units=1/GPa)
#
#
# Indices 1 2 3 4 5 6 
#
# 1 0.039913 -0.001770 -0.007879 0.000000 0.000000 0.000000
# 2 -0.001770 0.017235 -0.018145 0.000000 0.000000 0.000000
# 3 -0.007879 -0.018145 0.035383 0.000000 0.000000 0.000000
# 4 0.000000 0.000000 0.000000 -0.064318 0.000000 0.000000
# 5 0.000000 0.000000 0.000000 0.000000 0.025904 0.000000
# 6 0.000000 0.000000 0.000000 0.000000 0.000000 0.048489
#
#
# Mechanical properties :
#
#
# Convention : Reuss Voigt Hill
#
# Bulk Modulus (GPa) = 27.06867 53.01741 40.04304
# Shear Modulus (GPa) = 29.32379 17.17301 23.24840
#
# Velocity S-wave (km/s) = 3.74792 2.86816 3.33716
# Velocity P-wave (km/s) = 5.62991 6.03037 5.83358
#
# Compressibility (1/GPa) = 0.03694308
#
# Stress axis : x y z
#
# Youngs Moduli (GPa) = 25.05444 58.02043 28.26214
#
# Poissons Ratio (x) = 0.10267 0.22269
# Poissons Ratio (y) = 0.04434 0.51282
# Poissons Ratio (z) = 0.19741 1.05279
#
# Static dielectric constant tensor:
#      x y z
#    x 1.875510 0.000000 0.000000 
#    y 0.000000 1.764250 0.000000 
#    z 0.000000 0.000000 1.760750 
# 
# From -- ./inp_files/41946.got.cif
#   From: 2010.05.17/outbox.cif.g08.bks.cpg/sg67_21_cif.got.tgz:41946.got - 2010.06.03 18:28:57.
