data_PCOD9500875
_publ_section_title
;
Structure prediction by ZEFSAII (Michael W. Deem and Ramdas Pophale) SiO2 
 PCOD9500875
Probable space group: C M M A
;
_chemical_formula_sum "Si O2"
_cell_formula_units_Z 52
_cell_length_a 14.557653
_cell_length_b 21.205658
_cell_length_c 10.132030
_cell_angle_alpha 90.000000
_cell_angle_beta 90.000000
_cell_angle_gamma 90.000000
_cell_volume 3127.804378
_symmetry_space_group_name_H-M "C M M A"
_symmetry_group_IT_number 67
_symmetry_cell_setting 'orthorhombic'
loop_
_space_group_symop_operation_xyz
x,y,z
-x,1/2-y,z
x,-y,-z
-x,1/2+y,-z
-x,-y,-z
x,1/2+y,-z
-x,y,z
x,1/2-y,z
1/2+x,1/2+y,z
1/2-x,-y,z
1/2+x,1/2-y,-z
1/2-x,y,-z
1/2-x,1/2-y,-z
1/2+x,y,-z
1/2-x,1/2+y,z
1/2+x,-y,z
loop_
_atom_site_type_symbol
_atom_site_label
_atom_site_fract_x
_atom_site_fract_y
_atom_site_fract_z
Si Si1 0.805695 0.176150 0.363381
Si Si2 0.750000 0.000000 0.000000
Si Si3 0.000000 0.674152 0.217048
Si Si4 0.000000 0.173323 0.474080
Si Si5 0.693264 0.622343 0.875453
O O1 0.807838 0.250000 0.321854
O O2 0.750000 0.173885 0.500000
O O3 0.908238 0.154097 0.397652
O O4 0.753505 0.136690 0.253262
O O5 0.808705 0.951972 0.089211
O O6 0.907512 0.649747 0.147909
O O7 0.000000 0.750000 0.215173
O O8 0.000000 0.653946 0.371992
O O9 0.000000 0.250000 0.476999
O O10 0.750000 0.650574 0.000000
#
# Coordination Sequence:
#
# PCOD9500875 Si02
#       5
#    16   4   8   8  16
#     4  10  18  32  57  87 120 150 188 244 303 361
#     4   8  24  46  56  76 114 180 202 244 280 328
#     4  11  20  34  63  95 120 150 186 245 320 361
#     4   9  18  31  53  88 124 152 177 225 308 371
#     4  10  22  40  59  83 119 162 202 241 287 346
#
# _framework density 16.625080000000001
#
# number of rings (size 3 to 8) (size 9 to 14) (size 15 to 20)
#    0.923    1.231    3.077    0.923    0.000    4.308 
#    0.000    2.308    0.000    1.846    0.000    0.000 
#    0.000    0.000    0.000    0.000    0.000    0.000 
#
# Total GULP energy -144757.638792 kJ/mol
# GULP energy per Si atom -5567.601492 kJ/mol
# Density = 1.658724 g / cm^3
# Si number density = 16.625080 Si / 1000 Ang^3
#
#
#
# Elastic Constant Matrix: (Units=GPa)
#
#
# Indices 1 2 3 4 5 6 
#
# 1 177.5468 49.0847 65.1598 0.0000 0.0000 0.0000
# 2 49.0847 79.1403 45.9113 0.0000 0.0000 0.0000
# 3 65.1598 45.9113 102.5312 0.0000 0.0000 0.0000
# 4 0.0000 0.0000 0.0000 10.5000 0.0000 0.0000
# 5 0.0000 0.0000 0.0000 0.0000 21.6647 0.0000
# 6 0.0000 0.0000 0.0000 0.0000 0.0000 20.4689
#
#
#
# Elastic Compliance Matrix: (Units=1/GPa)
#
#
# Indices 1 2 3 4 5 6 
#
# 1 0.007730 -0.002627 -0.003736 0.000000 0.000000 0.000000
# 2 -0.002627 0.017963 -0.006374 0.000000 0.000000 0.000000
# 3 -0.003736 -0.006374 0.014982 0.000000 0.000000 0.000000
# 4 0.000000 0.000000 0.000000 0.095238 0.000000 0.000000
# 5 0.000000 0.000000 0.000000 0.000000 0.046158 0.000000
# 6 0.000000 0.000000 0.000000 0.000000 0.000000 0.048855
#
#
# Mechanical properties :
#
#
# Convention : Reuss Voigt Hill
#
# Bulk Modulus (GPa) = 65.78816 75.50332 70.64574
# Shear Modulus (GPa) = 19.12301 23.79756 21.46028
#
# Velocity S-wave (km/s) = 3.39521 3.78752 3.59672
# Velocity P-wave (km/s) = 7.41805 8.03996 7.73526
#
# Compressibility (1/GPa) = 0.01520030
#
# Stress axis : x y z
#
# Youngs Moduli (GPa) = 129.37200 55.67108 66.74855
#
# Poissons Ratio (x) = 0.14623 0.24938
# Poissons Ratio (y) = 0.33982 0.42545
# Poissons Ratio (z) = 0.48335 0.35485
#
# Static dielectric constant tensor:
#      x y z
#    x 1.565360 0.000000 0.000000 
#    y 0.000000 1.553630 0.000000 
#    z 0.000000 0.000000 1.554490 
# 
# From -- ./inp_files/7819.got.cif
#   From: 2010.05.17/outbox.cif.g08.bks.cpg/sg67_4_cif.got.tgz:7819.got - 2010.06.03 18:28:57.
