data_PCOD9500726
_publ_section_title
;
Structure prediction by ZEFSAII (Michael W. Deem and Ramdas Pophale) SiO2 
 PCOD9500726
Probable space group: C M M A
;
_chemical_formula_sum "Si O2"
_cell_formula_units_Z 64
_cell_length_a 14.305190
_cell_length_b 16.480165
_cell_length_c 11.965237
_cell_angle_alpha 90.000000
_cell_angle_beta 90.000000
_cell_angle_gamma 90.000000
_cell_volume 2820.827256
_symmetry_space_group_name_H-M "C M M A"
_symmetry_group_IT_number 67
_symmetry_cell_setting 'orthorhombic'
loop_
_space_group_symop_operation_xyz
x,y,z
-x,1/2-y,z
x,-y,-z
-x,1/2+y,-z
-x,-y,-z
x,1/2+y,-z
-x,y,z
x,1/2-y,z
1/2+x,1/2+y,z
1/2-x,-y,z
1/2+x,1/2-y,-z
1/2-x,y,-z
1/2-x,1/2-y,-z
1/2+x,y,-z
1/2-x,1/2+y,z
1/2+x,-y,z
loop_
_atom_site_type_symbol
_atom_site_label
_atom_site_fract_x
_atom_site_fract_y
_atom_site_fract_z
Si Si1 0.613725 0.431253 0.666640
Si Si2 0.885963 0.608105 0.431727
Si Si3 0.888617 0.750000 0.279908
Si Si4 0.391702 0.428078 0.917844
Si Si5 0.140998 0.250000 0.982055
O O1 0.500000 0.421533 0.672624
O O2 0.645135 0.378160 0.559786
O O3 0.635381 0.520664 0.620010
O O4 0.650693 0.422366 0.792683
O O5 0.850470 0.672455 0.343449
O O6 0.000000 0.610436 0.435358
O O7 0.000000 0.750000 0.297871
O O8 0.876493 0.750000 0.149025
O O9 0.500000 0.451975 0.900715
O O10 0.391644 0.336922 0.968449
O O11 0.354565 0.500000 0.000000
O O12 0.250000 0.250000 0.000000
#
# Coordination Sequence:
#
# PCOD9500726 Si02
#       5
#    16  16   8  16   8
#     4   8  14  26  46  76 108 131 162 214 274 324
#     4   8  14  25  46  77 107 131 160 212 274 324
#     4  10  18  31  52  75 100 135 182 225 266 320
#     4  10  20  36  60  85 109 142 184 230 276 323
#     4  12  26  39  52  76 112 151 187 226 273 332
#
# _framework density 22.688379999999999
#
# number of rings (size 3 to 8) (size 9 to 14) (size 15 to 20)
#    0.000    2.750    0.000    4.125    0.000    5.500 
#    0.000    3.750    0.000    3.000    0.000    3.500 
#    0.000    0.000    0.000    0.000    0.000    0.000 
#
# Total GULP energy -178389.365410 kJ/mol
# GULP energy per Si atom -5574.667669 kJ/mol
# Density = 2.263674 g / cm^3
# Si number density = 22.688380 Si / 1000 Ang^3
#
#
#
# Elastic Constant Matrix: (Units=GPa)
#
#
# Indices 1 2 3 4 5 6 
#
# 1 48.8364 -11.0762 -4.5261 0.0000 0.0000 0.0000
# 2 -11.0762 90.8784 95.8542 0.0000 0.0000 0.0000
# 3 -4.5261 95.8542 272.0171 0.0000 0.0000 0.0000
# 4 0.0000 0.0000 0.0000 36.7200 0.0000 0.0000
# 5 0.0000 0.0000 0.0000 0.0000 7.9731 0.0000
# 6 0.0000 0.0000 0.0000 0.0000 0.0000 30.7519
#
#
#
# Elastic Compliance Matrix: (Units=1/GPa)
#
#
# Indices 1 2 3 4 5 6 
#
# 1 0.021192 0.003519 -0.000887 0.000000 0.000000 0.000000
# 2 0.003519 0.018097 -0.006319 0.000000 0.000000 0.000000
# 3 -0.000887 -0.006319 0.005888 0.000000 0.000000 0.000000
# 4 0.000000 0.000000 0.000000 0.027233 0.000000 0.000000
# 5 0.000000 0.000000 0.000000 0.000000 0.125422 0.000000
# 6 0.000000 0.000000 0.000000 0.000000 0.000000 0.032518
#
#
# Mechanical properties :
#
#
# Convention : Reuss Voigt Hill
#
# Bulk Modulus (GPa) = 26.45267 63.58175 45.01721
# Shear Modulus (GPa) = 19.97394 37.18766 28.58080
#
# Velocity S-wave (km/s) = 2.97031 4.05293 3.55309
# Velocity P-wave (km/s) = 4.84232 7.07010 6.05947
#
# Compressibility (1/GPa) = 0.03780337
#
# Stress axis : x y z
#
# Youngs Moduli (GPa) = 47.18677 55.25745 169.83616
#
# Poissons Ratio (x) = -0.19444 0.15071
# Poissons Ratio (y) = -0.16604 1.07312
# Poissons Ratio (z) = 0.04187 0.34915
#
# Static dielectric constant tensor:
#      x y z
#    x 1.899880 0.000000 0.000000 
#    y 0.000000 1.863960 0.000000 
#    z 0.000000 0.000000 1.807280 
# 
# From -- ./inp_files/17564.got.cif
#   From: 2010.05.17/outbox.cif.g08.bks.cpg/sg67_9_cif.got.tgz:17564.got - 2010.06.03 18:28:57.
