data_PCOD9500717
_publ_section_title
;
Structure prediction by ZEFSAII (Michael W. Deem and Ramdas Pophale) SiO2 
 PCOD9500717
Probable space group: C M M A
;
_chemical_formula_sum "Si O2"
_cell_formula_units_Z 104
_cell_length_a 27.686778
_cell_length_b 8.796793
_cell_length_c 24.820758
_cell_angle_alpha 90.000000
_cell_angle_beta 90.000000
_cell_angle_gamma 90.000000
_cell_volume 6045.216113
_symmetry_space_group_name_H-M "C M M A"
_symmetry_group_IT_number 67
_symmetry_cell_setting 'orthorhombic'
loop_
_space_group_symop_operation_xyz
x,y,z
-x,1/2-y,z
x,-y,-z
-x,1/2+y,-z
-x,-y,-z
x,1/2+y,-z
-x,y,z
x,1/2-y,z
1/2+x,1/2+y,z
1/2-x,-y,z
1/2+x,1/2-y,-z
1/2-x,y,-z
1/2-x,1/2-y,-z
1/2+x,y,-z
1/2-x,1/2+y,z
1/2+x,-y,z
loop_
_atom_site_type_symbol
_atom_site_label
_atom_site_fract_x
_atom_site_fract_y
_atom_site_fract_z
Si Si1 0.556127 0.431941 0.058843
Si Si2 0.698259 0.432779 0.349508
Si Si3 0.406054 0.065109 0.371988
Si Si4 0.891286 0.570716 0.840208
Si Si5 0.801567 0.068238 0.777598
Si Si6 0.500000 0.065208 0.440205
Si Si7 0.056855 0.575414 0.255465
O O1 0.500000 0.470803 0.072088
O O2 0.559788 0.250000 0.057260
O O3 0.591117 0.497640 0.104193
O O4 0.566368 0.500000 0.000000
O O5 0.701222 0.250000 0.352952
O O6 0.750000 0.500000 0.366468
O O7 0.649619 0.483159 0.380987
O O8 0.690994 0.471112 0.285893
O O9 0.406364 0.250000 0.373578
O O10 0.450564 0.015818 0.409680
O O11 0.418938 0.022673 0.310674
O O12 0.886394 0.750000 0.846218
O O13 0.842755 0.499844 0.815313
O O14 0.930595 0.527812 0.794843
O O15 0.801288 0.250000 0.781391
O O16 0.750000 0.000000 0.792979
O O17 0.500000 0.250000 0.440909
O O18 0.500000 0.000000 0.500000
O O19 0.073362 0.750000 0.244219
O O20 0.000000 0.580470 0.264893
#
# Coordination Sequence:
#
# PCOD9500717 Si02
#       7
#    16  16  16  16  16   8  16
#     4  10  21  38  58  78 102 137 180 225 271 320
#     4   9  17  30  50  75 104 137 175 216 264 320
#     4   9  16  31  54  76 101 139 178 216 263 324
#     4  12  23  33  49  76 110 144 177 215 266 322
#     4  10  19  33  52  75 106 139 177 218 265 320
#     4  10  20  36  58  80 106 142 185 224 269 324
#     4  10  18  31  51  74 101 137 178 217 265 323
#
# _framework density 17.203686000000001
#
# number of rings (size 3 to 8) (size 9 to 14) (size 15 to 20)
#    0.000    2.000    2.308    2.769    0.000    3.692 
#    0.000    1.538    0.000    0.923    0.000    6.462 
#    0.000    0.000    0.000    0.000    0.000    0.000 
#
# Total GULP energy -290032.095559 kJ/mol
# GULP energy per Si atom -5577.540299 kJ/mol
# Density = 1.716453 g / cm^3
# Si number density = 17.203686 Si / 1000 Ang^3
#
#
#
# Elastic Constant Matrix: (Units=GPa)
#
#
# Indices 1 2 3 4 5 6 
#
# 1 146.3524 26.8948 47.1878 0.0000 0.0000 0.0000
# 2 26.8948 38.9720 15.5556 0.0000 0.0000 0.0000
# 3 47.1878 15.5556 57.5428 0.0000 0.0000 0.0000
# 4 0.0000 0.0000 0.0000 23.5445 0.0000 0.0000
# 5 0.0000 0.0000 0.0000 0.0000 13.3436 0.0000
# 6 0.0000 0.0000 0.0000 0.0000 0.0000 26.7624
#
#
#
# Elastic Compliance Matrix: (Units=1/GPa)
#
#
# Indices 1 2 3 4 5 6 
#
# 1 0.009813 -0.003991 -0.006968 0.000000 0.000000 0.000000
# 2 -0.003991 0.030386 -0.004942 0.000000 0.000000 0.000000
# 3 -0.006968 -0.004942 0.024429 0.000000 0.000000 0.000000
# 4 0.000000 0.000000 0.000000 0.042473 0.000000 0.000000
# 5 0.000000 0.000000 0.000000 0.000000 0.074942 0.000000
# 6 0.000000 0.000000 0.000000 0.000000 0.000000 0.037366
#
#
# Mechanical properties :
#
#
# Convention : Reuss Voigt Hill
#
# Bulk Modulus (GPa) = 30.46354 46.90487 38.68421
# Shear Modulus (GPa) = 19.07291 22.94535 21.00913
#
# Velocity S-wave (km/s) = 3.33326 3.65601 3.49836
# Velocity P-wave (km/s) = 5.70615 6.71904 6.23320
#
# Compressibility (1/GPa) = 0.03282612
#
# Stress axis : x y z
#
# Youngs Moduli (GPa) = 101.90653 32.90998 40.93562
#
# Poissons Ratio (x) = 0.13133 0.28525
# Poissons Ratio (y) = 0.40667 0.20230
# Poissons Ratio (z) = 0.71011 0.16263
#
# Static dielectric constant tensor:
#      x y z
#    x 1.619950 0.000000 0.000000 
#    y 0.000000 1.580360 0.000000 
#    z 0.000000 0.000000 1.550640 
# 
# From -- ./inp_files/41007.got.cif
#   From: 2010.05.17/outbox.cif.g08.bks.cpg/sg67_21_cif.got.tgz:41007.got - 2010.06.03 18:28:57.
