data_PCOD9500837
_publ_section_title
;
Structure prediction by ZEFSAII (Michael W. Deem and Ramdas Pophale) SiO2 
 PCOD9500837
Probable space group: C M M A
;
_chemical_formula_sum "Si O2"
_cell_formula_units_Z 104
_cell_length_a 9.521034
_cell_length_b 29.080901
_cell_length_c 19.245924
_cell_angle_alpha 90.000000
_cell_angle_beta 90.000000
_cell_angle_gamma 90.000000
_cell_volume 5328.816194
_symmetry_space_group_name_H-M "C M M A"
_symmetry_group_IT_number 67
_symmetry_cell_setting 'orthorhombic'
loop_
_space_group_symop_operation_xyz
x,y,z
-x,1/2-y,z
x,-y,-z
-x,1/2+y,-z
-x,-y,-z
x,1/2+y,-z
-x,y,z
x,1/2-y,z
1/2+x,1/2+y,z
1/2-x,-y,z
1/2+x,1/2-y,-z
1/2-x,y,-z
1/2-x,1/2-y,-z
1/2+x,y,-z
1/2-x,1/2+y,z
1/2+x,-y,z
loop_
_atom_site_type_symbol
_atom_site_label
_atom_site_fract_x
_atom_site_fract_y
_atom_site_fract_z
Si Si1 0.500000 0.805498 0.606857
Si Si2 0.829917 0.250000 0.924590
Si Si3 0.790373 0.694666 0.674056
Si Si4 0.000000 0.805585 0.551515
Si Si5 0.836611 0.047039 0.715941
Si Si6 0.164416 0.664146 0.929757
Si Si7 0.833000 0.450903 0.561560
Si Si8 0.347075 0.118154 0.786786
O O1 0.500000 0.750000 0.599160
O O2 0.367211 0.816740 0.653266
O O3 0.500000 0.824248 0.527371
O O4 0.759307 0.204430 0.894898
O O5 0.000000 0.250000 0.925317
O O6 0.750000 0.250000 0.000000
O O7 0.808037 0.750000 0.686432
O O8 0.871664 0.682953 0.602402
O O9 0.835645 0.664316 0.739747
O O10 0.000000 0.750000 0.544910
O O11 0.818285 0.068293 0.638564
O O12 0.776068 0.083984 0.767935
O O13 0.000000 0.037178 0.725085
O O14 0.750000 0.000000 0.720836
O O15 0.155999 0.627608 0.868674
O O16 0.000000 0.677642 0.945953
O O17 0.250000 0.651272 0.000000
O O18 0.750000 0.500000 0.566748
O O19 0.750000 0.425680 0.500000
O O20 0.000000 0.456111 0.547038
O O21 0.500000 0.097582 0.768544
#
# Coordination Sequence:
#
# PCOD9500837 Si02
#       8
#     8   8  16   8  16  16  16  16
#     4   9  18  32  52  78 110 154 202 255 290 340
#     4  10  18  32  54  84 118 156 197 234 279 339
#     4  10  20  35  54  84 116 154 200 245 297 344
#     4   9  16  32  56  74 106 156 208 245 292 342
#     4  10  22  40  63  87 116 151 193 243 297 356
#     4  10  21  38  59  86 118 157 198 239 288 349
#     4   9  16  28  50  79 107 142 182 229 284 342
#     4  11  24  39  60  86 119 155 194 242 293 356
#
# _framework density 19.516531000000001
#
# number of rings (size 3 to 8) (size 9 to 14) (size 15 to 20)
#    0.000    2.154    0.769    3.923    2.154    4.923 
#    0.000    1.538    0.000    0.462    0.000    3.231 
#    0.000    0.000    0.000    0.000    0.000    0.000 
#
# Total GULP energy -289640.738106 kJ/mol
# GULP energy per Si atom -5570.014194 kJ/mol
# Density = 1.947211 g / cm^3
# Si number density = 19.516531 Si / 1000 Ang^3
#
#
#
# Elastic Constant Matrix: (Units=GPa)
#
#
# Indices 1 2 3 4 5 6 
#
# 1 169.1793 24.5450 41.2463 0.0000 0.0000 0.0000
# 2 24.5450 45.2023 23.7094 0.0000 0.0000 0.0000
# 3 41.2463 23.7094 86.9347 0.0000 0.0000 0.0000
# 4 0.0000 0.0000 0.0000 19.2241 0.0000 0.0000
# 5 0.0000 0.0000 0.0000 0.0000 30.1094 0.0000
# 6 0.0000 0.0000 0.0000 0.0000 0.0000 26.1070
#
#
#
# Elastic Compliance Matrix: (Units=1/GPa)
#
#
# Indices 1 2 3 4 5 6 
#
# 1 0.006894 -0.002366 -0.002626 0.000000 0.000000 0.000000
# 2 -0.002366 0.026628 -0.006139 0.000000 0.000000 0.000000
# 3 -0.002626 -0.006139 0.014423 0.000000 0.000000 0.000000
# 4 0.000000 0.000000 0.000000 0.052018 0.000000 0.000000
# 5 0.000000 0.000000 0.000000 0.000000 0.033212 0.000000
# 6 0.000000 0.000000 0.000000 0.000000 0.000000 0.038304
#
#
# Mechanical properties :
#
#
# Convention : Reuss Voigt Hill
#
# Bulk Modulus (GPa) = 38.93720 53.36860 46.15290
# Shear Modulus (GPa) = 24.71538 29.20915 26.96226
#
# Velocity S-wave (km/s) = 3.56249 3.87284 3.72090
# Velocity P-wave (km/s) = 6.07585 6.88500 6.49304
#
# Compressibility (1/GPa) = 0.02568238
#
# Stress axis : x y z
#
# Youngs Moduli (GPa) = 145.04613 37.55446 69.33371
#
# Poissons Ratio (x) = 0.08887 0.18205
# Poissons Ratio (y) = 0.34325 0.42567
# Poissons Ratio (z) = 0.38084 0.23056
#
# Static dielectric constant tensor:
#      x y z
#    x 1.752410 0.000000 0.000000 
#    y 0.000000 1.738860 0.000000 
#    z 0.000000 0.000000 1.696980 
# 
# From -- ./inp_files/37356.got.cif
#   From: 2010.05.17/outbox.cif.g08.bks.cpg/sg67_19_cif.got.tgz:37356.got - 2010.06.03 18:28:57.
