data_PCOD9500484
_publ_section_title
;
Structure prediction by ZEFSAII (Michael W. Deem and Ramdas Pophale) SiO2 
 PCOD9500484
Probable space group: C M M A
;
_chemical_formula_sum "Si O2"
_cell_formula_units_Z 88
_cell_length_a 8.146252
_cell_length_b 31.899353
_cell_length_c 18.193271
_cell_angle_alpha 90.000000
_cell_angle_beta 90.000000
_cell_angle_gamma 90.000000
_cell_volume 4727.706462
_symmetry_space_group_name_H-M "C M M A"
_symmetry_group_IT_number 67
_symmetry_cell_setting 'orthorhombic'
loop_
_space_group_symop_operation_xyz
x,y,z
-x,1/2-y,z
x,-y,-z
-x,1/2+y,-z
-x,-y,-z
x,1/2+y,-z
-x,y,z
x,1/2-y,z
1/2+x,1/2+y,z
1/2-x,-y,z
1/2+x,1/2-y,-z
1/2-x,y,-z
1/2-x,1/2-y,-z
1/2+x,y,-z
1/2-x,1/2+y,z
1/2+x,-y,z
loop_
_atom_site_type_symbol
_atom_site_label
_atom_site_fract_x
_atom_site_fract_y
_atom_site_fract_z
Si Si1 0.197462 0.925561 0.420052
Si Si2 0.198349 0.250000 0.583535
Si Si3 0.695643 0.203312 0.915689
Si Si4 0.697833 0.545759 0.741320
Si Si5 0.197458 0.132608 0.802759
Si Si6 0.700037 0.661758 0.641250
O O1 0.250000 0.941833 0.500000
O O2 0.254745 0.947327 0.343874
O O3 0.252868 0.877076 0.409646
O O4 0.000000 0.926750 0.418877
O O5 0.250000 0.250000 0.500000
O O6 0.260832 0.207037 0.618270
O O7 0.000000 0.250000 0.589777
O O8 0.500000 0.204799 0.913614
O O9 0.757627 0.250000 0.891117
O O10 0.748211 0.163833 0.866691
O O11 0.750000 0.197943 0.000000
O O12 0.500000 0.547783 0.739108
O O13 0.750000 0.500000 0.766506
O O14 0.754185 0.584199 0.793446
O O15 0.247174 0.152374 0.724660
O O16 0.000000 0.131447 0.805840
O O17 0.500000 0.661810 0.638668
#
# Coordination Sequence:
#
# PCOD9500484 Si02
#       6
#    16   8  16  16  16  16
#     4   9  17  30  45  64  92 125 165 214 262 310
#     4  10  18  28  42  62  87 122 165 206 249 296
#     4  10  21  36  55  83 115 143 170 202 242 294
#     4   9  19  34  51  73 101 132 172 217 263 315
#     4   9  18  34  55  77 101 134 173 212 253 303
#     4   8  16  29  45  65  90 124 167 207 249 303
#
# _framework density 18.613676000000002
#
# number of rings (size 3 to 8) (size 9 to 14) (size 15 to 20)
#    0.000    2.909    0.000    3.273    1.273    2.909 
#    0.000    5.455    0.000    0.545    0.000    3.818 
#    0.000    0.000    0.000    0.000    0.000    0.000 
#
# Total GULP energy -245108.548092 kJ/mol
# GULP energy per Si atom -5570.648820 kJ/mol
# Density = 1.857131 g / cm^3
# Si number density = 18.613676 Si / 1000 Ang^3
#
#
#
# Elastic Constant Matrix: (Units=GPa)
#
#
# Indices 1 2 3 4 5 6 
#
# 1 14.3846 19.0726 11.4480 0.0000 0.0000 0.0000
# 2 19.0726 174.7558 70.3552 0.0000 0.0000 0.0000
# 3 11.4480 70.3552 84.0339 0.0000 0.0000 0.0000
# 4 0.0000 0.0000 0.0000 17.3437 0.0000 0.0000
# 5 0.0000 0.0000 0.0000 0.0000 24.2927 0.0000
# 6 0.0000 0.0000 0.0000 0.0000 0.0000 19.1088
#
#
#
# Elastic Compliance Matrix: (Units=1/GPa)
#
#
# Indices 1 2 3 4 5 6 
#
# 1 0.083001 -0.006798 -0.005616 0.000000 0.000000 0.000000
# 2 -0.006798 0.009188 -0.006767 0.000000 0.000000 0.000000
# 3 -0.005616 -0.006767 0.018330 0.000000 0.000000 0.000000
# 4 0.000000 0.000000 0.000000 0.057658 0.000000 0.000000
# 5 0.000000 0.000000 0.000000 0.000000 0.041165 0.000000
# 6 0.000000 0.000000 0.000000 0.000000 0.000000 0.052332
#
#
# Mechanical properties :
#
#
# Convention : Reuss Voigt Hill
#
# Bulk Modulus (GPa) = 13.85831 52.76954 33.31393
# Shear Modulus (GPa) = 15.42790 23.63561 19.53176
#
# Velocity S-wave (km/s) = 2.88209 3.56729 3.24284
# Velocity P-wave (km/s) = 4.30543 6.73638 5.65312
#
# Compressibility (1/GPa) = 0.07215887
#
# Stress axis : x y z
#
# Youngs Moduli (GPa) = 12.04801 108.83351 54.55450
#
# Poissons Ratio (x) = 0.73980 0.30639
# Poissons Ratio (y) = 0.08190 0.36915
# Poissons Ratio (z) = 0.06767 0.73644
#
# Static dielectric constant tensor:
#      x y z
#    x 1.661120 0.000000 0.000000 
#    y 0.000000 1.684320 0.000000 
#    z 0.000000 0.000000 1.620870 
# 
# From -- ./inp_files/32428.got.cif
#   From: 2010.05.17/outbox.cif.g08.bks.cpg/sg67_17_cif.got.tgz:32428.got - 2010.06.03 18:28:57.
