data_PCOD9500866
_publ_section_title
;
Structure prediction by ZEFSAII (Michael W. Deem and Ramdas Pophale) SiO2 
 PCOD9500866
Probable space group: C M M A
;
_chemical_formula_sum "Si O2"
_cell_formula_units_Z 88
_cell_length_a 18.863113
_cell_length_b 9.076757
_cell_length_c 30.750641
_cell_angle_alpha 90.000000
_cell_angle_beta 90.000000
_cell_angle_gamma 90.000000
_cell_volume 5264.998458
_symmetry_space_group_name_H-M "C M M A"
_symmetry_group_IT_number 67
_symmetry_cell_setting 'orthorhombic'
loop_
_space_group_symop_operation_xyz
x,y,z
-x,1/2-y,z
x,-y,-z
-x,1/2+y,-z
-x,-y,-z
x,1/2+y,-z
-x,y,z
x,1/2-y,z
1/2+x,1/2+y,z
1/2-x,-y,z
1/2+x,1/2-y,-z
1/2-x,y,-z
1/2-x,1/2-y,-z
1/2+x,y,-z
1/2-x,1/2+y,z
1/2+x,-y,z
loop_
_atom_site_type_symbol
_atom_site_label
_atom_site_fract_x
_atom_site_fract_y
_atom_site_fract_z
Si Si1 0.079694 0.577796 0.879401
Si Si2 0.673353 0.572788 0.806598
Si Si3 0.586529 0.419720 0.455880
Si Si4 0.417358 0.073840 0.278978
Si Si5 0.500000 0.072705 0.047254
Si Si6 0.413610 0.419748 0.632123
O O1 0.097502 0.750000 0.886379
O O2 0.133343 0.496311 0.847927
O O3 0.000000 0.573681 0.859101
O O4 0.066307 0.491040 0.924596
O O5 0.677630 0.750000 0.810572
O O6 0.750000 0.500000 0.803079
O O7 0.628336 0.537335 0.763287
O O8 0.609626 0.500000 0.500000
O O9 0.500000 0.423543 0.455794
O O10 0.608032 0.250000 0.456169
O O11 0.610187 0.498640 0.411645
O O12 0.500000 0.033411 0.271836
O O13 0.414797 0.250000 0.285362
O O14 0.391559 0.996588 0.323058
O O15 0.500000 0.250000 0.045923
O O16 0.500000 0.000000 0.000000
O O17 0.500000 0.424972 0.631859
O O18 0.392109 0.250000 0.631320
#
# Coordination Sequence:
#
# PCOD9500866 Si02
#       6
#    16  16  16  16   8  16
#     4   9  19  34  54  81 109 139 177 218 258 303
#     4  11  22  35  52  74 104 140 176 217 263 311
#     4   9  15  22  33  50  76 110 146 185 231 287
#     4   9  18  32  49  68  92 126 167 208 253 304
#     4  10  18  32  56  86 116 144 178 218 259 298
#     4   9  16  25  38  58  83 113 150 193 241 292
#
# _framework density 16.714155000000002
#
# number of rings (size 3 to 8) (size 9 to 14) (size 15 to 20)
#    0.545    2.000    0.000    3.273    0.000    6.545 
#    0.000    1.818    0.000    0.545    0.000    3.818 
#    0.000    0.727    0.000    7.636    0.000   11.455 
#
# Total GULP energy -245093.283411 kJ/mol
# GULP energy per Si atom -5570.301896 kJ/mol
# Density = 1.667611 g / cm^3
# Si number density = 16.714155 Si / 1000 Ang^3
#
#
#
# Elastic Constant Matrix: (Units=GPa)
#
#
# Indices 1 2 3 4 5 6 
#
# 1 47.0416 43.9977 55.0600 0.0000 0.0000 0.0000
# 2 43.9977 129.6071 105.6284 0.0000 0.0000 0.0000
# 3 55.0600 105.6284 187.2399 0.0000 0.0000 0.0000
# 4 0.0000 0.0000 0.0000 33.8217 0.0000 0.0000
# 5 0.0000 0.0000 0.0000 0.0000 -2.2206 0.0000
# 6 0.0000 0.0000 0.0000 0.0000 0.0000 17.3230
#
#
#
# Elastic Compliance Matrix: (Units=1/GPa)
#
#
# Indices 1 2 3 4 5 6 
#
# 1 0.035136 -0.006492 -0.006670 0.000000 0.000000 0.000000
# 2 -0.006492 0.015481 -0.006825 0.000000 0.000000 0.000000
# 3 -0.006670 -0.006825 0.011152 0.000000 0.000000 0.000000
# 4 0.000000 0.000000 0.000000 0.029567 0.000000 0.000000
# 5 0.000000 0.000000 0.000000 0.000000 -0.450323 0.000000
# 6 0.000000 0.000000 0.000000 0.000000 0.000000 0.057727
#
#
# Mechanical properties :
#
#
# Convention : Reuss Voigt Hill
#
# Bulk Modulus (GPa) = 45.87752 85.91786 65.89769
# Shear Modulus (GPa) = -19.68345 20.39830 0.35742
#
# Velocity S-wave (km/s) = -3.43542 3.49724 0.46294
# Velocity P-wave (km/s) = 3.43100 8.23550 6.30853
#
# Compressibility (1/GPa) = 0.02179717
#
# Stress axis : x y z
#
# Youngs Moduli (GPa) = 28.46046 64.59383 89.66901
#
# Poissons Ratio (x) = 0.41933 0.59810
# Poissons Ratio (y) = 0.18476 0.61195
# Poissons Ratio (z) = 0.18983 0.44083
#
# Static dielectric constant tensor:
#      x y z
#    x 1.553160 0.000000 0.000000 
#    y 0.000000 1.558530 0.000000 
#    z 0.000000 0.000000 1.549830 
# 
# From -- ./inp_files/45853.got.cif
#   From: 2010.05.17/outbox.cif.g08.bks.cpg/sg67_23_cif.got.tgz:45853.got - 2010.06.03 18:28:57.
