data_PCOD9500221
_publ_section_title
;
Structure prediction by ZEFSAII (Michael W. Deem and Ramdas Pophale) SiO2 
 PCOD9500221
Probable space group: C M M A
;
_chemical_formula_sum "Si O2"
_cell_formula_units_Z 116
_cell_length_a 27.155125
_cell_length_b 25.394754
_cell_length_c 7.054171
_cell_angle_alpha 90.000000
_cell_angle_beta 90.000000
_cell_angle_gamma 90.000000
_cell_volume 4864.540233
_symmetry_space_group_name_H-M "C M M A"
_symmetry_group_IT_number 67
_symmetry_cell_setting 'orthorhombic'
loop_
_space_group_symop_operation_xyz
x,y,z
-x,1/2-y,z
x,-y,-z
-x,1/2+y,-z
-x,-y,-z
x,1/2+y,-z
-x,y,z
x,1/2-y,z
1/2+x,1/2+y,z
1/2-x,-y,z
1/2+x,1/2-y,-z
1/2-x,y,-z
1/2-x,1/2-y,-z
1/2+x,y,-z
1/2-x,1/2+y,z
1/2+x,-y,z
loop_
_atom_site_type_symbol
_atom_site_label
_atom_site_fract_x
_atom_site_fract_y
_atom_site_fract_z
Si Si1 0.500000 0.750000 0.728098
Si Si2 0.661524 0.308594 0.907987
Si Si3 0.311465 0.693023 0.663539
Si Si4 0.206864 0.075889 0.734172
Si Si5 0.612781 0.055804 0.505646
Si Si6 0.552848 0.311865 0.878576
Si Si7 0.422928 0.670340 0.559122
Si Si8 0.313108 0.583656 0.184440
O O1 0.457344 0.703064 0.699590
O O2 0.657994 0.250000 0.824504
O O3 0.606079 0.329643 0.949626
O O4 0.688037 0.352837 0.787382
O O5 0.687680 0.304148 0.107705
O O6 0.291958 0.750000 0.601791
O O7 0.291473 0.634278 0.641722
O O8 0.367347 0.689484 0.589115
O O9 0.161433 0.049722 0.626523
O O10 0.263653 0.057824 0.731716
O O11 0.191018 0.076485 0.957199
O O12 0.581874 0.106667 0.437786
O O13 0.637039 0.066469 0.712227
O O14 0.585741 0.000000 0.500000
O O15 0.500000 0.336686 0.928082
O O16 0.548597 0.250000 0.931336
O O17 0.558296 0.315055 0.651108
#
# Coordination Sequence:
#
# PCOD9500221 Si02
#       8
#     4  16  16  16  16  16  16  16
#     4  12  20  36  66  94 114 148 184 248 292 352
#     4   9  18  30  49  76 114 153 188 232 295 359
#     4   9  17  32  49  77 116 152 183 234 292 355
#     4   9  21  35  57  85 114 153 204 248 289 354
#     4  11  24  40  59  83 117 157 197 243 291 347
#     4  10  16  28  47  76 103 136 177 226 277 340
#     4  11  19  34  57  83 112 146 186 230 296 343
#     4  10  19  37  57  82 117 155 198 251 301 337
#
# _framework density 23.846036999999999
#
# number of rings (size 3 to 8) (size 9 to 14) (size 15 to 20)
#    0.000    2.069    3.448    0.414    0.000    2.207 
#    1.241    4.483    0.000    2.483    0.000    0.000 
#    0.000    7.724    0.000    0.000    0.000    0.000 
#
# Total GULP energy -323308.047349 kJ/mol
# GULP energy per Si atom -5574.276678 kJ/mol
# Density = 2.379176 g / cm^3
# Si number density = 23.846037 Si / 1000 Ang^3
#
#
#
# Elastic Constant Matrix: (Units=GPa)
#
#
# Indices 1 2 3 4 5 6 
#
# 1 93.4457 21.5634 16.9446 0.0000 0.0000 0.0000
# 2 21.5634 161.4323 10.8926 0.0000 0.0000 0.0000
# 3 16.9446 10.8926 81.8673 0.0000 0.0000 0.0000
# 4 0.0000 0.0000 0.0000 14.8068 0.0000 0.0000
# 5 0.0000 0.0000 0.0000 0.0000 -165.1497 0.0000
# 6 0.0000 0.0000 0.0000 0.0000 0.0000 339.5593
#
#
#
# Elastic Compliance Matrix: (Units=1/GPa)
#
#
# Indices 1 2 3 4 5 6 
#
# 1 0.011414 -0.001378 -0.002179 0.000000 0.000000 0.000000
# 2 -0.001378 0.006417 -0.000569 0.000000 0.000000 0.000000
# 3 -0.002179 -0.000569 0.012742 0.000000 0.000000 0.000000
# 4 0.000000 0.000000 0.000000 0.067536 0.000000 0.000000
# 5 0.000000 0.000000 0.000000 0.000000 -0.006055 0.000000
# 6 0.000000 0.000000 0.000000 0.000000 0.000000 0.002945
#
#
# Mechanical properties :
#
#
# Convention : Reuss Voigt Hill
#
# Bulk Modulus (GPa) = 44.79895 48.39406 46.59651
# Shear Modulus (GPa) = 45.17078 56.99959 51.08518
#
# Velocity S-wave (km/s) = 4.35704 4.89439 4.63351
# Velocity P-wave (km/s) = 6.64374 7.23039 6.94326
#
# Compressibility (1/GPa) = 0.02232195
#
# Stress axis : x y z
#
# Youngs Moduli (GPa) = 87.60807 155.83757 78.48312
#
# Poissons Ratio (x) = 0.21469 0.17103
# Poissons Ratio (y) = 0.12069 0.04463
# Poissons Ratio (z) = 0.19092 0.08862
#
# Static dielectric constant tensor:
#      x y z
#    x 1.920830 0.000000 0.000000 
#    y 0.000000 1.945510 0.000000 
#    z 0.000000 0.000000 2.020950 
# 
# From -- ./inp_files/14862.got.cif
#   From: 2010.05.17/outbox.cif.g08.bks.cpg/sg67_8_cif.got.tgz:14862.got - 2010.06.03 18:28:57.
