data_PCOD9500277
_publ_section_title
;
Structure prediction by ZEFSAII (Michael W. Deem and Ramdas Pophale) SiO2 
 PCOD9500277
Probable space group: C M M A
;
_chemical_formula_sum "Si O2"
_cell_formula_units_Z 112
_cell_length_a 17.720267
_cell_length_b 18.193045
_cell_length_c 20.419386
_cell_angle_alpha 90.000000
_cell_angle_beta 90.000000
_cell_angle_gamma 90.000000
_cell_volume 6582.916312
_symmetry_space_group_name_H-M "C M M A"
_symmetry_group_IT_number 67
_symmetry_cell_setting 'orthorhombic'
loop_
_space_group_symop_operation_xyz
x,y,z
-x,1/2-y,z
x,-y,-z
-x,1/2+y,-z
-x,-y,-z
x,1/2+y,-z
-x,y,z
x,1/2-y,z
1/2+x,1/2+y,z
1/2-x,-y,z
1/2+x,1/2-y,-z
1/2-x,y,-z
1/2-x,1/2-y,-z
1/2+x,y,-z
1/2-x,1/2+y,z
1/2+x,-y,z
loop_
_atom_site_type_symbol
_atom_site_label
_atom_site_fract_x
_atom_site_fract_y
_atom_site_fract_z
Si Si1 0.766879 0.413099 0.927996
Si Si2 0.915018 0.833671 0.108839
Si Si3 0.776837 0.086013 0.213673
Si Si4 0.338250 0.981576 0.574278
Si Si5 0.382902 0.628925 0.745346
Si Si6 0.913477 0.537283 0.705478
Si Si7 0.913698 0.668463 0.398210
O O1 0.750000 0.500000 0.931189
O O2 0.853574 0.392438 0.914198
O O3 0.722297 0.388056 0.862215
O O4 0.750000 0.381747 0.000000
O O5 0.894357 0.750000 0.089666
O O6 0.912953 0.838335 0.187553
O O7 0.000000 0.848955 0.086119
O O8 0.708298 0.127566 0.249496
O O9 0.854621 0.086503 0.253399
O O10 0.750000 0.000000 0.212660
O O11 0.356741 0.895552 0.582223
O O12 0.359823 0.000000 0.500000
O O13 0.250000 0.000000 0.583638
O O14 0.383817 0.023848 0.631378
O O15 0.408942 0.544136 0.737916
O O16 0.410182 0.668524 0.680541
O O17 0.000000 0.562270 0.706245
O O18 0.896046 0.750000 0.423038
O O19 0.000000 0.649283 0.417224
#
# Coordination Sequence:
#
# PCOD9500277 Si02
#       7
#    16  16  16  16  16  16  16
#     4   9  18  33  49  67  95 132 170 202 238 289
#     4  10  19  30  47  73 102 127 155 198 251 300
#     4   8  15  27  43  64  93 125 158 198 238 284
#     4  10  20  34  50  69  96 132 169 203 242 292
#     4   9  15  26  44  66  96 125 150 184 237 300
#     4  10  17  26  45  71  97 125 160 203 246 288
#     4  10  19  30  47  73 102 125 149 191 246 296
#
# _framework density 17.013736999999999
#
# number of rings (size 3 to 8) (size 9 to 14) (size 15 to 20)
#    0.000    2.571    0.000    6.000    0.000    2.571 
#    0.000    3.571    0.000    0.000    0.000    0.000 
#    0.000   35.429    0.000    0.000    0.000    0.000 
#
# Total GULP energy -311792.224181 kJ/mol
# GULP energy per Si atom -5567.718289 kJ/mol
# Density = 1.697501 g / cm^3
# Si number density = 17.013737 Si / 1000 Ang^3
#
#
#
# Elastic Constant Matrix: (Units=GPa)
#
#
# Indices 1 2 3 4 5 6 
#
# 1 131.1387 42.6647 48.5536 0.0000 0.0000 0.0000
# 2 42.6647 55.0514 10.2766 0.0000 0.0000 0.0000
# 3 48.5536 10.2766 86.7559 0.0000 0.0000 0.0000
# 4 0.0000 0.0000 0.0000 0.3517 0.0000 0.0000
# 5 0.0000 0.0000 0.0000 0.0000 -11.8404 0.0000
# 6 0.0000 0.0000 0.0000 0.0000 0.0000 19.1380
#
#
#
# Elastic Compliance Matrix: (Units=1/GPa)
#
#
# Indices 1 2 3 4 5 6 
#
# 1 0.012714 -0.008718 -0.006083 0.000000 0.000000 0.000000
# 2 -0.008718 0.024553 0.001970 0.000000 0.000000 0.000000
# 3 -0.006083 0.001970 0.014697 0.000000 0.000000 0.000000
# 4 0.000000 0.000000 0.000000 2.842969 0.000000 0.000000
# 5 0.000000 0.000000 0.000000 0.000000 -0.084457 0.000000
# 6 0.000000 0.000000 0.000000 0.000000 0.000000 0.052252
#
#
# Mechanical properties :
#
#
# Convention : Reuss Voigt Hill
#
# Bulk Modulus (GPa) = 38.01621 52.88175 45.44898
# Shear Modulus (GPa) = 1.72583 12.95994 7.34289
#
# Velocity S-wave (km/s) = 1.00825 2.76295 2.07972
# Velocity P-wave (km/s) = 4.87323 6.42867 5.70422
#
# Compressibility (1/GPa) = 0.02630457
#
# Stress axis : x y z
#
# Youngs Moduli (GPa) = 78.65437 40.72784 68.03906
#
# Poissons Ratio (x) = 0.35505 0.41386
# Poissons Ratio (y) = 0.68569 -0.13407
# Poissons Ratio (z) = 0.47843 -0.08025
#
# Static dielectric constant tensor:
#      x y z
#    x 1.586340 0.000000 0.000000 
#    y 0.000000 1.478540 0.000000 
#    z 0.000000 0.000000 1.596040 
# 
# From -- ./inp_files/39055.got.cif
#   From: 2010.05.17/outbox.cif.g08.bks.cpg/sg67_20_cif.got.tgz:39055.got - 2010.06.03 18:28:57.
