data_PCOD9500154
_publ_section_title
;
Structure prediction by ZEFSAII (Michael W. Deem and Ramdas Pophale) SiO2 
 PCOD9500154
Probable space group: C M M A
;
_chemical_formula_sum "Si O2"
_cell_formula_units_Z 128
_cell_length_a 27.123892
_cell_length_b 18.442050
_cell_length_c 17.257377
_cell_angle_alpha 90.000000
_cell_angle_beta 90.000000
_cell_angle_gamma 90.000000
_cell_volume 8632.488099
_symmetry_space_group_name_H-M "C M M A"
_symmetry_group_IT_number 67
_symmetry_cell_setting 'orthorhombic'
loop_
_space_group_symop_operation_xyz
x,y,z
-x,1/2-y,z
x,-y,-z
-x,1/2+y,-z
-x,-y,-z
x,1/2+y,-z
-x,y,z
x,1/2-y,z
1/2+x,1/2+y,z
1/2-x,-y,z
1/2+x,1/2-y,-z
1/2-x,y,-z
1/2-x,1/2-y,-z
1/2+x,y,-z
1/2-x,1/2+y,z
1/2+x,-y,z
loop_
_atom_site_type_symbol
_atom_site_label
_atom_site_fract_x
_atom_site_fract_y
_atom_site_fract_z
Si Si1 0.800484 0.091560 0.164372
Si Si2 0.371245 0.915947 0.488581
Si Si3 0.190629 0.830870 0.989819
Si Si4 0.203772 0.406726 0.622620
Si Si5 0.315129 0.073664 0.660045
Si Si6 0.632702 0.334239 0.266810
Si Si7 0.183935 0.923746 0.136989
Si Si8 0.443375 0.662831 0.602264
O O1 0.819149 0.145821 0.098360
O O2 0.818422 0.101183 0.252226
O O3 0.740429 0.095458 0.163027
O O4 0.816091 0.010454 0.139137
O O5 0.320902 0.905708 0.538339
O O6 0.357754 0.903366 0.399233
O O7 0.412587 0.868498 0.530259
O O8 0.385162 0.000000 0.500000
O O9 0.171920 0.750000 0.006986
O O10 0.250000 0.829071 0.000000
O O11 0.174513 0.890299 0.052410
O O12 0.262198 0.402290 0.626209
O O13 0.188429 0.485340 0.659023
O O14 0.178119 0.345217 0.673668
O O15 0.628386 0.250000 0.243996
O O16 0.646073 0.385808 0.195558
O O17 0.585558 0.356908 0.318484
O O18 0.500000 0.638667 0.602402
O O19 0.442201 0.750000 0.598334
#
# Coordination Sequence:
#
# PCOD9500154 Si02
#       8
#    16  16  16  16  16  16  16  16
#     4  10  17  26  41  59  88 121 152 178 212 250
#     4   9  18  27  46  66  86 112 146 186 212 255
#     4   9  18  28  38  56  85 119 153 185 214 244
#     4   9  15  27  38  60  88 116 148 178 214 248
#     4  10  15  26  41  61  86 120 151 178 207 251
#     4  10  17  26  44  65  83 109 144 184 226 261
#     4  10  16  28  42  61  82 117 153 181 208 259
#     4   9  19  35  49  62  86 114 140 180 233 277
#
# _framework density 14.827707
#
# number of rings (size 3 to 8) (size 9 to 14) (size 15 to 20)
#    0.000    2.500    2.500    1.875    0.000    3.750 
#    0.000    1.250    0.000    3.000    0.000    0.000 
#    0.000    3.000    0.000    3.875    0.000    0.000 
#
# Total GULP energy -356370.351676 kJ/mol
# GULP energy per Si atom -5568.286745 kJ/mol
# Density = 1.479396 g / cm^3
# Si number density = 14.827707 Si / 1000 Ang^3
#
#
#
# Elastic Constant Matrix: (Units=GPa)
#
#
# Indices 1 2 3 4 5 6 
#
# 1 63.2313 24.9512 33.2522 0.0000 0.0000 0.0000
# 2 24.9512 31.7712 25.8335 0.0000 0.0000 0.0000
# 3 33.2522 25.8335 103.0873 0.0000 0.0000 0.0000
# 4 0.0000 0.0000 0.0000 18.6019 0.0000 0.0000
# 5 0.0000 0.0000 0.0000 0.0000 9.3794 0.0000
# 6 0.0000 0.0000 0.0000 0.0000 0.0000 13.0110
#
#
#
# Elastic Compliance Matrix: (Units=1/GPa)
#
#
# Indices 1 2 3 4 5 6 
#
# 1 0.024045 -0.015796 -0.003798 0.000000 0.000000 0.000000
# 2 -0.015796 0.049906 -0.007411 0.000000 0.000000 0.000000
# 3 -0.003798 -0.007411 0.012783 0.000000 0.000000 0.000000
# 4 0.000000 0.000000 0.000000 0.053758 0.000000 0.000000
# 5 0.000000 0.000000 0.000000 0.000000 0.106617 0.000000
# 6 0.000000 0.000000 0.000000 0.000000 0.000000 0.076858
#
#
# Mechanical properties :
#
#
# Convention : Reuss Voigt Hill
#
# Bulk Modulus (GPa) = 30.55788 40.68484 35.62136
# Shear Modulus (GPa) = 12.85729 15.80197 14.32963
#
# Velocity S-wave (km/s) = 2.94787 3.26806 3.11208
# Velocity P-wave (km/s) = 5.67803 6.46051 6.08187
#
# Compressibility (1/GPa) = 0.03272479
#
# Stress axis : x y z
#
# Youngs Moduli (GPa) = 41.58857 20.03760 78.23022
#
# Poissons Ratio (x) = 0.31651 0.29710
# Poissons Ratio (y) = 0.65692 0.57979
# Poissons Ratio (z) = 0.15794 0.14851
#
# Static dielectric constant tensor:
#      x y z
#    x 1.467160 0.000000 0.000000 
#    y 0.000000 1.504260 0.000000 
#    z 0.000000 0.000000 1.515750 
# 
# From -- ./inp_files/35663.got.cif
#   From: 2010.05.17/outbox.cif.g08.bks.cpg/sg67_18_cif.got.tgz:35663.got - 2010.06.03 18:28:57.
