data_PCOD9500776
_publ_section_title
;
Structure prediction by ZEFSAII (Michael W. Deem and Ramdas Pophale) SiO2 
 PCOD9500776
Probable space group: C M M A
;
_chemical_formula_sum "Si O2"
_cell_formula_units_Z 112
_cell_length_a 14.372654
_cell_length_b 20.599909
_cell_length_c 17.730056
_cell_angle_alpha 90.000000
_cell_angle_beta 90.000000
_cell_angle_gamma 90.000000
_cell_volume 5249.432793
_symmetry_space_group_name_H-M "C M M A"
_symmetry_group_IT_number 67
_symmetry_cell_setting 'orthorhombic'
loop_
_space_group_symop_operation_xyz
x,y,z
-x,1/2-y,z
x,-y,-z
-x,1/2+y,-z
-x,-y,-z
x,1/2+y,-z
-x,y,z
x,1/2-y,z
1/2+x,1/2+y,z
1/2-x,-y,z
1/2+x,1/2-y,-z
1/2-x,y,-z
1/2-x,1/2-y,-z
1/2+x,y,-z
1/2-x,1/2+y,z
1/2+x,-y,z
loop_
_atom_site_type_symbol
_atom_site_label
_atom_site_fract_x
_atom_site_fract_y
_atom_site_fract_z
Si Si1 0.153723 0.396889 0.033943
Si Si2 0.113718 0.085603 0.314769
Si Si3 0.605649 0.527059 0.891866
Si Si4 0.890402 0.678062 0.819360
Si Si5 0.886540 0.323597 0.450710
Si Si6 0.113433 0.058319 0.725959
Si Si7 0.886190 0.176642 0.623733
O O1 0.161912 0.464535 0.080125
O O2 0.117319 0.346544 0.094849
O O3 0.250000 0.373234 0.000000
O O4 0.100940 0.420652 0.958938
O O5 0.145036 0.125284 0.240623
O O6 0.143748 0.124102 0.389368
O O7 0.000000 0.085032 0.314942
O O8 0.141802 0.010686 0.309226
O O9 0.500000 0.501731 0.879108
O O10 0.640060 0.556818 0.813912
O O11 0.849115 0.750000 0.809946
O O12 0.000000 0.682926 0.802765
O O13 0.858591 0.250000 0.429774
O O14 0.857599 0.335743 0.536994
O O15 0.000000 0.324177 0.450598
O O16 0.146372 0.120367 0.679440
O O17 0.000000 0.060740 0.724415
O O18 0.858183 0.250000 0.644701
O O19 0.000000 0.175988 0.624075
#
# Coordination Sequence:
#
# PCOD9500776 Si02
#       7
#    16  16  16  16  16  16  16
#     4  11  21  33  50  72  97 127 163 202 256 307
#     4   9  15  24  39  63  90 121 166 207 243 287
#     4  10  18  32  52  71  94 124 165 208 248 297
#     4  10  19  32  50  71  98 133 170 209 253 297
#     4   8  13  21  34  54  86 127 163 195 237 292
#     4   9  16  25  41  63  88 121 161 206 246 284
#     4   8  14  24  36  55  88 128 162 193 240 296
#
# _framework density 21.335637999999999
#
# number of rings (size 3 to 8) (size 9 to 14) (size 15 to 20)
#    0.000    2.714    1.429    3.857    0.000    2.571 
#    0.000    3.571    0.000    2.571    0.000    0.000 
#    0.000    1.143    0.857    4.571    1.714    4.286 
#
# Total GULP energy -312596.386587 kJ/mol
# GULP energy per Si atom -5582.078332 kJ/mol
# Density = 2.128708 g / cm^3
# Si number density = 21.335638 Si / 1000 Ang^3
#
#
#
# Elastic Constant Matrix: (Units=GPa)
#
#
# Indices 1 2 3 4 5 6 
#
# 1 39.6283 5.8730 2.2753 0.0000 0.0000 0.0000
# 2 5.8730 162.9819 116.5122 0.0000 0.0000 0.0000
# 3 2.2753 116.5122 164.6356 0.0000 0.0000 0.0000
# 4 0.0000 0.0000 0.0000 10.2978 0.0000 0.0000
# 5 0.0000 0.0000 0.0000 0.0000 5.4198 0.0000
# 6 0.0000 0.0000 0.0000 0.0000 0.0000 3.6696
#
#
#
# Elastic Compliance Matrix: (Units=1/GPa)
#
#
# Indices 1 2 3 4 5 6 
#
# 1 0.025399 -0.001345 0.000601 0.000000 0.000000 0.000000
# 2 -0.001345 0.012489 -0.008820 0.000000 0.000000 0.000000
# 3 0.000601 -0.008820 0.012308 0.000000 0.000000 0.000000
# 4 0.000000 0.000000 0.000000 0.097108 0.000000 0.000000
# 5 0.000000 0.000000 0.000000 0.000000 0.184510 0.000000
# 6 0.000000 0.000000 0.000000 0.000000 0.000000 0.272512
#
#
# Mechanical properties :
#
#
# Convention : Reuss Voigt Hill
#
# Bulk Modulus (GPa) = 32.18739 68.50741 50.34740
# Shear Modulus (GPa) = 7.88878 20.04978 13.96928
#
# Velocity S-wave (km/s) = 1.92497 3.06883 2.56156
# Velocity P-wave (km/s) = 4.47880 6.68850 5.69191
#
# Compressibility (1/GPa) = 0.03106807
#
# Stress axis : x y z
#
# Youngs Moduli (GPa) = 39.37116 80.06761 81.24977
#
# Poissons Ratio (x) = 0.10766 -0.04879
# Poissons Ratio (y) = 0.05294 0.71664
# Poissons Ratio (z) = -0.02364 0.70621
#
# Static dielectric constant tensor:
#      x y z
#    x 1.862690 0.000000 0.000000 
#    y 0.000000 1.739900 0.000000 
#    z 0.000000 0.000000 1.744460 
# 
# From -- ./inp_files/34453.got.cif
#   From: 2010.05.17/outbox.cif.g08.bks.cpg/sg67_18_cif.got.tgz:34453.got - 2010.06.03 18:28:57.
