data_PCOD9500954
_publ_section_title
;
Structure prediction by ZEFSAII (Michael W. Deem and Ramdas Pophale) SiO2 
 PCOD9500954
Probable space group: C M M A
;
_chemical_formula_sum "Si O2"
_cell_formula_units_Z 112
_cell_length_a 15.102426
_cell_length_b 27.948137
_cell_length_c 15.308616
_cell_angle_alpha 90.000000
_cell_angle_beta 90.000000
_cell_angle_gamma 90.000000
_cell_volume 6461.532146
_symmetry_space_group_name_H-M "C M M A"
_symmetry_group_IT_number 67
_symmetry_cell_setting 'orthorhombic'
loop_
_space_group_symop_operation_xyz
x,y,z
-x,1/2-y,z
x,-y,-z
-x,1/2+y,-z
-x,-y,-z
x,1/2+y,-z
-x,y,z
x,1/2-y,z
1/2+x,1/2+y,z
1/2-x,-y,z
1/2+x,1/2-y,-z
1/2-x,y,-z
1/2-x,1/2-y,-z
1/2+x,y,-z
1/2-x,1/2+y,z
1/2+x,-y,z
loop_
_atom_site_type_symbol
_atom_site_label
_atom_site_fract_x
_atom_site_fract_y
_atom_site_fract_z
Si Si1 0.400234 0.950229 0.447534
Si Si2 0.000000 0.307296 0.164077
Si Si3 0.000000 0.307482 0.956053
Si Si4 0.726082 0.693787 0.602191
Si Si5 0.760476 0.053549 0.291806
Si Si6 0.694975 0.807834 0.912730
Si Si7 0.318637 0.151199 0.764031
Si Si8 0.397650 0.390963 0.380063
O O1 0.500000 0.945929 0.409633
O O2 0.323502 0.950032 0.376818
O O3 0.388458 0.909553 0.520390
O O4 0.396623 0.000000 0.500000
O O5 0.913044 0.330386 0.205095
O O6 0.000000 0.250000 0.178111
O O7 0.000000 0.315463 0.060039
O O8 0.093408 0.325153 0.918201
O O9 0.000000 0.250000 0.943624
O O10 0.717452 0.750000 0.621631
O O11 0.750000 0.688684 0.500000
O O12 0.798642 0.669926 0.666063
O O13 0.638673 0.662898 0.622449
O O14 0.806503 0.094114 0.233467
O O15 0.666691 0.075857 0.322169
O O16 0.750000 0.000000 0.256036
O O17 0.694681 0.750000 0.910767
O O18 0.745543 0.826371 0.828156
O O19 0.750000 0.821563 0.000000
O O20 0.500000 0.395244 0.355151
#
# Coordination Sequence:
#
# PCOD9500954 Si02
#       8
#    16   8   8  16  16  16  16  16
#     4  10  19  32  57  82 100 133 188 257 316 346
#     4  11  20  36  62  96 127 151 187 248 314 371
#     4   9  18  32  60  94 120 149 188 240 306 367
#     4  10  21  39  56  74 113 166 206 234 271 340
#     4  11  22  36  55  77 112 150 192 244 298 345
#     4  10  18  34  60  90 121 150 188 240 301 365
#     4  11  23  37  59  89 120 158 198 245 301 359
#     4  10  20  34  52  77 103 137 189 246 299 341
#
# _framework density 17.333349999999999
#
# number of rings (size 3 to 8) (size 9 to 14) (size 15 to 20)
#    0.000    1.714    2.857    3.429    1.000    0.286 
#    6.429    0.000    0.000    0.429    0.000    1.000 
#    0.000    0.000    0.000    0.000    0.000    0.000 
#
# Total GULP energy -312530.917462 kJ/mol
# GULP energy per Si atom -5580.909240 kJ/mol
# Density = 1.729390 g / cm^3
# Si number density = 17.333350 Si / 1000 Ang^3
#
#
#
# Elastic Constant Matrix: (Units=GPa)
#
#
# Indices 1 2 3 4 5 6 
#
# 1 140.3256 43.7589 32.9274 0.0000 0.0000 0.0000
# 2 43.7589 108.7290 13.8944 0.0000 0.0000 0.0000
# 3 32.9274 13.8944 46.7442 0.0000 0.0000 0.0000
# 4 0.0000 0.0000 0.0000 5.1383 0.0000 0.0000
# 5 0.0000 0.0000 0.0000 0.0000 -64.9279 0.0000
# 6 0.0000 0.0000 0.0000 0.0000 0.0000 20.4872
#
#
#
# Elastic Compliance Matrix: (Units=1/GPa)
#
#
# Indices 1 2 3 4 5 6 
#
# 1 0.009425 -0.003061 -0.005729 0.000000 0.000000 0.000000
# 2 -0.003061 0.010555 -0.000981 0.000000 0.000000 0.000000
# 3 -0.005729 -0.000981 0.025721 0.000000 0.000000 0.000000
# 4 0.000000 0.000000 0.000000 0.194619 0.000000 0.000000
# 5 0.000000 0.000000 0.000000 0.000000 -0.015402 0.000000
# 6 0.000000 0.000000 0.000000 0.000000 0.000000 0.048811
#
#
# Mechanical properties :
#
#
# Convention : Reuss Voigt Hill
#
# Bulk Modulus (GPa) = 38.23020 52.99555 45.61288
# Shear Modulus (GPa) = 16.55682 5.82071 11.18877
#
# Velocity S-wave (km/s) = 3.09398 1.83450 2.54344
# Velocity P-wave (km/s) = 5.90486 5.92688 5.91588
#
# Compressibility (1/GPa) = 0.02615733
#
# Stress axis : x y z
#
# Youngs Moduli (GPa) = 106.09783 94.74630 38.87945
#
# Poissons Ratio (x) = 0.29003 0.22276
# Poissons Ratio (y) = 0.32478 0.03814
# Poissons Ratio (z) = 0.60788 0.09294
#
# Static dielectric constant tensor:
#      x y z
#    x 1.600320 0.000000 0.000000 
#    y 0.000000 1.598560 0.000000 
#    z 0.000000 0.000000 1.576210 
# 
# From -- ./inp_files/27781.got.cif
#   From: 2010.05.17/outbox.cif.g08.bks.cpg/sg67_14_cif.got.tgz:27781.got - 2010.06.03 18:28:57.
