data_PCOD9500998
_publ_section_title
;
Structure prediction by ZEFSAII (Michael W. Deem and Ramdas Pophale) SiO2 
 PCOD9500998
Probable space group: C M M A
;
_chemical_formula_sum "Si O2"
_cell_formula_units_Z 44
_cell_length_a 19.482243
_cell_length_b 13.306683
_cell_length_c 8.037684
_cell_angle_alpha 90.000000
_cell_angle_beta 90.000000
_cell_angle_gamma 90.000000
_cell_volume 2083.721606
_symmetry_space_group_name_H-M "C M M A"
_symmetry_group_IT_number 67
_symmetry_cell_setting 'orthorhombic'
loop_
_space_group_symop_operation_xyz
x,y,z
-x,1/2-y,z
x,-y,-z
-x,1/2+y,-z
-x,-y,-z
x,1/2+y,-z
-x,y,z
x,1/2-y,z
1/2+x,1/2+y,z
1/2-x,-y,z
1/2+x,1/2-y,-z
1/2-x,y,-z
1/2-x,1/2-y,-z
1/2+x,y,-z
1/2-x,1/2+y,z
1/2+x,-y,z
loop_
_atom_site_type_symbol
_atom_site_label
_atom_site_fract_x
_atom_site_fract_y
_atom_site_fract_z
Si Si1 0.500000 0.371144 0.726258
Si Si2 0.230853 0.250000 0.302133
Si Si3 0.881871 0.250000 0.845378
Si Si4 0.500000 0.750000 0.585027
Si Si5 0.137178 0.588791 0.887457
O O1 0.500000 0.250000 0.785934
O O2 0.500000 0.348150 0.531052
O O3 0.431557 0.429303 0.780522
O O4 0.250000 0.250000 0.500000
O O5 0.303328 0.250000 0.210806
O O6 0.188036 0.346449 0.231286
O O7 0.932377 0.250000 0.693351
O O8 0.892315 0.157001 0.964937
O O9 0.168559 0.500000 0.000000
#
# Coordination Sequence:
#
# PCOD9500998 Si02
#       5
#     8   8   8   4  16
#     4  10  18  38  63  86 128 168 213 265 342 389
#     4  11  23  42  64  89 129 178 221 277 348 402
#     4  11  21  38  62  87 124 170 220 275 348 398
#     4  10  20  38  64  90 128 174 216 280 330 400
#     4  11  22  39  64  95 126 170 227 281 330 407
#
# _framework density 21.116066
#
# number of rings (size 3 to 8) (size 9 to 14) (size 15 to 20)
#    0.545    0.727    3.636    6.000    0.000    2.909 
#    0.000   10.909    0.000    0.000    0.000    0.000 
#    0.000    0.000    0.000    0.000    0.000    0.000 
#
# Total GULP energy -122518.216859 kJ/mol
# GULP energy per Si atom -5569.009857 kJ/mol
# Density = 2.106800 g / cm^3
# Si number density = 21.116066 Si / 1000 Ang^3
#
#
#
# Elastic Constant Matrix: (Units=GPa)
#
#
# Indices 1 2 3 4 5 6 
#
# 1 160.0991 4.7288 61.8012 0.0000 0.0000 0.0000
# 2 4.7288 64.7728 34.4783 0.0000 0.0000 0.0000
# 3 61.8012 34.4783 156.7808 0.0000 0.0000 0.0000
# 4 0.0000 0.0000 0.0000 341.3061 0.0000 0.0000
# 5 0.0000 0.0000 0.0000 0.0000 55.2394 0.0000
# 6 0.0000 0.0000 0.0000 0.0000 0.0000 9.5183
#
#
#
# Elastic Compliance Matrix: (Units=1/GPa)
#
#
# Indices 1 2 3 4 5 6 
#
# 1 0.007442 0.001153 -0.003187 0.000000 0.000000 0.000000
# 2 0.001153 0.017664 -0.004339 0.000000 0.000000 0.000000
# 3 -0.003187 -0.004339 0.008589 0.000000 0.000000 0.000000
# 4 0.000000 0.000000 0.000000 0.002930 0.000000 0.000000
# 5 0.000000 0.000000 0.000000 0.000000 0.018103 0.000000
# 6 0.000000 0.000000 0.000000 0.000000 0.000000 0.105060
#
#
# Mechanical properties :
#
#
# Convention : Reuss Voigt Hill
#
# Bulk Modulus (GPa) = 47.73495 64.85214 56.29355
# Shear Modulus (GPa) = 27.85228 99.92239 63.88734
#
# Velocity S-wave (km/s) = 3.63576 6.88646 5.50645
# Velocity P-wave (km/s) = 6.34666 9.69587 8.19420
#
# Compressibility (1/GPa) = 0.02094901
#
# Stress axis : x y z
#
# Youngs Moduli (GPa) = 134.36460 56.61196 116.42812
#
# Poissons Ratio (x) = -0.06529 0.37110
# Poissons Ratio (y) = -0.15496 0.50520
# Poissons Ratio (z) = 0.42827 0.24565
#
# Static dielectric constant tensor:
#      x y z
#    x 1.776120 0.000000 0.000000 
#    y 0.000000 2.058590 0.000000 
#    z 0.000000 0.000000 1.942080 
# 
# From -- ./inp_files/7292.got.cif
#   From: 2010.05.17/outbox.cif.g08.bks.cpg/sg67_4_cif.got.tgz:7292.got - 2010.06.03 18:28:57.
