data_PCOD9500670
_publ_section_title
;
Structure prediction by ZEFSAII (Michael W. Deem and Ramdas Pophale) SiO2 
 PCOD9500670
Probable space group: C M M A
;
_chemical_formula_sum "Si O2"
_cell_formula_units_Z 80
_cell_length_a 26.736449
_cell_length_b 8.825242
_cell_length_c 18.495860
_cell_angle_alpha 90.000000
_cell_angle_beta 90.000000
_cell_angle_gamma 90.000000
_cell_volume 4364.202348
_symmetry_space_group_name_H-M "C M M A"
_symmetry_group_IT_number 67
_symmetry_cell_setting 'orthorhombic'
loop_
_space_group_symop_operation_xyz
x,y,z
-x,1/2-y,z
x,-y,-z
-x,1/2+y,-z
-x,-y,-z
x,1/2+y,-z
-x,y,z
x,1/2-y,z
1/2+x,1/2+y,z
1/2-x,-y,z
1/2+x,1/2-y,-z
1/2-x,y,-z
1/2-x,1/2-y,-z
1/2+x,y,-z
1/2-x,1/2+y,z
1/2+x,-y,z
loop_
_atom_site_type_symbol
_atom_site_label
_atom_site_fract_x
_atom_site_fract_y
_atom_site_fract_z
Si Si1 0.000000 0.569095 0.822548
Si Si2 0.198010 0.568884 0.419666
Si Si3 0.301580 0.928964 0.920527
Si Si4 0.395220 0.571852 0.338266
Si Si5 0.609590 0.074184 0.835974
Si Si6 0.500000 0.929344 0.664639
O O1 0.947325 0.541902 0.861470
O O2 0.000000 0.750000 0.801322
O O3 0.000000 0.468986 0.750280
O O4 0.192372 0.500000 0.500000
O O5 0.201509 0.750000 0.423305
O O6 0.250000 0.500000 0.389996
O O7 0.150688 0.516245 0.373522
O O8 0.295755 0.750000 0.926939
O O9 0.250000 0.000000 0.890991
O O10 0.348647 0.971371 0.871529
O O11 0.309054 0.000000 0.000000
O O12 0.392665 0.750000 0.356056
O O13 0.391679 0.558259 0.251041
O O14 0.448605 0.504259 0.362759
O O15 0.621080 0.250000 0.852663
O O16 0.500000 0.750000 0.653097
#
# Coordination Sequence:
#
# PCOD9500670 Si02
#       6
#     8  16  16  16  16   8
#     4   8  16  32  53  76 107 144 174 210 261 314
#     4  11  22  38  58  80 108 143 181 221 268 321
#     4  11  22  37  56  76 103 138 176 217 265 317
#     4  10  20  36  57  81 110 144 180 221 266 314
#     4   9  18  34  56  81 108 138 175 216 260 309
#     4  10  18  30  51  80 111 142 177 218 265 318
#
# _framework density 18.330954999999999
#
# number of rings (size 3 to 8) (size 9 to 14) (size 15 to 20)
#    0.000    2.000    0.000    7.500    0.000    4.800 
#    0.000    1.000    0.000    0.000    0.000    0.000 
#    0.000    0.000    0.000    0.000    0.000    0.000 
#
# Total GULP energy -223246.403159 kJ/mol
# GULP energy per Si atom -5581.160079 kJ/mol
# Density = 1.828923 g / cm^3
# Si number density = 18.330955 Si / 1000 Ang^3
#
#
#
# Elastic Constant Matrix: (Units=GPa)
#
#
# Indices 1 2 3 4 5 6 
#
# 1 169.9865 89.8734 36.1517 0.0000 0.0000 0.0000
# 2 89.8734 167.6271 29.3817 0.0000 0.0000 0.0000
# 3 36.1517 29.3817 14.3757 0.0000 0.0000 0.0000
# 4 0.0000 0.0000 0.0000 23.5010 0.0000 0.0000
# 5 0.0000 0.0000 0.0000 0.0000 80.9158 0.0000
# 6 0.0000 0.0000 0.0000 0.0000 0.0000 34.6544
#
#
#
# Elastic Compliance Matrix: (Units=1/GPa)
#
#
# Indices 1 2 3 4 5 6 
#
# 1 0.013038 -0.001937 -0.028828 0.000000 0.000000 0.000000
# 2 -0.001937 0.009584 -0.014715 0.000000 0.000000 0.000000
# 3 -0.028828 -0.014715 0.172135 0.000000 0.000000 0.000000
# 4 0.000000 0.000000 0.000000 0.042551 0.000000 0.000000
# 5 0.000000 0.000000 0.000000 0.000000 0.012359 0.000000
# 6 0.000000 0.000000 0.000000 0.000000 0.000000 0.028856
#
#
# Mechanical properties :
#
#
# Convention : Reuss Voigt Hill
#
# Bulk Modulus (GPa) = 9.63445 73.64476 41.63960
# Shear Modulus (GPa) = 12.37368 40.91974 26.64671
#
# Velocity S-wave (km/s) = 2.60093 4.72982 3.81681
# Velocity P-wave (km/s) = 3.77981 8.37201 6.49529
#
# Compressibility (1/GPa) = 0.10379422
#
# Stress axis : x y z
#
# Youngs Moduli (GPa) = 76.69789 104.34405 5.80940
#
# Poissons Ratio (x) = 0.20215 0.16748
# Poissons Ratio (y) = 0.14859 0.08549
# Poissons Ratio (z) = 2.21107 1.53547
#
# Static dielectric constant tensor:
#      x y z
#    x 1.652400 0.000000 0.000000 
#    y 0.000000 1.612770 0.000000 
#    z 0.000000 0.000000 1.616270 
# 
# From -- ./inp_files/35780.got.cif
#   From: 2010.05.17/outbox.cif.g08.bks.cpg/sg67_18_cif.got.tgz:35780.got - 2010.06.03 18:28:57.
