data_PCOD9500550
_publ_section_title
;
Structure prediction by ZEFSAII (Michael W. Deem and Ramdas Pophale) SiO2 
 PCOD9500550
Probable space group: C M M A
;
_chemical_formula_sum "Si O2"
_cell_formula_units_Z 96
_cell_length_a 18.855216
_cell_length_b 14.843772
_cell_length_c 16.129632
_cell_angle_alpha 90.000000
_cell_angle_beta 90.000000
_cell_angle_gamma 90.000000
_cell_volume 4514.402169
_symmetry_space_group_name_H-M "C M M A"
_symmetry_group_IT_number 67
_symmetry_cell_setting 'orthorhombic'
loop_
_space_group_symop_operation_xyz
x,y,z
-x,1/2-y,z
x,-y,-z
-x,1/2+y,-z
-x,-y,-z
x,1/2+y,-z
-x,y,z
x,1/2-y,z
1/2+x,1/2+y,z
1/2-x,-y,z
1/2+x,1/2-y,-z
1/2-x,y,-z
1/2-x,1/2-y,-z
1/2+x,y,-z
1/2-x,1/2+y,z
1/2+x,-y,z
loop_
_atom_site_type_symbol
_atom_site_label
_atom_site_fract_x
_atom_site_fract_y
_atom_site_fract_z
Si Si1 0.350951 0.148398 0.535638
Si Si2 0.914951 0.478371 0.143354
Si Si3 0.326451 0.146148 0.193735
Si Si4 0.916601 0.648443 0.703131
Si Si5 0.697398 0.355456 0.922972
Si Si6 0.288523 0.594204 0.624186
O O1 0.370772 0.250000 0.510853
O O2 0.401657 0.117864 0.609619
O O3 0.343011 0.090555 0.452563
O O4 0.275511 0.150833 0.583840
O O5 0.882588 0.577332 0.154696
O O6 0.895894 0.423985 0.228391
O O7 0.869968 0.420800 0.077036
O O8 0.000000 0.478155 0.130822
O O9 0.342782 0.250000 0.173665
O O10 0.248785 0.126523 0.155426
O O11 0.320886 0.132854 0.292450
O O12 0.885177 0.750000 0.714747
O O13 0.000000 0.657652 0.713721
O O14 0.675731 0.250000 0.921778
O O15 0.750000 0.369449 0.000000
O O16 0.250000 0.500000 0.641793
#
# Coordination Sequence:
#
# PCOD9500550 Si02
#       6
#    16  16  16  16  16  16
#     4  10  18  29  47  75 110 146 192 250 314 375
#     4  11  23  39  63  94 127 164 204 251 309 369
#     4  11  23  40  61  85 120 166 214 261 311 368
#     4   9  18  33  54  82 116 153 196 248 306 370
#     4  10  22  42  69  99 127 156 195 247 305 367
#     4  11  20  31  51  77 106 146 200 259 312 363
#
# _framework density 21.265274000000002
#
# number of rings (size 3 to 8) (size 9 to 14) (size 15 to 20)
#    0.000    1.667    0.000    7.000    0.000    5.333 
#    0.000    2.500    0.000    9.000    0.000    0.000 
#    0.000    0.000    0.000    0.000    0.000    0.000 
#
# Total GULP energy -268067.808996 kJ/mol
# GULP energy per Si atom -5584.746021 kJ/mol
# Density = 2.121687 g / cm^3
# Si number density = 21.265274 Si / 1000 Ang^3
#
#
#
# Elastic Constant Matrix: (Units=GPa)
#
#
# Indices 1 2 3 4 5 6 
#
# 1 99.9202 70.5556 31.6579 0.0000 0.0000 0.0000
# 2 70.5556 121.3438 22.3603 0.0000 0.0000 0.0000
# 3 31.6579 22.3603 62.8873 0.0000 0.0000 0.0000
# 4 0.0000 0.0000 0.0000 25.3692 0.0000 0.0000
# 5 0.0000 0.0000 0.0000 0.0000 26.3919 0.0000
# 6 0.0000 0.0000 0.0000 0.0000 0.0000 20.6856
#
#
#
# Elastic Compliance Matrix: (Units=1/GPa)
#
#
# Indices 1 2 3 4 5 6 
#
# 1 0.018878 -0.009872 -0.005993 0.000000 0.000000 0.000000
# 2 -0.009872 0.013981 -0.000002 0.000000 0.000000 0.000000
# 3 -0.005993 -0.000002 0.018919 0.000000 0.000000 0.000000
# 4 0.000000 0.000000 0.000000 0.039418 0.000000 0.000000
# 5 0.000000 0.000000 0.000000 0.000000 0.037890 0.000000
# 6 0.000000 0.000000 0.000000 0.000000 0.000000 0.048343
#
#
# Mechanical properties :
#
#
# Convention : Reuss Voigt Hill
#
# Bulk Modulus (GPa) = 49.88853 59.25543 54.57198
# Shear Modulus (GPa) = 23.16487 25.12784 24.14636
#
# Velocity S-wave (km/s) = 3.30408 3.44122 3.37335
# Velocity P-wave (km/s) = 6.16984 6.61171 6.39459
#
# Compressibility (1/GPa) = 0.02004469
#
# Stress axis : x y z
#
# Youngs Moduli (GPa) = 52.97285 71.52321 52.85712
#
# Poissons Ratio (x) = 0.70608 0.31677
# Poissons Ratio (y) = 0.52295 0.00009
# Poissons Ratio (z) = 0.31746 0.00012
#
# Static dielectric constant tensor:
#      x y z
#    x 1.775090 0.000000 0.000000 
#    y 0.000000 1.825060 0.000000 
#    z 0.000000 0.000000 1.854680 
# 
# From -- ./inp_files/29257.got.cif
#   From: 2010.05.17/outbox.cif.g08.bks.cpg/sg67_15_cif.got.tgz:29257.got - 2010.06.03 18:28:57.
