data_PCOD9500400
_publ_section_title
;
Structure prediction by ZEFSAII (Michael W. Deem and Ramdas Pophale) SiO2 
 PCOD9500400
Probable space group: C M M A
;
_chemical_formula_sum "Si O2"
_cell_formula_units_Z 88
_cell_length_a 14.475213
_cell_length_b 21.198904
_cell_length_c 12.236433
_cell_angle_alpha 90.000000
_cell_angle_beta 90.000000
_cell_angle_gamma 90.000000
_cell_volume 3754.855321
_symmetry_space_group_name_H-M "C M M A"
_symmetry_group_IT_number 67
_symmetry_cell_setting 'orthorhombic'
loop_
_space_group_symop_operation_xyz
x,y,z
-x,1/2-y,z
x,-y,-z
-x,1/2+y,-z
-x,-y,-z
x,1/2+y,-z
-x,y,z
x,1/2-y,z
1/2+x,1/2+y,z
1/2-x,-y,z
1/2+x,1/2-y,-z
1/2-x,y,-z
1/2-x,1/2-y,-z
1/2+x,y,-z
1/2-x,1/2+y,z
1/2+x,-y,z
loop_
_atom_site_type_symbol
_atom_site_label
_atom_site_fract_x
_atom_site_fract_y
_atom_site_fract_z
Si Si1 0.612285 0.641028 0.990065
Si Si2 0.897722 0.355279 0.678677
Si Si3 0.826919 0.750000 0.175463
Si Si4 0.850522 0.821906 0.552988
Si Si5 0.887976 0.107869 0.224664
Si Si6 0.889533 0.530915 0.165702
O O1 0.500000 0.644616 0.982545
O O2 0.636920 0.648051 0.117105
O O3 0.655004 0.694914 0.916572
O O4 0.640085 0.572932 0.938636
O O5 0.828456 0.304605 0.728138
O O6 0.902675 0.353424 0.548940
O O7 0.878234 0.422951 0.730564
O O8 0.000000 0.334963 0.721547
O O9 0.882880 0.750000 0.573961
O O10 0.750000 0.819092 0.500000
O O11 0.855828 0.862796 0.662106
O O12 0.000000 0.105998 0.230655
O O13 0.852169 0.037746 0.195685
O O14 0.000000 0.521579 0.148394
#
# Coordination Sequence:
#
# PCOD9500400 Si02
#       6
#    16  16   8  16  16  16
#     4   9  16  27  50  85 123 146 169 220 281 335
#     4  10  18  33  59  82 106 141 187 228 267 329
#     4  10  17  28  51  85 110 137 182 227 267 318
#     4  11  25  41  54  73 110 149 189 237 288 327
#     4  10  20  34  56  84 115 147 183 227 280 340
#     4   8  16  31  53  86 118 144 173 219 278 332
#
# _framework density 23.436321
#
# number of rings (size 3 to 8) (size 9 to 14) (size 15 to 20)
#    0.000    2.364    0.909    3.818    1.273    4.000 
#    0.000    4.545    0.000    5.455    0.000    5.091 
#    0.000    0.000    0.000    0.000    0.000    0.727 
#
# Total GULP energy -245006.090721 kJ/mol
# GULP energy per Si atom -5568.320244 kJ/mol
# Density = 2.338298 g / cm^3
# Si number density = 23.436321 Si / 1000 Ang^3
#
#
#
# Elastic Constant Matrix: (Units=GPa)
#
#
# Indices 1 2 3 4 5 6 
#
# 1 64.7617 8.0831 15.5180 0.0000 0.0000 0.0000
# 2 8.0831 82.1655 78.2874 0.0000 0.0000 0.0000
# 3 15.5180 78.2874 248.9085 0.0000 0.0000 0.0000
# 4 0.0000 0.0000 0.0000 11.2648 0.0000 0.0000
# 5 0.0000 0.0000 0.0000 0.0000 12.6555 0.0000
# 6 0.0000 0.0000 0.0000 0.0000 0.0000 7.1991
#
#
#
# Elastic Compliance Matrix: (Units=1/GPa)
#
#
# Indices 1 2 3 4 5 6 
#
# 1 0.015719 -0.000875 -0.000705 0.000000 0.000000 0.000000
# 2 -0.000875 0.017427 -0.005427 0.000000 0.000000 0.000000
# 3 -0.000705 -0.005427 0.005768 0.000000 0.000000 0.000000
# 4 0.000000 0.000000 0.000000 0.088772 0.000000 0.000000
# 5 0.000000 0.000000 0.000000 0.000000 0.079017 0.000000
# 6 0.000000 0.000000 0.000000 0.000000 0.000000 0.138907
#
#
# Mechanical properties :
#
#
# Convention : Reuss Voigt Hill
#
# Bulk Modulus (GPa) = 40.15733 66.62363 53.39048
# Shear Modulus (GPa) = 13.58976 25.82035 19.70505
#
# Velocity S-wave (km/s) = 2.41064 3.32282 2.90279
# Velocity P-wave (km/s) = 4.99200 6.57349 5.83656
#
# Compressibility (1/GPa) = 0.02490206
#
# Stress axis : x y z
#
# Youngs Moduli (GPa) = 63.61598 57.38154 173.36098
#
# Poissons Ratio (x) = 0.05020 0.12219
# Poissons Ratio (y) = 0.05565 0.94078
# Poissons Ratio (z) = 0.04484 0.31139
#
# Static dielectric constant tensor:
#      x y z
#    x 2.060190 0.000000 0.000000 
#    y 0.000000 1.839760 0.000000 
#    z 0.000000 0.000000 1.857250 
# 
# From -- ./inp_files/19438.got.cif
#   From: 2010.05.17/outbox.cif.g08.bks.cpg/sg67_10_cif.got.tgz:19438.got - 2010.06.03 18:28:57.
