data_PCOD9500463
_publ_section_title
;
Structure prediction by ZEFSAII (Michael W. Deem and Ramdas Pophale) SiO2 
 PCOD9500463
Probable space group: C M M A
;
_chemical_formula_sum "Si O2"
_cell_formula_units_Z 104
_cell_length_a 31.472012
_cell_length_b 7.781839
_cell_length_c 20.716464
_cell_angle_alpha 90.000000
_cell_angle_beta 90.000000
_cell_angle_gamma 90.000000
_cell_volume 5073.671899
_symmetry_space_group_name_H-M "C M M A"
_symmetry_group_IT_number 67
_symmetry_cell_setting 'orthorhombic'
loop_
_space_group_symop_operation_xyz
x,y,z
-x,1/2-y,z
x,-y,-z
-x,1/2+y,-z
-x,-y,-z
x,1/2+y,-z
-x,y,z
x,1/2-y,z
1/2+x,1/2+y,z
1/2-x,-y,z
1/2+x,1/2-y,-z
1/2-x,y,-z
1/2-x,1/2-y,-z
1/2+x,y,-z
1/2-x,1/2+y,z
1/2+x,-y,z
loop_
_atom_site_type_symbol
_atom_site_label
_atom_site_fract_x
_atom_site_fract_y
_atom_site_fract_z
Si Si1 0.670926 0.956517 0.575111
Si Si2 0.500000 0.044442 0.426911
Si Si3 0.450859 0.541387 0.782547
Si Si4 0.703598 0.456739 0.290687
Si Si5 0.201546 0.452117 0.074833
Si Si6 0.862608 0.048395 0.815783
Si Si7 0.083356 0.959339 0.359269
O O1 0.671694 0.750000 0.576212
O O2 0.700456 0.018052 0.634689
O O3 0.625078 0.016695 0.602422
O O4 0.679036 0.000000 0.500000
O O5 0.500000 0.250000 0.415588
O O6 0.457232 0.976055 0.397213
O O7 0.500000 0.000000 0.500000
O O8 0.500000 0.477888 0.789022
O O9 0.454882 0.750000 0.785664
O O10 0.411030 0.484304 0.827379
O O11 0.429115 0.496382 0.713797
O O12 0.699860 0.250000 0.291581
O O13 0.750000 0.500000 0.264042
O O14 0.665417 0.523128 0.244719
O O15 0.197253 0.250000 0.081669
O O16 0.250000 0.500000 0.092031
O O17 0.167234 0.533517 0.122158
O O18 0.195256 0.500000 0.000000
O O19 0.867752 0.250000 0.800549
O O20 0.085911 0.750000 0.359740
#
# Coordination Sequence:
#
# PCOD9500463 Si02
#       7
#    16   8  16  16  16  16  16
#     4  10  20  34  49  67  93 130 173 222 277 331
#     4  10  18  26  42  66  92 122 161 210 269 332
#     4   9  15  27  52  82 107 138 184 231 271 320
#     4  10  21  35  52  73 100 135 177 224 274 329
#     4  11  22  38  61  91 125 157 187 220 262 316
#     4  10  19  34  57  85 116 148 183 227 275 324
#     4   9  15  27  46  68  94 126 168 218 272 327
#
# _framework density 20.497975
#
# number of rings (size 3 to 8) (size 9 to 14) (size 15 to 20)
#    0.000    2.154    2.308    2.769    0.000    2.769 
#    0.000    1.538    0.000    1.846    0.000    0.000 
#    0.000    0.000    0.000    0.000    0.000    0.000 
#
# Total GULP energy -289638.873276 kJ/mol
# GULP energy per Si atom -5569.978332 kJ/mol
# Density = 2.045132 g / cm^3
# Si number density = 20.497975 Si / 1000 Ang^3
#
#
#
# Elastic Constant Matrix: (Units=GPa)
#
#
# Indices 1 2 3 4 5 6 
#
# 1 169.7740 2.6104 61.3597 0.0000 0.0000 0.0000
# 2 2.6104 28.8667 -6.7303 0.0000 0.0000 0.0000
# 3 61.3597 -6.7303 87.4258 0.0000 0.0000 0.0000
# 4 0.0000 0.0000 0.0000 14.3001 0.0000 0.0000
# 5 0.0000 0.0000 0.0000 0.0000 43.8172 0.0000
# 6 0.0000 0.0000 0.0000 0.0000 0.0000 8.2397
#
#
#
# Elastic Compliance Matrix: (Units=1/GPa)
#
#
# Indices 1 2 3 4 5 6 
#
# 1 0.008012 -0.002073 -0.005783 0.000000 0.000000 0.000000
# 2 -0.002073 0.035811 0.004212 0.000000 0.000000 0.000000
# 3 -0.005783 0.004212 0.015821 0.000000 0.000000 0.000000
# 4 0.000000 0.000000 0.000000 0.069930 0.000000 0.000000
# 5 0.000000 0.000000 0.000000 0.000000 0.022822 0.000000
# 6 0.000000 0.000000 0.000000 0.000000 0.000000 0.121364
#
#
# Mechanical properties :
#
#
# Convention : Reuss Voigt Hill
#
# Bulk Modulus (GPa) = 19.09976 44.50511 31.80243
# Shear Modulus (GPa) = 16.75041 28.52652 22.63847
#
# Velocity S-wave (km/s) = 2.86173 3.73456 3.32689
# Velocity P-wave (km/s) = 4.50082 6.35256 5.50511
#
# Compressibility (1/GPa) = 0.05235668
#
# Stress axis : x y z
#
# Youngs Moduli (GPa) = 124.81145 27.92409 63.20644
#
# Poissons Ratio (x) = 0.05788 0.36551
# Poissons Ratio (y) = 0.25871 -0.26620
# Poissons Ratio (z) = 0.72176 -0.11761
#
# Static dielectric constant tensor:
#      x y z
#    x 1.744560 0.000000 0.000000 
#    y 0.000000 1.776470 0.000000 
#    z 0.000000 0.000000 1.725900 
# 
# From -- ./inp_files/40196.got.cif
#   From: 2010.05.17/outbox.cif.g08.bks.cpg/sg67_21_cif.got.tgz:40196.got - 2010.06.03 18:28:57.
