data_PCOD9500478
_publ_section_title
;
Structure prediction by ZEFSAII (Michael W. Deem and Ramdas Pophale) SiO2 
 PCOD9500478
Probable space group: C M M A
;
_chemical_formula_sum "Si O2"
_cell_formula_units_Z 96
_cell_length_a 7.636160
_cell_length_b 28.512645
_cell_length_c 24.901501
_cell_angle_alpha 90.000000
_cell_angle_beta 90.000000
_cell_angle_gamma 90.000000
_cell_volume 5421.732078
_symmetry_space_group_name_H-M "C M M A"
_symmetry_group_IT_number 67
_symmetry_cell_setting 'orthorhombic'
loop_
_space_group_symop_operation_xyz
x,y,z
-x,1/2-y,z
x,-y,-z
-x,1/2+y,-z
-x,-y,-z
x,1/2+y,-z
-x,y,z
x,1/2-y,z
1/2+x,1/2+y,z
1/2-x,-y,z
1/2+x,1/2-y,-z
1/2-x,y,-z
1/2-x,1/2-y,-z
1/2+x,y,-z
1/2-x,1/2+y,z
1/2+x,-y,z
loop_
_atom_site_type_symbol
_atom_site_label
_atom_site_fract_x
_atom_site_fract_y
_atom_site_fract_z
Si Si1 0.713922 0.144409 0.834442
Si Si2 0.285330 0.604825 0.333502
Si Si3 0.290501 0.553742 0.225823
Si Si4 0.713426 0.802796 0.274019
Si Si5 0.210263 0.803656 0.939849
Si Si6 0.793563 0.945060 0.560807
O O1 0.500000 0.143896 0.835888
O O2 0.772908 0.092439 0.816964
O O3 0.762942 0.178788 0.785287
O O4 0.775839 0.164140 0.891323
O O5 0.500000 0.604854 0.334039
O O6 0.229580 0.570381 0.284932
O O7 0.231273 0.657163 0.316101
O O8 0.219609 0.585787 0.390468
O O9 0.500000 0.558014 0.226931
O O10 0.250000 0.500000 0.214527
O O11 0.500000 0.802096 0.274836
O O12 0.774648 0.750000 0.284046
O O13 0.276594 0.750000 0.934918
O O14 0.000000 0.801577 0.934964
O O15 0.250000 0.820461 0.000000
O O16 0.750000 0.930816 0.500000
O O17 0.000000 0.941570 0.565236
O O18 0.750000 0.000000 0.567415
#
# Coordination Sequence:
#
# PCOD9500478 Si02
#       6
#    16  16  16  16  16  16
#     4   8  14  24  39  59  82 106 130 160 197 234
#     4   8  15  25  38  58  82 105 128 160 199 235
#     4   9  16  27  42  60  82 105 130 161 198 236
#     4   8  12  20  37  60  82 103 129 161 196 233
#     4   9  16  26  41  61  83 106 131 159 194 235
#     4  10  18  28  41  58  81 106 133 163 196 233
#
# _framework density 17.706519
#
# number of rings (size 3 to 8) (size 9 to 14) (size 15 to 20)
#    0.000    3.333    0.000    4.000    0.000    2.000 
#    0.000    1.667    0.000    1.000    0.000    3.500 
#    0.000   21.333    0.000    0.000    0.000    0.667 
#
# Total GULP energy -267411.408726 kJ/mol
# GULP energy per Si atom -5571.071015 kJ/mol
# Density = 1.766622 g / cm^3
# Si number density = 17.706519 Si / 1000 Ang^3
#
#
#
# Elastic Constant Matrix: (Units=GPa)
#
#
# Indices 1 2 3 4 5 6 
#
# 1 32.2385 3.5507 7.6425 0.0000 0.0000 0.0000
# 2 3.5507 145.5087 105.9009 0.0000 0.0000 0.0000
# 3 7.6425 105.9009 181.4264 0.0000 0.0000 0.0000
# 4 0.0000 0.0000 0.0000 25.4032 0.0000 0.0000
# 5 0.0000 0.0000 0.0000 0.0000 5.3258 0.0000
# 6 0.0000 0.0000 0.0000 0.0000 0.0000 9.2094
#
#
#
# Elastic Compliance Matrix: (Units=1/GPa)
#
#
# Indices 1 2 3 4 5 6 
#
# 1 0.031341 0.000341 -0.001519 0.000000 0.000000 0.000000
# 2 0.000341 0.011952 -0.006991 0.000000 0.000000 0.000000
# 3 -0.001519 -0.006991 0.009657 0.000000 0.000000 0.000000
# 4 0.000000 0.000000 0.000000 0.039365 0.000000 0.000000
# 5 0.000000 0.000000 0.000000 0.000000 0.187765 0.000000
# 6 0.000000 0.000000 0.000000 0.000000 0.000000 0.108585
#
#
# Mechanical properties :
#
#
# Convention : Reuss Voigt Hill
#
# Bulk Modulus (GPa) = 27.31383 65.92909 46.62146
# Shear Modulus (GPa) = 11.98443 24.12630 18.05537
#
# Velocity S-wave (km/s) = 2.60443 3.69530 3.19674
# Velocity P-wave (km/s) = 4.95009 7.45132 6.32557
#
# Compressibility (1/GPa) = 0.03661149
#
# Stress axis : x y z
#
# Youngs Moduli (GPa) = 31.90671 83.66703 103.55617
#
# Poissons Ratio (x) = -0.02852 0.15732
# Poissons Ratio (y) = -0.01088 0.72396
# Poissons Ratio (z) = 0.04847 0.58491
#
# Static dielectric constant tensor:
#      x y z
#    x 1.664930 0.000000 0.000000 
#    y 0.000000 1.623790 0.000000 
#    z 0.000000 0.000000 1.620410 
# 
# From -- ./inp_files/40894.got.cif
#   From: 2010.05.17/outbox.cif.g08.bks.cpg/sg67_21_cif.got.tgz:40894.got - 2010.06.03 18:28:57.
