data_PCOD9500640
_publ_section_title
;
Structure prediction by ZEFSAII (Michael W. Deem and Ramdas Pophale) SiO2 
 PCOD9500640
Probable space group: C M M A
;
_chemical_formula_sum "Si O2"
_cell_formula_units_Z 96
_cell_length_a 28.789912
_cell_length_b 8.576898
_cell_length_c 20.129045
_cell_angle_alpha 90.000000
_cell_angle_beta 90.000000
_cell_angle_gamma 90.000000
_cell_volume 4970.427615
_symmetry_space_group_name_H-M "C M M A"
_symmetry_group_IT_number 67
_symmetry_cell_setting 'orthorhombic'
loop_
_space_group_symop_operation_xyz
x,y,z
-x,1/2-y,z
x,-y,-z
-x,1/2+y,-z
-x,-y,-z
x,1/2+y,-z
-x,y,z
x,1/2-y,z
1/2+x,1/2+y,z
1/2-x,-y,z
1/2+x,1/2-y,-z
1/2-x,y,-z
1/2-x,1/2-y,-z
1/2+x,y,-z
1/2-x,1/2+y,z
1/2+x,-y,z
loop_
_atom_site_type_symbol
_atom_site_label
_atom_site_fract_x
_atom_site_fract_y
_atom_site_fract_z
Si Si1 0.124132 0.929325 0.814893
Si Si2 0.553636 0.562255 0.712210
Si Si3 0.698057 0.938421 0.074297
Si Si4 0.201591 0.577373 0.417560
Si Si5 0.702195 0.925163 0.740540
Si Si6 0.098023 0.559910 0.430215
O O1 0.112860 0.750000 0.827731
O O2 0.154945 0.988376 0.878043
O O3 0.080285 0.009024 0.779169
O O4 0.162545 0.953944 0.758163
O O5 0.500000 0.513510 0.714309
O O6 0.556199 0.750000 0.711452
O O7 0.575409 0.511732 0.640620
O O8 0.699926 0.750000 0.075893
O O9 0.750000 0.000000 0.092204
O O10 0.689425 0.000000 0.000000
O O11 0.200453 0.750000 0.447430
O O12 0.250000 0.500000 0.434954
O O13 0.203379 0.590437 0.338102
O O14 0.151626 0.501634 0.430452
O O15 0.694050 0.750000 0.767784
O O16 0.750000 0.000000 0.763386
O O17 0.076616 0.500000 0.500000
O O18 0.097925 0.750000 0.430560
#
# Coordination Sequence:
#
# PCOD9500640 Si02
#       6
#    16  16  16  16  16  16
#     4  11  22  35  56  86 117 150 190 236 287 337
#     4  10  22  42  64  83 108 144 188 241 301 359
#     4  10  21  36  56  87 126 166 199 231 270 321
#     4   9  18  32  49  71 104 140 177 220 266 323
#     4  10  18  30  49  76 109 145 184 225 271 325
#     4  10  21  38  56  80 109 143 185 233 288 350
#
# _framework density 19.314235
#
# number of rings (size 3 to 8) (size 9 to 14) (size 15 to 20)
#    0.000    2.000    1.667    2.500    0.000    7.000 
#    0.000    1.667    0.000    0.500    0.000    0.000 
#    0.000    0.000    0.000    0.000    0.000    0.000 
#
# Total GULP energy -267260.281922 kJ/mol
# GULP energy per Si atom -5567.922540 kJ/mol
# Density = 1.927028 g / cm^3
# Si number density = 19.314235 Si / 1000 Ang^3
#
#
#
# Elastic Constant Matrix: (Units=GPa)
#
#
# Indices 1 2 3 4 5 6 
#
# 1 134.9483 16.8006 62.3718 0.0000 0.0000 0.0000
# 2 16.8006 19.3335 24.6974 0.0000 0.0000 0.0000
# 3 62.3718 24.6974 146.6109 0.0000 0.0000 0.0000
# 4 0.0000 0.0000 0.0000-2629.8068 0.0000 0.0000
# 5 0.0000 0.0000 0.0000 0.0000 -84.5013 0.0000
# 6 0.0000 0.0000 0.0000 0.0000 0.0000 16.9795
#
#
#
# Elastic Compliance Matrix: (Units=1/GPa)
#
#
# Indices 1 2 3 4 5 6 
#
# 1 0.009452 -0.003920 -0.003360 0.000000 0.000000 0.000000
# 2 -0.003920 0.067532 -0.009708 0.000000 0.000000 0.000000
# 3 -0.003360 -0.009708 0.009886 0.000000 0.000000 0.000000
# 4 0.000000 0.000000 0.000000 -0.000380 0.000000 0.000000
# 5 0.000000 0.000000 0.000000 0.000000 -0.011834 0.000000
# 6 0.000000 0.000000 0.000000 0.000000 0.000000 0.058894
#
#
# Mechanical properties :
#
#
# Convention : Reuss Voigt Hill
#
# Bulk Modulus (GPa) = 18.90677 56.51471 37.71074
# Shear Modulus (GPa) = 27.00389 -526.33086 -249.66348
#
# Velocity S-wave (km/s) = 3.74322 -16.52576 -11.38177
# Velocity P-wave (km/s) = 5.33784 18.29782 12.37574
#
# Compressibility (1/GPa) = 0.05289110
#
# Stress axis : x y z
#
# Youngs Moduli (GPa) = 105.80323 14.80774 101.15484
#
# Poissons Ratio (x) = 0.05805 0.33993
# Poissons Ratio (y) = 0.41479 0.98205
# Poissons Ratio (z) = 0.35555 0.14376
#
# Static dielectric constant tensor:
#      x y z
#    x 1.701670 0.000000 0.000000 
#    y 0.000000 1.649990 0.000000 
#    z 0.000000 0.000000 1.717440 
# 
# From -- ./inp_files/39847.got.cif
#   From: 2010.05.17/outbox.cif.g08.bks.cpg/sg67_20_cif.got.tgz:39847.got - 2010.06.03 18:28:57.
