data_PCOD9500360
_publ_section_title
;
Structure prediction by ZEFSAII (Michael W. Deem and Ramdas Pophale) SiO2 
 PCOD9500360
Probable space group: C M M A
;
_chemical_formula_sum "Si O2"
_cell_formula_units_Z 116
_cell_length_a 7.929461
_cell_length_b 30.641677
_cell_length_c 26.220167
_cell_angle_alpha 90.000000
_cell_angle_beta 90.000000
_cell_angle_gamma 90.000000
_cell_volume 6370.765964
_symmetry_space_group_name_H-M "C M M A"
_symmetry_group_IT_number 67
_symmetry_cell_setting 'orthorhombic'
loop_
_space_group_symop_operation_xyz
x,y,z
-x,1/2-y,z
x,-y,-z
-x,1/2+y,-z
-x,-y,-z
x,1/2+y,-z
-x,y,z
x,1/2-y,z
1/2+x,1/2+y,z
1/2-x,-y,z
1/2+x,1/2-y,-z
1/2-x,y,-z
1/2-x,1/2-y,-z
1/2+x,y,-z
1/2-x,1/2+y,z
1/2+x,-y,z
loop_
_atom_site_type_symbol
_atom_site_label
_atom_site_fract_x
_atom_site_fract_y
_atom_site_fract_z
Si Si1 0.199260 0.050950 0.054809
Si Si2 0.299302 0.113976 0.744627
Si Si3 0.203541 0.452530 0.339183
Si Si4 0.000000 0.750000 0.451469
Si Si5 0.194531 0.551064 0.166355
Si Si6 0.702443 0.816817 0.421967
Si Si7 0.202773 0.201448 0.301053
Si Si8 0.300263 0.418485 0.555803
O O1 0.278937 0.066166 0.107806
O O2 0.000000 0.053811 0.060102
O O3 0.250000 0.000000 0.052397
O O4 0.250000 0.070570 0.000000
O O5 0.500000 0.117581 0.737292
O O6 0.231147 0.084407 0.698594
O O7 0.275658 0.086070 0.795723
O O8 0.232583 0.163015 0.735868
O O9 0.250000 0.500000 0.319730
O O10 0.271734 0.444510 0.396038
O O11 0.000000 0.449602 0.339805
O O12 0.152918 0.712499 0.447540
O O13 0.250000 0.500000 0.170794
O O14 0.000000 0.550894 0.178988
O O15 0.500000 0.806127 0.432553
O O16 0.725692 0.810892 0.360729
O O17 0.733808 0.866993 0.436667
O O18 0.273448 0.250000 0.292656
O O19 0.000000 0.204299 0.294296
O O20 0.500000 0.422853 0.558767
O O21 0.250000 0.433388 0.500000
#
# Coordination Sequence:
#
# PCOD9500360 Si02
#       8
#    16  16  16   4  16  16  16  16
#     4  10  17  28  46  69  98 138 182 225 263 307
#     4  10  19  34  54  76 105 139 173 211 265 319
#     4  10  21  37  56  80 103 135 173 214 265 320
#     4  12  22  32  62  90 106 134 178 210 258 328
#     4  11  21  33  47  71 105 144 183 224 267 311
#     4  10  20  38  58  79 110 139 169 213 264 319
#     4   9  16  32  58  78 101 138 172 206 261 317
#     4  10  22  40  60  76 102 137 168 212 267 320
#
# _framework density 18.208172999999999
#
# number of rings (size 3 to 8) (size 9 to 14) (size 15 to 20)
#    0.000    1.931    2.069    4.345    0.966    2.483 
#    1.241    1.724    0.000    0.000    0.000    0.000 
#    0.000    0.552    0.000    1.517    0.000    2.483 
#
# Total GULP energy -322943.946915 kJ/mol
# GULP energy per Si atom -5567.999085 kJ/mol
# Density = 1.816673 g / cm^3
# Si number density = 18.208173 Si / 1000 Ang^3
#
#
#
# Elastic Constant Matrix: (Units=GPa)
#
#
# Indices 1 2 3 4 5 6 
#
# 1 42.2397 7.9433 -14.2381 0.0000 0.0000 0.0000
# 2 7.9433 78.7854 43.9513 0.0000 0.0000 0.0000
# 3 -14.2381 43.9513 96.0351 0.0000 0.0000 0.0000
# 4 0.0000 0.0000 0.0000 1.0292 0.0000 0.0000
# 5 0.0000 0.0000 0.0000 0.0000 24.3441 0.0000
# 6 0.0000 0.0000 0.0000 0.0000 0.0000 13.6162
#
#
#
# Elastic Compliance Matrix: (Units=1/GPa)
#
#
# Indices 1 2 3 4 5 6 
#
# 1 0.027348 -0.006740 0.007139 0.000000 0.000000 0.000000
# 2 -0.006740 0.018705 -0.009560 0.000000 0.000000 0.000000
# 3 0.007139 -0.009560 0.015847 0.000000 0.000000 0.000000
# 4 0.000000 0.000000 0.000000 0.971599 0.000000 0.000000
# 5 0.000000 0.000000 0.000000 0.000000 0.041078 0.000000
# 6 0.000000 0.000000 0.000000 0.000000 0.000000 0.073442
#
#
# Mechanical properties :
#
#
# Convention : Reuss Voigt Hill
#
# Bulk Modulus (GPa) = 22.94691 32.48593 27.71642
# Shear Modulus (GPa) = 4.23418 19.75817 11.99617
#
# Velocity S-wave (km/s) = 1.52659 3.29770 2.56956
# Velocity P-wave (km/s) = 3.96701 5.69033 4.90495
#
# Compressibility (1/GPa) = 0.04357886
#
# Stress axis : x y z
#
# Youngs Moduli (GPa) = 36.56522 53.46061 63.10539
#
# Poissons Ratio (x) = 0.36033 -0.45053
# Poissons Ratio (y) = 0.24645 0.60328
# Poissons Ratio (z) = -0.26105 0.51108
#
# Static dielectric constant tensor:
#      x y z
#    x 1.666540 0.000000 0.000000 
#    y 0.000000 2.187030 0.000000 
#    z 0.000000 0.000000 1.688720 
# 
# From -- ./inp_files/43979.got.cif
#   From: 2010.05.17/outbox.cif.g08.bks.cpg/sg67_22_cif.got.tgz:43979.got - 2010.06.03 18:28:57.
