data_PCOD9500732
_publ_section_title
;
Structure prediction by ZEFSAII (Michael W. Deem and Ramdas Pophale) SiO2 
 PCOD9500732
Probable space group: C M M A
;
_chemical_formula_sum "Si O2"
_cell_formula_units_Z 80
_cell_length_a 17.376807
_cell_length_b 10.545920
_cell_length_c 24.774234
_cell_angle_alpha 90.000000
_cell_angle_beta 90.000000
_cell_angle_gamma 90.000000
_cell_volume 4539.987795
_symmetry_space_group_name_H-M "C M M A"
_symmetry_group_IT_number 67
_symmetry_cell_setting 'orthorhombic'
loop_
_space_group_symop_operation_xyz
x,y,z
-x,1/2-y,z
x,-y,-z
-x,1/2+y,-z
-x,-y,-z
x,1/2+y,-z
-x,y,z
x,1/2-y,z
1/2+x,1/2+y,z
1/2-x,-y,z
1/2+x,1/2-y,-z
1/2-x,y,-z
1/2-x,1/2-y,-z
1/2+x,y,-z
1/2-x,1/2+y,z
1/2+x,-y,z
loop_
_atom_site_type_symbol
_atom_site_label
_atom_site_fract_x
_atom_site_fract_y
_atom_site_fract_z
Si Si1 0.682793 0.102535 0.654401
Si Si2 0.155954 0.250000 0.936520
Si Si3 0.343141 0.001434 0.872813
Si Si4 0.343593 0.250000 0.939358
Si Si5 0.908950 0.898118 0.764958
Si Si6 0.407667 0.106069 0.542697
O O1 0.709864 0.250000 0.656271
O O2 0.632538 0.080038 0.708056
O O3 0.631836 0.089126 0.600547
O O4 0.750000 0.000000 0.652897
O O5 0.132461 0.375032 0.904045
O O6 0.249790 0.250000 0.939087
O O7 0.130080 0.250000 0.998647
O O8 0.367345 0.123813 0.907719
O O9 0.376298 0.016539 0.813029
O O10 0.250000 0.000000 0.869444
O O11 0.894692 0.750000 0.779635
O O12 0.000000 0.915530 0.759232
O O13 0.500000 0.095808 0.548979
O O14 0.390767 0.250000 0.523722
O O15 0.382323 0.000000 0.500000
#
# Coordination Sequence:
#
# PCOD9500732 Si02
#       6
#    16   8  16   8  16  16
#     4  10  21  37  57  82 109 140 180 226 271 313
#     4   9  18  28  49  77 109 135 164 217 262 309
#     4  10  18  31  52  78 104 134 173 216 262 310
#     4   9  16  30  49  77 105 137 174 207 256 313
#     4  10  20  36  57  76 100 138 182 219 259 320
#     4   9  18  34  57  83 113 149 186 221 260 310
#
# _framework density 17.621192000000001
#
# number of rings (size 3 to 8) (size 9 to 14) (size 15 to 20)
#    0.000    2.400    1.000    1.800    0.000    6.000 
#    1.800    2.500    0.000    4.800    0.000    0.000 
#    0.000    0.000    0.000    0.000    0.000    0.000 
#
# Total GULP energy -223155.800851 kJ/mol
# GULP energy per Si atom -5578.895021 kJ/mol
# Density = 1.758109 g / cm^3
# Si number density = 17.621192 Si / 1000 Ang^3
#
#
#
# Elastic Constant Matrix: (Units=GPa)
#
#
# Indices 1 2 3 4 5 6 
#
# 1 28.1893 44.9092 38.5637 0.0000 0.0000 0.0000
# 2 44.9092 151.8191 104.9036 0.0000 0.0000 0.0000
# 3 38.5637 104.9036 158.3922 0.0000 0.0000 0.0000
# 4 0.0000 0.0000 0.0000 32.3863 0.0000 0.0000
# 5 0.0000 0.0000 0.0000 0.0000 55.9611 0.0000
# 6 0.0000 0.0000 0.0000 0.0000 0.0000 19.7177
#
#
#
# Elastic Compliance Matrix: (Units=1/GPa)
#
#
# Indices 1 2 3 4 5 6 
#
# 1 0.070203 -0.016513 -0.006156 0.000000 0.000000 0.000000
# 2 -0.016513 0.016029 -0.006595 0.000000 0.000000 0.000000
# 3 -0.006156 -0.006595 0.012180 0.000000 0.000000 0.000000
# 4 0.000000 0.000000 0.000000 0.030877 0.000000 0.000000
# 5 0.000000 0.000000 0.000000 0.000000 0.017870 0.000000
# 6 0.000000 0.000000 0.000000 0.000000 0.000000 0.050716
#
#
# Mechanical properties :
#
#
# Convention : Reuss Voigt Hill
#
# Bulk Modulus (GPa) = 25.07292 79.46152 52.26722
# Shear Modulus (GPa) = 18.53927 31.61463 25.07695
#
# Velocity S-wave (km/s) = 3.24713 4.24031 3.77651
# Velocity P-wave (km/s) = 5.32148 8.31660 6.98155
#
# Compressibility (1/GPa) = 0.03988367
#
# Stress axis : x y z
#
# Youngs Moduli (GPa) = 14.24442 62.38753 82.09951
#
# Poissons Ratio (x) = 1.03022 0.50537
# Poissons Ratio (y) = 0.23522 0.54149
# Poissons Ratio (z) = 0.08768 0.41148
#
# Static dielectric constant tensor:
#      x y z
#    x 1.583980 0.000000 0.000000 
#    y 0.000000 1.598260 0.000000 
#    z 0.000000 0.000000 1.572940 
# 
# From -- ./inp_files/38873.got.cif
#   From: 2010.05.17/outbox.cif.g08.bks.cpg/sg67_20_cif.got.tgz:38873.got - 2010.06.03 18:28:57.
