data_PCOD9500417
_publ_section_title
;
Structure prediction by ZEFSAII (Michael W. Deem and Ramdas Pophale) SiO2 
 PCOD9500417
Probable space group: C M M A
;
_chemical_formula_sum "Si O2"
_cell_formula_units_Z 80
_cell_length_a 8.528783
_cell_length_b 14.946160
_cell_length_c 31.248882
_cell_angle_alpha 90.000000
_cell_angle_beta 90.000000
_cell_angle_gamma 90.000000
_cell_volume 3983.374840
_symmetry_space_group_name_H-M "C M M A"
_symmetry_group_IT_number 67
_symmetry_cell_setting 'orthorhombic'
loop_
_space_group_symop_operation_xyz
x,y,z
-x,1/2-y,z
x,-y,-z
-x,1/2+y,-z
-x,-y,-z
x,1/2+y,-z
-x,y,z
x,1/2-y,z
1/2+x,1/2+y,z
1/2-x,-y,z
1/2+x,1/2-y,-z
1/2-x,y,-z
1/2-x,1/2-y,-z
1/2+x,y,-z
1/2-x,1/2+y,z
1/2+x,-y,z
loop_
_atom_site_type_symbol
_atom_site_label
_atom_site_fract_x
_atom_site_fract_y
_atom_site_fract_z
Si Si1 0.810644 0.600789 0.361984
Si Si2 0.812461 0.397785 0.543990
Si Si3 0.312745 0.897543 0.955652
Si Si4 0.312740 0.398622 0.865319
Si Si5 0.808544 0.750000 0.296289
Si Si6 0.188834 0.750000 0.197717
O O1 0.750000 0.500000 0.357630
O O2 0.765351 0.637795 0.409195
O O3 0.757140 0.663876 0.323540
O O4 0.000000 0.598594 0.361482
O O5 0.750000 0.500000 0.544521
O O6 0.750000 0.356141 0.500000
O O7 0.000000 0.398198 0.541631
O O8 0.500000 0.897170 0.955903
O O9 0.250053 0.860896 0.910770
O O10 0.250000 0.000000 0.955475
O O11 0.250000 0.857031 0.000000
O O12 0.500000 0.400304 0.866578
O O13 0.250000 0.500000 0.860528
O O14 0.252009 0.336290 0.827403
O O15 0.759088 0.750000 0.247130
O O16 0.000000 0.750000 0.296275
O O17 0.000000 0.750000 0.196257
#
# Coordination Sequence:
#
# PCOD9500417 Si02
#       6
#    16  16  16  16   8   8
#     4   9  18  34  55  79 106 141 179 220 267 323
#     4   9  15  24  43  70 102 136 173 211 256 310
#     4  10  17  29  51  82 117 154 192 231 276 330
#     4  11  22  39  61  87 118 154 193 236 284 339
#     4   9  20  39  60  79 105 140 180 224 279 337
#     4  11  23  41  62  85 112 146 188 240 294 347
#
# _framework density 20.083473000000001
#
# number of rings (size 3 to 8) (size 9 to 14) (size 15 to 20)
#    0.000    2.200    0.000    6.900    0.000    1.600 
#    0.000    5.500    0.000    0.000    0.000    0.000 
#    0.000    0.000    0.000    0.000    0.000    0.000 
#
# Total GULP energy -223267.972072 kJ/mol
# GULP energy per Si atom -5581.699302 kJ/mol
# Density = 2.003776 g / cm^3
# Si number density = 20.083473 Si / 1000 Ang^3
#
#
#
# Elastic Constant Matrix: (Units=GPa)
#
#
# Indices 1 2 3 4 5 6 
#
# 1 114.8142 25.8705 65.2108 0.0000 0.0000 0.0000
# 2 25.8705 100.3195 84.0325 0.0000 0.0000 0.0000
# 3 65.2108 84.0325 250.3150 0.0000 0.0000 0.0000
# 4 0.0000 0.0000 0.0000 42.6888 0.0000 0.0000
# 5 0.0000 0.0000 0.0000 0.0000 21.8761 0.0000
# 6 0.0000 0.0000 0.0000 0.0000 0.0000 9.8922
#
#
#
# Elastic Compliance Matrix: (Units=1/GPa)
#
#
# Indices 1 2 3 4 5 6 
#
# 1 0.010245 -0.000565 -0.002479 0.000000 0.000000 0.000000
# 2 -0.000565 0.013899 -0.004519 0.000000 0.000000 0.000000
# 3 -0.002479 -0.004519 0.006158 0.000000 0.000000 0.000000
# 4 0.000000 0.000000 0.000000 0.023425 0.000000 0.000000
# 5 0.000000 0.000000 0.000000 0.000000 0.045712 0.000000
# 6 0.000000 0.000000 0.000000 0.000000 0.000000 0.101090
#
#
# Mechanical properties :
#
#
# Convention : Reuss Voigt Hill
#
# Bulk Modulus (GPa) = 65.89566 90.63072 78.26319
# Shear Modulus (GPa) = 22.65369 34.24705 28.45037
#
# Velocity S-wave (km/s) = 3.36218 4.13393 3.76787
# Velocity P-wave (km/s) = 6.92492 8.24687 7.61463
#
# Compressibility (1/GPa) = 0.01517551
#
# Stress axis : x y z
#
# Youngs Moduli (GPa) = 97.60621 71.94734 162.39496
#
# Poissons Ratio (x) = 0.04067 0.40262
# Poissons Ratio (y) = 0.05518 0.73382
# Poissons Ratio (z) = 0.24199 0.32511
#
# Static dielectric constant tensor:
#      x y z
#    x 1.672230 0.000000 0.000000 
#    y 0.000000 1.719700 0.000000 
#    z 0.000000 0.000000 1.744620 
# 
# From -- ./inp_files/43382.got.cif
#   From: 2010.05.17/outbox.cif.g08.bks.cpg/sg67_22_cif.got.tgz:43382.got - 2010.06.03 18:28:57.
