data_PCOD9500407
_publ_section_title
;
Structure prediction by ZEFSAII (Michael W. Deem and Ramdas Pophale) SiO2 
 PCOD9500407
Probable space group: C M M A
;
_chemical_formula_sum "Si O2"
_cell_formula_units_Z 80
_cell_length_a 19.192237
_cell_length_b 18.784226
_cell_length_c 12.727312
_cell_angle_alpha 90.000000
_cell_angle_beta 90.000000
_cell_angle_gamma 90.000000
_cell_volume 4588.340014
_symmetry_space_group_name_H-M "C M M A"
_symmetry_group_IT_number 67
_symmetry_cell_setting 'orthorhombic'
loop_
_space_group_symop_operation_xyz
x,y,z
-x,1/2-y,z
x,-y,-z
-x,1/2+y,-z
-x,-y,-z
x,1/2+y,-z
-x,y,z
x,1/2-y,z
1/2+x,1/2+y,z
1/2-x,-y,z
1/2+x,1/2-y,-z
1/2-x,y,-z
1/2-x,1/2-y,-z
1/2+x,y,-z
1/2-x,1/2+y,z
1/2+x,-y,z
loop_
_atom_site_type_symbol
_atom_site_label
_atom_site_fract_x
_atom_site_fract_y
_atom_site_fract_z
Si Si1 0.275929 0.613075 0.832552
Si Si2 0.142989 0.472971 0.113136
Si Si3 0.175007 0.250000 0.948195
Si Si4 0.276928 0.917982 0.387840
Si Si5 0.078830 0.891751 0.709590
Si Si6 0.582005 0.250000 0.842102
O O1 0.203788 0.588584 0.892735
O O2 0.320312 0.678076 0.878966
O O3 0.253691 0.624033 0.712119
O O4 0.320625 0.541530 0.837158
O O5 0.085372 0.446023 0.192754
O O6 0.119442 0.500000 0.000000
O O7 0.250000 0.250000 0.000000
O O8 0.121839 0.250000 0.046287
O O9 0.250000 0.891489 0.500000
O O10 0.360380 0.912581 0.371846
O O11 0.250000 0.000000 0.379374
O O12 0.096064 0.817427 0.767579
O O13 0.000000 0.889688 0.668102
O O14 0.500000 0.250000 0.866682
#
# Coordination Sequence:
#
# PCOD9500407 Si02
#       6
#    16  16   8  16  16   8
#     4  10  18  31  48  77 106 139 181 230 271 314
#     4  10  17  29  48  75 110 138 176 225 270 311
#     4  12  20  30  54  79 107 145 189 212 265 332
#     4  10  19  36  58  78 109 140 180 240 287 312
#     4  10  20  36  56  81 110 143 184 220 270 332
#     4  10  22  38  54  81 120 153 175 214 271 334
#
# _framework density 17.435499
#
# number of rings (size 3 to 8) (size 9 to 14) (size 15 to 20)
#    0.000    1.800    4.000    6.000    0.000    0.400 
#    0.000    5.000    0.000    0.000    0.000    0.000 
#    0.000    0.000    0.000    0.000    0.000    0.000 
#
# Total GULP energy -222741.163896 kJ/mol
# GULP energy per Si atom -5568.529097 kJ/mol
# Density = 1.739581 g / cm^3
# Si number density = 17.435499 Si / 1000 Ang^3
#
#
#
# Elastic Constant Matrix: (Units=GPa)
#
#
# Indices 1 2 3 4 5 6 
#
# 1 105.4482 40.1477 44.4733 0.0000 0.0000 0.0000
# 2 40.1477 78.6097 13.3823 0.0000 0.0000 0.0000
# 3 44.4733 13.3823 102.4010 0.0000 0.0000 0.0000
# 4 0.0000 0.0000 0.0000 13.3435 0.0000 0.0000
# 5 0.0000 0.0000 0.0000 0.0000 15.2217 0.0000
# 6 0.0000 0.0000 0.0000 0.0000 0.0000 16.4608
#
#
#
# Elastic Compliance Matrix: (Units=1/GPa)
#
#
# Indices 1 2 3 4 5 6 
#
# 1 0.014125 -0.006310 -0.005310 0.000000 0.000000 0.000000
# 2 -0.006310 0.015829 0.000672 0.000000 0.000000 0.000000
# 3 -0.005310 0.000672 0.011984 0.000000 0.000000 0.000000
# 4 0.000000 0.000000 0.000000 0.074943 0.000000 0.000000
# 5 0.000000 0.000000 0.000000 0.000000 0.065696 0.000000
# 6 0.000000 0.000000 0.000000 0.000000 0.000000 0.060750
#
#
# Mechanical properties :
#
#
# Convention : Reuss Voigt Hill
#
# Bulk Modulus (GPa) = 49.89528 53.60728 51.75128
# Shear Modulus (GPa) = 18.38877 21.56891 19.97884
#
# Velocity S-wave (km/s) = 3.25110 3.52101 3.38874
# Velocity P-wave (km/s) = 6.54003 6.88061 6.71248
#
# Compressibility (1/GPa) = 0.02004197
#
# Stress axis : x y z
#
# Youngs Moduli (GPa) = 70.79465 63.17343 83.44514
#
# Poissons Ratio (x) = 0.39863 0.44310
# Poissons Ratio (y) = 0.44673 -0.05606
# Poissons Ratio (z) = 0.37592 -0.04244
#
# Static dielectric constant tensor:
#      x y z
#    x 1.610360 0.000000 0.000000 
#    y 0.000000 1.703430 0.000000 
#    z 0.000000 0.000000 1.646390 
# 
# From -- ./inp_files/19391.got.cif
#   From: 2010.05.17/outbox.cif.g08.bks.cpg/sg67_10_cif.got.tgz:19391.got - 2010.06.03 18:28:57.
