data_PCOD9500447
_publ_section_title
;
Structure prediction by ZEFSAII (Michael W. Deem and Ramdas Pophale) SiO2 
 PCOD9500447
Probable space group: C M M A
;
_chemical_formula_sum "Si O2"
_cell_formula_units_Z 64
_cell_length_a 24.791283
_cell_length_b 14.668565
_cell_length_c 7.896474
_cell_angle_alpha 90.000000
_cell_angle_beta 90.000000
_cell_angle_gamma 90.000000
_cell_volume 2871.572875
_symmetry_space_group_name_H-M "C M M A"
_symmetry_group_IT_number 67
_symmetry_cell_setting 'orthorhombic'
loop_
_space_group_symop_operation_xyz
x,y,z
-x,1/2-y,z
x,-y,-z
-x,1/2+y,-z
-x,-y,-z
x,1/2+y,-z
-x,y,z
x,1/2-y,z
1/2+x,1/2+y,z
1/2-x,-y,z
1/2+x,1/2-y,-z
1/2-x,y,-z
1/2-x,1/2-y,-z
1/2+x,y,-z
1/2-x,1/2+y,z
1/2+x,-y,z
loop_
_atom_site_type_symbol
_atom_site_label
_atom_site_fract_x
_atom_site_fract_y
_atom_site_fract_z
Si Si1 0.000000 0.350899 0.239223
Si Si2 0.118334 0.638365 0.857266
Si Si3 0.000000 0.093204 0.604456
Si Si4 0.689362 0.138638 0.541273
Si Si5 0.611908 0.360304 0.236737
O O1 0.057375 0.393139 0.187782
O O2 0.000000 0.250000 0.158395
O O3 0.000000 0.341148 0.441805
O O4 0.117633 0.750000 0.849113
O O5 0.161510 0.608679 0.716727
O O6 0.130061 0.611371 0.049702
O O7 0.052420 0.106711 0.717081
O O8 0.000000 0.000000 0.500000
O O9 0.689925 0.250000 0.545546
O O10 0.750000 0.109333 0.500000
O O11 0.651244 0.110290 0.386654
O O12 0.610601 0.250000 0.237878
#
# Coordination Sequence:
#
# PCOD9500447 Si02
#       5
#     8  16   8  16  16
#     4  10  17  32  55  75 102 138 172 210 265 325
#     4   9  17  29  51  80 106 138 178 216 261 322
#     4  12  23  34  52  79 109 136 180 226 275 319
#     4   9  17  29  49  79 110 137 171 219 265 305
#     4  10  19  34  55  76 106 144 178 215 268 329
#
# _framework density 22.287438000000002
#
# number of rings (size 3 to 8) (size 9 to 14) (size 15 to 20)
#    0.000    2.250    2.500    1.875    0.000    3.000 
#    0.000    7.500    0.000    0.750    0.000    0.000 
#    7.500    0.000    0.000    0.000    0.000    0.000 
#
# Total GULP energy -178825.071070 kJ/mol
# GULP energy per Si atom -5588.283471 kJ/mol
# Density = 2.223671 g / cm^3
# Si number density = 22.287438 Si / 1000 Ang^3
#
#
#
# Elastic Constant Matrix: (Units=GPa)
#
#
# Indices 1 2 3 4 5 6 
#
# 1 191.5699 -11.9957 115.6397 0.0000 0.0000 0.0000
# 2 -11.9957 53.1836 9.4216 0.0000 0.0000 0.0000
# 3 115.6397 9.4216 233.1331 0.0000 0.0000 0.0000
# 4 0.0000 0.0000 0.0000 12.4321 0.0000 0.0000
# 5 0.0000 0.0000 0.0000 0.0000 -13.5018 0.0000
# 6 0.0000 0.0000 0.0000 0.0000 0.0000 -16.3607
#
#
#
# Elastic Compliance Matrix: (Units=1/GPa)
#
#
# Indices 1 2 3 4 5 6 
#
# 1 0.007755 0.002448 -0.003946 0.000000 0.000000 0.000000
# 2 0.002448 0.019711 -0.002011 0.000000 0.000000 0.000000
# 3 -0.003946 -0.002011 0.006328 0.000000 0.000000 0.000000
# 4 0.000000 0.000000 0.000000 0.080437 0.000000 0.000000
# 5 0.000000 0.000000 0.000000 0.000000 -0.074064 0.000000
# 6 0.000000 0.000000 0.000000 0.000000 0.000000 -0.061122
#
#
# Mechanical properties :
#
#
# Convention : Reuss Voigt Hill
#
# Bulk Modulus (GPa) = 37.34514 78.22421 57.78467
# Shear Modulus (GPa) = -997.50193 20.83531 -488.33331
#
# Velocity S-wave (km/s) = -21.17862 3.06084 -14.81832
# Velocity P-wave (km/s) = 24.10919 6.90404 16.33382
#
# Compressibility (1/GPa) = 0.02677725
#
# Stress axis : x y z
#
# Youngs Moduli (GPa) = 128.94765 50.73253 158.03283
#
# Poissons Ratio (x) = -0.12420 0.62354
# Poissons Ratio (y) = -0.31568 0.31779
# Poissons Ratio (z) = 0.50878 0.10202
#
# Static dielectric constant tensor:
#      x y z
#    x 1.748740 0.000000 0.000000 
#    y 0.000000 1.984170 0.000000 
#    z 0.000000 0.000000 1.778980 
# 
# From -- ./inp_files/8221.got.cif
#   From: 2010.05.17/outbox.cif.g08.bks.cpg/sg67_5_cif.got.tgz:8221.got - 2010.06.03 18:28:57.
