data_PCOD9500595
_publ_section_title
;
Structure prediction by ZEFSAII (Michael W. Deem and Ramdas Pophale) SiO2 
 PCOD9500595
Probable space group: C M M A
;
_chemical_formula_sum "Si O2"
_cell_formula_units_Z 88
_cell_length_a 28.333940
_cell_length_b 8.618138
_cell_length_c 19.321182
_cell_angle_alpha 90.000000
_cell_angle_beta 90.000000
_cell_angle_gamma 90.000000
_cell_volume 4717.958380
_symmetry_space_group_name_H-M "C M M A"
_symmetry_group_IT_number 67
_symmetry_cell_setting 'orthorhombic'
loop_
_space_group_symop_operation_xyz
x,y,z
-x,1/2-y,z
x,-y,-z
-x,1/2+y,-z
-x,-y,-z
x,1/2+y,-z
-x,y,z
x,1/2-y,z
1/2+x,1/2+y,z
1/2-x,-y,z
1/2+x,1/2-y,-z
1/2-x,y,-z
1/2-x,1/2-y,-z
1/2+x,y,-z
1/2-x,1/2+y,z
1/2+x,-y,z
loop_
_atom_site_type_symbol
_atom_site_label
_atom_site_fract_x
_atom_site_fract_y
_atom_site_fract_z
Si Si1 0.552660 0.562832 0.201411
Si Si2 0.900222 0.565216 0.422369
Si Si3 0.891385 0.564219 0.077117
Si Si4 0.142544 0.936277 0.707331
Si Si5 0.500000 0.435674 0.578296
Si Si6 0.800792 0.435826 0.831268
O O1 0.500000 0.510900 0.220922
O O2 0.552879 0.750000 0.201210
O O3 0.567547 0.502764 0.125960
O O4 0.594592 0.512998 0.252456
O O5 0.893241 0.500000 0.500000
O O6 0.903267 0.750000 0.425698
O O7 0.860764 0.509181 0.368607
O O8 0.950286 0.497648 0.394311
O O9 0.894198 0.750000 0.076430
O O10 0.841970 0.519385 0.114523
O O11 0.893548 0.500000 0.000000
O O12 0.143336 0.750000 0.702625
O O13 0.184100 0.994913 0.756937
O O14 0.500000 0.250000 0.580528
O O15 0.500000 0.500000 0.500000
O O16 0.799656 0.250000 0.826936
O O17 0.750000 0.500000 0.852098
#
# Coordination Sequence:
#
# PCOD9500595 Si02
#       6
#    16  16  16  16   8  16
#     4   9  19  35  54  77 106 144 185 223 265 316
#     4  11  21  34  51  76 108 145 185 228 275 323
#     4  10  21  36  55  80 110 142 178 222 267 319
#     4  10  20  35  56  81 109 143 181 226 274 325
#     4  10  18  30  46  68 100 138 179 220 265 316
#     4  10  21  38  59  83 109 139 177 222 273 329
#
# _framework density 18.652135999999999
#
# number of rings (size 3 to 8) (size 9 to 14) (size 15 to 20)
#    0.000    2.000    0.000    5.182    1.273    4.000 
#    0.000    1.818    0.000    0.545    0.000    3.818 
#    0.000    0.000    0.000    0.000    0.000    0.000 
#
# Total GULP energy -245650.084383 kJ/mol
# GULP energy per Si atom -5582.956463 kJ/mol
# Density = 1.860968 g / cm^3
# Si number density = 18.652136 Si / 1000 Ang^3
#
#
#
# Elastic Constant Matrix: (Units=GPa)
#
#
# Indices 1 2 3 4 5 6 
#
# 1 39.8075 -0.9769 -11.1364 0.0000 0.0000 0.0000
# 2 -0.9769 66.9420 6.5681 0.0000 0.0000 0.0000
# 3 -11.1364 6.5681 74.6346 0.0000 0.0000 0.0000
# 4 0.0000 0.0000 0.0000 24.7265 0.0000 0.0000
# 5 0.0000 0.0000 0.0000 0.0000 18.9065 0.0000
# 6 0.0000 0.0000 0.0000 0.0000 0.0000 26.1019
#
#
#
# Elastic Compliance Matrix: (Units=1/GPa)
#
#
# Indices 1 2 3 4 5 6 
#
# 1 0.026215 -0.000001 0.003912 0.000000 0.000000 0.000000
# 2 -0.000001 0.015068 -0.001326 0.000000 0.000000 0.000000
# 3 0.003912 -0.001326 0.014099 0.000000 0.000000 0.000000
# 4 0.000000 0.000000 0.000000 0.040442 0.000000 0.000000
# 5 0.000000 0.000000 0.000000 0.000000 0.052892 0.000000
# 6 0.000000 0.000000 0.000000 0.000000 0.000000 0.038311
#
#
# Mechanical properties :
#
#
# Convention : Reuss Voigt Hill
#
# Bulk Modulus (GPa) = 16.51497 18.92151 17.71824
# Shear Modulus (GPa) = 24.74714 26.40893 25.57804
#
# Velocity S-wave (km/s) = 3.64644 3.76688 3.70715
# Velocity P-wave (km/s) = 5.15772 5.39311 5.27673
#
# Compressibility (1/GPa) = 0.06055114
#
# Stress axis : x y z
#
# Youngs Moduli (GPa) = 38.14583 66.36404 70.92695
#
# Poissons Ratio (x) = 0.00008 -0.27745
# Poissons Ratio (y) = 0.00005 0.09407
# Poissons Ratio (z) = -0.14922 0.08802
#
# Static dielectric constant tensor:
#      x y z
#    x 1.661390 0.000000 0.000000 
#    y 0.000000 1.616770 0.000000 
#    z 0.000000 0.000000 1.638830 
# 
# From -- ./inp_files/36138.got.cif
#   From: 2010.05.17/outbox.cif.g08.bks.cpg/sg67_19_cif.got.tgz:36138.got - 2010.06.03 18:28:57.
