data_PCOD9500290
_publ_section_title
;
Structure prediction by ZEFSAII (Michael W. Deem and Ramdas Pophale) SiO2 
 PCOD9500290
Probable space group: C M M A
;
_chemical_formula_sum "Si O2"
_cell_formula_units_Z 96
_cell_length_a 8.704040
_cell_length_b 27.786434
_cell_length_c 24.540628
_cell_angle_alpha 90.000000
_cell_angle_beta 90.000000
_cell_angle_gamma 90.000000
_cell_volume 5935.254762
_symmetry_space_group_name_H-M "C M M A"
_symmetry_group_IT_number 67
_symmetry_cell_setting 'orthorhombic'
loop_
_space_group_symop_operation_xyz
x,y,z
-x,1/2-y,z
x,-y,-z
-x,1/2+y,-z
-x,-y,-z
x,1/2+y,-z
-x,y,z
x,1/2-y,z
1/2+x,1/2+y,z
1/2-x,-y,z
1/2+x,1/2-y,-z
1/2-x,y,-z
1/2-x,1/2-y,-z
1/2+x,y,-z
1/2-x,1/2+y,z
1/2+x,-y,z
loop_
_atom_site_type_symbol
_atom_site_label
_atom_site_fract_x
_atom_site_fract_y
_atom_site_fract_z
Si Si1 0.683890 0.054599 0.555809
Si Si2 0.182993 0.053932 0.668502
Si Si3 0.182973 0.897669 0.774560
Si Si4 0.316852 0.146482 0.057317
Si Si5 0.685042 0.805095 0.829205
Si Si6 0.683623 0.947411 0.110935
O O1 0.500000 0.053311 0.554266
O O2 0.750000 0.076850 0.500000
O O3 0.744281 0.075232 0.612923
O O4 0.750000 0.000000 0.556649
O O5 0.230767 0.083884 0.721295
O O6 0.000000 0.050942 0.662680
O O7 0.250000 0.000000 0.675614
O O8 0.233287 0.844045 0.791171
O O9 0.222294 0.930803 0.827141
O O10 0.000000 0.900412 0.766223
O O11 0.500000 0.143947 0.053838
O O12 0.276126 0.180388 0.108491
O O13 0.251856 0.093743 0.072133
O O14 0.250000 0.163174 0.000000
O O15 0.500000 0.810067 0.823561
O O16 0.726895 0.750000 0.818200
O O17 0.500000 0.947801 0.105783
O O18 0.750000 0.000000 0.099999
#
# Coordination Sequence:
#
# PCOD9500290 Si02
#       6
#    16  16  16  16  16  16
#     4  10  17  27  41  60  89 126 167 205 239 275
#     4  11  20  30  45  67  96 131 167 201 237 277
#     4  10  20  33  49  71  96 122 155 195 236 280
#     4  10  20  34  51  71  95 120 150 187 226 273
#     4   9  19  36  55  73  94 121 150 185 234 286
#     4  10  20  33  49  68  92 122 155 189 228 273
#
# _framework density 16.174537000000001
#
# number of rings (size 3 to 8) (size 9 to 14) (size 15 to 20)
#    0.000    2.000    0.000    6.500    0.000    5.000 
#    0.000    1.667    0.000    0.000    0.000    0.000 
#    0.000    0.667    0.000    2.500    0.000    4.167 
#
# Total GULP energy -267898.052093 kJ/mol
# GULP energy per Si atom -5581.209419 kJ/mol
# Density = 1.613772 g / cm^3
# Si number density = 16.174537 Si / 1000 Ang^3
#
#
#
# Elastic Constant Matrix: (Units=GPa)
#
#
# Indices 1 2 3 4 5 6 
#
# 1 91.1977 16.5373 44.0428 0.0000 0.0000 0.0000
# 2 16.5373 52.4839 11.0003 0.0000 0.0000 0.0000
# 3 44.0428 11.0003 101.3565 0.0000 0.0000 0.0000
# 4 0.0000 0.0000 0.0000 8.1937 0.0000 0.0000
# 5 0.0000 0.0000 0.0000 0.0000 31.4062 0.0000
# 6 0.0000 0.0000 0.0000 0.0000 0.0000 19.9255
#
#
#
# Elastic Compliance Matrix: (Units=1/GPa)
#
#
# Indices 1 2 3 4 5 6 
#
# 1 0.014417 -0.003305 -0.005906 0.000000 0.000000 0.000000
# 2 -0.003305 0.020255 -0.000762 0.000000 0.000000 0.000000
# 3 -0.005906 -0.000762 0.012515 0.000000 0.000000 0.000000
# 4 0.000000 0.000000 0.000000 0.122045 0.000000 0.000000
# 5 0.000000 0.000000 0.000000 0.000000 0.031841 0.000000
# 6 0.000000 0.000000 0.000000 0.000000 0.000000 0.050187
#
#
# Mechanical properties :
#
#
# Convention : Reuss Voigt Hill
#
# Bulk Modulus (GPa) = 36.70978 43.13322 39.92150
# Shear Modulus (GPa) = 17.83902 23.46893 20.65398
#
# Velocity S-wave (km/s) = 3.32461 3.81331 3.57731
# Velocity P-wave (km/s) = 6.12231 6.79070 6.46515
#
# Compressibility (1/GPa) = 0.02724070
#
# Stress axis : x y z
#
# Youngs Moduli (GPa) = 69.36449 49.37169 79.90301
#
# Poissons Ratio (x) = 0.16316 0.47189
# Poissons Ratio (y) = 0.22923 0.06090
# Poissons Ratio (z) = 0.40965 0.03763
#
# Static dielectric constant tensor:
#      x y z
#    x 1.541290 0.000000 0.000000 
#    y 0.000000 1.510430 0.000000 
#    z 0.000000 0.000000 1.572710 
# 
# From -- ./inp_files/40793.got.cif
#   From: 2010.05.17/outbox.cif.g08.bks.cpg/sg67_21_cif.got.tgz:40793.got - 2010.06.03 18:28:57.
