data_PCOD9500018
_publ_section_title
;
Structure prediction by ZEFSAII (Michael W. Deem and Ramdas Pophale) SiO2 
 PCOD9500018
Probable space group: C C C M
;
_chemical_formula_sum "Si O2"
_cell_formula_units_Z 80
_cell_length_a 6.820999
_cell_length_b 31.870277
_cell_length_c 14.333043
_cell_angle_alpha 90.000000
_cell_angle_beta 90.000000
_cell_angle_gamma 90.000000
_cell_volume 3115.819047
_symmetry_space_group_name_H-M "C C C M"
_symmetry_group_IT_number 66
_symmetry_cell_setting 'orthorhombic'
loop_
_space_group_symop_operation_xyz
x,y,z
-x,-y,z
x,-y,1/2-z
-x,y,1/2-z
-x,-y,-z
x,y,-z
-x,y,1/2+z
x,-y,1/2+z
1/2+x,1/2+y,z
1/2-x,1/2-y,z
1/2+x,1/2-y,1/2-z
1/2-x,1/2+y,1/2-z
1/2-x,1/2-y,-z
1/2+x,1/2+y,-z
1/2-x,1/2+y,1/2+z
1/2+x,1/2-y,1/2+z
loop_
_atom_site_type_symbol
_atom_site_label
_atom_site_fract_x
_atom_site_fract_y
_atom_site_fract_z
Si Si1 0.857397 0.875138 0.891364
Si Si2 0.735544 0.451183 0.260779
Si Si3 0.042198 0.214833 0.113325
Si Si4 0.328365 0.892013 0.107115
Si Si5 0.580986 0.198004 0.112854
O O1 0.757092 0.914968 0.841766
O O2 0.847765 0.827165 0.852185
O O3 0.093698 0.882484 0.889505
O O4 0.800396 0.874110 0.000000
O O5 0.789280 0.500000 0.250000
O O6 0.500000 0.452287 0.250000
O O7 0.847352 0.430692 0.174314
O O8 0.809978 0.207432 0.131623
O O9 0.057266 0.263624 0.144658
O O10 0.068809 0.214510 0.000000
O O11 0.441867 0.850366 0.139918
O O12 0.374778 0.900938 0.000000
O O13 0.564639 0.198120 0.000000
#
# Coordination Sequence:
#
# PCOD9500018 Si02
#       5
#    16  16  16  16  16
#     4   8  13  20  28  37  50  68  89 115 145 170
#     4   9  16  22  26  34  50  74 102 124 137 153
#     4   7   9  14  25  39  51  61  75 101 141 182
#     4   8  13  20  28  37  50  68  89 115 145 170
#     4   7   9  14  25  39  51  61  75 101 141 182
#
# _framework density 25.675432000000001
#
# number of rings (size 3 to 8) (size 9 to 14) (size 15 to 20)
#    0.000    4.200    0.000    3.600    0.000    0.800 
#    0.000    4.000    0.000    0.000    0.000    0.000 
#    0.000    1.600    0.000   22.400    0.000    1.600 
#
# Total GULP energy -223216.914371 kJ/mol
# GULP energy per Si atom -5580.422859 kJ/mol
# Density = 2.561699 g / cm^3
# Si number density = 25.675432 Si / 1000 Ang^3
#
#
#
# Elastic Constant Matrix: (Units=GPa)
#
#
# Indices 1 2 3 4 5 6 
#
# 1 133.6176 64.9258 19.6868 0.0000 0.0000 0.0000
# 2 64.9258 343.4283 107.4445 0.0000 0.0000 0.0000
# 3 19.6868 107.4445 106.5753 0.0000 0.0000 0.0000
# 4 0.0000 0.0000 0.0000 37.6474 0.0000 0.0000
# 5 0.0000 0.0000 0.0000 0.0000 6.4021 0.0000
# 6 0.0000 0.0000 0.0000 0.0000 0.0000 30.1187
#
#
#
# Elastic Compliance Matrix: (Units=1/GPa)
#
#
# Indices 1 2 3 4 5 6 
#
# 1 0.008241 -0.001580 0.000071 0.000000 0.000000 0.000000
# 2 -0.001580 0.004556 -0.004302 0.000000 0.000000 0.000000
# 3 0.000071 -0.004302 0.013707 0.000000 0.000000 0.000000
# 4 0.000000 0.000000 0.000000 0.026562 0.000000 0.000000
# 5 0.000000 0.000000 0.000000 0.000000 0.156200 0.000000
# 6 0.000000 0.000000 0.000000 0.000000 0.000000 0.033202
#
#
# Mechanical properties :
#
#
# Convention : Reuss Voigt Hill
#
# Bulk Modulus (GPa) = 67.19406 107.52614 87.36010
# Shear Modulus (GPa) = 19.30120 40.93791 30.11956
#
# Velocity S-wave (km/s) = 2.74476 3.99737 3.42875
# Velocity P-wave (km/s) = 6.02265 7.95457 7.05505
#
# Compressibility (1/GPa) = 0.01488227
#
# Stress axis : x y z
#
# Youngs Moduli (GPa) = 121.33787 219.47401 72.95717
#
# Poissons Ratio (x) = 0.34681 -0.00516
# Poissons Ratio (y) = 0.19174 0.31383
# Poissons Ratio (z) = -0.00858 0.94409
#
# Static dielectric constant tensor:
#      x y z
#    x 2.116220 0.000000 0.000000 
#    y 0.000000 2.010530 0.000000 
#    z 0.000000 0.000000 2.006810 
# 
# From -- ./inp_files/40600.got.cif
#   From: 2010.05.17/outbox.cif.g08.bks.cpg/sg66_21_cif.got.tgz:40600.got - 2010.06.03 17:51:23.
