data_PCOD9500115
_publ_section_title
;
Structure prediction by ZEFSAII (Michael W. Deem and Ramdas Pophale) SiO2 
 PCOD9500115
Probable space group: C C C M
;
_chemical_formula_sum "Si O2"
_cell_formula_units_Z 56
_cell_length_a 24.000000
_cell_length_b 15.000000
_cell_length_c 15.000000
_cell_angle_alpha 90.000000
_cell_angle_beta 90.000000
_cell_angle_gamma 90.000000
_cell_volume 5400.000000
_symmetry_space_group_name_H-M "C C C M"
_symmetry_group_IT_number 66
_symmetry_cell_setting 'orthorhombic'
loop_
_space_group_symop_operation_xyz
x,y,z
-x,-y,z
x,-y,1/2-z
-x,y,1/2-z
-x,-y,-z
x,y,-z
-x,y,1/2+z
x,-y,1/2+z
1/2+x,1/2+y,z
1/2-x,1/2-y,z
1/2+x,1/2-y,1/2-z
1/2-x,1/2+y,1/2-z
1/2-x,1/2-y,-z
1/2+x,1/2+y,-z
1/2-x,1/2+y,1/2+z
1/2+x,1/2-y,1/2+z
loop_
_atom_site_type_symbol
_atom_site_label
_atom_site_fract_x
_atom_site_fract_y
_atom_site_fract_z
Si Si1 0.592335 0.242110 0.396971
Si Si2 0.268031 0.646372 0.740300
Si Si3 0.320966 0.906693 0.393507
Si Si4 0.496135 0.103430 0.642744
Si Si5 0.901851 0.254145 0.103510
Si Si6 0.689392 0.103360 0.894648
Si Si7 0.101171 0.891421 0.746088
O O1 0.602270 0.268235 0.500000
O O2 0.643124 0.179101 0.362463
O O3 0.544318 0.167560 0.393699
O O4 0.579471 0.329193 0.336832
O O5 0.250000 0.750000 0.737162
O O6 0.237299 0.602184 0.656110
O O7 0.242112 0.607147 0.830850
O O8 0.332467 0.621956 0.737766
O O9 0.317114 0.898969 0.500000
O O10 0.341946 0.008371 0.374532
O O11 0.500000 0.101771 0.750000
O O12 0.442392 0.160953 0.616875
O O13 0.500000 0.000000 0.612128
O O14 0.843621 0.304561 0.123014
O O15 0.914482 0.169808 0.167147
O O16 0.903421 0.227016 0.000000
O O17 0.702082 0.101334 0.000000
O O18 0.088239 0.000000 0.750000
#
# Coordination Sequence:
#
# PCOD9500115 Si02
#       7
#    16  16  16  16  16  16  16
#     4  11  23  42  66  94 129 165 206 257 316 376
#     4  12  22  39  63  86 121 167 212 261 314 362
#     4  10  21  37  61  93 126 160 200 251 314 383
#     4  11  23  41  71 105 133 162 197 248 322 392
#     4  11  23  42  66  94 129 165 206 257 316 376
#     4  10  21  37  61  93 126 160 200 251 314 383
#     4  12  26  44  62  89 126 170 222 267 308 359
#
# _framework density 10.370369999999999
#
# number of rings (size 3 to 8) (size 9 to 14) (size 15 to 20)
#    0.000    1.000    4.286    2.571    0.000    4.571 
#    0.000    1.429    0.000    1.714    0.000    0.000 
#    0.000    0.000    0.000    0.000    0.000    0.000 
#
# Total GULP energy -312423.464607 kJ/mol
# GULP energy per Si atom -5578.990439 kJ/mol
# Density = 1.034677 g / cm^3
# Si number density = 10.370370 Si / 1000 Ang^3
#
#
#
# Elastic Constant Matrix: (Units=GPa)
#
#
# Indices 1 2 3 4 5 6 
#
# 1 40.2654 -1.5844 -7.1203 0.0000 0.0000 0.0000
# 2 -1.5844 191.8716 44.0034 0.0000 0.0000 0.0000
# 3 -7.1203 44.0034 72.3593 0.0000 0.0000 0.0000
# 4 0.0000 0.0000 0.0000 19.4587 0.0000 0.0000
# 5 0.0000 0.0000 0.0000 0.0000 353.0289 0.0000
# 6 0.0000 0.0000 0.0000 0.0000 0.0000 32.3063
#
#
#
# Elastic Compliance Matrix: (Units=1/GPa)
#
#
# Indices 1 2 3 4 5 6 
#
# 1 0.025304 -0.000421 0.002746 0.000000 0.000000 0.000000
# 2 -0.000421 0.006063 -0.003729 0.000000 0.000000 0.000000
# 3 0.002746 -0.003729 0.016358 0.000000 0.000000 0.000000
# 4 0.000000 0.000000 0.000000 0.051391 0.000000 0.000000
# 5 0.000000 0.000000 0.000000 0.000000 0.002833 0.000000
# 6 0.000000 0.000000 0.000000 0.000000 0.000000 0.030954
#
#
# Mechanical properties :
#
#
# Convention : Reuss Voigt Hill
#
# Bulk Modulus (GPa) = 22.26275 41.67707 31.96991
# Shear Modulus (GPa) = 33.18235 98.90530 66.04383
#
# Velocity S-wave (km/s) = 4.00417 6.91303 5.64904
# Velocity P-wave (km/s) = 5.66877 9.15740 7.61554
#
# Compressibility (1/GPa) = 0.04491808
#
# Stress axis : x y z
#
# Youngs Moduli (GPa) = 39.51905 164.92158 61.13345
#
# Poissons Ratio (x) = 0.06940 -0.16786
# Poissons Ratio (y) = 0.01663 0.22795
# Poissons Ratio (z) = -0.10851 0.61495
#
# Static dielectric constant tensor:
#      x y z
#    x 1.885690 0.000000 0.000000 
#    y 0.000000 1.745780 0.000000 
#    z 0.000000 0.000000 1.743090 
# 
# From -- ./inp_files/32421.got.cif
#   From: 2010.05.17/outbox.ucp.g08.bks.cvg/sg66_17_cif.got.tgz:32421.got - 2010.06.11 16:44:13.
