data_PCOD9500223
_publ_section_title
;
Structure prediction by ZEFSAII (Michael W. Deem and Ramdas Pophale) SiO2 
 PCOD9500223
Probable space group: C M M A
;
_chemical_formula_sum "Si O2"
_cell_formula_units_Z 84
_cell_length_a 19.882492
_cell_length_b 20.877757
_cell_length_c 11.481417
_cell_angle_alpha 90.000000
_cell_angle_beta 90.000000
_cell_angle_gamma 90.000000
_cell_volume 4765.957283
_symmetry_space_group_name_H-M "C M M A"
_symmetry_group_IT_number 67
_symmetry_cell_setting 'orthorhombic'
loop_
_space_group_symop_operation_xyz
x,y,z
-x,1/2-y,z
x,-y,-z
-x,1/2+y,-z
-x,-y,-z
x,1/2+y,-z
-x,y,z
x,1/2-y,z
1/2+x,1/2+y,z
1/2-x,-y,z
1/2+x,1/2-y,-z
1/2-x,y,-z
1/2-x,1/2-y,-z
1/2+x,y,-z
1/2-x,1/2+y,z
1/2+x,-y,z
loop_
_atom_site_type_symbol
_atom_site_label
_atom_site_fract_x
_atom_site_fract_y
_atom_site_fract_z
Si Si1 0.500000 0.547365 0.828662
Si Si2 0.238895 0.326641 0.866020
Si Si3 0.500000 0.250000 0.231844
Si Si4 0.000000 0.597440 0.909160
Si Si5 0.079597 0.826514 0.511980
Si Si6 0.612549 0.173492 0.775754
Si Si7 0.608207 0.634305 0.731537
O O1 0.500000 0.472043 0.849664
O O2 0.566039 0.571195 0.761667
O O3 0.500000 0.583706 0.953583
O O4 0.225575 0.250000 0.864692
O O5 0.309429 0.337643 0.801537
O O6 0.176428 0.360119 0.803955
O O7 0.250000 0.345944 0.000000
O O8 0.558942 0.306279 0.235982
O O9 0.935276 0.637021 0.865996
O O10 0.091615 0.750000 0.504002
O O11 0.095361 0.846063 0.643556
O O12 0.119053 0.859559 0.407264
O O13 0.000000 0.836026 0.489775
O O14 0.599327 0.250000 0.785938
#
# Coordination Sequence:
#
# PCOD9500223 Si02
#       7
#     8  16   4   8  16  16  16
#     4  10  24  35  58  78 106 150 195 228 270 322
#     4  10  20  33  51  81 120 145 179 233 276 330
#     4  10  16  28  54  76 106 146 170 226 272 298
#     4  11  21  42  53  77 113 143 192 241 263 330
#     4  10  16  30  54  83 115 141 181 233 272 328
#     4  10  21  35  57  83 109 150 180 226 291 324
#     4  11  18  35  53  84 109 147 186 223 275 329
#
# _framework density 17.625
#
# number of rings (size 3 to 8) (size 9 to 14) (size 15 to 20)
#    0.000    1.714    4.762    1.429    0.000    0.762 
#    6.857    5.714    0.000    3.429    0.000    2.667 
#    0.000    0.000    0.000    0.000    0.000    0.000 
#
# Total GULP energy -233878.097432 kJ/mol
# GULP energy per Si atom -5568.526129 kJ/mol
# Density = 1.758488 g / cm^3
# Si number density = 17.625000 Si / 1000 Ang^3
#
#
#
# Elastic Constant Matrix: (Units=GPa)
#
#
# Indices 1 2 3 4 5 6 
#
# 1 79.5824 18.9438 34.0533 0.0000 0.0000 0.0000
# 2 18.9438 37.7774 13.4304 0.0000 0.0000 0.0000
# 3 34.0533 13.4304 83.5145 0.0000 0.0000 0.0000
# 4 0.0000 0.0000 0.0000 18.9178 0.0000 0.0000
# 5 0.0000 0.0000 0.0000 0.0000 25.4144 0.0000
# 6 0.0000 0.0000 0.0000 0.0000 0.0000 6.2436
#
#
#
# Elastic Compliance Matrix: (Units=1/GPa)
#
#
# Indices 1 2 3 4 5 6 
#
# 1 0.016500 -0.006239 -0.005725 0.000000 0.000000 0.000000
# 2 -0.006239 0.030435 -0.002350 0.000000 0.000000 0.000000
# 3 -0.005725 -0.002350 0.014686 0.000000 0.000000 0.000000
# 4 0.000000 0.000000 0.000000 0.052860 0.000000 0.000000
# 5 0.000000 0.000000 0.000000 0.000000 0.039348 0.000000
# 6 0.000000 0.000000 0.000000 0.000000 0.000000 0.160163
#
#
# Mechanical properties :
#
#
# Convention : Reuss Voigt Hill
#
# Bulk Modulus (GPa) = 30.30923 37.08103 33.69513
# Shear Modulus (GPa) = 14.13953 19.07829 16.60891
#
# Velocity S-wave (km/s) = 2.83546 3.29364 3.07310
# Velocity P-wave (km/s) = 5.28714 5.96227 5.63482
#
# Compressibility (1/GPa) = 0.03299325
#
# Stress axis : x y z
#
# Youngs Moduli (GPa) = 60.60489 32.85686 68.09098
#
# Poissons Ratio (x) = 0.20499 0.38980
# Poissons Ratio (y) = 0.37811 0.16004
# Poissons Ratio (z) = 0.34695 0.07723
#
# Static dielectric constant tensor:
#      x y z
#    x 1.576170 0.000000 0.000000 
#    y 0.000000 1.574680 0.000000 
#    z 0.000000 0.000000 1.638950 
# 
# From -- ./inp_files/20808.got.cif
#   From: 2010.05.17/outbox.cif.g08.bks.cpg/sg67_11_cif.got.tgz:20808.got - 2010.06.03 18:28:57.
