data_PCOD9500763
_publ_section_title
;
Structure prediction by ZEFSAII (Michael W. Deem and Ramdas Pophale) SiO2 
 PCOD9500763
Probable space group: C M M A
;
_chemical_formula_sum "Si O2"
_cell_formula_units_Z 120
_cell_length_a 30.759050
_cell_length_b 15.077980
_cell_length_c 12.234585
_cell_angle_alpha 90.000000
_cell_angle_beta 90.000000
_cell_angle_gamma 90.000000
_cell_volume 5674.208938
_symmetry_space_group_name_H-M "C M M A"
_symmetry_group_IT_number 67
_symmetry_cell_setting 'orthorhombic'
loop_
_space_group_symop_operation_xyz
x,y,z
-x,1/2-y,z
x,-y,-z
-x,1/2+y,-z
-x,-y,-z
x,1/2+y,-z
-x,y,z
x,1/2-y,z
1/2+x,1/2+y,z
1/2-x,-y,z
1/2+x,1/2-y,-z
1/2-x,y,-z
1/2-x,1/2-y,-z
1/2+x,y,-z
1/2-x,1/2+y,z
1/2+x,-y,z
loop_
_atom_site_type_symbol
_atom_site_label
_atom_site_fract_x
_atom_site_fract_y
_atom_site_fract_z
Si Si1 0.275729 0.584070 0.741000
Si Si2 0.048868 0.858034 0.174369
Si Si3 0.048827 0.641731 0.923225
Si Si4 0.218493 0.651049 0.909203
Si Si5 0.652227 0.150672 0.553291
Si Si6 0.866682 0.859373 0.793855
Si Si7 0.750000 0.379676 0.500000
Si Si8 0.632444 0.641192 0.688753
O O1 0.250000 0.500000 0.787348
O O2 0.247639 0.658558 0.800137
O O3 0.268776 0.579894 0.611174
O O4 0.326565 0.600954 0.754121
O O5 0.048820 0.750000 0.173935
O O6 0.087478 0.884194 0.254689
O O7 0.000000 0.886235 0.205581
O O8 0.056938 0.885749 0.048813
O O9 0.048963 0.750000 0.922680
O O10 0.087204 0.613510 0.843208
O O11 0.000000 0.613208 0.892427
O O12 0.207805 0.750000 0.951993
O O13 0.172713 0.610619 0.872213
O O14 0.250000 0.609432 0.000000
O O15 0.633405 0.250000 0.557123
O O16 0.641216 0.108013 0.669911
O O17 0.704525 0.159170 0.544246
O O18 0.635610 0.111990 0.438404
O O19 0.864355 0.750000 0.791672
O O20 0.637495 0.750000 0.689944
#
# Coordination Sequence:
#
# PCOD9500763 Si02
#       8
#    16  16  16  16  16  16   8  16
#     4  11  22  34  49  71 102 134 172 209 254 302
#     4   8  14  26  45  70  99 129 164 209 258 305
#     4   8  14  24  40  64  93 124 157 198 248 299
#     4  10  21  34  50  72  96 130 169 206 251 304
#     4   9  16  26  43  67  93 126 164 204 252 298
#     4   9  16  27  43  64  93 122 158 202 244 294
#     4  10  18  32  48  64  93 132 173 210 245 302
#     4   9  18  30  48  72 100 133 171 211 254 307
#
# _framework density 21.148323000000001
#
# number of rings (size 3 to 8) (size 9 to 14) (size 15 to 20)
#    0.000    2.800    1.333    1.600    1.867    1.333 
#    0.000    0.667    0.000    4.000    0.000    0.933 
#    0.000    4.533    0.000    0.000    0.000    0.133 
#
# Total GULP energy -334070.401166 kJ/mol
# GULP energy per Si atom -5567.840019 kJ/mol
# Density = 2.110019 g / cm^3
# Si number density = 21.148323 Si / 1000 Ang^3
#
#
#
# Elastic Constant Matrix: (Units=GPa)
#
#
# Indices 1 2 3 4 5 6 
#
# 1 205.6792 14.6226 107.4848 0.0000 0.0000 0.0000
# 2 14.6226 35.3791 13.2708 0.0000 0.0000 0.0000
# 3 107.4848 13.2708 115.1351 0.0000 0.0000 0.0000
# 4 0.0000 0.0000 0.0000 -0.6429 0.0000 0.0000
# 5 0.0000 0.0000 0.0000 0.0000 42.4839 0.0000
# 6 0.0000 0.0000 0.0000 0.0000 0.0000 -4.4240
#
#
#
# Elastic Compliance Matrix: (Units=1/GPa)
#
#
# Indices 1 2 3 4 5 6 
#
# 1 0.009507 -0.000627 -0.008803 0.000000 0.000000 0.000000
# 2 -0.000627 0.029584 -0.002824 0.000000 0.000000 0.000000
# 3 -0.008803 -0.002824 0.017229 0.000000 0.000000 0.000000
# 4 0.000000 0.000000 0.000000 -1.555541 0.000000 0.000000
# 5 0.000000 0.000000 0.000000 0.000000 0.023538 0.000000
# 6 0.000000 0.000000 0.000000 0.000000 0.000000 -0.226041
#
#
# Mechanical properties :
#
#
# Convention : Reuss Voigt Hill
#
# Bulk Modulus (GPa) = 31.43585 69.66108 50.54846
# Shear Modulus (GPa) = -3.00010 22.20441 9.60216
#
# Velocity S-wave (km/s) = -1.19234 3.24379 2.13313
# Velocity P-wave (km/s) = 3.60571 6.85860 5.47912
#
# Compressibility (1/GPa) = 0.03181082
#
# Stress axis : x y z
#
# Youngs Moduli (GPa) = 105.18894 33.80210 58.04240
#
# Poissons Ratio (x) = 0.02121 0.51093
# Poissons Ratio (y) = 0.06599 0.16393
# Poissons Ratio (z) = 0.92595 0.09547
#
# Static dielectric constant tensor:
#      x y z
#    x 1.714790 0.000000 0.000000 
#    y 0.000000 1.930950 0.000000 
#    z 0.000000 0.000000 1.757320 
# 
# From -- ./inp_files/24012.got.cif
#   From: 2010.05.17/outbox.cif.g08.bks.cpg/sg67_13_cif.got.tgz:24012.got - 2010.06.03 18:28:57.
