data_PCOD9500691
_publ_section_title
;
Structure prediction by ZEFSAII (Michael W. Deem and Ramdas Pophale) SiO2 
 PCOD9500691
Probable space group: C M M A
;
_chemical_formula_sum "Si O2"
_cell_formula_units_Z 104
_cell_length_a 20.044698
_cell_length_b 32.569567
_cell_length_c 7.264324
_cell_angle_alpha 90.000000
_cell_angle_beta 90.000000
_cell_angle_gamma 90.000000
_cell_volume 4742.493108
_symmetry_space_group_name_H-M "C M M A"
_symmetry_group_IT_number 67
_symmetry_cell_setting 'orthorhombic'
loop_
_space_group_symop_operation_xyz
x,y,z
-x,1/2-y,z
x,-y,-z
-x,1/2+y,-z
-x,-y,-z
x,1/2+y,-z
-x,y,z
x,1/2-y,z
1/2+x,1/2+y,z
1/2-x,-y,z
1/2+x,1/2-y,-z
1/2-x,y,-z
1/2-x,1/2-y,-z
1/2+x,y,-z
1/2-x,1/2+y,z
1/2+x,-y,z
loop_
_atom_site_type_symbol
_atom_site_label
_atom_site_fract_x
_atom_site_fract_y
_atom_site_fract_z
Si Si1 0.500000 0.120992 0.524252
Si Si2 0.899039 0.454776 0.534723
Si Si3 0.843803 0.250000 0.838956
Si Si4 0.195874 0.084612 0.271981
Si Si5 0.921193 0.668408 0.101875
Si Si6 0.347063 0.916302 0.865514
Si Si7 0.121338 0.332423 0.327682
Si Si8 0.305150 0.750000 0.276175
O O1 0.443520 0.083705 0.525927
O O2 0.559701 0.155527 0.544532
O O3 0.924623 0.500000 0.500000
O O4 0.830186 0.447186 0.422837
O O5 0.887710 0.449307 0.751395
O O6 0.887807 0.290883 0.816080
O O7 0.775266 0.250000 0.723216
O O8 0.822707 0.250000 0.056211
O O9 0.273043 0.084613 0.218371
O O10 0.174788 0.130584 0.328899
O O11 0.157393 0.075428 0.081266
O O12 0.882389 0.627584 0.162622
O O13 0.000000 0.664010 0.140850
O O14 0.910057 0.669756 0.879848
O O15 0.160350 0.290315 0.358576
#
# Coordination Sequence:
#
# PCOD9500691 Si02
#       8
#     8  16   8  16  16  16  16   8
#     4  10  21  39  56  80 118 158 202 251 309 369
#     4  11  24  41  63  89 120 158 204 262 319 381
#     4   9  17  28  47  86 129 163 204 262 301 349
#     4   9  20  39  61  89 126 158 205 253 309 372
#     4  10  18  30  53  84 125 165 211 249 303 366
#     4  10  21  37  62  91 121 165 201 254 313 370
#     4   9  17  32  56  84 120 164 207 255 296 361
#     4   9  16  27  52  87 121 162 213 253 303 356
#
# _framework density 21.929393999999998
#
# number of rings (size 3 to 8) (size 9 to 14) (size 15 to 20)
#    0.000    2.308    0.769    1.846    1.077    5.846 
#    0.000    1.538    0.000    8.308    0.000    9.692 
#    0.000    0.000    0.000    0.000    0.000    0.000 
#
# Total GULP energy -289603.539103 kJ/mol
# GULP energy per Si atom -5569.298829 kJ/mol
# Density = 2.187948 g / cm^3
# Si number density = 21.929394 Si / 1000 Ang^3
#
#
#
# Elastic Constant Matrix: (Units=GPa)
#
#
# Indices 1 2 3 4 5 6 
#
# 1 83.8370 29.2447 22.8804 0.0000 0.0000 0.0000
# 2 29.2447 108.9147 36.9284 0.0000 0.0000 0.0000
# 3 22.8804 36.9284 72.7395 0.0000 0.0000 0.0000
# 4 0.0000 0.0000 0.0000 26.9604 0.0000 0.0000
# 5 0.0000 0.0000 0.0000 0.0000 20.2522 0.0000
# 6 0.0000 0.0000 0.0000 0.0000 0.0000 2.9651
#
#
#
# Elastic Compliance Matrix: (Units=1/GPa)
#
#
# Indices 1 2 3 4 5 6 
#
# 1 0.013662 -0.002671 -0.002941 0.000000 0.000000 0.000000
# 2 -0.002671 0.011613 -0.005055 0.000000 0.000000 0.000000
# 3 -0.002941 -0.005055 0.017239 0.000000 0.000000 0.000000
# 4 0.000000 0.000000 0.000000 0.037091 0.000000 0.000000
# 5 0.000000 0.000000 0.000000 0.000000 0.049377 0.000000
# 6 0.000000 0.000000 0.000000 0.000000 0.000000 0.337251
#
#
# Mechanical properties :
#
#
# Convention : Reuss Voigt Hill
#
# Bulk Modulus (GPa) = 47.21726 49.28868 48.25297
# Shear Modulus (GPa) = 10.10856 21.79806 15.95331
#
# Velocity S-wave (km/s) = 2.14933 3.15621 2.70012
# Velocity P-wave (km/s) = 5.26666 5.98391 5.63670
#
# Compressibility (1/GPa) = 0.02117870
#
# Stress axis : x y z
#
# Youngs Moduli (GPa) = 73.19322 86.11191 58.00648
#
# Poissons Ratio (x) = 0.23002 0.17062
# Poissons Ratio (y) = 0.19551 0.29324
# Poissons Ratio (z) = 0.21530 0.43533
#
# Static dielectric constant tensor:
#      x y z
#    x 1.795830 0.000000 0.000000 
#    y 0.000000 1.747250 0.000000 
#    z 0.000000 0.000000 1.887030 
# 
# From -- ./inp_files/11750.got.cif
#   From: 2010.05.17/outbox.cif.g08.bks.cpg/sg67_6_cif.got.tgz:11750.got - 2010.06.03 18:28:57.
