data_PCOD9500170
_publ_section_title
;
Structure prediction by ZEFSAII (Michael W. Deem and Ramdas Pophale) SiO2 
 PCOD9500170
Probable space group: C M M A
;
_chemical_formula_sum "Si O2"
_cell_formula_units_Z 52
_cell_length_a 31.178281
_cell_length_b 5.479291
_cell_length_c 19.541716
_cell_angle_alpha 90.000000
_cell_angle_beta 90.000000
_cell_angle_gamma 90.000000
_cell_volume 3338.406600
_symmetry_space_group_name_H-M "C M M A"
_symmetry_group_IT_number 67
_symmetry_cell_setting 'orthorhombic'
loop_
_space_group_symop_operation_xyz
x,y,z
-x,1/2-y,z
x,-y,-z
-x,1/2+y,-z
-x,-y,-z
x,1/2+y,-z
-x,y,z
x,1/2-y,z
1/2+x,1/2+y,z
1/2-x,-y,z
1/2+x,1/2-y,-z
1/2-x,y,-z
1/2-x,1/2-y,-z
1/2+x,y,-z
1/2-x,1/2+y,z
1/2+x,-y,z
loop_
_atom_site_type_symbol
_atom_site_label
_atom_site_fract_x
_atom_site_fract_y
_atom_site_fract_z
Si Si1 0.405490 0.750000 0.583565
Si Si2 0.202147 0.750000 0.751691
Si Si3 0.799224 0.250000 0.971691
Si Si4 0.500000 0.250000 0.454544
Si Si5 0.871089 0.250000 0.429669
Si Si6 0.799812 0.250000 0.808213
Si Si7 0.776073 0.250000 0.408927
O O1 0.456553 0.750000 0.589567
O O2 0.396657 0.750000 0.501274
O O3 0.383809 0.499548 0.608300
O O4 0.181226 0.499371 0.777483
O O5 0.249933 0.750000 0.784638
O O6 0.209740 0.750000 0.670771
O O7 0.799797 0.250000 0.889962
O O8 0.818913 0.500000 0.000000
O O9 0.750000 0.250000 0.000000
O O10 0.500000 0.500000 0.500000
O O11 0.821039 0.250000 0.448096
O O12 0.750000 0.500000 0.421178
#
# Coordination Sequence:
#
# PCOD9500170 Si02
#       7
#     8   8   8   4   8   8   8
#     4  10  19  35  47  73  86 108 120 149 205 251
#     4  10  16  27  38  50  63  86 132 169 196 222
#     4  10  16  22  31  49  68  86 104 134 206 272
#     4  12  16  30  58  72  92 104 128 140 174 274
#     4  10  20  32  48  61  91 102 129 170 200 237
#     4  10  16  25  38  48  67  86 116 172 192 242
#     4  12  21  34  44  59  73 108 148 178 204 234
#
# _framework density 15.576293
#
# number of rings (size 3 to 8) (size 9 to 14) (size 15 to 20)
#    0.000    1.538    6.154    5.538    0.000    0.000 
#    0.000    9.231    0.000    0.000    0.000    0.000 
#    0.000    0.000    0.000    0.000    0.000    0.000 
#
# Total GULP energy -144922.481189 kJ/mol
# GULP energy per Si atom -5573.941584 kJ/mol
# Density = 1.554084 g / cm^3
# Si number density = 15.576293 Si / 1000 Ang^3
#
#
#
# Elastic Constant Matrix: (Units=GPa)
#
#
# Indices 1 2 3 4 5 6 
#
# 1 70.2099 28.4750 -7.8244 0.0000 0.0000 0.0000
# 2 28.4750 191.0218 8.6594 0.0000 0.0000 0.0000
# 3 -7.8244 8.6594 65.0875 0.0000 0.0000 0.0000
# 4 0.0000 0.0000 0.0000 -25.3552 0.0000 0.0000
# 5 0.0000 0.0000 0.0000 0.0000 0.3173 0.0000
# 6 0.0000 0.0000 0.0000 0.0000 0.0000 14.3102
#
#
#
# Elastic Compliance Matrix: (Units=1/GPa)
#
#
# Indices 1 2 3 4 5 6 
#
# 1 0.015461 -0.002403 0.002178 0.000000 0.000000 0.000000
# 2 -0.002403 0.005640 -0.001039 0.000000 0.000000 0.000000
# 3 0.002178 -0.001039 0.015764 0.000000 0.000000 0.000000
# 4 0.000000 0.000000 0.000000 -0.039440 0.000000 0.000000
# 5 0.000000 0.000000 0.000000 0.000000 3.151468 0.000000
# 6 0.000000 0.000000 0.000000 0.000000 0.000000 0.069880
#
#
# Mechanical properties :
#
#
# Convention : Reuss Voigt Hill
#
# Bulk Modulus (GPa) = 29.12380 42.77102 35.94741
# Shear Modulus (GPa) = 1.54667 17.65507 9.60087
#
# Velocity S-wave (km/s) = 0.99756 3.37034 2.48539
# Velocity P-wave (km/s) = 4.47939 6.53179 5.60041
#
# Compressibility (1/GPa) = 0.03433617
#
# Stress axis : x y z
#
# Youngs Moduli (GPa) = 64.68087 177.29283 63.43538
#
# Poissons Ratio (x) = 0.42611 -0.13818
# Poissons Ratio (y) = 0.15545 0.06593
# Poissons Ratio (z) = -0.14090 0.18427
#
# Static dielectric constant tensor:
#      x y z
#    x 1.533280 0.000000 0.000000 
#    y 0.000000 1.703610 0.000000 
#    z 0.000000 0.000000 1.524320 
# 
# From -- ./inp_files/39787.got.cif
#   From: 2010.05.17/outbox.cif.g08.bks.cpg/sg67_20_cif.got.tgz:39787.got - 2010.06.03 18:28:57.
