data_PCOD9500891
_publ_section_title
;
Structure prediction by ZEFSAII (Michael W. Deem and Ramdas Pophale) SiO2 
 PCOD9500891
Probable space group: C M M A
;
_chemical_formula_sum "Si O2"
_cell_formula_units_Z 60
_cell_length_a 19.625455
_cell_length_b 22.355713
_cell_length_c 6.975011
_cell_angle_alpha 90.000000
_cell_angle_beta 90.000000
_cell_angle_gamma 90.000000
_cell_volume 3060.223576
_symmetry_space_group_name_H-M "C M M A"
_symmetry_group_IT_number 67
_symmetry_cell_setting 'orthorhombic'
loop_
_space_group_symop_operation_xyz
x,y,z
-x,1/2-y,z
x,-y,-z
-x,1/2+y,-z
-x,-y,-z
x,1/2+y,-z
-x,y,z
x,1/2-y,z
1/2+x,1/2+y,z
1/2-x,-y,z
1/2+x,1/2-y,-z
1/2-x,y,-z
1/2-x,1/2-y,-z
1/2+x,y,-z
1/2-x,1/2+y,z
1/2+x,-y,z
loop_
_atom_site_type_symbol
_atom_site_label
_atom_site_fract_x
_atom_site_fract_y
_atom_site_fract_z
Si Si1 0.000000 0.250000 0.097578
Si Si2 0.250000 0.353196 0.500000
Si Si3 0.500000 0.875146 0.260733
Si Si4 0.899350 0.116151 0.584437
Si Si5 0.092636 0.750000 0.268707
Si Si6 0.247772 0.750000 0.773165
Si Si7 0.500000 0.940376 0.872702
O O1 0.000000 0.195326 0.240983
O O2 0.063094 0.250000 0.947327
O O3 0.182687 0.386817 0.575239
O O4 0.220978 0.309450 0.331124
O O5 0.565482 0.896676 0.380165
O O6 0.500000 0.892162 0.040184
O O7 0.922652 0.184549 0.640714
O O8 0.934697 0.072042 0.737698
O O9 0.173267 0.750000 0.278392
O O10 0.250000 0.750000 0.000000
O O11 0.500000 0.000000 0.000000
#
# Coordination Sequence:
#
# PCOD9500891 Si02
#       7
#     4   8   8  16   8   8   8
#     4  12  18  28  56  86 118 154 192 236 294 354
#     4   9  20  34  54  83 122 154 194 246 292 364
#     4  11  22  34  62  83 114 158 193 242 309 364
#     4  10  21  38  57  88 122 155 201 251 309 375
#     4  10  18  33  50  84 125 147 187 244 287 367
#     4   9  19  29  49  77 123 168 185 215 289 369
#     4  11  24  42  61  84 114 155 209 263 301 359
#
# _framework density 19.606411999999999
#
# number of rings (size 3 to 8) (size 9 to 14) (size 15 to 20)
#    0.000    1.867    2.667    2.400    3.733    2.133 
#    0.000    0.000    0.000    4.800    0.000    0.000 
#    0.000    0.000    0.000    0.000    0.000    0.000 
#
# Total GULP energy -167066.161287 kJ/mol
# GULP energy per Si atom -5568.872043 kJ/mol
# Density = 1.956179 g / cm^3
# Si number density = 19.606412 Si / 1000 Ang^3
#
#
#
# Elastic Constant Matrix: (Units=GPa)
#
#
# Indices 1 2 3 4 5 6 
#
# 1 129.9379 30.4206 34.7933 0.0000 0.0000 0.0000
# 2 30.4206 40.3198 5.3437 0.0000 0.0000 0.0000
# 3 34.7933 5.3437 122.0920 0.0000 0.0000 0.0000
# 4 0.0000 0.0000 0.0000 30.1073 0.0000 0.0000
# 5 0.0000 0.0000 0.0000 0.0000 -2.1402 0.0000
# 6 0.0000 0.0000 0.0000 0.0000 0.0000 -91.7268
#
#
#
# Elastic Compliance Matrix: (Units=1/GPa)
#
#
# Indices 1 2 3 4 5 6 
#
# 1 0.010082 -0.007268 -0.002555 0.000000 0.000000 0.000000
# 2 -0.007268 0.030186 0.000750 0.000000 0.000000 0.000000
# 3 -0.002555 0.000750 0.008886 0.000000 0.000000 0.000000
# 4 0.000000 0.000000 0.000000 0.033215 0.000000 0.000000
# 5 0.000000 0.000000 0.000000 0.000000 -0.467250 0.000000
# 6 0.000000 0.000000 0.000000 0.000000 0.000000 -0.010902
#
#
# Mechanical properties :
#
#
# Convention : Reuss Voigt Hill
#
# Bulk Modulus (GPa) = 32.25006 48.16275 40.20641
# Shear Modulus (GPa) = -13.61275 2.03421 -5.78927
#
# Velocity S-wave (km/s) = -2.63782 1.01969 -1.72022
# Velocity P-wave (km/s) = 2.68459 5.09946 4.07502
#
# Compressibility (1/GPa) = 0.03100769
#
# Stress axis : x y z
#
# Youngs Moduli (GPa) = 99.19035 33.12825 112.53898
#
# Poissons Ratio (x) = 0.24077 0.28753
# Poissons Ratio (y) = 0.72090 -0.08440
# Poissons Ratio (z) = 0.25342 -0.02485
#
# Static dielectric constant tensor:
#      x y z
#    x 1.408690 0.000000 0.000000 
#    y 0.000000 1.982630 0.000000 
#    z 0.000000 0.000000 1.716270 
# 
# From -- ./inp_files/2800.got.cif
#   From: 2010.05.17/outbox.cif.g08.bks.cpg/sg67_2_cif.got.tgz:2800.got - 2010.06.03 18:28:57.
