data_PCOD9500587
_publ_section_title
;
Structure prediction by ZEFSAII (Michael W. Deem and Ramdas Pophale) SiO2 
 PCOD9500587
Probable space group: C M M A
;
_chemical_formula_sum "Si O2"
_cell_formula_units_Z 104
_cell_length_a 8.599537
_cell_length_b 31.417832
_cell_length_c 23.542187
_cell_angle_alpha 90.000000
_cell_angle_beta 90.000000
_cell_angle_gamma 90.000000
_cell_volume 6360.600039
_symmetry_space_group_name_H-M "C M M A"
_symmetry_group_IT_number 67
_symmetry_cell_setting 'orthorhombic'
loop_
_space_group_symop_operation_xyz
x,y,z
-x,1/2-y,z
x,-y,-z
-x,1/2+y,-z
-x,-y,-z
x,1/2+y,-z
-x,y,z
x,1/2-y,z
1/2+x,1/2+y,z
1/2-x,-y,z
1/2+x,1/2-y,-z
1/2-x,y,-z
1/2-x,1/2-y,-z
1/2+x,y,-z
1/2-x,1/2+y,z
1/2+x,-y,z
loop_
_atom_site_type_symbol
_atom_site_label
_atom_site_fract_x
_atom_site_fract_y
_atom_site_fract_z
Si Si1 0.313612 0.130506 0.267677
Si Si2 0.185647 0.454674 0.315757
Si Si3 0.812876 0.928194 0.439465
Si Si4 0.188723 0.750000 0.437049
Si Si5 0.676713 0.198544 0.058927
Si Si6 0.685035 0.200631 0.818808
Si Si7 0.688126 0.160553 0.392870
O O1 0.500000 0.126601 0.264287
O O2 0.242269 0.083297 0.274252
O O3 0.257117 0.163926 0.220562
O O4 0.269769 0.150511 0.328544
O O5 0.250000 0.500000 0.295875
O O6 0.251320 0.447978 0.380303
O O7 0.000000 0.454601 0.318750
O O8 0.750000 0.944604 0.500000
O O9 0.762787 0.878553 0.432591
O O10 0.000000 0.931386 0.439317
O O11 0.250000 0.750000 0.500000
O O12 0.246489 0.706684 0.409106
O O13 0.000000 0.750000 0.435522
O O14 0.500000 0.183308 0.065476
O O15 0.671490 0.250000 0.054504
O O16 0.772794 0.190154 0.115897
O O17 0.750000 0.182697 0.000000
O O18 0.500000 0.200574 0.811501
O O19 0.739894 0.250000 0.807452
O O20 0.500000 0.161107 0.395748
#
# Coordination Sequence:
#
# PCOD9500587 Si02
#       7
#    16  16  16   8  16  16  16
#     4  10  20  35  53  74  98 129 167 208 251 300
#     4  11  22  38  57  76  98 125 156 199 252 308
#     4  10  19  33  50  72  96 122 154 194 243 301
#     4  10  18  30  44  62  84 114 153 194 235 280
#     4   9  16  27  44  67  97 136 178 217 256 296
#     4  10  20  32  47  72 106 142 179 217 252 293
#     4   8  17  30  46  64  88 119 156 196 240 288
#
# _framework density 16.350659
#
# number of rings (size 3 to 8) (size 9 to 14) (size 15 to 20)
#    0.000    2.308    0.000    4.615    1.077    3.077 
#    0.000    5.385    0.000    0.000    0.000    0.000 
#    0.000    0.615    0.000    6.154    0.000    4.000 
#
# Total GULP energy -289791.973430 kJ/mol
# GULP energy per Si atom -5572.922566 kJ/mol
# Density = 1.631344 g / cm^3
# Si number density = 16.350659 Si / 1000 Ang^3
#
#
#
# Elastic Constant Matrix: (Units=GPa)
#
#
# Indices 1 2 3 4 5 6 
#
# 1 78.6971 34.6492 30.0469 0.0000 0.0000 0.0000
# 2 34.6492 117.2627 46.6850 0.0000 0.0000 0.0000
# 3 30.0469 46.6850 85.4561 0.0000 0.0000 0.0000
# 4 0.0000 0.0000 0.0000 8.3570 0.0000 0.0000
# 5 0.0000 0.0000 0.0000 0.0000 28.2028 0.0000
# 6 0.0000 0.0000 0.0000 0.0000 0.0000 19.9724
#
#
#
# Elastic Compliance Matrix: (Units=1/GPa)
#
#
# Indices 1 2 3 4 5 6 
#
# 1 0.015502 -0.003081 -0.003768 0.000000 0.000000 0.000000
# 2 -0.003081 0.011510 -0.005205 0.000000 0.000000 0.000000
# 3 -0.003768 -0.005205 0.015870 0.000000 0.000000 0.000000
# 4 0.000000 0.000000 0.000000 0.119660 0.000000 0.000000
# 5 0.000000 0.000000 0.000000 0.000000 0.035457 0.000000
# 6 0.000000 0.000000 0.000000 0.000000 0.000000 0.050069
#
#
# Mechanical properties :
#
#
# Convention : Reuss Voigt Hill
#
# Bulk Modulus (GPa) = 53.25965 56.01978 54.63971
# Shear Modulus (GPa) = 17.95762 22.64211 20.29986
#
# Velocity S-wave (km/s) = 3.31763 3.72530 3.52736
# Velocity P-wave (km/s) = 6.87893 7.26909 7.07670
#
# Compressibility (1/GPa) = 0.01877594
#
# Stress axis : x y z
#
# Youngs Moduli (GPa) = 64.50885 86.87832 63.01147
#
# Poissons Ratio (x) = 0.26763 0.23740
# Poissons Ratio (y) = 0.19872 0.32797
# Poissons Ratio (z) = 0.24304 0.45220
#
# Static dielectric constant tensor:
#      x y z
#    x 1.558000 0.000000 0.000000 
#    y 0.000000 1.566920 0.000000 
#    z 0.000000 0.000000 1.513250 
# 
# From -- ./inp_files/37497.got.cif
#   From: 2010.05.17/outbox.cif.g08.bks.cpg/sg67_19_cif.got.tgz:37497.got - 2010.06.03 18:28:57.
