data_PCOD9500659
_publ_section_title
;
Structure prediction by ZEFSAII (Michael W. Deem and Ramdas Pophale) SiO2 
 PCOD9500659
Probable space group: C M M A
;
_chemical_formula_sum "Si O2"
_cell_formula_units_Z 72
_cell_length_a 7.755754
_cell_length_b 33.174643
_cell_length_c 13.927624
_cell_angle_alpha 90.000000
_cell_angle_beta 90.000000
_cell_angle_gamma 90.000000
_cell_volume 3583.499245
_symmetry_space_group_name_H-M "C M M A"
_symmetry_group_IT_number 67
_symmetry_cell_setting 'orthorhombic'
loop_
_space_group_symop_operation_xyz
x,y,z
-x,1/2-y,z
x,-y,-z
-x,1/2+y,-z
-x,-y,-z
x,1/2+y,-z
-x,y,z
x,1/2-y,z
1/2+x,1/2+y,z
1/2-x,-y,z
1/2+x,1/2-y,-z
1/2-x,y,-z
1/2-x,1/2-y,-z
1/2+x,y,-z
1/2-x,1/2+y,z
1/2+x,-y,z
loop_
_atom_site_type_symbol
_atom_site_label
_atom_site_fract_x
_atom_site_fract_y
_atom_site_fract_z
Si Si1 0.710996 0.334451 0.303743
Si Si2 0.293126 0.544830 0.804851
Si Si3 0.292481 0.250000 0.388135
Si Si4 0.206562 0.918294 0.392430
Si Si5 0.206589 0.872772 0.106893
O O1 0.500000 0.333974 0.305724
O O2 0.772414 0.291378 0.340743
O O3 0.765891 0.372480 0.369363
O O4 0.765865 0.344990 0.195176
O O5 0.500000 0.547426 0.803273
O O6 0.250000 0.500000 0.836413
O O7 0.230290 0.554055 0.695856
O O8 0.229351 0.581740 0.870608
O O9 0.500000 0.250000 0.377723
O O10 0.250000 0.250000 0.500000
O O11 0.250000 0.930929 0.500000
O O12 0.000000 0.917818 0.386052
O O13 0.000000 0.873732 0.113493
O O14 0.250000 0.859708 0.000000
#
# Coordination Sequence:
#
# PCOD9500659 Si02
#       5
#    16  16   8  16  16
#     4   8  16  31  49  69  96 126 155 186 228 278
#     4   9  19  33  47  65  92 121 152 191 234 278
#     4  10  18  30  51  76 100 128 157 188 225 268
#     4   9  17  30  46  65  91 124 156 188 227 274
#     4   9  18  34  52  69  91 122 156 191 232 278
#
# _framework density 20.092092999999998
#
# number of rings (size 3 to 8) (size 9 to 14) (size 15 to 20)
#    0.000    3.111    0.000    3.333    0.000    2.667 
#    0.000    9.444    0.000    0.000    0.000    0.000 
#    0.000    0.000    0.000    0.000    0.000    0.000 
#
# Total GULP energy -200726.440071 kJ/mol
# GULP energy per Si atom -5575.734446 kJ/mol
# Density = 2.004636 g / cm^3
# Si number density = 20.092093 Si / 1000 Ang^3
#
#
#
# Elastic Constant Matrix: (Units=GPa)
#
#
# Indices 1 2 3 4 5 6 
#
# 1 24.0693 1.9801 -3.6816 0.0000 0.0000 0.0000
# 2 1.9801 98.8725 22.2833 0.0000 0.0000 0.0000
# 3 -3.6816 22.2833 100.2888 0.0000 0.0000 0.0000
# 4 0.0000 0.0000 0.0000 10.6945 0.0000 0.0000
# 5 0.0000 0.0000 0.0000 0.0000 23.1839 0.0000
# 6 0.0000 0.0000 0.0000 0.0000 0.0000 15.5559
#
#
#
# Elastic Compliance Matrix: (Units=1/GPa)
#
#
# Indices 1 2 3 4 5 6 
#
# 1 0.041927 -0.001249 0.001817 0.000000 0.000000 0.000000
# 2 -0.001249 0.010684 -0.002420 0.000000 0.000000 0.000000
# 3 0.001817 -0.002420 0.010576 0.000000 0.000000 0.000000
# 4 0.000000 0.000000 0.000000 0.093506 0.000000 0.000000
# 5 0.000000 0.000000 0.000000 0.000000 0.043133 0.000000
# 6 0.000000 0.000000 0.000000 0.000000 0.000000 0.064284
#
#
# Mechanical properties :
#
#
# Convention : Reuss Voigt Hill
#
# Bulk Modulus (GPa) = 16.81159 29.37713 23.09436
# Shear Modulus (GPa) = 17.38265 23.39679 20.38972
#
# Velocity S-wave (km/s) = 2.94453 3.41615 3.18907
# Velocity P-wave (km/s) = 4.46607 5.49664 5.00794
#
# Compressibility (1/GPa) = 0.05948279
#
# Stress axis : x y z
#
# Youngs Moduli (GPa) = 23.85080 93.59423 94.55769
#
# Poissons Ratio (x) = 0.11691 -0.17178
# Poissons Ratio (y) = 0.02979 0.22881
# Poissons Ratio (z) = -0.04333 0.22648
#
# Static dielectric constant tensor:
#      x y z
#    x 1.749580 0.000000 0.000000 
#    y 0.000000 1.708190 0.000000 
#    z 0.000000 0.000000 1.702100 
# 
# From -- ./inp_files/16595.got.cif
#   From: 2010.05.17/outbox.cif.g08.bks.cpg/sg67_9_cif.got.tgz:16595.got - 2010.06.03 18:28:57.
