data_PCOD9500254
_publ_section_title
;
Structure prediction by ZEFSAII (Michael W. Deem and Ramdas Pophale) SiO2 
 PCOD9500254
Probable space group: C M M A
;
_chemical_formula_sum "Si O2"
_cell_formula_units_Z 80
_cell_length_a 15.016618
_cell_length_b 8.660176
_cell_length_c 28.040977
_cell_angle_alpha 90.000000
_cell_angle_beta 90.000000
_cell_angle_gamma 90.000000
_cell_volume 3646.632452
_symmetry_space_group_name_H-M "C M M A"
_symmetry_group_IT_number 67
_symmetry_cell_setting 'orthorhombic'
loop_
_space_group_symop_operation_xyz
x,y,z
-x,1/2-y,z
x,-y,-z
-x,1/2+y,-z
-x,-y,-z
x,1/2+y,-z
-x,y,z
x,1/2-y,z
1/2+x,1/2+y,z
1/2-x,-y,z
1/2+x,1/2-y,-z
1/2-x,y,-z
1/2-x,1/2-y,-z
1/2+x,y,-z
1/2-x,1/2+y,z
1/2+x,-y,z
loop_
_atom_site_type_symbol
_atom_site_label
_atom_site_fract_x
_atom_site_fract_y
_atom_site_fract_z
Si Si1 0.851183 0.065172 0.548510
Si Si2 0.351330 0.435532 0.347340
Si Si3 0.851722 0.065730 0.249740
Si Si4 0.850070 0.936651 0.152148
Si Si5 0.105875 0.078821 0.952338
O O1 0.847813 0.250000 0.545140
O O2 0.890830 0.025775 0.600536
O O3 0.892964 0.000000 0.500000
O O4 0.750000 0.000000 0.549402
O O5 0.349235 0.250000 0.342700
O O6 0.250000 0.500000 0.349034
O O7 0.392373 0.506587 0.299460
O O8 0.849137 0.250000 0.248935
O O9 0.750000 0.000000 0.250319
O O10 0.892757 0.002821 0.200506
O O11 0.854765 0.750000 0.154429
O O12 0.883827 0.991055 0.100339
O O13 0.750000 0.000000 0.152916
O O14 0.145742 0.250000 0.949748
O O15 0.000000 0.091735 0.959103
O O16 0.141622 0.000000 0.000000
#
# Coordination Sequence:
#
# PCOD9500254 Si02
#       5
#    16  16  16  16  16
#     4   9  15  20  27  38  55  81 116 159 202 244
#     4   9  15  22  31  44  63  90 124 162 206 251
#     4  10  17  25  38  55  76 102 133 169 210 254
#     4  10  19  31  47  67  92 117 144 180 218 258
#     4   9  19  35  53  71  91 118 149 179 213 254
#
# _framework density 21.93805
#
# number of rings (size 3 to 8) (size 9 to 14) (size 15 to 20)
#    0.000    2.600    0.000    6.600    0.000    4.400 
#    0.000    2.000    0.000    0.000    0.000    0.000 
#    0.000    0.000    0.000    0.000    0.000    1.000 
#
# Total GULP energy -222872.287162 kJ/mol
# GULP energy per Si atom -5571.807179 kJ/mol
# Density = 2.188812 g / cm^3
# Si number density = 21.938050 Si / 1000 Ang^3
#
#
#
# Elastic Constant Matrix: (Units=GPa)
#
#
# Indices 1 2 3 4 5 6 
#
# 1 44.5801 3.7600 16.5665 0.0000 0.0000 0.0000
# 2 3.7600 107.5503 92.1109 0.0000 0.0000 0.0000
# 3 16.5665 92.1109 305.0319 0.0000 0.0000 0.0000
# 4 0.0000 0.0000 0.0000 38.3991 0.0000 0.0000
# 5 0.0000 0.0000 0.0000 0.0000 104.6652 0.0000
# 6 0.0000 0.0000 0.0000 0.0000 0.0000 -8.9222
#
#
#
# Elastic Compliance Matrix: (Units=1/GPa)
#
#
# Indices 1 2 3 4 5 6 
#
# 1 0.022904 0.000357 -0.001352 0.000000 0.000000 0.000000
# 2 0.000357 0.012547 -0.003808 0.000000 0.000000 0.000000
# 3 -0.001352 -0.003808 0.004502 0.000000 0.000000 0.000000
# 4 0.000000 0.000000 0.000000 0.026042 0.000000 0.000000
# 5 0.000000 0.000000 0.000000 0.000000 0.009554 0.000000
# 6 0.000000 0.000000 0.000000 0.000000 0.000000 -0.112080
#
#
# Mechanical properties :
#
#
# Convention : Reuss Voigt Hill
#
# Bulk Modulus (GPa) = 32.95274 75.78191 54.36733
# Shear Modulus (GPa) = -297.45099 49.81010 -123.82044
#
# Velocity S-wave (km/s) = -11.65681 4.77013 -7.52087
# Velocity P-wave (km/s) = 12.88881 8.05962 7.11210
#
# Compressibility (1/GPa) = 0.03034649
#
# Stress axis : x y z
#
# Youngs Moduli (GPa) = 43.66102 79.70007 222.13664
#
# Poissons Ratio (x) = -0.02845 0.30026
# Poissons Ratio (y) = -0.01558 0.84595
# Poissons Ratio (z) = 0.05902 0.30352
#
# Static dielectric constant tensor:
#      x y z
#    x 1.815520 0.000000 0.000000 
#    y 0.000000 1.766010 0.000000 
#    z 0.000000 0.000000 1.926720 
# 
# From -- ./inp_files/45181.got.cif
#   From: 2010.05.17/outbox.cif.g08.bks.cpg/sg67_23_cif.got.tgz:45181.got - 2010.06.03 18:28:57.
