data_PCOD9500440
_publ_section_title
;
Structure prediction by ZEFSAII (Michael W. Deem and Ramdas Pophale) SiO2 
 PCOD9500440
Probable space group: C M M A
;
_chemical_formula_sum "Si O2"
_cell_formula_units_Z 68
_cell_length_a 14.632301
_cell_length_b 19.806722
_cell_length_c 12.437093
_cell_angle_alpha 90.000000
_cell_angle_beta 90.000000
_cell_angle_gamma 90.000000
_cell_volume 3604.492401
_symmetry_space_group_name_H-M "C M M A"
_symmetry_group_IT_number 67
_symmetry_cell_setting 'orthorhombic'
loop_
_space_group_symop_operation_xyz
x,y,z
-x,1/2-y,z
x,-y,-z
-x,1/2+y,-z
-x,-y,-z
x,1/2+y,-z
-x,y,z
x,1/2-y,z
1/2+x,1/2+y,z
1/2-x,-y,z
1/2+x,1/2-y,-z
1/2-x,y,-z
1/2-x,1/2-y,-z
1/2+x,y,-z
1/2-x,1/2+y,z
1/2+x,-y,z
loop_
_atom_site_type_symbol
_atom_site_label
_atom_site_fract_x
_atom_site_fract_y
_atom_site_fract_z
Si Si1 0.610502 0.537599 0.891141
Si Si2 0.388838 0.324498 0.021928
Si Si3 0.159117 0.036133 0.329854
Si Si4 0.000000 0.500000 0.500000
Si Si5 0.389641 0.171487 0.769492
O O1 0.500000 0.537772 0.890348
O O2 0.640532 0.499819 0.785011
O O3 0.639000 0.500000 0.000000
O O4 0.643019 0.614694 0.903350
O O5 0.500000 0.323182 0.027064
O O6 0.355401 0.250000 0.052253
O O7 0.367957 0.337589 0.896423
O O8 0.160917 0.115903 0.302153
O O9 0.250000 0.000000 0.370441
O O10 0.078876 0.021377 0.412144
O O11 0.500000 0.160617 0.759216
O O12 0.371453 0.250000 0.742511
#
# Coordination Sequence:
#
# PCOD9500440 Si02
#       5
#    16  16  16   4  16
#     4  10  17  31  57  86 125 160 191 248 306 373
#     4   8  14  25  49  85 125 166 200 231 293 377
#     4  12  24  40  65  94 122 162 209 266 317 367
#     4  12  26  48  64  82 120 160 218 270 310 370
#     4   9  16  33  62  92 125 165 207 252 300 363
#
# _framework density 18.865347
#
# number of rings (size 3 to 8) (size 9 to 14) (size 15 to 20)
#    0.000    2.118    4.706    1.765    0.000    0.471 
#    0.000    1.176    0.000    9.882    0.000    0.000 
#    0.000    0.000    0.000    0.000    0.000    0.000 
#
# Total GULP energy -189274.305841 kJ/mol
# GULP energy per Si atom -5566.891348 kJ/mol
# Density = 1.882241 g / cm^3
# Si number density = 18.865347 Si / 1000 Ang^3
#
#
#
# Elastic Constant Matrix: (Units=GPa)
#
#
# Indices 1 2 3 4 5 6 
#
# 1 70.3201 35.0009 5.6806 0.0000 0.0000 0.0000
# 2 35.0009 138.7503 45.2995 0.0000 0.0000 0.0000
# 3 5.6806 45.2995 78.3594 0.0000 0.0000 0.0000
# 4 0.0000 0.0000 0.0000 5.5970 0.0000 0.0000
# 5 0.0000 0.0000 0.0000 0.0000 17.0180 0.0000
# 6 0.0000 0.0000 0.0000 0.0000 0.0000 14.9086
#
#
#
# Elastic Compliance Matrix: (Units=1/GPa)
#
#
# Indices 1 2 3 4 5 6 
#
# 1 0.016401 -0.004621 0.001483 0.000000 0.000000 0.000000
# 2 -0.004621 0.010186 -0.005554 0.000000 0.000000 0.000000
# 3 0.001483 -0.005554 0.015865 0.000000 0.000000 0.000000
# 4 0.000000 0.000000 0.000000 0.178666 0.000000 0.000000
# 5 0.000000 0.000000 0.000000 0.000000 0.058761 0.000000
# 6 0.000000 0.000000 0.000000 0.000000 0.000000 0.067076
#
#
# Mechanical properties :
#
#
# Convention : Reuss Voigt Hill
#
# Bulk Modulus (GPa) = 39.89251 51.04353 45.46802
# Shear Modulus (GPa) = 13.41580 20.93465 17.17522
#
# Velocity S-wave (km/s) = 2.66960 3.33481 3.02058
# Velocity P-wave (km/s) = 5.54023 6.47638 6.02651
#
# Compressibility (1/GPa) = 0.02506737
#
# Stress axis : x y z
#
# Youngs Moduli (GPa) = 60.97137 98.17295 63.03287
#
# Poissons Ratio (x) = 0.45369 -0.09345
# Poissons Ratio (y) = 0.28177 0.35006
# Poissons Ratio (z) = -0.09040 0.54521
#
# Static dielectric constant tensor:
#      x y z
#    x 1.714900 0.000000 0.000000 
#    y 0.000000 1.695510 0.000000 
#    z 0.000000 0.000000 1.604490 
# 
# From -- ./inp_files/17724.got.cif
#   From: 2010.05.17/outbox.cif.g08.bks.cpg/sg67_9_cif.got.tgz:17724.got - 2010.06.03 18:28:57.
