data_PCOD9500731
_publ_section_title
;
Structure prediction by ZEFSAII (Michael W. Deem and Ramdas Pophale) SiO2 
 PCOD9500731
Probable space group: C M M A
;
_chemical_formula_sum "Si O2"
_cell_formula_units_Z 64
_cell_length_a 26.202728
_cell_length_b 22.653695
_cell_length_c 5.430788
_cell_angle_alpha 90.000000
_cell_angle_beta 90.000000
_cell_angle_gamma 90.000000
_cell_volume 3223.653891
_symmetry_space_group_name_H-M "C M M A"
_symmetry_group_IT_number 67
_symmetry_cell_setting 'orthorhombic'
loop_
_space_group_symop_operation_xyz
x,y,z
-x,1/2-y,z
x,-y,-z
-x,1/2+y,-z
-x,-y,-z
x,1/2+y,-z
-x,y,z
x,1/2-y,z
1/2+x,1/2+y,z
1/2-x,-y,z
1/2+x,1/2-y,-z
1/2-x,y,-z
1/2-x,1/2-y,-z
1/2+x,y,-z
1/2-x,1/2+y,z
1/2+x,-y,z
loop_
_atom_site_type_symbol
_atom_site_label
_atom_site_fract_x
_atom_site_fract_y
_atom_site_fract_z
Si Si1 0.109953 0.076578 0.345736
Si Si2 0.058409 0.069943 0.847959
Si Si3 0.271322 0.567084 0.251546
Si Si4 0.941173 0.181686 0.140410
O O1 0.095433 0.057107 0.619950
O O2 0.167899 0.065203 0.271277
O O3 0.096365 0.146161 0.320502
O O4 0.074450 0.050631 0.125760
O O5 0.000000 0.054630 0.789977
O O6 0.060710 0.141444 0.894528
O O7 0.250000 0.500000 0.250964
O O8 0.250000 0.595958 0.500000
O O9 0.250000 0.594507 0.000000
O O10 0.929375 0.250000 0.105339
O O11 0.000000 0.176551 0.230480
#
# Coordination Sequence:
#
# PCOD9500731 Si02
#       4
#    16  16  16  16
#     4  10  18  31  52  77 107 142 174 217 266 307
#     4   9  17  29  47  78 108 141 172 203 252 320
#     4  10  21  37  57  81  99 127 183 239 271 308
#     4   8  16  29  48  78 112 143 174 204 246 316
#
# _framework density 19.853247
#
# number of rings (size 3 to 8) (size 9 to 14) (size 15 to 20)
#    1.500    1.250    0.000    3.000    0.000    1.000 
#    0.000    2.500    0.000    1.500    0.000  119.000 
#    0.000    0.000    0.000    0.000    0.000    0.000 
#
# Total GULP energy -178210.250393 kJ/mol
# GULP energy per Si atom -5569.070325 kJ/mol
# Density = 1.980806 g / cm^3
# Si number density = 19.853247 Si / 1000 Ang^3
#
#
#
# Elastic Constant Matrix: (Units=GPa)
#
#
# Indices 1 2 3 4 5 6 
#
# 1 132.8543 15.3616 56.1532 0.0000 0.0000 0.0000
# 2 15.3616 74.0381 15.3061 0.0000 0.0000 0.0000
# 3 56.1532 15.3061 154.4385 0.0000 0.0000 0.0000
# 4 0.0000 0.0000 0.0000 15.1672 0.0000 0.0000
# 5 0.0000 0.0000 0.0000 0.0000 33.2880 0.0000
# 6 0.0000 0.0000 0.0000 0.0000 0.0000 4.6273
#
#
#
# Elastic Compliance Matrix: (Units=1/GPa)
#
#
# Indices 1 2 3 4 5 6 
#
# 1 0.009000 -0.001216 -0.003152 0.000000 0.000000 0.000000
# 2 -0.001216 0.013953 -0.000941 0.000000 0.000000 0.000000
# 3 -0.003152 -0.000941 0.007714 0.000000 0.000000 0.000000
# 4 0.000000 0.000000 0.000000 0.065932 0.000000 0.000000
# 5 0.000000 0.000000 0.000000 0.000000 0.030041 0.000000
# 6 0.000000 0.000000 0.000000 0.000000 0.000000 0.216110
#
#
# Mechanical properties :
#
#
# Convention : Reuss Voigt Hill
#
# Bulk Modulus (GPa) = 49.87368 59.44139 54.65753
# Shear Modulus (GPa) = 13.88694 28.91716 21.40205
#
# Velocity S-wave (km/s) = 2.64764 3.82061 3.28687
# Velocity P-wave (km/s) = 5.87557 7.03336 6.48037
#
# Compressibility (1/GPa) = 0.02005066
#
# Stress axis : x y z
#
# Youngs Moduli (GPa) = 111.11391 71.66759 129.62945
#
# Poissons Ratio (x) = 0.08713 0.40857
# Poissons Ratio (y) = 0.13508 0.12196
# Poissons Ratio (z) = 0.35021 0.06743
#
# Static dielectric constant tensor:
#      x y z
#    x 1.667390 0.000000 0.000000 
#    y 0.000000 1.797940 0.000000 
#    z 0.000000 0.000000 1.975910 
# 
# From -- ./inp_files/3421.got.cif
#   From: 2010.05.17/outbox.cif.g08.bks.cpg/sg67_2_cif.got.tgz:3421.got - 2010.06.03 18:28:57.
