data_PCOD9500120
_publ_section_title
;
Structure prediction by ZEFSAII (Michael W. Deem and Ramdas Pophale) SiO2 
 PCOD9500120
Probable space group: C C C M
;
_chemical_formula_sum "Si O2"
_cell_formula_units_Z 56
_cell_length_a 30.000000
_cell_length_b 12.000000
_cell_length_c 15.000000
_cell_angle_alpha 90.000000
_cell_angle_beta 90.000000
_cell_angle_gamma 90.000000
_cell_volume 5400.000000
_symmetry_space_group_name_H-M "C C C M"
_symmetry_group_IT_number 66
_symmetry_cell_setting 'orthorhombic'
loop_
_space_group_symop_operation_xyz
x,y,z
-x,-y,z
x,-y,1/2-z
-x,y,1/2-z
-x,-y,-z
x,y,-z
-x,y,1/2+z
x,-y,1/2+z
1/2+x,1/2+y,z
1/2-x,1/2-y,z
1/2+x,1/2-y,1/2-z
1/2-x,1/2+y,1/2-z
1/2-x,1/2-y,-z
1/2+x,1/2+y,-z
1/2-x,1/2+y,1/2+z
1/2+x,1/2-y,1/2+z
loop_
_atom_site_type_symbol
_atom_site_label
_atom_site_fract_x
_atom_site_fract_y
_atom_site_fract_z
Si Si1 0.571745 0.956290 0.607236
Si Si2 0.234415 0.129309 0.397484
Si Si3 0.042072 0.923198 0.394378
Si Si4 0.674784 0.997237 0.854818
Si Si5 0.353773 0.473187 0.849877
Si Si6 0.516138 0.174429 0.609148
Si Si7 0.699002 0.747507 0.895561
O O1 0.570434 0.954621 0.500000
O O2 0.624920 0.951642 0.629107
O O3 0.534691 0.862795 0.635931
O O4 0.549948 0.074648 0.636866
O O5 0.224510 0.154116 0.500000
O O6 0.250000 0.250000 0.355762
O O7 0.280139 0.056015 0.392380
O O8 0.188575 0.060297 0.371146
O O9 0.034999 0.915702 0.500000
O O10 0.094440 0.965639 0.387582
O O11 0.033472 0.795905 0.360125
O O12 0.000000 0.000000 0.360954
O O13 0.681634 0.000000 0.750000
O O14 0.676683 0.868489 0.885291
O O15 0.364075 0.500000 0.750000
O O16 0.331043 0.351904 0.858309
O O17 0.516410 0.174358 0.500000
O O18 0.750000 0.750000 0.859827
O O19 0.702720 0.720981 0.000000
#
# Coordination Sequence:
#
# PCOD9500120 Si02
#       7
#    16  16  16  16  16  16  16
#     4   9  17  34  62  90 121 161 209 261 319 381
#     4  11  25  44  66  92 129 175 219 263 321 402
#     4  10  21  39  64  91 121 167 222 264 311 388
#     4  12  25  38  62  96 140 170 213 271 336 394
#     4  12  26  42  68  96 136 169 212 279 340 387
#     4   8  16  34  61  91 117 155 213 271 311 362
#     4  11  23  42  71  96 123 174 233 273 313 390
#
# _framework density 10.370369999999999
#
# number of rings (size 3 to 8) (size 9 to 14) (size 15 to 20)
#    0.000    1.571    1.429    4.714    2.000    2.571 
#    0.000    4.286    3.143    0.000    0.000    0.000 
#    0.000    0.000    0.000    0.000    0.000    0.000 
#
# Total GULP energy -311747.667700 kJ/mol
# GULP energy per Si atom -5566.922637 kJ/mol
# Density = 1.034677 g / cm^3
# Si number density = 10.370370 Si / 1000 Ang^3
#
#
#
# Elastic Constant Matrix: (Units=GPa)
#
#
# Indices 1 2 3 4 5 6 
#
# 1 177.7599 52.1978 -9.2737 0.0000 0.0000 0.0000
# 2 52.1978 128.3363 6.1070 0.0000 0.0000 0.0000
# 3 -9.2737 6.1070 44.7595 0.0000 0.0000 0.0000
# 4 0.0000 0.0000 0.0000 18.0779 0.0000 0.0000
# 5 0.0000 0.0000 0.0000 0.0000 42.6159 0.0000
# 6 0.0000 0.0000 0.0000 0.0000 0.0000 35.5213
#
#
#
# Elastic Compliance Matrix: (Units=1/GPa)
#
#
# Indices 1 2 3 4 5 6 
#
# 1 0.006518 -0.002733 0.001723 0.000000 0.000000 0.000000
# 2 -0.002733 0.008989 -0.001793 0.000000 0.000000 0.000000
# 3 0.001723 -0.001793 0.022943 0.000000 0.000000 0.000000
# 4 0.000000 0.000000 0.000000 0.055316 0.000000 0.000000
# 5 0.000000 0.000000 0.000000 0.000000 0.023465 0.000000
# 6 0.000000 0.000000 0.000000 0.000000 0.000000 0.028152
#
#
# Mechanical properties :
#
#
# Convention : Reuss Voigt Hill
#
# Bulk Modulus (GPa) = 30.44563 49.87975 40.16269
# Shear Modulus (GPa) = 30.87615 39.36466 35.12041
#
# Velocity S-wave (km/s) = 3.86252 4.36126 4.11944
# Velocity P-wave (km/s) = 5.88244 7.03293 6.48326
#
# Compressibility (1/GPa) = 0.03284544
#
# Stress axis : x y z
#
# Youngs Moduli (GPa) = 153.42096 111.24781 43.58572
#
# Poissons Ratio (x) = 0.30405 -0.07511
# Poissons Ratio (y) = 0.41931 0.07814
# Poissons Ratio (z) = -0.26440 0.19944
#
# Static dielectric constant tensor:
#      x y z
#    x 1.768870 0.000000 0.000000 
#    y 0.000000 1.629060 0.000000 
#    z 0.000000 0.000000 1.761700 
# 
# From -- ./inp_files/33840.got.cif
#   From: 2010.05.17/outbox.ucp.g08.bks.cvg/sg66_17_cif.got.tgz:33840.got - 2010.06.11 16:44:13.
