data_PCOD9500473
_publ_section_title
;
Structure prediction by ZEFSAII (Michael W. Deem and Ramdas Pophale) SiO2 
 PCOD9500473
Probable space group: C M M A
;
_chemical_formula_sum "Si O2"
_cell_formula_units_Z 96
_cell_length_a 16.353676
_cell_length_b 14.514563
_cell_length_c 18.944676
_cell_angle_alpha 90.000000
_cell_angle_beta 90.000000
_cell_angle_gamma 90.000000
_cell_volume 4496.830689
_symmetry_space_group_name_H-M "C M M A"
_symmetry_group_IT_number 67
_symmetry_cell_setting 'orthorhombic'
loop_
_space_group_symop_operation_xyz
x,y,z
-x,1/2-y,z
x,-y,-z
-x,1/2+y,-z
-x,-y,-z
x,1/2+y,-z
-x,y,z
x,1/2-y,z
1/2+x,1/2+y,z
1/2-x,-y,z
1/2+x,1/2-y,-z
1/2-x,y,-z
1/2-x,1/2-y,-z
1/2+x,y,-z
1/2-x,1/2+y,z
1/2+x,-y,z
loop_
_atom_site_type_symbol
_atom_site_label
_atom_site_fract_x
_atom_site_fract_y
_atom_site_fract_z
Si Si1 0.408791 0.614146 0.924184
Si Si2 0.660353 0.643900 0.537372
Si Si3 0.911088 0.137102 0.395211
Si Si4 0.742183 0.360901 0.326688
Si Si5 0.908833 0.890517 0.911581
Si Si6 0.254579 0.891795 0.837339
O O1 0.500000 0.644989 0.902848
O O2 0.409629 0.502547 0.915347
O O3 0.331634 0.647197 0.879699
O O4 0.397211 0.637044 0.006667
O O5 0.633817 0.750000 0.547556
O O6 0.750000 0.645212 0.500000
O O7 0.603254 0.605033 0.476025
O O8 0.677778 0.603089 0.614601
O O9 0.909754 0.250000 0.396690
O O10 0.833283 0.108934 0.349192
O O11 0.000000 0.107770 0.369139
O O12 0.740430 0.250000 0.334032
O O13 0.729226 0.382741 0.245581
O O14 0.834076 0.857261 0.863286
O O15 0.000000 0.861897 0.888328
O O16 0.250000 0.000000 0.854004
#
# Coordination Sequence:
#
# PCOD9500473 Si02
#       6
#    16  16  16  16  16  16
#     4   8  14  26  43  62  83 107 142 185 215 237
#     4   7  11  22  39  55  72  99 135 168 194 225
#     4   8  13  23  42  65  83 103 138 179 209 237
#     4   9  17  28  41  60  88 115 135 164 211 258
#     4   8  14  25  43  65  84 105 139 182 217 242
#     4  10  18  27  43  66  88 112 141 171 208 255
#
# _framework density 21.348369000000002
#
# number of rings (size 3 to 8) (size 9 to 14) (size 15 to 20)
#    0.000    3.667    0.000    3.500    0.000    2.667 
#    0.000    0.833    0.000    8.000    0.000    3.500 
#    0.000    0.000    0.000    0.000    0.000    0.000 
#
# Total GULP energy -267460.068465 kJ/mol
# GULP energy per Si atom -5572.084760 kJ/mol
# Density = 2.129978 g / cm^3
# Si number density = 21.348369 Si / 1000 Ang^3
#
#
#
# Elastic Constant Matrix: (Units=GPa)
#
#
# Indices 1 2 3 4 5 6 
#
# 1 81.5561 -6.9746 56.0099 0.0000 0.0000 0.0000
# 2 -6.9746 72.5328 -10.6481 0.0000 0.0000 0.0000
# 3 56.0099 -10.6481 93.5194 0.0000 0.0000 0.0000
# 4 0.0000 0.0000 0.0000 17.7875 0.0000 0.0000
# 5 0.0000 0.0000 0.0000 0.0000 12.7518 0.0000
# 6 0.0000 0.0000 0.0000 0.0000 0.0000 -13.4973
#
#
#
# Elastic Compliance Matrix: (Units=1/GPa)
#
#
# Indices 1 2 3 4 5 6 
#
# 1 0.020831 0.000174 -0.012456 0.000000 0.000000 0.000000
# 2 0.000174 0.014023 0.001492 0.000000 0.000000 0.000000
# 3 -0.012456 0.001492 0.018323 0.000000 0.000000 0.000000
# 4 0.000000 0.000000 0.000000 0.056219 0.000000 0.000000
# 5 0.000000 0.000000 0.000000 0.000000 0.078420 0.000000
# 6 0.000000 0.000000 0.000000 0.000000 0.000000 -0.074089
#
#
# Mechanical properties :
#
#
# Convention : Reuss Voigt Hill
#
# Bulk Modulus (GPa) = 31.64794 36.04252 33.84523
# Shear Modulus (GPa) = 34.28454 17.35646 25.82050
#
# Velocity S-wave (km/s) = 4.01179 2.85443 3.48154
# Velocity P-wave (km/s) = 6.02627 5.27099 5.66124
#
# Compressibility (1/GPa) = 0.03159763
#
# Stress axis : x y z
#
# Youngs Moduli (GPa) = 48.00607 71.31302 54.57664
#
# Poissons Ratio (x) = -0.01244 0.67980
# Poissons Ratio (y) = -0.00838 -0.08144
# Poissons Ratio (z) = 0.59796 -0.10641
#
# Static dielectric constant tensor:
#      x y z
#    x 1.773960 0.000000 0.000000 
#    y 0.000000 1.855430 0.000000 
#    z 0.000000 0.000000 1.750680 
# 
# From -- ./inp_files/34222.got.cif
#   From: 2010.05.17/outbox.cif.g08.bks.cpg/sg67_18_cif.got.tgz:34222.got - 2010.06.03 18:28:57.
