data_PCOD9500331
_publ_section_title
;
Structure prediction by ZEFSAII (Michael W. Deem and Ramdas Pophale) SiO2 
 PCOD9500331
Probable space group: C M M A
;
_chemical_formula_sum "Si O2"
_cell_formula_units_Z 116
_cell_length_a 25.889496
_cell_length_b 15.233095
_cell_length_c 15.176847
_cell_angle_alpha 90.000000
_cell_angle_beta 90.000000
_cell_angle_gamma 90.000000
_cell_volume 5985.401697
_symmetry_space_group_name_H-M "C M M A"
_symmetry_group_IT_number 67
_symmetry_cell_setting 'orthorhombic'
loop_
_space_group_symop_operation_xyz
x,y,z
-x,1/2-y,z
x,-y,-z
-x,1/2+y,-z
-x,-y,-z
x,1/2+y,-z
-x,y,z
x,1/2-y,z
1/2+x,1/2+y,z
1/2-x,-y,z
1/2+x,1/2-y,-z
1/2-x,y,-z
1/2-x,1/2-y,-z
1/2+x,y,-z
1/2-x,1/2+y,z
1/2+x,-y,z
loop_
_atom_site_type_symbol
_atom_site_label
_atom_site_fract_x
_atom_site_fract_y
_atom_site_fract_z
Si Si1 0.592425 0.595722 0.536344
Si Si2 0.835443 0.584337 0.227264
Si Si3 0.750000 0.000000 0.000000
Si Si4 0.756366 0.149314 0.125760
Si Si5 0.557008 0.037415 0.278574
Si Si6 0.299684 0.848214 0.599020
Si Si7 0.698432 0.899284 0.311423
Si Si8 0.917035 0.845501 0.647875
O O1 0.581783 0.500000 0.500000
O O2 0.567168 0.595063 0.632653
O O3 0.654464 0.605080 0.546270
O O4 0.572027 0.654423 0.456853
O O5 0.802084 0.615172 0.144655
O O6 0.895310 0.562465 0.215782
O O7 0.824797 0.655199 0.303008
O O8 0.812059 0.497955 0.276772
O O9 0.721439 0.071714 0.936623
O O10 0.758510 0.250000 0.094790
O O11 0.782483 0.146779 0.221860
O O12 0.500000 0.054079 0.244143
O O13 0.561271 0.934248 0.307086
O O14 0.293919 0.750000 0.565091
O O15 0.243165 0.889706 0.615150
O O16 0.644814 0.858683 0.342775
O O17 0.931995 0.750000 0.684768
#
# Coordination Sequence:
#
# PCOD9500331 Si02
#       8
#    16  16   4  16  16  16  16  16
#     4   9  19  31  42  61  90 127 168 219 270 317
#     4   9  17  32  51  71 100 133 170 209 249 302
#     4  12  22  36  52  90 122 146 170 192 228 306
#     4  11  20  34  56  81 116 148 170 200 238 292
#     4   9  19  34  51  67  90 129 174 223 279 317
#     4  10  17  27  45  66  90 124 166 207 249 301
#     4  10  18  32  48  69 100 138 170 204 247 301
#     4  10  19  30  45  66  93 127 172 220 266 316
#
# _framework density 19.380486999999999
#
# number of rings (size 3 to 8) (size 9 to 14) (size 15 to 20)
#    0.000    2.207    1.379    5.172    0.000    3.310 
#    0.000    4.828    0.000   14.483    0.000    0.483 
#    0.000    0.000    0.000    0.000    0.000    0.000 
#
# Total GULP energy -322952.503275 kJ/mol
# GULP energy per Si atom -5568.146608 kJ/mol
# Density = 1.933638 g / cm^3
# Si number density = 19.380487 Si / 1000 Ang^3
#
#
#
# Elastic Constant Matrix: (Units=GPa)
#
#
# Indices 1 2 3 4 5 6 
#
# 1 97.5874 2.6542 -8.1704 0.0000 0.0000 0.0000
# 2 2.6542 112.5597 6.0107 0.0000 0.0000 0.0000
# 3 -8.1704 6.0107 36.6282 0.0000 0.0000 0.0000
# 4 0.0000 0.0000 0.0000 2.2300 0.0000 0.0000
# 5 0.0000 0.0000 0.0000 0.0000 6.6220 0.0000
# 6 0.0000 0.0000 0.0000 0.0000 0.0000 -0.6843
#
#
#
# Elastic Compliance Matrix: (Units=1/GPa)
#
#
# Indices 1 2 3 4 5 6 
#
# 1 0.010458 -0.000374 0.002394 0.000000 0.000000 0.000000
# 2 -0.000374 0.008976 -0.001557 0.000000 0.000000 0.000000
# 3 0.002394 -0.001557 0.028091 0.000000 0.000000 0.000000
# 4 0.000000 0.000000 0.000000 0.448425 0.000000 0.000000
# 5 0.000000 0.000000 0.000000 0.000000 0.151011 0.000000
# 6 0.000000 0.000000 0.000000 0.000000 0.000000 -1.461392
#
#
# Mechanical properties :
#
#
# Convention : Reuss Voigt Hill
#
# Bulk Modulus (GPa) = 20.63927 27.52938 24.08433
# Shear Modulus (GPa) = -6.25620 18.05228 5.89804
#
# Velocity S-wave (km/s) = -1.79864 3.05531 1.74639
# Velocity P-wave (km/s) = 2.52174 5.16547 4.06455
#
# Compressibility (1/GPa) = 0.04845132
#
# Stress axis : x y z
#
# Youngs Moduli (GPa) = 95.62181 111.40671 35.59879
#
# Poissons Ratio (x) = 0.04172 -0.08523
# Poissons Ratio (y) = 0.03581 0.05541
# Poissons Ratio (z) = -0.22894 0.17341
#
# Static dielectric constant tensor:
#      x y z
#    x 1.709050 0.000000 0.000000 
#    y 0.000000 1.765040 0.000000 
#    z 0.000000 0.000000 1.724260 
# 
# From -- ./inp_files/35978.got.cif
#   From: 2010.05.17/outbox.cif.g08.bks.cpg/sg67_18_cif.got.tgz:35978.got - 2010.06.03 18:28:57.
