data_PCOD9500401
_publ_section_title
;
Structure prediction by ZEFSAII (Michael W. Deem and Ramdas Pophale) SiO2 
 PCOD9500401
Probable space group: C M M A
;
_chemical_formula_sum "Si O2"
_cell_formula_units_Z 68
_cell_length_a 18.302745
_cell_length_b 17.266610
_cell_length_c 10.001345
_cell_angle_alpha 90.000000
_cell_angle_beta 90.000000
_cell_angle_gamma 90.000000
_cell_volume 3160.688654
_symmetry_space_group_name_H-M "C M M A"
_symmetry_group_IT_number 67
_symmetry_cell_setting 'orthorhombic'
loop_
_space_group_symop_operation_xyz
x,y,z
-x,1/2-y,z
x,-y,-z
-x,1/2+y,-z
-x,-y,-z
x,1/2+y,-z
-x,y,z
x,1/2-y,z
1/2+x,1/2+y,z
1/2-x,-y,z
1/2+x,1/2-y,-z
1/2-x,y,-z
1/2-x,1/2-y,-z
1/2+x,y,-z
1/2-x,1/2+y,z
1/2+x,-y,z
loop_
_atom_site_type_symbol
_atom_site_label
_atom_site_fract_x
_atom_site_fract_y
_atom_site_fract_z
Si Si1 0.000000 0.750000 0.213109
Si Si2 0.375735 0.000000 0.500000
Si Si3 0.761760 0.250000 0.344542
Si Si4 0.500000 0.620587 0.562048
Si Si5 0.250000 0.386686 0.000000
Si Si6 0.159344 0.905615 0.752531
Si Si7 0.500000 0.839730 0.254689
Si Si8 0.155603 0.250000 0.876879
O O1 0.000000 0.676856 0.312767
O O2 0.070106 0.750000 0.120460
O O3 0.428810 0.933832 0.559507
O O4 0.334962 0.963374 0.373310
O O5 0.750000 0.250000 0.500000
O O6 0.805858 0.324534 0.295403
O O7 0.682845 0.250000 0.275690
O O8 0.500000 0.661648 0.417419
O O9 0.294408 0.429122 0.882709
O O10 0.190308 0.326643 0.940225
O O11 0.074012 0.886325 0.782626
O O12 0.500000 0.750000 0.208815
#
# Coordination Sequence:
#
# PCOD9500401 Si02
#       8
#     4   8   8   8   8  16   8   8
#     4  12  22  36  68  92 116 166 226 292 330 382
#     4   9  20  36  61  98 132 176 218 272 328 405
#     4  10  21  34  58  94 131 166 214 284 327 377
#     4   9  20  35  56  94 141 154 214 291 342 367
#     4   9  20  44  58  87 142 172 212 270 332 399
#     4  10  20  37  64  96 137 174 222 276 329 393
#     4  10  17  28  56  99 125 172 221 269 325 388
#     4   9  22  35  59  94 123 166 216 274 327 385
#
# _framework density 21.514299999999999
#
# number of rings (size 3 to 8) (size 9 to 14) (size 15 to 20)
#    0.000    2.353    1.765    1.412    6.588    0.941 
#    0.000    0.588    0.000    5.647    0.000    0.000 
#    0.000    3.294    0.000    0.000    0.000    0.000 
#
# Total GULP energy -190022.523842 kJ/mol
# GULP energy per Si atom -5588.897760 kJ/mol
# Density = 2.146533 g / cm^3
# Si number density = 21.514300 Si / 1000 Ang^3
#
#
#
# Elastic Constant Matrix: (Units=GPa)
#
#
# Indices 1 2 3 4 5 6 
#
# 1 165.6942 36.8250 64.5285 0.0000 0.0000 0.0000
# 2 36.8250 81.4485 44.0997 0.0000 0.0000 0.0000
# 3 64.5285 44.0997 133.8121 0.0000 0.0000 0.0000
# 4 0.0000 0.0000 0.0000 -10.2648 0.0000 0.0000
# 5 0.0000 0.0000 0.0000 0.0000 20.2318 0.0000
# 6 0.0000 0.0000 0.0000 0.0000 0.0000 13.5073
#
#
#
# Elastic Compliance Matrix: (Units=1/GPa)
#
#
# Indices 1 2 3 4 5 6 
#
# 1 0.007636 -0.001775 -0.003097 0.000000 0.000000 0.000000
# 2 -0.001775 0.015357 -0.004205 0.000000 0.000000 0.000000
# 3 -0.003097 -0.004205 0.010353 0.000000 0.000000 0.000000
# 4 0.000000 0.000000 0.000000 -0.097420 0.000000 0.000000
# 5 0.000000 0.000000 0.000000 0.000000 0.049427 0.000000
# 6 0.000000 0.000000 0.000000 0.000000 0.000000 0.074034
#
#
# Mechanical properties :
#
#
# Convention : Reuss Voigt Hill
#
# Bulk Modulus (GPa) = 65.83099 74.65126 70.24112
# Shear Modulus (GPa) = 60.52881 20.39496 40.46189
#
# Velocity S-wave (km/s) = 5.30992 3.08226 4.34141
# Velocity P-wave (km/s) = 8.26189 6.88773 7.60591
#
# Compressibility (1/GPa) = 0.01519041
#
# Stress axis : x y z
#
# Youngs Moduli (GPa) = 130.95883 65.11603 96.59458
#
# Poissons Ratio (x) = 0.11561 0.29917
# Poissons Ratio (y) = 0.23251 0.40618
# Poissons Ratio (z) = 0.40560 0.27381
#
# Static dielectric constant tensor:
#      x y z
#    x 1.794560 0.000000 0.000000 
#    y 0.000000 1.820290 0.000000 
#    z 0.000000 0.000000 1.775820 
# 
# From -- ./inp_files/10851.got.cif
#   From: 2010.05.17/outbox.cif.g08.bks.cpg/sg67_6_cif.got.tgz:10851.got - 2010.06.03 18:28:57.
