data_PCOD9500153
_publ_section_title
;
Structure prediction by ZEFSAII (Michael W. Deem and Ramdas Pophale) SiO2 
 PCOD9500153
Probable space group: C M M A
;
_chemical_formula_sum "Si O2"
_cell_formula_units_Z 80
_cell_length_a 19.586522
_cell_length_b 26.368628
_cell_length_c 9.147498
_cell_angle_alpha 90.000000
_cell_angle_beta 90.000000
_cell_angle_gamma 90.000000
_cell_volume 4724.405662
_symmetry_space_group_name_H-M "C M M A"
_symmetry_group_IT_number 67
_symmetry_cell_setting 'orthorhombic'
loop_
_space_group_symop_operation_xyz
x,y,z
-x,1/2-y,z
x,-y,-z
-x,1/2+y,-z
-x,-y,-z
x,1/2+y,-z
-x,y,z
x,1/2-y,z
1/2+x,1/2+y,z
1/2-x,-y,z
1/2+x,1/2-y,-z
1/2-x,y,-z
1/2-x,1/2-y,-z
1/2+x,y,-z
1/2-x,1/2+y,z
1/2+x,-y,z
loop_
_atom_site_type_symbol
_atom_site_label
_atom_site_fract_x
_atom_site_fract_y
_atom_site_fract_z
Si Si1 0.285402 0.250000 0.656064
Si Si2 0.779647 0.840409 0.166052
Si Si3 0.575924 0.052481 0.907836
Si Si4 0.576320 0.336485 0.049319
Si Si5 0.577933 0.750000 0.195707
Si Si6 0.272939 0.553314 0.172690
O O1 0.250000 0.250000 0.500000
O O2 0.258741 0.298821 0.741974
O O3 0.367019 0.250000 0.675710
O O4 0.763453 0.896163 0.227886
O O5 0.750000 0.838864 0.000000
O O6 0.859900 0.828947 0.155175
O O7 0.500000 0.051585 0.837912
O O8 0.578033 0.104241 0.002806
O O9 0.645287 0.056334 0.816160
O O10 0.581688 0.000000 0.000000
O O11 0.500000 0.325313 0.105860
O O12 0.586803 0.299270 0.909898
O O13 0.500000 0.750000 0.247775
O O14 0.250000 0.500000 0.237898
O O15 0.250000 0.551976 0.000000
#
# Coordination Sequence:
#
# PCOD9500153 Si02
#       6
#     8  16  16  16   8  16
#     4  12  24  36  51  73  96 128 168 205 243 288
#     4  11  18  32  53  72  97 126 161 200 241 284
#     4  10  16  22  34  61 100 127 145 182 234 285
#     4  10  18  28  47  75  98 124 159 197 239 285
#     4  10  19  33  50  70  95 123 160 201 241 285
#     4  10  15  25  42  68  95 124 155 188 238 284
#
# _framework density 16.933347999999999
#
# number of rings (size 3 to 8) (size 9 to 14) (size 15 to 20)
#    0.000    1.600    8.000    0.900    0.000    0.000 
#    0.000    1.000    0.000    0.600    0.000    0.000 
#    0.000    0.000    0.000   34.600    0.000    0.200 
#
# Total GULP energy -222706.593682 kJ/mol
# GULP energy per Si atom -5567.664842 kJ/mol
# Density = 1.689481 g / cm^3
# Si number density = 16.933348 Si / 1000 Ang^3
#
#
#
# Elastic Constant Matrix: (Units=GPa)
#
#
# Indices 1 2 3 4 5 6 
#
# 1 173.3694 11.9489 21.7368 0.0000 0.0000 0.0000
# 2 11.9489 107.1520 25.7165 0.0000 0.0000 0.0000
# 3 21.7368 25.7165 24.3348 0.0000 0.0000 0.0000
# 4 0.0000 0.0000 0.0000 -13.6913 0.0000 0.0000
# 5 0.0000 0.0000 0.0000 0.0000 11.0827 0.0000
# 6 0.0000 0.0000 0.0000 0.0000 0.0000 28.2024
#
#
#
# Elastic Compliance Matrix: (Units=1/GPa)
#
#
# Indices 1 2 3 4 5 6 
#
# 1 0.006560 0.000904 -0.006815 0.000000 0.000000 0.000000
# 2 0.000904 0.012628 -0.014153 0.000000 0.000000 0.000000
# 3 -0.006815 -0.014153 0.062138 0.000000 0.000000 0.000000
# 4 0.000000 0.000000 0.000000 -0.073039 0.000000 0.000000
# 5 0.000000 0.000000 0.000000 0.000000 0.090231 0.000000
# 6 0.000000 0.000000 0.000000 0.000000 0.000000 0.035458
#
#
# Mechanical properties :
#
#
# Convention : Reuss Voigt Hill
#
# Bulk Modulus (GPa) = 24.27302 47.07340 35.67321
# Shear Modulus (GPa) = 26.61876 21.48236 24.05056
#
# Velocity S-wave (km/s) = 3.96911 3.56566 3.77279
# Velocity P-wave (km/s) = 5.94733 6.69414 6.33175
#
# Compressibility (1/GPa) = 0.04119801
#
# Stress axis : x y z
#
# Youngs Moduli (GPa) = 152.43426 79.18620 16.09324
#
# Poissons Ratio (x) = -0.07159 0.10968
# Poissons Ratio (y) = -0.13782 0.22777
# Poissons Ratio (z) = 1.03888 1.12073
#
# Static dielectric constant tensor:
#      x y z
#    x 1.623440 0.000000 0.000000 
#    y 0.000000 1.586820 0.000000 
#    z 0.000000 0.000000 1.535570 
# 
# From -- ./inp_files/11401.got.cif
#   From: 2010.05.17/outbox.cif.g08.bks.cpg/sg67_6_cif.got.tgz:11401.got - 2010.06.03 18:28:57.
