data_PCOD9500555
_publ_section_title
;
Structure prediction by ZEFSAII (Michael W. Deem and Ramdas Pophale) SiO2 
 PCOD9500555
Probable space group: C M M A
;
_chemical_formula_sum "Si O2"
_cell_formula_units_Z 112
_cell_length_a 25.273180
_cell_length_b 17.854079
_cell_length_c 13.402970
_cell_angle_alpha 90.000000
_cell_angle_beta 90.000000
_cell_angle_gamma 90.000000
_cell_volume 6047.813472
_symmetry_space_group_name_H-M "C M M A"
_symmetry_group_IT_number 67
_symmetry_cell_setting 'orthorhombic'
loop_
_space_group_symop_operation_xyz
x,y,z
-x,1/2-y,z
x,-y,-z
-x,1/2+y,-z
-x,-y,-z
x,1/2+y,-z
-x,y,z
x,1/2-y,z
1/2+x,1/2+y,z
1/2-x,-y,z
1/2+x,1/2-y,-z
1/2-x,y,-z
1/2-x,1/2-y,-z
1/2+x,y,-z
1/2-x,1/2+y,z
1/2+x,-y,z
loop_
_atom_site_type_symbol
_atom_site_label
_atom_site_fract_x
_atom_site_fract_y
_atom_site_fract_z
Si Si1 0.658589 0.415846 0.228458
Si Si2 0.316970 0.581232 0.550848
Si Si3 0.788514 0.336290 0.377696
Si Si4 0.059032 0.664309 0.139796
Si Si5 0.844788 0.447223 0.096892
Si Si6 0.234779 0.663606 0.843287
Si Si7 0.439249 0.335322 0.899064
O O1 0.650362 0.416566 0.347337
O O2 0.604998 0.387638 0.178729
O O3 0.670934 0.498084 0.187031
O O4 0.707027 0.364171 0.189212
O O5 0.315886 0.500000 0.500000
O O6 0.260447 0.608954 0.596264
O O7 0.330496 0.638439 0.460986
O O8 0.772996 0.250000 0.394141
O O9 0.798879 0.342105 0.260594
O O10 0.067818 0.750000 0.173535
O O11 0.000000 0.640773 0.170319
O O12 0.060187 0.665420 0.019784
O O13 0.796688 0.389087 0.080768
O O14 0.896607 0.398960 0.124593
O O15 0.852972 0.500000 0.000000
O O16 0.236380 0.750000 0.874468
O O17 0.500000 0.350082 0.866590
O O18 0.424621 0.250000 0.867211
#
# Coordination Sequence:
#
# PCOD9500555 Si02
#       7
#    16  16  16  16  16  16  16
#     4  11  22  35  52  79 111 145 181 220 267 327
#     4  10  18  29  48  73 103 134 168 213 269 317
#     4   9  17  31  52  75  96 131 180 228 266 307
#     4   9  18  35  57  79 102 130 173 228 279 322
#     4  12  23  36  51  77 112 148 183 219 261 320
#     4  10  22  38  54  74 109 150 187 223 265 318
#     4   9  19  38  61  80 100 133 182 236 278 310
#
# _framework density 18.519089999999998
#
# number of rings (size 3 to 8) (size 9 to 14) (size 15 to 20)
#    0.000    2.000    1.429    4.714    0.000    7.143 
#    0.000    0.714    0.000    0.429    0.000    1.000 
#    0.000   10.286    0.000    0.000    0.000    0.000 
#
# Total GULP energy -312098.791478 kJ/mol
# GULP energy per Si atom -5573.192705 kJ/mol
# Density = 1.847694 g / cm^3
# Si number density = 18.519090 Si / 1000 Ang^3
#
#
#
# Elastic Constant Matrix: (Units=GPa)
#
#
# Indices 1 2 3 4 5 6 
#
# 1 59.1003 41.8752 3.3773 0.0000 0.0000 0.0000
# 2 41.8752 94.5861 6.3308 0.0000 0.0000 0.0000
# 3 3.3773 6.3308 34.1145 0.0000 0.0000 0.0000
# 4 0.0000 0.0000 0.0000 18.2209 0.0000 0.0000
# 5 0.0000 0.0000 0.0000 0.0000 11.5934 0.0000
# 6 0.0000 0.0000 0.0000 0.0000 0.0000 34.3773
#
#
#
# Elastic Compliance Matrix: (Units=1/GPa)
#
#
# Indices 1 2 3 4 5 6 
#
# 1 0.024660 -0.010889 -0.000421 0.000000 0.000000 0.000000
# 2 -0.010889 0.015514 -0.001801 0.000000 0.000000 0.000000
# 3 -0.000421 -0.001801 0.029689 0.000000 0.000000 0.000000
# 4 0.000000 0.000000 0.000000 0.054882 0.000000 0.000000
# 5 0.000000 0.000000 0.000000 0.000000 0.086256 0.000000
# 6 0.000000 0.000000 0.000000 0.000000 0.000000 0.029089
#
#
# Mechanical properties :
#
#
# Convention : Reuss Voigt Hill
#
# Bulk Modulus (GPa) = 22.91416 32.32970 27.62193
# Shear Modulus (GPa) = 17.80257 21.91949 19.86103
#
# Velocity S-wave (km/s) = 3.10386 3.44410 3.27840
# Velocity P-wave (km/s) = 5.02448 5.77159 5.41094
#
# Compressibility (1/GPa) = 0.04364114
#
# Stress axis : x y z
#
# Youngs Moduli (GPa) = 40.55150 64.45857 33.68262
#
# Poissons Ratio (x) = 0.70191 0.01416
# Poissons Ratio (y) = 0.44158 0.06066
# Poissons Ratio (z) = 0.01705 0.11609
#
# Static dielectric constant tensor:
#      x y z
#    x 1.641890 0.000000 0.000000 
#    y 0.000000 1.680510 0.000000 
#    z 0.000000 0.000000 1.721050 
# 
# From -- ./inp_files/30124.got.cif
#   From: 2010.05.17/outbox.cif.g08.bks.cpg/sg67_16_cif.got.tgz:30124.got - 2010.06.03 18:28:57.
