data_PCOD9500028
_publ_section_title
;
Structure prediction by ZEFSAII (Michael W. Deem and Ramdas Pophale) SiO2 
 PCOD9500028
Probable space group: C C C M
;
_chemical_formula_sum "Si O2"
_cell_formula_units_Z 96
_cell_length_a 32.364789
_cell_length_b 13.875821
_cell_length_c 10.468965
_cell_angle_alpha 90.000000
_cell_angle_beta 90.000000
_cell_angle_gamma 90.000000
_cell_volume 4701.486751
_symmetry_space_group_name_H-M "C C C M"
_symmetry_group_IT_number 66
_symmetry_cell_setting 'orthorhombic'
loop_
_space_group_symop_operation_xyz
x,y,z
-x,-y,z
x,-y,1/2-z
-x,y,1/2-z
-x,-y,-z
x,y,-z
-x,y,1/2+z
x,-y,1/2+z
1/2+x,1/2+y,z
1/2-x,1/2-y,z
1/2+x,1/2-y,1/2-z
1/2-x,1/2+y,1/2-z
1/2-x,1/2-y,-z
1/2+x,1/2+y,-z
1/2-x,1/2+y,1/2+z
1/2+x,1/2-y,1/2+z
loop_
_atom_site_type_symbol
_atom_site_label
_atom_site_fract_x
_atom_site_fract_y
_atom_site_fract_z
Si Si1 0.629282 0.851866 0.145323
Si Si2 0.535743 0.195661 0.348259
Si Si3 0.710054 0.630990 0.355529
Si Si4 0.148440 0.122917 0.137290
Si Si5 0.696529 0.136395 0.853839
Si Si6 0.446059 0.422985 0.144231
O O1 0.580250 0.855098 0.176452
O O2 0.639121 0.737477 0.140940
O O3 0.661126 0.889453 0.252113
O O4 0.635669 0.888933 0.000000
O O5 0.500000 0.164321 0.250000
O O6 0.526134 0.181813 0.500000
O O7 0.541697 0.311689 0.329610
O O8 0.701570 0.600469 0.500000
O O9 0.677515 0.597884 0.252834
O O10 0.703674 0.747443 0.354577
O O11 0.757009 0.602294 0.323163
O O12 0.103740 0.075524 0.142706
O O13 0.168273 0.103459 0.000000
O O14 0.685961 0.108847 0.000000
O O15 0.458599 0.500000 0.250000
O O16 0.459740 0.446190 0.000000
#
# Coordination Sequence:
#
# PCOD9500028 Si02
#       6
#    16  16  16  16  16  16
#     4   8  14  24  35  46  61  79  98 121 149 183
#     4   9  18  30  40  50  63  78 100 132 168 205
#     4   8  13  20  30  46  66  83  98 116 138 169
#     4   8  14  24  35  46  61  79  98 121 149 183
#     4   8  13  20  30  46  66  83  98 116 138 169
#     4   9  18  30  40  50  63  78 100 132 168 205
#
# _framework density 20.419073999999998
#
# number of rings (size 3 to 8) (size 9 to 14) (size 15 to 20)
#    0.000    3.667    0.000    3.000    0.000    3.000 
#    0.000    8.333    0.000    0.000    0.000    0.000 
#    0.000    0.000    0.000    0.000    0.000    0.000 
#
# Total GULP energy -267483.670838 kJ/mol
# GULP energy per Si atom -5572.576476 kJ/mol
# Density = 2.037260 g / cm^3
# Si number density = 20.419074 Si / 1000 Ang^3
#
#
#
# Elastic Constant Matrix: (Units=GPa)
#
#
# Indices 1 2 3 4 5 6 
#
# 1 168.8515 5.9532 127.9019 0.0000 0.0000 0.0000
# 2 5.9532 36.2526 4.2884 0.0000 0.0000 0.0000
# 3 127.9019 4.2884 136.2998 0.0000 0.0000 0.0000
# 4 0.0000 0.0000 0.0000 2.8289 0.0000 0.0000
# 5 0.0000 0.0000 0.0000 0.0000 99.7854 0.0000
# 6 0.0000 0.0000 0.0000 0.0000 0.0000 -0.0607
#
#
#
# Elastic Compliance Matrix: (Units=1/GPa)
#
#
# Indices 1 2 3 4 5 6 
#
# 1 0.020523 -0.001096 -0.019224 0.000000 0.000000 0.000000
# 2 -0.001096 0.027746 0.000156 0.000000 0.000000 0.000000
# 3 -0.019224 0.000156 0.025371 0.000000 0.000000 0.000000
# 4 0.000000 0.000000 0.000000 0.353497 0.000000 0.000000
# 5 0.000000 0.000000 0.000000 0.000000 0.010022 0.000000
# 6 0.000000 0.000000 0.000000 0.000000 0.000000-16.461192
#
#
# Mechanical properties :
#
#
# Convention : Reuss Voigt Hill
#
# Bulk Modulus (GPa) = 30.01995 68.63234 49.32614
# Shear Modulus (GPa) = -0.31304 34.06139 16.87418
#
# Velocity S-wave (km/s) = -0.39197 4.08869 2.87782
# Velocity P-wave (km/s) = 3.81169 7.48162 5.93732
#
# Compressibility (1/GPa) = 0.03331118
#
# Stress axis : x y z
#
# Youngs Moduli (GPa) = 48.72698 36.04148 39.41505
#
# Poissons Ratio (x) = 0.03950 0.75770
# Poissons Ratio (y) = 0.05341 -0.00613
# Poissons Ratio (z) = 0.93671 -0.00561
#
# Static dielectric constant tensor:
#      x y z
#    x 1.715010 0.000000 0.000000 
#    y 0.000000 1.752050 0.000000 
#    z 0.000000 0.000000 1.717820 
# 
# From -- ./inp_files/17967.got.cif
#   From: 2010.05.17/outbox.cif.g08.bks.cpg/sg66_9_cif.got.tgz:17967.got - 2010.06.03 17:51:23.
