data_PCOD9500671
_publ_section_title
;
Structure prediction by ZEFSAII (Michael W. Deem and Ramdas Pophale) SiO2 
 PCOD9500671
Probable space group: C M M A
;
_chemical_formula_sum "Si O2"
_cell_formula_units_Z 96
_cell_length_a 19.204853
_cell_length_b 15.012989
_cell_length_c 16.682414
_cell_angle_alpha 90.000000
_cell_angle_beta 90.000000
_cell_angle_gamma 90.000000
_cell_volume 4809.911087
_symmetry_space_group_name_H-M "C M M A"
_symmetry_group_IT_number 67
_symmetry_cell_setting 'orthorhombic'
loop_
_space_group_symop_operation_xyz
x,y,z
-x,1/2-y,z
x,-y,-z
-x,1/2+y,-z
-x,-y,-z
x,1/2+y,-z
-x,y,z
x,1/2-y,z
1/2+x,1/2+y,z
1/2-x,-y,z
1/2+x,1/2-y,-z
1/2-x,y,-z
1/2-x,1/2-y,-z
1/2+x,y,-z
1/2-x,1/2+y,z
1/2+x,-y,z
loop_
_atom_site_type_symbol
_atom_site_label
_atom_site_fract_x
_atom_site_fract_y
_atom_site_fract_z
Si Si1 0.417751 0.506049 0.404905
Si Si2 0.338465 0.355939 0.321585
Si Si3 0.924257 0.858058 0.172121
Si Si4 0.348662 0.852469 0.976484
Si Si5 0.678868 0.854673 0.308270
Si Si6 0.781663 0.904134 0.870495
O O1 0.405013 0.500000 0.500000
O O2 0.500000 0.519298 0.391447
O O3 0.390796 0.410642 0.375236
O O4 0.374003 0.580203 0.354764
O O5 0.346824 0.250000 0.329273
O O6 0.362725 0.383165 0.232229
O O7 0.257846 0.376582 0.336524
O O8 0.924574 0.750000 0.170951
O O9 0.908829 0.886050 0.081953
O O10 0.000000 0.888582 0.200768
O O11 0.361018 0.750000 0.000630
O O12 0.280941 0.852373 0.916936
O O13 0.336300 0.908081 0.056419
O O14 0.664594 0.750000 0.324416
O O15 0.685824 0.866394 0.211299
O O16 0.750000 0.000000 0.852898
#
# Coordination Sequence:
#
# PCOD9500671 Si02
#       6
#    16  16  16  16  16  16
#     4  11  26  46  66  92 129 170 208 255 325 405
#     4  10  20  38  66  97 124 157 208 266 324 385
#     4   9  17  30  51  81 118 159 203 256 321 390
#     4  10  18  30  51  80 117 161 210 261 317 385
#     4  11  23  41  67  97 127 166 217 272 325 378
#     4  11  20  33  54  83 120 161 211 271 324 381
#
# _framework density 19.958788999999999
#
# number of rings (size 3 to 8) (size 9 to 14) (size 15 to 20)
#    0.000    1.667    1.667    5.000    0.000    3.333 
#    0.000    4.167    0.000    4.000    0.000    0.000 
#    0.000    0.000    0.000    0.000    0.000    0.000 
#
# Total GULP energy -267693.745062 kJ/mol
# GULP energy per Si atom -5576.953022 kJ/mol
# Density = 1.991336 g / cm^3
# Si number density = 19.958789 Si / 1000 Ang^3
#
#
#
# Elastic Constant Matrix: (Units=GPa)
#
#
# Indices 1 2 3 4 5 6 
#
# 1 92.7028 39.6490 48.9026 0.0000 0.0000 0.0000
# 2 39.6490 69.8526 31.1743 0.0000 0.0000 0.0000
# 3 48.9026 31.1743 108.6778 0.0000 0.0000 0.0000
# 4 0.0000 0.0000 0.0000 18.9799 0.0000 0.0000
# 5 0.0000 0.0000 0.0000 0.0000 30.1115 0.0000
# 6 0.0000 0.0000 0.0000 0.0000 0.0000 19.2356
#
#
#
# Elastic Compliance Matrix: (Units=1/GPa)
#
#
# Indices 1 2 3 4 5 6 
#
# 1 0.016689 -0.007020 -0.005496 0.000000 0.000000 0.000000
# 2 -0.007020 0.019370 -0.002398 0.000000 0.000000 0.000000
# 3 -0.005496 -0.002398 0.012362 0.000000 0.000000 0.000000
# 4 0.000000 0.000000 0.000000 0.052687 0.000000 0.000000
# 5 0.000000 0.000000 0.000000 0.000000 0.033210 0.000000
# 6 0.000000 0.000000 0.000000 0.000000 0.000000 0.051987
#
#
# Mechanical properties :
#
#
# Convention : Reuss Voigt Hill
#
# Bulk Modulus (GPa) = 53.77901 56.74279 55.26090
# Shear Modulus (GPa) = 22.48899 23.76588 23.12744
#
# Velocity S-wave (km/s) = 3.36038 3.45446 3.40775
# Velocity P-wave (km/s) = 6.48535 6.66354 6.57505
#
# Compressibility (1/GPa) = 0.01859462
#
# Stress axis : x y z
#
# Youngs Moduli (GPa) = 59.92032 51.62493 80.89103
#
# Poissons Ratio (x) = 0.36241 0.44457
# Poissons Ratio (y) = 0.42064 0.19394
# Poissons Ratio (z) = 0.32932 0.12378
#
# Static dielectric constant tensor:
#      x y z
#    x 1.741100 0.000000 0.000000 
#    y 0.000000 1.711350 0.000000 
#    z 0.000000 0.000000 1.762360 
# 
# From -- ./inp_files/29284.got.cif
#   From: 2010.05.17/outbox.cif.g08.bks.cpg/sg67_15_cif.got.tgz:29284.got - 2010.06.03 18:28:57.
