data_PCOD9500707
_publ_section_title
;
Structure prediction by ZEFSAII (Michael W. Deem and Ramdas Pophale) SiO2 
 PCOD9500707
Probable space group: C M M A
;
_chemical_formula_sum "Si O2"
_cell_formula_units_Z 96
_cell_length_a 18.169079
_cell_length_b 27.606360
_cell_length_c 12.440761
_cell_angle_alpha 90.000000
_cell_angle_beta 90.000000
_cell_angle_gamma 90.000000
_cell_volume 6240.063473
_symmetry_space_group_name_H-M "C M M A"
_symmetry_group_IT_number 67
_symmetry_cell_setting 'orthorhombic'
loop_
_space_group_symop_operation_xyz
x,y,z
-x,1/2-y,z
x,-y,-z
-x,1/2+y,-z
-x,-y,-z
x,1/2+y,-z
-x,y,z
x,1/2-y,z
1/2+x,1/2+y,z
1/2-x,-y,z
1/2+x,1/2-y,-z
1/2-x,y,-z
1/2-x,1/2-y,-z
1/2+x,y,-z
1/2-x,1/2+y,z
1/2+x,-y,z
loop_
_atom_site_type_symbol
_atom_site_label
_atom_site_fract_x
_atom_site_fract_y
_atom_site_fract_z
Si Si1 0.823543 0.692879 0.235535
Si Si2 0.785531 0.948883 0.732336
Si Si3 0.702335 0.137884 0.891732
Si Si4 0.412911 0.306305 0.019600
Si Si5 0.414555 0.051016 0.562759
Si Si6 0.814193 0.381976 0.580736
O O1 0.823051 0.750000 0.257972
O O2 0.745531 0.674847 0.186870
O O3 0.880783 0.683184 0.138412
O O4 0.839450 0.660433 0.339676
O O5 0.800511 0.912857 0.830613
O O6 0.860648 0.954093 0.664691
O O7 0.726468 0.922609 0.653677
O O8 0.750000 0.000000 0.763681
O O9 0.750000 0.133296 0.000000
O O10 0.625979 0.160111 0.931847
O O11 0.500000 0.311450 0.019005
O O12 0.393357 0.250000 0.997462
O O13 0.500000 0.061259 0.588447
O O14 0.378347 0.092408 0.487358
O O15 0.411553 0.000000 0.500000
O O16 0.750000 0.364151 0.500000
#
# Coordination Sequence:
#
# PCOD9500707 Si02
#       6
#    16  16  16  16  16  16
#     4   9  17  30  48  72  97 125 162 199 236 283
#     4  10  18  31  50  69  94 125 160 201 241 287
#     4   9  18  31  48  71  95 126 161 201 241 279
#     4   9  17  30  49  71  97 130 163 196 238 288
#     4  10  19  31  49  71  93 122 158 196 239 285
#     4   9  18  30  48  71  94 126 158 197 243 281
#
# _framework density 15.384459
#
# number of rings (size 3 to 8) (size 9 to 14) (size 15 to 20)
#    0.000    2.667    1.667    0.500    0.000    4.000 
#    0.000    0.000    0.000    0.000    0.000    4.667 
#    0.000    0.000    0.000    0.000    0.000    0.000 
#
# Total GULP energy -267399.416759 kJ/mol
# GULP energy per Si atom -5570.821182 kJ/mol
# Density = 1.534944 g / cm^3
# Si number density = 15.384459 Si / 1000 Ang^3
#
#
#
# Elastic Constant Matrix: (Units=GPa)
#
#
# Indices 1 2 3 4 5 6 
#
# 1 81.2346 48.6289 27.9420 0.0000 0.0000 0.0000
# 2 48.6289 88.1066 46.2040 0.0000 0.0000 0.0000
# 3 27.9420 46.2040 55.0284 0.0000 0.0000 0.0000
# 4 0.0000 0.0000 0.0000 31.4527 0.0000 0.0000
# 5 0.0000 0.0000 0.0000 0.0000 10.8415 0.0000
# 6 0.0000 0.0000 0.0000 0.0000 0.0000 19.2594
#
#
#
# Elastic Compliance Matrix: (Units=1/GPa)
#
#
# Indices 1 2 3 4 5 6 
#
# 1 0.018450 -0.009416 -0.001462 0.000000 0.000000 0.000000
# 2 -0.009416 0.025085 -0.016281 0.000000 0.000000 0.000000
# 3 -0.001462 -0.016281 0.032585 0.000000 0.000000 0.000000
# 4 0.000000 0.000000 0.000000 0.031794 0.000000 0.000000
# 5 0.000000 0.000000 0.000000 0.000000 0.092238 0.000000
# 6 0.000000 0.000000 0.000000 0.000000 0.000000 0.051923
#
#
# Mechanical properties :
#
#
# Convention : Reuss Voigt Hill
#
# Bulk Modulus (GPa) = 45.86924 52.21324 49.04124
# Shear Modulus (GPa) = 15.94084 19.08371 17.51228
#
# Velocity S-wave (km/s) = 3.22244 3.52583 3.37754
# Velocity P-wave (km/s) = 6.61253 7.11252 6.86708
#
# Compressibility (1/GPa) = 0.02180110
#
# Stress axis : x y z
#
# Youngs Moduli (GPa) = 54.20136 39.86460 30.68908
#
# Poissons Ratio (x) = 0.37538 0.04487
# Poissons Ratio (y) = 0.51038 0.49965
# Poissons Ratio (z) = 0.07924 0.64903
#
# Static dielectric constant tensor:
#      x y z
#    x 1.499240 0.000000 0.000000 
#    y 0.000000 1.500490 0.000000 
#    z 0.000000 0.000000 1.501320 
# 
# From -- ./inp_files/19780.got.cif
#   From: 2010.05.17/outbox.cif.g08.bks.cpg/sg67_10_cif.got.tgz:19780.got - 2010.06.03 18:28:57.
