data_PCOD9500187
_publ_section_title
;
Structure prediction by ZEFSAII (Michael W. Deem and Ramdas Pophale) SiO2 
 PCOD9500187
Probable space group: C M M A
;
_chemical_formula_sum "Si O2"
_cell_formula_units_Z 56
_cell_length_a 14.808080
_cell_length_b 8.649078
_cell_length_c 21.067706
_cell_angle_alpha 90.000000
_cell_angle_beta 90.000000
_cell_angle_gamma 90.000000
_cell_volume 2698.272548
_symmetry_space_group_name_H-M "C M M A"
_symmetry_group_IT_number 67
_symmetry_cell_setting 'orthorhombic'
loop_
_space_group_symop_operation_xyz
x,y,z
-x,1/2-y,z
x,-y,-z
-x,1/2+y,-z
-x,-y,-z
x,1/2+y,-z
-x,y,z
x,1/2-y,z
1/2+x,1/2+y,z
1/2-x,-y,z
1/2+x,1/2-y,-z
1/2-x,y,-z
1/2-x,1/2-y,-z
1/2+x,y,-z
1/2-x,1/2+y,z
1/2+x,-y,z
loop_
_atom_site_type_symbol
_atom_site_label
_atom_site_fract_x
_atom_site_fract_y
_atom_site_fract_z
Si Si1 0.000000 0.933967 0.429216
Si Si2 0.852289 0.935220 0.804987
Si Si3 0.853012 0.934443 0.065216
Si Si4 0.648491 0.564491 0.336042
O O1 0.000000 0.750000 0.431454
O O2 0.000000 0.000000 0.500000
O O3 0.086180 0.993642 0.389946
O O4 0.850970 0.750000 0.812422
O O5 0.888952 0.972159 0.734920
O O6 0.750000 0.000000 0.802392
O O7 0.894061 0.008515 0.868248
O O8 0.851015 0.750000 0.063075
O O9 0.750000 0.000000 0.066170
O O10 0.893654 0.000000 0.000000
O O11 0.650283 0.750000 0.341429
O O12 0.750000 0.500000 0.340633
#
# Coordination Sequence:
#
# PCOD9500187 Si02
#       4
#     8  16  16  16
#     4  12  26  44  66  92 123 156 195 240 290 350
#     4   9  16  27  45  70 102 140 183 231 281 336
#     4  10  16  22  34  56  92 135 181 231 282 334
#     4  10  21  39  63  91 123 158 198 243 294 350
#
# _framework density 20.754020000000001
#
# number of rings (size 3 to 8) (size 9 to 14) (size 15 to 20)
#    0.000    2.000    0.000    8.143    0.000    4.000 
#    0.000    2.857    0.000    0.000    0.000    1.000 
#    0.000    0.000    0.000    0.857    0.000    0.000 
#
# Total GULP energy -156375.640125 kJ/mol
# GULP energy per Si atom -5584.844290 kJ/mol
# Density = 2.070678 g / cm^3
# Si number density = 20.754020 Si / 1000 Ang^3
#
#
#
# Elastic Constant Matrix: (Units=GPa)
#
#
# Indices 1 2 3 4 5 6 
#
# 1 93.2376 35.5622 69.5493 0.0000 0.0000 0.0000
# 2 35.5622 164.8817 111.7796 0.0000 0.0000 0.0000
# 3 69.5493 111.7796 261.3442 0.0000 0.0000 0.0000
# 4 0.0000 0.0000 0.0000 39.6228 0.0000 0.0000
# 5 0.0000 0.0000 0.0000 0.0000 21.5000 0.0000
# 6 0.0000 0.0000 0.0000 0.0000 0.0000 12.6778
#
#
#
# Elastic Compliance Matrix: (Units=1/GPa)
#
#
# Indices 1 2 3 4 5 6 
#
# 1 0.013434 -0.000667 -0.003290 0.000000 0.000000 0.000000
# 2 -0.000667 0.008575 -0.003490 0.000000 0.000000 0.000000
# 3 -0.003290 -0.003490 0.006194 0.000000 0.000000 0.000000
# 4 0.000000 0.000000 0.000000 0.025238 0.000000 0.000000
# 5 0.000000 0.000000 0.000000 0.000000 0.046512 0.000000
# 6 0.000000 0.000000 0.000000 0.000000 0.000000 0.078878
#
#
# Mechanical properties :
#
#
# Convention : Reuss Voigt Hill
#
# Bulk Modulus (GPa) = 75.13537 105.91618 90.52577
# Shear Modulus (GPa) = 25.23205 34.93162 30.08184
#
# Velocity S-wave (km/s) = 3.49057 4.10704 3.81129
# Velocity P-wave (km/s) = 7.24754 8.58110 7.94236
#
# Compressibility (1/GPa) = 0.01330931
#
# Stress axis : x y z
#
# Youngs Moduli (GPa) = 74.44023 116.61985 161.43354
#
# Poissons Ratio (x) = 0.07782 0.53105
# Poissons Ratio (y) = 0.04967 0.56340
# Poissons Ratio (z) = 0.24488 0.40700
#
# Static dielectric constant tensor:
#      x y z
#    x 1.824100 0.000000 0.000000 
#    y 0.000000 1.683100 0.000000 
#    z 0.000000 0.000000 1.785510 
# 
# From -- ./inp_files/36512.got.cif
#   From: 2010.05.17/outbox.cif.g08.bks.cpg/sg67_19_cif.got.tgz:36512.got - 2010.06.03 18:28:57.
