data_PCOD9500443
_publ_section_title
;
Structure prediction by ZEFSAII (Michael W. Deem and Ramdas Pophale) SiO2 
 PCOD9500443
Probable space group: C M M A
;
_chemical_formula_sum "Si O2"
_cell_formula_units_Z 96
_cell_length_a 22.725069
_cell_length_b 25.352774
_cell_length_c 9.197792
_cell_angle_alpha 90.000000
_cell_angle_beta 90.000000
_cell_angle_gamma 90.000000
_cell_volume 5299.248429
_symmetry_space_group_name_H-M "C M M A"
_symmetry_group_IT_number 67
_symmetry_cell_setting 'orthorhombic'
loop_
_space_group_symop_operation_xyz
x,y,z
-x,1/2-y,z
x,-y,-z
-x,1/2+y,-z
-x,-y,-z
x,1/2+y,-z
-x,y,z
x,1/2-y,z
1/2+x,1/2+y,z
1/2-x,-y,z
1/2+x,1/2-y,-z
1/2-x,y,-z
1/2-x,1/2-y,-z
1/2+x,y,-z
1/2-x,1/2+y,z
1/2+x,-y,z
loop_
_atom_site_type_symbol
_atom_site_label
_atom_site_fract_x
_atom_site_fract_y
_atom_site_fract_z
Si Si1 0.873129 0.540664 0.870468
Si Si2 0.500000 0.998128 0.173738
Si Si3 0.000000 0.060292 0.564367
Si Si4 0.069367 0.354939 0.106177
Si Si5 0.928503 0.250000 0.602160
Si Si6 0.313725 0.448012 0.574661
Si Si7 0.403648 0.859457 0.445974
Si Si8 0.928978 0.250000 0.936761
O O1 0.936623 0.527991 0.792104
O O2 0.888187 0.597352 0.938057
O O3 0.823216 0.542049 0.747307
O O4 0.862244 0.500000 0.000000
O O5 0.500000 0.052150 0.262156
O O6 0.500000 0.000000 0.000000
O O7 0.946182 0.096394 0.514901
O O8 0.000000 0.000000 0.500000
O O9 0.076849 0.349324 0.279715
O O10 0.087573 0.302266 0.023734
O O11 0.000000 0.366348 0.076546
O O12 0.906916 0.303919 0.527545
O O13 0.000000 0.250000 0.593236
O O14 0.909779 0.250000 0.770341
O O15 0.343066 0.500000 0.500000
O O16 0.250000 0.446138 0.500000
O O17 0.342705 0.391024 0.550764
O O18 0.000000 0.250000 0.934330
#
# Coordination Sequence:
#
# PCOD9500443 Si02
#       8
#    16   8   8  16   8  16  16   8
#     4  10  20  34  55  86 118 153 191 235 299 363
#     4  10  20  30  47  83 124 152 177 220 289 366
#     4  12  20  31  53  84 116 150 192 234 286 364
#     4  10  17  32  49  77 114 154 188 230 281 362
#     4  11  21  37  50  87 119 154 192 242 294 365
#     4  10  22  40  59  82 114 152 204 256 296 337
#     4  11  21  35  59  82 115 154 198 241 299 350
#     4   9  21  31  49  73 114 154 184 221 289 346
#
# _framework density 18.115777000000001
#
# number of rings (size 3 to 8) (size 9 to 14) (size 15 to 20)
#    0.000    1.667    2.500    4.000    0.000    4.667 
#    0.000    2.083    0.000    1.000    0.000    4.667 
#    0.000    0.000    0.000    0.000    0.000    0.000 
#
# Total GULP energy -267519.302709 kJ/mol
# GULP energy per Si atom -5573.318806 kJ/mol
# Density = 1.807454 g / cm^3
# Si number density = 18.115777 Si / 1000 Ang^3
#
#
#
# Elastic Constant Matrix: (Units=GPa)
#
#
# Indices 1 2 3 4 5 6 
#
# 1 64.7100 31.0813 36.6527 0.0000 0.0000 0.0000
# 2 31.0813 184.5926 98.5521 0.0000 0.0000 0.0000
# 3 36.6527 98.5521 129.1111 0.0000 0.0000 0.0000
# 4 0.0000 0.0000 0.0000 39.2835 0.0000 0.0000
# 5 0.0000 0.0000 0.0000 0.0000 16.6995 0.0000
# 6 0.0000 0.0000 0.0000 0.0000 0.0000 17.0028
#
#
#
# Elastic Compliance Matrix: (Units=1/GPa)
#
#
# Indices 1 2 3 4 5 6 
#
# 1 0.018444 -0.000523 -0.004837 0.000000 0.000000 0.000000
# 2 -0.000523 0.009158 -0.006842 0.000000 0.000000 0.000000
# 3 -0.004837 -0.006842 0.014341 0.000000 0.000000 0.000000
# 4 0.000000 0.000000 0.000000 0.025456 0.000000 0.000000
# 5 0.000000 0.000000 0.000000 0.000000 0.059882 0.000000
# 6 0.000000 0.000000 0.000000 0.000000 0.000000 0.058814
#
#
# Mechanical properties :
#
#
# Convention : Reuss Voigt Hill
#
# Bulk Modulus (GPa) = 57.01388 78.99844 68.00616
# Shear Modulus (GPa) = 23.11109 28.73902 25.92506
#
# Velocity S-wave (km/s) = 3.57563 3.98730 3.78706
# Velocity P-wave (km/s) = 6.97045 8.05607 7.53284
#
# Compressibility (1/GPa) = 0.01753959
#
# Stress axis : x y z
#
# Youngs Moduli (GPa) = 54.21678 109.18919 69.73028
#
# Poissons Ratio (x) = 0.05716 0.33725
# Poissons Ratio (y) = 0.02838 0.47710
# Poissons Ratio (z) = 0.26222 0.74709
#
# Static dielectric constant tensor:
#      x y z
#    x 1.669430 0.000000 0.000000 
#    y 0.000000 1.640320 0.000000 
#    z 0.000000 0.000000 1.653540 
# 
# From -- ./inp_files/12728.got.cif
#   From: 2010.05.17/outbox.cif.g08.bks.cpg/sg67_7_cif.got.tgz:12728.got - 2010.06.03 18:28:57.
