data_PCOD9500692
_publ_section_title
;
Structure prediction by ZEFSAII (Michael W. Deem and Ramdas Pophale) SiO2 
 PCOD9500692
Probable space group: C M M A
;
_chemical_formula_sum "Si O2"
_cell_formula_units_Z 96
_cell_length_a 17.506374
_cell_length_b 22.913360
_cell_length_c 13.960505
_cell_angle_alpha 90.000000
_cell_angle_beta 90.000000
_cell_angle_gamma 90.000000
_cell_volume 5599.975273
_symmetry_space_group_name_H-M "C M M A"
_symmetry_group_IT_number 67
_symmetry_cell_setting 'orthorhombic'
loop_
_space_group_symop_operation_xyz
x,y,z
-x,1/2-y,z
x,-y,-z
-x,1/2+y,-z
-x,-y,-z
x,1/2+y,-z
-x,y,z
x,1/2-y,z
1/2+x,1/2+y,z
1/2-x,-y,z
1/2+x,1/2-y,-z
1/2-x,y,-z
1/2-x,1/2-y,-z
1/2+x,y,-z
1/2-x,1/2+y,z
1/2+x,-y,z
loop_
_atom_site_type_symbol
_atom_site_label
_atom_site_fract_x
_atom_site_fract_y
_atom_site_fract_z
Si Si1 0.412271 0.250000 0.165523
Si Si2 0.178833 0.146264 0.935451
Si Si3 0.584412 0.750000 0.189638
Si Si4 0.127602 0.250000 0.617611
Si Si5 0.908732 0.123720 0.119979
Si Si6 0.252378 0.351546 0.605395
Si Si7 0.376971 0.750000 0.404091
Si Si8 0.770571 0.932664 0.787450
O O1 0.500000 0.250000 0.129466
O O2 0.364521 0.194924 0.126178
O O3 0.414559 0.250000 0.281146
O O4 0.217233 0.098183 0.867296
O O5 0.250000 0.169700 0.000000
O O6 0.117533 0.120302 0.010038
O O7 0.500000 0.750000 0.145474
O O8 0.618334 0.811372 0.155568
O O9 0.578899 0.750000 0.304300
O O10 0.181198 0.307531 0.618461
O O11 0.089123 0.250000 0.511736
O O12 0.857893 0.078185 0.179062
O O13 0.000000 0.118399 0.132759
O O14 0.250000 0.379221 0.500000
O O15 0.323852 0.307205 0.603682
O O16 0.257868 0.397733 0.689291
O O17 0.750000 0.000000 0.779013
#
# Coordination Sequence:
#
# PCOD9500692 Si02
#       8
#     8  16   8   8  16  16   8  16
#     4  12  21  33  54  83 115 146 175 213 278 350
#     4  10  22  36  55  78 110 145 181 227 272 320
#     4  10  18  30  54  82 109 138 170 212 280 338
#     4   9  18  31  53  80 110 139 172 211 280 337
#     4  10  21  37  56  83 112 140 177 228 279 323
#     4   9  17  32  56  82 108 136 179 224 269 323
#     4   9  16  30  54  84 106 136 170 219 275 332
#     4  11  22  37  58  81 105 144 195 227 258 314
#
# _framework density 17.142931999999998
#
# number of rings (size 3 to 8) (size 9 to 14) (size 15 to 20)
#    0.000    2.000    3.333    2.250    0.000    6.333 
#    0.000    2.500    0.000    0.000    0.000    1.167 
#    0.000    0.000    0.000    0.000    0.000    0.000 
#
# Total GULP energy -267434.074801 kJ/mol
# GULP energy per Si atom -5571.543225 kJ/mol
# Density = 1.710391 g / cm^3
# Si number density = 17.142932 Si / 1000 Ang^3
#
#
#
# Elastic Constant Matrix: (Units=GPa)
#
#
# Indices 1 2 3 4 5 6 
#
# 1 94.4104 50.2691 44.9910 0.0000 0.0000 0.0000
# 2 50.2691 108.3634 59.5520 0.0000 0.0000 0.0000
# 3 44.9910 59.5520 143.0920 0.0000 0.0000 0.0000
# 4 0.0000 0.0000 0.0000 0.4725 0.0000 0.0000
# 5 0.0000 0.0000 0.0000 0.0000 14.8611 0.0000
# 6 0.0000 0.0000 0.0000 0.0000 0.0000 41.3959
#
#
#
# Elastic Compliance Matrix: (Units=1/GPa)
#
#
# Indices 1 2 3 4 5 6 
#
# 1 0.014629 -0.005521 -0.002302 0.000000 0.000000 0.000000
# 2 -0.005521 0.014049 -0.004111 0.000000 0.000000 0.000000
# 3 -0.002302 -0.004111 0.009423 0.000000 0.000000 0.000000
# 4 0.000000 0.000000 0.000000 2.116237 0.000000 0.000000
# 5 0.000000 0.000000 0.000000 0.000000 0.067290 0.000000
# 6 0.000000 0.000000 0.000000 0.000000 0.000000 0.024157
#
#
# Mechanical properties :
#
#
# Convention : Reuss Voigt Hill
#
# Bulk Modulus (GPa) = 70.25974 72.83220 71.54597
# Shear Modulus (GPa) = 2.19839 24.08283 13.14061
#
# Velocity S-wave (km/s) = 1.13365 3.75217 2.77164
# Velocity P-wave (km/s) = 6.54119 7.83257 7.21583
#
# Compressibility (1/GPa) = 0.01423290
#
# Stress axis : x y z
#
# Youngs Moduli (GPa) = 68.35857 71.18170 106.12298
#
# Poissons Ratio (x) = 0.39301 0.24427
# Poissons Ratio (y) = 0.37742 0.43624
# Poissons Ratio (z) = 0.15734 0.29261
#
# Static dielectric constant tensor:
#      x y z
#    x 1.602820 0.000000 0.000000 
#    y 0.000000 1.546320 0.000000 
#    z 0.000000 0.000000 1.608050 
# 
# From -- ./inp_files/19743.got.cif
#   From: 2010.05.17/outbox.cif.g08.bks.cpg/sg67_10_cif.got.tgz:19743.got - 2010.06.03 18:28:57.
