data_PCOD9500790
_publ_section_title
;
Structure prediction by ZEFSAII (Michael W. Deem and Ramdas Pophale) SiO2 
 PCOD9500790
Probable space group: C M M A
;
_chemical_formula_sum "Si O2"
_cell_formula_units_Z 96
_cell_length_a 17.625579
_cell_length_b 18.552686
_cell_length_c 18.419887
_cell_angle_alpha 90.000000
_cell_angle_beta 90.000000
_cell_angle_gamma 90.000000
_cell_volume 6023.336808
_symmetry_space_group_name_H-M "C M M A"
_symmetry_group_IT_number 67
_symmetry_cell_setting 'orthorhombic'
loop_
_space_group_symop_operation_xyz
x,y,z
-x,1/2-y,z
x,-y,-z
-x,1/2+y,-z
-x,-y,-z
x,1/2+y,-z
-x,y,z
x,1/2-y,z
1/2+x,1/2+y,z
1/2-x,-y,z
1/2+x,1/2-y,-z
1/2-x,y,-z
1/2-x,1/2-y,-z
1/2+x,y,-z
1/2-x,1/2+y,z
1/2+x,-y,z
loop_
_atom_site_type_symbol
_atom_site_label
_atom_site_fract_x
_atom_site_fract_y
_atom_site_fract_z
Si Si1 0.690211 0.830915 0.567406
Si Si2 0.185776 0.937868 0.823664
Si Si3 0.705400 0.924570 0.341662
Si Si4 0.214689 0.335144 0.919245
Si Si5 0.415553 0.419337 0.529953
Si Si6 0.410229 0.538099 0.921974
O O1 0.668965 0.750000 0.583614
O O2 0.750000 0.832123 0.500000
O O3 0.731890 0.866018 0.635643
O O4 0.619694 0.873691 0.535498
O O5 0.174429 0.918544 0.739621
O O6 0.221675 0.870374 0.866585
O O7 0.250000 0.000000 0.824999
O O8 0.116199 0.977833 0.863381
O O9 0.638931 0.918105 0.400537
O O10 0.750000 0.000000 0.350214
O O11 0.198835 0.250000 0.903658
O O12 0.142063 0.389766 0.915590
O O13 0.250000 0.339060 0.000000
O O14 0.417342 0.500000 0.500000
O O15 0.500000 0.395088 0.548653
O O16 0.500000 0.554008 0.915721
O O17 0.395964 0.500000 0.000000
#
# Coordination Sequence:
#
# PCOD9500790 Si02
#       6
#    16  16  16  16  16  16
#     4   9  18  31  50  73  97 130 170 210 250 302
#     4   9  19  32  52  77 103 135 176 220 259 308
#     4  10  18  32  52  76 100 134 172 214 260 305
#     4  10  19  33  54  77 104 140 181 221 260 308
#     4  10  19  31  51  75 103 136 171 213 259 308
#     4  10  19  33  54  78 107 140 174 217 266 314
#
# _framework density 15.93801
#
# number of rings (size 3 to 8) (size 9 to 14) (size 15 to 20)
#    0.000    2.333    3.333    0.000    0.000    2.000 
#    0.000    0.000    0.000    0.500    0.000    4.667 
#    0.000    0.000    0.000    0.000    0.000    0.000 
#
# Total GULP energy -267238.385741 kJ/mol
# GULP energy per Si atom -5567.466370 kJ/mol
# Density = 1.590173 g / cm^3
# Si number density = 15.938010 Si / 1000 Ang^3
#
#
#
# Elastic Constant Matrix: (Units=GPa)
#
#
# Indices 1 2 3 4 5 6 
#
# 1 96.0100 50.8230 36.7435 0.0000 0.0000 0.0000
# 2 50.8230 123.3808 39.8204 0.0000 0.0000 0.0000
# 3 36.7435 39.8204 100.1473 0.0000 0.0000 0.0000
# 4 0.0000 0.0000 0.0000 -5.2306 0.0000 0.0000
# 5 0.0000 0.0000 0.0000 0.0000 9.0727 0.0000
# 6 0.0000 0.0000 0.0000 0.0000 0.0000 -50.0547
#
#
#
# Elastic Compliance Matrix: (Units=1/GPa)
#
#
# Indices 1 2 3 4 5 6 
#
# 1 0.014218 -0.004787 -0.003313 0.000000 0.000000 0.000000
# 2 -0.004787 0.010910 -0.002582 0.000000 0.000000 0.000000
# 3 -0.003313 -0.002582 0.012227 0.000000 0.000000 0.000000
# 4 0.000000 0.000000 0.000000 -0.191182 0.000000 0.000000
# 5 0.000000 0.000000 0.000000 0.000000 0.110221 0.000000
# 6 0.000000 0.000000 0.000000 0.000000 0.000000 -0.019978
#
#
# Mechanical properties :
#
#
# Convention : Reuss Voigt Hill
#
# Bulk Modulus (GPa) = 62.53342 63.81243 63.17293
# Shear Modulus (GPa) = -135.53725 3.56757 -65.98484
#
# Velocity S-wave (km/s) = -9.23173 1.49775 -6.44134
# Velocity P-wave (km/s) = 8.62048 6.56626 3.94948
#
# Compressibility (1/GPa) = 0.01599145
#
# Stress axis : x y z
#
# Youngs Moduli (GPa) = 70.33542 91.65747 81.78446
#
# Poissons Ratio (x) = 0.43879 0.27094
# Poissons Ratio (y) = 0.33672 0.21114
# Poissons Ratio (z) = 0.23301 0.23663
#
# Static dielectric constant tensor:
#      x y z
#    x 1.542200 0.000000 0.000000 
#    y 0.000000 1.531720 0.000000 
#    z 0.000000 0.000000 1.529940 
# 
# From -- ./inp_files/34198.got.cif
#   From: 2010.05.17/outbox.cif.g08.bks.cpg/sg67_18_cif.got.tgz:34198.got - 2010.06.03 18:28:57.
