data_PCOD9500230
_publ_section_title
;
Structure prediction by ZEFSAII (Michael W. Deem and Ramdas Pophale) SiO2 
 PCOD9500230
Probable space group: C M M A
;
_chemical_formula_sum "Si O2"
_cell_formula_units_Z 60
_cell_length_a 22.791521
_cell_length_b 5.425151
_cell_length_c 25.098715
_cell_angle_alpha 90.000000
_cell_angle_beta 90.000000
_cell_angle_gamma 90.000000
_cell_volume 3103.391931
_symmetry_space_group_name_H-M "C M M A"
_symmetry_group_IT_number 67
_symmetry_cell_setting 'orthorhombic'
loop_
_space_group_symop_operation_xyz
x,y,z
-x,1/2-y,z
x,-y,-z
-x,1/2+y,-z
-x,-y,-z
x,1/2+y,-z
-x,y,z
x,1/2-y,z
1/2+x,1/2+y,z
1/2-x,-y,z
1/2+x,1/2-y,-z
1/2-x,y,-z
1/2-x,1/2-y,-z
1/2+x,y,-z
1/2-x,1/2+y,z
1/2+x,-y,z
loop_
_atom_site_type_symbol
_atom_site_label
_atom_site_fract_x
_atom_site_fract_y
_atom_site_fract_z
Si Si1 0.430009 0.250000 0.301053
Si Si2 0.273941 0.750000 0.439487
Si Si3 0.891873 0.250000 0.117246
Si Si4 0.910818 0.250000 0.466720
Si Si5 0.065784 0.750000 0.653929
Si Si6 0.816965 0.250000 0.022790
Si Si7 0.000000 0.250000 0.034713
Si Si8 0.930054 0.750000 0.173802
O O1 0.500000 0.250000 0.314855
O O2 0.404831 0.498952 0.326407
O O3 0.424729 0.250000 0.237668
O O4 0.250000 0.500000 0.413690
O O5 0.250000 0.750000 0.500000
O O6 0.342841 0.750000 0.449089
O O7 0.829943 0.250000 0.085507
O O8 0.942865 0.250000 0.072511
O O9 0.901714 0.500377 0.150468
O O10 0.923128 0.500000 0.500000
O O11 0.940280 0.250000 0.409304
O O12 0.000000 0.750000 0.678589
O O13 0.844119 0.500000 0.000000
O O14 0.750000 0.250000 0.000000
O O15 0.000000 0.500000 0.000000
O O16 0.000000 0.750000 0.160753
#
# Coordination Sequence:
#
# PCOD9500230 Si02
#       8
#     8   8   8   8   8   8   4   8
#     4   9  19  36  56  71 103 145 178 228 278 317
#     4  10  16  30  47  68 101 124 162 205 256 303
#     4  12  21  34  53  83 115 143 190 222 275 334
#     4  12  21  31  51  76 106 143 175 217 256 318
#     4  10  21  36  50  74 107 146 185 212 263 331
#     4  10  21  38  56  75 111 148 194 230 256 315
#     4  12  22  32  46  72 122 164 158 196 268 340
#     4  11  20  35  55  83 111 141 183 239 285 339
#
# _framework density 19.333683000000001
#
# number of rings (size 3 to 8) (size 9 to 14) (size 15 to 20)
#    0.000    1.333    4.000    4.000    0.000    2.667 
#    0.000    0.000    0.000    0.000    0.000    0.000 
#   80.000    0.000    0.000    0.000    0.000    0.000 
#
# Total GULP energy -167299.111266 kJ/mol
# GULP energy per Si atom -5576.637042 kJ/mol
# Density = 1.928968 g / cm^3
# Si number density = 19.333683 Si / 1000 Ang^3
#
#
#
# Elastic Constant Matrix: (Units=GPa)
#
#
# Indices 1 2 3 4 5 6 
#
# 1 58.3861 8.3663 11.4851 0.0000 0.0000 0.0000
# 2 8.3663 247.7450 71.4261 0.0000 0.0000 0.0000
# 3 11.4851 71.4261 78.2388 0.0000 0.0000 0.0000
# 4 0.0000 0.0000 0.0000 37.1961 0.0000 0.0000
# 5 0.0000 0.0000 0.0000 0.0000 14.2611 0.0000
# 6 0.0000 0.0000 0.0000 0.0000 0.0000 -9.0153
#
#
#
# Elastic Compliance Matrix: (Units=1/GPa)
#
#
# Indices 1 2 3 4 5 6 
#
# 1 0.017644 0.000205 -0.002777 0.000000 0.000000 0.000000
# 2 0.000205 0.005481 -0.005034 0.000000 0.000000 0.000000
# 3 -0.002777 -0.005034 0.017784 0.000000 0.000000 0.000000
# 4 0.000000 0.000000 0.000000 0.026885 0.000000 0.000000
# 5 0.000000 0.000000 0.000000 0.000000 0.070121 0.000000
# 6 0.000000 0.000000 0.000000 0.000000 0.000000 -0.110923
#
#
# Mechanical properties :
#
#
# Convention : Reuss Voigt Hill
#
# Bulk Modulus (GPa) = 38.91401 62.99165 50.95283
# Shear Modulus (GPa) = 98.48516 28.02789 63.25652
#
# Velocity S-wave (km/s) = 7.14495 3.81161 5.72620
# Velocity P-wave (km/s) = 9.39352 7.21271 8.37441
#
# Compressibility (1/GPa) = 0.02569769
#
# Stress axis : x y z
#
# Youngs Moduli (GPa) = 56.67550 182.45926 56.22951
#
# Poissons Ratio (x) = -0.03737 0.15615
# Poissons Ratio (y) = -0.01161 0.28303
# Poissons Ratio (z) = 0.15739 0.91841
#
# Static dielectric constant tensor:
#      x y z
#    x 1.599410 0.000000 0.000000 
#    y 0.000000 1.393040 0.000000 
#    z 0.000000 0.000000 1.620000 
# 
# From -- ./inp_files/39469.got.cif
#   From: 2010.05.17/outbox.cif.g08.bks.cpg/sg67_20_cif.got.tgz:39469.got - 2010.06.03 18:28:57.
