data_PCOD9500135
_publ_section_title
;
Structure prediction by ZEFSAII (Michael W. Deem and Ramdas Pophale) SiO2 
 PCOD9500135
Probable space group: C C C M
;
_chemical_formula_sum "Si O2"
_cell_formula_units_Z 48
_cell_length_a 27.000000
_cell_length_b 21.000000
_cell_length_c 9.000000
_cell_angle_alpha 90.000000
_cell_angle_beta 90.000000
_cell_angle_gamma 90.000000
_cell_volume 5103.000000
_symmetry_space_group_name_H-M "C C C M"
_symmetry_group_IT_number 66
_symmetry_cell_setting 'orthorhombic'
loop_
_space_group_symop_operation_xyz
x,y,z
-x,-y,z
x,-y,1/2-z
-x,y,1/2-z
-x,-y,-z
x,y,-z
-x,y,1/2+z
x,-y,1/2+z
1/2+x,1/2+y,z
1/2-x,1/2-y,z
1/2+x,1/2-y,1/2-z
1/2-x,1/2+y,1/2-z
1/2-x,1/2-y,-z
1/2+x,1/2+y,-z
1/2-x,1/2+y,1/2+z
1/2+x,1/2-y,1/2+z
loop_
_atom_site_type_symbol
_atom_site_label
_atom_site_fract_x
_atom_site_fract_y
_atom_site_fract_z
Si Si1 0.948891 0.833453 0.179128
Si Si2 0.137972 0.931075 0.676699
Si Si3 0.320898 0.790353 0.169781
Si Si4 0.219422 0.145816 0.667903
Si Si5 0.945737 0.437633 0.822613
Si Si6 0.583414 0.192320 0.671994
O O1 0.903826 0.879478 0.224943
O O2 0.940718 0.759240 0.222006
O O3 0.000000 0.855908 0.250000
O O4 0.951406 0.834484 0.000000
O O5 0.134818 0.937571 0.500000
O O6 0.190265 0.900044 0.722959
O O7 0.130978 0.000000 0.750000
O O8 0.277452 0.841705 0.190202
O O9 0.301419 0.717954 0.174196
O O10 0.358868 0.795985 0.303046
O O11 0.340973 0.799137 0.000000
O O12 0.211233 0.121920 0.500000
O O13 0.919939 0.500000 0.750000
O O14 0.926370 0.369045 0.772355
O O15 0.000000 0.437400 0.750000
O O16 0.947212 0.443833 0.000000
O O17 0.570085 0.180143 0.500000
#
# Coordination Sequence:
#
# PCOD9500135 Si02
#       6
#    16  16  16  16  16  16
#     4  10  23  39  57  83 115 150 195 245 294 347
#     4  11  23  40  59  84 115 154 198 245 298 354
#     4   9  18  33  57  87 116 146 185 230 281 338
#     4   9  18  35  58  85 114 147 186 230 281 341
#     4  11  22  38  58  82 112 151 192 234 283 342
#     4  11  21  36  57  87 120 153 192 238 288 343
#
# _framework density 9.4062319999999993
#
# number of rings (size 3 to 8) (size 9 to 14) (size 15 to 20)
#    0.000    1.833    1.667    4.500    0.000    5.000 
#    0.000    4.167    0.000    4.000    0.000    0.000 
#    0.000    0.000    0.000    0.000    0.000    0.000 
#
# Total GULP energy -267532.711246 kJ/mol
# GULP energy per Si atom -5573.598151 kJ/mol
# Density = 0.938482 g / cm^3
# Si number density = 9.406232 Si / 1000 Ang^3
#
#
#
# Elastic Constant Matrix: (Units=GPa)
#
#
# Indices 1 2 3 4 5 6 
#
# 1 36.6940 10.4926 11.6569 0.0000 0.0000 0.0000
# 2 10.4926 95.9504 34.5130 0.0000 0.0000 0.0000
# 3 11.6569 34.5130 64.7583 0.0000 0.0000 0.0000
# 4 0.0000 0.0000 0.0000 112.0088 0.0000 0.0000
# 5 0.0000 0.0000 0.0000 0.0000 28.9718 0.0000
# 6 0.0000 0.0000 0.0000 0.0000 0.0000 50.8699
#
#
#
# Elastic Compliance Matrix: (Units=1/GPa)
#
#
# Indices 1 2 3 4 5 6 
#
# 1 0.029104 -0.001606 -0.004383 0.000000 0.000000 0.000000
# 2 -0.001606 0.012982 -0.006630 0.000000 0.000000 0.000000
# 3 -0.004383 -0.006630 0.019764 0.000000 0.000000 0.000000
# 4 0.000000 0.000000 0.000000 0.008928 0.000000 0.000000
# 5 0.000000 0.000000 0.000000 0.000000 0.034516 0.000000
# 6 0.000000 0.000000 0.000000 0.000000 0.000000 0.019658
#
#
# Mechanical properties :
#
#
# Convention : Reuss Voigt Hill
#
# Bulk Modulus (GPa) = 27.31271 34.52531 30.91901
# Shear Modulus (GPa) = 30.78907 47.75279 39.27093
#
# Velocity S-wave (km/s) = 4.04992 5.04368 4.57387
# Velocity P-wave (km/s) = 6.03482 7.23260 6.66069
#
# Compressibility (1/GPa) = 0.03661299
#
# Stress axis : x y z
#
# Youngs Moduli (GPa) = 34.35944 77.02711 50.59606
#
# Poissons Ratio (x) = 0.12372 0.22176
# Poissons Ratio (y) = 0.05519 0.33545
# Poissons Ratio (z) = 0.15059 0.51068
#
# Static dielectric constant tensor:
#      x y z
#    x 1.705190 0.000000 0.000000 
#    y 0.000000 1.707520 0.000000 
#    z 0.000000 0.000000 1.648250 
# 
# From -- ./inp_files/8022.got.cif
#   From: 2010.05.17/outbox.ucp.g08.bks.cvg/sg66_5_cif.got.tgz:8022.got - 2010.06.11 16:44:13.
