data_PCOD9500513
_publ_section_title
;
Structure prediction by ZEFSAII (Michael W. Deem and Ramdas Pophale) SiO2 
 PCOD9500513
Probable space group: C M M A
;
_chemical_formula_sum "Si O2"
_cell_formula_units_Z 120
_cell_length_a 15.313690
_cell_length_b 20.599771
_cell_length_c 19.958244
_cell_angle_alpha 90.000000
_cell_angle_beta 90.000000
_cell_angle_gamma 90.000000
_cell_volume 6295.997858
_symmetry_space_group_name_H-M "C M M A"
_symmetry_group_IT_number 67
_symmetry_cell_setting 'orthorhombic'
loop_
_space_group_symop_operation_xyz
x,y,z
-x,1/2-y,z
x,-y,-z
-x,1/2+y,-z
-x,-y,-z
x,1/2+y,-z
-x,y,z
x,1/2-y,z
1/2+x,1/2+y,z
1/2-x,-y,z
1/2+x,1/2-y,-z
1/2-x,y,-z
1/2-x,1/2-y,-z
1/2+x,y,-z
1/2-x,1/2+y,z
1/2+x,-y,z
loop_
_atom_site_type_symbol
_atom_site_label
_atom_site_fract_x
_atom_site_fract_y
_atom_site_fract_z
Si Si1 0.096204 0.081309 0.043982
Si Si2 0.599509 0.171321 0.454121
Si Si3 0.780146 0.328831 0.669520
Si Si4 0.400973 0.328975 0.607575
Si Si5 0.250000 0.500000 0.111742
Si Si6 0.904112 0.327083 0.168957
Si Si7 0.718649 0.874338 0.810218
Si Si8 0.334540 0.321202 0.049547
O O1 0.175386 0.035410 0.067463
O O2 0.096077 0.142458 0.094857
O O3 0.000000 0.051240 0.049773
O O4 0.111580 0.115751 0.973009
O O5 0.500000 0.152122 0.438932
O O6 0.602515 0.250000 0.455074
O O7 0.664606 0.151281 0.395717
O O8 0.618893 0.151347 0.530546
O O9 0.782167 0.250000 0.676074
O O10 0.679939 0.348184 0.653718
O O11 0.819398 0.358157 0.737870
O O12 0.500000 0.350180 0.624627
O O13 0.402589 0.250000 0.608912
O O14 0.291836 0.445905 0.159961
O O15 0.891596 0.250000 0.167770
O O16 0.821529 0.360820 0.201235
O O17 0.000000 0.340044 0.198750
O O18 0.691459 0.828987 0.872853
O O19 0.375431 0.250000 0.039545
O O20 0.250000 0.323621 0.000000
#
# Coordination Sequence:
#
# PCOD9500513 Si02
#       8
#    16  16  16  16   8  16  16  16
#     4  10  21  37  60  81 100 134 180 229 276 320
#     4   8  14  26  44  67  98 137 174 207 249 308
#     4  10  18  28  45  72 105 137 171 209 261 324
#     4   8  14  25  44  73 107 136 163 201 252 314
#     4  10  22  41  58  74 105 140 190 238 273 312
#     4   9  16  28  49  77 103 126 161 210 267 331
#     4  11  22  34  50  72 106 147 180 216 272 325
#     4  11  20  34  58  83 109 137 169 218 281 342
#
# _framework density 19.059728
#
# number of rings (size 3 to 8) (size 9 to 14) (size 15 to 20)
#    0.000    2.400    2.667    2.800    0.000    4.000 
#    0.000    4.000    0.000    2.400    0.000    1.867 
#    0.000    2.933    0.000    0.000    0.000    0.000 
#
# Total GULP energy -334338.042619 kJ/mol
# GULP energy per Si atom -5572.300710 kJ/mol
# Density = 1.901635 g / cm^3
# Si number density = 19.059728 Si / 1000 Ang^3
#
#
#
# Elastic Constant Matrix: (Units=GPa)
#
#
# Indices 1 2 3 4 5 6 
#
# 1 69.1684 12.1791 40.5606 0.0000 0.0000 0.0000
# 2 12.1791 58.2469 16.3213 0.0000 0.0000 0.0000
# 3 40.5606 16.3213 126.4549 0.0000 0.0000 0.0000
# 4 0.0000 0.0000 0.0000 15.0823 0.0000 0.0000
# 5 0.0000 0.0000 0.0000 0.0000 0.0088 0.0000
# 6 0.0000 0.0000 0.0000 0.0000 0.0000 10.5935
#
#
#
# Elastic Compliance Matrix: (Units=1/GPa)
#
#
# Indices 1 2 3 4 5 6 
#
# 1 0.018083 -0.002237 -0.005512 0.000000 0.000000 0.000000
# 2 -0.002237 0.018089 -0.001617 0.000000 0.000000 0.000000
# 3 -0.005512 -0.001617 0.009885 0.000000 0.000000 0.000000
# 4 0.000000 0.000000 0.000000 0.066303 0.000000 0.000000
# 5 0.000000 0.000000 0.000000 0.000000113.604502 0.000000
# 6 0.000000 0.000000 0.000000 0.000000 0.000000 0.094397
#
#
# Mechanical properties :
#
#
# Convention : Reuss Voigt Hill
#
# Bulk Modulus (GPa) = 36.59542 43.55471 40.07506
# Shear Modulus (GPa) = 0.04392 17.45755 8.75074
#
# Velocity S-wave (km/s) = 0.15197 3.02973 2.14504
# Velocity P-wave (km/s) = 4.39009 5.92793 5.21599
#
# Compressibility (1/GPa) = 0.02732583
#
# Stress axis : x y z
#
# Youngs Moduli (GPa) = 55.29961 55.28175 101.16805
#
# Poissons Ratio (x) = 0.12365 0.55759
# Poissons Ratio (y) = 0.12369 0.16362
# Poissons Ratio (z) = 0.30479 0.08941
#
# Static dielectric constant tensor:
#      x y z
#    x 1.723930 0.000000 0.000000 
#    y 0.000000 1.667950 0.000000 
#    z 0.000000 0.000000 1.716320 
# 
# From -- ./inp_files/38720.got.cif
#   From: 2010.05.17/outbox.cif.g08.bks.cpg/sg67_20_cif.got.tgz:38720.got - 2010.06.03 18:28:57.
