data_PCOD9500848
_publ_section_title
;
Structure prediction by ZEFSAII (Michael W. Deem and Ramdas Pophale) SiO2 
 PCOD9500848
Probable space group: C M M A
;
_chemical_formula_sum "Si O2"
_cell_formula_units_Z 96
_cell_length_a 18.498396
_cell_length_b 14.694684
_cell_length_c 16.611530
_cell_angle_alpha 90.000000
_cell_angle_beta 90.000000
_cell_angle_gamma 90.000000
_cell_volume 4515.480368
_symmetry_space_group_name_H-M "C M M A"
_symmetry_group_IT_number 67
_symmetry_cell_setting 'orthorhombic'
loop_
_space_group_symop_operation_xyz
x,y,z
-x,1/2-y,z
x,-y,-z
-x,1/2+y,-z
-x,-y,-z
x,1/2+y,-z
-x,y,z
x,1/2-y,z
1/2+x,1/2+y,z
1/2-x,-y,z
1/2+x,1/2-y,-z
1/2-x,y,-z
1/2-x,1/2-y,-z
1/2+x,y,-z
1/2-x,1/2+y,z
1/2+x,-y,z
loop_
_atom_site_type_symbol
_atom_site_label
_atom_site_fract_x
_atom_site_fract_y
_atom_site_fract_z
Si Si1 0.710231 0.644571 0.382465
Si Si2 0.629419 0.140266 0.341069
Si Si3 0.297861 0.147836 0.071258
Si Si4 0.414734 0.047616 0.171302
Si Si5 0.922482 0.639546 0.514508
Si Si6 0.197117 0.411417 0.208131
O O1 0.720175 0.750000 0.406819
O O2 0.791379 0.607848 0.371598
O O3 0.649507 0.604324 0.441135
O O4 0.681735 0.636568 0.291904
O O5 0.632692 0.250000 0.326699
O O6 0.604158 0.093523 0.258601
O O7 0.581099 0.123084 0.419175
O O8 0.316538 0.250000 0.046555
O O9 0.369833 0.099092 0.101916
O O10 0.243748 0.147984 0.147383
O O11 0.250000 0.104922 0.000000
O O12 0.500000 0.048502 0.159719
O O13 0.377580 0.948913 0.173630
O O14 0.921082 0.750000 0.524398
O O15 0.000000 0.606523 0.546737
O O16 0.250000 0.500000 0.219287
#
# Coordination Sequence:
#
# PCOD9500848 Si02
#       6
#    16  16  16  16  16  16
#     4  10  18  32  56  80 107 149 200 242 281 339
#     4  10  18  32  55  83 111 146 195 248 291 335
#     4  10  21  40  66  91 114 145 187 233 280 335
#     4  11  23  37  59  90 122 152 185 232 291 342
#     4   9  18  30  47  76 112 149 192 244 295 335
#     4  10  20  36  56  81 116 154 187 224 275 348
#
# _framework density 21.260196000000001
#
# number of rings (size 3 to 8) (size 9 to 14) (size 15 to 20)
#    0.000    2.000    3.333    2.000    0.000    7.667 
#    0.000    2.500    0.000    4.500    0.000    0.000 
#    0.000    0.000    0.000    0.000    0.000    0.000 
#
# Total GULP energy -267804.399496 kJ/mol
# GULP energy per Si atom -5579.258323 kJ/mol
# Density = 2.121181 g / cm^3
# Si number density = 21.260196 Si / 1000 Ang^3
#
#
#
# Elastic Constant Matrix: (Units=GPa)
#
#
# Indices 1 2 3 4 5 6 
#
# 1 195.6379 22.3337 35.9549 0.0000 0.0000 0.0000
# 2 22.3337 38.0120 -3.3210 0.0000 0.0000 0.0000
# 3 35.9549 -3.3210 52.0042 0.0000 0.0000 0.0000
# 4 0.0000 0.0000 0.0000 39.8667 0.0000 0.0000
# 5 0.0000 0.0000 0.0000 0.0000 22.7376 0.0000
# 6 0.0000 0.0000 0.0000 0.0000 0.0000 11.5780
#
#
#
# Elastic Compliance Matrix: (Units=1/GPa)
#
#
# Indices 1 2 3 4 5 6 
#
# 1 0.006463 -0.004211 -0.004737 0.000000 0.000000 0.000000
# 2 -0.004211 0.029199 0.004776 0.000000 0.000000 0.000000
# 3 -0.004737 0.004776 0.022809 0.000000 0.000000 0.000000
# 4 0.000000 0.000000 0.000000 0.025084 0.000000 0.000000
# 5 0.000000 0.000000 0.000000 0.000000 0.043980 0.000000
# 6 0.000000 0.000000 0.000000 0.000000 0.000000 0.086371
#
#
# Mechanical properties :
#
#
# Convention : Reuss Voigt Hill
#
# Bulk Modulus (GPa) = 19.94939 43.95437 31.95188
# Shear Modulus (GPa) = 20.92412 30.21557 25.56985
#
# Velocity S-wave (km/s) = 3.14059 3.77401 3.47177
# Velocity P-wave (km/s) = 4.74920 6.30160 5.57965
#
# Compressibility (1/GPa) = 0.05012684
#
# Stress axis : x y z
#
# Youngs Moduli (GPa) = 154.73088 34.24786 43.84149
#
# Poissons Ratio (x) = 0.14422 0.20769
# Poissons Ratio (y) = 0.65158 -0.20939
# Poissons Ratio (z) = 0.73299 -0.16357
#
# Static dielectric constant tensor:
#      x y z
#    x 1.790360 0.000000 0.000000 
#    y 0.000000 1.809740 0.000000 
#    z 0.000000 0.000000 1.779390 
# 
# From -- ./inp_files/34211.got.cif
#   From: 2010.05.17/outbox.cif.g08.bks.cpg/sg67_18_cif.got.tgz:34211.got - 2010.06.03 18:28:57.
