data_PCOD9500983
_publ_section_title
;
Structure prediction by ZEFSAII (Michael W. Deem and Ramdas Pophale) SiO2 
 PCOD9500983
Probable space group: C M M A
;
_chemical_formula_sum "Si O2"
_cell_formula_units_Z 68
_cell_length_a 19.008375
_cell_length_b 20.561897
_cell_length_c 8.280709
_cell_angle_alpha 90.000000
_cell_angle_beta 90.000000
_cell_angle_gamma 90.000000
_cell_volume 3236.500612
_symmetry_space_group_name_H-M "C M M A"
_symmetry_group_IT_number 67
_symmetry_cell_setting 'orthorhombic'
loop_
_space_group_symop_operation_xyz
x,y,z
-x,1/2-y,z
x,-y,-z
-x,1/2+y,-z
-x,-y,-z
x,1/2+y,-z
-x,y,z
x,1/2-y,z
1/2+x,1/2+y,z
1/2-x,-y,z
1/2+x,1/2-y,-z
1/2-x,y,-z
1/2-x,1/2-y,-z
1/2+x,y,-z
1/2-x,1/2+y,z
1/2+x,-y,z
loop_
_atom_site_type_symbol
_atom_site_label
_atom_site_fract_x
_atom_site_fract_y
_atom_site_fract_z
Si Si1 0.250000 0.500000 0.217747
Si Si2 0.000000 0.930556 0.084008
Si Si3 0.500000 0.126553 0.750468
Si Si4 0.856240 0.110045 0.775147
Si Si5 0.083696 0.750000 0.207428
Si Si6 0.129131 0.565038 0.574016
Si Si7 0.500000 0.250000 0.524374
O O1 0.200800 0.559300 0.146610
O O2 0.195809 0.459548 0.326534
O O3 0.931257 0.922045 0.188926
O O4 0.000000 0.876620 0.942564
O O5 0.000000 0.000000 0.000000
O O6 0.572005 0.093674 0.692867
O O7 0.500000 0.190712 0.644860
O O8 0.870654 0.184913 0.829755
O O9 0.847808 0.107863 0.580299
O O10 0.000000 0.750000 0.145604
O O11 0.065701 0.750000 0.400186
O O12 0.096135 0.500000 0.500000
#
# Coordination Sequence:
#
# PCOD9500983 Si02
#       7
#     8   8   8  16   8  16   4
#     4  10  23  36  61  92 127 160 217 262 313 372
#     4  12  24  37  60  94 119 165 213 267 325 371
#     4  12  22  36  59  86 120 157 214 254 308 380
#     4  11  20  39  61  92 130 163 208 264 322 379
#     4  10  18  37  66  96 123 167 208 262 334 375
#     4  10  18  36  58  85 117 159 201 261 308 360
#     4  10  20  38  58  96 120 162 196 266 326 376
#
# _framework density 21.010345999999998
#
# number of rings (size 3 to 8) (size 9 to 14) (size 15 to 20)
#    0.353    0.941    3.529    7.059    0.000    0.941 
#    0.000    8.824    0.000    0.000    0.000    8.235 
#    0.000    0.000    0.000    0.000    0.000    0.000 
#
# Total GULP energy -189312.258497 kJ/mol
# GULP energy per Si atom -5568.007603 kJ/mol
# Density = 2.096253 g / cm^3
# Si number density = 21.010346 Si / 1000 Ang^3
#
#
#
# Elastic Constant Matrix: (Units=GPa)
#
#
# Indices 1 2 3 4 5 6 
#
# 1 143.6459 57.8759 26.2861 0.0000 0.0000 0.0000
# 2 57.8759 137.9301 -3.1344 0.0000 0.0000 0.0000
# 3 26.2861 -3.1344 31.3966 0.0000 0.0000 0.0000
# 4 0.0000 0.0000 0.0000 26.6669 0.0000 0.0000
# 5 0.0000 0.0000 0.0000 0.0000 24.3836 0.0000
# 6 0.0000 0.0000 0.0000 0.0000 0.0000 33.5811
#
#
#
# Elastic Compliance Matrix: (Units=1/GPa)
#
#
# Indices 1 2 3 4 5 6 
#
# 1 0.010522 -0.004626 -0.009271 0.000000 0.000000 0.000000
# 2 -0.004626 0.009300 0.004801 0.000000 0.000000 0.000000
# 3 -0.009271 0.004801 0.040092 0.000000 0.000000 0.000000
# 4 0.000000 0.000000 0.000000 0.037500 0.000000 0.000000
# 5 0.000000 0.000000 0.000000 0.000000 0.041011 0.000000
# 6 0.000000 0.000000 0.000000 0.000000 0.000000 0.029779
#
#
# Mechanical properties :
#
#
# Convention : Reuss Voigt Hill
#
# Bulk Modulus (GPa) = 23.96766 52.78087 38.37427
# Shear Modulus (GPa) = 24.96235 32.38932 28.67584
#
# Velocity S-wave (km/s) = 3.45062 3.93057 3.69839
# Velocity P-wave (km/s) = 5.22571 6.76573 6.04496
#
# Compressibility (1/GPa) = 0.04172288
#
# Stress axis : x y z
#
# Youngs Moduli (GPa) = 95.04101 107.52591 24.94275
#
# Poissons Ratio (x) = 0.49738 0.23124
# Poissons Ratio (y) = 0.43963 -0.11975
# Poissons Ratio (z) = 0.88112 -0.51625
#
# Static dielectric constant tensor:
#      x y z
#    x 1.739290 0.000000 0.000000 
#    y 0.000000 1.808060 0.000000 
#    z 0.000000 0.000000 1.756270 
# 
# From -- ./inp_files/9566.got.cif
#   From: 2010.05.17/outbox.cif.g08.bks.cpg/sg67_5_cif.got.tgz:9566.got - 2010.06.03 18:28:57.
