data_PCOD9500967
_publ_section_title
;
Structure prediction by ZEFSAII (Michael W. Deem and Ramdas Pophale) SiO2 
 PCOD9500967
Probable space group: C M M A
;
_chemical_formula_sum "Si O2"
_cell_formula_units_Z 68
_cell_length_a 21.189724
_cell_length_b 15.942452
_cell_length_c 9.943128
_cell_angle_alpha 90.000000
_cell_angle_beta 90.000000
_cell_angle_gamma 90.000000
_cell_volume 3358.949297
_symmetry_space_group_name_H-M "C M M A"
_symmetry_group_IT_number 67
_symmetry_cell_setting 'orthorhombic'
loop_
_space_group_symop_operation_xyz
x,y,z
-x,1/2-y,z
x,-y,-z
-x,1/2+y,-z
-x,-y,-z
x,1/2+y,-z
-x,y,z
x,1/2-y,z
1/2+x,1/2+y,z
1/2-x,-y,z
1/2+x,1/2-y,-z
1/2-x,y,-z
1/2-x,1/2-y,-z
1/2+x,y,-z
1/2-x,1/2+y,z
1/2+x,-y,z
loop_
_atom_site_type_symbol
_atom_site_label
_atom_site_fract_x
_atom_site_fract_y
_atom_site_fract_z
Si Si1 0.399708 0.400882 0.237732
Si Si2 0.500000 0.250000 0.279149
Si Si3 0.076052 0.846310 0.958156
Si Si4 0.427491 0.585264 0.336444
Si Si5 0.179843 0.850656 0.461219
O O1 0.445612 0.323900 0.273590
O O2 0.424944 0.487246 0.299786
O O3 0.334568 0.379842 0.310348
O O4 0.396311 0.403185 0.076293
O O5 0.094583 0.750000 0.983071
O O6 0.088624 0.869662 0.804732
O O7 0.000000 0.851039 0.974790
O O8 0.500000 0.607812 0.376054
O O9 0.375555 0.610695 0.445702
O O10 0.175964 0.750000 0.473069
O O11 0.250000 0.877595 0.500000
#
# Coordination Sequence:
#
# PCOD9500967 Si02
#       5
#    16   4  16  16  16
#     4  12  21  38  64  89 126 162 204 243 301 369
#     4  12  20  36  62  98 120 164 202 250 288 384
#     4  10  18  35  58  92 127 157 192 246 307 365
#     4  11  24  36  62  97 126 153 199 260 308 349
#     4  11  26  45  62  85 122 165 206 251 307 366
#
# _framework density 20.244425
#
# number of rings (size 3 to 8) (size 9 to 14) (size 15 to 20)
#    0.000    0.941    4.706    2.118    1.647    6.118 
#    0.000    1.176    0.000    7.059    0.000    0.000 
#    0.000    0.000    0.000    0.000    0.000    0.000 
#
# Total GULP energy -189490.227460 kJ/mol
# GULP energy per Si atom -5573.241984 kJ/mol
# Density = 2.019835 g / cm^3
# Si number density = 20.244425 Si / 1000 Ang^3
#
#
#
# Elastic Constant Matrix: (Units=GPa)
#
#
# Indices 1 2 3 4 5 6 
#
# 1 85.2827 9.3326 44.7698 0.0000 0.0000 0.0000
# 2 9.3326 66.8136 15.2324 0.0000 0.0000 0.0000
# 3 44.7698 15.2324 98.6436 0.0000 0.0000 0.0000
# 4 0.0000 0.0000 0.0000 31.5953 0.0000 0.0000
# 5 0.0000 0.0000 0.0000 0.0000 6.6096 0.0000
# 6 0.0000 0.0000 0.0000 0.0000 0.0000 18.1328
#
#
#
# Elastic Compliance Matrix: (Units=1/GPa)
#
#
# Indices 1 2 3 4 5 6 
#
# 1 0.015415 -0.000579 -0.006907 0.000000 0.000000 0.000000
# 2 -0.000579 0.015535 -0.002136 0.000000 0.000000 0.000000
# 3 -0.006907 -0.002136 0.013602 0.000000 0.000000 0.000000
# 4 0.000000 0.000000 0.000000 0.031650 0.000000 0.000000
# 5 0.000000 0.000000 0.000000 0.000000 0.151295 0.000000
# 6 0.000000 0.000000 0.000000 0.000000 0.000000 0.055149
#
#
# Mechanical properties :
#
#
# Convention : Reuss Voigt Hill
#
# Bulk Modulus (GPa) = 39.51235 43.26772 41.39004
# Shear Modulus (GPa) = 16.11213 23.36120 19.73667
#
# Velocity S-wave (km/s) = 2.82420 3.40068 3.12576
# Velocity P-wave (km/s) = 5.49498 6.06948 5.78936
#
# Compressibility (1/GPa) = 0.02530855
#
# Stress axis : x y z
#
# Youngs Moduli (GPa) = 64.87290 64.37133 73.51841
#
# Poissons Ratio (x) = 0.03724 0.50777
# Poissons Ratio (y) = 0.03753 0.15706
# Poissons Ratio (z) = 0.44806 0.13752
#
# Static dielectric constant tensor:
#      x y z
#    x 1.692780 0.000000 0.000000 
#    y 0.000000 1.731080 0.000000 
#    z 0.000000 0.000000 1.790920 
# 
# From -- ./inp_files/9468.got.cif
#   From: 2010.05.17/outbox.cif.g08.bks.cpg/sg67_5_cif.got.tgz:9468.got - 2010.06.03 18:28:57.
