data_PCOD9500851
_publ_section_title
;
Structure prediction by ZEFSAII (Michael W. Deem and Ramdas Pophale) SiO2 
 PCOD9500851
Probable space group: C M M A
;
_chemical_formula_sum "Si O2"
_cell_formula_units_Z 88
_cell_length_a 19.252808
_cell_length_b 10.628330
_cell_length_c 23.472133
_cell_angle_alpha 90.000000
_cell_angle_beta 90.000000
_cell_angle_gamma 90.000000
_cell_volume 4802.989836
_symmetry_space_group_name_H-M "C M M A"
_symmetry_group_IT_number 67
_symmetry_cell_setting 'orthorhombic'
loop_
_space_group_symop_operation_xyz
x,y,z
-x,1/2-y,z
x,-y,-z
-x,1/2+y,-z
-x,-y,-z
x,1/2+y,-z
-x,y,z
x,1/2-y,z
1/2+x,1/2+y,z
1/2-x,-y,z
1/2+x,1/2-y,-z
1/2-x,y,-z
1/2-x,1/2-y,-z
1/2+x,y,-z
1/2-x,1/2+y,z
1/2+x,-y,z
loop_
_atom_site_type_symbol
_atom_site_label
_atom_site_fract_x
_atom_site_fract_y
_atom_site_fract_z
Si Si1 0.155136 0.891177 0.952579
Si Si2 0.199516 0.392372 0.173759
Si Si3 0.335043 0.750000 0.567659
Si Si4 0.665956 0.996960 0.364719
Si Si5 0.832944 0.250000 0.437893
Si Si6 0.080801 0.899126 0.740298
Si Si7 0.500000 0.613729 0.042360
O O1 0.165830 0.750000 0.977333
O O2 0.197974 0.900865 0.894748
O O3 0.075149 0.894764 0.929644
O O4 0.165345 0.000000 0.000000
O O5 0.221702 0.250000 0.189202
O O6 0.250000 0.500000 0.196244
O O7 0.123885 0.411623 0.201287
O O8 0.353338 0.624667 0.602380
O O9 0.251165 0.750000 0.561777
O O10 0.360510 0.750000 0.502445
O O11 0.648647 0.876908 0.404412
O O12 0.622879 0.976231 0.307189
O O13 0.750000 0.000000 0.354653
O O14 0.083561 0.750000 0.725159
O O15 0.000000 0.934584 0.744950
O O16 0.500000 0.750000 0.012484
O O17 0.500000 0.500000 0.000000
#
# Coordination Sequence:
#
# PCOD9500851 Si02
#       7
#    16  16   8  16   8  16   8
#     4   9  18  32  54  82 112 144 178 221 273 329
#     4  10  22  39  59  84 111 144 185 231 279 331
#     4   9  18  28  51  85 117 151 178 231 272 325
#     4  10  18  32  55  83 113 148 186 230 277 323
#     4   9  16  30  51  83 119 147 190 221 270 323
#     4  10  21  38  60  81 105 144 193 237 275 330
#     4   8  14  26  46  74 104 138 174 212 253 309
#
# _framework density 18.321921
#
# number of rings (size 3 to 8) (size 9 to 14) (size 15 to 20)
#    0.000    2.545    0.909    1.091    1.273    3.273 
#    1.636    2.273    0.000    3.273    0.000    0.000 
#    0.000    0.000    0.000    0.000    0.000    0.000 
#
# Total GULP energy -244983.650155 kJ/mol
# GULP energy per Si atom -5567.810231 kJ/mol
# Density = 1.828022 g / cm^3
# Si number density = 18.321921 Si / 1000 Ang^3
#
#
#
# Elastic Constant Matrix: (Units=GPa)
#
#
# Indices 1 2 3 4 5 6 
#
# 1 72.9342 46.6182 21.5711 0.0000 0.0000 0.0000
# 2 46.6182 144.9209 64.1956 0.0000 0.0000 0.0000
# 3 21.5711 64.1956 95.2027 0.0000 0.0000 0.0000
# 4 0.0000 0.0000 0.0000 19.0087 0.0000 0.0000
# 5 0.0000 0.0000 0.0000 0.0000 14.7387 0.0000
# 6 0.0000 0.0000 0.0000 0.0000 0.0000 20.2404
#
#
#
# Elastic Compliance Matrix: (Units=1/GPa)
#
#
# Indices 1 2 3 4 5 6 
#
# 1 0.017264 -0.005448 -0.000238 0.000000 0.000000 0.000000
# 2 -0.005448 0.011558 -0.006560 0.000000 0.000000 0.000000
# 3 -0.000238 -0.006560 0.014981 0.000000 0.000000 0.000000
# 4 0.000000 0.000000 0.000000 0.052607 0.000000 0.000000
# 5 0.000000 0.000000 0.000000 0.000000 0.067849 0.000000
# 6 0.000000 0.000000 0.000000 0.000000 0.000000 0.049406
#
#
# Mechanical properties :
#
#
# Convention : Reuss Voigt Hill
#
# Bulk Modulus (GPa) = 51.78113 64.20304 57.99208
# Shear Modulus (GPa) = 20.44206 22.84241 21.64224
#
# Velocity S-wave (km/s) = 3.34386 3.53473 3.44062
# Velocity P-wave (km/s) = 6.57508 7.19561 6.89233
#
# Compressibility (1/GPa) = 0.01931205
#
# Stress axis : x y z
#
# Youngs Moduli (GPa) = 57.92534 86.51653 66.75132
#
# Poissons Ratio (x) = 0.47133 0.01589
# Poissons Ratio (y) = 0.31557 0.43786
# Poissons Ratio (z) = 0.01379 0.56751
#
# Static dielectric constant tensor:
#      x y z
#    x 1.667100 0.000000 0.000000 
#    y 0.000000 1.631880 0.000000 
#    z 0.000000 0.000000 1.621690 
# 
# From -- ./inp_files/42399.got.cif
#   From: 2010.05.17/outbox.cif.g08.bks.cpg/sg67_22_cif.got.tgz:42399.got - 2010.06.03 18:28:57.
