data_PCOD9500399
_publ_section_title
;
Structure prediction by ZEFSAII (Michael W. Deem and Ramdas Pophale) SiO2 
 PCOD9500399
Probable space group: C M M A
;
_chemical_formula_sum "Si O2"
_cell_formula_units_Z 128
_cell_length_a 21.566646
_cell_length_b 29.401788
_cell_length_c 12.014873
_cell_angle_alpha 90.000000
_cell_angle_beta 90.000000
_cell_angle_gamma 90.000000
_cell_volume 7618.606382
_symmetry_space_group_name_H-M "C M M A"
_symmetry_group_IT_number 67
_symmetry_cell_setting 'orthorhombic'
loop_
_space_group_symop_operation_xyz
x,y,z
-x,1/2-y,z
x,-y,-z
-x,1/2+y,-z
-x,-y,-z
x,1/2+y,-z
-x,y,z
x,1/2-y,z
1/2+x,1/2+y,z
1/2-x,-y,z
1/2+x,1/2-y,-z
1/2-x,y,-z
1/2-x,1/2-y,-z
1/2+x,y,-z
1/2-x,1/2+y,z
1/2+x,-y,z
loop_
_atom_site_type_symbol
_atom_site_label
_atom_site_fract_x
_atom_site_fract_y
_atom_site_fract_z
Si Si1 0.069144 0.695870 0.863106
Si Si2 0.363276 0.152119 0.666124
Si Si3 0.867291 0.803035 0.424611
Si Si4 0.246134 0.801842 0.247814
Si Si5 0.427662 0.865536 0.746828
Si Si6 0.642775 0.303489 0.078910
Si Si7 0.574261 0.541851 0.649887
Si Si8 0.574580 0.558287 0.386741
O O1 0.068294 0.750000 0.851860
O O2 0.085340 0.674898 0.744779
O O3 0.000000 0.681515 0.901579
O O4 0.122886 0.685828 0.953347
O O5 0.357369 0.177041 0.547075
O O6 0.298377 0.161653 0.727233
O O7 0.384569 0.100461 0.651499
O O8 0.885332 0.750000 0.429653
O O9 0.806385 0.805153 0.344688
O O10 0.916793 0.834946 0.362952
O O11 0.271904 0.750000 0.252802
O O12 0.211895 0.807125 0.129028
O O13 0.500000 0.869505 0.769745
O O14 0.395895 0.837701 0.844768
O O15 0.401170 0.915990 0.722118
O O16 0.625461 0.250000 0.098830
O O17 0.500000 0.541287 0.665299
O O18 0.583713 0.552920 0.519633
O O19 0.594192 0.489826 0.668099
O O20 0.500000 0.565273 0.369026
#
# Coordination Sequence:
#
# PCOD9500399 Si02
#       8
#    16  16  16  16  16  16  16  16
#     4  10  21  34  48  71 104 136 163 201 256 307
#     4  12  20  30  49  71  98 134 167 200 245 299
#     4  10  20  31  44  69 104 135 161 198 246 296
#     4   9  19  34  50  69  94 132 177 210 240 280
#     4  10  17  28  50  75  94 123 165 210 255 294
#     4   9  19  35  51  68  95 133 173 211 245 284
#     4   8  15  29  48  70  96 128 164 199 245 301
#     4   9  17  30  47  70 101 131 159 198 250 307
#
# _framework density 16.800972999999999
#
# number of rings (size 3 to 8) (size 9 to 14) (size 15 to 20)
#    0.000    2.375    1.250    4.125    0.000    3.500 
#    0.000    1.875    0.000    3.750    0.000    3.500 
#    0.000    4.000    0.000    0.000    0.000    0.000 
#
# Total GULP energy -356482.378677 kJ/mol
# GULP energy per Si atom -5570.037167 kJ/mol
# Density = 1.676273 g / cm^3
# Si number density = 16.800973 Si / 1000 Ang^3
#
#
#
# Elastic Constant Matrix: (Units=GPa)
#
#
# Indices 1 2 3 4 5 6 
#
# 1 36.0847 32.4748 14.8346 0.0000 0.0000 0.0000
# 2 32.4748 94.1605 24.4352 0.0000 0.0000 0.0000
# 3 14.8346 24.4352 57.4627 0.0000 0.0000 0.0000
# 4 0.0000 0.0000 0.0000 13.3414 0.0000 0.0000
# 5 0.0000 0.0000 0.0000 0.0000 15.4087 0.0000
# 6 0.0000 0.0000 0.0000 0.0000 0.0000 25.5815
#
#
#
# Elastic Compliance Matrix: (Units=1/GPa)
#
#
# Indices 1 2 3 4 5 6 
#
# 1 0.041526 -0.012971 -0.005204 0.000000 0.000000 0.000000
# 2 -0.012971 0.015989 -0.003451 0.000000 0.000000 0.000000
# 3 -0.005204 -0.003451 0.020213 0.000000 0.000000 0.000000
# 4 0.000000 0.000000 0.000000 0.074955 0.000000 0.000000
# 5 0.000000 0.000000 0.000000 0.000000 0.064898 0.000000
# 6 0.000000 0.000000 0.000000 0.000000 0.000000 0.039091
#
#
# Mechanical properties :
#
#
# Convention : Reuss Voigt Hill
#
# Bulk Modulus (GPa) = 29.00567 36.79966 32.90267
# Shear Modulus (GPa) = 16.05567 18.59720 17.32644
#
# Velocity S-wave (km/s) = 3.09470 3.33064 3.21483
# Velocity P-wave (km/s) = 5.48373 6.06149 5.77984
#
# Compressibility (1/GPa) = 0.03447602
#
# Stress axis : x y z
#
# Youngs Moduli (GPa) = 24.08156 62.54236 49.47199
#
# Poissons Ratio (x) = 0.81124 0.25748
# Poissons Ratio (y) = 0.31236 0.17071
# Poissons Ratio (z) = 0.12533 0.21581
#
# Static dielectric constant tensor:
#      x y z
#    x 1.596560 0.000000 0.000000 
#    y 0.000000 1.579750 0.000000 
#    z 0.000000 0.000000 1.580580 
# 
# From -- ./inp_files/22436.got.cif
#   From: 2010.05.17/outbox.cif.g08.bks.cpg/sg67_12_cif.got.tgz:22436.got - 2010.06.03 18:28:57.
