data_PCOD9500607
_publ_section_title
;
Structure prediction by ZEFSAII (Michael W. Deem and Ramdas Pophale) SiO2 
 PCOD9500607
Probable space group: C M M A
;
_chemical_formula_sum "Si O2"
_cell_formula_units_Z 128
_cell_length_a 25.624783
_cell_length_b 17.184899
_cell_length_c 18.637340
_cell_angle_alpha 90.000000
_cell_angle_beta 90.000000
_cell_angle_gamma 90.000000
_cell_volume 8207.126141
_symmetry_space_group_name_H-M "C M M A"
_symmetry_group_IT_number 67
_symmetry_cell_setting 'orthorhombic'
loop_
_space_group_symop_operation_xyz
x,y,z
-x,1/2-y,z
x,-y,-z
-x,1/2+y,-z
-x,-y,-z
x,1/2+y,-z
-x,y,z
x,1/2-y,z
1/2+x,1/2+y,z
1/2-x,-y,z
1/2+x,1/2-y,-z
1/2-x,y,-z
1/2-x,1/2-y,-z
1/2+x,y,-z
1/2-x,1/2+y,z
1/2+x,-y,z
loop_
_atom_site_type_symbol
_atom_site_label
_atom_site_fract_x
_atom_site_fract_y
_atom_site_fract_z
Si Si1 0.168019 0.656367 0.487620
Si Si2 0.813417 0.836143 0.003639
Si Si3 0.440352 0.655354 0.579593
Si Si4 0.757852 0.158669 0.233134
Si Si5 0.303350 0.546252 0.112902
Si Si6 0.759025 0.407519 0.390368
Si Si7 0.153465 0.888487 0.160627
Si Si8 0.059236 0.656348 0.255983
O O1 0.169806 0.750000 0.496567
O O2 0.108682 0.632022 0.469509
O O3 0.193751 0.615571 0.556621
O O4 0.207135 0.633093 0.422954
O O5 0.829675 0.750000 0.978518
O O6 0.828464 0.907857 0.953058
O O7 0.750000 0.836966 0.000000
O O8 0.833990 0.849030 0.083960
O O9 0.500000 0.630606 0.561134
O O10 0.440990 0.750000 0.578690
O O11 0.428845 0.631446 0.662031
O O12 0.769277 0.250000 0.229467
O O13 0.787288 0.110191 0.171658
O O14 0.769259 0.124021 0.311025
O O15 0.697089 0.144006 0.215062
O O16 0.250000 0.500000 0.091250
O O17 0.338169 0.479866 0.147861
O O18 0.750000 0.500000 0.390234
O O19 0.098498 0.872569 0.196176
O O20 0.061573 0.750000 0.256249
O O21 0.000000 0.632807 0.240629
#
# Coordination Sequence:
#
# PCOD9500607 Si02
#       8
#    16  16  16  16  16  16  16  16
#     4  10  18  30  48  68  92 122 157 188 228 288
#     4  11  19  29  45  66  94 131 168 198 230 276
#     4   8  15  28  48  72  95 119 151 196 243 284
#     4  11  20  31  46  67  95 125 162 194 229 287
#     4  10  20  30  44  65  96 127 156 193 237 280
#     4  11  21  32  44  64  95 131 158 192 234 281
#     4  11  20  29  47  72  98 129 157 193 244 290
#     4   9  17  30  47  70  99 128 161 201 244 289
#
# _framework density 15.596202999999999
#
# number of rings (size 3 to 8) (size 9 to 14) (size 15 to 20)
#    0.000    1.875    2.500    6.750    0.000    1.000 
#    0.000    0.000    0.000    3.000    0.000    2.625 
#    0.000    2.500    0.000    0.250    0.000    0.000 
#
# Total GULP energy -356875.500986 kJ/mol
# GULP energy per Si atom -5576.179703 kJ/mol
# Density = 1.556071 g / cm^3
# Si number density = 15.596203 Si / 1000 Ang^3
#
#
#
# Elastic Constant Matrix: (Units=GPa)
#
#
# Indices 1 2 3 4 5 6 
#
# 1 91.7587 26.3413 49.7376 0.0000 0.0000 0.0000
# 2 26.3413 98.1583 31.9299 0.0000 0.0000 0.0000
# 3 49.7376 31.9299 85.7109 0.0000 0.0000 0.0000
# 4 0.0000 0.0000 0.0000 22.7530 0.0000 0.0000
# 5 0.0000 0.0000 0.0000 0.0000 21.5380 0.0000
# 6 0.0000 0.0000 0.0000 0.0000 0.0000 9.7904
#
#
#
# Elastic Compliance Matrix: (Units=1/GPa)
#
#
# Indices 1 2 3 4 5 6 
#
# 1 0.016080 -0.001456 -0.008789 0.000000 0.000000 0.000000
# 2 -0.001456 0.011724 -0.003523 0.000000 0.000000 0.000000
# 3 -0.008789 -0.003523 0.018079 0.000000 0.000000 0.000000
# 4 0.000000 0.000000 0.000000 0.043950 0.000000 0.000000
# 5 0.000000 0.000000 0.000000 0.000000 0.046430 0.000000
# 6 0.000000 0.000000 0.000000 0.000000 0.000000 0.102141
#
#
# Mechanical properties :
#
#
# Convention : Reuss Voigt Hill
#
# Bulk Modulus (GPa) = 54.49978 54.62728 54.56353
# Shear Modulus (GPa) = 18.37857 21.99089 20.18473
#
# Velocity S-wave (km/s) = 3.43651 3.75909 3.60141
# Velocity P-wave (km/s) = 7.12504 7.34459 7.23565
#
# Compressibility (1/GPa) = 0.01834870
#
# Stress axis : x y z
#
# Youngs Moduli (GPa) = 62.18873 85.29301 55.31160
#
# Poissons Ratio (x) = 0.12421 0.48611
# Poissons Ratio (y) = 0.09057 0.19484
# Poissons Ratio (z) = 0.54656 0.30045
#
# Static dielectric constant tensor:
#      x y z
#    x 1.515380 0.000000 0.000000 
#    y 0.000000 1.532980 0.000000 
#    z 0.000000 0.000000 1.530810 
# 
# From -- ./inp_files/35637.got.cif
#   From: 2010.05.17/outbox.cif.g08.bks.cpg/sg67_18_cif.got.tgz:35637.got - 2010.06.03 18:28:57.
