data_PCOD9500450
_publ_section_title
;
Structure prediction by ZEFSAII (Michael W. Deem and Ramdas Pophale) SiO2 
 PCOD9500450
Probable space group: C M M A
;
_chemical_formula_sum "Si O2"
_cell_formula_units_Z 116
_cell_length_a 29.710747
_cell_length_b 10.867220
_cell_length_c 18.762340
_cell_angle_alpha 90.000000
_cell_angle_beta 90.000000
_cell_angle_gamma 90.000000
_cell_volume 6057.857206
_symmetry_space_group_name_H-M "C M M A"
_symmetry_group_IT_number 67
_symmetry_cell_setting 'orthorhombic'
loop_
_space_group_symop_operation_xyz
x,y,z
-x,1/2-y,z
x,-y,-z
-x,1/2+y,-z
-x,-y,-z
x,1/2+y,-z
-x,y,z
x,1/2-y,z
1/2+x,1/2+y,z
1/2-x,-y,z
1/2+x,1/2-y,-z
1/2-x,y,-z
1/2-x,1/2-y,-z
1/2+x,y,-z
1/2-x,1/2+y,z
1/2+x,-y,z
loop_
_atom_site_type_symbol
_atom_site_label
_atom_site_fract_x
_atom_site_fract_y
_atom_site_fract_z
Si Si1 0.214137 0.605589 0.838924
Si Si2 0.550388 0.894221 0.172181
Si Si3 0.568549 0.027858 0.673178
Si Si4 0.446967 0.382594 0.459020
Si Si5 0.200533 0.616218 0.535617
Si Si6 0.000000 0.250000 0.363924
Si Si7 0.371309 0.891493 0.057525
Si Si8 0.169711 0.893744 0.688787
O O1 0.230194 0.750000 0.834156
O O2 0.250000 0.500000 0.857191
O O3 0.174472 0.604370 0.896887
O O4 0.193044 0.568479 0.762205
O O5 0.500000 0.911711 0.143700
O O6 0.553730 0.750000 0.195767
O O7 0.556504 0.973753 0.243217
O O8 0.588042 0.913013 0.113206
O O9 0.539471 0.141328 0.641390
O O10 0.622229 0.044967 0.671177
O O11 0.556481 0.912084 0.624468
O O12 0.427781 0.500000 0.500000
O O13 0.500000 0.375815 0.478681
O O14 0.427285 0.250000 0.477029
O O15 0.177049 0.500000 0.500000
O O16 0.179212 0.750000 0.524085
O O17 0.250000 0.622142 0.500000
O O18 0.201741 0.595006 0.620209
O O19 0.375981 0.750000 0.029554
O O20 0.371494 0.000000 0.000000
O O21 0.158990 0.750000 0.699201
#
# Coordination Sequence:
#
# PCOD9500450 Si02
#       8
#    16  16  16  16  16   4  16  16
#     4  10  22  40  63  91 119 157 204 252 303 360
#     4  10  17  32  60  93 122 159 204 248 296 370
#     4  12  19  34  59  91 119 148 207 253 306 359
#     4  10  23  37  54  77 112 156 204 255 307 360
#     4   9  19  35  54  78 109 148 186 233 297 353
#     4  12  20  28  64 100 110 156 200 258 316 364
#     4  10  22  40  63  92 127 160 201 248 303 365
#     4  10  20  35  59  87 119 154 198 250 295 358
#
# _framework density 19.148683999999999
#
# number of rings (size 3 to 8) (size 9 to 14) (size 15 to 20)
#    0.000    1.793    4.138    0.000    2.897    1.655 
#    0.000    4.828    0.000    0.828    0.000    0.000 
#    0.000    0.000    0.000    0.000    0.000    0.000 
#
# Total GULP energy -322950.326487 kJ/mol
# GULP energy per Si atom -5568.109077 kJ/mol
# Density = 1.910510 g / cm^3
# Si number density = 19.148684 Si / 1000 Ang^3
#
#
#
# Elastic Constant Matrix: (Units=GPa)
#
#
# Indices 1 2 3 4 5 6 
#
# 1 104.7760 34.2757 28.5438 0.0000 0.0000 0.0000
# 2 34.2757 136.8871 58.9888 0.0000 0.0000 0.0000
# 3 28.5438 58.9888 89.8318 0.0000 0.0000 0.0000
# 4 0.0000 0.0000 0.0000 24.2014 0.0000 0.0000
# 5 0.0000 0.0000 0.0000 0.0000 25.9146 0.0000
# 6 0.0000 0.0000 0.0000 0.0000 0.0000 17.4838
#
#
#
# Elastic Compliance Matrix: (Units=1/GPa)
#
#
# Indices 1 2 3 4 5 6 
#
# 1 0.010724 -0.001697 -0.002293 0.000000 0.000000 0.000000
# 2 -0.001697 0.010457 -0.006327 0.000000 0.000000 0.000000
# 3 -0.002293 -0.006327 0.016015 0.000000 0.000000 0.000000
# 4 0.000000 0.000000 0.000000 0.041320 0.000000 0.000000
# 5 0.000000 0.000000 0.000000 0.000000 0.038588 0.000000
# 6 0.000000 0.000000 0.000000 0.000000 0.000000 0.057196
#
#
# Mechanical properties :
#
#
# Convention : Reuss Voigt Hill
#
# Bulk Modulus (GPa) = 60.38187 63.90129 62.14158
# Shear Modulus (GPa) = 24.94316 27.49909 26.22112
#
# Velocity S-wave (km/s) = 3.61308 3.79368 3.70448
# Velocity P-wave (km/s) = 7.00053 7.25485 7.12882
#
# Compressibility (1/GPa) = 0.01656126
#
# Stress axis : x y z
#
# Youngs Moduli (GPa) = 93.24842 95.63094 62.43968
#
# Poissons Ratio (x) = 0.16229 0.14318
# Poissons Ratio (y) = 0.15825 0.39508
# Poissons Ratio (z) = 0.21383 0.60509
#
# Static dielectric constant tensor:
#      x y z
#    x 1.687410 0.000000 0.000000 
#    y 0.000000 1.636110 0.000000 
#    z 0.000000 0.000000 1.692110 
# 
# From -- ./inp_files/36317.got.cif
#   From: 2010.05.17/outbox.cif.g08.bks.cpg/sg67_19_cif.got.tgz:36317.got - 2010.06.03 18:28:57.
