data_PCOD9500163
_publ_section_title
;
Structure prediction by ZEFSAII (Michael W. Deem and Ramdas Pophale) SiO2 
 PCOD9500163
Probable space group: C M M A
;
_chemical_formula_sum "Si O2"
_cell_formula_units_Z 80
_cell_length_a 8.658363
_cell_length_b 15.013624
_cell_length_c 28.042976
_cell_angle_alpha 90.000000
_cell_angle_beta 90.000000
_cell_angle_gamma 90.000000
_cell_volume 3645.401980
_symmetry_space_group_name_H-M "C M M A"
_symmetry_group_IT_number 67
_symmetry_cell_setting 'orthorhombic'
loop_
_space_group_symop_operation_xyz
x,y,z
-x,1/2-y,z
x,-y,-z
-x,1/2+y,-z
-x,-y,-z
x,1/2+y,-z
-x,y,z
x,1/2-y,z
1/2+x,1/2+y,z
1/2-x,-y,z
1/2+x,1/2-y,-z
1/2-x,y,-z
1/2-x,1/2-y,-z
1/2+x,y,-z
1/2-x,1/2+y,z
1/2+x,-y,z
loop_
_atom_site_type_symbol
_atom_site_label
_atom_site_fract_x
_atom_site_fract_y
_atom_site_fract_z
Si Si1 0.815541 0.601668 0.451032
Si Si2 0.313799 0.900021 0.847924
Si Si3 0.328515 0.644026 0.952258
Si Si4 0.185001 0.601291 0.750861
Si Si5 0.185538 0.398656 0.353408
O O1 0.750000 0.500000 0.450414
O O2 0.750000 0.642013 0.500000
O O3 0.757526 0.642320 0.401169
O O4 0.000000 0.599620 0.452448
O O5 0.500000 0.895679 0.846588
O O6 0.257807 0.866778 0.899684
O O7 0.251978 0.856670 0.799138
O O8 0.250000 0.000000 0.846466
O O9 0.500000 0.604491 0.949813
O O10 0.341080 0.750000 0.958778
O O11 0.250000 0.608432 0.000000
O O12 0.250000 0.500000 0.749400
O O13 0.223133 0.640995 0.698762
O O14 0.000000 0.597894 0.754823
O O15 0.250000 0.500000 0.351701
O O16 0.000000 0.400806 0.358266
#
# Coordination Sequence:
#
# PCOD9500163 Si02
#       5
#    16  16  16  16  16
#     4  10  16  21  28  38  55  81 116 159 202 243
#     4  10  19  30  46  67  91 115 142 179 217 257
#     4   9  19  35  52  69  89 116 148 179 213 254
#     4   9  16  25  38  55  77 103 132 167 207 252
#     4   9  15  22  31  44  62  87 120 158 199 242
#
# _framework density 21.945454999999999
#
# number of rings (size 3 to 8) (size 9 to 14) (size 15 to 20)
#    0.000    2.600    0.000    6.600    0.000    4.400 
#    0.000    2.000    0.000    0.000    0.000    0.000 
#    0.000    0.000    0.000    0.000    0.000    1.000 
#
# Total GULP energy -222872.967542 kJ/mol
# GULP energy per Si atom -5571.824189 kJ/mol
# Density = 2.189551 g / cm^3
# Si number density = 21.945455 Si / 1000 Ang^3
#
#
#
# Elastic Constant Matrix: (Units=GPa)
#
#
# Indices 1 2 3 4 5 6 
#
# 1 109.4993 4.0428 92.8962 0.0000 0.0000 0.0000
# 2 4.0428 44.6455 16.8950 0.0000 0.0000 0.0000
# 3 92.8962 16.8950 305.2196 0.0000 0.0000 0.0000
# 4 0.0000 0.0000 0.0000 72.9829 0.0000 0.0000
# 5 0.0000 0.0000 0.0000 0.0000 43.4677 0.0000
# 6 0.0000 0.0000 0.0000 0.0000 0.0000 -8.2917
#
#
#
# Elastic Compliance Matrix: (Units=1/GPa)
#
#
# Indices 1 2 3 4 5 6 
#
# 1 0.012316 0.000310 -0.003766 0.000000 0.000000 0.000000
# 2 0.000310 0.022886 -0.001361 0.000000 0.000000 0.000000
# 3 -0.003766 -0.001361 0.004498 0.000000 0.000000 0.000000
# 4 0.000000 0.000000 0.000000 0.013702 0.000000 0.000000
# 5 0.000000 0.000000 0.000000 0.000000 0.023006 0.000000
# 6 0.000000 0.000000 0.000000 0.000000 0.000000 -0.120603
#
#
# Mechanical properties :
#
#
# Convention : Reuss Voigt Hill
#
# Bulk Modulus (GPa) = 33.26087 76.33693 54.79890
# Shear Modulus (GPa) = -203.73829 44.66715 -79.53557
#
# Velocity S-wave (km/s) = -9.64573 4.51640 -6.02670
# Velocity P-wave (km/s) = 10.43381 7.87766 4.83770
#
# Compressibility (1/GPa) = 0.03006536
#
# Stress axis : x y z
#
# Youngs Moduli (GPa) = 81.19785 43.69543 222.33421
#
# Poissons Ratio (x) = -0.01354 0.83720
# Poissons Ratio (y) = -0.02515 0.30262
# Poissons Ratio (z) = 0.30575 0.05947
#
# Static dielectric constant tensor:
#      x y z
#    x 1.761250 0.000000 0.000000 
#    y 0.000000 1.813170 0.000000 
#    z 0.000000 0.000000 1.927990 
# 
# From -- ./inp_files/43315.got.cif
#   From: 2010.05.17/outbox.cif.g08.bks.cpg/sg67_22_cif.got.tgz:43315.got - 2010.06.03 18:28:57.
