data_PCOD9500651
_publ_section_title
;
Structure prediction by ZEFSAII (Michael W. Deem and Ramdas Pophale) SiO2 
 PCOD9500651
Probable space group: C M M A
;
_chemical_formula_sum "Si O2"
_cell_formula_units_Z 112
_cell_length_a 30.077463
_cell_length_b 14.532824
_cell_length_c 12.300812
_cell_angle_alpha 90.000000
_cell_angle_beta 90.000000
_cell_angle_gamma 90.000000
_cell_volume 5376.813790
_symmetry_space_group_name_H-M "C M M A"
_symmetry_group_IT_number 67
_symmetry_cell_setting 'orthorhombic'
loop_
_space_group_symop_operation_xyz
x,y,z
-x,1/2-y,z
x,-y,-z
-x,1/2+y,-z
-x,-y,-z
x,1/2+y,-z
-x,y,z
x,1/2-y,z
1/2+x,1/2+y,z
1/2-x,-y,z
1/2+x,1/2-y,-z
1/2-x,y,-z
1/2-x,1/2-y,-z
1/2+x,y,-z
1/2-x,1/2+y,z
1/2+x,-y,z
loop_
_atom_site_type_symbol
_atom_site_label
_atom_site_fract_x
_atom_site_fract_y
_atom_site_fract_z
Si Si1 0.049949 0.084653 0.162214
Si Si2 0.952674 0.637290 0.405643
Si Si3 0.584247 0.855768 0.380045
Si Si4 0.816886 0.356161 0.467432
Si Si5 0.050770 0.624220 0.077393
Si Si6 0.702913 0.473641 0.316373
Si Si7 0.374744 0.854200 0.752631
O O1 0.082597 0.096417 0.263573
O O2 0.000000 0.108150 0.200838
O O3 0.049624 0.981846 0.115592
O O4 0.058755 0.139196 0.050664
O O5 0.951837 0.750000 0.404700
O O6 0.949423 0.606535 0.530163
O O7 0.909708 0.609726 0.337786
O O8 0.000000 0.608253 0.357063
O O9 0.572901 0.750000 0.355767
O O10 0.629886 0.854734 0.449016
O O11 0.801879 0.250000 0.457364
O O12 0.805775 0.428153 0.372886
O O13 0.799072 0.402295 0.579374
O O14 0.093304 0.656838 0.144128
O O15 0.000000 0.656179 0.100874
O O16 0.750000 0.500000 0.262631
O O17 0.665574 0.426499 0.241072
O O18 0.358979 0.750000 0.722219
#
# Coordination Sequence:
#
# PCOD9500651 Si02
#       7
#    16  16  16  16  16  16  16
#     4   9  18  33  51  76 117 162 209 259 294 339
#     4   9  17  29  47  75 115 160 195 230 284 345
#     4  10  18  30  50  77 112 153 193 238 288 342
#     4  10  20  36  56  81 113 147 187 240 296 358
#     4   9  19  35  54  79 116 165 211 252 299 346
#     4  11  23  37  57  83 111 149 193 244 309 372
#     4  11  21  36  57  83 121 160 202 254 303 364
#
# _framework density 20.830179999999999
#
# number of rings (size 3 to 8) (size 9 to 14) (size 15 to 20)
#    0.000    2.143    1.429    3.857    0.000    4.000 
#    0.000    1.429    0.000    3.429    0.000    9.000 
#    0.000   12.571    0.000    0.000    0.000    0.000 
#
# Total GULP energy -311881.399702 kJ/mol
# GULP energy per Si atom -5569.310709 kJ/mol
# Density = 2.078277 g / cm^3
# Si number density = 20.830180 Si / 1000 Ang^3
#
#
#
# Elastic Constant Matrix: (Units=GPa)
#
#
# Indices 1 2 3 4 5 6 
#
# 1 120.3357 37.6960 40.1164 0.0000 0.0000 0.0000
# 2 37.6960 113.1732 25.1561 0.0000 0.0000 0.0000
# 3 40.1164 25.1561 91.7228 0.0000 0.0000 0.0000
# 4 0.0000 0.0000 0.0000 -28.0622 0.0000 0.0000
# 5 0.0000 0.0000 0.0000 0.0000 18.2401 0.0000
# 6 0.0000 0.0000 0.0000 0.0000 0.0000 47.4127
#
#
#
# Elastic Compliance Matrix: (Units=1/GPa)
#
#
# Indices 1 2 3 4 5 6 
#
# 1 0.010407 -0.002614 -0.003835 0.000000 0.000000 0.000000
# 2 -0.002614 0.010066 -0.001617 0.000000 0.000000 0.000000
# 3 -0.003835 -0.001617 0.013023 0.000000 0.000000 0.000000
# 4 0.000000 0.000000 0.000000 -0.035635 0.000000 0.000000
# 5 0.000000 0.000000 0.000000 0.000000 0.054824 0.000000
# 6 0.000000 0.000000 0.000000 0.000000 0.000000 0.021091
#
#
# Mechanical properties :
#
#
# Convention : Reuss Voigt Hill
#
# Bulk Modulus (GPa) = 57.59042 59.01873 58.30457
# Shear Modulus (GPa) = 52.24742 22.33566 37.29154
#
# Velocity S-wave (km/s) = 5.01368 3.27811 4.23574
# Velocity P-wave (km/s) = 7.82455 6.53627 7.20925
#
# Compressibility (1/GPa) = 0.01736400
#
# Stress axis : x y z
#
# Youngs Moduli (GPa) = 96.08540 99.34178 76.78565
#
# Poissons Ratio (x) = 0.25969 0.29446
# Poissons Ratio (y) = 0.25118 0.12420
# Poissons Ratio (z) = 0.36848 0.16068
#
# Static dielectric constant tensor:
#      x y z
#    x 1.839410 0.000000 0.000000 
#    y 0.000000 1.869260 0.000000 
#    z 0.000000 0.000000 1.763860 
# 
# From -- ./inp_files/23780.got.cif
#   From: 2010.05.17/outbox.cif.g08.bks.cpg/sg67_12_cif.got.tgz:23780.got - 2010.06.03 18:28:57.
