data_PCOD9500046
_publ_section_title
;
Structure prediction by ZEFSAII (Michael W. Deem and Ramdas Pophale) SiO2 
 PCOD9500046
Probable space group: C C C M
;
_chemical_formula_sum "Si O2"
_cell_formula_units_Z 64
_cell_length_a 20.891254
_cell_length_b 7.563776
_cell_length_c 16.826975
_cell_angle_alpha 90.000000
_cell_angle_beta 90.000000
_cell_angle_gamma 90.000000
_cell_volume 2658.944165
_symmetry_space_group_name_H-M "C C C M"
_symmetry_group_IT_number 66
_symmetry_cell_setting 'orthorhombic'
loop_
_space_group_symop_operation_xyz
x,y,z
-x,-y,z
x,-y,1/2-z
-x,y,1/2-z
-x,-y,-z
x,y,-z
-x,y,1/2+z
x,-y,1/2+z
1/2+x,1/2+y,z
1/2-x,1/2-y,z
1/2+x,1/2-y,1/2-z
1/2-x,1/2+y,1/2-z
1/2-x,1/2-y,-z
1/2+x,1/2+y,-z
1/2-x,1/2+y,1/2+z
1/2+x,1/2-y,1/2+z
loop_
_atom_site_type_symbol
_atom_site_label
_atom_site_fract_x
_atom_site_fract_y
_atom_site_fract_z
Si Si1 0.472009 0.259119 0.908249
Si Si2 0.219893 0.503148 0.341468
Si Si3 0.660601 0.635767 0.906761
Si Si4 0.085111 0.413592 0.661971
O O1 0.413834 0.389938 0.885223
O O2 0.533867 0.239837 0.852832
O O3 0.437314 0.067541 0.898730
O O4 0.490490 0.288643 0.000000
O O5 0.239434 0.500000 0.250000
O O6 0.284362 0.491982 0.391747
O O7 0.186918 0.692793 0.360162
O O8 0.159548 0.373079 0.352077
O O9 0.660546 0.678154 0.000000
O O10 0.079676 0.500000 0.750000
#
# Coordination Sequence:
#
# PCOD9500046 Si02
#       4
#    16  16  16  16
#     4   9  15  22  34  53  81 116 148 176 214 267
#     4   9  16  25  39  60  88 122 153 187 230 278
#     4   9  17  28  41  61  91 124 156 190 230 279
#     4   9  15  22  34  55  85 116 140 176 226 269
#
# _framework density 24.069706
#
# number of rings (size 3 to 8) (size 9 to 14) (size 15 to 20)
#    0.000    3.000    0.000    4.500    0.000    4.000 
#    0.000    0.000    0.000    0.000    0.000   14.000 
#    0.000  132.000    0.000  366.000    0.000    2.000 
#
# Total GULP energy -178393.154887 kJ/mol
# GULP energy per Si atom -5574.786090 kJ/mol
# Density = 2.401492 g / cm^3
# Si number density = 24.069706 Si / 1000 Ang^3
#
#
#
# Elastic Constant Matrix: (Units=GPa)
#
#
# Indices 1 2 3 4 5 6 
#
# 1 207.1779 45.8428 57.3314 0.0000 0.0000 0.0000
# 2 45.8428 53.3647 33.7257 0.0000 0.0000 0.0000
# 3 57.3314 33.7257 97.8854 0.0000 0.0000 0.0000
# 4 0.0000 0.0000 0.0000 1.3463 0.0000 0.0000
# 5 0.0000 0.0000 0.0000 0.0000 61.4263 0.0000
# 6 0.0000 0.0000 0.0000 0.0000 0.0000 23.3766
#
#
#
# Elastic Compliance Matrix: (Units=1/GPa)
#
#
# Indices 1 2 3 4 5 6 
#
# 1 0.006358 -0.003973 -0.002355 0.000000 0.000000 0.000000
# 2 -0.003973 0.026438 -0.006782 0.000000 0.000000 0.000000
# 3 -0.002355 -0.006782 0.013932 0.000000 0.000000 0.000000
# 4 0.000000 0.000000 0.000000 0.742751 0.000000 0.000000
# 5 0.000000 0.000000 0.000000 0.000000 0.016280 0.000000
# 6 0.000000 0.000000 0.000000 0.000000 0.000000 0.042778
#
#
# Mechanical properties :
#
#
# Convention : Reuss Voigt Hill
#
# Bulk Modulus (GPa) = 48.76180 70.24754 59.50467
# Shear Modulus (GPa) = 5.67156 31.99840 18.83498
#
# Velocity S-wave (km/s) = 1.53669 3.65006 2.80039
# Velocity P-wave (km/s) = 4.84264 6.85655 5.93563
#
# Compressibility (1/GPa) = 0.02050786
#
# Stress axis : x y z
#
# Youngs Moduli (GPa) = 157.29343 37.82383 71.77818
#
# Poissons Ratio (x) = 0.15029 0.16901
# Poissons Ratio (y) = 0.62498 0.48680
# Poissons Ratio (z) = 0.37037 0.25652
#
# Static dielectric constant tensor:
#      x y z
#    x 2.056360 0.000000 0.000000 
#    y 0.000000 2.075540 0.000000 
#    z 0.000000 0.000000 1.832020 
# 
# From -- ./inp_files/31988.got.cif
#   From: 2010.05.17/outbox.cif.g08.bks.cpg/sg66_16_cif.got.tgz:31988.got - 2010.06.03 17:51:23.
