data_PCOD9500687
_publ_section_title
;
Structure prediction by ZEFSAII (Michael W. Deem and Ramdas Pophale) SiO2 
 PCOD9500687
Probable space group: C M M A
;
_chemical_formula_sum "Si O2"
_cell_formula_units_Z 80
_cell_length_a 16.971027
_cell_length_b 14.331578
_cell_length_c 14.094678
_cell_angle_alpha 90.000000
_cell_angle_beta 90.000000
_cell_angle_gamma 90.000000
_cell_volume 3428.130095
_symmetry_space_group_name_H-M "C M M A"
_symmetry_group_IT_number 67
_symmetry_cell_setting 'orthorhombic'
loop_
_space_group_symop_operation_xyz
x,y,z
-x,1/2-y,z
x,-y,-z
-x,1/2+y,-z
-x,-y,-z
x,1/2+y,-z
-x,y,z
x,1/2-y,z
1/2+x,1/2+y,z
1/2-x,-y,z
1/2+x,1/2-y,-z
1/2-x,y,-z
1/2-x,1/2-y,-z
1/2+x,y,-z
1/2-x,1/2+y,z
1/2+x,-y,z
loop_
_atom_site_type_symbol
_atom_site_label
_atom_site_fract_x
_atom_site_fract_y
_atom_site_fract_z
Si Si1 0.332058 0.895760 0.041287
Si Si2 0.500000 0.108103 0.028648
Si Si3 0.184195 0.636599 0.739451
Si Si4 0.910382 0.636213 0.558499
Si Si5 0.155269 0.863775 0.362066
Si Si6 0.000000 0.137655 0.748416
O O1 0.327738 0.898956 0.154754
O O2 0.250000 0.854007 0.000000
O O3 0.416424 0.853250 0.010070
O O4 0.333390 0.000000 0.000000
O O5 0.500000 0.113600 0.141716
O O6 0.500000 0.000000 0.000000
O O7 0.183133 0.750000 0.746158
O O8 0.119836 0.607846 0.661588
O O9 0.267248 0.607704 0.693845
O O10 0.909401 0.750000 0.558107
O O11 0.855029 0.606875 0.471198
O O12 0.000000 0.607324 0.540525
O O13 0.157032 0.750000 0.363367
O O14 0.078196 0.894092 0.304935
O O15 0.000000 0.250000 0.741807
#
# Coordination Sequence:
#
# PCOD9500687 Si02
#       6
#    16   8  16  16  16   8
#     4  10  22  40  57  76 105 146 194 232 280 329
#     4  10  22  38  55  76 102 144 189 235 280 327
#     4  10  20  31  52  83 114 145 183 229 272 318
#     4   9  16  28  47  77 119 153 174 208 267 335
#     4   9  16  29  48  78 116 148 175 214 269 332
#     4  10  18  30  53  80 107 142 184 225 267 319
#
# _framework density 23.336334999999998
#
# number of rings (size 3 to 8) (size 9 to 14) (size 15 to 20)
#    0.000    2.400    1.000    1.800    1.400    3.600 
#    0.000    0.000    0.000    0.000    0.000   44.800 
#    0.000    0.000    0.000    0.000    0.000    1.200 
#
# Total GULP energy -223722.483587 kJ/mol
# GULP energy per Si atom -5593.062090 kJ/mol
# Density = 2.328322 g / cm^3
# Si number density = 23.336335 Si / 1000 Ang^3
#
#
#
# Elastic Constant Matrix: (Units=GPa)
#
#
# Indices 1 2 3 4 5 6 
#
# 1 137.4860 30.6762 65.8015 0.0000 0.0000 0.0000
# 2 30.6762 98.3365 34.2594 0.0000 0.0000 0.0000
# 3 65.8015 34.2594 234.6963 0.0000 0.0000 0.0000
# 4 0.0000 0.0000 0.0000 46.3267 0.0000 0.0000
# 5 0.0000 0.0000 0.0000 0.0000 61.0982 0.0000
# 6 0.0000 0.0000 0.0000 0.0000 0.0000 -16.0399
#
#
#
# Elastic Compliance Matrix: (Units=1/GPa)
#
#
# Indices 1 2 3 4 5 6 
#
# 1 0.008750 -0.001975 -0.002165 0.000000 0.000000 0.000000
# 2 -0.001975 0.011160 -0.001075 0.000000 0.000000 0.000000
# 3 -0.002165 -0.001075 0.005025 0.000000 0.000000 0.000000
# 4 0.000000 0.000000 0.000000 0.021586 0.000000 0.000000
# 5 0.000000 0.000000 0.000000 0.000000 0.016367 0.000000
# 6 0.000000 0.000000 0.000000 0.000000 0.000000 -0.062345
#
#
# Mechanical properties :
#
#
# Convention : Reuss Voigt Hill
#
# Bulk Modulus (GPa) = 68.94694 81.33255 75.13975
# Shear Modulus (GPa) = 316.26636 40.92911 178.59774
#
# Velocity S-wave (km/s) = 11.65416 4.19248 8.75775
# Velocity P-wave (km/s) = 14.51557 7.63962 11.59883
#
# Compressibility (1/GPa) = 0.01450391
#
# Stress axis : x y z
#
# Youngs Moduli (GPa) = 114.28042 89.60579 199.01406
#
# Poissons Ratio (x) = 0.17701 0.43086
# Poissons Ratio (y) = 0.22575 0.21398
# Poissons Ratio (z) = 0.24741 0.09634
#
# Static dielectric constant tensor:
#      x y z
#    x 1.892980 0.000000 0.000000 
#    y 0.000000 1.915610 0.000000 
#    z 0.000000 0.000000 1.760510 
# 
# From -- ./inp_files/19370.got.cif
#   From: 2010.05.17/outbox.cif.g08.bks.cpg/sg67_10_cif.got.tgz:19370.got - 2010.06.03 18:28:57.
