data_PCOD9500625
_publ_section_title
;
Structure prediction by ZEFSAII (Michael W. Deem and Ramdas Pophale) SiO2 
 PCOD9500625
Probable space group: C M M A
;
_chemical_formula_sum "Si O2"
_cell_formula_units_Z 96
_cell_length_a 20.128471
_cell_length_b 19.664915
_cell_length_c 15.390306
_cell_angle_alpha 90.000000
_cell_angle_beta 90.000000
_cell_angle_gamma 90.000000
_cell_volume 6091.862814
_symmetry_space_group_name_H-M "C M M A"
_symmetry_group_IT_number 67
_symmetry_cell_setting 'orthorhombic'
loop_
_space_group_symop_operation_xyz
x,y,z
-x,1/2-y,z
x,-y,-z
-x,1/2+y,-z
-x,-y,-z
x,1/2+y,-z
-x,y,z
x,1/2-y,z
1/2+x,1/2+y,z
1/2-x,-y,z
1/2+x,1/2-y,-z
1/2-x,y,-z
1/2-x,1/2-y,-z
1/2+x,y,-z
1/2-x,1/2+y,z
1/2+x,-y,z
loop_
_atom_site_type_symbol
_atom_site_label
_atom_site_fract_x
_atom_site_fract_y
_atom_site_fract_z
Si Si1 0.691861 0.329983 0.566295
Si Si2 0.422464 0.063184 0.562193
Si Si3 0.574200 0.962150 0.907399
Si Si4 0.425227 0.577992 0.238232
Si Si5 0.200594 0.669608 0.768289
Si Si6 0.277229 0.077438 0.096202
O O1 0.676643 0.250000 0.557264
O O2 0.750000 0.348094 0.500000
O O3 0.627214 0.374680 0.547341
O O4 0.715315 0.340703 0.665771
O O5 0.500000 0.080563 0.547240
O O6 0.415067 0.047586 0.665075
O O7 0.406106 0.000000 0.500000
O O8 0.500000 0.929963 0.899003
O O9 0.642599 0.920477 0.903290
O O10 0.579971 0.018931 0.832554
O O11 0.575490 0.000000 0.000000
O O12 0.500000 0.605862 0.235547
O O13 0.372147 0.636459 0.220617
O O14 0.201660 0.750000 0.786310
O O15 0.248237 0.627508 0.831478
O O16 0.250000 0.000000 0.112837
O O17 0.250000 0.094906 0.000000
#
# Coordination Sequence:
#
# PCOD9500625 Si02
#       6
#    16  16  16  16  16  16
#     4   9  19  35  50  69  98 130 164 202 245 297
#     4   9  18  31  47  71 100 125 159 205 247 292
#     4  10  18  30  49  71  97 131 165 199 243 290
#     4   9  17  30  48  72 100 127 158 199 250 299
#     4  10  20  33  51  73  99 131 164 203 250 295
#     4  11  19  33  51  75 103 130 165 208 244 291
#
# _framework density 15.758727
#
# number of rings (size 3 to 8) (size 9 to 14) (size 15 to 20)
#    0.000    2.333    3.333    0.000    0.000    2.667 
#    0.000    3.333    0.000    0.500    0.000    2.333 
#    0.000    0.000    0.000    0.333    0.000    0.167 
#
# Total GULP energy -267328.737206 kJ/mol
# GULP energy per Si atom -5569.348692 kJ/mol
# Density = 1.572286 g / cm^3
# Si number density = 15.758727 Si / 1000 Ang^3
#
#
#
# Elastic Constant Matrix: (Units=GPa)
#
#
# Indices 1 2 3 4 5 6 
#
# 1 134.5159 57.8403 71.5186 0.0000 0.0000 0.0000
# 2 57.8403 60.6293 56.3831 0.0000 0.0000 0.0000
# 3 71.5186 56.3831 88.1322 0.0000 0.0000 0.0000
# 4 0.0000 0.0000 0.0000 25.0777 0.0000 0.0000
# 5 0.0000 0.0000 0.0000 0.0000 27.7164 0.0000
# 6 0.0000 0.0000 0.0000 0.0000 0.0000 20.8928
#
#
#
# Elastic Compliance Matrix: (Units=1/GPa)
#
#
# Indices 1 2 3 4 5 6 
#
# 1 0.014178 -0.006978 -0.007042 0.000000 0.000000 0.000000
# 2 -0.006978 0.044154 -0.022586 0.000000 0.000000 0.000000
# 3 -0.007042 -0.022586 0.031510 0.000000 0.000000 0.000000
# 4 0.000000 0.000000 0.000000 0.039876 0.000000 0.000000
# 5 0.000000 0.000000 0.000000 0.000000 0.036080 0.000000
# 6 0.000000 0.000000 0.000000 0.000000 0.000000 0.047863
#
#
# Mechanical properties :
#
#
# Convention : Reuss Voigt Hill
#
# Bulk Modulus (GPa) = 60.12195 72.75127 66.43661
# Shear Modulus (GPa) = 17.09898 21.23973 19.16936
#
# Velocity S-wave (km/s) = 3.29758 3.67523 3.49152
# Velocity P-wave (km/s) = 7.26175 8.01721 7.64882
#
# Compressibility (1/GPa) = 0.01663286
#
# Stress axis : x y z
#
# Youngs Moduli (GPa) = 70.53119 22.64795 31.73593
#
# Poissons Ratio (x) = 0.15803 0.22347
# Poissons Ratio (y) = 0.49214 0.71678
# Poissons Ratio (z) = 0.49665 0.51152
#
# Static dielectric constant tensor:
#      x y z
#    x 1.543580 0.000000 0.000000 
#    y 0.000000 1.490590 0.000000 
#    z 0.000000 0.000000 1.529160 
# 
# From -- ./inp_files/20834.got.cif
#   From: 2010.05.17/outbox.cif.g08.bks.cpg/sg67_11_cif.got.tgz:20834.got - 2010.06.03 18:28:57.
