data_PCOD9500816
_publ_section_title
;
Structure prediction by ZEFSAII (Michael W. Deem and Ramdas Pophale) SiO2 
 PCOD9500816
Probable space group: C M M A
;
_chemical_formula_sum "Si O2"
_cell_formula_units_Z 104
_cell_length_a 25.294790
_cell_length_b 8.620467
_cell_length_c 27.025099
_cell_angle_alpha 90.000000
_cell_angle_beta 90.000000
_cell_angle_gamma 90.000000
_cell_volume 5892.901276
_symmetry_space_group_name_H-M "C M M A"
_symmetry_group_IT_number 67
_symmetry_cell_setting 'orthorhombic'
loop_
_space_group_symop_operation_xyz
x,y,z
-x,1/2-y,z
x,-y,-z
-x,1/2+y,-z
-x,-y,-z
x,1/2+y,-z
-x,y,z
x,1/2-y,z
1/2+x,1/2+y,z
1/2-x,-y,z
1/2+x,1/2-y,-z
1/2-x,y,-z
1/2-x,1/2-y,-z
1/2+x,y,-z
1/2-x,1/2+y,z
1/2+x,-y,z
loop_
_atom_site_type_symbol
_atom_site_label
_atom_site_fract_x
_atom_site_fract_y
_atom_site_fract_z
Si Si1 0.614242 0.937967 0.136385
Si Si2 0.916596 0.936145 0.363135
Si Si3 0.500000 0.060921 0.829088
Si Si4 0.500000 0.063286 0.713967
Si Si5 0.306923 0.935181 0.944599
Si Si6 0.500000 0.063766 0.445003
Si Si7 0.693408 0.063943 0.663961
Si Si8 0.193887 0.436201 0.221547
O O1 0.615591 0.750000 0.132380
O O2 0.553688 0.987632 0.143603
O O3 0.646525 0.982977 0.185840
O O4 0.646147 0.008374 0.090702
O O5 0.917199 0.750000 0.359736
O O6 0.949481 0.983343 0.411908
O O7 0.857313 0.998246 0.363812
O O8 0.949037 0.003030 0.316217
O O9 0.500000 0.250000 0.828339
O O10 0.500000 0.013041 0.771307
O O11 0.500000 0.250000 0.712927
O O12 0.304348 0.750000 0.945868
O O13 0.250000 0.000000 0.926814
O O14 0.314441 0.000000 0.000000
O O15 0.500000 0.250000 0.447430
O O16 0.500000 0.000000 0.500000
O O17 0.693626 0.250000 0.662203
O O18 0.687076 0.013432 0.721619
O O19 0.750000 0.000000 0.646773
O O20 0.196273 0.250000 0.221486
O O21 0.250000 0.500000 0.203393
#
# Coordination Sequence:
#
# PCOD9500816 Si02
#       8
#    16  16   8   8  16   8  16  16
#     4  10  19  34  53  75 103 136 170 208 251 297
#     4  10  20  34  51  77 109 140 173 217 265 310
#     4   9  19  34  53  75 106 144 179 211 246 291
#     4  10  18  32  54  79 104 139 183 220 254 301
#     4  11  22  38  59  82 102 124 157 203 255 308
#     4   9  20  36  55  78 104 131 168 217 269 314
#     4  10  19  32  50  75 106 144 182 215 252 305
#     4   9  18  30  47  72 103 135 172 211 251 296
#
# _framework density 17.648353
#
# number of rings (size 3 to 8) (size 9 to 14) (size 15 to 20)
#    0.000    2.154    0.000    4.846    0.000    6.769 
#    0.000    3.846    0.000    0.462    0.000    3.231 
#    0.000    0.000    0.000    0.000    0.000    0.000 
#
# Total GULP energy -290288.259080 kJ/mol
# GULP energy per Si atom -5582.466521 kJ/mol
# Density = 1.760818 g / cm^3
# Si number density = 17.648353 Si / 1000 Ang^3
#
#
#
# Elastic Constant Matrix: (Units=GPa)
#
#
# Indices 1 2 3 4 5 6 
#
# 1 192.5247 48.0944 81.7357 0.0000 0.0000 0.0000
# 2 48.0944 56.7121 33.2114 0.0000 0.0000 0.0000
# 3 81.7357 33.2114 100.0323 0.0000 0.0000 0.0000
# 4 0.0000 0.0000 0.0000 20.4631 0.0000 0.0000
# 5 0.0000 0.0000 0.0000 0.0000 12.0636 0.0000
# 6 0.0000 0.0000 0.0000 0.0000 0.0000 28.3933
#
#
#
# Elastic Compliance Matrix: (Units=1/GPa)
#
#
# Indices 1 2 3 4 5 6 
#
# 1 0.008611 -0.003950 -0.005725 0.000000 0.000000 0.000000
# 2 -0.003950 0.023701 -0.004641 0.000000 0.000000 0.000000
# 3 -0.005725 -0.004641 0.016215 0.000000 0.000000 0.000000
# 4 0.000000 0.000000 0.000000 0.048869 0.000000 0.000000
# 5 0.000000 0.000000 0.000000 0.000000 0.082894 0.000000
# 6 0.000000 0.000000 0.000000 0.000000 0.000000 0.035220
#
#
# Mechanical properties :
#
#
# Convention : Reuss Voigt Hill
#
# Bulk Modulus (GPa) = 50.26329 75.03913 62.65121
# Shear Modulus (GPa) = 19.93826 24.59915 22.26871
#
# Velocity S-wave (km/s) = 3.36482 3.73748 3.55604
# Velocity P-wave (km/s) = 6.60593 7.82537 7.24136
#
# Compressibility (1/GPa) = 0.01989523
#
# Stress axis : x y z
#
# Youngs Moduli (GPa) = 116.12497 42.19260 61.67015
#
# Poissons Ratio (x) = 0.16668 0.35305
# Poissons Ratio (y) = 0.45873 0.28621
# Poissons Ratio (z) = 0.66479 0.19582
#
# Static dielectric constant tensor:
#      x y z
#    x 1.602510 0.000000 0.000000 
#    y 0.000000 1.593860 0.000000 
#    z 0.000000 0.000000 1.587830 
# 
# From -- ./inp_files/44886.got.cif
#   From: 2010.05.17/outbox.cif.g08.bks.cpg/sg67_23_cif.got.tgz:44886.got - 2010.06.03 18:28:57.
