data_PCOD9500591
_publ_section_title
;
Structure prediction by ZEFSAII (Michael W. Deem and Ramdas Pophale) SiO2 
 PCOD9500591
Probable space group: C M M A
;
_chemical_formula_sum "Si O2"
_cell_formula_units_Z 104
_cell_length_a 27.832914
_cell_length_b 8.737224
_cell_length_c 24.296246
_cell_angle_alpha 90.000000
_cell_angle_beta 90.000000
_cell_angle_gamma 90.000000
_cell_volume 5908.419515
_symmetry_space_group_name_H-M "C M M A"
_symmetry_group_IT_number 67
_symmetry_cell_setting 'orthorhombic'
loop_
_space_group_symop_operation_xyz
x,y,z
-x,1/2-y,z
x,-y,-z
-x,1/2+y,-z
-x,-y,-z
x,1/2+y,-z
-x,y,z
x,1/2-y,z
1/2+x,1/2+y,z
1/2-x,-y,z
1/2+x,1/2-y,-z
1/2-x,y,-z
1/2-x,1/2-y,-z
1/2+x,y,-z
1/2-x,1/2+y,z
1/2+x,-y,z
loop_
_atom_site_type_symbol
_atom_site_label
_atom_site_fract_x
_atom_site_fract_y
_atom_site_fract_z
Si Si1 0.500000 0.066184 0.061956
Si Si2 0.892057 0.931033 0.663866
Si Si3 0.698201 0.933813 0.728908
Si Si4 0.101134 0.568135 0.938978
Si Si5 0.053663 0.931183 0.237788
Si Si6 0.354575 0.431881 0.161869
Si Si7 0.555722 0.566684 0.560466
O O1 0.500000 0.250000 0.063679
O O2 0.550767 0.003496 0.083136
O O3 0.500000 0.000000 0.000000
O O4 0.886578 0.750000 0.659966
O O5 0.843496 0.003367 0.689086
O O6 0.933153 0.974541 0.708114
O O7 0.908723 0.000047 0.606034
O O8 0.697738 0.750000 0.726270
O O9 0.684456 0.977102 0.792115
O O10 0.750000 0.000000 0.714664
O O11 0.096082 0.750000 0.943095
O O12 0.141827 0.520817 0.895326
O O13 0.109586 0.500000 0.000000
O O14 0.056191 0.750000 0.251733
O O15 0.095189 0.959390 0.193821
O O16 0.000000 0.963756 0.217633
O O17 0.350523 0.250000 0.151139
O O18 0.565619 0.500000 0.500000
O O19 0.500000 0.526409 0.574172
O O20 0.559178 0.750000 0.559401
#
# Coordination Sequence:
#
# PCOD9500591 Si02
#       7
#     8  16  16  16  16  16  16
#     4  10  18  30  46  64  92 130 172 210 247 294
#     4  11  21  33  52  79 110 144 183 224 266 315
#     4  10  21  39  62  84 107 135 171 218 274 327
#     4  11  21  33  49  71  99 134 174 215 257 308
#     4   9  18  32  49  71 102 141 177 214 265 316
#     4   9  19  34  52  76 103 135 170 210 262 319
#     4  10  20  34  53  79 114 155 195 232 269 312
#
# _framework density 17.601998999999999
#
# number of rings (size 3 to 8) (size 9 to 14) (size 15 to 20)
#    0.000    2.000    0.000    6.692    1.077    6.154 
#    0.000    0.000    0.000    0.923    0.000    6.462 
#    0.000    0.000    0.000    0.000    0.000    0.000 
#
# Total GULP energy -290204.226426 kJ/mol
# GULP energy per Si atom -5580.850508 kJ/mol
# Density = 1.756194 g / cm^3
# Si number density = 17.601999 Si / 1000 Ang^3
#
#
#
# Elastic Constant Matrix: (Units=GPa)
#
#
# Indices 1 2 3 4 5 6 
#
# 1 68.0225 24.5743 35.8410 0.0000 0.0000 0.0000
# 2 24.5743 82.9674 55.1104 0.0000 0.0000 0.0000
# 3 35.8410 55.1104 104.2388 0.0000 0.0000 0.0000
# 4 0.0000 0.0000 0.0000 29.1129 0.0000 0.0000
# 5 0.0000 0.0000 0.0000 0.0000 20.0479 0.0000
# 6 0.0000 0.0000 0.0000 0.0000 0.0000 19.8960
#
#
#
# Elastic Compliance Matrix: (Units=1/GPa)
#
#
# Indices 1 2 3 4 5 6 
#
# 1 0.018145 -0.001896 -0.005236 0.000000 0.000000 0.000000
# 2 -0.001896 0.018775 -0.009274 0.000000 0.000000 0.000000
# 3 -0.005236 -0.009274 0.016297 0.000000 0.000000 0.000000
# 4 0.000000 0.000000 0.000000 0.034349 0.000000 0.000000
# 5 0.000000 0.000000 0.000000 0.000000 0.049881 0.000000
# 6 0.000000 0.000000 0.000000 0.000000 0.000000 0.050261
#
#
# Mechanical properties :
#
#
# Convention : Reuss Voigt Hill
#
# Bulk Modulus (GPa) = 49.01139 54.03112 51.52126
# Shear Modulus (GPa) = 21.99515 23.12488 22.56001
#
# Velocity S-wave (km/s) = 3.53878 3.62852 3.58393
# Velocity P-wave (km/s) = 6.67847 6.95108 6.81614
#
# Compressibility (1/GPa) = 0.02040342
#
# Stress axis : x y z
#
# Youngs Moduli (GPa) = 55.11119 53.26274 61.36088
#
# Poissons Ratio (x) = 0.10100 0.32131
# Poissons Ratio (y) = 0.10450 0.56907
# Poissons Ratio (z) = 0.28859 0.49397
#
# Static dielectric constant tensor:
#      x y z
#    x 1.610730 0.000000 0.000000 
#    y 0.000000 1.584260 0.000000 
#    z 0.000000 0.000000 1.590180 
# 
# From -- ./inp_files/42788.got.cif
#   From: 2010.05.17/outbox.cif.g08.bks.cpg/sg67_22_cif.got.tgz:42788.got - 2010.06.03 18:28:57.
