data_PCOD9500233
_publ_section_title
;
Structure prediction by ZEFSAII (Michael W. Deem and Ramdas Pophale) SiO2 
 PCOD9500233
Probable space group: C M M A
;
_chemical_formula_sum "Si O2"
_cell_formula_units_Z 80
_cell_length_a 23.650700
_cell_length_b 18.047600
_cell_length_c 10.853454
_cell_angle_alpha 90.000000
_cell_angle_beta 90.000000
_cell_angle_gamma 90.000000
_cell_volume 4632.670650
_symmetry_space_group_name_H-M "C M M A"
_symmetry_group_IT_number 67
_symmetry_cell_setting 'orthorhombic'
loop_
_space_group_symop_operation_xyz
x,y,z
-x,1/2-y,z
x,-y,-z
-x,1/2+y,-z
-x,-y,-z
x,1/2+y,-z
-x,y,z
x,1/2-y,z
1/2+x,1/2+y,z
1/2-x,-y,z
1/2+x,1/2-y,-z
1/2-x,y,-z
1/2-x,1/2-y,-z
1/2+x,y,-z
1/2-x,1/2+y,z
1/2+x,-y,z
loop_
_atom_site_type_symbol
_atom_site_label
_atom_site_fract_x
_atom_site_fract_y
_atom_site_fract_z
Si Si1 0.000000 0.163135 0.896585
Si Si2 0.406968 0.041411 0.689409
Si Si3 0.500000 0.937547 0.106843
Si Si4 0.815916 0.020134 0.860332
Si Si5 0.620144 0.164823 0.213134
Si Si6 0.433751 0.113736 0.444259
O O1 0.059379 0.136649 0.840497
O O2 0.000000 0.250000 0.874212
O O3 0.000000 0.140089 0.037256
O O4 0.447042 0.055662 0.804473
O O5 0.412901 0.103337 0.584122
O O6 0.346935 0.025727 0.752067
O O7 0.428278 0.966789 0.621231
O O8 0.500000 0.000000 0.000000
O O9 0.833439 0.105452 0.830928
O O10 0.750000 0.000000 0.856294
O O11 0.835748 0.000000 0.000000
O O12 0.630727 0.250000 0.174801
O O13 0.607214 0.162528 0.359256
O O14 0.500000 0.136448 0.441288
#
# Coordination Sequence:
#
# PCOD9500233 Si02
#       6
#     8  16   8  16  16  16
#     4  10  20  31  47  77 111 136 166 213 269 333
#     4  10  18  29  49  77 105 136 179 231 275 312
#     4  12  18  26  49  76 103 138 178 223 277 323
#     4  10  21  37  56  79 108 143 193 239 276 318
#     4  10  20  35  56  81 110 145 185 225 276 340
#     4  10  16  30  49  78 109 138 176 216 274 331
#
# _framework density 17.268657999999999
#
# number of rings (size 3 to 8) (size 9 to 14) (size 15 to 20)
#    0.000    1.800    3.000    4.800    0.000    0.000 
#    0.000   11.000    0.000    4.800    0.000    0.000 
#    0.000    0.000    0.000    0.000    0.000    0.000 
#
# Total GULP energy -222796.699414 kJ/mol
# GULP energy per Si atom -5569.917485 kJ/mol
# Density = 1.722935 g / cm^3
# Si number density = 17.268658 Si / 1000 Ang^3
#
#
#
# Elastic Constant Matrix: (Units=GPa)
#
#
# Indices 1 2 3 4 5 6 
#
# 1 88.6907 35.4341 38.8229 0.0000 0.0000 0.0000
# 2 35.4341 58.7432 24.2827 0.0000 0.0000 0.0000
# 3 38.8229 24.2827 120.0347 0.0000 0.0000 0.0000
# 4 0.0000 0.0000 0.0000 20.2008 0.0000 0.0000
# 5 0.0000 0.0000 0.0000 0.0000 25.7841 0.0000
# 6 0.0000 0.0000 0.0000 0.0000 0.0000 16.3157
#
#
#
# Elastic Compliance Matrix: (Units=1/GPa)
#
#
# Indices 1 2 3 4 5 6 
#
# 1 0.016128 -0.008263 -0.003545 0.000000 0.000000 0.000000
# 2 -0.008263 0.022810 -0.001942 0.000000 0.000000 0.000000
# 3 -0.003545 -0.001942 0.009870 0.000000 0.000000 0.000000
# 4 0.000000 0.000000 0.000000 0.049503 0.000000 0.000000
# 5 0.000000 0.000000 0.000000 0.000000 0.038784 0.000000
# 6 0.000000 0.000000 0.000000 0.000000 0.000000 0.061291
#
#
# Mechanical properties :
#
#
# Convention : Reuss Voigt Hill
#
# Bulk Modulus (GPa) = 46.92840 51.61644 49.27242
# Shear Modulus (GPa) = 21.46027 23.72206 22.59117
#
# Velocity S-wave (km/s) = 3.52906 3.71037 3.62085
# Velocity P-wave (km/s) = 6.62119 6.95061 6.78790
#
# Compressibility (1/GPa) = 0.02130906
#
# Stress axis : x y z
#
# Youngs Moduli (GPa) = 62.00331 43.83961 101.31476
#
# Poissons Ratio (x) = 0.36226 0.35913
# Poissons Ratio (y) = 0.51235 0.19674
# Poissons Ratio (z) = 0.21978 0.08513
#
# Static dielectric constant tensor:
#      x y z
#    x 1.603960 0.000000 0.000000 
#    y 0.000000 1.635510 0.000000 
#    z 0.000000 0.000000 1.615150 
# 
# From -- ./inp_files/13663.got.cif
#   From: 2010.05.17/outbox.cif.g08.bks.cpg/sg67_7_cif.got.tgz:13663.got - 2010.06.03 18:28:57.
