data_PCOD9500624
_publ_section_title
;
Structure prediction by ZEFSAII (Michael W. Deem and Ramdas Pophale) SiO2 
 PCOD9500624
Probable space group: C M M A
;
_chemical_formula_sum "Si O2"
_cell_formula_units_Z 112
_cell_length_a 29.597218
_cell_length_b 9.199511
_cell_length_c 26.690101
_cell_angle_alpha 90.000000
_cell_angle_beta 90.000000
_cell_angle_gamma 90.000000
_cell_volume 7267.178900
_symmetry_space_group_name_H-M "C M M A"
_symmetry_group_IT_number 67
_symmetry_cell_setting 'orthorhombic'
loop_
_space_group_symop_operation_xyz
x,y,z
-x,1/2-y,z
x,-y,-z
-x,1/2+y,-z
-x,-y,-z
x,1/2+y,-z
-x,y,z
x,1/2-y,z
1/2+x,1/2+y,z
1/2-x,-y,z
1/2+x,1/2-y,-z
1/2-x,y,-z
1/2-x,1/2-y,-z
1/2+x,y,-z
1/2-x,1/2+y,z
1/2+x,-y,z
loop_
_atom_site_type_symbol
_atom_site_label
_atom_site_fract_x
_atom_site_fract_y
_atom_site_fract_z
Si Si1 0.606557 0.425921 0.750589
Si Si2 0.606824 0.074454 0.948833
Si Si3 0.795988 0.076229 0.092218
Si Si4 0.051741 0.926755 0.850212
Si Si5 0.945071 0.082727 0.549348
Si Si6 0.796139 0.423965 0.210499
Si Si7 0.946805 0.574044 0.338893
O O1 0.603930 0.250000 0.746301
O O2 0.579216 0.469574 0.800742
O O3 0.658891 0.465745 0.759480
O O4 0.583493 0.500284 0.703161
O O5 0.604626 0.250000 0.952904
O O6 0.658836 0.033852 0.937030
O O7 0.576934 0.029296 0.901066
O O8 0.591886 0.000000 0.000000
O O9 0.790852 0.250000 0.088381
O O10 0.802934 0.041565 0.151332
O O11 0.750000 0.000000 0.075233
O O12 0.051569 0.750000 0.850365
O O13 0.000000 0.976636 0.848441
O O14 0.930999 0.250000 0.545923
O O15 0.932941 0.026806 0.604731
O O16 0.000000 0.080286 0.548709
O O17 0.929046 0.000000 0.500000
O O18 0.791192 0.250000 0.213820
O O19 0.750000 0.500000 0.227018
O O20 0.943491 0.750000 0.336975
O O21 0.000000 0.537732 0.331409
#
# Coordination Sequence:
#
# PCOD9500624 Si02
#       7
#    16  16  16  16  16  16  16
#     4  10  18  30  49  71  91 115 153 193 223 265
#     4  10  20  34  49  66  88 112 141 180 221 264
#     4   9  17  31  49  67  89 112 137 172 217 268
#     4   9  17  31  50  67  85 114 148 181 222 265
#     4   8  14  25  40  58  85 123 162 196 228 261
#     4   9  17  30  48  69  91 114 144 181 222 271
#     4   9  18  30  42  63  98 132 158 190 233 271
#
# _framework density 15.411758000000001
#
# number of rings (size 3 to 8) (size 9 to 14) (size 15 to 20)
#    0.000    2.857    1.429    1.286    0.000    3.143 
#    0.000    3.571    0.000    0.857    0.000    0.000 
#    0.000    0.571    0.000    6.286    0.000    4.857 
#
# Total GULP energy -311990.562647 kJ/mol
# GULP energy per Si atom -5571.260047 kJ/mol
# Density = 1.537668 g / cm^3
# Si number density = 15.411758 Si / 1000 Ang^3
#
#
#
# Elastic Constant Matrix: (Units=GPa)
#
#
# Indices 1 2 3 4 5 6 
#
# 1 99.1480 26.2111 64.4438 0.0000 0.0000 0.0000
# 2 26.2111 12.7862 35.6894 0.0000 0.0000 0.0000
# 3 64.4438 35.6894 136.7582 0.0000 0.0000 0.0000
# 4 0.0000 0.0000 0.0000 26.5643 0.0000 0.0000
# 5 0.0000 0.0000 0.0000 0.0000 12.4669 0.0000
# 6 0.0000 0.0000 0.0000 0.0000 0.0000 19.5143
#
#
#
# Elastic Compliance Matrix: (Units=1/GPa)
#
#
# Indices 1 2 3 4 5 6 
#
# 1 0.023057 -0.062374 0.005412 0.000000 0.000000 0.000000
# 2 -0.062374 0.456717 -0.089796 0.000000 0.000000 0.000000
# 3 0.005412 -0.089796 0.028196 0.000000 0.000000 0.000000
# 4 0.000000 0.000000 0.000000 0.037644 0.000000 0.000000
# 5 0.000000 0.000000 0.000000 0.000000 0.080212 0.000000
# 6 0.000000 0.000000 0.000000 0.000000 0.000000 0.051245
#
#
# Mechanical properties :
#
#
# Convention : Reuss Voigt Hill
#
# Bulk Modulus (GPa) = 4.66299 55.70899 30.18599
# Shear Modulus (GPa) = 4.79813 19.86565 12.33189
#
# Velocity S-wave (km/s) = 1.76637 3.59415 2.83178
# Velocity P-wave (km/s) = 2.68184 7.31091 5.50644
#
# Compressibility (1/GPa) = 0.21445484
#
# Stress axis : x y z
#
# Youngs Moduli (GPa) = 43.36998 2.18954 35.46658
#
# Poissons Ratio (x) = 0.13657 -0.19196
# Poissons Ratio (y) = 2.70516 3.18476
# Poissons Ratio (z) = -0.23473 0.19661
#
# Static dielectric constant tensor:
#      x y z
#    x 1.502880 0.000000 0.000000 
#    y 0.000000 1.516220 0.000000 
#    z 0.000000 0.000000 1.511100 
# 
# From -- ./inp_files/42652.got.cif
#   From: 2010.05.17/outbox.cif.g08.bks.cpg/sg67_22_cif.got.tgz:42652.got - 2010.06.03 18:28:57.
