data_PCOD9500783
_publ_section_title
;
Structure prediction by ZEFSAII (Michael W. Deem and Ramdas Pophale) SiO2 
 PCOD9500783
Probable space group: C M M A
;
_chemical_formula_sum "Si O2"
_cell_formula_units_Z 120
_cell_length_a 8.803705
_cell_length_b 29.988208
_cell_length_c 27.845009
_cell_angle_alpha 90.000000
_cell_angle_beta 90.000000
_cell_angle_gamma 90.000000
_cell_volume 7351.286667
_symmetry_space_group_name_H-M "C M M A"
_symmetry_group_IT_number 67
_symmetry_cell_setting 'orthorhombic'
loop_
_space_group_symop_operation_xyz
x,y,z
-x,1/2-y,z
x,-y,-z
-x,1/2+y,-z
-x,-y,-z
x,1/2+y,-z
-x,y,z
x,1/2-y,z
1/2+x,1/2+y,z
1/2-x,-y,z
1/2+x,1/2-y,-z
1/2-x,y,-z
1/2-x,1/2-y,-z
1/2+x,y,-z
1/2-x,1/2+y,z
1/2+x,-y,z
loop_
_atom_site_type_symbol
_atom_site_label
_atom_site_fract_x
_atom_site_fract_y
_atom_site_fract_z
Si Si1 0.681083 0.250000 0.552849
Si Si2 0.179135 0.700202 0.363791
Si Si3 0.317401 0.548708 0.130629
Si Si4 0.682117 0.452089 0.758086
Si Si5 0.317457 0.641030 0.282405
Si Si6 0.180731 0.301781 0.090595
Si Si7 0.821301 0.697340 0.195379
Si Si8 0.319659 0.887825 0.949853
O O1 0.500000 0.250000 0.551573
O O2 0.750000 0.250000 0.500000
O O3 0.742768 0.208306 0.584582
O O4 0.196212 0.750000 0.340445
O O5 0.255206 0.663561 0.330607
O O6 0.000000 0.692143 0.369258
O O7 0.500000 0.548347 0.126800
O O8 0.250000 0.500000 0.119406
O O9 0.276211 0.558284 0.186307
O O10 0.248567 0.584307 0.094308
O O11 0.500000 0.455615 0.756694
O O12 0.750000 0.500000 0.745205
O O13 0.728120 0.410487 0.725251
O O14 0.500000 0.643812 0.281247
O O15 0.249731 0.668578 0.237793
O O16 0.214089 0.250000 0.079407
O O17 0.234063 0.309979 0.145382
O O18 0.268774 0.336802 0.058060
O O19 0.000000 0.308871 0.086672
O O20 0.808523 0.750000 0.206776
O O21 0.000000 0.686994 0.189310
O O22 0.500000 0.891536 0.950582
O O23 0.250000 0.904162 0.000000
#
# Coordination Sequence:
#
# PCOD9500783 Si02
#       8
#     8  16  16  16  16  16  16  16
#     4  10  18  32  52  74 104 146 188 230 271 310
#     4   9  19  32  46  70 104 141 183 223 261 307
#     4  10  20  38  60  81 105 130 161 202 248 303
#     4   9  20  35  52  74  99 130 168 207 249 303
#     4  11  20  30  47  72 103 138 174 214 262 308
#     4  10  21  38  57  76  99 128 163 201 242 293
#     4  10  20  32  48  72 101 133 168 203 242 296
#     4  12  25  40  58  79 101 126 157 196 247 301
#
# _framework density 16.323674
#
# number of rings (size 3 to 8) (size 9 to 14) (size 15 to 20)
#    0.400    1.467    0.000    4.800    0.000    6.400 
#    0.000    1.333    0.000    0.000    0.000    0.000 
#    0.000    0.533    0.000    5.600    0.000    3.067 
#
# Total GULP energy -334918.624437 kJ/mol
# GULP energy per Si atom -5581.977074 kJ/mol
# Density = 1.628652 g / cm^3
# Si number density = 16.323674 Si / 1000 Ang^3
#
#
#
# Elastic Constant Matrix: (Units=GPa)
#
#
# Indices 1 2 3 4 5 6 
#
# 1 90.8403 47.2468 32.7165 0.0000 0.0000 0.0000
# 2 47.2468 85.5031 56.6345 0.0000 0.0000 0.0000
# 3 32.7165 56.6345 67.2133 0.0000 0.0000 0.0000
# 4 0.0000 0.0000 0.0000 15.7782 0.0000 0.0000
# 5 0.0000 0.0000 0.0000 0.0000 27.0861 0.0000
# 6 0.0000 0.0000 0.0000 0.0000 0.0000 28.1256
#
#
#
# Elastic Compliance Matrix: (Units=1/GPa)
#
#
# Indices 1 2 3 4 5 6 
#
# 1 0.015464 -0.008055 -0.000740 0.000000 0.000000 0.000000
# 2 -0.008055 0.030663 -0.021916 0.000000 0.000000 0.000000
# 3 -0.000740 -0.021916 0.033705 0.000000 0.000000 0.000000
# 4 0.000000 0.000000 0.000000 0.063379 0.000000 0.000000
# 5 0.000000 0.000000 0.000000 0.000000 0.036919 0.000000
# 6 0.000000 0.000000 0.000000 0.000000 0.000000 0.035555
#
#
# Mechanical properties :
#
#
# Convention : Reuss Voigt Hill
#
# Bulk Modulus (GPa) = 54.31876 57.41692 55.86784
# Shear Modulus (GPa) = 17.65264 21.32857 19.49061
#
# Velocity S-wave (km/s) = 3.29205 3.61862 3.45919
# Velocity P-wave (km/s) = 6.91364 7.26014 7.08901
#
# Compressibility (1/GPa) = 0.01840984
#
# Stress axis : x y z
#
# Youngs Moduli (GPa) = 64.66487 32.61273 29.66923
#
# Poissons Ratio (x) = 0.26269 0.02196
# Poissons Ratio (y) = 0.52087 0.65023
# Poissons Ratio (z) = 0.04787 0.71474
#
# Static dielectric constant tensor:
#      x y z
#    x 1.541350 0.000000 0.000000 
#    y 0.000000 1.555940 0.000000 
#    z 0.000000 0.000000 1.529120 
# 
# From -- ./inp_files/43950.got.cif
#   From: 2010.05.17/outbox.cif.g08.bks.cpg/sg67_22_cif.got.tgz:43950.got - 2010.06.03 18:28:57.
