data_PCOD9500364
_publ_section_title
;
Structure prediction by ZEFSAII (Michael W. Deem and Ramdas Pophale) SiO2 
 PCOD9500364
Probable space group: C M M A
;
_chemical_formula_sum "Si O2"
_cell_formula_units_Z 72
_cell_length_a 8.662281
_cell_length_b 16.025098
_cell_length_c 25.614581
_cell_angle_alpha 90.000000
_cell_angle_beta 90.000000
_cell_angle_gamma 90.000000
_cell_volume 3555.659935
_symmetry_space_group_name_H-M "C M M A"
_symmetry_group_IT_number 67
_symmetry_cell_setting 'orthorhombic'
loop_
_space_group_symop_operation_xyz
x,y,z
-x,1/2-y,z
x,-y,-z
-x,1/2+y,-z
-x,-y,-z
x,1/2+y,-z
-x,y,z
x,1/2-y,z
1/2+x,1/2+y,z
1/2-x,-y,z
1/2+x,1/2-y,-z
1/2-x,y,-z
1/2-x,1/2-y,-z
1/2+x,y,-z
1/2-x,1/2+y,z
1/2+x,-y,z
loop_
_atom_site_type_symbol
_atom_site_label
_atom_site_fract_x
_atom_site_fract_y
_atom_site_fract_z
Si Si1 0.820992 0.152720 0.765696
Si Si2 0.182470 0.093411 0.339889
Si Si3 0.686476 0.912065 0.876138
Si Si4 0.313207 0.750000 0.941687
Si Si5 0.184091 0.595159 0.446589
O O1 0.820209 0.250000 0.780571
O O2 0.725239 0.139250 0.713414
O O3 0.763602 0.102521 0.816038
O O4 0.000000 0.129101 0.754887
O O5 0.258812 0.132464 0.391831
O O6 0.000000 0.089064 0.347668
O O7 0.250000 0.000000 0.334115
O O8 0.500000 0.913279 0.875840
O O9 0.736137 0.833186 0.910695
O O10 0.750000 0.000000 0.895483
O O11 0.500000 0.750000 0.942740
O O12 0.250000 0.750000 0.000000
O O13 0.250000 0.500000 0.445460
O O14 0.250000 0.633634 0.500000
O O15 0.000000 0.592686 0.448587
#
# Coordination Sequence:
#
# PCOD9500364 Si02
#       5
#    16  16  16   8  16
#     4  10  20  37  59  81 111 151 190 236 297 359
#     4  11  21  33  50  77 110 143 185 236 288 350
#     4  10  21  39  63  90 122 161 203 249 300 358
#     4  10  22  42  64  90 126 166 205 248 299 352
#     4  10  17  28  46  70 101 138 181 231 289 350
#
# _framework density 20.249406
#
# number of rings (size 3 to 8) (size 9 to 14) (size 15 to 20)
#    0.000    1.778    1.111    6.667    0.000    4.444 
#    0.000    2.222    0.000    0.667    0.000    0.000 
#    0.000    0.000    0.000    0.000    0.000    0.000 
#
# Total GULP energy -201100.746535 kJ/mol
# GULP energy per Si atom -5586.131848 kJ/mol
# Density = 2.020332 g / cm^3
# Si number density = 20.249406 Si / 1000 Ang^3
#
#
#
# Elastic Constant Matrix: (Units=GPa)
#
#
# Indices 1 2 3 4 5 6 
#
# 1 109.0740 19.0639 43.9833 0.0000 0.0000 0.0000
# 2 19.0639 91.4391 52.7238 0.0000 0.0000 0.0000
# 3 43.9833 52.7238 149.4119 0.0000 0.0000 0.0000
# 4 0.0000 0.0000 0.0000 21.3012 0.0000 0.0000
# 5 0.0000 0.0000 0.0000 0.0000 33.4871 0.0000
# 6 0.0000 0.0000 0.0000 0.0000 0.0000 19.9789
#
#
#
# Elastic Compliance Matrix: (Units=1/GPa)
#
#
# Indices 1 2 3 4 5 6 
#
# 1 0.010422 -0.000507 -0.002889 0.000000 0.000000 0.000000
# 2 -0.000507 0.013754 -0.004704 0.000000 0.000000 0.000000
# 3 -0.002889 -0.004704 0.009203 0.000000 0.000000 0.000000
# 4 0.000000 0.000000 0.000000 0.046946 0.000000 0.000000
# 5 0.000000 0.000000 0.000000 0.000000 0.029862 0.000000
# 6 0.000000 0.000000 0.000000 0.000000 0.000000 0.050053
#
#
# Mechanical properties :
#
#
# Convention : Reuss Voigt Hill
#
# Bulk Modulus (GPa) = 58.21111 64.60745 61.40928
# Shear Modulus (GPa) = 27.44728 30.56370 29.00549
#
# Velocity S-wave (km/s) = 3.68565 3.88927 3.78883
# Velocity P-wave (km/s) = 6.84993 7.22106 7.03794
#
# Compressibility (1/GPa) = 0.01717885
#
# Stress axis : x y z
#
# Youngs Moduli (GPa) = 95.95400 72.70352 108.65530
#
# Poissons Ratio (x) = 0.03686 0.31390
# Poissons Ratio (y) = 0.04865 0.51116
# Poissons Ratio (z) = 0.27721 0.34202
#
# Static dielectric constant tensor:
#      x y z
#    x 1.696030 0.000000 0.000000 
#    y 0.000000 1.734930 0.000000 
#    z 0.000000 0.000000 1.740750 
# 
# From -- ./inp_files/40537.got.cif
#   From: 2010.05.17/outbox.cif.g08.bks.cpg/sg67_21_cif.got.tgz:40537.got - 2010.06.03 18:28:57.
