data_PCOD9500291
_publ_section_title
;
Structure prediction by ZEFSAII (Michael W. Deem and Ramdas Pophale) SiO2 
 PCOD9500291
Probable space group: C M M A
;
_chemical_formula_sum "Si O2"
_cell_formula_units_Z 96
_cell_length_a 27.637299
_cell_length_b 8.647402
_cell_length_c 24.591077
_cell_angle_alpha 90.000000
_cell_angle_beta 90.000000
_cell_angle_gamma 90.000000
_cell_volume 5877.042017
_symmetry_space_group_name_H-M "C M M A"
_symmetry_group_IT_number 67
_symmetry_cell_setting 'orthorhombic'
loop_
_space_group_symop_operation_xyz
x,y,z
-x,1/2-y,z
x,-y,-z
-x,1/2+y,-z
-x,-y,-z
x,1/2+y,-z
-x,y,z
x,1/2-y,z
1/2+x,1/2+y,z
1/2-x,-y,z
1/2+x,1/2-y,-z
1/2-x,y,-z
1/2-x,1/2-y,-z
1/2+x,y,-z
1/2-x,1/2+y,z
1/2+x,-y,z
loop_
_atom_site_type_symbol
_atom_site_label
_atom_site_fract_x
_atom_site_fract_y
_atom_site_fract_z
Si Si1 0.197927 0.935347 0.389173
Si Si2 0.555150 0.565109 0.331685
Si Si3 0.351137 0.935222 0.723515
Si Si4 0.694979 0.065226 0.055884
Si Si5 0.695551 0.565802 0.168805
Si Si6 0.097129 0.935979 0.441326
O O1 0.200262 0.750000 0.389984
O O2 0.182943 0.982128 0.327648
O O3 0.152827 0.981506 0.427147
O O4 0.250000 0.000000 0.404535
O O5 0.500000 0.529389 0.316318
O O6 0.561983 0.750000 0.329909
O O7 0.595083 0.484177 0.294098
O O8 0.565432 0.505788 0.392742
O O9 0.348099 0.750000 0.729133
O O10 0.334154 0.015536 0.778467
O O11 0.696183 0.250000 0.054493
O O12 0.750000 0.000000 0.056645
O O13 0.674242 0.005000 0.112942
O O14 0.672656 0.000000 0.000000
O O15 0.698138 0.750000 0.163805
O O16 0.750000 0.500000 0.175453
O O17 0.093966 0.750000 0.439911
O O18 0.083505 0.000000 0.500000
#
# Coordination Sequence:
#
# PCOD9500291 Si02
#       6
#    16  16  16  16  16  16
#     4   9  19  32  47  67  92 123 156 189 227 272
#     4  10  21  37  56  76  96 120 150 188 239 293
#     4  10  20  34  50  71  97 125 159 197 238 284
#     4  10  17  27  41  60  89 127 169 208 244 281
#     4  11  20  30  45  68  98 133 170 205 241 281
#     4  10  21  36  52  72  96 122 155 192 231 279
#
# _framework density 16.334748999999999
#
# number of rings (size 3 to 8) (size 9 to 14) (size 15 to 20)
#    0.000    2.000    0.000    7.500    0.000    7.333 
#    0.000    1.667    0.000    0.000    0.000    0.000 
#    0.000    0.667    0.000    2.500    0.000    4.167 
#
# Total GULP energy -267876.505634 kJ/mol
# GULP energy per Si atom -5580.760534 kJ/mol
# Density = 1.629757 g / cm^3
# Si number density = 16.334749 Si / 1000 Ang^3
#
#
#
# Elastic Constant Matrix: (Units=GPa)
#
#
# Indices 1 2 3 4 5 6 
#
# 1 43.6581 10.9803 6.4258 0.0000 0.0000 0.0000
# 2 10.9803 88.8811 30.2260 0.0000 0.0000 0.0000
# 3 6.4258 30.2260 104.3691 0.0000 0.0000 0.0000
# 4 0.0000 0.0000 0.0000 27.5252 0.0000 0.0000
# 5 0.0000 0.0000 0.0000 0.0000 7.4514 0.0000
# 6 0.0000 0.0000 0.0000 0.0000 0.0000 22.4263
#
#
#
# Elastic Compliance Matrix: (Units=1/GPa)
#
#
# Indices 1 2 3 4 5 6 
#
# 1 0.023683 -0.002695 -0.000678 0.000000 0.000000 0.000000
# 2 -0.002695 0.012787 -0.003537 0.000000 0.000000 0.000000
# 3 -0.000678 -0.003537 0.010647 0.000000 0.000000 0.000000
# 4 0.000000 0.000000 0.000000 0.036330 0.000000 0.000000
# 5 0.000000 0.000000 0.000000 0.000000 0.134202 0.000000
# 6 0.000000 0.000000 0.000000 0.000000 0.000000 0.044591
#
#
# Mechanical properties :
#
#
# Convention : Reuss Voigt Hill
#
# Bulk Modulus (GPa) = 30.03267 36.90806 33.47037
# Shear Modulus (GPa) = 17.41192 24.09900 20.75546
#
# Velocity S-wave (km/s) = 3.26842 3.84516 3.56846
# Velocity P-wave (km/s) = 5.71569 6.50827 6.12481
#
# Compressibility (1/GPa) = 0.03329707
#
# Stress axis : x y z
#
# Youngs Moduli (GPa) = 42.22459 78.20521 93.91881
#
# Poissons Ratio (x) = 0.21079 0.06363
# Poissons Ratio (y) = 0.11381 0.33221
# Poissons Ratio (z) = 0.02861 0.27663
#
# Static dielectric constant tensor:
#      x y z
#    x 1.533930 0.000000 0.000000 
#    y 0.000000 1.547380 0.000000 
#    z 0.000000 0.000000 1.572580 
# 
# From -- ./inp_files/40896.got.cif
#   From: 2010.05.17/outbox.cif.g08.bks.cpg/sg67_21_cif.got.tgz:40896.got - 2010.06.03 18:28:57.
