data_PCOD9500213
_publ_section_title
;
Structure prediction by ZEFSAII (Michael W. Deem and Ramdas Pophale) SiO2 
 PCOD9500213
Probable space group: C M M A
;
_chemical_formula_sum "Si O2"
_cell_formula_units_Z 116
_cell_length_a 22.040808
_cell_length_b 14.642947
_cell_length_c 16.272491
_cell_angle_alpha 90.000000
_cell_angle_beta 90.000000
_cell_angle_gamma 90.000000
_cell_volume 5251.822529
_symmetry_space_group_name_H-M "C M M A"
_symmetry_group_IT_number 67
_symmetry_cell_setting 'orthorhombic'
loop_
_space_group_symop_operation_xyz
x,y,z
-x,1/2-y,z
x,-y,-z
-x,1/2+y,-z
-x,-y,-z
x,1/2+y,-z
-x,y,z
x,1/2-y,z
1/2+x,1/2+y,z
1/2-x,-y,z
1/2+x,1/2-y,-z
1/2-x,y,-z
1/2-x,1/2-y,-z
1/2+x,y,-z
1/2-x,1/2+y,z
1/2+x,-y,z
loop_
_atom_site_type_symbol
_atom_site_label
_atom_site_fract_x
_atom_site_fract_y
_atom_site_fract_z
Si Si1 0.569077 0.388631 0.012418
Si Si2 0.294701 0.142946 0.571812
Si Si3 0.341776 0.601992 0.120162
Si Si4 0.570648 0.637900 0.460132
Si Si5 0.877436 0.407737 0.814503
Si Si6 0.750000 0.500000 0.000000
Si Si7 0.071961 0.851894 0.355516
Si Si8 0.750614 0.389126 0.247629
O O1 0.500000 0.361289 0.004149
O O2 0.592263 0.366300 0.103981
O O3 0.572225 0.500000 0.000000
O O4 0.610269 0.351278 0.939092
O O5 0.302415 0.250000 0.552011
O O6 0.250000 0.105335 0.500000
O O7 0.365260 0.109380 0.582744
O O8 0.259369 0.134543 0.657769
O O9 0.371804 0.513936 0.162721
O O10 0.305689 0.648513 0.193439
O O11 0.291516 0.561757 0.057605
O O12 0.500000 0.608526 0.438215
O O13 0.567316 0.750000 0.458098
O O14 0.584235 0.608589 0.554521
O O15 0.910341 0.401259 0.727529
O O16 0.812126 0.363968 0.795861
O O17 0.099751 0.750000 0.352760
O O18 0.000000 0.843031 0.354241
O O19 0.750000 0.500000 0.243315
#
# Coordination Sequence:
#
# PCOD9500213 Si02
#       8
#    16  16  16  16  16   4  16  16
#     4   9  16  26  43  68  92 118 158 202 240 284
#     4  10  20  34  53  77 102 131 170 214 254 300
#     4  10  17  29  47  69  90 123 162 198 238 283
#     4   8  15  30  50  69  91 125 169 207 242 293
#     4  10  16  26  44  67  93 122 154 191 238 292
#     4  12  12  32  50  68  88 128 172 194 226 284
#     4   9  17  28  44  68  95 122 155 197 242 290
#     4  10  20  32  48  74 103 129 165 206 255 297
#
# _framework density 22.087569999999999
#
# number of rings (size 3 to 8) (size 9 to 14) (size 15 to 20)
#    0.000    2.483    4.138    2.069    0.000    2.483 
#    0.000    0.690    0.000    2.483    0.000   11.586 
#    0.000    0.000    0.000    0.000    0.000    0.000 
#
# Total GULP energy -323243.302907 kJ/mol
# GULP energy per Si atom -5573.160395 kJ/mol
# Density = 2.203730 g / cm^3
# Si number density = 22.087570 Si / 1000 Ang^3
#
#
#
# Elastic Constant Matrix: (Units=GPa)
#
#
# Indices 1 2 3 4 5 6 
#
# 1 130.9782 5.1256 57.7058 0.0000 0.0000 0.0000
# 2 5.1256 56.9860 -5.8053 0.0000 0.0000 0.0000
# 3 57.7058 -5.8053 107.0786 0.0000 0.0000 0.0000
# 4 0.0000 0.0000 0.0000 28.7013 0.0000 0.0000
# 5 0.0000 0.0000 0.0000 0.0000 44.7438 0.0000
# 6 0.0000 0.0000 0.0000 0.0000 0.0000 -28.2918
#
#
#
# Elastic Compliance Matrix: (Units=1/GPa)
#
#
# Indices 1 2 3 4 5 6 
#
# 1 0.010134 -0.001476 -0.005541 0.000000 0.000000 0.000000
# 2 -0.001476 0.017861 0.001764 0.000000 0.000000 0.000000
# 3 -0.005541 0.001764 0.012421 0.000000 0.000000 0.000000
# 4 0.000000 0.000000 0.000000 0.034842 0.000000 0.000000
# 5 0.000000 0.000000 0.000000 0.000000 0.022349 0.000000
# 6 0.000000 0.000000 0.000000 0.000000 0.000000 -0.035346
#
#
# Mechanical properties :
#
#
# Convention : Reuss Voigt Hill
#
# Bulk Modulus (GPa) = 33.43560 45.45501 39.44531
# Shear Modulus (GPa) = 60.43222 24.89842 42.66532
#
# Velocity S-wave (km/s) = 5.23638 3.36111 4.39982
# Velocity P-wave (km/s) = 7.19237 5.97385 6.61124
#
# Compressibility (1/GPa) = 0.02990824
#
# Stress axis : x y z
#
# Youngs Moduli (GPa) = 98.67774 55.98918 80.50983
#
# Poissons Ratio (x) = 0.08264 0.44613
# Poissons Ratio (y) = 0.14565 -0.14200
# Poissons Ratio (z) = 0.54681 -0.09875
#
# Static dielectric constant tensor:
#      x y z
#    x 1.872020 0.000000 0.000000 
#    y 0.000000 1.848670 0.000000 
#    z 0.000000 0.000000 1.807430 
# 
# From -- ./inp_files/30305.got.cif
#   From: 2010.05.17/outbox.cif.g08.bks.cpg/sg67_16_cif.got.tgz:30305.got - 2010.06.03 18:28:57.
