data_PCOD9500953
_publ_section_title
;
Structure prediction by ZEFSAII (Michael W. Deem and Ramdas Pophale) SiO2 
 PCOD9500953
Probable space group: C M M A
;
_chemical_formula_sum "Si O2"
_cell_formula_units_Z 88
_cell_length_a 28.115262
_cell_length_b 8.440858
_cell_length_c 19.356767
_cell_angle_alpha 90.000000
_cell_angle_beta 90.000000
_cell_angle_gamma 90.000000
_cell_volume 4593.688600
_symmetry_space_group_name_H-M "C M M A"
_symmetry_group_IT_number 67
_symmetry_cell_setting 'orthorhombic'
loop_
_space_group_symop_operation_xyz
x,y,z
-x,1/2-y,z
x,-y,-z
-x,1/2+y,-z
-x,-y,-z
x,1/2+y,-z
-x,y,z
x,1/2-y,z
1/2+x,1/2+y,z
1/2-x,-y,z
1/2+x,1/2-y,-z
1/2-x,y,-z
1/2-x,1/2-y,-z
1/2+x,y,-z
1/2-x,1/2+y,z
1/2+x,-y,z
loop_
_atom_site_type_symbol
_atom_site_label
_atom_site_fract_x
_atom_site_fract_y
_atom_site_fract_z
Si Si1 0.402375 0.441441 0.155146
Si Si2 0.446691 0.056931 0.296187
Si Si3 0.500000 0.558527 0.921925
Si Si4 0.698415 0.060634 0.828995
Si Si5 0.887833 0.061047 0.577464
Si Si6 0.801104 0.439834 0.331676
O O1 0.400753 0.250000 0.152941
O O2 0.412556 0.494203 0.234191
O O3 0.450029 0.492098 0.113752
O O4 0.350214 0.503415 0.134510
O O5 0.500000 0.005266 0.280800
O O6 0.446308 0.250000 0.295372
O O7 0.429787 0.004812 0.371420
O O8 0.500000 0.750000 0.918523
O O9 0.500000 0.500000 0.000000
O O10 0.699419 0.250000 0.830009
O O11 0.694408 0.005828 0.748431
O O12 0.750000 0.000000 0.854647
O O13 0.889019 0.250000 0.575071
O O14 0.890368 0.000000 0.500000
O O15 0.840897 0.007741 0.618183
O O16 0.803206 0.250000 0.332247
O O17 0.750000 0.500000 0.356000
#
# Coordination Sequence:
#
# PCOD9500953 Si02
#       6
#    16  16   8  16  16  16
#     4  10  18  34  60  87 115 153 196 233 275 333
#     4   9  17  32  55  79 102 136 185 230 274 330
#     4  10  22  38  62  94 129 162 192 229 276 335
#     4  10  20  33  54  85 118 150 188 239 289 338
#     4  11  22  35  52  72 101 140 182 232 285 337
#     4  10  20  34  52  75 104 136 178 227 282 338
#
# _framework density 19.156718999999999
#
# number of rings (size 3 to 8) (size 9 to 14) (size 15 to 20)
#    0.000    2.000    2.727    1.636    0.000    2.909 
#    0.000    1.818    0.000    4.364    0.000    3.818 
#    0.000    0.000    0.000    0.000    0.000    0.000 
#
# Total GULP energy -245380.787134 kJ/mol
# GULP energy per Si atom -5576.836071 kJ/mol
# Density = 1.911312 g / cm^3
# Si number density = 19.156719 Si / 1000 Ang^3
#
#
#
# Elastic Constant Matrix: (Units=GPa)
#
#
# Indices 1 2 3 4 5 6 
#
# 1 170.5588 21.3778 36.2603 0.0000 0.0000 0.0000
# 2 21.3778 24.1925 12.5242 0.0000 0.0000 0.0000
# 3 36.2603 12.5242 54.3190 0.0000 0.0000 0.0000
# 4 0.0000 0.0000 0.0000 19.5567 0.0000 0.0000
# 5 0.0000 0.0000 0.0000 0.0000 19.0138 0.0000
# 6 0.0000 0.0000 0.0000 0.0000 0.0000 24.9739
#
#
#
# Elastic Compliance Matrix: (Units=1/GPa)
#
#
# Indices 1 2 3 4 5 6 
#
# 1 0.007225 -0.004415 -0.003805 0.000000 0.000000 0.000000
# 2 -0.004415 0.049635 -0.008497 0.000000 0.000000 0.000000
# 3 -0.003805 -0.008497 0.022909 0.000000 0.000000 0.000000
# 4 0.000000 0.000000 0.000000 0.051133 0.000000 0.000000
# 5 0.000000 0.000000 0.000000 0.000000 0.052593 0.000000
# 6 0.000000 0.000000 0.000000 0.000000 0.000000 0.040042
#
#
# Mechanical properties :
#
#
# Convention : Reuss Voigt Hill
#
# Bulk Modulus (GPa) = 21.58191 43.26611 32.42401
# Shear Modulus (GPa) = 18.35412 24.63608 21.49510
#
# Velocity S-wave (km/s) = 3.09868 3.59001 3.35336
# Velocity P-wave (km/s) = 4.90845 6.31020 5.65294
#
# Compressibility (1/GPa) = 0.04633510
#
# Stress axis : x y z
#
# Youngs Moduli (GPa) = 138.39988 20.14695 43.65057
#
# Poissons Ratio (x) = 0.08894 0.16611
# Poissons Ratio (y) = 0.61100 0.37091
# Poissons Ratio (z) = 0.52666 0.17119
#
# Static dielectric constant tensor:
#      x y z
#    x 1.687790 0.000000 0.000000 
#    y 0.000000 1.656050 0.000000 
#    z 0.000000 0.000000 1.654640 
# 
# From -- ./inp_files/32434.got.cif
#   From: 2010.05.17/outbox.cif.g08.bks.cpg/sg67_17_cif.got.tgz:32434.got - 2010.06.03 18:28:57.
