data_PCOD9500750
_publ_section_title
;
Structure prediction by ZEFSAII (Michael W. Deem and Ramdas Pophale) SiO2 
 PCOD9500750
Probable space group: C M M A
;
_chemical_formula_sum "Si O2"
_cell_formula_units_Z 64
_cell_length_a 17.267068
_cell_length_b 14.265808
_cell_length_c 11.518568
_cell_angle_alpha 90.000000
_cell_angle_beta 90.000000
_cell_angle_gamma 90.000000
_cell_volume 2837.353614
_symmetry_space_group_name_H-M "C M M A"
_symmetry_group_IT_number 67
_symmetry_cell_setting 'orthorhombic'
loop_
_space_group_symop_operation_xyz
x,y,z
-x,1/2-y,z
x,-y,-z
-x,1/2+y,-z
-x,-y,-z
x,1/2+y,-z
-x,y,z
x,1/2-y,z
1/2+x,1/2+y,z
1/2-x,-y,z
1/2+x,1/2-y,-z
1/2-x,y,-z
1/2-x,1/2-y,-z
1/2+x,y,-z
1/2-x,1/2+y,z
1/2+x,-y,z
loop_
_atom_site_type_symbol
_atom_site_label
_atom_site_fract_x
_atom_site_fract_y
_atom_site_fract_z
Si Si1 0.500000 0.388944 0.980400
Si Si2 0.356281 0.135550 0.565509
Si Si3 0.307645 0.363731 0.321602
Si Si4 0.000000 0.361635 0.292566
Si Si5 0.669493 0.896886 0.944769
O O1 0.416061 0.354370 0.027980
O O2 0.500000 0.500000 0.000000
O O3 0.500000 0.374408 0.843421
O O4 0.355680 0.250000 0.563703
O O5 0.361128 0.107786 0.430591
O O6 0.276707 0.110094 0.628988
O O7 0.424926 0.100044 0.644467
O O8 0.310883 0.250000 0.310190
O O9 0.322350 0.401953 0.194006
O O10 0.000000 0.250000 0.313068
O O11 0.750000 0.855358 0.000000
O O12 0.666498 0.000000 0.000000
#
# Coordination Sequence:
#
# PCOD9500750 Si02
#       5
#     8  16  16   8  16
#     4  10  22  37  52  72 108 146 176 213 256 305
#     4   8  16  30  51  80 108 131 162 215 271 313
#     4   9  17  32  54  79 105 134 171 213 262 314
#     4  10  18  31  54  81 105 132 170 212 260 314
#     4  10  21  36  54  73 105 146 178 212 256 303
#
# _framework density 22.556228999999998
#
# number of rings (size 3 to 8) (size 9 to 14) (size 15 to 20)
#    0.000    2.750    0.000    3.000    0.000    2.500 
#    0.000    1.250    0.000   48.000    0.000    0.000 
#    0.000    0.000    0.000    0.000    0.000    0.000 
#
# Total GULP energy -178590.370133 kJ/mol
# GULP energy per Si atom -5580.949067 kJ/mol
# Density = 2.250489 g / cm^3
# Si number density = 22.556229 Si / 1000 Ang^3
#
#
#
# Elastic Constant Matrix: (Units=GPa)
#
#
# Indices 1 2 3 4 5 6 
#
# 1 156.9344 11.8501 90.2510 0.0000 0.0000 0.0000
# 2 11.8501 77.5423 17.5360 0.0000 0.0000 0.0000
# 3 90.2510 17.5360 263.4895 0.0000 0.0000 0.0000
# 4 0.0000 0.0000 0.0000 41.3490 0.0000 0.0000
# 5 0.0000 0.0000 0.0000 0.0000 36.5737 0.0000
# 6 0.0000 0.0000 0.0000 0.0000 0.0000 -4.9256
#
#
#
# Elastic Compliance Matrix: (Units=1/GPa)
#
#
# Indices 1 2 3 4 5 6 
#
# 1 0.007963 -0.000609 -0.002687 0.000000 0.000000 0.000000
# 2 -0.000609 0.013140 -0.000666 0.000000 0.000000 0.000000
# 3 -0.002687 -0.000666 0.004760 0.000000 0.000000 0.000000
# 4 0.000000 0.000000 0.000000 0.024184 0.000000 0.000000
# 5 0.000000 0.000000 0.000000 0.000000 0.027342 0.000000
# 6 0.000000 0.000000 0.000000 0.000000 0.000000 -0.203021
#
#
# Mechanical properties :
#
#
# Convention : Reuss Voigt Hill
#
# Bulk Modulus (GPa) = 55.74506 81.91561 68.83034
# Shear Modulus (GPa) = -44.75194 39.82136 -2.46529
#
# Velocity S-wave (km/s) = -4.45906 4.20626 -1.04658
# Velocity P-wave (km/s) = 1.32042 7.74501 5.39637
#
# Compressibility (1/GPa) = 0.01793881
#
# Stress axis : x y z
#
# Youngs Moduli (GPa) = 125.57436 76.10427 210.08763
#
# Poissons Ratio (x) = 0.04637 0.56453
# Poissons Ratio (y) = 0.07651 0.13988
# Poissons Ratio (z) = 0.33743 0.05067
#
# Static dielectric constant tensor:
#      x y z
#    x 1.890870 0.000000 0.000000 
#    y 0.000000 1.921460 0.000000 
#    z 0.000000 0.000000 1.733280 
# 
# From -- ./inp_files/9392.got.cif
#   From: 2010.05.17/outbox.cif.g08.bks.cpg/sg67_5_cif.got.tgz:9392.got - 2010.06.03 18:28:57.
