data_PCOD9500500
_publ_section_title
;
Structure prediction by ZEFSAII (Michael W. Deem and Ramdas Pophale) SiO2 
 PCOD9500500
Probable space group: C M M A
;
_chemical_formula_sum "Si O2"
_cell_formula_units_Z 104
_cell_length_a 8.529853
_cell_length_b 28.006595
_cell_length_c 23.269330
_cell_angle_alpha 90.000000
_cell_angle_beta 90.000000
_cell_angle_gamma 90.000000
_cell_volume 5558.860002
_symmetry_space_group_name_H-M "C M M A"
_symmetry_group_IT_number 67
_symmetry_cell_setting 'orthorhombic'
loop_
_space_group_symop_operation_xyz
x,y,z
-x,1/2-y,z
x,-y,-z
-x,1/2+y,-z
-x,-y,-z
x,1/2+y,-z
-x,y,z
x,1/2-y,z
1/2+x,1/2+y,z
1/2-x,-y,z
1/2+x,1/2-y,-z
1/2-x,y,-z
1/2-x,1/2-y,-z
1/2+x,y,-z
1/2-x,1/2+y,z
1/2+x,-y,z
loop_
_atom_site_type_symbol
_atom_site_label
_atom_site_fract_x
_atom_site_fract_y
_atom_site_fract_z
Si Si1 0.179729 0.050993 0.618765
Si Si2 0.811658 0.195602 0.754113
Si Si3 0.192133 0.654700 0.367991
Si Si4 0.310973 0.052241 0.935297
Si Si5 0.818958 0.050447 0.757646
Si Si6 0.817730 0.625599 0.839288
Si Si7 0.189226 0.250000 0.564335
O O1 0.249239 0.103828 0.606534
O O2 0.182681 0.051205 0.688587
O O3 0.000000 0.050839 0.599261
O O4 0.250000 0.000000 0.600111
O O5 0.756063 0.250000 0.748142
O O6 0.760045 0.165289 0.698041
O O7 0.763121 0.172779 0.814691
O O8 0.000000 0.195741 0.751564
O O9 0.239310 0.701432 0.403632
O O10 0.000000 0.651958 0.367926
O O11 0.500000 0.050817 0.934733
O O12 0.257785 0.095567 0.894120
O O13 0.250000 0.000000 0.916088
O O14 0.250000 0.059169 0.000000
O O15 0.710326 0.089241 0.786797
O O16 0.000000 0.057604 0.775516
O O17 0.750000 0.000000 0.775959
O O18 0.000000 0.635294 0.848432
O O19 0.250000 0.250000 0.500000
O O20 0.000000 0.250000 0.565340
#
# Coordination Sequence:
#
# PCOD9500500 Si02
#       7
#    16  16  16  16  16  16   8
#     4   9  17  29  46  71 103 139 176 211 256 312
#     4  10  19  34  56  79 102 137 182 220 268 333
#     4   9  16  32  56  78 105 144 181 220 269 325
#     4  10  21  36  54  76 103 139 180 223 268 318
#     4  10  18  28  44  68 101 136 173 209 248 306
#     4  11  22  33  48  74 107 139 172 214 272 324
#     4  10  20  36  60  84 110 140 181 230 275 322
#
# _framework density 18.708873000000001
#
# number of rings (size 3 to 8) (size 9 to 14) (size 15 to 20)
#    0.000    2.154    2.308    2.308    0.000    4.615 
#    0.000    1.538    0.000    0.923    0.000    3.231 
#    0.000    0.000    0.000    0.000    0.000    0.000 
#
# Total GULP energy -289731.165582 kJ/mol
# GULP energy per Si atom -5571.753184 kJ/mol
# Density = 1.866629 g / cm^3
# Si number density = 18.708873 Si / 1000 Ang^3
#
#
#
# Elastic Constant Matrix: (Units=GPa)
#
#
# Indices 1 2 3 4 5 6 
#
# 1 11.2980 17.8711 7.7088 0.0000 0.0000 0.0000
# 2 17.8711 163.7927 38.2616 0.0000 0.0000 0.0000
# 3 7.7088 38.2616 62.8114 0.0000 0.0000 0.0000
# 4 0.0000 0.0000 0.0000 21.2329 0.0000 0.0000
# 5 0.0000 0.0000 0.0000 0.0000 16.8949 0.0000
# 6 0.0000 0.0000 0.0000 0.0000 0.0000 23.3616
#
#
#
# Elastic Compliance Matrix: (Units=1/GPa)
#
#
# Indices 1 2 3 4 5 6 
#
# 1 0.109694 -0.010288 -0.007196 0.000000 0.000000 0.000000
# 2 -0.010288 0.008083 -0.003661 0.000000 0.000000 0.000000
# 3 -0.007196 -0.003661 0.019034 0.000000 0.000000 0.000000
# 4 0.000000 0.000000 0.000000 0.047097 0.000000 0.000000
# 5 0.000000 0.000000 0.000000 0.000000 0.059189 0.000000
# 6 0.000000 0.000000 0.000000 0.000000 0.000000 0.042805
#
#
# Mechanical properties :
#
#
# Convention : Reuss Voigt Hill
#
# Bulk Modulus (GPa) = 10.57957 40.62056 25.60006
# Shear Modulus (GPa) = 13.90051 23.90193 18.90122
#
# Velocity S-wave (km/s) = 2.72874 3.57819 3.18194
# Velocity P-wave (km/s) = 3.94907 6.23140 5.21658
#
# Compressibility (1/GPa) = 0.09452178
#
# Stress axis : x y z
#
# Youngs Moduli (GPa) = 9.11626 123.71674 52.53752
#
# Poissons Ratio (x) = 1.27275 0.37806
# Poissons Ratio (y) = 0.09378 0.19235
# Poissons Ratio (z) = 0.06560 0.45295
#
# Static dielectric constant tensor:
#      x y z
#    x 1.653460 0.000000 0.000000 
#    y 0.000000 1.688260 0.000000 
#    z 0.000000 0.000000 1.641860 
# 
# From -- ./inp_files/41005.got.cif
#   From: 2010.05.17/outbox.cif.g08.bks.cpg/sg67_21_cif.got.tgz:41005.got - 2010.06.03 18:28:57.
