data_PCOD9500887
_publ_section_title
;
Structure prediction by ZEFSAII (Michael W. Deem and Ramdas Pophale) SiO2 
 PCOD9500887
Probable space group: C M M A
;
_chemical_formula_sum "Si O2"
_cell_formula_units_Z 56
_cell_length_a 22.348955
_cell_length_b 14.235501
_cell_length_c 9.741586
_cell_angle_alpha 90.000000
_cell_angle_beta 90.000000
_cell_angle_gamma 90.000000
_cell_volume 3099.271668
_symmetry_space_group_name_H-M "C M M A"
_symmetry_group_IT_number 67
_symmetry_cell_setting 'orthorhombic'
loop_
_space_group_symop_operation_xyz
x,y,z
-x,1/2-y,z
x,-y,-z
-x,1/2+y,-z
-x,-y,-z
x,1/2+y,-z
-x,y,z
x,1/2-y,z
1/2+x,1/2+y,z
1/2-x,-y,z
1/2+x,1/2-y,-z
1/2-x,y,-z
1/2-x,1/2-y,-z
1/2+x,y,-z
1/2-x,1/2+y,z
1/2+x,-y,z
loop_
_atom_site_type_symbol
_atom_site_label
_atom_site_fract_x
_atom_site_fract_y
_atom_site_fract_z
Si Si1 0.190496 0.250000 0.718818
Si Si2 0.604717 0.750000 0.981832
Si Si3 0.631949 0.887600 0.508431
Si Si4 0.000000 0.147773 0.873127
Si Si5 0.168163 0.750000 0.727118
Si Si6 0.000000 0.594247 0.412789
O O1 0.151521 0.250000 0.857250
O O2 0.172664 0.339756 0.625459
O O3 0.260685 0.250000 0.746734
O O4 0.559687 0.660558 0.961912
O O5 0.635427 0.750000 0.127755
O O6 0.649317 0.839175 0.365457
O O7 0.563559 0.861338 0.548056
O O8 0.637829 0.000000 0.500000
O O9 0.000000 0.250000 0.793602
O O10 0.000000 0.074829 0.751195
O O11 0.000000 0.500000 0.500000
#
# Coordination Sequence:
#
# PCOD9500887 Si02
#       6
#     8   8  16   8   8   8
#     4  11  20  37  59  77 116 160 188 225 288 343
#     4   9  19  35  56  79 114 146 191 230 276 352
#     4  10  21  37  59  86 114 141 192 246 287 335
#     4   8  16  32  60  79 106 153 178 221 305 327
#     4  11  24  34  55  88 109 154 196 231 281 341
#     4  10  18  32  60  86 105 141 186 234 287 341
#
# _framework density 18.068760000000001
#
# number of rings (size 3 to 8) (size 9 to 14) (size 15 to 20)
#    0.857    1.143    2.857    2.143    2.000    4.571 
#    0.000    1.429    0.000    6.857    0.000    0.000 
#    0.000    0.000    0.000    0.000    0.000    0.000 
#
# Total GULP energy -155892.313224 kJ/mol
# GULP energy per Si atom -5567.582615 kJ/mol
# Density = 1.802763 g / cm^3
# Si number density = 18.068760 Si / 1000 Ang^3
#
#
#
# Elastic Constant Matrix: (Units=GPa)
#
#
# Indices 1 2 3 4 5 6 
#
# 1 174.7505 29.5451 94.0597 0.0000 0.0000 0.0000
# 2 29.5451 103.3662 49.0688 0.0000 0.0000 0.0000
# 3 94.0597 49.0688 180.0420 0.0000 0.0000 0.0000
# 4 0.0000 0.0000 0.0000 13.9259 0.0000 0.0000
# 5 0.0000 0.0000 0.0000 0.0000 28.6802 0.0000
# 6 0.0000 0.0000 0.0000 0.0000 0.0000 19.7629
#
#
#
# Elastic Compliance Matrix: (Units=1/GPa)
#
#
# Indices 1 2 3 4 5 6 
#
# 1 0.007972 -0.000346 -0.004070 0.000000 0.000000 0.000000
# 2 -0.000346 0.011127 -0.002852 0.000000 0.000000 0.000000
# 3 -0.004070 -0.002852 0.008458 0.000000 0.000000 0.000000
# 4 0.000000 0.000000 0.000000 0.071809 0.000000 0.000000
# 5 0.000000 0.000000 0.000000 0.000000 0.034867 0.000000
# 6 0.000000 0.000000 0.000000 0.000000 0.000000 0.050600
#
#
# Mechanical properties :
#
#
# Convention : Reuss Voigt Hill
#
# Bulk Modulus (GPa) = 76.80406 89.27844 83.04125
# Shear Modulus (GPa) = 24.54474 31.50612 28.02543
#
# Velocity S-wave (km/s) = 3.68966 4.18027 3.94260
# Velocity P-wave (km/s) = 7.79424 8.53330 8.17213
#
# Compressibility (1/GPa) = 0.01302014
#
# Stress axis : x y z
#
# Youngs Moduli (GPa) = 125.44085 89.87122 118.23214
#
# Poissons Ratio (x) = 0.03113 0.48125
# Poissons Ratio (y) = 0.04345 0.33715
# Poissons Ratio (z) = 0.51059 0.25628
#
# Static dielectric constant tensor:
#      x y z
#    x 1.650100 0.000000 0.000000 
#    y 0.000000 1.647720 0.000000 
#    z 0.000000 0.000000 1.597400 
# 
# From -- ./inp_files/7749.got.cif
#   From: 2010.05.17/outbox.cif.g08.bks.cpg/sg67_4_cif.got.tgz:7749.got - 2010.06.03 18:28:57.
