data_PCOD9500056
_publ_section_title
;
Structure prediction by ZEFSAII (Michael W. Deem and Ramdas Pophale) SiO2 
 PCOD9500056
Probable space group: C C C M
;
_chemical_formula_sum "Si O2"
_cell_formula_units_Z 52
_cell_length_a 15.000000
_cell_length_b 27.000000
_cell_length_c 18.000000
_cell_angle_alpha 90.000000
_cell_angle_beta 90.000000
_cell_angle_gamma 90.000000
_cell_volume 7290.000000
_symmetry_space_group_name_H-M "C C C M"
_symmetry_group_IT_number 66
_symmetry_cell_setting 'orthorhombic'
loop_
_space_group_symop_operation_xyz
x,y,z
-x,-y,z
x,-y,1/2-z
-x,y,1/2-z
-x,-y,-z
x,y,-z
-x,y,1/2+z
x,-y,1/2+z
1/2+x,1/2+y,z
1/2-x,1/2-y,z
1/2+x,1/2-y,1/2-z
1/2-x,1/2+y,1/2-z
1/2-x,1/2-y,-z
1/2+x,1/2+y,-z
1/2-x,1/2+y,1/2+z
1/2+x,1/2-y,1/2+z
loop_
_atom_site_type_symbol
_atom_site_label
_atom_site_fract_x
_atom_site_fract_y
_atom_site_fract_z
Si Si1 0.846731 0.915330 0.413228
Si Si2 0.746145 0.678510 0.642435
Si Si3 0.056491 0.783886 0.674166
Si Si4 0.105484 0.987799 0.664461
Si Si5 0.250000 0.250000 0.776933
Si Si6 0.101756 0.258300 0.585745
Si Si7 0.943370 0.112326 0.411215
O O1 0.823523 0.910849 0.500000
O O2 0.785651 0.877459 0.366756
O O3 0.950377 0.898879 0.405018
O O4 0.844059 0.971976 0.386077
O O5 0.757385 0.701345 0.724305
O O6 0.837969 0.693554 0.602113
O O7 0.667133 0.712396 0.607051
O O8 0.153730 0.758951 0.685177
O O9 0.070006 0.834565 0.627715
O O10 0.000000 0.795603 0.750000
O O11 0.988209 0.747701 0.631698
O O12 0.108842 0.931656 0.632854
O O13 0.130638 0.000000 0.750000
O O14 0.000000 0.000000 0.659447
O O15 0.080566 0.254776 0.500000
O O16 0.922453 0.112337 0.500000
#
# Coordination Sequence:
#
# PCOD9500056 Si02
#       7
#    16  16  16  16   8  16  16
#     4  10  17  28  45  67  94 122 159 203 242 279
#     4  10  17  29  47  68  95 116 162 209 249 277
#     4  12  20  33  50  66  96 131 166 199 237 289
#     4   9  19  28  41  64  92 124 161 196 231 282
#     4  10  22  32  44  72  92 126 160 204 238 290
#     4  10  18  29  46  68  92 121 161 204 242 281
#     4  10  20  31  45  63  91 132 165 191 231 285
#
# _framework density 7.1330590000000003
#
# number of rings (size 3 to 8) (size 9 to 14) (size 15 to 20)
#    0.000    2.000    4.615    2.769    6.462    1.846 
#    0.000    1.538    0.000    0.000    0.000    0.000 
#    0.000    1.231    1.231    4.462    0.923    0.000 
#
# Total GULP energy -289525.959118 kJ/mol
# GULP energy per Si atom -5567.806906 kJ/mol
# Density = 0.711682 g / cm^3
# Si number density = 7.133059 Si / 1000 Ang^3
#
#
#
# Elastic Constant Matrix: (Units=GPa)
#
#
# Indices 1 2 3 4 5 6 
#
# 1 71.5588 38.6563 46.0437 0.0000 0.0000 0.0000
# 2 38.6563 79.4188 30.8967 0.0000 0.0000 0.0000
# 3 46.0437 30.8967 76.6880 0.0000 0.0000 0.0000
# 4 0.0000 0.0000 0.0000 10.7027 0.0000 0.0000
# 5 0.0000 0.0000 0.0000 0.0000 17.4076 0.0000
# 6 0.0000 0.0000 0.0000 0.0000 0.0000 24.1631
#
#
#
# Elastic Compliance Matrix: (Units=1/GPa)
#
#
# Indices 1 2 3 4 5 6 
#
# 1 0.026401 -0.007926 -0.012658 0.000000 0.000000 0.000000
# 2 -0.007926 0.017311 -0.002216 0.000000 0.000000 0.000000
# 3 -0.012658 -0.002216 0.021532 0.000000 0.000000 0.000000
# 4 0.000000 0.000000 0.000000 0.093434 0.000000 0.000000
# 5 0.000000 0.000000 0.000000 0.000000 0.057446 0.000000
# 6 0.000000 0.000000 0.000000 0.000000 0.000000 0.041386
#
#
# Mechanical properties :
#
#
# Convention : Reuss Voigt Hill
#
# Bulk Modulus (GPa) = 50.90261 50.98433 50.94347
# Shear Modulus (GPa) = 16.14686 17.92592 17.03639
#
# Velocity S-wave (km/s) = 3.36792 3.54861 3.45945
# Velocity P-wave (km/s) = 7.13317 7.25299 7.19333
#
# Compressibility (1/GPa) = 0.01964536
#
# Stress axis : x y z
#
# Youngs Moduli (GPa) = 37.87788 57.76549 46.44176
#
# Poissons Ratio (x) = 0.45784 0.58785
# Poissons Ratio (y) = 0.30022 0.10291
# Poissons Ratio (z) = 0.47945 0.12800
#
# Static dielectric constant tensor:
#      x y z
#    x 1.450910 0.000000 0.000000 
#    y 0.000000 1.478370 0.000000 
#    z 0.000000 0.000000 1.516310 
# 
# From -- ./inp_files/40756.got.cif
#   From: 2010.05.17/outbox.ucp.g08.bks.cvg/sg66_21_cif.got.tgz:40756.got - 2010.06.11 16:44:13.
