data_PCOD9500739
_publ_section_title
;
Structure prediction by ZEFSAII (Michael W. Deem and Ramdas Pophale) SiO2 
 PCOD9500739
Probable space group: C M M A
;
_chemical_formula_sum "Si O2"
_cell_formula_units_Z 88
_cell_length_a 8.401892
_cell_length_b 16.163020
_cell_length_c 32.117646
_cell_angle_alpha 90.000000
_cell_angle_beta 90.000000
_cell_angle_gamma 90.000000
_cell_volume 4361.574671
_symmetry_space_group_name_H-M "C M M A"
_symmetry_group_IT_number 67
_symmetry_cell_setting 'orthorhombic'
loop_
_space_group_symop_operation_xyz
x,y,z
-x,1/2-y,z
x,-y,-z
-x,1/2+y,-z
-x,-y,-z
x,1/2+y,-z
-x,y,z
x,1/2-y,z
1/2+x,1/2+y,z
1/2-x,-y,z
1/2+x,1/2-y,-z
1/2-x,y,-z
1/2-x,1/2-y,-z
1/2+x,y,-z
1/2-x,1/2+y,z
1/2+x,-y,z
loop_
_atom_site_type_symbol
_atom_site_label
_atom_site_fract_x
_atom_site_fract_y
_atom_site_fract_z
Si Si1 0.818775 0.152281 0.868152
Si Si2 0.807478 0.750000 0.452754
Si Si3 0.310612 0.095101 0.692869
Si Si4 0.808681 0.094183 0.956744
Si Si5 0.808402 0.405769 0.779441
Si Si6 0.190492 0.904813 0.396663
O O1 0.830054 0.250000 0.868273
O O2 0.746334 0.127598 0.912491
O O3 0.746912 0.127839 0.823734
O O4 0.000000 0.116883 0.868077
O O5 0.750000 0.750000 0.500000
O O6 0.755131 0.665285 0.429393
O O7 0.000000 0.750000 0.451715
O O8 0.500000 0.095819 0.691744
O O9 0.253098 0.134006 0.736423
O O10 0.243512 0.126513 0.649132
O O11 0.250000 0.000000 0.693642
O O12 0.000000 0.098995 0.957075
O O13 0.750000 0.000000 0.957606
O O14 0.750000 0.134186 0.000000
O O15 0.750000 0.500000 0.778838
O O16 0.000000 0.400700 0.778586
O O17 0.000000 0.909095 0.397506
O O18 0.250000 0.000000 0.403196
#
# Coordination Sequence:
#
# PCOD9500739 Si02
#       6
#    16   8  16  16  16  16
#     4   9  19  34  50  71 100 134 170 208 255 311
#     4  10  24  42  62  88 122 158 200 244 291 348
#     4  10  18  31  53  81 111 143 181 227 275 328
#     4  10  19  33  54  76  98 124 162 209 254 308
#     4  10  18  31  53  76 102 136 175 218 263 316
#     4  10  20  38  61  88 118 155 198 243 291 345
#
# _framework density 20.176200000000001
#
# number of rings (size 3 to 8) (size 9 to 14) (size 15 to 20)
#    0.000    2.182    0.000    6.545    0.000    2.182 
#    1.636    4.545    0.000    7.636    0.000    0.000 
#    0.000    0.000    0.000    0.000    0.000    0.000 
#
# Total GULP energy -245170.584419 kJ/mol
# GULP energy per Si atom -5572.058737 kJ/mol
# Density = 2.013028 g / cm^3
# Si number density = 20.176200 Si / 1000 Ang^3
#
#
#
# Elastic Constant Matrix: (Units=GPa)
#
#
# Indices 1 2 3 4 5 6 
#
# 1 62.7993 13.4385 34.0583 0.0000 0.0000 0.0000
# 2 13.4385 60.1578 73.4920 0.0000 0.0000 0.0000
# 3 34.0583 73.4920 242.9092 0.0000 0.0000 0.0000
# 4 0.0000 0.0000 0.0000 -42.2607 0.0000 0.0000
# 5 0.0000 0.0000 0.0000 0.0000 27.1740 0.0000
# 6 0.0000 0.0000 0.0000 0.0000 0.0000 13.3571
#
#
#
# Elastic Compliance Matrix: (Units=1/GPa)
#
#
# Indices 1 2 3 4 5 6 
#
# 1 0.017312 -0.001431 -0.001994 0.000000 0.000000 0.000000
# 2 -0.001431 0.026488 -0.007813 0.000000 0.000000 0.000000
# 3 -0.001994 -0.007813 0.006760 0.000000 0.000000 0.000000
# 4 0.000000 0.000000 0.000000 -0.023663 0.000000 0.000000
# 5 0.000000 0.000000 0.000000 0.000000 0.036800 0.000000
# 6 0.000000 0.000000 0.000000 0.000000 0.000000 0.074866
#
#
# Mechanical properties :
#
#
# Convention : Reuss Voigt Hill
#
# Bulk Modulus (GPa) = 35.60904 67.53821 51.57362
# Shear Modulus (GPa) = 29.34262 15.97925 22.66094
#
# Velocity S-wave (km/s) = 3.81769 2.81728 3.35498
# Velocity P-wave (km/s) = 6.09265 6.64301 6.37377
#
# Compressibility (1/GPa) = 0.02808276
#
# Stress axis : x y z
#
# Youngs Moduli (GPa) = 57.76499 37.75360 147.92308
#
# Poissons Ratio (x) = 0.05401 0.29502
# Poissons Ratio (y) = 0.08265 1.15575
# Poissons Ratio (z) = 0.11521 0.29498
#
# Static dielectric constant tensor:
#      x y z
#    x 1.726780 0.000000 0.000000 
#    y 0.000000 1.692550 0.000000 
#    z 0.000000 0.000000 1.804990 
# 
# From -- ./inp_files/45226.got.cif
#   From: 2010.05.17/outbox.cif.g08.bks.cpg/sg67_23_cif.got.tgz:45226.got - 2010.06.03 18:28:57.
