data_PCOD9500609
_publ_section_title
;
Structure prediction by ZEFSAII (Michael W. Deem and Ramdas Pophale) SiO2 
 PCOD9500609
Probable space group: C M M A
;
_chemical_formula_sum "Si O2"
_cell_formula_units_Z 52
_cell_length_a 5.450578
_cell_length_b 17.337919
_cell_length_c 25.496989
_cell_angle_alpha 90.000000
_cell_angle_beta 90.000000
_cell_angle_gamma 90.000000
_cell_volume 2409.508292
_symmetry_space_group_name_H-M "C M M A"
_symmetry_group_IT_number 67
_symmetry_cell_setting 'orthorhombic'
loop_
_space_group_symop_operation_xyz
x,y,z
-x,1/2-y,z
x,-y,-z
-x,1/2+y,-z
-x,-y,-z
x,1/2+y,-z
-x,y,z
x,1/2-y,z
1/2+x,1/2+y,z
1/2-x,-y,z
1/2+x,1/2-y,-z
1/2-x,y,-z
1/2-x,1/2-y,-z
1/2+x,y,-z
1/2-x,1/2+y,z
1/2+x,-y,z
loop_
_atom_site_type_symbol
_atom_site_label
_atom_site_fract_x
_atom_site_fract_y
_atom_site_fract_z
Si Si1 0.000000 0.091319 0.313391
Si Si2 0.500000 0.412963 0.356925
Si Si3 0.500000 0.077260 0.145922
Si Si4 0.500000 0.750000 0.966184
Si Si5 0.500000 0.909344 0.189424
Si Si6 0.500000 0.083713 0.034402
Si Si7 0.000000 0.340395 0.533274
O O1 0.251045 0.124482 0.335894
O O2 0.000000 0.102654 0.251197
O O3 0.000000 0.000982 0.333576
O O4 0.500000 0.401231 0.419094
O O5 0.753810 0.118886 0.160249
O O6 0.500000 0.037304 0.087927
O O7 0.500000 0.002185 0.183182
O O8 0.500000 0.831583 0.939067
O O9 0.750000 0.750000 0.000000
O O10 0.250000 0.077357 0.000000
O O11 0.750000 0.350668 0.500000
O O12 0.000000 0.250000 0.551562
#
# Coordination Sequence:
#
# PCOD9500609 Si02
#       7
#     8   8   8   4   8   8   8
#     4  10  19  33  53  79 102 127 172 216 257 299
#     4  10  18  32  53  79 100 132 173 208 252 294
#     4  10  18  30  48  69  94 124 165 184 242 299
#     4   8  16  30  48  64  84 112 152 192 230 272
#     4  10  19  33  48  72  94 130 161 193 240 301
#     4  10  19  32  47  69  93 121 159 201 238 286
#     4  10  21  37  54  75 107 144 178 206 243 299
#
# _framework density 21.581168999999999
#
# number of rings (size 3 to 8) (size 9 to 14) (size 15 to 20)
#    0.000    2.154    0.000    6.462    0.000    0.000 
#    0.000   18.462    0.000    0.000   22.000    0.000 
#    0.000    0.000    0.000    0.000    0.000    0.000 
#
# Total GULP energy -144777.076375 kJ/mol
# GULP energy per Si atom -5568.349091 kJ/mol
# Density = 2.153205 g / cm^3
# Si number density = 21.581169 Si / 1000 Ang^3
#
#
#
# Elastic Constant Matrix: (Units=GPa)
#
#
# Indices 1 2 3 4 5 6 
#
# 1 267.0139 -4.2562 85.9654 0.0000 0.0000 0.0000
# 2 -4.2562 27.2306 -0.8297 0.0000 0.0000 0.0000
# 3 85.9654 -0.8297 149.3664 0.0000 0.0000 0.0000
# 4 0.0000 0.0000 0.0000 -18.2088 0.0000 0.0000
# 5 0.0000 0.0000 0.0000 0.0000 42.0964 0.0000
# 6 0.0000 0.0000 0.0000 0.0000 0.0000 10.1981
#
#
#
# Elastic Compliance Matrix: (Units=1/GPa)
#
#
# Indices 1 2 3 4 5 6 
#
# 1 0.004608 0.000640 -0.002649 0.000000 0.000000 0.000000
# 2 0.000640 0.036818 -0.000164 0.000000 0.000000 0.000000
# 3 -0.002649 -0.000164 0.008218 0.000000 0.000000 0.000000
# 4 0.000000 0.000000 0.000000 -0.054919 0.000000 0.000000
# 5 0.000000 0.000000 0.000000 0.000000 0.023755 0.000000
# 6 0.000000 0.000000 0.000000 0.000000 0.000000 0.098058
#
#
# Mechanical properties :
#
#
# Convention : Reuss Voigt Hill
#
# Bulk Modulus (GPa) = 22.07520 67.26331 44.66925
# Shear Modulus (GPa) = 36.76909 30.99923 33.88416
#
# Velocity S-wave (km/s) = 4.13214 3.79410 3.96672
# Velocity P-wave (km/s) = 5.74606 7.10133 6.45934
#
# Compressibility (1/GPa) = 0.04529970
#
# Stress axis : x y z
#
# Youngs Moduli (GPa) = 217.01346 27.16034 121.67901
#
# Poissons Ratio (x) = -0.01737 0.32227
# Poissons Ratio (y) = -0.13879 0.01990
# Poissons Ratio (z) = 0.57476 0.00444
#
# Static dielectric constant tensor:
#      x y z
#    x 2.068940 0.000000 0.000000 
#    y 0.000000 1.877670 0.000000 
#    z 0.000000 0.000000 1.743210 
# 
# From -- ./inp_files/36385.got.cif
#   From: 2010.05.17/outbox.cif.g08.bks.cpg/sg67_19_cif.got.tgz:36385.got - 2010.06.03 18:28:57.
