data_PCOD9500037
_publ_section_title
;
Structure prediction by ZEFSAII (Michael W. Deem and Ramdas Pophale) SiO2 
 PCOD9500037
Probable space group: C C C M
;
_chemical_formula_sum "Si O2"
_cell_formula_units_Z 64
_cell_length_a 20.551635
_cell_length_b 7.547733
_cell_length_c 18.794159
_cell_angle_alpha 90.000000
_cell_angle_beta 90.000000
_cell_angle_gamma 90.000000
_cell_volume 2915.317124
_symmetry_space_group_name_H-M "C C C M"
_symmetry_group_IT_number 66
_symmetry_cell_setting 'orthorhombic'
loop_
_space_group_symop_operation_xyz
x,y,z
-x,-y,z
x,-y,1/2-z
-x,y,1/2-z
-x,-y,-z
x,y,-z
-x,y,1/2+z
x,-y,1/2+z
1/2+x,1/2+y,z
1/2-x,1/2-y,z
1/2+x,1/2-y,1/2-z
1/2-x,1/2+y,1/2-z
1/2-x,1/2-y,-z
1/2+x,1/2+y,-z
1/2-x,1/2+y,1/2+z
1/2+x,1/2-y,1/2+z
loop_
_atom_site_type_symbol
_atom_site_label
_atom_site_fract_x
_atom_site_fract_y
_atom_site_fract_z
Si Si1 0.153725 0.082781 0.170791
Si Si2 0.790790 0.515724 0.833651
Si Si3 0.404713 0.125971 0.418140
Si Si4 0.540344 0.277081 0.417968
O O1 0.179331 0.286408 0.164563
O O2 0.217918 0.992053 0.135947
O O3 0.085922 0.098831 0.129316
O O4 0.144101 0.000000 0.250000
O O5 0.781730 0.500000 0.750000
O O6 0.842902 0.382368 0.866928
O O7 0.388236 0.170680 0.500000
O O8 0.465842 0.244802 0.394795
O O9 0.430560 0.922774 0.418435
O O10 0.541513 0.336310 0.500000
#
# Coordination Sequence:
#
# PCOD9500037 Si02
#       4
#    16  16  16  16
#     4   9  17  29  46  71 103 136 172 217 264 312
#     4   9  17  29  47  71 100 136 176 217 261 312
#     4   8  14  26  45  70  99 130 171 222 265 305
#     4   8  14  26  45  70 101 135 171 215 265 314
#
# _framework density 21.953015000000001
#
# number of rings (size 3 to 8) (size 9 to 14) (size 15 to 20)
#    0.000    3.500    0.000    1.500    0.000    1.000 
#    0.000   15.000    0.000    4.500    0.000   10.500 
#    0.000    2.000    0.000    4.500    0.000    5.250 
#
# Total GULP energy -178149.494459 kJ/mol
# GULP energy per Si atom -5567.171702 kJ/mol
# Density = 2.190305 g / cm^3
# Si number density = 21.953015 Si / 1000 Ang^3
#
#
#
# Elastic Constant Matrix: (Units=GPa)
#
#
# Indices 1 2 3 4 5 6 
#
# 1 190.1863 76.9826 96.4697 0.0000 0.0000 0.0000
# 2 76.9826 71.1451 34.9792 0.0000 0.0000 0.0000
# 3 96.4697 34.9792 65.8374 0.0000 0.0000 0.0000
# 4 0.0000 0.0000 0.0000 15.9869 0.0000 0.0000
# 5 0.0000 0.0000 0.0000 0.0000 70.6011 0.0000
# 6 0.0000 0.0000 0.0000 0.0000 0.0000 16.1005
#
#
#
# Elastic Compliance Matrix: (Units=1/GPa)
#
#
# Indices 1 2 3 4 5 6 
#
# 1 0.027596 -0.013508 -0.033258 0.000000 0.000000 0.000000
# 2 -0.013508 0.025638 0.006172 0.000000 0.000000 0.000000
# 3 -0.033258 0.006172 0.060642 0.000000 0.000000 0.000000
# 4 0.000000 0.000000 0.000000 0.062551 0.000000 0.000000
# 5 0.000000 0.000000 0.000000 0.000000 0.014164 0.000000
# 6 0.000000 0.000000 0.000000 0.000000 0.000000 0.062110
#
#
# Mechanical properties :
#
#
# Convention : Reuss Voigt Hill
#
# Bulk Modulus (GPa) = 30.59365 82.67020 56.63192
# Shear Modulus (GPa) = 14.50177 28.45353 21.47765
#
# Velocity S-wave (km/s) = 2.57297 3.60406 3.13125
# Velocity P-wave (km/s) = 4.77421 7.42014 6.23906
#
# Compressibility (1/GPa) = 0.03268652
#
# Stress axis : x y z
#
# Youngs Moduli (GPa) = 36.23771 39.00486 16.49015
#
# Poissons Ratio (x) = 0.52688 0.54843
# Poissons Ratio (y) = 0.48950 -0.10177
# Poissons Ratio (z) = 1.20520 -0.24073
#
# Static dielectric constant tensor:
#      x y z
#    x 1.842870 0.000000 0.000000 
#    y 0.000000 1.899040 0.000000 
#    z 0.000000 0.000000 1.809040 
# 
# From -- ./inp_files/31897.got.cif
#   From: 2010.05.17/outbox.cif.g08.bks.cpg/sg66_16_cif.got.tgz:31897.got - 2010.06.03 17:51:23.
