data_PCOD9500787
_publ_section_title
;
Structure prediction by ZEFSAII (Michael W. Deem and Ramdas Pophale) SiO2 
 PCOD9500787
Probable space group: C M M A
;
_chemical_formula_sum "Si O2"
_cell_formula_units_Z 112
_cell_length_a 26.083284
_cell_length_b 17.921402
_cell_length_c 13.371387
_cell_angle_alpha 90.000000
_cell_angle_beta 90.000000
_cell_angle_gamma 90.000000
_cell_volume 6250.441723
_symmetry_space_group_name_H-M "C M M A"
_symmetry_group_IT_number 67
_symmetry_cell_setting 'orthorhombic'
loop_
_space_group_symop_operation_xyz
x,y,z
-x,1/2-y,z
x,-y,-z
-x,1/2+y,-z
-x,-y,-z
x,1/2+y,-z
-x,y,z
x,1/2-y,z
1/2+x,1/2+y,z
1/2-x,-y,z
1/2+x,1/2-y,-z
1/2-x,y,-z
1/2-x,1/2-y,-z
1/2+x,y,-z
1/2-x,1/2+y,z
1/2+x,-y,z
loop_
_atom_site_type_symbol
_atom_site_label
_atom_site_fract_x
_atom_site_fract_y
_atom_site_fract_z
Si Si1 0.054600 0.062304 0.912518
Si Si2 0.166384 0.583861 0.046463
Si Si3 0.293290 0.436653 0.265619
Si Si4 0.150102 0.834619 0.858744
Si Si5 0.865011 0.039763 0.396360
Si Si6 0.787632 0.664030 0.650890
Si Si7 0.558935 0.070759 0.768122
O O1 0.107190 0.104455 0.929296
O O2 0.000000 0.103214 0.915242
O O3 0.058189 0.012975 0.812323
O O4 0.052795 0.000000 0.000000
O O5 0.194172 0.586939 0.152462
O O6 0.168956 0.500000 0.000000
O O7 0.181145 0.635746 0.954144
O O8 0.250000 0.500000 0.258598
O O9 0.339665 0.479091 0.320727
O O10 0.268518 0.370777 0.331603
O O11 0.134132 0.750000 0.874353
O O12 0.185407 0.838359 0.760460
O O13 0.099661 0.884099 0.836242
O O14 0.823080 0.106074 0.410369
O O15 0.915304 0.070901 0.340861
O O16 0.875983 0.000000 0.500000
O O17 0.787346 0.750000 0.616635
O O18 0.500000 0.097833 0.771492
#
# Coordination Sequence:
#
# PCOD9500787 Si02
#       7
#    16  16  16  16  16  16  16
#     4   9  15  25  46  71  95 126 166 202 242 296
#     4  11  17  29  47  71 101 138 179 212 253 301
#     4  10  20  32  49  73 101 136 178 220 260 302
#     4  10  20  32  47  74 109 141 171 208 248 296
#     4  10  20  36  55  79 103 127 165 224 270 303
#     4   9  20  37  53  72 103 138 171 206 255 310
#     4  10  18  32  52  75 103 133 164 206 257 307
#
# _framework density 17.918733
#
# number of rings (size 3 to 8) (size 9 to 14) (size 15 to 20)
#    0.000    2.143    4.286    1.714    0.000    5.714 
#    0.000    2.857    0.000    0.000    0.000    0.000 
#    0.000    1.714    0.000    0.000    0.000    0.000 
#
# Total GULP energy -312032.920625 kJ/mol
# GULP energy per Si atom -5572.016440 kJ/mol
# Density = 1.787795 g / cm^3
# Si number density = 17.918733 Si / 1000 Ang^3
#
#
#
# Elastic Constant Matrix: (Units=GPa)
#
#
# Indices 1 2 3 4 5 6 
#
# 1 45.5753 -3.3768 1.0660 0.0000 0.0000 0.0000
# 2 -3.3768 54.3236 9.8104 0.0000 0.0000 0.0000
# 3 1.0660 9.8104 64.8983 0.0000 0.0000 0.0000
# 4 0.0000 0.0000 0.0000 15.6357 0.0000 0.0000
# 5 0.0000 0.0000 0.0000 0.0000 -7.0003 0.0000
# 6 0.0000 0.0000 0.0000 0.0000 0.0000 12.5042
#
#
#
# Elastic Compliance Matrix: (Units=1/GPa)
#
#
# Indices 1 2 3 4 5 6 
#
# 1 0.022065 0.001477 -0.000586 0.000000 0.000000 0.000000
# 2 0.001477 0.019024 -0.002900 0.000000 0.000000 0.000000
# 3 -0.000586 -0.002900 0.015857 0.000000 0.000000 0.000000
# 4 0.000000 0.000000 0.000000 0.063956 0.000000 0.000000
# 5 0.000000 0.000000 0.000000 0.000000 -0.142851 0.000000
# 6 0.000000 0.000000 0.000000 0.000000 0.000000 0.079973
#
#
# Mechanical properties :
#
#
# Convention : Reuss Voigt Hill
#
# Bulk Modulus (GPa) = 18.89340 19.97739 19.43539
# Shear Modulus (GPa) = 62.74852 14.71442 38.73147
#
# Velocity S-wave (km/s) = 5.92405 2.86872 4.65425
# Velocity P-wave (km/s) = 7.57360 4.70594 6.30497
#
# Compressibility (1/GPa) = 0.05292853
#
# Stress axis : x y z
#
# Youngs Moduli (GPa) = 45.32091 52.56585 63.06475
#
# Poissons Ratio (x) = -0.07766 0.03694
# Poissons Ratio (y) = -0.06696 0.18289
# Poissons Ratio (z) = 0.02655 0.15244
#
# Static dielectric constant tensor:
#      x y z
#    x 1.659040 0.000000 0.000000 
#    y 0.000000 1.629140 0.000000 
#    z 0.000000 0.000000 1.632870 
# 
# From -- ./inp_files/23103.got.cif
#   From: 2010.05.17/outbox.cif.g08.bks.cpg/sg67_12_cif.got.tgz:23103.got - 2010.06.03 18:28:57.
