data_PCOD9500719
_publ_section_title
;
Structure prediction by ZEFSAII (Michael W. Deem and Ramdas Pophale) SiO2 
 PCOD9500719
Probable space group: C M M A
;
_chemical_formula_sum "Si O2"
_cell_formula_units_Z 80
_cell_length_a 16.087342
_cell_length_b 15.318728
_cell_length_c 14.590004
_cell_angle_alpha 90.000000
_cell_angle_beta 90.000000
_cell_angle_gamma 90.000000
_cell_volume 3595.525808
_symmetry_space_group_name_H-M "C M M A"
_symmetry_group_IT_number 67
_symmetry_cell_setting 'orthorhombic'
loop_
_space_group_symop_operation_xyz
x,y,z
-x,1/2-y,z
x,-y,-z
-x,1/2+y,-z
-x,-y,-z
x,1/2+y,-z
-x,y,z
x,1/2-y,z
1/2+x,1/2+y,z
1/2-x,-y,z
1/2+x,1/2-y,-z
1/2-x,y,-z
1/2-x,1/2-y,-z
1/2+x,y,-z
1/2-x,1/2+y,z
1/2+x,-y,z
loop_
_atom_site_type_symbol
_atom_site_label
_atom_site_fract_x
_atom_site_fract_y
_atom_site_fract_z
Si Si1 0.853554 0.150791 0.761411
Si Si2 0.344416 0.650864 0.237983
Si Si3 0.328488 0.152050 0.439854
Si Si4 0.593089 0.568509 0.420727
Si Si5 0.852167 0.002478 0.105698
O O1 0.888305 0.250000 0.767954
O O2 0.754378 0.157573 0.776295
O O3 0.858881 0.113905 0.657040
O O4 0.883643 0.080110 0.834923
O O5 0.377419 0.750000 0.245526
O O6 0.357679 0.594829 0.330425
O O7 0.378596 0.591837 0.155695
O O8 0.302253 0.250000 0.412498
O O9 0.250000 0.118571 0.500000
O O10 0.401576 0.152555 0.513379
O O11 0.621771 0.500000 0.500000
O O12 0.500000 0.544963 0.394492
O O13 0.750000 0.000000 0.108311
O O14 0.877115 0.000000 0.000000
#
# Coordination Sequence:
#
# PCOD9500719 Si02
#       5
#    16  16  16  16  16
#     4   9  17  30  50  76 105 136 176 219 265 323
#     4  10  19  33  52  74 102 140 181 221 267 320
#     4  10  18  31  51  75 102 135 174 214 258 315
#     4  11  23  35  49  74 108 144 181 220 265 317
#     4   9  18  31  48  74 105 135 171 220 277 327
#
# _framework density 22.249873999999998
#
# number of rings (size 3 to 8) (size 9 to 14) (size 15 to 20)
#    0.000    2.200    2.000    1.800    0.000    2.800 
#    0.000    4.000    0.000    0.600    0.000    0.000 
#    0.000    3.200    0.000    0.000    0.000    0.000 
#
# Total GULP energy -222754.903801 kJ/mol
# GULP energy per Si atom -5568.872595 kJ/mol
# Density = 2.219923 g / cm^3
# Si number density = 22.249874 Si / 1000 Ang^3
#
#
#
# Elastic Constant Matrix: (Units=GPa)
#
#
# Indices 1 2 3 4 5 6 
#
# 1 28.9164 8.3197 -7.5889 0.0000 0.0000 0.0000
# 2 8.3197 127.2992 65.1815 0.0000 0.0000 0.0000
# 3 -7.5889 65.1815 183.5352 0.0000 0.0000 0.0000
# 4 0.0000 0.0000 0.0000 17.8842 0.0000 0.0000
# 5 0.0000 0.0000 0.0000 0.0000 0.5365 0.0000
# 6 0.0000 0.0000 0.0000 0.0000 0.0000 1.8928
#
#
#
# Elastic Compliance Matrix: (Units=1/GPa)
#
#
# Indices 1 2 3 4 5 6 
#
# 1 0.036446 -0.003855 0.002876 0.000000 0.000000 0.000000
# 2 -0.003855 0.010009 -0.003714 0.000000 0.000000 0.000000
# 3 0.002876 -0.003714 0.006886 0.000000 0.000000 0.000000
# 4 0.000000 0.000000 0.000000 0.055915 0.000000 0.000000
# 5 0.000000 0.000000 0.000000 0.000000 1.864037 0.000000
# 6 0.000000 0.000000 0.000000 0.000000 0.000000 0.528324
#
#
# Mechanical properties :
#
#
# Convention : Reuss Voigt Hill
#
# Bulk Modulus (GPa) = 22.74976 52.39727 37.57352
# Shear Modulus (GPa) = 1.97968 22.31858 12.14913
#
# Velocity S-wave (km/s) = 0.94429 3.17059 2.33927
# Velocity P-wave (km/s) = 3.38168 6.08310 4.92138
#
# Compressibility (1/GPa) = 0.04395651
#
# Stress axis : x y z
#
# Youngs Moduli (GPa) = 27.43768 99.90851 145.21175
#
# Poissons Ratio (x) = 0.38510 -0.41762
# Poissons Ratio (y) = 0.10576 0.53933
# Poissons Ratio (z) = -0.07891 0.37107
#
# Static dielectric constant tensor:
#      x y z
#    x 1.882650 0.000000 0.000000 
#    y 0.000000 2.236480 0.000000 
#    z 0.000000 0.000000 1.787290 
# 
# From -- ./inp_files/26951.got.cif
#   From: 2010.05.17/outbox.cif.g08.bks.cpg/sg67_14_cif.got.tgz:26951.got - 2010.06.03 18:28:57.
