data_PCOD9500704
_publ_section_title
;
Structure prediction by ZEFSAII (Michael W. Deem and Ramdas Pophale) SiO2 
 PCOD9500704
Probable space group: C M M A
;
_chemical_formula_sum "Si O2"
_cell_formula_units_Z 112
_cell_length_a 19.757059
_cell_length_b 16.587765
_cell_length_c 19.246983
_cell_angle_alpha 90.000000
_cell_angle_beta 90.000000
_cell_angle_gamma 90.000000
_cell_volume 6307.726199
_symmetry_space_group_name_H-M "C M M A"
_symmetry_group_IT_number 67
_symmetry_cell_setting 'orthorhombic'
loop_
_space_group_symop_operation_xyz
x,y,z
-x,1/2-y,z
x,-y,-z
-x,1/2+y,-z
-x,-y,-z
x,1/2+y,-z
-x,y,z
x,1/2-y,z
1/2+x,1/2+y,z
1/2-x,-y,z
1/2+x,1/2-y,-z
1/2-x,y,-z
1/2-x,1/2-y,-z
1/2+x,y,-z
1/2-x,1/2+y,z
1/2+x,-y,z
loop_
_atom_site_type_symbol
_atom_site_label
_atom_site_fract_x
_atom_site_fract_y
_atom_site_fract_z
Si Si1 0.667476 0.499845 0.580752
Si Si2 0.823243 0.595708 0.193995
Si Si3 0.076599 0.157538 0.916280
Si Si4 0.327674 0.661084 0.660326
Si Si5 0.579389 0.424510 0.948288
Si Si6 0.332105 0.410006 0.810059
Si Si7 0.162831 0.340518 0.335499
O O1 0.648296 0.500000 0.500000
O O2 0.750000 0.500000 0.584105
O O3 0.647153 0.583860 0.617399
O O4 0.642419 0.418191 0.618671
O O5 0.870594 0.608322 0.128455
O O6 0.846283 0.648569 0.259115
O O7 0.745568 0.614607 0.174954
O O8 0.827421 0.502428 0.216345
O O9 0.081192 0.250000 0.895229
O O10 0.000000 0.128028 0.903547
O O11 0.088279 0.149054 0.998298
O O12 0.348474 0.750000 0.635229
O O13 0.245265 0.659057 0.660731
O O14 0.500000 0.431946 0.929713
O O15 0.623728 0.412599 0.879754
O O16 0.596088 0.500000 0.000000
O O17 0.356496 0.357304 0.744885
O O18 0.140949 0.250000 0.356715
#
# Coordination Sequence:
#
# PCOD9500704 Si02
#       7
#    16  16  16  16  16  16  16
#     4   9  16  26  41  64  96 130 164 200 240 293
#     4  10  18  31  49  72  98 129 168 210 253 302
#     4  10  21  36  52  72 100 131 164 208 261 313
#     4   9  16  27  44  65  93 127 163 203 250 298
#     4  10  20  35  52  70  96 131 169 208 257 310
#     4  10  19  31  50  72  96 130 171 213 251 298
#     4   9  17  29  44  64  94 131 166 202 248 298
#
# _framework density 17.756001999999999
#
# number of rings (size 3 to 8) (size 9 to 14) (size 15 to 20)
#    0.000    2.429    2.857    0.429    0.000    2.286 
#    0.000    3.571    0.000    0.000    0.000    0.000 
#    0.000    2.286    0.000    2.714    0.000    3.143 
#
# Total GULP energy -311821.177795 kJ/mol
# GULP energy per Si atom -5568.235318 kJ/mol
# Density = 1.771559 g / cm^3
# Si number density = 17.756002 Si / 1000 Ang^3
#
#
#
# Elastic Constant Matrix: (Units=GPa)
#
#
# Indices 1 2 3 4 5 6 
#
# 1 25.9064 21.5965 35.7902 0.0000 0.0000 0.0000
# 2 21.5965 119.3556 60.9921 0.0000 0.0000 0.0000
# 3 35.7902 60.9921 114.1089 0.0000 0.0000 0.0000
# 4 0.0000 0.0000 0.0000 16.0296 0.0000 0.0000
# 5 0.0000 0.0000 0.0000 0.0000 -8.3367 0.0000
# 6 0.0000 0.0000 0.0000 0.0000 0.0000 11.1637
#
#
#
# Elastic Compliance Matrix: (Units=1/GPa)
#
#
# Indices 1 2 3 4 5 6 
#
# 1 0.068443 -0.001946 -0.020427 0.000000 0.000000 0.000000
# 2 -0.001946 0.011582 -0.005580 0.000000 0.000000 0.000000
# 3 -0.020427 -0.005580 0.018153 0.000000 0.000000 0.000000
# 4 0.000000 0.000000 0.000000 0.062385 0.000000 0.000000
# 5 0.000000 0.000000 0.000000 0.000000 -0.119952 0.000000
# 6 0.000000 0.000000 0.000000 0.000000 0.000000 0.089576
#
#
# Mechanical properties :
#
#
# Convention : Reuss Voigt Hill
#
# Bulk Modulus (GPa) = 23.65641 55.12537 39.39089
# Shear Modulus (GPa) = 24.97696 13.17079 19.07387
#
# Velocity S-wave (km/s) = 3.75464 2.72649 3.28109
# Velocity P-wave (km/s) = 5.66995 6.40509 6.04870
#
# Compressibility (1/GPa) = 0.04227183
#
# Stress axis : x y z
#
# Youngs Moduli (GPa) = 14.61070 86.34050 55.08654
#
# Poissons Ratio (x) = 0.16800 1.12526
# Poissons Ratio (y) = 0.02843 0.30741
# Poissons Ratio (z) = 0.29845 0.48181
#
# Static dielectric constant tensor:
#      x y z
#    x 1.574880 0.000000 0.000000 
#    y 0.000000 1.676470 0.000000 
#    z 0.000000 0.000000 1.597730 
# 
# From -- ./inp_files/35141.got.cif
#   From: 2010.05.17/outbox.cif.g08.bks.cpg/sg67_18_cif.got.tgz:35141.got - 2010.06.03 18:28:57.
