data_PCOD9500580
_publ_section_title
;
Structure prediction by ZEFSAII (Michael W. Deem and Ramdas Pophale) SiO2 
 PCOD9500580
Probable space group: C M M A
;
_chemical_formula_sum "Si O2"
_cell_formula_units_Z 112
_cell_length_a 14.623142
_cell_length_b 23.090007
_cell_length_c 15.257890
_cell_angle_alpha 90.000000
_cell_angle_beta 90.000000
_cell_angle_gamma 90.000000
_cell_volume 5151.802926
_symmetry_space_group_name_H-M "C M M A"
_symmetry_group_IT_number 67
_symmetry_cell_setting 'orthorhombic'
loop_
_space_group_symop_operation_xyz
x,y,z
-x,1/2-y,z
x,-y,-z
-x,1/2+y,-z
-x,-y,-z
x,1/2+y,-z
-x,y,z
x,1/2-y,z
1/2+x,1/2+y,z
1/2-x,-y,z
1/2+x,1/2-y,-z
1/2-x,y,-z
1/2-x,1/2-y,-z
1/2+x,y,-z
1/2-x,1/2+y,z
1/2+x,-y,z
loop_
_atom_site_type_symbol
_atom_site_label
_atom_site_fract_x
_atom_site_fract_y
_atom_site_fract_z
Si Si1 0.355004 0.939084 0.465405
Si Si2 0.147127 0.479885 0.269570
Si Si3 0.765509 0.315492 0.269706
Si Si4 0.889167 0.062643 0.965142
Si Si5 0.648770 0.813546 0.458640
Si Si6 0.897384 0.397969 0.770373
Si Si7 0.605474 0.122158 0.860722
O O1 0.250000 0.938078 0.500000
O O2 0.354948 0.946068 0.360651
O O3 0.393712 0.875194 0.487334
O O4 0.394632 0.000000 0.500000
O O5 0.250000 0.500000 0.250342
O O6 0.096834 0.540715 0.278441
O O7 0.110755 0.438607 0.193220
O O8 0.732400 0.250000 0.260916
O O9 0.830033 0.317827 0.355079
O O10 0.678471 0.357821 0.273929
O O11 0.827259 0.334887 0.188406
O O12 0.863387 0.083812 0.868394
O O13 0.000000 0.058534 0.961996
O O14 0.865779 0.108324 0.040387
O O15 0.856418 0.000000 0.000000
O O16 0.606623 0.750000 0.477298
O O17 0.750000 0.811845 0.500000
O O18 0.000000 0.372786 0.775743
O O19 0.500000 0.141544 0.859070
#
# Coordination Sequence:
#
# PCOD9500580 Si02
#       7
#    16  16  16  16  16  16  16
#     4  10  18  29  53  87 119 161 196 245 298 364
#     4  12  19  34  58  92 121 155 198 242 302 365
#     4  11  24  42  63  87 117 160 211 252 297 359
#     4   9  18  35  57  86 123 160 194 241 310 375
#     4   9  18  34  57  85 113 155 206 242 292 362
#     4  11  23  39  61  90 123 157 201 254 308 366
#     4  11  22  38  61  90 123 155 199 253 306 362
#
# _framework density 21.739962999999999
#
# number of rings (size 3 to 8) (size 9 to 14) (size 15 to 20)
#    0.000    1.571    5.714    0.429    2.000    1.143 
#    0.000    2.857    0.000    6.857    0.000    4.000 
#    0.000    0.000    0.000    0.000    0.000    0.000 
#
# Total GULP energy -312684.876313 kJ/mol
# GULP energy per Si atom -5583.658506 kJ/mol
# Density = 2.169048 g / cm^3
# Si number density = 21.739963 Si / 1000 Ang^3
#
#
#
# Elastic Constant Matrix: (Units=GPa)
#
#
# Indices 1 2 3 4 5 6 
#
# 1 70.7030 12.5707 -6.4685 0.0000 0.0000 0.0000
# 2 12.5707 165.7509 11.0822 0.0000 0.0000 0.0000
# 3 -6.4685 11.0822 38.3093 0.0000 0.0000 0.0000
# 4 0.0000 0.0000 0.0000 23.0387 0.0000 0.0000
# 5 0.0000 0.0000 0.0000 0.0000 94.8980 0.0000
# 6 0.0000 0.0000 0.0000 0.0000 0.0000 -3.3961
#
#
#
# Elastic Compliance Matrix: (Units=1/GPa)
#
#
# Indices 1 2 3 4 5 6 
#
# 1 0.014635 -0.001300 0.002847 0.000000 0.000000 0.000000
# 2 -0.001300 0.006268 -0.002033 0.000000 0.000000 0.000000
# 3 0.002847 -0.002033 0.027172 0.000000 0.000000 0.000000
# 4 0.000000 0.000000 0.000000 0.043405 0.000000 0.000000
# 5 0.000000 0.000000 0.000000 0.000000 0.010538 0.000000
# 6 0.000000 0.000000 0.000000 0.000000 0.000000 -0.294451
#
#
# Mechanical properties :
#
#
# Convention : Reuss Voigt Hill
#
# Bulk Modulus (GPa) = 21.22972 34.34801 27.78886
# Shear Modulus (GPa) = -28.44781 40.08002 5.81611
#
# Velocity S-wave (km/s) = -3.62131 4.29839 1.63741
# Velocity P-wave (km/s) = 2.77465 6.36149 4.04783
#
# Compressibility (1/GPa) = 0.04710377
#
# Stress axis : x y z
#
# Youngs Moduli (GPa) = 68.32765 159.54880 36.80243
#
# Poissons Ratio (x) = 0.20747 -0.10479
# Poissons Ratio (y) = 0.08885 0.07481
# Poissons Ratio (z) = -0.19455 0.32431
#
# Static dielectric constant tensor:
#      x y z
#    x 1.609880 0.000000 0.000000 
#    y 0.000000 1.824010 0.000000 
#    z 0.000000 0.000000 1.670020 
# 
# From -- ./inp_files/27558.got.cif
#   From: 2010.05.17/outbox.cif.g08.bks.cpg/sg67_14_cif.got.tgz:27558.got - 2010.06.03 18:28:57.
