data_PCOD9500552
_publ_section_title
;
Structure prediction by ZEFSAII (Michael W. Deem and Ramdas Pophale) SiO2 
 PCOD9500552
Probable space group: C M M A
;
_chemical_formula_sum "Si O2"
_cell_formula_units_Z 96
_cell_length_a 8.822569
_cell_length_b 19.149022
_cell_length_c 32.655551
_cell_angle_alpha 90.000000
_cell_angle_beta 90.000000
_cell_angle_gamma 90.000000
_cell_volume 5516.945297
_symmetry_space_group_name_H-M "C M M A"
_symmetry_group_IT_number 67
_symmetry_cell_setting 'orthorhombic'
loop_
_space_group_symop_operation_xyz
x,y,z
-x,1/2-y,z
x,-y,-z
-x,1/2+y,-z
-x,-y,-z
x,1/2+y,-z
-x,y,z
x,1/2-y,z
1/2+x,1/2+y,z
1/2-x,-y,z
1/2+x,1/2-y,-z
1/2-x,y,-z
1/2-x,1/2-y,-z
1/2+x,y,-z
1/2-x,1/2+y,z
1/2+x,-y,z
loop_
_atom_site_type_symbol
_atom_site_label
_atom_site_fract_x
_atom_site_fract_y
_atom_site_fract_z
Si Si1 0.681478 0.578157 0.207541
Si Si2 0.685022 0.669368 0.631416
Si Si3 0.175621 0.664959 0.457949
Si Si4 0.182397 0.422116 0.709314
Si Si5 0.319317 0.667471 0.956380
Si Si6 0.818534 0.577836 0.883347
O O1 0.500000 0.574900 0.212387
O O2 0.750000 0.500000 0.206266
O O3 0.755264 0.610218 0.248177
O O4 0.715794 0.607504 0.162343
O O5 0.500000 0.669346 0.629726
O O6 0.731732 0.750000 0.637026
O O7 0.738828 0.643658 0.586575
O O8 0.729133 0.622404 0.669751
O O9 0.183596 0.750000 0.457610
O O10 0.250000 0.640345 0.500000
O O11 0.000000 0.645415 0.459467
O O12 0.250000 0.500000 0.705755
O O13 0.000000 0.425796 0.711213
O O14 0.500000 0.658260 0.957230
O O15 0.286196 0.750000 0.951451
O O16 0.248684 0.624810 0.919130
O O17 0.250000 0.645193 0.000000
O O18 0.750000 0.500000 0.886113
O O19 0.000000 0.573266 0.886941
#
# Coordination Sequence:
#
# PCOD9500552 Si02
#       6
#    16  16  16  16  16  16
#     4   9  17  30  48  70  96 125 157 194 235 278
#     4   8  15  28  45  65  89 118 151 187 227 271
#     4   8  13  23  40  61  84 109 141 181 224 270
#     4  10  18  29  48  69  91 121 156 191 227 275
#     4  10  21  37  56  77 103 135 169 203 241 289
#     4  10  20  34  54  78 103 130 163 205 248 289
#
# _framework density 17.400935
#
# number of rings (size 3 to 8) (size 9 to 14) (size 15 to 20)
#    0.000    2.833    0.000    4.000    0.000    3.333 
#    0.000    4.167    0.000    7.500    0.000    3.500 
#    0.000    0.000    0.000    0.000    0.000    0.000 
#
# Total GULP energy -267312.263237 kJ/mol
# GULP energy per Si atom -5569.005484 kJ/mol
# Density = 1.736133 g / cm^3
# Si number density = 17.400935 Si / 1000 Ang^3
#
#
#
# Elastic Constant Matrix: (Units=GPa)
#
#
# Indices 1 2 3 4 5 6 
#
# 1 51.9676 23.8808 65.5696 0.0000 0.0000 0.0000
# 2 23.8808 35.3031 65.2059 0.0000 0.0000 0.0000
# 3 65.5696 65.2059 231.0934 0.0000 0.0000 0.0000
# 4 0.0000 0.0000 0.0000 29.5750 0.0000 0.0000
# 5 0.0000 0.0000 0.0000 0.0000 31.1189 0.0000
# 6 0.0000 0.0000 0.0000 0.0000 0.0000 15.7885
#
#
#
# Elastic Compliance Matrix: (Units=1/GPa)
#
#
# Indices 1 2 3 4 5 6 
#
# 1 0.031594 -0.010054 -0.006128 0.000000 0.000000 0.000000
# 2 -0.010054 0.062356 -0.014742 0.000000 0.000000 0.000000
# 3 -0.006128 -0.014742 0.010225 0.000000 0.000000 0.000000
# 4 0.000000 0.000000 0.000000 0.033812 0.000000 0.000000
# 5 0.000000 0.000000 0.000000 0.000000 0.032135 0.000000
# 6 0.000000 0.000000 0.000000 0.000000 0.000000 0.063337
#
#
# Mechanical properties :
#
#
# Convention : Reuss Voigt Hill
#
# Bulk Modulus (GPa) = 23.62474 69.74186 46.68330
# Shear Modulus (GPa) = 16.15948 26.21035 21.18491
#
# Velocity S-wave (km/s) = 3.05069 3.88527 3.49299
# Velocity P-wave (km/s) = 5.10050 7.76489 6.56919
#
# Compressibility (1/GPa) = 0.04232851
#
# Stress axis : x y z
#
# Youngs Moduli (GPa) = 31.65125 16.03705 97.79555
#
# Poissons Ratio (x) = 0.16124 0.59925
# Poissons Ratio (y) = 0.31823 1.44167
# Poissons Ratio (z) = 0.19394 0.23641
#
# Static dielectric constant tensor:
#      x y z
#    x 1.590000 0.000000 0.000000 
#    y 0.000000 1.569000 0.000000 
#    z 0.000000 0.000000 1.637540 
# 
# From -- ./inp_files/43653.got.cif
#   From: 2010.05.17/outbox.cif.g08.bks.cpg/sg67_22_cif.got.tgz:43653.got - 2010.06.03 18:28:57.
