data_PCOD9500261
_publ_section_title
;
Structure prediction by ZEFSAII (Michael W. Deem and Ramdas Pophale) SiO2 
 PCOD9500261
Probable space group: C M M A
;
_chemical_formula_sum "Si O2"
_cell_formula_units_Z 96
_cell_length_a 26.154095
_cell_length_b 8.076518
_cell_length_c 19.489252
_cell_angle_alpha 90.000000
_cell_angle_beta 90.000000
_cell_angle_gamma 90.000000
_cell_volume 4116.793028
_symmetry_space_group_name_H-M "C M M A"
_symmetry_group_IT_number 67
_symmetry_cell_setting 'orthorhombic'
loop_
_space_group_symop_operation_xyz
x,y,z
-x,1/2-y,z
x,-y,-z
-x,1/2+y,-z
-x,-y,-z
x,1/2+y,-z
-x,y,z
x,1/2-y,z
1/2+x,1/2+y,z
1/2-x,-y,z
1/2+x,1/2-y,-z
1/2-x,y,-z
1/2-x,1/2-y,-z
1/2+x,y,-z
1/2-x,1/2+y,z
1/2+x,-y,z
loop_
_atom_site_type_symbol
_atom_site_label
_atom_site_fract_x
_atom_site_fract_y
_atom_site_fract_z
Si Si1 0.414199 0.550939 0.776080
Si Si2 0.804456 0.947819 0.921139
Si Si3 0.305775 0.551573 0.278870
Si Si4 0.581636 0.440314 0.078387
Si Si5 0.944160 0.049513 0.623901
Si Si6 0.663719 0.056520 0.573940
O O1 0.419747 0.750000 0.778727
O O2 0.354150 0.510405 0.764280
O O3 0.437016 0.484870 0.848434
O O4 0.438864 0.496138 0.703920
O O5 0.811578 0.750000 0.913196
O O6 0.750000 0.000000 0.889392
O O7 0.857559 0.040498 0.907120
O O8 0.799086 0.000000 0.000000
O O9 0.309026 0.750000 0.278533
O O10 0.250000 0.500000 0.255342
O O11 0.312377 0.482476 0.356666
O O12 0.566175 0.250000 0.076690
O O13 0.571451 0.500000 0.000000
O O14 0.940333 0.250000 0.622389
O O15 0.000000 0.000575 0.598064
O O16 0.896680 0.978295 0.582344
O O17 0.672875 0.250000 0.577225
O O18 0.682235 0.000000 0.500000
#
# Coordination Sequence:
#
# PCOD9500261 Si02
#       6
#    16  16  16  16  16  16
#     4   9  19  35  54  76 103 135 174 220 266 316
#     4  10  17  26  39  56  81 113 150 192 239 291
#     4  10  21  36  55  78 106 143 184 222 260 305
#     4  10  19  31  47  68  94 126 164 208 261 315
#     4   9  18  35  59  83 106 136 174 216 264 316
#     4  10  21  36  55  82 114 146 179 216 258 304
#
# _framework density 23.319122
#
# number of rings (size 3 to 8) (size 9 to 14) (size 15 to 20)
#    0.000    2.333    0.000    4.500    0.000    5.000 
#    0.000    1.667    0.000    0.500    0.000    0.000 
#    0.000    0.000    0.000    0.000    0.000    0.667 
#
# Total GULP energy -267631.212722 kJ/mol
# GULP energy per Si atom -5575.650265 kJ/mol
# Density = 2.326605 g / cm^3
# Si number density = 23.319122 Si / 1000 Ang^3
#
#
#
# Elastic Constant Matrix: (Units=GPa)
#
#
# Indices 1 2 3 4 5 6 
#
# 1 64.9790 -15.9686 -2.6645 0.0000 0.0000 0.0000
# 2 -15.9686 30.3174 13.3847 0.0000 0.0000 0.0000
# 3 -2.6645 13.3847 176.2008 0.0000 0.0000 0.0000
# 4 0.0000 0.0000 0.0000 -24.1667 0.0000 0.0000
# 5 0.0000 0.0000 0.0000 0.0000 -1.5439 0.0000
# 6 0.0000 0.0000 0.0000 0.0000 0.0000 6.1933
#
#
#
# Elastic Compliance Matrix: (Units=1/GPa)
#
#
# Indices 1 2 3 4 5 6 
#
# 1 0.017713 0.009531 -0.000456 0.000000 0.000000 0.000000
# 2 0.009531 0.039257 -0.002838 0.000000 0.000000 0.000000
# 3 -0.000456 -0.002838 0.005884 0.000000 0.000000 0.000000
# 4 0.000000 0.000000 0.000000 -0.041379 0.000000 0.000000
# 5 0.000000 0.000000 0.000000 0.000000 -0.647709 0.000000
# 6 0.000000 0.000000 0.000000 0.000000 0.000000 0.161465
#
#
# Mechanical properties :
#
#
# Convention : Reuss Voigt Hill
#
# Bulk Modulus (GPa) = 13.27515 29.00004 21.13760
# Shear Modulus (GPa) = -11.05870 14.54625 1.74378
#
# Velocity S-wave (km/s) = -2.18005 2.50029 0.86569
# Velocity P-wave (km/s) = 0.79477 4.56053 3.17543
#
# Compressibility (1/GPa) = 0.07532869
#
# Stress axis : x y z
#
# Youngs Moduli (GPa) = 56.45513 25.47289 169.95166
#
# Poissons Ratio (x) = -0.24279 0.07752
# Poissons Ratio (y) = -0.53808 0.48232
# Poissons Ratio (z) = 0.02575 0.07229
#
# Static dielectric constant tensor:
#      x y z
#    x 2.648800 0.000000 0.000000 
#    y 0.000000 1.819290 0.000000 
#    z 0.000000 0.000000 1.939910 
# 
# From -- ./inp_files/39874.got.cif
#   From: 2010.05.17/outbox.cif.g08.bks.cpg/sg67_20_cif.got.tgz:39874.got - 2010.06.03 18:28:57.
