data_PCOD9500517
_publ_section_title
;
Structure prediction by ZEFSAII (Michael W. Deem and Ramdas Pophale) SiO2 
 PCOD9500517
Probable space group: C M M A
;
_chemical_formula_sum "Si O2"
_cell_formula_units_Z 72
_cell_length_a 11.289531
_cell_length_b 15.494061
_cell_length_c 16.833001
_cell_angle_alpha 90.000000
_cell_angle_beta 90.000000
_cell_angle_gamma 90.000000
_cell_volume 2944.440015
_symmetry_space_group_name_H-M "C M M A"
_symmetry_group_IT_number 67
_symmetry_cell_setting 'orthorhombic'
loop_
_space_group_symop_operation_xyz
x,y,z
-x,1/2-y,z
x,-y,-z
-x,1/2+y,-z
-x,-y,-z
x,1/2+y,-z
-x,y,z
x,1/2-y,z
1/2+x,1/2+y,z
1/2-x,-y,z
1/2+x,1/2-y,-z
1/2-x,y,-z
1/2-x,1/2-y,-z
1/2+x,y,-z
1/2-x,1/2+y,z
1/2+x,-y,z
loop_
_atom_site_type_symbol
_atom_site_label
_atom_site_fract_x
_atom_site_fract_y
_atom_site_fract_z
Si Si1 0.127500 0.898846 0.970624
Si Si2 0.500000 0.391008 0.358617
Si Si3 0.500000 0.067679 0.573849
Si Si4 0.241645 0.400209 0.191123
Si Si5 0.759113 0.894628 0.630173
Si Si6 0.000000 0.152257 0.826809
O O1 0.141921 0.890108 0.875293
O O2 0.000000 0.863456 0.995026
O O3 0.250000 0.858784 0.000000
O O4 0.128209 0.000000 0.000000
O O5 0.500000 0.496378 0.354356
O O6 0.373045 0.364763 0.394916
O O7 0.500000 0.357840 0.269029
O O8 0.620660 0.121489 0.581864
O O9 0.500000 0.000000 0.500000
O O10 0.250000 0.500000 0.209799
O O11 0.225056 0.361229 0.278789
O O12 0.370440 0.382517 0.152227
O O13 0.750000 0.000000 0.624487
O O14 0.000000 0.250000 0.849618
#
# Coordination Sequence:
#
# PCOD9500517 Si02
#       6
#    16   8   8  16  16   8
#     4  10  20  30  46  84 119 147 190 251 315 354
#     4   8  16  32  46  73 102 149 190 229 280 353
#     4  10  18  28  46  79 121 149 180 241 307 347
#     4  10  19  31  57  84 114 148 201 259 296 358
#     4   8  16  27  42  70 104 141 183 227 290 334
#     4  10  22  38  59  88 125 162 203 250 316 378
#
# _framework density 24.452867000000001
#
# number of rings (size 3 to 8) (size 9 to 14) (size 15 to 20)
#    0.000    2.667    2.222    1.333    4.667    4.000 
#    0.000    0.000    0.000    1.333    0.000   12.444 
#    0.000    0.000    0.000    0.000    0.000    0.000 
#
# Total GULP energy -200491.526730 kJ/mol
# GULP energy per Si atom -5569.209076 kJ/mol
# Density = 2.439721 g / cm^3
# Si number density = 24.452867 Si / 1000 Ang^3
#
#
#
# Elastic Constant Matrix: (Units=GPa)
#
#
# Indices 1 2 3 4 5 6 
#
# 1 284.3641 7.9654 62.5658 0.0000 0.0000 0.0000
# 2 7.9654 40.1909 -2.8015 0.0000 0.0000 0.0000
# 3 62.5658 -2.8015 118.4402 0.0000 0.0000 0.0000
# 4 0.0000 0.0000 0.0000 0.6841 0.0000 0.0000
# 5 0.0000 0.0000 0.0000 0.0000 4.3583 0.0000
# 6 0.0000 0.0000 0.0000 0.0000 0.0000 -7.9756
#
#
#
# Elastic Compliance Matrix: (Units=1/GPa)
#
#
# Indices 1 2 3 4 5 6 
#
# 1 0.004015 -0.000945 -0.002143 0.000000 0.000000 0.000000
# 2 -0.000945 0.025145 0.001094 0.000000 0.000000 0.000000
# 3 -0.002143 0.001094 0.009601 0.000000 0.000000 0.000000
# 4 0.000000 0.000000 0.000000 1.461832 0.000000 0.000000
# 5 0.000000 0.000000 0.000000 0.000000 0.229449 0.000000
# 6 0.000000 0.000000 0.000000 0.000000 0.000000 -0.125382
#
#
# Mechanical properties :
#
#
# Convention : Reuss Voigt Hill
#
# Bulk Modulus (GPa) = 28.75864 64.27274 46.51569
# Shear Modulus (GPa) = 3.08596 24.43104 13.75850
#
# Velocity S-wave (km/s) = 1.12461 3.16429 2.37461
# Velocity P-wave (km/s) = 3.67052 6.30014 5.15580
#
# Compressibility (1/GPa) = 0.03477216
#
# Stress axis : x y z
#
# Youngs Moduli (GPa) = 249.09037 39.76968 104.15556
#
# Poissons Ratio (x) = 0.03758 0.22321
# Poissons Ratio (y) = 0.23540 -0.11394
# Poissons Ratio (z) = 0.53382 -0.04351
#
# Static dielectric constant tensor:
#      x y z
#    x 2.011370 0.000000 0.000000 
#    y 0.000000 1.889470 0.000000 
#    z 0.000000 0.000000 2.104470 
# 
# From -- ./inp_files/32814.got.cif
#   From: 2010.05.17/outbox.cif.g08.bks.cpg/sg67_17_cif.got.tgz:32814.got - 2010.06.03 18:28:57.
