data_PCOD9500980
_publ_section_title
;
Structure prediction by ZEFSAII (Michael W. Deem and Ramdas Pophale) SiO2 
 PCOD9500980
Probable space group: C M M A
;
_chemical_formula_sum "Si O2"
_cell_formula_units_Z 96
_cell_length_a 18.282010
_cell_length_b 24.416129
_cell_length_c 12.284805
_cell_angle_alpha 90.000000
_cell_angle_beta 90.000000
_cell_angle_gamma 90.000000
_cell_volume 5483.641067
_symmetry_space_group_name_H-M "C M M A"
_symmetry_group_IT_number 67
_symmetry_cell_setting 'orthorhombic'
loop_
_space_group_symop_operation_xyz
x,y,z
-x,1/2-y,z
x,-y,-z
-x,1/2+y,-z
-x,-y,-z
x,1/2+y,-z
-x,y,z
x,1/2-y,z
1/2+x,1/2+y,z
1/2-x,-y,z
1/2+x,1/2-y,-z
1/2-x,y,-z
1/2-x,1/2-y,-z
1/2+x,y,-z
1/2-x,1/2+y,z
1/2+x,-y,z
loop_
_atom_site_type_symbol
_atom_site_label
_atom_site_fract_x
_atom_site_fract_y
_atom_site_fract_z
Si Si1 0.083518 0.866383 0.254048
Si Si2 0.874694 0.542632 0.083400
Si Si3 0.768098 0.609554 0.373489
Si Si4 0.250000 0.617106 0.000000
Si Si5 0.250000 0.500000 0.759639
Si Si6 0.709406 0.811633 0.202728
Si Si7 0.411740 0.750000 0.858149
Si Si8 0.413163 0.250000 0.890815
O O1 0.084621 0.913417 0.160104
O O2 0.146408 0.881427 0.341172
O O3 0.104494 0.807109 0.202805
O O4 0.000000 0.862882 0.295958
O O5 0.820790 0.579517 0.010271
O O6 0.820517 0.509496 0.164286
O O7 0.912077 0.500000 0.000000
O O8 0.750000 0.607730 0.500000
O O9 0.743907 0.553573 0.314593
O O10 0.723937 0.658283 0.314780
O O11 0.254852 0.653091 0.107652
O O12 0.740262 0.750000 0.203121
O O13 0.624899 0.801456 0.169076
O O14 0.500000 0.750000 0.867531
O O15 0.385744 0.750000 0.983756
O O16 0.500000 0.250000 0.885984
#
# Coordination Sequence:
#
# PCOD9500980 Si02
#       8
#    16  16  16   8   8  16   8   8
#     4  10  22  37  57  84 119 153 192 242 294 350
#     4  11  18  30  56  85 120 150 186 235 291 345
#     4  11  23  39  60  82 109 149 205 251 286 335
#     4  12  16  32  54  90 118 146 190 228 284 350
#     4  10  18  36  56  82 108 147 195 246 284 330
#     4  10  22  32  56  85 114 152 189 233 285 345
#     4   9  18  35  55  82 118 157 184 217 282 359
#     4   9  20  34  52  83 126 155 184 227 284 352
#
# _framework density 17.506616999999999
#
# number of rings (size 3 to 8) (size 9 to 14) (size 15 to 20)
#    0.500    1.167    5.000    1.500    1.167    0.667 
#    0.000    0.833    0.000   16.000    0.000    0.000 
#    0.000    0.000    0.000    0.000    0.000    0.000 
#
# Total GULP energy -267522.300537 kJ/mol
# GULP energy per Si atom -5573.381261 kJ/mol
# Density = 1.746677 g / cm^3
# Si number density = 17.506617 Si / 1000 Ang^3
#
#
#
# Elastic Constant Matrix: (Units=GPa)
#
#
# Indices 1 2 3 4 5 6 
#
# 1 76.7835 40.3084 22.9814 0.0000 0.0000 0.0000
# 2 40.3084 117.1275 63.1859 0.0000 0.0000 0.0000
# 3 22.9814 63.1859 116.4973 0.0000 0.0000 0.0000
# 4 0.0000 0.0000 0.0000 8.8973 0.0000 0.0000
# 5 0.0000 0.0000 0.0000 0.0000 14.3826 0.0000
# 6 0.0000 0.0000 0.0000 0.0000 0.0000 12.0405
#
#
#
# Elastic Compliance Matrix: (Units=1/GPa)
#
#
# Indices 1 2 3 4 5 6 
#
# 1 0.015900 -0.005343 -0.000239 0.000000 0.000000 0.000000
# 2 -0.005343 0.013865 -0.006466 0.000000 0.000000 0.000000
# 3 -0.000239 -0.006466 0.012138 0.000000 0.000000 0.000000
# 4 0.000000 0.000000 0.000000 0.112394 0.000000 0.000000
# 5 0.000000 0.000000 0.000000 0.000000 0.069529 0.000000
# 6 0.000000 0.000000 0.000000 0.000000 0.000000 0.083053
#
#
# Mechanical properties :
#
#
# Convention : Reuss Voigt Hill
#
# Bulk Modulus (GPa) = 56.15656 62.59553 59.37605
# Shear Modulus (GPa) = 14.84082 19.32625 17.08353
#
# Velocity S-wave (km/s) = 2.91473 3.32616 3.12722
# Velocity P-wave (km/s) = 6.59352 7.11225 6.85779
#
# Compressibility (1/GPa) = 0.01780736
#
# Stress axis : x y z
#
# Youngs Moduli (GPa) = 62.89321 72.12621 82.38648
#
# Poissons Ratio (x) = 0.38538 0.01965
# Poissons Ratio (y) = 0.33605 0.53270
# Poissons Ratio (z) = 0.01500 0.46636
#
# Static dielectric constant tensor:
#      x y z
#    x 1.624250 0.000000 0.000000 
#    y 0.000000 1.626470 0.000000 
#    z 0.000000 0.000000 1.564190 
# 
# From -- ./inp_files/21058.got.cif
#   From: 2010.05.17/outbox.cif.g08.bks.cpg/sg67_11_cif.got.tgz:21058.got - 2010.06.03 18:28:57.
