data_PCOD9500538
_publ_section_title
;
Structure prediction by ZEFSAII (Michael W. Deem and Ramdas Pophale) SiO2 
 PCOD9500538
Probable space group: C M M A
;
_chemical_formula_sum "Si O2"
_cell_formula_units_Z 104
_cell_length_a 8.556104
_cell_length_b 25.440845
_cell_length_c 27.110964
_cell_angle_alpha 90.000000
_cell_angle_beta 90.000000
_cell_angle_gamma 90.000000
_cell_volume 5901.365958
_symmetry_space_group_name_H-M "C M M A"
_symmetry_group_IT_number 67
_symmetry_cell_setting 'orthorhombic'
loop_
_space_group_symop_operation_xyz
x,y,z
-x,1/2-y,z
x,-y,-z
-x,1/2+y,-z
-x,-y,-z
x,1/2+y,-z
-x,y,z
x,1/2-y,z
1/2+x,1/2+y,z
1/2-x,-y,z
1/2+x,1/2-y,-z
1/2-x,y,-z
1/2-x,1/2-y,-z
1/2+x,y,-z
1/2-x,1/2+y,z
1/2+x,-y,z
loop_
_atom_site_type_symbol
_atom_site_label
_atom_site_fract_x
_atom_site_fract_y
_atom_site_fract_z
Si Si1 0.811373 0.168316 0.132354
Si Si2 0.809711 0.863515 0.359694
Si Si3 0.314741 0.250000 0.055086
Si Si4 0.188940 0.750000 0.327496
Si Si5 0.812866 0.555767 0.835178
Si Si6 0.688185 0.057415 0.444771
Si Si7 0.688125 0.750000 0.216257
Si Si8 0.812382 0.055907 0.724179
O O1 0.743800 0.199938 0.086411
O O2 0.762659 0.107790 0.135701
O O3 0.767021 0.199721 0.182507
O O4 0.000000 0.170849 0.129588
O O5 0.755733 0.803644 0.353596
O O6 0.760243 0.896727 0.407464
O O7 0.763616 0.897074 0.311599
O O8 0.000000 0.862688 0.360640
O O9 0.500000 0.250000 0.053695
O O10 0.250000 0.250000 0.000000
O O11 0.238305 0.750000 0.270174
O O12 0.000000 0.750000 0.328886
O O13 0.750000 0.500000 0.853958
O O14 0.753568 0.562120 0.779091
O O15 0.000000 0.553868 0.834332
O O16 0.500000 0.055484 0.445440
O O17 0.750000 0.066537 0.500000
O O18 0.750000 0.000000 0.428814
O O19 0.500000 0.750000 0.221416
O O20 0.000000 0.054009 0.726310
O O21 0.750000 0.000000 0.704877
#
# Coordination Sequence:
#
# PCOD9500538 Si02
#       8
#    16  16   8   8  16  16   8  16
#     4   9  19  35  53  74 105 140 173 208 253 298
#     4   9  19  32  48  68  93 123 157 195 237 285
#     4  11  22  36  58  83 106 131 166 213 261 301
#     4  10  19  33  49  67  94 131 165 194 230 279
#     4  10  19  31  48  72 104 141 173 207 246 291
#     4  10  19  34  53  74  93 113 145 189 240 290
#     4   9  17  31  49  72 101 132 167 209 247 284
#     4  10  18  29  45  69  98 129 164 202 241 288
#
# _framework density 17.62304
#
# number of rings (size 3 to 8) (size 9 to 14) (size 15 to 20)
#    0.000    2.308    0.000    5.308    0.000    2.462 
#    0.000    5.000    0.000    0.462    0.000    3.231 
#    0.000    0.000    0.000    0.000    0.000    0.000 
#
# Total GULP energy -290161.848436 kJ/mol
# GULP energy per Si atom -5580.035547 kJ/mol
# Density = 1.758293 g / cm^3
# Si number density = 17.623040 Si / 1000 Ang^3
#
#
#
# Elastic Constant Matrix: (Units=GPa)
#
#
# Indices 1 2 3 4 5 6 
#
# 1 38.1080 39.1495 22.4020 0.0000 0.0000 0.0000
# 2 39.1495 199.5864 87.1789 0.0000 0.0000 0.0000
# 3 22.4020 87.1789 101.0207 0.0000 0.0000 0.0000
# 4 0.0000 0.0000 0.0000 12.2276 0.0000 0.0000
# 5 0.0000 0.0000 0.0000 0.0000 22.5421 0.0000
# 6 0.0000 0.0000 0.0000 0.0000 0.0000 20.6873
#
#
#
# Elastic Compliance Matrix: (Units=1/GPa)
#
#
# Indices 1 2 3 4 5 6 
#
# 1 0.033353 -0.005315 -0.002809 0.000000 0.000000 0.000000
# 2 -0.005315 0.008889 -0.006492 0.000000 0.000000 0.000000
# 3 -0.002809 -0.006492 0.016124 0.000000 0.000000 0.000000
# 4 0.000000 0.000000 0.000000 0.081783 0.000000 0.000000
# 5 0.000000 0.000000 0.000000 0.000000 0.044362 0.000000
# 6 0.000000 0.000000 0.000000 0.000000 0.000000 0.048339
#
#
# Mechanical properties :
#
#
# Convention : Reuss Voigt Hill
#
# Bulk Modulus (GPa) = 34.32529 70.68621 52.50575
# Shear Modulus (GPa) = 18.39632 23.75703 21.07668
#
# Velocity S-wave (km/s) = 3.23442 3.67559 3.46204
# Velocity P-wave (km/s) = 5.78519 7.62958 6.77048
#
# Compressibility (1/GPa) = 0.02913304
#
# Stress axis : x y z
#
# Youngs Moduli (GPa) = 29.98218 112.50265 62.01750
#
# Poissons Ratio (x) = 0.59797 0.17423
# Poissons Ratio (y) = 0.15936 0.40262
# Poissons Ratio (z) = 0.08423 0.73038
#
# Static dielectric constant tensor:
#      x y z
#    x 1.598280 0.000000 0.000000 
#    y 0.000000 1.625000 0.000000 
#    z 0.000000 0.000000 1.568760 
# 
# From -- ./inp_files/41057.got.cif
#   From: 2010.05.17/outbox.cif.g08.bks.cpg/sg67_21_cif.got.tgz:41057.got - 2010.06.03 18:28:57.
