data_PCOD9500747
_publ_section_title
;
Structure prediction by ZEFSAII (Michael W. Deem and Ramdas Pophale) SiO2 
 PCOD9500747
Probable space group: C M M A
;
_chemical_formula_sum "Si O2"
_cell_formula_units_Z 112
_cell_length_a 25.802574
_cell_length_b 20.801866
_cell_length_c 11.972274
_cell_angle_alpha 90.000000
_cell_angle_beta 90.000000
_cell_angle_gamma 90.000000
_cell_volume 6426.018542
_symmetry_space_group_name_H-M "C M M A"
_symmetry_group_IT_number 67
_symmetry_cell_setting 'orthorhombic'
loop_
_space_group_symop_operation_xyz
x,y,z
-x,1/2-y,z
x,-y,-z
-x,1/2+y,-z
-x,-y,-z
x,1/2+y,-z
-x,y,z
x,1/2-y,z
1/2+x,1/2+y,z
1/2-x,-y,z
1/2+x,1/2-y,-z
1/2-x,y,-z
1/2-x,1/2-y,-z
1/2+x,y,-z
1/2-x,1/2+y,z
1/2+x,-y,z
loop_
_atom_site_type_symbol
_atom_site_label
_atom_site_fract_x
_atom_site_fract_y
_atom_site_fract_z
Si Si1 0.208829 0.556683 0.339821
Si Si2 0.228296 0.321601 0.372525
Si Si3 0.637085 0.393716 0.534722
Si Si4 0.939954 0.624460 0.339430
Si Si5 0.940042 0.066958 0.066939
Si Si6 0.892646 0.007187 0.279950
Si Si7 0.563066 0.822134 0.898150
O O1 0.250000 0.500000 0.350518
O O2 0.239029 0.622548 0.311101
O O3 0.180030 0.572458 0.456085
O O4 0.162010 0.530266 0.263634
O O5 0.232959 0.250000 0.324963
O O6 0.250000 0.318779 0.500000
O O7 0.168995 0.344206 0.388890
O O8 0.595928 0.364790 0.447399
O O9 0.612224 0.447703 0.612216
O O10 0.933515 0.549538 0.304202
O O11 0.921389 0.662637 0.229451
O O12 0.000000 0.639231 0.361475
O O13 0.907851 0.051768 0.177150
O O14 0.000000 0.081693 0.096956
O O15 0.920200 0.123333 0.985615
O O16 0.940249 0.000000 0.000000
O O17 0.500000 0.825327 0.896683
O O18 0.578499 0.750000 0.929623
#
# Coordination Sequence:
#
# PCOD9500747 Si02
#       7
#    16  16  16  16  16  16  16
#     4  10  18  31  54  75 103 140 180 219 271 323
#     4   9  18  31  49  73 105 141 181 220 256 311
#     4  10  21  29  50  82 112 149 178 219 269 336
#     4  10  19  31  48  78 117 147 179 226 276 323
#     4  10  19  35  56  76 105 142 184 231 267 311
#     4  11  20  29  51  84 106 141 180 225 272 333
#     4   9  18  34  56  77  99 142 194 229 264 311
#
# _framework density 17.429144999999998
#
# number of rings (size 3 to 8) (size 9 to 14) (size 15 to 20)
#    0.000    2.143    2.857    2.143    4.000    2.286 
#    0.000    2.857    0.000    0.429    0.000    4.000 
#    0.000    5.714    0.000    0.000    0.000    0.000 
#
# Total GULP energy -312041.361931 kJ/mol
# GULP energy per Si atom -5572.167177 kJ/mol
# Density = 1.738948 g / cm^3
# Si number density = 17.429145 Si / 1000 Ang^3
#
#
#
# Elastic Constant Matrix: (Units=GPa)
#
#
# Indices 1 2 3 4 5 6 
#
# 1 66.3354 27.8133 32.1994 0.0000 0.0000 0.0000
# 2 27.8133 111.9662 40.2960 0.0000 0.0000 0.0000
# 3 32.1994 40.2960 67.7796 0.0000 0.0000 0.0000
# 4 0.0000 0.0000 0.0000 20.5519 0.0000 0.0000
# 5 0.0000 0.0000 0.0000 0.0000 4.3569 0.0000
# 6 0.0000 0.0000 0.0000 0.0000 0.0000 14.7906
#
#
#
# Elastic Compliance Matrix: (Units=1/GPa)
#
#
# Indices 1 2 3 4 5 6 
#
# 1 0.019926 -0.001963 -0.008299 0.000000 0.000000 0.000000
# 2 -0.001963 0.011556 -0.005938 0.000000 0.000000 0.000000
# 3 -0.008299 -0.005938 0.022226 0.000000 0.000000 0.000000
# 4 0.000000 0.000000 0.000000 0.048657 0.000000 0.000000
# 5 0.000000 0.000000 0.000000 0.000000 0.229522 0.000000
# 6 0.000000 0.000000 0.000000 0.000000 0.000000 0.067611
#
#
# Mechanical properties :
#
#
# Convention : Reuss Voigt Hill
#
# Bulk Modulus (GPa) = 46.92863 49.63317 48.28090
# Shear Modulus (GPa) = 11.38950 17.65803 14.52376
#
# Velocity S-wave (km/s) = 2.55909 3.18643 2.88983
# Velocity P-wave (km/s) = 5.97626 6.48665 6.23668
#
# Compressibility (1/GPa) = 0.02130895
#
# Stress axis : x y z
#
# Youngs Moduli (GPa) = 50.18461 86.53669 44.99177
#
# Poissons Ratio (x) = 0.16988 0.37340
# Poissons Ratio (y) = 0.09851 0.26714
# Poissons Ratio (z) = 0.41649 0.51381
#
# Static dielectric constant tensor:
#      x y z
#    x 1.629630 0.000000 0.000000 
#    y 0.000000 1.631030 0.000000 
#    z 0.000000 0.000000 1.597190 
# 
# From -- ./inp_files/23143.got.cif
#   From: 2010.05.17/outbox.cif.g08.bks.cpg/sg67_12_cif.got.tgz:23143.got - 2010.06.03 18:28:57.
