data_PCOD9500705
_publ_section_title
;
Structure prediction by ZEFSAII (Michael W. Deem and Ramdas Pophale) SiO2 
 PCOD9500705
Probable space group: C M M A
;
_chemical_formula_sum "Si O2"
_cell_formula_units_Z 112
_cell_length_a 14.824164
_cell_length_b 22.143250
_cell_length_c 17.427783
_cell_angle_alpha 90.000000
_cell_angle_beta 90.000000
_cell_angle_gamma 90.000000
_cell_volume 5720.759863
_symmetry_space_group_name_H-M "C M M A"
_symmetry_group_IT_number 67
_symmetry_cell_setting 'orthorhombic'
loop_
_space_group_symop_operation_xyz
x,y,z
-x,1/2-y,z
x,-y,-z
-x,1/2+y,-z
-x,-y,-z
x,1/2+y,-z
-x,y,z
x,1/2-y,z
1/2+x,1/2+y,z
1/2-x,-y,z
1/2+x,1/2-y,-z
1/2-x,y,-z
1/2-x,1/2-y,-z
1/2+x,y,-z
1/2-x,1/2+y,z
1/2+x,-y,z
loop_
_atom_site_type_symbol
_atom_site_label
_atom_site_fract_x
_atom_site_fract_y
_atom_site_fract_z
Si Si1 0.609943 0.519484 0.292150
Si Si2 0.605060 0.316546 0.148000
Si Si3 0.389915 0.119213 0.298992
Si Si4 0.895982 0.018608 0.119962
Si Si5 0.889956 0.818473 0.455387
Si Si6 0.849607 0.594460 0.021137
Si Si7 0.610333 0.561526 0.454354
O O1 0.500000 0.522644 0.292565
O O2 0.637306 0.450258 0.307891
O O3 0.637775 0.534765 0.204881
O O4 0.640175 0.557286 0.365767
O O5 0.500000 0.310248 0.167859
O O6 0.645723 0.250000 0.143142
O O7 0.643992 0.355428 0.217963
O O8 0.607686 0.352063 0.068745
O O9 0.500000 0.117219 0.299237
O O10 0.363805 0.162284 0.369005
O O11 0.000000 0.997379 0.128086
O O12 0.846162 0.963018 0.078878
O O13 0.894323 0.071703 0.057386
O O14 0.860274 0.750000 0.474237
O O15 0.860976 0.875245 0.507722
O O16 0.000000 0.817681 0.458064
O O17 0.750000 0.613036 0.000000
O O18 0.637310 0.500000 0.500000
O O19 0.500000 0.561048 0.456557
#
# Coordination Sequence:
#
# PCOD9500705 Si02
#       7
#    16  16  16  16  16  16  16
#     4   9  15  23  40  62  85 115 151 193 232 275
#     4  10  19  31  48  69  95 127 161 197 237 282
#     4   9  14  23  38  61  89 118 154 192 234 277
#     4  10  18  31  50  68  90 120 159 201 240 285
#     4   9  15  21  32  53  86 124 155 186 230 282
#     4  11  21  32  47  69  96 122 155 192 245 296
#     4   9  14  21  33  53  83 117 149 183 228 284
#
# _framework density 19.577819000000002
#
# number of rings (size 3 to 8) (size 9 to 14) (size 15 to 20)
#    0.000    2.429    2.857    3.000    0.000    2.000 
#    0.000    0.000    0.000    0.857    0.000    4.000 
#    0.000    8.000    0.000    2.714    0.000    2.857 
#
# Total GULP energy -312203.133389 kJ/mol
# GULP energy per Si atom -5575.055953 kJ/mol
# Density = 1.953326 g / cm^3
# Si number density = 19.577819 Si / 1000 Ang^3
#
#
#
# Elastic Constant Matrix: (Units=GPa)
#
#
# Indices 1 2 3 4 5 6 
#
# 1 23.3316 -4.8110 2.0486 0.0000 0.0000 0.0000
# 2 -4.8110 125.1921 73.0437 0.0000 0.0000 0.0000
# 3 2.0486 73.0437 152.6297 0.0000 0.0000 0.0000
# 4 0.0000 0.0000 0.0000 12.0370 0.0000 0.0000
# 5 0.0000 0.0000 0.0000 0.0000 -17.8644 0.0000
# 6 0.0000 0.0000 0.0000 0.0000 0.0000 0.5632
#
#
#
# Elastic Compliance Matrix: (Units=1/GPa)
#
#
# Indices 1 2 3 4 5 6 
#
# 1 0.043606 0.002799 -0.001925 0.000000 0.000000 0.000000
# 2 0.002799 0.011262 -0.005427 0.000000 0.000000 0.000000
# 3 -0.001925 -0.005427 0.009175 0.000000 0.000000 0.000000
# 4 0.000000 0.000000 0.000000 0.083077 0.000000 0.000000
# 5 0.000000 0.000000 0.000000 0.000000 -0.055977 0.000000
# 6 0.000000 0.000000 0.000000 0.000000 0.000000 1.775659
#
#
# Mechanical properties :
#
#
# Convention : Reuss Voigt Hill
#
# Bulk Modulus (GPa) = 18.20272 49.07955 33.64114
# Shear Modulus (GPa) = 2.63961 14.33864 8.48913
#
# Velocity S-wave (km/s) = 1.16241 2.70921 2.08459
# Velocity P-wave (km/s) = 3.33458 5.90845 4.79735
#
# Compressibility (1/GPa) = 0.05493683
#
# Stress axis : x y z
#
# Youngs Moduli (GPa) = 22.93246 88.79652 108.99360
#
# Poissons Ratio (x) = -0.24851 0.20977
# Poissons Ratio (y) = -0.06418 0.59151
# Poissons Ratio (z) = 0.04414 0.48190
#
# Static dielectric constant tensor:
#      x y z
#    x 1.724520 0.000000 0.000000 
#    y 0.000000 1.687640 0.000000 
#    z 0.000000 0.000000 1.703480 
# 
# From -- ./inp_files/34448.got.cif
#   From: 2010.05.17/outbox.cif.g08.bks.cpg/sg67_18_cif.got.tgz:34448.got - 2010.06.03 18:28:57.
