data_PCOD9500108
_publ_section_title
;
Structure prediction by ZEFSAII (Michael W. Deem and Ramdas Pophale) SiO2 
 PCOD9500108
Probable space group: C C C M
;
_chemical_formula_sum "Si O2"
_cell_formula_units_Z 54
_cell_length_a 15.000000
_cell_length_b 12.000000
_cell_length_c 30.000000
_cell_angle_alpha 90.000000
_cell_angle_beta 90.000000
_cell_angle_gamma 90.000000
_cell_volume 5400.000000
_symmetry_space_group_name_H-M "C C C M"
_symmetry_group_IT_number 66
_symmetry_cell_setting 'orthorhombic'
loop_
_space_group_symop_operation_xyz
x,y,z
-x,-y,z
x,-y,1/2-z
-x,y,1/2-z
-x,-y,-z
x,y,-z
-x,y,1/2+z
x,-y,1/2+z
1/2+x,1/2+y,z
1/2-x,1/2-y,z
1/2+x,1/2-y,1/2-z
1/2-x,1/2+y,1/2-z
1/2-x,1/2-y,-z
1/2+x,1/2+y,-z
1/2-x,1/2+y,1/2+z
1/2+x,1/2-y,1/2+z
loop_
_atom_site_type_symbol
_atom_site_label
_atom_site_fract_x
_atom_site_fract_y
_atom_site_fract_z
Si Si1 0.190878 0.862695 0.831377
Si Si2 0.222021 0.939713 0.932286
Si Si3 0.916944 0.418940 0.684529
Si Si4 0.407216 0.954055 0.907089
Si Si5 0.485162 0.266088 0.634343
Si Si6 0.227637 0.500000 0.750000
Si Si7 0.066686 0.895048 0.450054
Si Si8 0.250000 0.250000 0.500000
O O1 0.250000 0.750000 0.827486
O O2 0.214142 0.915725 0.879586
O O3 0.085637 0.838922 0.838017
O O4 0.216034 0.935900 0.788018
O O5 0.326429 0.960400 0.940685
O O6 0.202358 0.829683 0.961110
O O7 0.162308 0.045499 0.944309
O O8 0.887048 0.473887 0.637455
O O9 0.952706 0.298646 0.669716
O O10 0.840260 0.421996 0.721349
O O11 0.000000 0.500000 0.697998
O O12 0.426028 0.829937 0.889598
O O13 0.500000 0.000000 0.925570
O O14 0.538702 0.324219 0.593698
O O15 0.060908 0.842067 0.500000
O O16 0.000000 0.000000 0.450037
#
# Coordination Sequence:
#
# PCOD9500108 Si02
#       8
#    16  16  16  16  16   8  16   4
#     4  12  22  41  68  96 131 169 221 286 330 394
#     4  12  21  41  67  98 130 166 223 283 328 391
#     4   9  19  39  69  93 120 173 224 273 323 395
#     4   9  19  40  71  94 123 171 223 273 326 382
#     4  10  20  41  67  93 135 173 211 274 346 395
#     4  12  23  40  68  97 126 172 232 274 334 398
#     4  11  24  38  63  99 136 174 218 265 337 412
#     4  12  24  36  76 104 118 174 240 274 338 394
#
# _framework density 10.0
#
# number of rings (size 3 to 8) (size 9 to 14) (size 15 to 20)
#    0.000    1.630    5.926    1.111    0.000    0.000 
#    2.667    3.333    8.148    4.000    0.000    0.000 
#    0.000    0.000    0.000    0.000    0.000    0.000 
#
# Total GULP energy -300707.373057 kJ/mol
# GULP energy per Si atom -5568.655057 kJ/mol
# Density = 0.997724 g / cm^3
# Si number density = 10.000000 Si / 1000 Ang^3
#
#
#
# Elastic Constant Matrix: (Units=GPa)
#
#
# Indices 1 2 3 4 5 6 
#
# 1 104.0828 43.0079 53.8067 0.0000 0.0000 0.0000
# 2 43.0079 57.7169 58.8919 0.0000 0.0000 0.0000
# 3 53.8067 58.8919 136.3203 0.0000 0.0000 0.0000
# 4 0.0000 0.0000 0.0000 19.2262 0.0000 0.0000
# 5 0.0000 0.0000 0.0000 0.0000 -111.5400 0.0000
# 6 0.0000 0.0000 0.0000 0.0000 0.0000 21.9280
#
#
#
# Elastic Compliance Matrix: (Units=1/GPa)
#
#
# Indices 1 2 3 4 5 6 
#
# 1 0.014136 -0.008656 -0.001840 0.000000 0.000000 0.000000
# 2 -0.008656 0.036284 -0.012259 0.000000 0.000000 0.000000
# 3 -0.001840 -0.012259 0.013358 0.000000 0.000000 0.000000
# 4 0.000000 0.000000 0.000000 0.052012 0.000000 0.000000
# 5 0.000000 0.000000 0.000000 0.000000 -0.008965 0.000000
# 6 0.000000 0.000000 0.000000 0.000000 0.000000 0.045604
#
#
# Mechanical properties :
#
#
# Convention : Reuss Voigt Hill
#
# Bulk Modulus (GPa) = 54.73857 67.72588 61.23223
# Shear Modulus (GPa) = 24.50664 -4.58294 9.96185
#
# Velocity S-wave (km/s) = 3.50427 -1.51540 2.23422
# Velocity P-wave (km/s) = 6.61830 5.55649 6.11050
#
# Compressibility (1/GPa) = 0.01826865
#
# Stress axis : x y z
#
# Youngs Moduli (GPa) = 70.74357 27.56045 74.86250
#
# Poissons Ratio (x) = 0.23855 0.13775
# Poissons Ratio (y) = 0.61233 0.91771
# Poissons Ratio (z) = 0.13018 0.33785
#
# Static dielectric constant tensor:
#      x y z
#    x 1.824120 0.000000 0.000000 
#    y 0.000000 1.748920 0.000000 
#    z 0.000000 0.000000 1.687370 
# 
# From -- ./inp_files/69581.got.cif
#   From: 2010.05.17/outbox.ucp.g08.bks.cvg/sg66_35_cif.got.tgz:69581.got - 2010.06.11 16:44:13.
