data_PCOD9500498
_publ_section_title
;
Structure prediction by ZEFSAII (Michael W. Deem and Ramdas Pophale) SiO2 
 PCOD9500498
Probable space group: C M M A
;
_chemical_formula_sum "Si O2"
_cell_formula_units_Z 96
_cell_length_a 27.366440
_cell_length_b 15.275310
_cell_length_c 12.252344
_cell_angle_alpha 90.000000
_cell_angle_beta 90.000000
_cell_angle_gamma 90.000000
_cell_volume 5121.857833
_symmetry_space_group_name_H-M "C M M A"
_symmetry_group_IT_number 67
_symmetry_cell_setting 'orthorhombic'
loop_
_space_group_symop_operation_xyz
x,y,z
-x,1/2-y,z
x,-y,-z
-x,1/2+y,-z
-x,-y,-z
x,1/2+y,-z
-x,y,z
x,1/2-y,z
1/2+x,1/2+y,z
1/2-x,-y,z
1/2+x,1/2-y,-z
1/2-x,y,-z
1/2-x,1/2-y,-z
1/2+x,y,-z
1/2-x,1/2+y,z
1/2+x,-y,z
loop_
_atom_site_type_symbol
_atom_site_label
_atom_site_fract_x
_atom_site_fract_y
_atom_site_fract_z
Si Si1 0.687870 0.593032 0.208410
Si Si2 0.304221 0.856662 0.458253
Si Si3 0.945007 0.145707 0.827626
Si Si4 0.871070 0.895247 0.989064
Si Si5 0.795420 0.614832 0.167991
Si Si6 0.131046 0.651387 0.349617
O O1 0.685700 0.611043 0.336364
O O2 0.738536 0.634490 0.165924
O O3 0.695815 0.489398 0.186777
O O4 0.641934 0.624317 0.136200
O O5 0.304701 0.750000 0.459182
O O6 0.250000 0.883656 0.500000
O O7 0.346523 0.889016 0.540969
O O8 0.947141 0.250000 0.810596
O O9 0.918645 0.134221 0.944521
O O10 0.910359 0.110059 0.729390
O O11 0.000000 0.110239 0.825829
O O12 0.825279 0.861397 0.060335
O O13 0.871785 0.000000 0.000000
O O14 0.821989 0.657236 0.270672
O O15 0.114472 0.750000 0.377457
#
# Coordination Sequence:
#
# PCOD9500498 Si02
#       6
#    16  16  16  16  16  16
#     4  10  18  28  44  67  97 130 157 187 227 275
#     4  10  19  30  44  65  96 129 160 190 225 278
#     4   9  18  33  53  72  88 114 159 208 245 282
#     4   9  18  31  47  69  97 123 154 195 241 283
#     4   9  17  29  44  67  94 127 162 190 217 276
#     4   9  17  31  47  65  92 122 154 196 234 269
#
# _framework density 18.743199000000001
#
# number of rings (size 3 to 8) (size 9 to 14) (size 15 to 20)
#    0.000    2.667    1.667    0.500    0.000    3.667 
#    0.000    0.000    0.000    6.000    0.000   12.833 
#    0.000    0.000    0.000    0.000    0.000    0.000 
#
# Total GULP energy -267329.047766 kJ/mol
# GULP energy per Si atom -5569.355162 kJ/mol
# Density = 1.870054 g / cm^3
# Si number density = 18.743199 Si / 1000 Ang^3
#
#
#
# Elastic Constant Matrix: (Units=GPa)
#
#
# Indices 1 2 3 4 5 6 
#
# 1 125.5104 6.8034 63.9945 0.0000 0.0000 0.0000
# 2 6.8034 23.3397 2.7966 0.0000 0.0000 0.0000
# 3 63.9945 2.7966 136.2043 0.0000 0.0000 0.0000
# 4 0.0000 0.0000 0.0000 29.1179 0.0000 0.0000
# 5 0.0000 0.0000 0.0000 0.0000 8.9819 0.0000
# 6 0.0000 0.0000 0.0000 0.0000 0.0000 0.0324
#
#
#
# Elastic Compliance Matrix: (Units=1/GPa)
#
#
# Indices 1 2 3 4 5 6 
#
# 1 0.010621 -0.002504 -0.004939 0.000000 0.000000 0.000000
# 2 -0.002504 0.043542 0.000283 0.000000 0.000000 0.000000
# 3 -0.004939 0.000283 0.009657 0.000000 0.000000 0.000000
# 4 0.000000 0.000000 0.000000 0.034343 0.000000 0.000000
# 5 0.000000 0.000000 0.000000 0.000000 0.111335 0.000000
# 6 0.000000 0.000000 0.000000 0.000000 0.000000 30.832139
#
#
# Mechanical properties :
#
#
# Convention : Reuss Voigt Hill
#
# Bulk Modulus (GPa) = 20.20268 48.02704 34.11486
# Shear Modulus (GPa) = 0.16091 21.72376 10.94234
#
# Velocity S-wave (km/s) = 0.29332 3.40813 2.41882
# Velocity P-wave (km/s) = 3.30406 6.41611 5.10310
#
# Compressibility (1/GPa) = 0.04949838
#
# Stress axis : x y z
#
# Youngs Moduli (GPa) = 94.14880 22.96653 103.55550
#
# Poissons Ratio (x) = 0.05752 0.51146
# Poissons Ratio (y) = 0.23578 -0.02927
# Poissons Ratio (z) = 0.46500 -0.00649
#
# Static dielectric constant tensor:
#      x y z
#    x 1.657500 0.000000 0.000000 
#    y 0.000000 1.742210 0.000000 
#    z 0.000000 0.000000 1.684570 
# 
# From -- ./inp_files/19828.got.cif
#   From: 2010.05.17/outbox.cif.g08.bks.cpg/sg67_10_cif.got.tgz:19828.got - 2010.06.03 18:28:57.
