data_PCOD9500195
_publ_section_title
;
Structure prediction by ZEFSAII (Michael W. Deem and Ramdas Pophale) SiO2 
 PCOD9500195
Probable space group: C M M A
;
_chemical_formula_sum "Si O2"
_cell_formula_units_Z 80
_cell_length_a 15.105807
_cell_length_b 8.631062
_cell_length_c 27.714177
_cell_angle_alpha 90.000000
_cell_angle_beta 90.000000
_cell_angle_gamma 90.000000
_cell_volume 3613.351028
_symmetry_space_group_name_H-M "C M M A"
_symmetry_group_IT_number 67
_symmetry_cell_setting 'orthorhombic'
loop_
_space_group_symop_operation_xyz
x,y,z
-x,1/2-y,z
x,-y,-z
-x,1/2+y,-z
-x,-y,-z
x,1/2+y,-z
-x,y,z
x,1/2-y,z
1/2+x,1/2+y,z
1/2-x,-y,z
1/2+x,1/2-y,-z
1/2-x,y,-z
1/2-x,1/2-y,-z
1/2+x,y,-z
1/2-x,1/2+y,z
1/2+x,-y,z
loop_
_atom_site_type_symbol
_atom_site_label
_atom_site_fract_x
_atom_site_fract_y
_atom_site_fract_z
Si Si1 0.103738 0.436864 0.450253
Si Si2 0.851176 0.565296 0.851036
Si Si3 0.895072 0.424600 0.346463
Si Si4 0.151448 0.567673 0.246765
Si Si5 0.851239 0.435281 0.950283
O O1 0.143541 0.500000 0.500000
O O2 0.106646 0.250000 0.450764
O O3 0.140815 0.485803 0.397838
O O4 0.000000 0.486211 0.450881
O O5 0.849068 0.750000 0.854092
O O6 0.750000 0.500000 0.849715
O O7 0.891950 0.512399 0.800098
O O8 0.891327 0.495716 0.900059
O O9 0.859296 0.250000 0.337025
O O10 0.885246 0.527140 0.299221
O O11 0.000000 0.408729 0.354184
O O12 0.152065 0.750000 0.238429
O O13 0.250000 0.500000 0.249057
O O14 0.849715 0.250000 0.951092
O O15 0.750000 0.500000 0.949905
O O16 0.891286 0.500000 0.000000
#
# Coordination Sequence:
#
# PCOD9500195 Si02
#       5
#    16  16  16  16  16
#     4   8  14  25  43  67  94 122 151 185 227 275
#     4  10  17  27  41  58  82 114 151 189 231 278
#     4   9  18  33  51  72  99 128 157 193 237 281
#     4  11  21  33  49  69  94 126 163 199 237 283
#     4  10  16  23  34  52  78 109 145 184 228 275
#
# _framework density 22.140114000000001
#
# number of rings (size 3 to 8) (size 9 to 14) (size 15 to 20)
#    0.000    2.400    0.000    9.600    0.000    1.200 
#    0.000    2.000    0.000    0.600    0.000    4.200 
#    0.000    0.800    0.000    3.000    0.000   11.200 
#
# Total GULP energy -223104.156611 kJ/mol
# GULP energy per Si atom -5577.603915 kJ/mol
# Density = 2.208972 g / cm^3
# Si number density = 22.140114 Si / 1000 Ang^3
#
#
#
# Elastic Constant Matrix: (Units=GPa)
#
#
# Indices 1 2 3 4 5 6 
#
# 1 42.7409 3.4063 17.4467 0.0000 0.0000 0.0000
# 2 3.4063 164.9097 81.0499 0.0000 0.0000 0.0000
# 3 17.4467 81.0499 247.7400 0.0000 0.0000 0.0000
# 4 0.0000 0.0000 0.0000 39.7824 0.0000 0.0000
# 5 0.0000 0.0000 0.0000 0.0000 5.6614 0.0000
# 6 0.0000 0.0000 0.0000 0.0000 0.0000 1.1990
#
#
#
# Elastic Compliance Matrix: (Units=1/GPa)
#
#
# Indices 1 2 3 4 5 6 
#
# 1 0.024112 0.000401 -0.001829 0.000000 0.000000 0.000000
# 2 0.000401 0.007232 -0.002394 0.000000 0.000000 0.000000
# 3 -0.001829 -0.002394 0.004949 0.000000 0.000000 0.000000
# 4 0.000000 0.000000 0.000000 0.025137 0.000000 0.000000
# 5 0.000000 0.000000 0.000000 0.000000 0.176636 0.000000
# 6 0.000000 0.000000 0.000000 0.000000 0.000000 0.834012
#
#
# Mechanical properties :
#
#
# Convention : Reuss Voigt Hill
#
# Bulk Modulus (GPa) = 34.90717 73.24402 54.07560
# Shear Modulus (GPa) = 4.59022 32.89440 18.74231
#
# Velocity S-wave (km/s) = 1.44144 3.85871 2.91268
# Velocity P-wave (km/s) = 4.30942 7.28057 5.98238
#
# Compressibility (1/GPa) = 0.02864741
#
# Stress axis : x y z
#
# Youngs Moduli (GPa) = 41.47396 138.26604 202.07551
#
# Poissons Ratio (x) = -0.05544 0.36964
# Poissons Ratio (y) = -0.01663 0.48385
# Poissons Ratio (z) = 0.07586 0.33106
#
# Static dielectric constant tensor:
#      x y z
#    x 1.895530 0.000000 0.000000 
#    y 0.000000 1.769170 0.000000 
#    z 0.000000 0.000000 1.937360 
# 
# From -- ./inp_files/44450.got.cif
#   From: 2010.05.17/outbox.cif.g08.bks.cpg/sg67_23_cif.got.tgz:44450.got - 2010.06.03 18:28:57.
