data_PCOD9500421
_publ_section_title
;
Structure prediction by ZEFSAII (Michael W. Deem and Ramdas Pophale) SiO2 
 PCOD9500421
Probable space group: C M M A
;
_chemical_formula_sum "Si O2"
_cell_formula_units_Z 88
_cell_length_a 9.285126
_cell_length_b 21.109620
_cell_length_c 23.915691
_cell_angle_alpha 90.000000
_cell_angle_beta 90.000000
_cell_angle_gamma 90.000000
_cell_volume 4687.606530
_symmetry_space_group_name_H-M "C M M A"
_symmetry_group_IT_number 67
_symmetry_cell_setting 'orthorhombic'
loop_
_space_group_symop_operation_xyz
x,y,z
-x,1/2-y,z
x,-y,-z
-x,1/2+y,-z
-x,-y,-z
x,1/2+y,-z
-x,y,z
x,1/2-y,z
1/2+x,1/2+y,z
1/2-x,-y,z
1/2+x,1/2-y,-z
1/2-x,y,-z
1/2-x,1/2-y,-z
1/2+x,y,-z
1/2-x,1/2+y,z
1/2+x,-y,z
loop_
_atom_site_type_symbol
_atom_site_label
_atom_site_fract_x
_atom_site_fract_y
_atom_site_fract_z
Si Si1 0.500000 0.407854 0.954020
Si Si2 0.670707 0.175756 0.236540
Si Si3 0.260997 0.866412 0.880006
Si Si4 0.000000 0.553441 0.080263
Si Si5 0.823442 0.570092 0.555170
Si Si6 0.674176 0.431270 0.331762
Si Si7 0.853150 0.750000 0.051304
O O1 0.633929 0.377173 0.923385
O O2 0.500000 0.481209 0.936680
O O3 0.500000 0.408354 0.021075
O O4 0.500000 0.173138 0.220290
O O5 0.699951 0.250000 0.251037
O O6 0.765318 0.153591 0.183483
O O7 0.688923 0.122905 0.284603
O O8 0.361601 0.927650 0.884152
O O9 0.343229 0.808539 0.907696
O O10 0.750000 0.500000 0.555876
O O11 0.750000 0.600728 0.500000
O O12 0.759120 0.594986 0.613546
O O13 0.000000 0.568243 0.552765
O O14 0.500000 0.440901 0.341774
O O15 0.750000 0.500000 0.318217
O O16 0.000000 0.750000 0.019203
O O17 0.750000 0.750000 0.000000
#
# Coordination Sequence:
#
# PCOD9500421 Si02
#       7
#     8  16  16   8  16  16   8
#     4  11  26  39  59  91 119 144 186 237 298 363
#     4  10  21  42  63  81 111 156 204 244 292 356
#     4  12  23  41  62  84 113 149 193 237 295 357
#     4  11  22  43  63  83 117 154 182 231 298 371
#     4  10  17  29  52  85 126 162 199 241 289 339
#     4  10  20  35  59  88 120 155 199 245 293 347
#     4  12  24  38  64  86 112 144 189 242 295 354
#
# _framework density 18.772908000000001
#
# number of rings (size 3 to 8) (size 9 to 14) (size 15 to 20)
#    0.000    1.273    2.727    6.000    1.273    2.909 
#    3.273    0.000    0.000    0.545    0.000    0.000 
#    0.000    0.000    0.000    0.000    0.000    0.000 
#
# Total GULP energy -245005.651004 kJ/mol
# GULP energy per Si atom -5568.310250 kJ/mol
# Density = 1.873018 g / cm^3
# Si number density = 18.772908 Si / 1000 Ang^3
#
#
#
# Elastic Constant Matrix: (Units=GPa)
#
#
# Indices 1 2 3 4 5 6 
#
# 1 120.7301 27.1567 37.1671 0.0000 0.0000 0.0000
# 2 27.1567 87.2894 46.7128 0.0000 0.0000 0.0000
# 3 37.1671 46.7128 121.3724 0.0000 0.0000 0.0000
# 4 0.0000 0.0000 0.0000 5.7624 0.0000 0.0000
# 5 0.0000 0.0000 0.0000 0.0000 -144.8083 0.0000
# 6 0.0000 0.0000 0.0000 0.0000 0.0000 13.9183
#
#
#
# Elastic Compliance Matrix: (Units=1/GPa)
#
#
# Indices 1 2 3 4 5 6 
#
# 1 0.009349 -0.001734 -0.002196 0.000000 0.000000 0.000000
# 2 -0.001734 0.014749 -0.005146 0.000000 0.000000 0.000000
# 3 -0.002196 -0.005146 0.010892 0.000000 0.000000 0.000000
# 4 0.000000 0.000000 0.000000 0.173538 0.000000 0.000000
# 5 0.000000 0.000000 0.000000 0.000000 -0.006906 0.000000
# 6 0.000000 0.000000 0.000000 0.000000 0.000000 0.071848
#
#
# Mechanical properties :
#
#
# Convention : Reuss Voigt Hill
#
# Bulk Modulus (GPa) = 59.38185 61.27390 60.32787
# Shear Modulus (GPa) = 16.82180 -10.46850 3.17665
#
# Velocity S-wave (km/s) = 2.99669 -2.36400 1.30224
# Velocity P-wave (km/s) = 6.60862 5.02584 5.87081
#
# Compressibility (1/GPa) = 0.01684016
#
# Stress axis : x y z
#
# Youngs Moduli (GPa) = 106.96551 67.80040 91.81135
#
# Poissons Ratio (x) = 0.11753 0.20159
# Poissons Ratio (y) = 0.18543 0.47243
# Poissons Ratio (z) = 0.23486 0.34888
#
# Static dielectric constant tensor:
#      x y z
#    x 1.681830 0.000000 0.000000 
#    y 0.000000 1.698250 0.000000 
#    z 0.000000 0.000000 1.690140 
# 
# From -- ./inp_files/40719.got.cif
#   From: 2010.05.17/outbox.cif.g08.bks.cpg/sg67_21_cif.got.tgz:40719.got - 2010.06.03 18:28:57.
