data_PCOD9500957
_publ_section_title
;
Structure prediction by ZEFSAII (Michael W. Deem and Ramdas Pophale) SiO2 
 PCOD9500957
Probable space group: C M M A
;
_chemical_formula_sum "Si O2"
_cell_formula_units_Z 96
_cell_length_a 24.065408
_cell_length_b 17.945259
_cell_length_c 12.160134
_cell_angle_alpha 90.000000
_cell_angle_beta 90.000000
_cell_angle_gamma 90.000000
_cell_volume 5251.475220
_symmetry_space_group_name_H-M "C M M A"
_symmetry_group_IT_number 67
_symmetry_cell_setting 'orthorhombic'
loop_
_space_group_symop_operation_xyz
x,y,z
-x,1/2-y,z
x,-y,-z
-x,1/2+y,-z
-x,-y,-z
x,1/2+y,-z
-x,y,z
x,1/2-y,z
1/2+x,1/2+y,z
1/2-x,-y,z
1/2+x,1/2-y,-z
1/2-x,y,-z
1/2-x,1/2-y,-z
1/2+x,y,-z
1/2-x,1/2+y,z
1/2+x,-y,z
loop_
_atom_site_type_symbol
_atom_site_label
_atom_site_fract_x
_atom_site_fract_y
_atom_site_fract_z
Si Si1 0.689475 0.661253 0.633827
Si Si2 0.119869 0.580967 0.553456
Si Si3 0.382489 0.159830 0.152321
Si Si4 0.310914 0.664192 0.054120
Si Si5 0.288020 0.926239 0.273062
Si Si6 0.500000 0.659290 0.745840
Si Si7 0.500000 0.909856 0.499774
O O1 0.692399 0.750000 0.628537
O O2 0.656070 0.630198 0.530390
O O3 0.656467 0.639015 0.745096
O O4 0.749981 0.626911 0.650547
O O5 0.115098 0.500000 0.500000
O O6 0.154004 0.566053 0.663676
O O7 0.057512 0.613261 0.558831
O O8 0.381728 0.250000 0.147133
O O9 0.444832 0.137957 0.185900
O O10 0.354817 0.135727 0.037412
O O11 0.325441 0.750000 0.085457
O O12 0.302792 0.612209 0.158577
O O13 0.250000 0.667480 0.000000
O O14 0.250000 0.000000 0.260250
O O15 0.500000 0.750000 0.731493
O O16 0.500000 0.621833 0.624921
O O17 0.500000 0.000000 0.500000
#
# Coordination Sequence:
#
# PCOD9500957 Si02
#       7
#    16  16  16  16  16   8   8
#     4  11  21  36  61  89 118 155 200 248 299 358
#     4  11  23  40  57  86 120 162 197 248 302 355
#     4   9  18  34  58  87 116 147 196 253 296 341
#     4  10  20  38  59  82 115 154 195 242 299 358
#     4  12  24  37  58  86 126 159 196 242 305 369
#     4  10  18  34  61  90 115 153 209 257 292 349
#     4  10  22  38  61  82 118 165 200 236 298 357
#
# _framework density 18.280577000000001
#
# number of rings (size 3 to 8) (size 9 to 14) (size 15 to 20)
#    0.000    1.500    5.000    1.000    0.000    2.333 
#    0.000    0.833    0.000    0.000    0.000    3.500 
#    0.000    0.000    0.000    0.000    0.000    0.000 
#
# Total GULP energy -267739.588715 kJ/mol
# GULP energy per Si atom -5577.908098 kJ/mol
# Density = 1.823897 g / cm^3
# Si number density = 18.280577 Si / 1000 Ang^3
#
#
#
# Elastic Constant Matrix: (Units=GPa)
#
#
# Indices 1 2 3 4 5 6 
#
# 1 142.4225 28.4931 64.2011 0.0000 0.0000 0.0000
# 2 28.4931 65.4940 48.0276 0.0000 0.0000 0.0000
# 3 64.2011 48.0276 107.7057 0.0000 0.0000 0.0000
# 4 0.0000 0.0000 0.0000 26.5372 0.0000 0.0000
# 5 0.0000 0.0000 0.0000 0.0000 33.5302 0.0000
# 6 0.0000 0.0000 0.0000 0.0000 0.0000 16.0469
#
#
#
# Elastic Compliance Matrix: (Units=1/GPa)
#
#
# Indices 1 2 3 4 5 6 
#
# 1 0.009601 0.000029 -0.005736 0.000000 0.000000 0.000000
# 2 0.000029 0.022687 -0.010134 0.000000 0.000000 0.000000
# 3 -0.005736 -0.010134 0.017223 0.000000 0.000000 0.000000
# 4 0.000000 0.000000 0.000000 0.037683 0.000000 0.000000
# 5 0.000000 0.000000 0.000000 0.000000 0.029824 0.000000
# 6 0.000000 0.000000 0.000000 0.000000 0.000000 0.062317
#
#
# Mechanical properties :
#
#
# Convention : Reuss Voigt Hill
#
# Bulk Modulus (GPa) = 56.08706 66.34064 61.21385
# Shear Modulus (GPa) = 23.04568 26.88288 24.96428
#
# Velocity S-wave (km/s) = 3.55444 3.83896 3.69944
# Velocity P-wave (km/s) = 6.89878 7.48460 7.19765
#
# Compressibility (1/GPa) = 0.01782942
#
# Stress axis : x y z
#
# Youngs Moduli (GPa) = 104.15315 44.07759 58.06263
#
# Poissons Ratio (x) = -0.00130 0.33306
# Poissons Ratio (y) = -0.00307 0.58842
# Poissons Ratio (z) = 0.59745 0.44669
#
# Static dielectric constant tensor:
#      x y z
#    x 1.682470 0.000000 0.000000 
#    y 0.000000 1.644530 0.000000 
#    z 0.000000 0.000000 1.633220 
# 
# From -- ./inp_files/21997.got.cif
#   From: 2010.05.17/outbox.cif.g08.bks.cpg/sg67_11_cif.got.tgz:21997.got - 2010.06.03 18:28:57.
