data_PCOD9500091
_publ_section_title
;
Structure prediction by ZEFSAII (Michael W. Deem and Ramdas Pophale) SiO2 
 PCOD9500091
Probable space group: C C C M
;
_chemical_formula_sum "Si O2"
_cell_formula_units_Z 52
_cell_length_a 27.000000
_cell_length_b 9.000000
_cell_length_c 21.000000
_cell_angle_alpha 90.000000
_cell_angle_beta 90.000000
_cell_angle_gamma 90.000000
_cell_volume 5103.000000
_symmetry_space_group_name_H-M "C C C M"
_symmetry_group_IT_number 66
_symmetry_cell_setting 'orthorhombic'
loop_
_space_group_symop_operation_xyz
x,y,z
-x,-y,z
x,-y,1/2-z
-x,y,1/2-z
-x,-y,-z
x,y,-z
-x,y,1/2+z
x,-y,1/2+z
1/2+x,1/2+y,z
1/2-x,1/2-y,z
1/2+x,1/2-y,1/2-z
1/2-x,1/2+y,1/2-z
1/2-x,1/2-y,-z
1/2+x,1/2+y,-z
1/2-x,1/2+y,1/2+z
1/2+x,1/2-y,1/2+z
loop_
_atom_site_type_symbol
_atom_site_label
_atom_site_fract_x
_atom_site_fract_y
_atom_site_fract_z
Si Si1 0.062375 0.850054 0.659964
Si Si2 0.848676 0.909993 0.070410
Si Si3 0.070573 0.191134 0.695380
Si Si4 0.483641 0.826882 0.076849
Si Si5 0.720943 0.970763 0.319697
Si Si6 0.823412 0.823558 0.346675
Si Si7 0.750000 0.750000 0.897656
O O1 0.116473 0.845140 0.626417
O O2 0.055382 0.777071 0.730750
O O3 0.027161 0.776233 0.606756
O O4 0.053556 0.025324 0.674339
O O5 0.795838 0.828439 0.068053
O O6 0.837834 0.079334 0.092045
O O7 0.871828 0.903086 0.000000
O O8 0.129729 0.178939 0.698965
O O9 0.056878 0.295258 0.634112
O O10 0.500000 0.000000 0.078916
O O11 0.473108 0.794298 0.000000
O O12 0.776476 0.903623 0.314523
O O13 0.691671 0.845816 0.358524
O O14 0.699752 0.000000 0.250000
O O15 0.725122 0.123999 0.355202
#
# Coordination Sequence:
#
# PCOD9500091 Si02
#       7
#    16  16  16  16  16  16   8
#     4  10  22  39  65  92 122 157 210 262 319 372
#     4  10  21  38  60  85 124 168 211 261 313 374
#     4  10  22  39  64  95 124 154 206 267 314 369
#     4  11  25  44  63  89 126 167 208 255 317 386
#     4  10  20  34  59  85 125 162 200 252 318 372
#     4   9  21  37  56  90 118 160 206 251 310 377
#     4  10  21  34  54  88 120 166 211 258 311 372
#
# _framework density 10.190084000000001
#
# number of rings (size 3 to 8) (size 9 to 14) (size 15 to 20)
#    0.000    2.000    0.000    2.538    8.615    7.385 
#    0.000    6.923    0.000    0.000    0.000    0.000 
#    0.000    0.000    0.000    0.000    0.000    0.000 
#
# Total GULP energy -289601.079267 kJ/mol
# GULP energy per Si atom -5569.251524 kJ/mol
# Density = 1.016689 g / cm^3
# Si number density = 10.190084 Si / 1000 Ang^3
#
#
#
# Elastic Constant Matrix: (Units=GPa)
#
#
# Indices 1 2 3 4 5 6 
#
# 1 75.0790 6.8864 22.0118 0.0000 0.0000 0.0000
# 2 6.8864 91.9599 38.1789 0.0000 0.0000 0.0000
# 3 22.0118 38.1789 166.5728 0.0000 0.0000 0.0000
# 4 0.0000 0.0000 0.0000 11.9323 0.0000 0.0000
# 5 0.0000 0.0000 0.0000 0.0000 24.1571 0.0000
# 6 0.0000 0.0000 0.0000 0.0000 0.0000 20.8885
#
#
#
# Elastic Compliance Matrix: (Units=1/GPa)
#
#
# Indices 1 2 3 4 5 6 
#
# 1 0.013864 -0.000307 -0.001762 0.000000 0.000000 0.000000
# 2 -0.000307 0.012025 -0.002716 0.000000 0.000000 0.000000
# 3 -0.001762 -0.002716 0.006859 0.000000 0.000000 0.000000
# 4 0.000000 0.000000 0.000000 0.083806 0.000000 0.000000
# 5 0.000000 0.000000 0.000000 0.000000 0.041396 0.000000
# 6 0.000000 0.000000 0.000000 0.000000 0.000000 0.047873
#
#
# Mechanical properties :
#
#
# Convention : Reuss Voigt Hill
#
# Bulk Modulus (GPa) = 43.14231 51.97398 47.55814
# Shear Modulus (GPa) = 22.40982 29.16458 25.78720
#
# Velocity S-wave (km/s) = 3.31960 3.78700 3.56098
# Velocity P-wave (km/s) = 5.99231 6.68426 6.34772
#
# Compressibility (1/GPa) = 0.02317910
#
# Stress axis : x y z
#
# Youngs Moduli (GPa) = 72.12954 83.16227 145.80248
#
# Poissons Ratio (x) = 0.02551 0.25687
# Poissons Ratio (y) = 0.02213 0.39593
# Poissons Ratio (z) = 0.12707 0.22583
#
# Static dielectric constant tensor:
#      x y z
#    x 1.810730 0.000000 0.000000 
#    y 0.000000 1.722170 0.000000 
#    z 0.000000 0.000000 1.715860 
# 
# From -- ./inp_files/53070.got.cif
#   From: 2010.05.17/outbox.ucp.g08.bks.cvg/sg66_27_cif.got.tgz:53070.got - 2010.06.11 16:44:13.
