data_PCOD9500073
_publ_section_title
;
Structure prediction by ZEFSAII (Michael W. Deem and Ramdas Pophale) SiO2 
 PCOD9500073
Probable space group: C C C M
;
_chemical_formula_sum "Si O2"
_cell_formula_units_Z 56
_cell_length_a 12.000000
_cell_length_b 30.000000
_cell_length_c 15.000000
_cell_angle_alpha 90.000000
_cell_angle_beta 90.000000
_cell_angle_gamma 90.000000
_cell_volume 5400.000000
_symmetry_space_group_name_H-M "C C C M"
_symmetry_group_IT_number 66
_symmetry_cell_setting 'orthorhombic'
loop_
_space_group_symop_operation_xyz
x,y,z
-x,-y,z
x,-y,1/2-z
-x,y,1/2-z
-x,-y,-z
x,y,-z
-x,y,1/2+z
x,-y,1/2+z
1/2+x,1/2+y,z
1/2-x,1/2-y,z
1/2+x,1/2-y,1/2-z
1/2-x,1/2+y,1/2-z
1/2-x,1/2-y,-z
1/2+x,1/2+y,-z
1/2-x,1/2+y,1/2+z
1/2+x,1/2-y,1/2+z
loop_
_atom_site_type_symbol
_atom_site_label
_atom_site_fract_x
_atom_site_fract_y
_atom_site_fract_z
Si Si1 0.498377 0.605680 0.644141
Si Si2 0.236174 0.062266 0.396929
Si Si3 0.615786 0.520238 0.893956
Si Si4 0.942102 0.206084 0.603454
Si Si5 0.626304 0.871809 0.724576
Si Si6 0.291453 0.170820 0.103938
Si Si7 0.544564 0.207790 0.896443
O O1 0.500000 0.606790 0.750000
O O2 0.613126 0.584867 0.607589
O O3 0.396974 0.572652 0.619375
O O4 0.484311 0.655750 0.611499
O O5 0.273723 0.062397 0.500000
O O6 0.316354 0.091263 0.336197
O O7 0.215250 0.011597 0.362764
O O8 0.500000 0.500000 0.856271
O O9 0.614929 0.512693 0.000000
O O10 0.938265 0.219229 0.500000
O O11 0.812225 0.202636 0.630399
O O12 0.029842 0.241964 0.641232
O O13 0.500000 0.884358 0.750000
O O14 0.695987 0.864002 0.815130
O O15 0.612552 0.825785 0.667053
O O16 0.414613 0.192327 0.103197
O O17 0.270763 0.156284 0.000000
O O18 0.585495 0.205804 0.000000
#
# Coordination Sequence:
#
# PCOD9500073 Si02
#       7
#    16  16  16  16  16  16  16
#     4  11  21  32  52  85 121 151 187 234 290 355
#     4  10  20  36  57  81 115 157 195 237 296 359
#     4   8  16  32  52  75 106 144 182 222 278 350
#     4  10  19  33  53  77 110 150 190 237 291 348
#     4  10  20  35  55  82 114 151 200 252 297 349
#     4   9  18  33  52  75 107 149 195 241 293 351
#     4   9  18  33  53  77 107 149 199 246 292 345
#
# _framework density 10.370369999999999
#
# number of rings (size 3 to 8) (size 9 to 14) (size 15 to 20)
#    0.000    2.429    0.000    3.857    0.000    6.571 
#    0.000    3.571    0.000    2.571    0.000   19.000 
#    0.000   40.571    0.000    0.000    0.000    0.000 
#
# Total GULP energy -312220.427875 kJ/mol
# GULP energy per Si atom -5575.364783 kJ/mol
# Density = 1.034677 g / cm^3
# Si number density = 10.370370 Si / 1000 Ang^3
#
#
#
# Elastic Constant Matrix: (Units=GPa)
#
#
# Indices 1 2 3 4 5 6 
#
# 1 48.7996 50.5414 26.7191 0.0000 0.0000 0.0000
# 2 50.5414 120.5794 36.3984 0.0000 0.0000 0.0000
# 3 26.7191 36.3984 101.5856 0.0000 0.0000 0.0000
# 4 0.0000 0.0000 0.0000 -12.1177 0.0000 0.0000
# 5 0.0000 0.0000 0.0000 0.0000 61.7082 0.0000
# 6 0.0000 0.0000 0.0000 0.0000 0.0000 32.0578
#
#
#
# Elastic Compliance Matrix: (Units=1/GPa)
#
#
# Indices 1 2 3 4 5 6 
#
# 1 0.038219 -0.014560 -0.004836 0.000000 0.000000 0.000000
# 2 -0.014560 0.014846 -0.001490 0.000000 0.000000 0.000000
# 3 -0.004836 -0.001490 0.011650 0.000000 0.000000 0.000000
# 4 0.000000 0.000000 0.000000 -0.082524 0.000000 0.000000
# 5 0.000000 0.000000 0.000000 0.000000 0.016205 0.000000
# 6 0.000000 0.000000 0.000000 0.000000 0.000000 0.031194
#
#
# Mechanical properties :
#
#
# Convention : Reuss Voigt Hill
#
# Bulk Modulus (GPa) = 43.58431 55.36472 49.47451
# Shear Modulus (GPa) = 63.28384 26.81670 45.05027
#
# Velocity S-wave (km/s) = 5.52975 3.59966 4.66560
# Velocity P-wave (km/s) = 7.86322 6.63539 7.27525
#
# Compressibility (1/GPa) = 0.02294404
#
# Stress axis : x y z
#
# Youngs Moduli (GPa) = 26.16468 67.35852 85.84035
#
# Poissons Ratio (x) = 0.98075 0.41509
# Poissons Ratio (y) = 0.38096 0.12788
# Poissons Ratio (z) = 0.12652 0.10034
#
# Static dielectric constant tensor:
#      x y z
#    x 1.734440 0.000000 0.000000 
#    y 0.000000 1.831250 0.000000 
#    z 0.000000 0.000000 1.762510 
# 
# From -- ./inp_files/26967.got.cif
#   From: 2010.05.17/outbox.ucp.g08.bks.cvg/sg66_14_cif.got.tgz:26967.got - 2010.06.11 16:44:13.
