data_PCOD9500515
_publ_section_title
;
Structure prediction by ZEFSAII (Michael W. Deem and Ramdas Pophale) SiO2 
 PCOD9500515
Probable space group: C M M A
;
_chemical_formula_sum "Si O2"
_cell_formula_units_Z 52
_cell_length_a 18.270857
_cell_length_b 9.076259
_cell_length_c 15.755873
_cell_angle_alpha 90.000000
_cell_angle_beta 90.000000
_cell_angle_gamma 90.000000
_cell_volume 2612.812653
_symmetry_space_group_name_H-M "C M M A"
_symmetry_group_IT_number 67
_symmetry_cell_setting 'orthorhombic'
loop_
_space_group_symop_operation_xyz
x,y,z
-x,1/2-y,z
x,-y,-z
-x,1/2+y,-z
-x,-y,-z
x,1/2+y,-z
-x,y,z
x,1/2-y,z
1/2+x,1/2+y,z
1/2-x,-y,z
1/2+x,1/2-y,-z
1/2-x,y,-z
1/2-x,1/2-y,-z
1/2+x,y,-z
1/2-x,1/2+y,z
1/2+x,-y,z
loop_
_atom_site_type_symbol
_atom_site_label
_atom_site_fract_x
_atom_site_fract_y
_atom_site_fract_z
Si Si1 0.750000 0.000000 0.500000
Si Si2 0.610035 0.915036 0.417155
Si Si3 0.169706 0.927030 0.259703
Si Si4 0.914947 0.926495 0.087963
O O1 0.695753 0.906145 0.443329
O O2 0.582017 0.750000 0.405779
O O3 0.579081 0.000000 0.500000
O O4 0.614699 0.011084 0.332234
O O5 0.175414 0.750000 0.268614
O O6 0.134727 0.964278 0.168466
O O7 0.250000 0.000000 0.265996
O O8 0.913046 0.750000 0.078345
O O9 0.000000 0.969487 0.103187
O O10 0.890912 0.000000 0.000000
#
# Coordination Sequence:
#
# PCOD9500515 Si02
#       4
#     4  16  16  16
#     4   8  18  24  42  64  98 136 170 204 240 288
#     4  10  18  28  46  71 104 140 174 209 250 301
#     4  11  21  32  51  79 109 136 168 213 259 303
#     4   9  20  39  59  77  99 133 174 213 256 308
#
# _framework density 19.901924999999999
#
# number of rings (size 3 to 8) (size 9 to 14) (size 15 to 20)
#    0.923    1.231    1.538    2.308    0.000    3.077 
#    0.000    3.077    0.000    0.923    0.000    0.000 
#    0.000    0.000    0.000    0.000    0.000    0.000 
#
# Total GULP energy -144819.884616 kJ/mol
# GULP energy per Si atom -5569.995562 kJ/mol
# Density = 1.985663 g / cm^3
# Si number density = 19.901925 Si / 1000 Ang^3
#
#
#
# Elastic Constant Matrix: (Units=GPa)
#
#
# Indices 1 2 3 4 5 6 
#
# 1 69.5997 30.9909 49.0144 0.0000 0.0000 0.0000
# 2 30.9909 109.6561 73.2535 0.0000 0.0000 0.0000
# 3 49.0144 73.2535 192.3821 0.0000 0.0000 0.0000
# 4 0.0000 0.0000 0.0000 24.9639 0.0000 0.0000
# 5 0.0000 0.0000 0.0000 0.0000 83.0002 0.0000
# 6 0.0000 0.0000 0.0000 0.0000 0.0000 -16.5694
#
#
#
# Elastic Compliance Matrix: (Units=1/GPa)
#
#
# Indices 1 2 3 4 5 6 
#
# 1 0.018098 -0.002729 -0.003572 0.000000 0.000000 0.000000
# 2 -0.002729 0.012642 -0.004118 0.000000 0.000000 0.000000
# 3 -0.003572 -0.004118 0.007676 0.000000 0.000000 0.000000
# 4 0.000000 0.000000 0.000000 0.040058 0.000000 0.000000
# 5 0.000000 0.000000 0.000000 0.000000 0.012048 0.000000
# 6 0.000000 0.000000 0.000000 0.000000 0.000000 -0.060352
#
#
# Mechanical properties :
#
#
# Convention : Reuss Voigt Hill
#
# Bulk Modulus (GPa) = 56.88887 75.35060 66.11974
# Shear Modulus (GPa) = 87.92284 32.83756 60.38020
#
# Velocity S-wave (km/s) = 6.65387 4.06639 5.51405
# Velocity P-wave (km/s) = 9.36369 7.74535 8.59270
#
# Compressibility (1/GPa) = 0.01757813
#
# Stress axis : x y z
#
# Youngs Moduli (GPa) = 55.25331 79.10233 130.27218
#
# Poissons Ratio (x) = 0.21585 0.46534
# Poissons Ratio (y) = 0.15077 0.53652
# Poissons Ratio (z) = 0.19737 0.32578
#
# Static dielectric constant tensor:
#      x y z
#    x 1.734550 0.000000 0.000000 
#    y 0.000000 1.707400 0.000000 
#    z 0.000000 0.000000 1.706620 
# 
# From -- ./inp_files/29707.got.cif
#   From: 2010.05.17/outbox.cif.g08.bks.cpg/sg67_15_cif.got.tgz:29707.got - 2010.06.03 18:28:57.
