data_PCOD9500166
_publ_section_title
;
Structure prediction by ZEFSAII (Michael W. Deem and Ramdas Pophale) SiO2 
 PCOD9500166
Probable space group: C M M A
;
_chemical_formula_sum "Si O2"
_cell_formula_units_Z 96
_cell_length_a 8.793656
_cell_length_b 14.811945
_cell_length_c 33.114637
_cell_angle_alpha 90.000000
_cell_angle_beta 90.000000
_cell_angle_gamma 90.000000
_cell_volume 4313.219519
_symmetry_space_group_name_H-M "C M M A"
_symmetry_group_IT_number 67
_symmetry_cell_setting 'orthorhombic'
loop_
_space_group_symop_operation_xyz
x,y,z
-x,1/2-y,z
x,-y,-z
-x,1/2+y,-z
-x,-y,-z
x,1/2+y,-z
-x,y,z
x,1/2-y,z
1/2+x,1/2+y,z
1/2-x,-y,z
1/2+x,1/2-y,-z
1/2-x,y,-z
1/2-x,1/2-y,-z
1/2+x,y,-z
1/2-x,1/2+y,z
1/2+x,-y,z
loop_
_atom_site_type_symbol
_atom_site_label
_atom_site_fract_x
_atom_site_fract_y
_atom_site_fract_z
Si Si1 0.672886 0.139308 0.958214
Si Si2 0.183520 0.897854 0.706181
Si Si3 0.818910 0.400333 0.205866
Si Si4 0.833203 0.355989 0.877263
Si Si5 0.316594 0.397362 0.541385
Si Si6 0.317101 0.397456 0.375965
O O1 0.500000 0.109004 0.957673
O O2 0.673029 0.250000 0.958068
O O3 0.754163 0.107477 0.917395
O O4 0.750000 0.111609 0.000000
O O5 0.220269 0.857559 0.750386
O O6 0.258852 0.856479 0.666229
O O7 0.000000 0.900227 0.701416
O O8 0.250000 0.000000 0.708049
O O9 0.750000 0.500000 0.206635
O O10 0.757839 0.360788 0.164339
O O11 0.000000 0.403372 0.204292
O O12 0.849983 0.250000 0.885494
O O13 0.000000 0.397454 0.871326
O O14 0.500000 0.398597 0.540941
O O15 0.250000 0.500000 0.541611
O O16 0.250000 0.356802 0.500000
O O17 0.252906 0.356797 0.583077
O O18 0.500000 0.399198 0.377780
O O19 0.250000 0.500000 0.375088
#
# Coordination Sequence:
#
# PCOD9500166 Si02
#       6
#    16  16  16  16  16  16
#     4   9  16  27  45  69  96 124 155 191 230 271
#     4   9  16  26  39  56  76 101 135 175 217 259
#     4  10  20  33  50  70  94 124 158 196 237 281
#     4  10  20  33  50  73 100 128 159 195 234 276
#     4  10  16  22  29  39  57  82 115 156 202 251
#     4  10  16  22  32  46  64  89 122 162 207 252
#
# _framework density 22.257155999999998
#
# number of rings (size 3 to 8) (size 9 to 14) (size 15 to 20)
#    0.000    2.333    0.000    7.500    0.000    5.000 
#    0.000    0.000    0.000    0.500    0.000    3.500 
#    0.000    0.000    0.000    0.000    0.000    0.833 
#
# Total GULP energy -267820.655308 kJ/mol
# GULP energy per Si atom -5579.596986 kJ/mol
# Density = 2.220650 g / cm^3
# Si number density = 22.257156 Si / 1000 Ang^3
#
#
#
# Elastic Constant Matrix: (Units=GPa)
#
#
# Indices 1 2 3 4 5 6 
#
# 1 194.4751 9.0301 122.7308 0.0000 0.0000 0.0000
# 2 9.0301 54.3377 15.9254 0.0000 0.0000 0.0000
# 3 122.7308 15.9254 278.0914 0.0000 0.0000 0.0000
# 4 0.0000 0.0000 0.0000 13.5415 0.0000 0.0000
# 5 0.0000 0.0000 0.0000 0.0000 40.5286 0.0000
# 6 0.0000 0.0000 0.0000 0.0000 0.0000 0.7839
#
#
#
# Elastic Compliance Matrix: (Units=1/GPa)
#
#
# Indices 1 2 3 4 5 6 
#
# 1 0.007131 -0.000267 -0.003132 0.000000 0.000000 0.000000
# 2 -0.000267 0.018728 -0.000955 0.000000 0.000000 0.000000
# 3 -0.003132 -0.000955 0.005033 0.000000 0.000000 0.000000
# 4 0.000000 0.000000 0.000000 0.073847 0.000000 0.000000
# 5 0.000000 0.000000 0.000000 0.000000 0.024674 0.000000
# 6 0.000000 0.000000 0.000000 0.000000 0.000000 1.275648
#
#
# Mechanical properties :
#
#
# Convention : Reuss Voigt Hill
#
# Bulk Modulus (GPa) = 45.07712 91.36408 68.22060
# Shear Modulus (GPa) = 3.51825 36.25202 19.88513
#
# Velocity S-wave (km/s) = 1.25863 4.04019 2.99227
# Velocity P-wave (km/s) = 4.73382 7.93112 6.53114
#
# Compressibility (1/GPa) = 0.02218420
#
# Stress axis : x y z
#
# Youngs Moduli (GPa) = 140.23509 53.39716 198.69796
#
# Poissons Ratio (x) = 0.01427 0.62228
# Poissons Ratio (y) = 0.03747 0.18967
# Poissons Ratio (z) = 0.43919 0.05097
#
# Static dielectric constant tensor:
#      x y z
#    x 1.763800 0.000000 0.000000 
#    y 0.000000 1.900180 0.000000 
#    z 0.000000 0.000000 1.916980 
# 
# From -- ./inp_files/43663.got.cif
#   From: 2010.05.17/outbox.cif.g08.bks.cpg/sg67_22_cif.got.tgz:43663.got - 2010.06.03 18:28:57.
