data_PCOD9500736
_publ_section_title
;
Structure prediction by ZEFSAII (Michael W. Deem and Ramdas Pophale) SiO2 
 PCOD9500736
Probable space group: C M M A
;
_chemical_formula_sum "Si O2"
_cell_formula_units_Z 88
_cell_length_a 28.421899
_cell_length_b 8.265964
_cell_length_c 19.331587
_cell_angle_alpha 90.000000
_cell_angle_beta 90.000000
_cell_angle_gamma 90.000000
_cell_volume 4541.654676
_symmetry_space_group_name_H-M "C M M A"
_symmetry_group_IT_number 67
_symmetry_cell_setting 'orthorhombic'
loop_
_space_group_symop_operation_xyz
x,y,z
-x,1/2-y,z
x,-y,-z
-x,1/2+y,-z
-x,-y,-z
x,1/2+y,-z
-x,y,z
x,1/2-y,z
1/2+x,1/2+y,z
1/2-x,-y,z
1/2+x,1/2-y,-z
1/2-x,y,-z
1/2-x,1/2-y,-z
1/2+x,y,-z
1/2-x,1/2+y,z
1/2+x,-y,z
loop_
_atom_site_type_symbol
_atom_site_label
_atom_site_fract_x
_atom_site_fract_y
_atom_site_fract_z
Si Si1 0.404276 0.447787 0.156404
Si Si2 0.447206 0.053046 0.299218
Si Si3 0.500000 0.445551 0.078859
Si Si4 0.698231 0.941005 0.832192
Si Si5 0.884411 0.056306 0.578473
Si Si6 0.800205 0.441527 0.325492
O O1 0.403802 0.250000 0.153874
O O2 0.414162 0.497198 0.235882
O O3 0.450814 0.500379 0.114323
O O4 0.351508 0.503797 0.136205
O O5 0.500000 0.997067 0.286230
O O6 0.447643 0.250000 0.297960
O O7 0.428137 0.002881 0.373695
O O8 0.500000 0.250000 0.083878
O O9 0.500000 0.500000 0.000000
O O10 0.698572 0.750000 0.842151
O O11 0.750000 0.000000 0.855263
O O12 0.694446 0.977115 0.749944
O O13 0.882480 0.250000 0.579264
O O14 0.886678 0.000000 0.500000
O O15 0.839713 0.990949 0.620306
O O16 0.800064 0.250000 0.314827
O O17 0.750000 0.500000 0.353099
#
# Coordination Sequence:
#
# PCOD9500736 Si02
#       6
#    16  16   8  16  16  16
#     4   9  16  30  56  83 109 145 186 220 263 322
#     4   9  16  30  54  79 100 133 182 225 263 321
#     4  10  20  36  60  90 121 150 182 221 268 325
#     4  10  18  31  52  82 111 143 183 229 274 323
#     4  11  22  36  52  73 102 137 181 228 278 332
#     4  11  21  34  52  75 103 137 176 224 280 331
#
# _framework density 19.376199
#
# number of rings (size 3 to 8) (size 9 to 14) (size 15 to 20)
#    0.000    2.000    2.727    3.818    0.000    0.727 
#    0.000    3.636    0.000    2.182    0.000    3.818 
#    0.000    0.000    0.000    0.000    0.000    0.000 
#
# Total GULP energy -245314.872192 kJ/mol
# GULP energy per Si atom -5575.338004 kJ/mol
# Density = 1.933210 g / cm^3
# Si number density = 19.376199 Si / 1000 Ang^3
#
#
#
# Elastic Constant Matrix: (Units=GPa)
#
#
# Indices 1 2 3 4 5 6 
#
# 1 186.1153 16.6791 34.8906 0.0000 0.0000 0.0000
# 2 16.6791 15.2043 -7.4141 0.0000 0.0000 0.0000
# 3 34.8906 -7.4141 46.6463 0.0000 0.0000 0.0000
# 4 0.0000 0.0000 0.0000 18.8204 0.0000 0.0000
# 5 0.0000 0.0000 0.0000 0.0000 21.5722 0.0000
# 6 0.0000 0.0000 0.0000 0.0000 0.0000 15.8256
#
#
#
# Elastic Compliance Matrix: (Units=1/GPa)
#
#
# Indices 1 2 3 4 5 6 
#
# 1 0.008013 -0.012697 -0.008011 0.000000 0.000000 0.000000
# 2 -0.012697 0.091415 0.024027 0.000000 0.000000 0.000000
# 3 -0.008011 0.024027 0.031249 0.000000 0.000000 0.000000
# 4 0.000000 0.000000 0.000000 0.053134 0.000000 0.000000
# 5 0.000000 0.000000 0.000000 0.000000 0.046356 0.000000
# 6 0.000000 0.000000 0.000000 0.000000 0.000000 0.063189
#
#
# Mechanical properties :
#
#
# Convention : Reuss Voigt Hill
#
# Bulk Modulus (GPa) = 7.28257 37.36413 22.32335
# Shear Modulus (GPa) = 15.03807 24.83100 19.93453
#
# Velocity S-wave (km/s) = 2.78890 3.58372 3.21100
# Velocity P-wave (km/s) = 3.75996 6.03734 5.02925
#
# Compressibility (1/GPa) = 0.13731412
#
# Stress axis : x y z
#
# Youngs Moduli (GPa) = 124.80158 10.93912 32.00086
#
# Poissons Ratio (x) = 0.13889 0.25637
# Poissons Ratio (y) = 1.58455 -0.76887
# Poissons Ratio (z) = 0.99984 -0.26283
#
# Static dielectric constant tensor:
#      x y z
#    x 1.726340 0.000000 0.000000 
#    y 0.000000 1.678230 0.000000 
#    z 0.000000 0.000000 1.615050 
# 
# From -- ./inp_files/36192.got.cif
#   From: 2010.05.17/outbox.cif.g08.bks.cpg/sg67_19_cif.got.tgz:36192.got - 2010.06.03 18:28:57.
