data_PCOD9500096
_publ_section_title
;
Structure prediction by ZEFSAII (Michael W. Deem and Ramdas Pophale) SiO2 
 PCOD9500096
Probable space group: C C C M
;
_chemical_formula_sum "Si O2"
_cell_formula_units_Z 58
_cell_length_a 15.000000
_cell_length_b 24.000000
_cell_length_c 18.000000
_cell_angle_alpha 90.000000
_cell_angle_beta 90.000000
_cell_angle_gamma 90.000000
_cell_volume 6480.000000
_symmetry_space_group_name_H-M "C C C M"
_symmetry_group_IT_number 66
_symmetry_cell_setting 'orthorhombic'
loop_
_space_group_symop_operation_xyz
x,y,z
-x,-y,z
x,-y,1/2-z
-x,y,1/2-z
-x,-y,-z
x,y,-z
-x,y,1/2+z
x,-y,1/2+z
1/2+x,1/2+y,z
1/2-x,1/2-y,z
1/2+x,1/2-y,1/2-z
1/2-x,1/2+y,1/2-z
1/2-x,1/2-y,-z
1/2+x,1/2+y,-z
1/2-x,1/2+y,1/2+z
1/2+x,1/2-y,1/2+z
loop_
_atom_site_type_symbol
_atom_site_label
_atom_site_fract_x
_atom_site_fract_y
_atom_site_fract_z
Si Si1 0.489858 0.355365 0.661546
Si Si2 0.328541 0.437335 0.335205
Si Si3 0.063586 0.256547 0.418260
Si Si4 0.250000 0.750000 0.000000
Si Si5 0.997529 0.633688 0.662086
Si Si6 0.843583 0.065236 0.658987
Si Si7 0.359857 0.950029 0.088834
Si Si8 0.156935 0.579936 0.587180
O O1 0.500000 0.343994 0.750000
O O2 0.401652 0.391628 0.645504
O O3 0.478757 0.298766 0.616478
O O4 0.573724 0.394765 0.643575
O O5 0.363830 0.499700 0.352889
O O6 0.316438 0.432251 0.246192
O O7 0.235509 0.431580 0.377980
O O8 0.023167 0.268023 0.500000
O O9 0.169180 0.250090 0.436215
O O10 0.042910 0.308399 0.365927
O O11 0.936242 0.585501 0.626994
O O12 0.000000 0.630412 0.750000
O O13 0.096200 0.622614 0.631435
O O14 0.759631 0.082633 0.610199
O O15 0.370612 0.015802 0.104157
O O16 0.361016 0.941623 0.000000
O O17 0.144902 0.588477 0.500000
#
# Coordination Sequence:
#
# PCOD9500096 Si02
#       8
#    16  16  16   4  16  16  16  16
#     4  10  20  35  58  85 117 151 192 236 289 341
#     4   9  18  32  57  85 119 151 192 238 286 338
#     4  10  23  41  61  85 112 141 187 237 294 340
#     4   8  24  44  64  88 106 148 186 252 296 338
#     4  12  24  38  60  84 114 147 190 236 287 344
#     4   9  18  35  54  84 118 158 193 231 279 337
#     4  10  21  35  58  86 117 152 193 237 287 335
#     4  10  21  38  55  82 119 157 191 231 279 338
#
# _framework density 8.9506169999999994
#
# number of rings (size 3 to 8) (size 9 to 14) (size 15 to 20)
#    0.414    1.655    0.000    3.310    1.931    6.069 
#    0.000    0.690    0.000    5.793    0.000    0.000 
#    0.000    0.000    0.000    0.000    0.000    0.000 
#
# Total GULP energy -323052.033312 kJ/mol
# GULP energy per Si atom -5569.862643 kJ/mol
# Density = 0.893025 g / cm^3
# Si number density = 8.950617 Si / 1000 Ang^3
#
#
#
# Elastic Constant Matrix: (Units=GPa)
#
#
# Indices 1 2 3 4 5 6 
#
# 1 22.4511 6.4588 5.5172 0.0000 0.0000 0.0000
# 2 6.4588 12.4247 9.2301 0.0000 0.0000 0.0000
# 3 5.5172 9.2301 25.1271 0.0000 0.0000 0.0000
# 4 0.0000 0.0000 0.0000 42.9528 0.0000 0.0000
# 5 0.0000 0.0000 0.0000 0.0000 32.1669 0.0000
# 6 0.0000 0.0000 0.0000 0.0000 0.0000 10.2769
#
#
#
# Elastic Compliance Matrix: (Units=1/GPa)
#
#
# Indices 1 2 3 4 5 6 
#
# 1 0.052452 -0.025733 -0.002064 0.000000 0.000000 0.000000
# 2 -0.025733 0.123316 -0.039648 0.000000 0.000000 0.000000
# 3 -0.002064 -0.039648 0.054815 0.000000 0.000000 0.000000
# 4 0.000000 0.000000 0.000000 0.023281 0.000000 0.000000
# 5 0.000000 0.000000 0.000000 0.000000 0.031088 0.000000
# 6 0.000000 0.000000 0.000000 0.000000 0.000000 0.097306
#
#
# Mechanical properties :
#
#
# Convention : Reuss Voigt Hill
#
# Bulk Modulus (GPa) = 10.45019 11.37945 10.91482
# Shear Modulus (GPa) = 9.10672 19.66578 14.38625
#
# Velocity S-wave (km/s) = 2.25793 3.31807 2.83794
# Velocity P-wave (km/s) = 3.55641 4.58803 4.10476
#
# Compressibility (1/GPa) = 0.09569208
#
# Stress axis : x y z
#
# Youngs Moduli (GPa) = 19.06520 8.10926 18.24315
#
# Poissons Ratio (x) = 0.20867 0.03766
# Poissons Ratio (y) = 0.49060 0.72330
# Poissons Ratio (z) = 0.03936 0.32152
#
# Static dielectric constant tensor:
#      x y z
#    x 1.595880 0.000000 0.000000 
#    y 0.000000 1.603740 0.000000 
#    z 0.000000 0.000000 1.603620 
# 
# From -- ./inp_files/40720.got.cif
#   From: 2010.05.17/outbox.ucp.g08.bks.cvg/sg66_21_cif.got.tgz:40720.got - 2010.06.11 16:44:13.
