data_PCOD9500019
_publ_section_title
;
Structure prediction by ZEFSAII (Michael W. Deem and Ramdas Pophale) SiO2 
 PCOD9500019
Probable space group: C C C M
;
_chemical_formula_sum "Si O2"
_cell_formula_units_Z 80
_cell_length_a 11.750603
_cell_length_b 8.861548
_cell_length_c 28.708748
_cell_angle_alpha 90.000000
_cell_angle_beta 90.000000
_cell_angle_gamma 90.000000
_cell_volume 2989.399800
_symmetry_space_group_name_H-M "C C C M"
_symmetry_group_IT_number 66
_symmetry_cell_setting 'orthorhombic'
loop_
_space_group_symop_operation_xyz
x,y,z
-x,-y,z
x,-y,1/2-z
-x,y,1/2-z
-x,-y,-z
x,y,-z
-x,y,1/2+z
x,-y,1/2+z
1/2+x,1/2+y,z
1/2-x,1/2-y,z
1/2+x,1/2-y,1/2-z
1/2-x,1/2+y,1/2-z
1/2-x,1/2-y,-z
1/2+x,1/2+y,-z
1/2-x,1/2+y,1/2+z
1/2+x,1/2-y,1/2+z
loop_
_atom_site_type_symbol
_atom_site_label
_atom_site_fract_x
_atom_site_fract_y
_atom_site_fract_z
Si Si1 0.445473 0.733848 0.850770
Si Si2 0.500000 0.249656 0.250000
Si Si3 0.264242 0.004276 0.050293
Si Si4 0.809791 0.500000 0.250000
Si Si5 0.943433 0.776801 0.550038
Si Si6 0.768242 0.486448 0.850575
O O1 0.504582 0.684875 0.802592
O O2 0.507810 0.719300 0.900554
O O3 0.333645 0.631932 0.856766
O O4 0.390891 0.901589 0.847661
O O5 0.610831 0.145671 0.245453
O O6 0.143030 0.917892 0.048495
O O7 0.360936 0.871070 0.051638
O O8 0.271644 0.077803 0.101352
O O9 0.278942 0.080325 0.000000
O O10 0.746231 0.537070 0.202242
O O11 0.004395 0.773012 0.500000
#
# Coordination Sequence:
#
# PCOD9500019 Si02
#       6
#    16   8  16   8  16  16
#     4   8  13  21  33  48  66  90 118 142 165 200
#     4   9  16  24  34  49  70  94 116 139 168 200
#     4   7   9  14  26  44  63  82 107 139 169 195
#     4   9  16  24  34  49  70  94 116 139 168 200
#     4   7   9  14  26  44  63  82 107 139 169 195
#     4   8  13  21  33  48  66  90 118 142 165 200
#
# _framework density 26.761223999999999
#
# number of rings (size 3 to 8) (size 9 to 14) (size 15 to 20)
#    0.000    4.200    0.000    3.600    0.000    0.000 
#    0.000    0.000    0.000    1.800    0.000    8.400 
#    0.000    1.600    0.000   20.000    0.000   18.400 
#
# Total GULP energy -222727.850693 kJ/mol
# GULP energy per Si atom -5568.196267 kJ/mol
# Density = 2.670031 g / cm^3
# Si number density = 26.761224 Si / 1000 Ang^3
#
#
#
# Elastic Constant Matrix: (Units=GPa)
#
#
# Indices 1 2 3 4 5 6 
#
# 1 75.5337 32.9310 37.3759 0.0000 0.0000 0.0000
# 2 32.9310 56.4422 16.2015 0.0000 0.0000 0.0000
# 3 37.3759 16.2015 423.5529 0.0000 0.0000 0.0000
# 4 0.0000 0.0000 0.0000 -7.2109 0.0000 0.0000
# 5 0.0000 0.0000 0.0000 0.0000 14.5576 0.0000
# 6 0.0000 0.0000 0.0000 0.0000 0.0000 -10.9755
#
#
#
# Elastic Compliance Matrix: (Units=1/GPa)
#
#
# Indices 1 2 3 4 5 6 
#
# 1 0.018362 -0.010362 -0.001224 0.000000 0.000000 0.000000
# 2 -0.010362 0.023761 0.000005 0.000000 0.000000 0.000000
# 3 -0.001224 0.000005 0.002469 0.000000 0.000000 0.000000
# 4 0.000000 0.000000 0.000000 -0.138679 0.000000 0.000000
# 5 0.000000 0.000000 0.000000 0.000000 0.068693 0.000000
# 6 0.000000 0.000000 0.000000 0.000000 0.000000 -0.091112
#
#
# Mechanical properties :
#
#
# Convention : Reuss Voigt Hill
#
# Bulk Modulus (GPa) = 46.66071 80.94952 63.80511
# Shear Modulus (GPa) = -58.00493 30.54224 -13.73134
#
# Velocity S-wave (km/s) = -4.66069 3.38196 -2.26764
# Velocity P-wave (km/s) = 3.38953 6.75016 4.12770
#
# Compressibility (1/GPa) = 0.02143131
#
# Stress axis : x y z
#
# Youngs Moduli (GPa) = 54.45890 42.08503 405.05816
#
# Poissons Ratio (x) = 0.43609 0.49579
# Poissons Ratio (y) = 0.56431 -0.00222
# Poissons Ratio (z) = 0.06666 -0.00023
#
# Static dielectric constant tensor:
#      x y z
#    x 2.151880 0.000000 0.000000 
#    y 0.000000 2.221310 0.000000 
#    z 0.000000 0.000000 2.249840 
# 
# From -- ./inp_files/65181.got.cif
#   From: 2010.05.17/outbox.cif.g08.bks.cpg/sg66_33_cif.got.tgz:65181.got - 2010.06.03 17:51:23.
