data_PCOD9500647
_publ_section_title
;
Structure prediction by ZEFSAII (Michael W. Deem and Ramdas Pophale) SiO2 
 PCOD9500647
Probable space group: C M M A
;
_chemical_formula_sum "Si O2"
_cell_formula_units_Z 88
_cell_length_a 19.928664
_cell_length_b 8.061137
_cell_length_c 25.550562
_cell_angle_alpha 90.000000
_cell_angle_beta 90.000000
_cell_angle_gamma 90.000000
_cell_volume 4104.638782
_symmetry_space_group_name_H-M "C M M A"
_symmetry_group_IT_number 67
_symmetry_cell_setting 'orthorhombic'
loop_
_space_group_symop_operation_xyz
x,y,z
-x,1/2-y,z
x,-y,-z
-x,1/2+y,-z
-x,-y,-z
x,1/2+y,-z
-x,y,z
x,1/2-y,z
1/2+x,1/2+y,z
1/2-x,-y,z
1/2+x,1/2-y,-z
1/2-x,y,-z
1/2-x,1/2-y,-z
1/2+x,y,-z
1/2-x,1/2+y,z
1/2+x,-y,z
loop_
_atom_site_type_symbol
_atom_site_label
_atom_site_fract_x
_atom_site_fract_y
_atom_site_fract_z
Si Si1 0.077251 0.453209 0.244926
Si Si2 0.924722 0.948403 0.060203
Si Si3 0.680218 0.049603 0.669005
Si Si4 0.645793 0.057454 0.560054
Si Si5 0.000000 0.949590 0.439320
Si Si6 0.172544 0.553884 0.849024
O O1 0.075936 0.250000 0.244106
O O2 0.116073 0.504562 0.297659
O O3 0.124253 0.512699 0.197244
O O4 0.000000 0.508831 0.241874
O O5 0.924787 0.750000 0.063087
O O6 0.000000 0.008107 0.076327
O O7 0.866067 0.013052 0.097296
O O8 0.915079 0.000000 0.000000
O O9 0.677634 0.250000 0.666127
O O10 0.681590 0.976971 0.609951
O O11 0.750000 0.000000 0.695793
O O12 0.662315 0.250000 0.557767
O O13 0.655198 0.000000 0.500000
O O14 0.568830 0.030634 0.578242
O O15 0.000000 0.750000 0.433656
O O16 0.000000 0.000000 0.500000
O O17 0.173577 0.750000 0.842350
O O18 0.250000 0.500000 0.847816
#
# Coordination Sequence:
#
# PCOD9500647 Si02
#       6
#    16  16  16  16   8  16
#     4   9  19  37  62  88 112 146 194 242 290 350
#     4  10  21  38  61  90 125 164 206 252 298 347
#     4  10  22  38  59  83 112 150 188 234 287 344
#     4  10  20  34  54  80 109 148 187 229 282 341
#     4  10  18  30  50  76 106 138 174 222 271 322
#     4  11  22  37  60  89 122 160 200 245 298 354
#
# _framework density 21.439157999999999
#
# number of rings (size 3 to 8) (size 9 to 14) (size 15 to 20)
#    0.000    2.000    0.000    4.636    1.273    4.000 
#    0.000    4.545    0.000    2.182    0.000    0.000 
#    0.000    0.000    0.000    0.000    0.000    0.000 
#
# Total GULP energy -245414.260951 kJ/mol
# GULP energy per Si atom -5577.596840 kJ/mol
# Density = 2.139036 g / cm^3
# Si number density = 21.439158 Si / 1000 Ang^3
#
#
#
# Elastic Constant Matrix: (Units=GPa)
#
#
# Indices 1 2 3 4 5 6 
#
# 1 201.2906 1.5556 93.4948 0.0000 0.0000 0.0000
# 2 1.5556 26.9733 10.4648 0.0000 0.0000 0.0000
# 3 93.4948 10.4648 120.5114 0.0000 0.0000 0.0000
# 4 0.0000 0.0000 0.0000 8.0685 0.0000 0.0000
# 5 0.0000 0.0000 0.0000 0.0000 27.6588 0.0000
# 6 0.0000 0.0000 0.0000 0.0000 0.0000 20.7757
#
#
#
# Elastic Compliance Matrix: (Units=1/GPa)
#
#
# Indices 1 2 3 4 5 6 
#
# 1 0.007868 0.001981 -0.006276 0.000000 0.000000 0.000000
# 2 0.001981 0.038865 -0.004912 0.000000 0.000000 0.000000
# 3 -0.006276 -0.004912 0.013593 0.000000 0.000000 0.000000
# 4 0.000000 0.000000 0.000000 0.123939 0.000000 0.000000
# 5 0.000000 0.000000 0.000000 0.000000 0.036155 0.000000
# 6 0.000000 0.000000 0.000000 0.000000 0.000000 0.048133
#
#
# Mechanical properties :
#
#
# Convention : Reuss Voigt Hill
#
# Bulk Modulus (GPa) = 23.85906 62.20064 43.02985
# Shear Modulus (GPa) = 16.61475 27.51793 22.06634
#
# Velocity S-wave (km/s) = 2.78685 3.58653 3.21168
# Velocity P-wave (km/s) = 4.63770 6.79901 5.81957
#
# Compressibility (1/GPa) = 0.04191281
#
# Stress axis : x y z
#
# Youngs Moduli (GPa) = 127.10309 25.73006 73.56491
#
# Poissons Ratio (x) = -0.05097 0.46168
# Poissons Ratio (y) = -0.25180 0.36134
# Poissons Ratio (z) = 0.79768 0.12638
#
# Static dielectric constant tensor:
#      x y z
#    x 1.844280 0.000000 0.000000 
#    y 0.000000 1.742340 0.000000 
#    z 0.000000 0.000000 1.794220 
# 
# From -- ./inp_files/42387.got.cif
#   From: 2010.05.17/outbox.cif.g08.bks.cpg/sg67_22_cif.got.tgz:42387.got - 2010.06.03 18:28:57.
