data_PCOD9500987
_publ_section_title
;
Structure prediction by ZEFSAII (Michael W. Deem and Ramdas Pophale) SiO2 
 PCOD9500987
Probable space group: C M M A
;
_chemical_formula_sum "Si O2"
_cell_formula_units_Z 88
_cell_length_a 25.222640
_cell_length_b 28.975084
_cell_length_c 5.705211
_cell_angle_alpha 90.000000
_cell_angle_beta 90.000000
_cell_angle_gamma 90.000000
_cell_volume 4169.528588
_symmetry_space_group_name_H-M "C M M A"
_symmetry_group_IT_number 67
_symmetry_cell_setting 'orthorhombic'
loop_
_space_group_symop_operation_xyz
x,y,z
-x,1/2-y,z
x,-y,-z
-x,1/2+y,-z
-x,-y,-z
x,1/2+y,-z
-x,y,z
x,1/2-y,z
1/2+x,1/2+y,z
1/2-x,-y,z
1/2+x,1/2-y,-z
1/2-x,y,-z
1/2-x,1/2-y,-z
1/2+x,y,-z
1/2-x,1/2+y,z
1/2+x,-y,z
loop_
_atom_site_type_symbol
_atom_site_label
_atom_site_fract_x
_atom_site_fract_y
_atom_site_fract_z
Si Si1 0.662980 0.351140 0.614233
Si Si2 0.196744 0.938680 0.863844
Si Si3 0.902945 0.250000 0.871984
Si Si4 0.840438 0.250000 0.373100
Si Si5 0.557670 0.844122 0.060218
Si Si6 0.362062 0.500000 0.500000
Si Si7 0.110778 0.086816 0.759418
O O1 0.700151 0.389389 0.731862
O O2 0.686629 0.299984 0.604756
O O3 0.644273 0.373152 0.370598
O O4 0.607665 0.347399 0.763098
O O5 0.177703 0.977716 0.687526
O O6 0.250000 0.947980 0.000000
O O7 0.148543 0.933189 0.041959
O O8 0.878738 0.250000 0.607642
O O9 0.935313 0.203036 0.913679
O O10 0.864152 0.250000 0.104962
O O11 0.500000 0.843910 0.177700
O O12 0.562948 0.887391 0.884879
O O13 0.396921 0.456624 0.411765
#
# Coordination Sequence:
#
# PCOD9500987 Si02
#       7
#    16  16   8   8  16   8  16
#     4   9  20  36  57  85 123 165 204 252 307 376
#     4  10  22  39  62  90 119 151 198 257 319 378
#     4  10  19  34  58  90 123 163 213 259 312 362
#     4  10  18  36  60  89 126 170 210 251 308 362
#     4  10  20  35  55  85 120 160 204 256 308 365
#     4  10  22  37  59  86 114 148 199 254 322 379
#     4  10  20  37  57  82 116 156 196 251 313 376
#
# _framework density 21.105504
#
# number of rings (size 3 to 8) (size 9 to 14) (size 15 to 20)
#    0.000    2.182    1.818    0.818    0.000    5.818 
#    0.000    1.818    0.000   15.273    0.000    0.000 
#    0.000    0.000    0.000    0.000    0.000    0.000 
#
# Total GULP energy -245322.515700 kJ/mol
# GULP energy per Si atom -5575.511720 kJ/mol
# Density = 2.105747 g / cm^3
# Si number density = 21.105504 Si / 1000 Ang^3
#
#
#
# Elastic Constant Matrix: (Units=GPa)
#
#
# Indices 1 2 3 4 5 6 
#
# 1 56.8273 21.5850 18.3440 0.0000 0.0000 0.0000
# 2 21.5850 164.6543 24.0940 0.0000 0.0000 0.0000
# 3 18.3440 24.0940 73.7842 0.0000 0.0000 0.0000
# 4 0.0000 0.0000 0.0000 42.6117 0.0000 0.0000
# 5 0.0000 0.0000 0.0000 0.0000 14.2349 0.0000
# 6 0.0000 0.0000 0.0000 0.0000 0.0000 -8.9600
#
#
#
# Elastic Compliance Matrix: (Units=1/GPa)
#
#
# Indices 1 2 3 4 5 6 
#
# 1 0.019718 -0.001961 -0.004262 0.000000 0.000000 0.000000
# 2 -0.001961 0.006573 -0.001659 0.000000 0.000000 0.000000
# 3 -0.004262 -0.001659 0.015154 0.000000 0.000000 0.000000
# 4 0.000000 0.000000 0.000000 0.023468 0.000000 0.000000
# 5 0.000000 0.000000 0.000000 0.000000 0.070250 0.000000
# 6 0.000000 0.000000 0.000000 0.000000 0.000000 -0.111607
#
#
# Mechanical properties :
#
#
# Convention : Reuss Voigt Hill
#
# Bulk Modulus (GPa) = 38.93840 47.03465 42.98653
# Shear Modulus (GPa) = 104.42840 24.99352 64.71096
#
# Velocity S-wave (km/s) = 7.04178 3.44498 5.54322
# Velocity P-wave (km/s) = 9.19810 6.17719 7.83463
#
# Compressibility (1/GPa) = 0.02568159
#
# Stress axis : x y z
#
# Youngs Moduli (GPa) = 50.71557 152.13351 65.98802
#
# Poissons Ratio (x) = 0.29837 0.28122
# Poissons Ratio (y) = 0.09947 0.10946
# Poissons Ratio (z) = 0.21614 0.25237
#
# Static dielectric constant tensor:
#      x y z
#    x 1.721210 0.000000 0.000000 
#    y 0.000000 1.804520 0.000000 
#    z 0.000000 0.000000 1.811710 
# 
# From -- ./inp_files/4301.got.cif
#   From: 2010.05.17/outbox.cif.g08.bks.cpg/sg67_3_cif.got.tgz:4301.got - 2010.06.03 18:28:57.
