data_PCOD9500048
_publ_section_title
;
Structure prediction by ZEFSAII (Michael W. Deem and Ramdas Pophale) SiO2 
 PCOD9500048
Probable space group: C C C M
;
_chemical_formula_sum "Si O2"
_cell_formula_units_Z 96
_cell_length_a 21.954302
_cell_length_b 21.669739
_cell_length_c 9.413902
_cell_angle_alpha 90.000000
_cell_angle_beta 90.000000
_cell_angle_gamma 90.000000
_cell_volume 4478.607339
_symmetry_space_group_name_H-M "C C C M"
_symmetry_group_IT_number 66
_symmetry_cell_setting 'orthorhombic'
loop_
_space_group_symop_operation_xyz
x,y,z
-x,-y,z
x,-y,1/2-z
-x,y,1/2-z
-x,-y,-z
x,y,-z
-x,y,1/2+z
x,-y,1/2+z
1/2+x,1/2+y,z
1/2-x,1/2-y,z
1/2+x,1/2-y,1/2-z
1/2-x,1/2+y,1/2-z
1/2-x,1/2-y,-z
1/2+x,1/2+y,-z
1/2-x,1/2+y,1/2+z
1/2+x,1/2-y,1/2+z
loop_
_atom_site_type_symbol
_atom_site_label
_atom_site_fract_x
_atom_site_fract_y
_atom_site_fract_z
Si Si1 0.063404 0.191867 0.668936
Si Si2 0.752778 0.438987 0.661930
Si Si3 0.247193 0.321277 0.339652
Si Si4 0.566213 0.557733 0.671064
Si Si5 0.401855 0.939970 0.339184
Si Si6 0.103476 0.325364 0.341213
O O1 0.052660 0.193171 0.500000
O O2 0.093843 0.125519 0.696225
O O3 0.096852 0.254807 0.707953
O O4 0.000000 0.193639 0.750000
O O5 0.736504 0.500000 0.750000
O O6 0.731026 0.442866 0.500000
O O7 0.731390 0.375847 0.737236
O O8 0.827341 0.438731 0.657131
O O9 0.274831 0.323279 0.500000
O O10 0.250000 0.250000 0.289981
O O11 0.175544 0.335536 0.353818
O O12 0.596687 0.500000 0.750000
O O13 0.500000 0.561717 0.750000
O O14 0.560652 0.547977 0.500000
O O15 0.423676 0.943897 0.500000
O O16 0.421729 0.876883 0.263433
O O17 0.419651 0.000000 0.250000
O O18 0.076963 0.331557 0.500000
#
# Coordination Sequence:
#
# PCOD9500048 Si02
#       6
#    16  16  16  16  16  16
#     4   9  18  30  45  65  89 117 146 179 219 262
#     4   9  16  26  42  64  89 115 146 185 224 261
#     4   9  17  29  46  67  90 118 150 182 219 264
#     4   9  15  24  39  60  83 107 138 174 212 249
#     4   9  16  26  42  65  89 114 145 182 221 259
#     4   9  17  30  46  65  90 118 147 180 219 262
#
# _framework density 21.435234999999999
#
# number of rings (size 3 to 8) (size 9 to 14) (size 15 to 20)
#    0.000    3.000    0.000    2.000    0.000    5.667 
#    0.000    0.000    0.000    1.500    0.000    5.833 
#    0.000    0.000    0.000    0.000    0.000    0.000 
#
# Total GULP energy -267594.764178 kJ/mol
# GULP energy per Si atom -5574.890920 kJ/mol
# Density = 2.138645 g / cm^3
# Si number density = 21.435235 Si / 1000 Ang^3
#
#
#
# Elastic Constant Matrix: (Units=GPa)
#
#
# Indices 1 2 3 4 5 6 
#
# 1 37.9749 3.2716 14.4838 0.0000 0.0000 0.0000
# 2 3.2716 227.9611 134.2361 0.0000 0.0000 0.0000
# 3 14.4838 134.2361 140.9884 0.0000 0.0000 0.0000
# 4 0.0000 0.0000 0.0000 38.6704 0.0000 0.0000
# 5 0.0000 0.0000 0.0000 0.0000 0.7860 0.0000
# 6 0.0000 0.0000 0.0000 0.0000 0.0000 29.9179
#
#
#
# Elastic Compliance Matrix: (Units=1/GPa)
#
#
# Indices 1 2 3 4 5 6 
#
# 1 0.028263 0.002968 -0.005730 0.000000 0.000000 0.000000
# 2 0.002968 0.010296 -0.010108 0.000000 0.000000 0.000000
# 3 -0.005730 -0.010108 0.017305 0.000000 0.000000 0.000000
# 4 0.000000 0.000000 0.000000 0.025860 0.000000 0.000000
# 5 0.000000 0.000000 0.000000 0.000000 1.272206 0.000000
# 6 0.000000 0.000000 0.000000 0.000000 0.000000 0.033425
#
#
# Mechanical properties :
#
#
# Convention : Reuss Voigt Hill
#
# Bulk Modulus (GPa) = 33.19429 78.98971 56.09200
# Shear Modulus (GPa) = 3.51337 30.87038 17.19187
#
# Velocity S-wave (km/s) = 1.28165 3.79907 2.83510
# Velocity P-wave (km/s) = 4.20828 7.49496 6.07799
#
# Compressibility (1/GPa) = 0.03012566
#
# Stress axis : x y z
#
# Youngs Moduli (GPa) = 35.38224 97.12165 57.78530
#
# Poissons Ratio (x) = -0.28828 0.33108
# Poissons Ratio (y) = -0.10502 0.58410
# Poissons Ratio (z) = 0.20272 0.98172
#
# Static dielectric constant tensor:
#      x y z
#    x 1.826970 0.000000 0.000000 
#    y 0.000000 1.805890 0.000000 
#    z 0.000000 0.000000 1.750430 
# 
# From -- ./inp_files/10276.got.cif
#   From: 2010.05.17/outbox.cif.g08.bks.cpg/sg66_6_cif.got.tgz:10276.got - 2010.06.03 17:51:23.
