data_PCOD9500514
_publ_section_title
;
Structure prediction by ZEFSAII (Michael W. Deem and Ramdas Pophale) SiO2 
 PCOD9500514
Probable space group: C M M A
;
_chemical_formula_sum "Si O2"
_cell_formula_units_Z 112
_cell_length_a 15.530074
_cell_length_b 14.471817
_cell_length_c 25.880127
_cell_angle_alpha 90.000000
_cell_angle_beta 90.000000
_cell_angle_gamma 90.000000
_cell_volume 5816.516848
_symmetry_space_group_name_H-M "C M M A"
_symmetry_group_IT_number 67
_symmetry_cell_setting 'orthorhombic'
loop_
_space_group_symop_operation_xyz
x,y,z
-x,1/2-y,z
x,-y,-z
-x,1/2+y,-z
-x,-y,-z
x,1/2+y,-z
-x,y,z
x,1/2-y,z
1/2+x,1/2+y,z
1/2-x,-y,z
1/2+x,1/2-y,-z
1/2-x,y,-z
1/2-x,1/2-y,-z
1/2+x,y,-z
1/2-x,1/2+y,z
1/2+x,-y,z
loop_
_atom_site_type_symbol
_atom_site_label
_atom_site_fract_x
_atom_site_fract_y
_atom_site_fract_z
Si Si1 0.595598 0.895526 0.480121
Si Si2 0.405167 0.354175 0.403541
Si Si3 0.400158 0.522851 0.080508
Si Si4 0.394935 0.356328 0.824875
Si Si5 0.780881 0.638109 0.615224
Si Si6 0.098374 0.862466 0.708519
Si Si7 0.349453 0.854889 0.984343
O O1 0.500000 0.872691 0.458736
O O2 0.606304 0.845051 0.534620
O O3 0.668361 0.881543 0.437801
O O4 0.595892 0.000000 0.500000
O O5 0.500000 0.398139 0.394922
O O6 0.409296 0.250000 0.381991
O O7 0.316751 0.399635 0.384630
O O8 0.500000 0.501410 0.089924
O O9 0.364104 0.574795 0.130671
O O10 0.395146 0.595131 0.032793
O O11 0.357488 0.427389 0.062476
O O12 0.500000 0.354499 0.826885
O O13 0.366636 0.250000 0.833785
O O14 0.372947 0.386480 0.766669
O O15 0.774295 0.750000 0.617734
O O16 0.837857 0.607166 0.663612
O O17 0.095914 0.750000 0.707680
O O18 0.000000 0.894313 0.700021
O O19 0.380308 0.750000 0.974952
O O20 0.250000 0.850364 0.000000
#
# Coordination Sequence:
#
# PCOD9500514 Si02
#       7
#    16  16  16  16  16  16  16
#     4  10  20  31  43  64  92 124 155 191 245 306
#     4   9  18  31  44  61  89 123 159 197 237 289
#     4  10  18  28  47  73 102 139 176 214 257 309
#     4   8  14  25  42  68 102 133 160 196 251 313
#     4  10  18  28  46  69  93 124 161 200 247 302
#     4   8  14  25  42  67  98 125 150 191 246 306
#     4  10  20  32  45  67 103 144 180 215 257 300
#
# _framework density 19.255510999999998
#
# number of rings (size 3 to 8) (size 9 to 14) (size 15 to 20)
#    0.000    2.714    0.000    4.286    0.000    5.429 
#    0.000    0.000    0.000    0.000    7.429    0.000 
#    0.000    5.714    0.000   26.571    0.000    0.286 
#
# Total GULP energy -312165.909393 kJ/mol
# GULP energy per Si atom -5574.391239 kJ/mol
# Density = 1.921168 g / cm^3
# Si number density = 19.255511 Si / 1000 Ang^3
#
#
#
# Elastic Constant Matrix: (Units=GPa)
#
#
# Indices 1 2 3 4 5 6 
#
# 1 113.6532 24.4447 57.9545 0.0000 0.0000 0.0000
# 2 24.4447 92.5888 35.8115 0.0000 0.0000 0.0000
# 3 57.9545 35.8115 104.2798 0.0000 0.0000 0.0000
# 4 0.0000 0.0000 0.0000 17.3713 0.0000 0.0000
# 5 0.0000 0.0000 0.0000 0.0000 5.1238 0.0000
# 6 0.0000 0.0000 0.0000 0.0000 0.0000 19.1223
#
#
#
# Elastic Compliance Matrix: (Units=1/GPa)
#
#
# Indices 1 2 3 4 5 6 
#
# 1 0.012317 -0.000697 -0.006606 0.000000 0.000000 0.000000
# 2 -0.000697 0.012494 -0.003903 0.000000 0.000000 0.000000
# 3 -0.006606 -0.003903 0.014602 0.000000 0.000000 0.000000
# 4 0.000000 0.000000 0.000000 0.057566 0.000000 0.000000
# 5 0.000000 0.000000 0.000000 0.000000 0.195167 0.000000
# 6 0.000000 0.000000 0.000000 0.000000 0.000000 0.052295
#
#
# Mechanical properties :
#
#
# Convention : Reuss Voigt Hill
#
# Bulk Modulus (GPa) = 58.82302 60.77145 59.79724
# Shear Modulus (GPa) = 13.42209 21.14422 17.28316
#
# Velocity S-wave (km/s) = 2.64304 3.31733 2.99920
# Velocity P-wave (km/s) = 6.31895 6.80456 6.56625
#
# Compressibility (1/GPa) = 0.01700015
#
# Stress axis : x y z
#
# Youngs Moduli (GPa) = 81.18745 80.03717 68.48602
#
# Poissons Ratio (x) = 0.05577 0.45243
# Poissons Ratio (y) = 0.05657 0.26733
# Poissons Ratio (z) = 0.53633 0.31242
#
# Static dielectric constant tensor:
#      x y z
#    x 1.715660 0.000000 0.000000 
#    y 0.000000 2.488780 0.000000 
#    z 0.000000 0.000000 1.659170 
# 
# From -- ./inp_files/44381.got.cif
#   From: 2010.05.17/outbox.cif.g08.bks.cpg/sg67_23_cif.got.tgz:44381.got - 2010.06.03 18:28:57.
