data_PCOD9500132
_publ_section_title
;
Structure prediction by ZEFSAII (Michael W. Deem and Ramdas Pophale) SiO2 
 PCOD9500132
Probable space group: C C C M
;
_chemical_formula_sum "Si O2"
_cell_formula_units_Z 36
_cell_length_a 18.000000
_cell_length_b 15.000000
_cell_length_c 15.000000
_cell_angle_alpha 90.000000
_cell_angle_beta 90.000000
_cell_angle_gamma 90.000000
_cell_volume 4050.000000
_symmetry_space_group_name_H-M "C C C M"
_symmetry_group_IT_number 66
_symmetry_cell_setting 'orthorhombic'
loop_
_space_group_symop_operation_xyz
x,y,z
-x,-y,z
x,-y,1/2-z
-x,y,1/2-z
-x,-y,-z
x,y,-z
-x,y,1/2+z
x,-y,1/2+z
1/2+x,1/2+y,z
1/2-x,1/2-y,z
1/2+x,1/2-y,1/2-z
1/2-x,1/2+y,1/2-z
1/2-x,1/2-y,-z
1/2+x,1/2+y,-z
1/2-x,1/2+y,1/2+z
1/2+x,1/2-y,1/2+z
loop_
_atom_site_type_symbol
_atom_site_label
_atom_site_fract_x
_atom_site_fract_y
_atom_site_fract_z
Si Si1 0.455033 0.095364 0.893046
Si Si2 0.577305 0.447828 0.894003
Si Si3 0.809681 0.330875 0.274175
Si Si4 0.409053 0.234639 0.394001
Si Si5 0.700571 0.500000 0.750000
O O1 0.380064 0.130222 0.837590
O O2 0.517699 0.172603 0.882555
O O3 0.500000 0.000000 0.869588
O O4 0.436665 0.087945 0.000000
O O5 0.500000 0.500000 0.872348
O O6 0.572931 0.340100 0.879845
O O7 0.644825 0.484951 0.833885
O O8 0.590914 0.461697 0.000000
O O9 0.750000 0.250000 0.302713
O O10 0.849561 0.297307 0.181550
O O11 0.754749 0.414749 0.259691
O O12 0.385912 0.224881 0.500000
#
# Coordination Sequence:
#
# PCOD9500132 Si02
#       5
#    16  16  16  16   8
#     4  10  23  44  68  92 126 176 225 265 313 386
#     4  10  23  42  65  90 120 166 217 260 306 376
#     4  12  25  39  63 100 134 167 207 271 336 382
#     4  10  22  43  69  92 123 171 219 257 309 388
#     4  12  25  40  61  92 130 166 202 256 329 390
#
# _framework density 8.8888890000000007
#
# number of rings (size 3 to 8) (size 9 to 14) (size 15 to 20)
#    0.000    1.333    2.222    2.333    3.111    5.333 
#    0.000    0.000    0.000    0.000    0.000    0.000 
#    0.000    0.000    0.000    0.000    0.000    0.000 
#
# Total GULP energy -200571.526684 kJ/mol
# GULP energy per Si atom -5571.431297 kJ/mol
# Density = 0.886866 g / cm^3
# Si number density = 8.888889 Si / 1000 Ang^3
#
#
#
# Elastic Constant Matrix: (Units=GPa)
#
#
# Indices 1 2 3 4 5 6 
#
# 1 162.5377 78.7649 76.5941 0.0000 0.0000 0.0000
# 2 78.7649 168.7821 54.9382 0.0000 0.0000 0.0000
# 3 76.5941 54.9382 116.4520 0.0000 0.0000 0.0000
# 4 0.0000 0.0000 0.0000 33.9039 0.0000 0.0000
# 5 0.0000 0.0000 0.0000 0.0000 44.9760 0.0000
# 6 0.0000 0.0000 0.0000 0.0000 0.0000 55.8915
#
#
#
# Elastic Compliance Matrix: (Units=1/GPa)
#
#
# Indices 1 2 3 4 5 6 
#
# 1 0.010056 -0.003001 -0.005199 0.000000 0.000000 0.000000
# 2 -0.003001 0.007895 -0.001751 0.000000 0.000000 0.000000
# 3 -0.005199 -0.001751 0.012833 0.000000 0.000000 0.000000
# 4 0.000000 0.000000 0.000000 0.029495 0.000000 0.000000
# 5 0.000000 0.000000 0.000000 0.000000 0.022234 0.000000
# 6 0.000000 0.000000 0.000000 0.000000 0.000000 0.017892
#
#
# Mechanical properties :
#
#
# Convention : Reuss Voigt Hill
#
# Bulk Modulus (GPa) = 91.88466 96.48514 94.18490
# Shear Modulus (GPa) = 40.34407 42.78592 41.56500
#
# Velocity S-wave (km/s) = 4.76894 4.91114 4.84056
# Velocity P-wave (km/s) = 9.06207 9.30322 9.18343
#
# Compressibility (1/GPa) = 0.01088321
#
# Stress axis : x y z
#
# Youngs Moduli (GPa) = 99.43858 126.66086 77.92638
#
# Poissons Ratio (x) = 0.38009 0.40512
# Poissons Ratio (y) = 0.29840 0.13644
# Poissons Ratio (z) = 0.51696 0.22177
#
# Static dielectric constant tensor:
#      x y z
#    x 1.603490 0.000000 0.000000 
#    y 0.000000 1.631110 0.000000 
#    z 0.000000 0.000000 1.645620 
# 
# From -- ./inp_files/29806.got.cif
#   From: 2010.05.17/outbox.ucp.g08.bks.cvg/sg66_15_cif.got.tgz:29806.got - 2010.06.11 16:44:13.
