data_PCOD9500348
_publ_section_title
;
Structure prediction by ZEFSAII (Michael W. Deem and Ramdas Pophale) SiO2 
 PCOD9500348
Probable space group: C M M A
;
_chemical_formula_sum "Si O2"
_cell_formula_units_Z 88
_cell_length_a 21.346156
_cell_length_b 25.494833
_cell_length_c 7.447905
_cell_angle_alpha 90.000000
_cell_angle_beta 90.000000
_cell_angle_gamma 90.000000
_cell_volume 4053.274150
_symmetry_space_group_name_H-M "C M M A"
_symmetry_group_IT_number 67
_symmetry_cell_setting 'orthorhombic'
loop_
_space_group_symop_operation_xyz
x,y,z
-x,1/2-y,z
x,-y,-z
-x,1/2+y,-z
-x,-y,-z
x,1/2+y,-z
-x,y,z
x,1/2-y,z
1/2+x,1/2+y,z
1/2-x,-y,z
1/2+x,1/2-y,-z
1/2-x,y,-z
1/2-x,1/2-y,-z
1/2+x,y,-z
1/2-x,1/2+y,z
1/2+x,-y,z
loop_
_atom_site_type_symbol
_atom_site_label
_atom_site_fract_x
_atom_site_fract_y
_atom_site_fract_z
Si Si1 0.893960 0.364224 0.792266
Si Si2 0.248031 0.637317 0.713313
Si Si3 0.426852 0.250000 0.766486
Si Si4 0.000000 0.442442 0.784580
Si Si5 0.904207 0.250000 0.804744
Si Si6 0.000000 0.562476 0.775280
Si Si7 0.741704 0.750000 0.716937
Si Si8 0.886547 0.865084 0.781874
O O1 0.819787 0.374854 0.762111
O O2 0.938348 0.410517 0.727508
O O3 0.919691 0.307384 0.725600
O O4 0.899096 0.360147 0.006713
O O5 0.250000 0.639522 0.500000
O O6 0.233238 0.695585 0.789341
O O7 0.182811 0.609839 0.760822
O O8 0.500000 0.250000 0.717895
O O9 0.396197 0.305570 0.705306
O O10 0.422483 0.250000 0.985322
O O11 0.000000 0.501994 0.720518
O O12 0.000000 0.440577 0.004572
O O13 0.829832 0.250000 0.775496
O O14 0.060525 0.595271 0.714321
O O15 0.750000 0.750000 0.500000
#
# Coordination Sequence:
#
# PCOD9500348 Si02
#       8
#    16  16   8   8   8   8   8  16
#     4   9  18  31  51  78 103 132 165 204 255 298
#     4  10  19  32  50  74 104 138 170 204 247 301
#     4  10  17  27  47  79 108 130 163 207 257 301
#     4   9  18  33  54  74 103 127 166 214 256 303
#     4   8  16  24  45  76 104 126 159 203 246 294
#     4   9  18  33  52  78  97 131 168 210 260 297
#     4   8  15  29  44  66 101 141 167 190 241 303
#     4  10  18  31  52  77 105 131 166 209 248 302
#
# _framework density 21.710844000000002
#
# number of rings (size 3 to 8) (size 9 to 14) (size 15 to 20)
#    0.000    2.727    0.909    1.091    3.818    0.000 
#    0.000    7.273    0.000    7.636    0.000    0.000 
#    0.000    0.000    0.000    0.000    0.000    0.000 
#
# Total GULP energy -245023.443307 kJ/mol
# GULP energy per Si atom -5568.714621 kJ/mol
# Density = 2.166143 g / cm^3
# Si number density = 21.710844 Si / 1000 Ang^3
#
#
#
# Elastic Constant Matrix: (Units=GPa)
#
#
# Indices 1 2 3 4 5 6 
#
# 1 188.0796 92.7135 -8.6238 0.0000 0.0000 0.0000
# 2 92.7135 151.1910 5.9352 0.0000 0.0000 0.0000
# 3 -8.6238 5.9352 61.8607 0.0000 0.0000 0.0000
# 4 0.0000 0.0000 0.0000 -3.6140 0.0000 0.0000
# 5 0.0000 0.0000 0.0000 0.0000 -99.8075 0.0000
# 6 0.0000 0.0000 0.0000 0.0000 0.0000 0.9456
#
#
#
# Elastic Compliance Matrix: (Units=1/GPa)
#
#
# Indices 1 2 3 4 5 6 
#
# 1 0.007765 -0.004822 0.001545 0.000000 0.000000 0.000000
# 2 -0.004822 0.009634 -0.001597 0.000000 0.000000 0.000000
# 3 0.001545 -0.001597 0.016534 0.000000 0.000000 0.000000
# 4 0.000000 0.000000 0.000000 -0.276702 0.000000 0.000000
# 5 0.000000 0.000000 0.000000 0.000000 -0.010019 0.000000
# 6 0.000000 0.000000 0.000000 0.000000 0.000000 1.057515
#
#
# Mechanical properties :
#
#
# Convention : Reuss Voigt Hill
#
# Bulk Modulus (GPa) = 41.34727 64.57568 52.96148
# Shear Modulus (GPa) = 6.07877 0.24525 3.16201
#
# Velocity S-wave (km/s) = 1.67510 0.33646 1.20813
# Velocity P-wave (km/s) = 4.77778 5.47348 5.13742
#
# Compressibility (1/GPa) = 0.02418539
#
# Stress axis : x y z
#
# Youngs Moduli (GPa) = 128.78538 103.79992 60.48165
#
# Poissons Ratio (x) = 0.50055 -0.09345
# Poissons Ratio (y) = 0.62103 0.09656
# Poissons Ratio (z) = -0.19899 0.16572
#
# Static dielectric constant tensor:
#      x y z
#    x 1.821980 0.000000 0.000000 
#    y 0.000000 1.818660 0.000000 
#    z 0.000000 0.000000 1.798320 
# 
# From -- ./inp_files/11334.got.cif
#   From: 2010.05.17/outbox.cif.g08.bks.cpg/sg67_6_cif.got.tgz:11334.got - 2010.06.03 18:28:57.
