data_PCOD9500578
_publ_section_title
;
Structure prediction by ZEFSAII (Michael W. Deem and Ramdas Pophale) SiO2 
 PCOD9500578
Probable space group: C M M A
;
_chemical_formula_sum "Si O2"
_cell_formula_units_Z 112
_cell_length_a 15.754913
_cell_length_b 29.756103
_cell_length_c 12.625900
_cell_angle_alpha 90.000000
_cell_angle_beta 90.000000
_cell_angle_gamma 90.000000
_cell_volume 5919.082701
_symmetry_space_group_name_H-M "C M M A"
_symmetry_group_IT_number 67
_symmetry_cell_setting 'orthorhombic'
loop_
_space_group_symop_operation_xyz
x,y,z
-x,1/2-y,z
x,-y,-z
-x,1/2+y,-z
-x,-y,-z
x,1/2+y,-z
-x,y,z
x,1/2-y,z
1/2+x,1/2+y,z
1/2-x,-y,z
1/2+x,1/2-y,-z
1/2-x,y,-z
1/2-x,1/2-y,-z
1/2+x,y,-z
1/2-x,1/2+y,z
1/2+x,-y,z
loop_
_atom_site_type_symbol
_atom_site_label
_atom_site_fract_x
_atom_site_fract_y
_atom_site_fract_z
Si Si1 0.403579 0.062138 0.827987
Si Si2 0.603117 0.300509 0.976141
Si Si3 0.664131 0.029375 0.206201
Si Si4 0.898629 0.388415 0.379066
Si Si5 0.895706 0.103532 0.951014
Si Si6 0.344944 0.545315 0.545643
Si Si7 0.896629 0.300124 0.269926
O O1 0.500000 0.079124 0.828277
O O2 0.365657 0.079248 0.716472
O O3 0.403087 0.008539 0.828041
O O4 0.367928 0.082577 0.935654
O O5 0.500000 0.299651 0.977823
O O6 0.632112 0.250000 0.006246
O O7 0.626936 0.308865 0.852881
O O8 0.627894 0.343689 0.045191
O O9 0.649959 0.073451 0.136810
O O10 0.654713 0.042057 0.328841
O O11 0.750000 0.000000 0.190782
O O12 0.880126 0.409930 0.492075
O O13 0.866460 0.339118 0.348060
O O14 0.000000 0.387127 0.372847
O O15 0.000000 0.099878 0.940360
O O16 0.388573 0.500000 0.500000
O O17 0.250000 0.544366 0.500000
O O18 0.868435 0.250000 0.298450
O O19 0.000000 0.300132 0.271434
#
# Coordination Sequence:
#
# PCOD9500578 Si02
#       7
#    16  16  16  16  16  16  16
#     4  10  19  32  49  74 107 136 162 206 262 308
#     4   8  13  25  48  77 110 144 171 198 245 310
#     4  12  23  36  51  69  97 139 186 217 255 312
#     4  10  18  29  52  80 103 130 168 214 257 301
#     4  10  20  33  50  78 114 141 167 211 260 309
#     4  11  21  39  53  66  94 132 174 220 261 300
#     4   8  13  24  46  78 110 134 162 204 252 302
#
# _framework density 18.921849999999999
#
# number of rings (size 3 to 8) (size 9 to 14) (size 15 to 20)
#    0.000    2.143    4.286    1.714    0.000    3.714 
#    0.000    0.000    0.000    1.286    0.000    9.000 
#    0.000    0.000    0.000    0.000    0.000    0.143 
#
# Total GULP energy -312001.481175 kJ/mol
# GULP energy per Si atom -5571.455021 kJ/mol
# Density = 1.887878 g / cm^3
# Si number density = 18.921850 Si / 1000 Ang^3
#
#
#
# Elastic Constant Matrix: (Units=GPa)
#
#
# Indices 1 2 3 4 5 6 
#
# 1 23.6271 19.5519 22.1281 0.0000 0.0000 0.0000
# 2 19.5519 182.8590 76.4257 0.0000 0.0000 0.0000
# 3 22.1281 76.4257 97.9450 0.0000 0.0000 0.0000
# 4 0.0000 0.0000 0.0000 73.5748 0.0000 0.0000
# 5 0.0000 0.0000 0.0000 0.0000 14.7570 0.0000
# 6 0.0000 0.0000 0.0000 0.0000 0.0000 7.4346
#
#
#
# Elastic Compliance Matrix: (Units=1/GPa)
#
#
# Indices 1 2 3 4 5 6 
#
# 1 0.053806 -0.000998 -0.011377 0.000000 0.000000 0.000000
# 2 -0.000998 0.008134 -0.006121 0.000000 0.000000 0.000000
# 3 -0.011377 -0.006121 0.017557 0.000000 0.000000 0.000000
# 4 0.000000 0.000000 0.000000 0.013592 0.000000 0.000000
# 5 0.000000 0.000000 0.000000 0.000000 0.067764 0.000000
# 6 0.000000 0.000000 0.000000 0.000000 0.000000 0.134506
#
#
# Mechanical properties :
#
#
# Convention : Reuss Voigt Hill
#
# Bulk Modulus (GPa) = 23.52774 60.07138 41.79956
# Shear Modulus (GPa) = 14.42925 31.57498 23.00212
#
# Velocity S-wave (km/s) = 2.76446 4.08941 3.49038
# Velocity P-wave (km/s) = 4.75929 7.35620 6.19534
#
# Compressibility (1/GPa) = 0.04250302
#
# Stress axis : x y z
#
# Youngs Moduli (GPa) = 18.58540 122.94421 56.95867
#
# Poissons Ratio (x) = 0.12269 0.64804
# Poissons Ratio (y) = 0.01855 0.34866
# Poissons Ratio (z) = 0.21145 0.75257
#
# Static dielectric constant tensor:
#      x y z
#    x 1.937140 0.000000 0.000000 
#    y 0.000000 1.712770 0.000000 
#    z 0.000000 0.000000 1.658740 
# 
# From -- ./inp_files/18580.got.cif
#   From: 2010.05.17/outbox.cif.g08.bks.cpg/sg67_10_cif.got.tgz:18580.got - 2010.06.03 18:28:57.
