data_PCOD9500168
_publ_section_title
;
Structure prediction by ZEFSAII (Michael W. Deem and Ramdas Pophale) SiO2 
 PCOD9500168
Probable space group: C M M A
;
_chemical_formula_sum "Si O2"
_cell_formula_units_Z 80
_cell_length_a 15.001486
_cell_length_b 8.635193
_cell_length_c 27.452431
_cell_angle_alpha 90.000000
_cell_angle_beta 90.000000
_cell_angle_gamma 90.000000
_cell_volume 3556.207867
_symmetry_space_group_name_H-M "C M M A"
_symmetry_group_IT_number 67
_symmetry_cell_setting 'orthorhombic'
loop_
_space_group_symop_operation_xyz
x,y,z
-x,1/2-y,z
x,-y,-z
-x,1/2+y,-z
-x,-y,-z
x,1/2+y,-z
-x,y,z
x,1/2-y,z
1/2+x,1/2+y,z
1/2-x,-y,z
1/2+x,1/2-y,-z
1/2-x,y,-z
1/2-x,1/2-y,-z
1/2+x,y,-z
1/2-x,1/2+y,z
1/2+x,-y,z
loop_
_atom_site_type_symbol
_atom_site_label
_atom_site_fract_x
_atom_site_fract_y
_atom_site_fract_z
Si Si1 0.351992 0.564373 0.949700
Si Si2 0.394853 0.078262 0.451348
Si Si3 0.648142 0.065110 0.251168
Si Si4 0.148056 0.564565 0.849154
Si Si5 0.150423 0.433081 0.350398
O O1 0.351001 0.750000 0.950011
O O2 0.250000 0.500000 0.949546
O O3 0.392094 0.501647 0.899201
O O4 0.392091 0.500000 0.000000
O O5 0.500000 0.096371 0.460080
O O6 0.355790 0.250000 0.443094
O O7 0.356813 0.000000 0.500000
O O8 0.387794 0.978032 0.402681
O O9 0.649864 0.250000 0.248308
O O10 0.750000 0.000000 0.252471
O O11 0.607880 0.995554 0.201628
O O12 0.607520 0.010936 0.302514
O O13 0.149237 0.750000 0.850311
O O14 0.250000 0.500000 0.848592
O O15 0.150685 0.250000 0.343320
O O16 0.250000 0.500000 0.352728
#
# Coordination Sequence:
#
# PCOD9500168 Si02
#       5
#    16  16  16  16  16
#     4  10  16  22  29  40  58  85 123 169 217 263
#     4  10  21  38  58  79 103 131 163 198 238 286
#     4  10  17  27  41  59  83 111 144 183 229 277
#     4  10  16  23  33  47  67  95 131 172 219 269
#     4  11  21  34  52  75 102 130 163 202 244 287
#
# _framework density 22.495871999999999
#
# number of rings (size 3 to 8) (size 9 to 14) (size 15 to 20)
#    0.000    1.800    0.000   12.000    0.000    1.600 
#    0.000    2.000    0.000    0.000    0.000    0.000 
#    0.000    0.000    0.000    0.000    0.000    1.000 
#
# Total GULP energy -223401.441177 kJ/mol
# GULP energy per Si atom -5585.036029 kJ/mol
# Density = 2.244467 g / cm^3
# Si number density = 22.495872 Si / 1000 Ang^3
#
#
#
# Elastic Constant Matrix: (Units=GPa)
#
#
# Indices 1 2 3 4 5 6 
#
# 1 49.6701 8.0672 14.3823 0.0000 0.0000 0.0000
# 2 8.0672 252.8786 96.3439 0.0000 0.0000 0.0000
# 3 14.3823 96.3439 243.1535 0.0000 0.0000 0.0000
# 4 0.0000 0.0000 0.0000 25.8396 0.0000 0.0000
# 5 0.0000 0.0000 0.0000 0.0000 8.5154 0.0000
# 6 0.0000 0.0000 0.0000 0.0000 0.0000 0.8381
#
#
#
# Elastic Compliance Matrix: (Units=1/GPa)
#
#
# Indices 1 2 3 4 5 6 
#
# 1 0.020495 -0.000226 -0.001123 0.000000 0.000000 0.000000
# 2 -0.000226 0.004660 -0.001833 0.000000 0.000000 0.000000
# 3 -0.001123 -0.001833 0.004905 0.000000 0.000000 0.000000
# 4 0.000000 0.000000 0.000000 0.038700 0.000000 0.000000
# 5 0.000000 0.000000 0.000000 0.000000 0.117434 0.000000
# 6 0.000000 0.000000 0.000000 0.000000 0.000000 1.193233
#
#
# Mechanical properties :
#
#
# Convention : Reuss Voigt Hill
#
# Bulk Modulus (GPa) = 42.20046 87.03211 64.61628
# Shear Modulus (GPa) = 3.58760 35.49920 19.54340
#
# Velocity S-wave (km/s) = 1.26422 3.97675 2.95066
# Velocity P-wave (km/s) = 4.57503 7.73680 6.35567
#
# Compressibility (1/GPa) = 0.02369642
#
# Stress axis : x y z
#
# Youngs Moduli (GPa) = 48.79324 214.58971 203.85944
#
# Poissons Ratio (x) = 0.04852 0.22886
# Poissons Ratio (y) = 0.01103 0.37369
# Poissons Ratio (z) = 0.05478 0.39336
#
# Static dielectric constant tensor:
#      x y z
#    x 1.852320 0.000000 0.000000 
#    y 0.000000 1.772960 0.000000 
#    z 0.000000 0.000000 1.921270 
# 
# From -- ./inp_files/45750.got.cif
#   From: 2010.05.17/outbox.cif.g08.bks.cpg/sg67_23_cif.got.tgz:45750.got - 2010.06.03 18:28:57.
