data_PCOD9500722
_publ_section_title
;
Structure prediction by ZEFSAII (Michael W. Deem and Ramdas Pophale) SiO2 
 PCOD9500722
Probable space group: C M M A
;
_chemical_formula_sum "Si O2"
_cell_formula_units_Z 96
_cell_length_a 19.363466
_cell_length_b 15.018522
_cell_length_c 15.353504
_cell_angle_alpha 90.000000
_cell_angle_beta 90.000000
_cell_angle_gamma 90.000000
_cell_volume 4464.962326
_symmetry_space_group_name_H-M "C M M A"
_symmetry_group_IT_number 67
_symmetry_cell_setting 'orthorhombic'
loop_
_space_group_symop_operation_xyz
x,y,z
-x,1/2-y,z
x,-y,-z
-x,1/2+y,-z
-x,-y,-z
x,1/2+y,-z
-x,y,z
x,1/2-y,z
1/2+x,1/2+y,z
1/2-x,-y,z
1/2+x,1/2-y,-z
1/2-x,y,-z
1/2-x,1/2-y,-z
1/2+x,y,-z
1/2-x,1/2+y,z
1/2+x,-y,z
loop_
_atom_site_type_symbol
_atom_site_label
_atom_site_fract_x
_atom_site_fract_y
_atom_site_fract_z
Si Si1 0.922465 0.858783 0.216443
Si Si2 0.851050 0.149773 0.952660
Si Si3 0.324980 0.857524 0.316394
Si Si4 0.421334 0.640935 0.466437
Si Si5 0.711941 0.406623 0.875919
Si Si6 0.674680 0.141181 0.373717
O O1 0.919878 0.750000 0.214636
O O2 0.901986 0.889140 0.119839
O O3 0.866794 0.887571 0.287568
O O4 0.000000 0.884461 0.240748
O O5 0.873118 0.250000 0.975017
O O6 0.776807 0.155112 0.903243
O O7 0.839260 0.098545 0.042333
O O8 0.324775 0.750000 0.317303
O O9 0.389682 0.887380 0.373904
O O10 0.321547 0.885157 0.216094
O O11 0.253917 0.886863 0.363796
O O12 0.500000 0.611886 0.480568
O O13 0.421986 0.750000 0.468294
O O14 0.368592 0.612440 0.542240
O O15 0.750000 0.500000 0.871228
O O16 0.675097 0.250000 0.375429
#
# Coordination Sequence:
#
# PCOD9500722 Si02
#       6
#    16  16  16  16  16  16
#     4   9  16  26  45  76 109 135 165 209 259 307
#     4  10  18  32  53  77 104 131 166 211 263 312
#     4  10  18  31  51  78 104 134 177 220 259 304
#     4   9  17  28  46  76 112 141 168 212 267 314
#     4  11  21  33  51  74 100 135 173 216 257 307
#     4   9  15  26  46  75 106 135 170 216 263 302
#
# _framework density 21.500741999999999
#
# number of rings (size 3 to 8) (size 9 to 14) (size 15 to 20)
#    0.000    2.333    1.667    4.000    0.000    4.000 
#    0.000    0.833    0.000    9.000    0.000    1.167 
#    0.000    0.000    0.000    0.000    0.000    0.000 
#
# Total GULP energy -268081.074221 kJ/mol
# GULP energy per Si atom -5585.022380 kJ/mol
# Density = 2.145181 g / cm^3
# Si number density = 21.500742 Si / 1000 Ang^3
#
#
#
# Elastic Constant Matrix: (Units=GPa)
#
#
# Indices 1 2 3 4 5 6 
#
# 1 39.9885 -1.6560 20.9099 0.0000 0.0000 0.0000
# 2 -1.6560 43.3319 10.1818 0.0000 0.0000 0.0000
# 3 20.9099 10.1818 135.3332 0.0000 0.0000 0.0000
# 4 0.0000 0.0000 0.0000 4.7152 0.0000 0.0000
# 5 0.0000 0.0000 0.0000 0.0000 19.2815 0.0000
# 6 0.0000 0.0000 0.0000 0.0000 0.0000 2.7461
#
#
#
# Elastic Compliance Matrix: (Units=1/GPa)
#
#
# Indices 1 2 3 4 5 6 
#
# 1 0.027388 0.002078 -0.004388 0.000000 0.000000 0.000000
# 2 0.002078 0.023651 -0.002100 0.000000 0.000000 0.000000
# 3 -0.004388 -0.002100 0.008225 0.000000 0.000000 0.000000
# 4 0.000000 0.000000 0.000000 0.212082 0.000000 0.000000
# 5 0.000000 0.000000 0.000000 0.000000 0.051863 0.000000
# 6 0.000000 0.000000 0.000000 0.000000 0.000000 0.364148
#
#
# Mechanical properties :
#
#
# Convention : Reuss Voigt Hill
#
# Bulk Modulus (GPa) = 19.82461 30.83609 25.33035
# Shear Modulus (GPa) = 7.01271 17.96308 12.48790
#
# Velocity S-wave (km/s) = 1.80795 2.89357 2.41262
# Velocity P-wave (km/s) = 3.68764 5.05339 4.42354
#
# Compressibility (1/GPa) = 0.05044235
#
# Stress axis : x y z
#
# Youngs Moduli (GPa) = 36.51280 42.28217 121.57831
#
# Poissons Ratio (x) = -0.08785 0.53347
# Poissons Ratio (y) = -0.07586 0.25536
# Poissons Ratio (z) = 0.16021 0.08881
#
# Static dielectric constant tensor:
#      x y z
#    x 1.756840 0.000000 0.000000 
#    y 0.000000 1.861450 0.000000 
#    z 0.000000 0.000000 1.771690 
# 
# From -- ./inp_files/29285.got.cif
#   From: 2010.05.17/outbox.cif.g08.bks.cpg/sg67_15_cif.got.tgz:29285.got - 2010.06.03 18:28:57.
