data_PCOD9500436
_publ_section_title
;
Structure prediction by ZEFSAII (Michael W. Deem and Ramdas Pophale) SiO2 
 PCOD9500436
Probable space group: C M M A
;
_chemical_formula_sum "Si O2"
_cell_formula_units_Z 100
_cell_length_a 24.333900
_cell_length_b 13.798587
_cell_length_c 16.714636
_cell_angle_alpha 90.000000
_cell_angle_beta 90.000000
_cell_angle_gamma 90.000000
_cell_volume 5612.330765
_symmetry_space_group_name_H-M "C M M A"
_symmetry_group_IT_number 67
_symmetry_cell_setting 'orthorhombic'
loop_
_space_group_symop_operation_xyz
x,y,z
-x,1/2-y,z
x,-y,-z
-x,1/2+y,-z
-x,-y,-z
x,1/2+y,-z
-x,y,z
x,1/2-y,z
1/2+x,1/2+y,z
1/2-x,-y,z
1/2+x,1/2-y,-z
1/2-x,y,-z
1/2-x,1/2-y,-z
1/2+x,y,-z
1/2-x,1/2+y,z
1/2+x,-y,z
loop_
_atom_site_type_symbol
_atom_site_label
_atom_site_fract_x
_atom_site_fract_y
_atom_site_fract_z
Si Si1 0.797627 0.637282 0.735613
Si Si2 0.436937 0.522807 0.611024
Si Si3 0.200846 0.361680 0.869610
Si Si4 0.712051 0.366580 0.390188
Si Si5 0.873564 0.636482 0.516576
Si Si6 0.632183 0.454308 0.254622
Si Si7 0.250000 0.000000 0.000000
O O1 0.813889 0.750000 0.732240
O O2 0.749649 0.627981 0.802776
O O3 0.770853 0.608581 0.649324
O O4 0.844588 0.562275 0.757933
O O5 0.500000 0.499276 0.595003
O O6 0.416726 0.611430 0.555015
O O7 0.396476 0.434113 0.585112
O O8 0.426644 0.544072 0.703993
O O9 0.199295 0.250000 0.893843
O O10 0.145707 0.393416 0.823702
O O11 0.214321 0.431584 0.942530
O O12 0.710741 0.250000 0.386938
O O13 0.685924 0.389359 0.476853
O O14 0.669488 0.407377 0.325130
O O15 0.873457 0.750000 0.537224
#
# Coordination Sequence:
#
# PCOD9500436 Si02
#       7
#    16  16  16  16  16  16   4
#     4   9  16  28  45  67  96 131 166 197 238 296
#     4  10  21  32  46  68  90 122 172 222 262 298
#     4  10  19  31  51  78 108 135 156 183 225 282
#     4   8  14  25  45  67  88 120 159 197 244 301
#     4   9  17  31  48  67  93 122 157 211 272 314
#     4  10  17  31  46  63  96 132 165 203 247 288
#     4  12  18  32  52  86 118 134 150 180 224 282
#
# _framework density 17.817909
#
# number of rings (size 3 to 8) (size 9 to 14) (size 15 to 20)
#    0.000    2.560    1.600    4.080    0.000    2.560 
#    0.000    0.800    0.000    8.640    0.000    0.560 
#    0.000    1.280    0.000    0.000    0.000    0.000 
#
# Total GULP energy -278629.220434 kJ/mol
# GULP energy per Si atom -5572.584409 kJ/mol
# Density = 1.777735 g / cm^3
# Si number density = 17.817909 Si / 1000 Ang^3
#
#
#
# Elastic Constant Matrix: (Units=GPa)
#
#
# Indices 1 2 3 4 5 6 
#
# 1 45.2179 13.0532 14.8050 0.0000 0.0000 0.0000
# 2 13.0532 82.8870 37.6322 0.0000 0.0000 0.0000
# 3 14.8050 37.6322 89.2261 0.0000 0.0000 0.0000
# 4 0.0000 0.0000 0.0000 22.6418 0.0000 0.0000
# 5 0.0000 0.0000 0.0000 0.0000 13.9113 0.0000
# 6 0.0000 0.0000 0.0000 0.0000 0.0000 7.4427
#
#
#
# Elastic Compliance Matrix: (Units=1/GPa)
#
#
# Indices 1 2 3 4 5 6 
#
# 1 0.023770 -0.002415 -0.002925 0.000000 0.000000 0.000000
# 2 -0.002415 0.015167 -0.005996 0.000000 0.000000 0.000000
# 3 -0.002925 -0.005996 0.014222 0.000000 0.000000 0.000000
# 4 0.000000 0.000000 0.000000 0.044166 0.000000 0.000000
# 5 0.000000 0.000000 0.000000 0.000000 0.071884 0.000000
# 6 0.000000 0.000000 0.000000 0.000000 0.000000 0.134359
#
#
# Mechanical properties :
#
#
# Convention : Reuss Voigt Hill
#
# Bulk Modulus (GPa) = 32.80239 38.70132 35.75186
# Shear Modulus (GPa) = 14.86308 18.92188 16.89248
#
# Velocity S-wave (km/s) = 2.89132 3.26231 3.08240
# Velocity P-wave (km/s) = 5.44023 5.99648 5.72512
#
# Compressibility (1/GPa) = 0.03048558
#
# Stress axis : x y z
#
# Youngs Moduli (GPa) = 42.06956 65.93093 70.31403
#
# Poissons Ratio (x) = 0.15923 0.20570
# Poissons Ratio (y) = 0.10160 0.42162
# Poissons Ratio (z) = 0.12307 0.39534
#
# Static dielectric constant tensor:
#      x y z
#    x 1.627710 0.000000 0.000000 
#    y 0.000000 1.634920 0.000000 
#    z 0.000000 0.000000 1.648760 
# 
# From -- ./inp_files/35012.got.cif
#   From: 2010.05.17/outbox.cif.g08.bks.cpg/sg67_18_cif.got.tgz:35012.got - 2010.06.03 18:28:57.
