data_PCOD9500283
_publ_section_title
;
Structure prediction by ZEFSAII (Michael W. Deem and Ramdas Pophale) SiO2 
 PCOD9500283
Probable space group: C M M A
;
_chemical_formula_sum "Si O2"
_cell_formula_units_Z 104
_cell_length_a 8.651284
_cell_length_b 26.439800
_cell_length_c 28.580625
_cell_angle_alpha 90.000000
_cell_angle_beta 90.000000
_cell_angle_gamma 90.000000
_cell_volume 6537.481252
_symmetry_space_group_name_H-M "C M M A"
_symmetry_group_IT_number 67
_symmetry_cell_setting 'orthorhombic'
loop_
_space_group_symop_operation_xyz
x,y,z
-x,1/2-y,z
x,-y,-z
-x,1/2+y,-z
-x,-y,-z
x,1/2+y,-z
-x,y,z
x,1/2-y,z
1/2+x,1/2+y,z
1/2-x,-y,z
1/2+x,1/2-y,-z
1/2-x,y,-z
1/2-x,1/2-y,-z
1/2+x,y,-z
1/2-x,1/2+y,z
1/2+x,-y,z
loop_
_atom_site_type_symbol
_atom_site_label
_atom_site_fract_x
_atom_site_fract_y
_atom_site_fract_z
Si Si1 0.819575 0.307511 0.223808
Si Si2 0.814275 0.750000 0.052052
Si Si3 0.817183 0.056423 0.356458
Si Si4 0.312605 0.336094 0.124714
Si Si5 0.184288 0.942431 0.451952
Si Si6 0.181361 0.594950 0.260960
Si Si7 0.814312 0.945384 0.158838
O O1 0.802483 0.250000 0.239450
O O2 0.768009 0.312014 0.169931
O O3 0.711691 0.346375 0.250841
O O4 0.000000 0.322221 0.228193
O O5 0.769288 0.800890 0.080795
O O6 0.000000 0.750000 0.050090
O O7 0.750000 0.750000 0.000000
O O8 0.741544 0.080709 0.402937
O O9 0.773283 0.080795 0.307219
O O10 0.000000 0.054632 0.363007
O O11 0.750000 0.000000 0.353259
O O12 0.500000 0.333184 0.130104
O O13 0.271458 0.396040 0.127539
O O14 0.250000 0.919239 0.500000
O O15 0.000000 0.944218 0.453576
O O16 0.250000 0.000000 0.451122
O O17 0.233177 0.567052 0.212786
O O18 0.000000 0.584071 0.267664
O O19 0.000000 0.947944 0.158695
O O20 0.750000 0.000000 0.144625
#
# Coordination Sequence:
#
# PCOD9500283 Si02
#       7
#    16   8  16  16  16  16  16
#     4  10  19  30  47  71  96 121 152 192 232 276
#     4  10  20  34  54  76 100 124 154 200 247 288
#     4  11  20  30  43  61  88 121 156 195 237 280
#     4   9  18  33  51  70  95 129 160 189 234 288
#     4  10  17  27  41  58  80 110 150 192 236 283
#     4  10  20  32  45  64  91 126 162 193 231 280
#     4   9  18  30  46  68  93 123 160 193 226 274
#
# _framework density 15.908265999999999
#
# number of rings (size 3 to 8) (size 9 to 14) (size 15 to 20)
#    0.000    2.154    0.769    6.462    0.000    5.846 
#    0.000    0.000    0.000    0.462    0.000    3.231 
#    0.000    0.615    0.000    2.308    0.000    3.846 
#
# Total GULP energy -289725.640883 kJ/mol
# GULP energy per Si atom -5571.646940 kJ/mol
# Density = 1.587206 g / cm^3
# Si number density = 15.908266 Si / 1000 Ang^3
#
#
#
# Elastic Constant Matrix: (Units=GPa)
#
#
# Indices 1 2 3 4 5 6 
#
# 1 66.0091 16.7042 29.4970 0.0000 0.0000 0.0000
# 2 16.7042 79.6577 40.3924 0.0000 0.0000 0.0000
# 3 29.4970 40.3924 110.1974 0.0000 0.0000 0.0000
# 4 0.0000 0.0000 0.0000 25.0875 0.0000 0.0000
# 5 0.0000 0.0000 0.0000 0.0000 27.5268 0.0000
# 6 0.0000 0.0000 0.0000 0.0000 0.0000 22.5829
#
#
#
# Elastic Compliance Matrix: (Units=1/GPa)
#
#
# Indices 1 2 3 4 5 6 
#
# 1 0.017368 -0.001578 -0.004070 0.000000 0.000000 0.000000
# 2 -0.001578 0.015563 -0.005282 0.000000 0.000000 0.000000
# 3 -0.004070 -0.005282 0.012100 0.000000 0.000000 0.000000
# 4 0.000000 0.000000 0.000000 0.039860 0.000000 0.000000
# 5 0.000000 0.000000 0.000000 0.000000 0.036328 0.000000
# 6 0.000000 0.000000 0.000000 0.000000 0.000000 0.044281
#
#
# Mechanical properties :
#
#
# Convention : Reuss Voigt Hill
#
# Bulk Modulus (GPa) = 43.15956 47.67237 45.41596
# Shear Modulus (GPa) = 25.62975 26.32414 25.97695
#
# Velocity S-wave (km/s) = 4.01820 4.07227 4.04533
# Velocity P-wave (km/s) = 6.97976 7.22103 7.10142
#
# Compressibility (1/GPa) = 0.02316984
#
# Stress axis : x y z
#
# Youngs Moduli (GPa) = 57.57815 64.25461 82.64209
#
# Poissons Ratio (x) = 0.10139 0.33639
# Poissons Ratio (y) = 0.09086 0.43653
# Poissons Ratio (z) = 0.23437 0.33941
#
# Static dielectric constant tensor:
#      x y z
#    x 1.526130 0.000000 0.000000 
#    y 0.000000 1.542140 0.000000 
#    z 0.000000 0.000000 1.562510 
# 
# From -- ./inp_files/43742.got.cif
#   From: 2010.05.17/outbox.cif.g08.bks.cpg/sg67_22_cif.got.tgz:43742.got - 2010.06.03 18:28:57.
