data_PCOD9500615
_publ_section_title
;
Structure prediction by ZEFSAII (Michael W. Deem and Ramdas Pophale) SiO2 
 PCOD9500615
Probable space group: C M M A
;
_chemical_formula_sum "Si O2"
_cell_formula_units_Z 128
_cell_length_a 19.490960
_cell_length_b 18.912740
_cell_length_c 20.414812
_cell_angle_alpha 90.000000
_cell_angle_beta 90.000000
_cell_angle_gamma 90.000000
_cell_volume 7525.460270
_symmetry_space_group_name_H-M "C M M A"
_symmetry_group_IT_number 67
_symmetry_cell_setting 'orthorhombic'
loop_
_space_group_symop_operation_xyz
x,y,z
-x,1/2-y,z
x,-y,-z
-x,1/2+y,-z
-x,-y,-z
x,1/2+y,-z
-x,y,z
x,1/2-y,z
1/2+x,1/2+y,z
1/2-x,-y,z
1/2+x,1/2-y,-z
1/2-x,y,-z
1/2-x,1/2-y,-z
1/2+x,y,-z
1/2-x,1/2+y,z
1/2+x,-y,z
loop_
_atom_site_type_symbol
_atom_site_label
_atom_site_fract_x
_atom_site_fract_y
_atom_site_fract_z
Si Si1 0.857952 0.667182 0.385191
Si Si2 0.183430 0.831750 0.146351
Si Si3 0.693522 0.830323 0.369067
Si Si4 0.081097 0.394908 0.746434
Si Si5 0.167115 0.418896 0.489690
Si Si6 0.919023 0.035218 0.180453
Si Si7 0.176851 0.529169 0.073448
Si Si8 0.168230 0.169462 0.215179
O O1 0.876385 0.750000 0.386893
O O2 0.776053 0.662391 0.371996
O O3 0.896057 0.628767 0.325600
O O4 0.867587 0.629369 0.454897
O O5 0.176487 0.750000 0.127197
O O6 0.125959 0.852164 0.200208
O O7 0.178308 0.886776 0.086311
O O8 0.257075 0.840898 0.182138
O O9 0.677707 0.750000 0.391553
O O10 0.658425 0.886182 0.417552
O O11 0.674178 0.837329 0.293517
O O12 0.094623 0.477759 0.761910
O O13 0.000000 0.382347 0.755659
O O14 0.146217 0.500000 0.500000
O O15 0.250000 0.415957 0.500000
O O16 0.883302 0.109757 0.191865
O O17 0.000000 0.042354 0.173369
O O18 0.884409 0.001194 0.116669
O O19 0.250000 0.500000 0.099345
O O20 0.170936 0.500000 0.000000
O O21 0.146681 0.250000 0.200090
#
# Coordination Sequence:
#
# PCOD9500615 Si02
#       8
#    16  16  16  16  16  16  16  16
#     4  10  18  30  48  71 103 138 174 222 279 333
#     4  10  19  35  57  86 116 144 184 229 276 323
#     4   9  17  30  48  73 103 136 175 223 274 323
#     4  10  21  34  53  81 112 144 182 230 285 339
#     4   9  18  29  42  70 102 135 175 219 269 326
#     4  10  22  38  56  82 112 148 185 224 275 324
#     4  10  20  37  59  85 116 150 186 218 264 325
#     4  10  19  33  56  83 109 143 185 230 277 322
#
# _framework density 17.008927
#
# number of rings (size 3 to 8) (size 9 to 14) (size 15 to 20)
#    0.000    2.250    2.500    0.750    1.750    3.000 
#    0.000    1.875    0.000    1.125    0.000    1.750 
#    0.000    0.000    0.000    0.000    0.000    0.000 
#
# Total GULP energy -356780.888472 kJ/mol
# GULP energy per Si atom -5574.701382 kJ/mol
# Density = 1.697021 g / cm^3
# Si number density = 17.008927 Si / 1000 Ang^3
#
#
#
# Elastic Constant Matrix: (Units=GPa)
#
#
# Indices 1 2 3 4 5 6 
#
# 1 62.0175 63.9243 28.8248 0.0000 0.0000 0.0000
# 2 63.9243 160.4293 71.9767 0.0000 0.0000 0.0000
# 3 28.8248 71.9767 81.0646 0.0000 0.0000 0.0000
# 4 0.0000 0.0000 0.0000 25.7905 0.0000 0.0000
# 5 0.0000 0.0000 0.0000 0.0000 9.0234 0.0000
# 6 0.0000 0.0000 0.0000 0.0000 0.0000 13.0984
#
#
#
# Elastic Compliance Matrix: (Units=1/GPa)
#
#
# Indices 1 2 3 4 5 6 
#
# 1 0.027363 -0.010866 -0.000081 0.000000 0.000000 0.000000
# 2 -0.010866 0.014676 -0.009167 0.000000 0.000000 0.000000
# 3 -0.000081 -0.009167 0.020504 0.000000 0.000000 0.000000
# 4 0.000000 0.000000 0.000000 0.038774 0.000000 0.000000
# 5 0.000000 0.000000 0.000000 0.000000 0.110823 0.000000
# 6 0.000000 0.000000 0.000000 0.000000 0.000000 0.076345
#
#
# Mechanical properties :
#
#
# Convention : Reuss Voigt Hill
#
# Bulk Modulus (GPa) = 44.81602 70.32920 57.57261
# Shear Modulus (GPa) = 14.87426 18.83483 16.85455
#
# Velocity S-wave (km/s) = 2.96040 3.33130 3.15131
# Velocity P-wave (km/s) = 6.17179 7.49899 6.86753
#
# Compressibility (1/GPa) = 0.02231345
#
# Stress axis : x y z
#
# Youngs Moduli (GPa) = 36.54593 68.14002 48.77166
#
# Poissons Ratio (x) = 0.74044 0.00397
# Poissons Ratio (y) = 0.39712 0.44707
# Poissons Ratio (z) = 0.00297 0.62461
#
# Static dielectric constant tensor:
#      x y z
#    x 1.553620 0.000000 0.000000 
#    y 0.000000 1.588330 0.000000 
#    z 0.000000 0.000000 1.563620 
# 
# From -- ./inp_files/39415.got.cif
#   From: 2010.05.17/outbox.cif.g08.bks.cpg/sg67_20_cif.got.tgz:39415.got - 2010.06.03 18:28:57.
