data_PCOD9500121
_publ_section_title
;
Structure prediction by ZEFSAII (Michael W. Deem and Ramdas Pophale) SiO2 
 PCOD9500121
Probable space group: C C C M
;
_chemical_formula_sum "Si O2"
_cell_formula_units_Z 58
_cell_length_a 18.000000
_cell_length_b 12.000000
_cell_length_c 27.000000
_cell_angle_alpha 90.000000
_cell_angle_beta 90.000000
_cell_angle_gamma 90.000000
_cell_volume 5832.000000
_symmetry_space_group_name_H-M "C C C M"
_symmetry_group_IT_number 66
_symmetry_cell_setting 'orthorhombic'
loop_
_space_group_symop_operation_xyz
x,y,z
-x,-y,z
x,-y,1/2-z
-x,y,1/2-z
-x,-y,-z
x,y,-z
-x,y,1/2+z
x,-y,1/2+z
1/2+x,1/2+y,z
1/2-x,1/2-y,z
1/2+x,1/2-y,1/2-z
1/2-x,1/2+y,1/2-z
1/2-x,1/2-y,-z
1/2+x,1/2+y,-z
1/2-x,1/2+y,1/2+z
1/2+x,1/2-y,1/2+z
loop_
_atom_site_type_symbol
_atom_site_label
_atom_site_fract_x
_atom_site_fract_y
_atom_site_fract_z
Si Si1 0.885486 0.185935 0.714077
Si Si2 0.932070 0.594091 0.157786
Si Si3 0.248034 0.565893 0.659567
Si Si4 0.818219 0.169171 0.178785
Si Si5 0.061029 0.092863 0.598768
Si Si6 0.175738 0.919098 0.556169
Si Si7 0.946151 0.727892 0.057651
Si Si8 0.500000 0.500000 0.250000
O O1 0.931168 0.290509 0.690663
O O2 0.810138 0.153743 0.682574
O O3 0.853476 0.208455 0.769190
O O4 0.943457 0.082210 0.719954
O O5 0.842622 0.564506 0.165535
O O6 0.942863 0.634584 0.100647
O O7 0.000000 0.500000 0.168143
O O8 0.278991 0.451284 0.682921
O O9 0.265377 0.571769 0.600630
O O10 0.750000 0.250000 0.163119
O O11 0.886564 0.148838 0.140627
O O12 0.014479 0.188462 0.570845
O O13 0.117360 0.020620 0.564816
O O14 0.000000 0.000000 0.616256
O O15 0.205358 0.922913 0.500000
O O16 0.127467 0.805940 0.561876
O O17 0.951706 0.691069 0.000000
#
# Coordination Sequence:
#
# PCOD9500121 Si02
#       8
#    16  16  16  16  16  16  16   4
#     4  12  26  46  75 105 140 182 241 295 357 428
#     4  12  29  47  69  99 149 194 238 292 355 437
#     4  11  23  46  68 100 140 190 236 296 359 417
#     4  11  24  40  72 101 136 183 232 293 358 432
#     4   9  20  37  67 102 138 177 226 298 360 421
#     4   9  18  35  67 106 131 171 235 301 358 422
#     4  10  21  39  68 100 138 188 237 295 355 422
#     4  12  28  44  78 112 124 168 236 302 340 420
#
# _framework density 9.9451300000000007
#
# number of rings (size 3 to 8) (size 9 to 14) (size 15 to 20)
#    0.000    1.379    2.759    1.655    4.828    2.483 
#    0.000    3.103    0.000    2.069    0.000    0.000 
#    0.000    0.000    0.000    0.000    0.000    0.000 
#
# Total GULP energy -323697.465785 kJ/mol
# GULP energy per Si atom -5580.990789 kJ/mol
# Density = 0.992249 g / cm^3
# Si number density = 9.945130 Si / 1000 Ang^3
#
#
#
# Elastic Constant Matrix: (Units=GPa)
#
#
# Indices 1 2 3 4 5 6 
#
# 1 136.8599 40.1991 32.0444 0.0000 0.0000 0.0000
# 2 40.1991 93.2710 31.2314 0.0000 0.0000 0.0000
# 3 32.0444 31.2314 117.8217 0.0000 0.0000 0.0000
# 4 0.0000 0.0000 0.0000 29.6771 0.0000 0.0000
# 5 0.0000 0.0000 0.0000 0.0000 23.9399 0.0000
# 6 0.0000 0.0000 0.0000 0.0000 0.0000 46.3350
#
#
#
# Elastic Compliance Matrix: (Units=1/GPa)
#
#
# Indices 1 2 3 4 5 6 
#
# 1 0.008597 -0.003207 -0.001488 0.000000 0.000000 0.000000
# 2 -0.003207 0.012962 -0.002564 0.000000 0.000000 0.000000
# 3 -0.001488 -0.002564 0.009572 0.000000 0.000000 0.000000
# 4 0.000000 0.000000 0.000000 0.033696 0.000000 0.000000
# 5 0.000000 0.000000 0.000000 0.000000 0.041771 0.000000
# 6 0.000000 0.000000 0.000000 0.000000 0.000000 0.021582
#
#
# Mechanical properties :
#
#
# Convention : Reuss Voigt Hill
#
# Bulk Modulus (GPa) = 60.19267 61.65583 60.92425
# Shear Modulus (GPa) = 33.73010 36.28891 35.00950
#
# Velocity S-wave (km/s) = 4.12249 4.27600 4.19995
# Velocity P-wave (km/s) = 7.27928 7.44609 7.36316
#
# Compressibility (1/GPa) = 0.01661332
#
# Stress axis : x y z
#
# Youngs Moduli (GPa) = 116.31763 77.14808 104.47475
#
# Poissons Ratio (x) = 0.24742 0.15547
# Poissons Ratio (y) = 0.37303 0.26784
# Poissons Ratio (z) = 0.17309 0.19778
#
# Static dielectric constant tensor:
#      x y z
#    x 1.712310 0.000000 0.000000 
#    y 0.000000 1.743520 0.000000 
#    z 0.000000 0.000000 1.728640 
# 
# From -- ./inp_files/65323.got.cif
#   From: 2010.05.17/outbox.ucp.g08.bks.cvg/sg66_33_cif.got.tgz:65323.got - 2010.06.11 16:44:13.
