data_PCOD9500599
_publ_section_title
;
Structure prediction by ZEFSAII (Michael W. Deem and Ramdas Pophale) SiO2 
 PCOD9500599
Probable space group: C M M A
;
_chemical_formula_sum "Si O2"
_cell_formula_units_Z 128
_cell_length_a 19.699973
_cell_length_b 19.484877
_cell_length_c 19.899048
_cell_angle_alpha 90.000000
_cell_angle_beta 90.000000
_cell_angle_gamma 90.000000
_cell_volume 7638.280434
_symmetry_space_group_name_H-M "C M M A"
_symmetry_group_IT_number 67
_symmetry_cell_setting 'orthorhombic'
loop_
_space_group_symop_operation_xyz
x,y,z
-x,1/2-y,z
x,-y,-z
-x,1/2+y,-z
-x,-y,-z
x,1/2+y,-z
-x,y,z
x,1/2-y,z
1/2+x,1/2+y,z
1/2-x,-y,z
1/2+x,1/2-y,-z
1/2-x,y,-z
1/2-x,1/2-y,-z
1/2+x,y,-z
1/2-x,1/2+y,z
1/2+x,-y,z
loop_
_atom_site_type_symbol
_atom_site_label
_atom_site_fract_x
_atom_site_fract_y
_atom_site_fract_z
Si Si1 0.201910 0.327286 0.600529
Si Si2 0.918868 0.325266 0.241946
Si Si3 0.668231 0.076624 0.012291
Si Si4 0.144066 0.171487 0.454580
Si Si5 0.666236 0.330286 0.888064
Si Si6 0.918956 0.066989 0.353974
Si Si7 0.681921 0.045668 0.304648
Si Si8 0.211697 0.927322 0.152548
O O1 0.189336 0.250000 0.624753
O O2 0.156193 0.338686 0.534000
O O3 0.280311 0.331020 0.576914
O O4 0.189698 0.383849 0.655878
O O5 0.894175 0.250000 0.264791
O O6 0.892560 0.335628 0.167087
O O7 0.896211 0.383740 0.292418
O O8 0.000000 0.324940 0.243156
O O9 0.660894 0.089787 0.091473
O O10 0.750000 0.075969 0.000000
O O11 0.645564 0.131341 0.956832
O O12 0.641708 0.000000 0.000000
O O13 0.117733 0.250000 0.443759
O O14 0.101528 0.111195 0.419630
O O15 0.681420 0.250000 0.900369
O O16 0.730089 0.369311 0.853578
O O17 0.000000 0.057154 0.352708
O O18 0.878461 0.997476 0.339039
O O19 0.677771 0.062223 0.225035
O O20 0.750000 0.000000 0.312625
O O21 0.250000 0.000000 0.137574
#
# Coordination Sequence:
#
# PCOD9500599 Si02
#       8
#    16  16  16  16  16  16  16  16
#     4   9  19  36  56  78 105 139 180 222 266 315
#     4   9  18  32  49  72 106 141 168 205 265 325
#     4   9  15  28  45  64  96 137 164 200 260 318
#     4   9  18  35  56  78 107 142 177 215 265 328
#     4  10  19  29  48  76 100 129 173 222 263 312
#     4  11  22  35  53  82 115 144 177 223 270 324
#     4  11  21  34  54  80 108 143 183 224 271 320
#     4  10  18  30  46  70  99 136 172 206 261 318
#
# _framework density 16.757698000000001
#
# number of rings (size 3 to 8) (size 9 to 14) (size 15 to 20)
#    0.000    2.250    3.750    2.625    0.000    4.000 
#    0.000    1.250    0.000    2.250    0.000    0.000 
#    0.000    0.000    0.000    0.000    0.000    0.000 
#
# Total GULP energy -356488.073535 kJ/mol
# GULP energy per Si atom -5570.126149 kJ/mol
# Density = 1.671956 g / cm^3
# Si number density = 16.757698 Si / 1000 Ang^3
#
#
#
# Elastic Constant Matrix: (Units=GPa)
#
#
# Indices 1 2 3 4 5 6 
#
# 1 25.8707 19.9185 17.8196 0.0000 0.0000 0.0000
# 2 19.9185 100.6947 45.7250 0.0000 0.0000 0.0000
# 3 17.8196 45.7250 81.5376 0.0000 0.0000 0.0000
# 4 0.0000 0.0000 0.0000 26.6523 0.0000 0.0000
# 5 0.0000 0.0000 0.0000 0.0000 14.8589 0.0000
# 6 0.0000 0.0000 0.0000 0.0000 0.0000 9.0512
#
#
#
# Elastic Compliance Matrix: (Units=1/GPa)
#
#
# Indices 1 2 3 4 5 6 
#
# 1 0.048394 -0.006400 -0.006987 0.000000 0.000000 0.000000
# 2 -0.006400 0.014170 -0.006548 0.000000 0.000000 0.000000
# 3 -0.006987 -0.006548 0.017463 0.000000 0.000000 0.000000
# 4 0.000000 0.000000 0.000000 0.037520 0.000000 0.000000
# 5 0.000000 0.000000 0.000000 0.000000 0.067300 0.000000
# 6 0.000000 0.000000 0.000000 0.000000 0.000000 0.110482
#
#
# Mechanical properties :
#
#
# Convention : Reuss Voigt Hill
#
# Bulk Modulus (GPa) = 24.90192 41.66989 33.28591
# Shear Modulus (GPa) = 14.34366 18.42179 16.38273
#
# Velocity S-wave (km/s) = 2.92883 3.31917 3.13009
# Velocity P-wave (km/s) = 5.13124 6.29359 5.74190
#
# Compressibility (1/GPa) = 0.04015754
#
# Stress axis : x y z
#
# Youngs Moduli (GPa) = 20.66367 70.56993 57.26325
#
# Poissons Ratio (x) = 0.45165 0.40011
# Poissons Ratio (y) = 0.13225 0.37495
# Poissons Ratio (z) = 0.14438 0.46208
#
# Static dielectric constant tensor:
#      x y z
#    x 1.553290 0.000000 0.000000 
#    y 0.000000 1.582850 0.000000 
#    z 0.000000 0.000000 1.592440 
# 
# From -- ./inp_files/39405.got.cif
#   From: 2010.05.17/outbox.cif.g08.bks.cpg/sg67_20_cif.got.tgz:39405.got - 2010.06.03 18:28:57.
