data_PCOD9500004
_publ_section_title
;
Structure prediction by ZEFSAII (Michael W. Deem and Ramdas Pophale) SiO2 
 PCOD9500004
Probable space group: C C C M
;
_chemical_formula_sum "Si O2"
_cell_formula_units_Z 64
_cell_length_a 12.270829
_cell_length_b 25.436999
_cell_length_c 9.954456
_cell_angle_alpha 90.000000
_cell_angle_beta 90.000000
_cell_angle_gamma 90.000000
_cell_volume 3107.114862
_symmetry_space_group_name_H-M "C C C M"
_symmetry_group_IT_number 66
_symmetry_cell_setting 'orthorhombic'
loop_
_space_group_symop_operation_xyz
x,y,z
-x,-y,z
x,-y,1/2-z
-x,y,1/2-z
-x,-y,-z
x,y,-z
-x,y,1/2+z
x,-y,1/2+z
1/2+x,1/2+y,z
1/2-x,1/2-y,z
1/2+x,1/2-y,1/2-z
1/2-x,1/2+y,1/2-z
1/2-x,1/2-y,-z
1/2+x,1/2+y,-z
1/2-x,1/2+y,1/2+z
1/2+x,1/2-y,1/2+z
loop_
_atom_site_type_symbol
_atom_site_label
_atom_site_fract_x
_atom_site_fract_y
_atom_site_fract_z
Si Si1 0.276569 0.547113 0.160712
Si Si2 0.769203 0.312377 0.500000
Si Si3 0.626357 0.770985 0.500000
Si Si4 0.000000 0.907095 0.750000
Si Si5 0.516690 0.333657 0.500000
Si Si6 0.378521 0.856504 0.231155
O O1 0.226099 0.500000 0.250000
O O2 0.390951 0.558759 0.237303
O O3 0.202475 0.599127 0.175211
O O4 0.290909 0.535609 0.000000
O O5 0.750000 0.250000 0.500000
O O6 0.646484 0.332747 0.500000
O O7 0.831376 0.333335 0.369445
O O8 0.750000 0.750000 0.500000
O O9 0.541695 0.722714 0.500000
O O10 0.611722 0.807955 0.371337
O O11 0.015051 0.867799 0.873189
O O12 0.500000 0.878542 0.250000
#
# Coordination Sequence:
#
# PCOD9500004 Si02
#       6
#    16   8   8   8   8  16
#     4  12  28  49  76 105 142 194 245 310 375 428
#     4  12  26  42  70 107 141 192 246 294 354 436
#     4  12  26  44  70 105 150 201 239 289 364 435
#     4  12  25  48  72 110 148 182 237 302 368 444
#     4  12  26  42  73 105 148 192 239 292 362 446
#     4  12  26  48  69 103 148 189 245 304 359 432
#
# _framework density 20.597887
#
# number of rings (size 3 to 8) (size 9 to 14) (size 15 to 20)
#    0.000    0.000    5.000    4.875    8.750    1.500 
#    0.000    1.250    0.000    0.000    0.000    0.000 
#    0.000    0.000    0.000    0.000    0.000    0.000 
#
# Total GULP energy -178967.781811 kJ/mol
# GULP energy per Si atom -5592.743182 kJ/mol
# Density = 2.055101 g / cm^3
# Si number density = 20.597887 Si / 1000 Ang^3
#
#
#
# Elastic Constant Matrix: (Units=GPa)
#
#
# Indices 1 2 3 4 5 6 
#
# 1 117.9891 23.5087 7.1963 0.0000 0.0000 0.0000
# 2 23.5087 114.9869 60.0641 0.0000 0.0000 0.0000
# 3 7.1963 60.0641 148.9135 0.0000 0.0000 0.0000
# 4 0.0000 0.0000 0.0000 47.4477 0.0000 0.0000
# 5 0.0000 0.0000 0.0000 0.0000 171.2823 0.0000
# 6 0.0000 0.0000 0.0000 0.0000 0.0000 29.7569
#
#
#
# Elastic Compliance Matrix: (Units=1/GPa)
#
#
# Indices 1 2 3 4 5 6 
#
# 1 0.008852 -0.002010 0.000383 0.000000 0.000000 0.000000
# 2 -0.002010 0.011474 -0.004531 0.000000 0.000000 0.000000
# 3 0.000383 -0.004531 0.008524 0.000000 0.000000 0.000000
# 4 0.000000 0.000000 0.000000 0.021076 0.000000 0.000000
# 5 0.000000 0.000000 0.000000 0.000000 0.005838 0.000000
# 6 0.000000 0.000000 0.000000 0.000000 0.000000 0.033606
#
#
# Mechanical properties :
#
#
# Convention : Reuss Voigt Hill
#
# Bulk Modulus (GPa) = 60.47714 62.60307 61.54011
# Shear Modulus (GPa) = 46.64231 69.10540 57.87386
#
# Velocity S-wave (km/s) = 4.76376 5.79850 5.30641
# Velocity P-wave (km/s) = 7.72544 8.67693 8.21497
#
# Compressibility (1/GPa) = 0.01653517
#
# Stress axis : x y z
#
# Youngs Moduli (GPa) = 112.96298 87.15077 117.31029
#
# Poissons Ratio (x) = 0.17516 -0.04491
# Poissons Ratio (y) = 0.22704 0.53154
# Poissons Ratio (z) = -0.04325 0.39488
#
# Static dielectric constant tensor:
#      x y z
#    x -2.806450 0.000000 0.000000 
#    y 0.000000 1.318070 0.000000 
#    z 0.000000 0.000000 1.708780 
# 
# From -- ./inp_files/4045.got.cif
#   From: 2010.05.17/outbox.cif.g08.bks.cpg/sg66_3_cif.got.tgz:4045.got - 2010.06.03 17:51:23.
