data_PCOD9500395
_publ_section_title
;
Structure prediction by ZEFSAII (Michael W. Deem and Ramdas Pophale) SiO2 
 PCOD9500395
Probable space group: C M M A
;
_chemical_formula_sum "Si O2"
_cell_formula_units_Z 88
_cell_length_a 22.212610
_cell_length_b 8.541737
_cell_length_c 25.087840
_cell_angle_alpha 90.000000
_cell_angle_beta 90.000000
_cell_angle_gamma 90.000000
_cell_volume 4760.023076
_symmetry_space_group_name_H-M "C M M A"
_symmetry_group_IT_number 67
_symmetry_cell_setting 'orthorhombic'
loop_
_space_group_symop_operation_xyz
x,y,z
-x,1/2-y,z
x,-y,-z
-x,1/2+y,-z
-x,-y,-z
x,1/2+y,-z
-x,y,z
x,1/2-y,z
1/2+x,1/2+y,z
1/2-x,-y,z
1/2+x,1/2-y,-z
1/2-x,y,-z
1/2-x,1/2-y,-z
1/2+x,y,-z
1/2-x,1/2+y,z
1/2+x,-y,z
loop_
_atom_site_type_symbol
_atom_site_label
_atom_site_fract_x
_atom_site_fract_y
_atom_site_fract_z
Si Si1 0.500000 0.936771 0.559203
Si Si2 0.068789 0.938777 0.245080
Si Si3 0.819197 0.561417 0.169724
Si Si4 0.317154 0.563118 0.555384
Si Si5 0.681451 0.062746 0.945058
Si Si6 0.599704 0.563682 0.361872
O O1 0.500000 0.750000 0.559067
O O2 0.500000 0.000000 0.500000
O O3 0.444823 0.001788 0.592848
O O4 0.068121 0.750000 0.243283
O O5 0.127194 0.988559 0.210099
O O6 0.000000 0.990652 0.229773
O O7 0.081361 0.993286 0.305300
O O8 0.815258 0.750000 0.169758
O O9 0.750000 0.500000 0.179718
O O10 0.840547 0.502815 0.111365
O O11 0.347274 0.500000 0.500000
O O12 0.321221 0.750000 0.554461
O O13 0.250000 0.500000 0.552204
O O14 0.339295 0.497812 0.612104
O O15 0.681249 0.250000 0.945096
O O16 0.750000 0.000000 0.945979
O O17 0.652612 0.000000 0.000000
O O18 0.598396 0.750000 0.358365
#
# Coordination Sequence:
#
# PCOD9500395 Si02
#       6
#     8  16  16  16  16  16
#     4  12  24  40  60  84 112 140 177 228 283 336
#     4  10  22  41  62  82 112 155 199 244 295 349
#     4  10  20  35  57  86 118 153 195 242 293 348
#     4  11  22  39  60  84 114 147 181 225 278 342
#     4  10  17  28  49  79 116 153 191 238 290 344
#     4  12  24  39  59  85 111 143 185 230 281 340
#
# _framework density 18.487306
#
# number of rings (size 3 to 8) (size 9 to 14) (size 15 to 20)
#    0.000    1.273    0.909    9.000    0.000    2.182 
#    0.000    1.818    0.000    0.545    0.000    0.000 
#    0.000    0.000    0.000    0.000    0.000    0.000 
#
# Total GULP energy -245274.884217 kJ/mol
# GULP energy per Si atom -5574.429187 kJ/mol
# Density = 1.844523 g / cm^3
# Si number density = 18.487306 Si / 1000 Ang^3
#
#
#
# Elastic Constant Matrix: (Units=GPa)
#
#
# Indices 1 2 3 4 5 6 
#
# 1 98.0423 22.2907 67.0823 0.0000 0.0000 0.0000
# 2 22.2907 68.3625 25.2709 0.0000 0.0000 0.0000
# 3 67.0823 25.2709 149.7291 0.0000 0.0000 0.0000
# 4 0.0000 0.0000 0.0000 28.8719 0.0000 0.0000
# 5 0.0000 0.0000 0.0000 0.0000 100.2809 0.0000
# 6 0.0000 0.0000 0.0000 0.0000 0.0000 19.8617
#
#
#
# Elastic Compliance Matrix: (Units=1/GPa)
#
#
# Indices 1 2 3 4 5 6 
#
# 1 0.015126 -0.002588 -0.006340 0.000000 0.000000 0.000000
# 2 -0.002588 0.016044 -0.001548 0.000000 0.000000 0.000000
# 3 -0.006340 -0.001548 0.009781 0.000000 0.000000 0.000000
# 4 0.000000 0.000000 0.000000 0.034636 0.000000 0.000000
# 5 0.000000 0.000000 0.000000 0.000000 0.009972 0.000000
# 6 0.000000 0.000000 0.000000 0.000000 0.000000 0.050348
#
#
# Mechanical properties :
#
#
# Convention : Reuss Voigt Hill
#
# Bulk Modulus (GPa) = 50.00623 60.60241 55.30432
# Shear Modulus (GPa) = 30.57618 43.23557 36.90587
#
# Velocity S-wave (km/s) = 4.07123 4.84122 4.47282
# Velocity P-wave (km/s) = 7.01481 8.00635 7.52692
#
# Compressibility (1/GPa) = 0.01999751
#
# Stress axis : x y z
#
# Youngs Moduli (GPa) = 66.11073 62.32768 102.24414
#
# Poissons Ratio (x) = 0.16133 0.64823
# Poissons Ratio (y) = 0.17113 0.15830
# Poissons Ratio (z) = 0.41914 0.09650
#
# Static dielectric constant tensor:
#      x y z
#    x 1.967840 0.000000 0.000000 
#    y 0.000000 1.617880 0.000000 
#    z 0.000000 0.000000 1.655410 
# 
# From -- ./inp_files/39585.got.cif
#   From: 2010.05.17/outbox.cif.g08.bks.cpg/sg67_20_cif.got.tgz:39585.got - 2010.06.03 18:28:57.
