data_PCOD9500733
_publ_section_title
;
Structure prediction by ZEFSAII (Michael W. Deem and Ramdas Pophale) SiO2 
 PCOD9500733
Probable space group: C M M A
;
_chemical_formula_sum "Si O2"
_cell_formula_units_Z 64
_cell_length_a 15.314453
_cell_length_b 21.968591
_cell_length_c 8.749881
_cell_angle_alpha 90.000000
_cell_angle_beta 90.000000
_cell_angle_gamma 90.000000
_cell_volume 2943.783315
_symmetry_space_group_name_H-M "C M M A"
_symmetry_group_IT_number 67
_symmetry_cell_setting 'orthorhombic'
loop_
_space_group_symop_operation_xyz
x,y,z
-x,1/2-y,z
x,-y,-z
-x,1/2+y,-z
-x,-y,-z
x,1/2+y,-z
-x,y,z
x,1/2-y,z
1/2+x,1/2+y,z
1/2-x,-y,z
1/2+x,1/2-y,-z
1/2-x,y,-z
1/2-x,1/2-y,-z
1/2+x,y,-z
1/2-x,1/2+y,z
1/2+x,-y,z
loop_
_atom_site_type_symbol
_atom_site_label
_atom_site_fract_x
_atom_site_fract_y
_atom_site_fract_z
Si Si1 0.601116 0.682270 0.094976
Si Si2 0.847320 0.938045 0.069425
Si Si3 0.847533 0.183150 0.432332
Si Si4 0.150729 0.438706 0.567076
O O1 0.500000 0.683412 0.143383
O O2 0.622490 0.750000 0.032082
O O3 0.655789 0.672704 0.249990
O O4 0.612297 0.625915 0.982472
O O5 0.845801 0.942446 0.251266
O O6 0.750000 0.936165 0.000000
O O7 0.888416 0.000000 0.000000
O O8 0.888286 0.250000 0.456395
O O9 0.750000 0.186631 0.500000
O O10 0.890314 0.124534 0.510356
O O11 0.109422 0.500000 0.500000
O O12 0.250000 0.437561 0.500000
#
# Coordination Sequence:
#
# PCOD9500733 Si02
#       4
#    16  16  16  16
#     4  10  22  40  60  85 120 158 194 239 297 353
#     4  11  21  35  59  88 117 153 200 248 291 345
#     4   9  17  32  55  81 108 142 188 235 281 338
#     4  10  18  31  52  79 112 143 181 237 290 337
#
# _framework density 21.740729000000002
#
# number of rings (size 3 to 8) (size 9 to 14) (size 15 to 20)
#    0.000    2.000    0.000    7.500    0.000    2.000 
#    0.000    1.250    0.000    6.000    0.000    0.000 
#    0.000    0.000    0.000    0.000    0.000    0.000 
#
# Total GULP energy -178600.777135 kJ/mol
# GULP energy per Si atom -5581.274285 kJ/mol
# Density = 2.169125 g / cm^3
# Si number density = 21.740729 Si / 1000 Ang^3
#
#
#
# Elastic Constant Matrix: (Units=GPa)
#
#
# Indices 1 2 3 4 5 6 
#
# 1 46.3975 9.8474 14.8818 0.0000 0.0000 0.0000
# 2 9.8474 245.2667 109.7142 0.0000 0.0000 0.0000
# 3 14.8818 109.7142 181.7846 0.0000 0.0000 0.0000
# 4 0.0000 0.0000 0.0000 40.2296 0.0000 0.0000
# 5 0.0000 0.0000 0.0000 0.0000 -0.3510 0.0000
# 6 0.0000 0.0000 0.0000 0.0000 0.0000 11.3250
#
#
#
# Elastic Compliance Matrix: (Units=1/GPa)
#
#
# Indices 1 2 3 4 5 6 
#
# 1 0.022136 -0.000107 -0.001748 0.000000 0.000000 0.000000
# 2 -0.000107 0.005586 -0.003362 0.000000 0.000000 0.000000
# 3 -0.001748 -0.003362 0.007673 0.000000 0.000000 0.000000
# 4 0.000000 0.000000 0.000000 0.024857 0.000000 0.000000
# 5 0.000000 0.000000 0.000000 0.000000 -2.848647 0.000000
# 6 0.000000 0.000000 0.000000 0.000000 0.000000 0.088300
#
#
# Mechanical properties :
#
#
# Convention : Reuss Voigt Hill
#
# Bulk Modulus (GPa) = 40.06220 82.48173 61.27197
# Shear Modulus (GPa) = -1.86474 32.84107 15.48816
#
# Velocity S-wave (km/s) = -0.92713 3.89083 2.67198
# Velocity P-wave (km/s) = 4.16187 7.62928 6.14520
#
# Compressibility (1/GPa) = 0.02496119
#
# Stress axis : x y z
#
# Youngs Moduli (GPa) = 45.17499 179.03324 130.32053
#
# Poissons Ratio (x) = 0.01916 0.22775
# Poissons Ratio (y) = 0.00483 0.43818
# Poissons Ratio (z) = 0.07895 0.60197
#
# Static dielectric constant tensor:
#      x y z
#    x 1.790900 0.000000 0.000000 
#    y 0.000000 1.922470 0.000000 
#    z 0.000000 0.000000 1.733370 
# 
# From -- ./inp_files/9315.got.cif
#   From: 2010.05.17/outbox.cif.g08.bks.cpg/sg67_5_cif.got.tgz:9315.got - 2010.06.03 18:28:57.
