data_PCOD9500041
_publ_section_title
;
Structure prediction by ZEFSAII (Michael W. Deem and Ramdas Pophale) SiO2 
 PCOD9500041
Probable space group: C C C M
;
_chemical_formula_sum "Si O2"
_cell_formula_units_Z 64
_cell_length_a 11.560836
_cell_length_b 18.131297
_cell_length_c 13.413881
_cell_angle_alpha 90.000000
_cell_angle_beta 90.000000
_cell_angle_gamma 90.000000
_cell_volume 2811.723182
_symmetry_space_group_name_H-M "C C C M"
_symmetry_group_IT_number 66
_symmetry_cell_setting 'orthorhombic'
loop_
_space_group_symop_operation_xyz
x,y,z
-x,-y,z
x,-y,1/2-z
-x,y,1/2-z
-x,-y,-z
x,y,-z
-x,y,1/2+z
x,-y,1/2+z
1/2+x,1/2+y,z
1/2-x,1/2-y,z
1/2+x,1/2-y,1/2-z
1/2-x,1/2+y,1/2-z
1/2-x,1/2-y,-z
1/2+x,1/2+y,-z
1/2-x,1/2+y,1/2+z
1/2+x,1/2-y,1/2+z
loop_
_atom_site_type_symbol
_atom_site_label
_atom_site_fract_x
_atom_site_fract_y
_atom_site_fract_z
Si Si1 0.932746 0.388948 0.379219
Si Si2 0.176982 0.461598 0.379845
Si Si3 0.921777 0.219311 0.383798
Si Si4 0.613759 0.373921 0.209681
O O1 0.929009 0.389420 0.500000
O O2 0.845168 0.453818 0.347930
O O3 0.916686 0.304191 0.352320
O O4 0.061754 0.416000 0.351959
O O5 0.182686 0.461238 0.500000
O O6 0.291294 0.423345 0.339980
O O7 0.891299 0.210938 0.500000
O O8 0.845993 0.171173 0.307474
O O9 0.051149 0.186116 0.363352
O O10 0.500000 0.416435 0.250000
#
# Coordination Sequence:
#
# PCOD9500041 Si02
#       4
#    16  16  16  16
#     4   8  15  26  48  79 121 169 211 277 347 385
#     4   9  15  27  47  81 121 167 222 274 333 404
#     4   8  15  29  45  75 118 168 223 269 319 391
#     4   8  18  26  44  75 121 177 224 253 341 380
#
# _framework density 22.761842000000001
#
# number of rings (size 3 to 8) (size 9 to 14) (size 15 to 20)
#    1.500    2.000    0.000    2.250    0.000    1.000 
#    0.000    3.750    0.000   12.000    0.000   28.000 
#    0.000    2.000   20.000   23.250  176.500   82.000 
#
# Total GULP energy -178618.665555 kJ/mol
# GULP energy per Si atom -5581.833299 kJ/mol
# Density = 2.271004 g / cm^3
# Si number density = 22.761842 Si / 1000 Ang^3
#
#
#
# Elastic Constant Matrix: (Units=GPa)
#
#
# Indices 1 2 3 4 5 6 
#
# 1 144.5898 101.8968 37.5368 0.0000 0.0000 0.0000
# 2 101.8968 177.8331 51.7043 0.0000 0.0000 0.0000
# 3 37.5368 51.7043 107.4613 0.0000 0.0000 0.0000
# 4 0.0000 0.0000 0.0000 36.3779 0.0000 0.0000
# 5 0.0000 0.0000 0.0000 0.0000 39.5841 0.0000
# 6 0.0000 0.0000 0.0000 0.0000 0.0000 16.0124
#
#
#
# Elastic Compliance Matrix: (Units=1/GPa)
#
#
# Indices 1 2 3 4 5 6 
#
# 1 0.011692 -0.006409 -0.001001 0.000000 0.000000 0.000000
# 2 -0.006409 0.010050 -0.002597 0.000000 0.000000 0.000000
# 3 -0.001001 -0.002597 0.010905 0.000000 0.000000 0.000000
# 4 0.000000 0.000000 0.000000 0.027489 0.000000 0.000000
# 5 0.000000 0.000000 0.000000 0.000000 0.025263 0.000000
# 6 0.000000 0.000000 0.000000 0.000000 0.000000 0.062452
#
#
# Mechanical properties :
#
#
# Convention : Reuss Voigt Hill
#
# Bulk Modulus (GPa) = 79.14769 90.23999 84.69384
# Shear Modulus (GPa) = 29.05703 34.31130 31.68416
#
# Velocity S-wave (km/s) = 3.57678 3.88674 3.73498
# Velocity P-wave (km/s) = 7.20454 7.73781 7.47593
#
# Compressibility (1/GPa) = 0.01263461
#
# Stress axis : x y z
#
# Youngs Moduli (GPa) = 85.52681 99.49817 91.70248
#
# Poissons Ratio (x) = 0.63764 0.09177
# Poissons Ratio (y) = 0.54811 0.23816
# Poissons Ratio (z) = 0.08559 0.25841
#
# Static dielectric constant tensor:
#      x y z
#    x 1.848090 0.000000 0.000000 
#    y 0.000000 1.814890 0.000000 
#    z 0.000000 0.000000 1.914290 
# 
# From -- ./inp_files/25796.got.cif
#   From: 2010.05.17/outbox.cif.g08.bks.cpg/sg66_13_cif.got.tgz:25796.got - 2010.06.03 17:51:23.
