data_PCOD9500835
_publ_section_title
;
Structure prediction by ZEFSAII (Michael W. Deem and Ramdas Pophale) SiO2 
 PCOD9500835
Probable space group: C M M A
;
_chemical_formula_sum "Si O2"
_cell_formula_units_Z 72
_cell_length_a 8.540076
_cell_length_b 26.046501
_cell_length_c 17.358160
_cell_angle_alpha 90.000000
_cell_angle_beta 90.000000
_cell_angle_gamma 90.000000
_cell_volume 3861.133455
_symmetry_space_group_name_H-M "C M M A"
_symmetry_group_IT_number 67
_symmetry_cell_setting 'orthorhombic'
loop_
_space_group_symop_operation_xyz
x,y,z
-x,1/2-y,z
x,-y,-z
-x,1/2+y,-z
-x,-y,-z
x,1/2+y,-z
-x,y,z
x,1/2-y,z
1/2+x,1/2+y,z
1/2-x,-y,z
1/2+x,1/2-y,-z
1/2-x,y,-z
1/2-x,1/2-y,-z
1/2+x,y,-z
1/2-x,1/2+y,z
1/2+x,-y,z
loop_
_atom_site_type_symbol
_atom_site_label
_atom_site_fract_x
_atom_site_fract_y
_atom_site_fract_z
Si Si1 0.311366 0.663242 0.202629
Si Si2 0.309564 0.750000 0.086616
Si Si3 0.813184 0.554218 0.745966
Si Si4 0.187604 0.192586 0.378395
Si Si5 0.316473 0.415400 0.419154
O O1 0.500000 0.660775 0.195050
O O2 0.254776 0.699975 0.134727
O O3 0.253237 0.604672 0.208743
O O4 0.282957 0.688214 0.286444
O O5 0.500000 0.750000 0.086772
O O6 0.250000 0.750000 0.000000
O O7 0.750000 0.500000 0.774311
O O8 0.764760 0.561806 0.656696
O O9 0.000000 0.554052 0.749433
O O10 0.228655 0.250000 0.404271
O O11 0.280649 0.145732 0.415288
O O12 0.000000 0.184691 0.389866
O O13 0.500000 0.424936 0.414578
O O14 0.250000 0.434960 0.500000
#
# Coordination Sequence:
#
# PCOD9500835 Si02
#       5
#    16   8  16  16  16
#     4   8  15  30  54  77 104 139 175 207 252 311
#     4  10  18  32  54  84 115 144 171 204 251 306
#     4  10  20  36  57  80 101 133 177 222 266 316
#     4   9  16  30  52  73  95 133 179 220 265 319
#     4  11  22  35  49  70 101 136 175 223 271 318
#
# _framework density 18.647375
#
# number of rings (size 3 to 8) (size 9 to 14) (size 15 to 20)
#    0.000    2.444    1.111    4.000    0.000    1.333 
#    0.000    7.778    0.000    0.667    0.000    4.667 
#    0.000    0.000    0.000    0.000    0.000    0.000 
#
# Total GULP energy -200885.783122 kJ/mol
# GULP energy per Si atom -5580.160642 kJ/mol
# Density = 1.860493 g / cm^3
# Si number density = 18.647375 Si / 1000 Ang^3
#
#
#
# Elastic Constant Matrix: (Units=GPa)
#
#
# Indices 1 2 3 4 5 6 
#
# 1 40.5710 19.1034 10.6199 0.0000 0.0000 0.0000
# 2 19.1034 140.1140 42.7587 0.0000 0.0000 0.0000
# 3 10.6199 42.7587 98.8894 0.0000 0.0000 0.0000
# 4 0.0000 0.0000 0.0000 47.2073 0.0000 0.0000
# 5 0.0000 0.0000 0.0000 0.0000 22.4821 0.0000
# 6 0.0000 0.0000 0.0000 0.0000 0.0000 27.0878
#
#
#
# Elastic Compliance Matrix: (Units=1/GPa)
#
#
# Indices 1 2 3 4 5 6 
#
# 1 0.026526 -0.003165 -0.001480 0.000000 0.000000 0.000000
# 2 -0.003165 0.008600 -0.003378 0.000000 0.000000 0.000000
# 3 -0.001480 -0.003378 0.011732 0.000000 0.000000 0.000000
# 4 0.000000 0.000000 0.000000 0.021183 0.000000 0.000000
# 5 0.000000 0.000000 0.000000 0.000000 0.044480 0.000000
# 6 0.000000 0.000000 0.000000 0.000000 0.000000 0.036917
#
#
# Mechanical properties :
#
#
# Convention : Reuss Voigt Hill
#
# Bulk Modulus (GPa) = 32.45658 47.17095 39.81377
# Shear Modulus (GPa) = 28.44873 33.16160 30.80516
#
# Velocity S-wave (km/s) = 3.91015 4.22163 4.06887
# Velocity P-wave (km/s) = 6.15052 7.00814 6.59329
#
# Compressibility (1/GPa) = 0.03081039
#
# Stress axis : x y z
#
# Youngs Moduli (GPa) = 37.69909 116.28497 85.23637
#
# Poissons Ratio (x) = 0.36803 0.12617
# Poissons Ratio (y) = 0.11931 0.28797
# Poissons Ratio (z) = 0.05580 0.39287
#
# Static dielectric constant tensor:
#      x y z
#    x 1.634620 0.000000 0.000000 
#    y 0.000000 1.697010 0.000000 
#    z 0.000000 0.000000 1.623230 
# 
# From -- ./inp_files/25078.got.cif
#   From: 2010.05.17/outbox.cif.g08.bks.cpg/sg67_13_cif.got.tgz:25078.got - 2010.06.03 18:28:57.
