data_PCOD9500730
_publ_section_title
;
Structure prediction by ZEFSAII (Michael W. Deem and Ramdas Pophale) SiO2 
 PCOD9500730
Probable space group: C M M A
;
_chemical_formula_sum "Si O2"
_cell_formula_units_Z 80
_cell_length_a 18.580892
_cell_length_b 20.396350
_cell_length_c 10.732270
_cell_angle_alpha 90.000000
_cell_angle_beta 90.000000
_cell_angle_gamma 90.000000
_cell_volume 4067.341190
_symmetry_space_group_name_H-M "C M M A"
_symmetry_group_IT_number 67
_symmetry_cell_setting 'orthorhombic'
loop_
_space_group_symop_operation_xyz
x,y,z
-x,1/2-y,z
x,-y,-z
-x,1/2+y,-z
-x,-y,-z
x,1/2+y,-z
-x,y,z
x,1/2-y,z
1/2+x,1/2+y,z
1/2-x,-y,z
1/2+x,1/2-y,-z
1/2-x,y,-z
1/2-x,1/2-y,-z
1/2+x,y,-z
1/2-x,1/2+y,z
1/2+x,-y,z
loop_
_atom_site_type_symbol
_atom_site_label
_atom_site_fract_x
_atom_site_fract_y
_atom_site_fract_z
Si Si1 0.914048 0.890884 0.949747
Si Si2 0.417355 0.750000 0.780564
Si Si3 0.417286 0.522218 0.287824
Si Si4 0.349077 0.887901 0.780366
Si Si5 0.918132 0.250000 0.084066
Si Si6 0.277181 0.075421 0.629269
O O1 0.909967 0.950358 0.853604
O O2 0.889804 0.822321 0.884603
O O3 0.000000 0.883966 0.984041
O O4 0.867815 0.898219 0.074267
O O5 0.500000 0.750000 0.740276
O O6 0.378982 0.817038 0.742844
O O7 0.417247 0.750000 0.932558
O O8 0.500000 0.527551 0.325338
O O9 0.390549 0.447294 0.288749
O O10 0.362504 0.567911 0.363627
O O11 0.265327 0.892722 0.744146
O O12 0.000000 0.250000 0.130546
O O13 0.250000 0.105335 0.500000
O O14 0.250000 0.000000 0.632105
#
# Coordination Sequence:
#
# PCOD9500730 Si02
#       6
#    16   8  16  16   8  16
#     4   9  16  27  47  78 110 136 167 206 252 308
#     4   9  16  28  48  77 108 137 172 207 250 307
#     4  10  19  32  53  79 106 136 170 209 256 309
#     4  10  18  31  52  77 107 139 168 210 261 303
#     4   7  12  24  41  65 104 143 165 194 241 295
#     4   9  20  38  53  70 100 135 174 218 260 303
#
# _framework density 19.668869000000001
#
# number of rings (size 3 to 8) (size 9 to 14) (size 15 to 20)
#    0.000    2.800    0.000    3.600    0.000    2.400 
#    0.000   14.500    0.000    3.600    0.000    1.400 
#    0.000    0.000    0.000    0.000    0.000    0.000 
#
# Total GULP energy -222776.630275 kJ/mol
# GULP energy per Si atom -5569.415757 kJ/mol
# Density = 1.962410 g / cm^3
# Si number density = 19.668869 Si / 1000 Ang^3
#
#
#
# Elastic Constant Matrix: (Units=GPa)
#
#
# Indices 1 2 3 4 5 6 
#
# 1 119.0152 43.2740 25.2465 0.0000 0.0000 0.0000
# 2 43.2740 110.3884 10.9481 0.0000 0.0000 0.0000
# 3 25.2465 10.9481 38.0612 0.0000 0.0000 0.0000
# 4 0.0000 0.0000 0.0000 4.1256 0.0000 0.0000
# 5 0.0000 0.0000 0.0000 0.0000 -18.4020 0.0000
# 6 0.0000 0.0000 0.0000 0.0000 0.0000 18.2720
#
#
#
# Elastic Compliance Matrix: (Units=1/GPa)
#
#
# Indices 1 2 3 4 5 6 
#
# 1 0.011089 -0.003724 -0.006285 0.000000 0.000000 0.000000
# 2 -0.003724 0.010575 -0.000572 0.000000 0.000000 0.000000
# 3 -0.006285 -0.000572 0.030607 0.000000 0.000000 0.000000
# 4 0.000000 0.000000 0.000000 0.242387 0.000000 0.000000
# 5 0.000000 0.000000 0.000000 0.000000 -0.054342 0.000000
# 6 0.000000 0.000000 0.000000 0.000000 0.000000 0.054729
#
#
# Mechanical properties :
#
#
# Convention : Reuss Voigt Hill
#
# Bulk Modulus (GPa) = 32.14319 47.37800 39.76060
# Shear Modulus (GPa) = 15.31034 13.33221 14.32128
#
# Velocity S-wave (km/s) = 2.79302 2.60635 2.70130
# Velocity P-wave (km/s) = 5.17483 5.76173 5.47615
#
# Compressibility (1/GPa) = 0.03111079
#
# Stress axis : x y z
#
# Youngs Moduli (GPa) = 90.17566 94.55836 32.67265
#
# Poissons Ratio (x) = 0.35213 0.20534
# Poissons Ratio (y) = 0.33581 0.01868
# Poissons Ratio (z) = 0.56672 0.05407
#
# Static dielectric constant tensor:
#      x y z
#    x 1.717760 0.000000 0.000000 
#    y 0.000000 1.723780 0.000000 
#    z 0.000000 0.000000 1.715340 
# 
# From -- ./inp_files/19378.got.cif
#   From: 2010.05.17/outbox.cif.g08.bks.cpg/sg67_10_cif.got.tgz:19378.got - 2010.06.03 18:28:57.
