data_PCOD9500015
_publ_section_title
;
Structure prediction by ZEFSAII (Michael W. Deem and Ramdas Pophale) SiO2 
 PCOD9500015
Probable space group: C C C M
;
_chemical_formula_sum "Si O2"
_cell_formula_units_Z 80
_cell_length_a 28.765320
_cell_length_b 6.420791
_cell_length_c 14.434915
_cell_angle_alpha 90.000000
_cell_angle_beta 90.000000
_cell_angle_gamma 90.000000
_cell_volume 2666.072616
_symmetry_space_group_name_H-M "C C C M"
_symmetry_group_IT_number 66
_symmetry_cell_setting 'orthorhombic'
loop_
_space_group_symop_operation_xyz
x,y,z
-x,-y,z
x,-y,1/2-z
-x,y,1/2-z
-x,-y,-z
x,y,-z
-x,y,1/2+z
x,-y,1/2+z
1/2+x,1/2+y,z
1/2-x,1/2-y,z
1/2+x,1/2-y,1/2-z
1/2-x,1/2+y,1/2-z
1/2-x,1/2-y,-z
1/2+x,1/2+y,-z
1/2-x,1/2+y,1/2+z
1/2+x,1/2-y,1/2+z
loop_
_atom_site_type_symbol
_atom_site_label
_atom_site_fract_x
_atom_site_fract_y
_atom_site_fract_z
Si Si1 0.387078 0.641415 0.888435
Si Si2 0.413202 0.179674 0.890130
Si Si3 0.787887 0.989279 0.360192
Si Si4 0.814146 0.534643 0.860807
Si Si5 0.986352 0.755246 0.610243
O O1 0.395498 0.402179 0.852602
O O2 0.331134 0.667586 0.875361
O O3 0.433897 0.751898 0.850806
O O4 0.391698 0.639688 0.000000
O O5 0.369416 0.022401 0.884411
O O6 0.466122 0.144897 0.855720
O O7 0.419761 0.206452 0.000000
O O8 0.804360 0.219964 0.388149
O O9 0.735866 0.948937 0.395494
O O10 0.782964 0.000000 0.250000
O O11 0.814115 0.500000 0.750000
O O12 0.981620 0.709653 0.500000
O O13 0.000000 0.000000 0.617411
#
# Coordination Sequence:
#
# PCOD9500015 Si02
#       5
#    16  16  16  16  16
#     4   8  13  22  39  63  88 113 145 193 244 279
#     4   8  13  22  39  63  88 116 153 194 234 278
#     4   9  17  28  42  62  89 122 158 193 234 284
#     4   9  17  28  42  61  89 125 158 191 234 281
#     4   7  10  18  34  58  86 110 133 171 228 280
#
# _framework density 30.006685999999998
#
# number of rings (size 3 to 8) (size 9 to 14) (size 15 to 20)
#    0.000    3.800    0.000    2.400    0.000    0.800 
#    0.000    4.000    0.000   16.200    0.000    8.400 
#    0.000    4.800    0.000    1.800    0.000   12.400 
#
# Total GULP energy -223452.796078 kJ/mol
# GULP energy per Si atom -5586.319902 kJ/mol
# Density = 2.993839 g / cm^3
# Si number density = 30.006686 Si / 1000 Ang^3
#
#
#
# Elastic Constant Matrix: (Units=GPa)
#
#
# Indices 1 2 3 4 5 6 
#
# 1 452.4158 104.0843 26.9324 0.0000 0.0000 0.0000
# 2 104.0843 50.1067 -3.0390 0.0000 0.0000 0.0000
# 3 26.9324 -3.0390 102.6307 0.0000 0.0000 0.0000
# 4 0.0000 0.0000 0.0000 8.8603 0.0000 0.0000
# 5 0.0000 0.0000 0.0000 0.0000 4.1384 0.0000
# 6 0.0000 0.0000 0.0000 0.0000 0.0000 102.9075
#
#
#
# Elastic Compliance Matrix: (Units=1/GPa)
#
#
# Indices 1 2 3 4 5 6 
#
# 1 0.004436 -0.009302 -0.001440 0.000000 0.000000 0.000000
# 2 -0.009302 0.039500 0.003611 0.000000 0.000000 0.000000
# 3 -0.001440 0.003611 0.010228 0.000000 0.000000 0.000000
# 4 0.000000 0.000000 0.000000 0.112863 0.000000 0.000000
# 5 0.000000 0.000000 0.000000 0.000000 0.241639 0.000000
# 6 0.000000 0.000000 0.000000 0.000000 0.000000 0.009717
#
#
# Mechanical properties :
#
#
# Convention : Reuss Voigt Hill
#
# Bulk Modulus (GPa) = 25.06146 95.67873 60.37010
# Shear Modulus (GPa) = 11.21211 54.99296 33.10253
#
# Velocity S-wave (km/s) = 1.93511 4.28564 3.32501
# Velocity P-wave (km/s) = 3.65554 7.51292 5.90791
#
# Compressibility (1/GPa) = 0.03990191
#
# Stress axis : x y z
#
# Youngs Moduli (GPa) = 225.41819 25.31655 97.76733
#
# Poissons Ratio (x) = 0.23551 0.14075
# Poissons Ratio (y) = 2.09693 -0.35301
# Poissons Ratio (z) = 0.32451 -0.09141
#
# Static dielectric constant tensor:
#      x y z
#    x 2.312930 0.000000 0.000000 
#    y 0.000000 2.636080 0.000000 
#    z 0.000000 0.000000 2.181180 
# 
# From -- ./inp_files/44076.got.cif
#   From: 2010.05.17/outbox.cif.g08.bks.cpg/sg66_23_cif.got.tgz:44076.got - 2010.06.03 17:51:23.
