data_PCOD9500818
_publ_section_title
;
Structure prediction by ZEFSAII (Michael W. Deem and Ramdas Pophale) SiO2 
 PCOD9500818
Probable space group: C M M A
;
_chemical_formula_sum "Si O2"
_cell_formula_units_Z 120
_cell_length_a 27.446040
_cell_length_b 8.594845
_cell_length_c 29.002686
_cell_angle_alpha 90.000000
_cell_angle_beta 90.000000
_cell_angle_gamma 90.000000
_cell_volume 6841.572943
_symmetry_space_group_name_H-M "C M M A"
_symmetry_group_IT_number 67
_symmetry_cell_setting 'orthorhombic'
loop_
_space_group_symop_operation_xyz
x,y,z
-x,1/2-y,z
x,-y,-z
-x,1/2+y,-z
-x,-y,-z
x,1/2+y,-z
-x,y,z
x,1/2-y,z
1/2+x,1/2+y,z
1/2-x,-y,z
1/2+x,1/2-y,-z
1/2-x,y,-z
1/2-x,1/2-y,-z
1/2+x,y,-z
1/2-x,1/2+y,z
1/2+x,-y,z
loop_
_atom_site_type_symbol
_atom_site_label
_atom_site_fract_x
_atom_site_fract_y
_atom_site_fract_z
Si Si1 0.804588 0.062085 0.609726
Si Si2 0.302233 0.063971 0.899140
Si Si3 0.603563 0.563287 0.447678
Si Si4 0.399568 0.563342 0.049882
Si Si5 0.696564 0.437254 0.284387
Si Si6 0.554407 0.437664 0.854899
Si Si7 0.000000 0.936817 0.447404
Si Si8 0.148812 0.564243 0.191338
O O1 0.804096 0.250000 0.606236
O O2 0.814636 0.015285 0.663125
O O3 0.750000 0.000000 0.598020
O O4 0.848542 0.994859 0.579266
O O5 0.301597 0.250000 0.898861
O O6 0.345727 0.012154 0.933140
O O7 0.250000 0.000000 0.912945
O O8 0.316082 0.007066 0.847787
O O9 0.607222 0.500000 0.500000
O O10 0.601689 0.750000 0.448192
O O11 0.551760 0.498646 0.427973
O O12 0.399571 0.750000 0.047463
O O13 0.434730 0.517796 0.091984
O O14 0.412218 0.500000 0.000000
O O15 0.697537 0.250000 0.284432
O O16 0.750000 0.500000 0.273333
O O17 0.661852 0.488819 0.242899
O O18 0.500000 0.480783 0.841783
O O19 0.559640 0.250000 0.852453
O O20 0.595083 0.513791 0.823364
O O21 0.000000 0.750000 0.447235
O O22 0.000000 0.000000 0.500000
O O23 0.153650 0.750000 0.189157
#
# Coordination Sequence:
#
# PCOD9500818 Si02
#       8
#    16  16  16  16  16  16   8  16
#     4  10  20  36  54  77 109 145 182 221 270 323
#     4  10  20  33  48  70  99 130 162 199 243 291
#     4  11  21  35  55  81 110 144 185 230 273 320
#     4   9  19  33  48  68  95 126 161 200 242 293
#     4   9  19  33  52  77 106 136 169 207 252 302
#     4   9  19  36  54  72  97 129 163 202 251 300
#     4  10  18  32  54  80 106 138 178 224 272 316
#     4  10  19  32  52  78 102 127 163 206 249 298
#
# _framework density 17.539826000000001
#
# number of rings (size 3 to 8) (size 9 to 14) (size 15 to 20)
#    0.000    2.267    0.000    5.000    0.000    6.400 
#    0.000    2.667    1.467    0.000    0.000    0.000 
#    0.000    0.000    0.000    0.000    0.000    0.000 
#
# Total GULP energy -334627.720493 kJ/mol
# GULP energy per Si atom -5577.128675 kJ/mol
# Density = 1.749990 g / cm^3
# Si number density = 17.539826 Si / 1000 Ang^3
#
#
#
# Elastic Constant Matrix: (Units=GPa)
#
#
# Indices 1 2 3 4 5 6 
#
# 1 87.1707 31.2945 50.4867 0.0000 0.0000 0.0000
# 2 31.2945 62.6362 24.3304 0.0000 0.0000 0.0000
# 3 50.4867 24.3304 84.6285 0.0000 0.0000 0.0000
# 4 0.0000 0.0000 0.0000 21.5930 0.0000 0.0000
# 5 0.0000 0.0000 0.0000 0.0000 19.9091 0.0000
# 6 0.0000 0.0000 0.0000 0.0000 0.0000 15.5752
#
#
#
# Elastic Compliance Matrix: (Units=1/GPa)
#
#
# Indices 1 2 3 4 5 6 
#
# 1 0.019234 -0.005800 -0.009807 0.000000 0.000000 0.000000
# 2 -0.005800 0.019721 -0.002210 0.000000 0.000000 0.000000
# 3 -0.009807 -0.002210 0.018302 0.000000 0.000000 0.000000
# 4 0.000000 0.000000 0.000000 0.046311 0.000000 0.000000
# 5 0.000000 0.000000 0.000000 0.000000 0.050228 0.000000
# 6 0.000000 0.000000 0.000000 0.000000 0.000000 0.064205
#
#
# Mechanical properties :
#
#
# Convention : Reuss Voigt Hill
#
# Bulk Modulus (GPa) = 46.24480 49.62871 47.93675
# Shear Modulus (GPa) = 19.16864 19.97039 19.56952
#
# Velocity S-wave (km/s) = 3.30944 3.37794 3.34386
# Velocity P-wave (km/s) = 6.40515 6.60078 6.50370
#
# Compressibility (1/GPa) = 0.02162405
#
# Stress axis : x y z
#
# Youngs Moduli (GPa) = 51.99167 50.70615 54.63898
#
# Poissons Ratio (x) = 0.29411 0.53583
# Poissons Ratio (y) = 0.30157 0.12073
# Poissons Ratio (z) = 0.50987 0.11204
#
# Static dielectric constant tensor:
#      x y z
#    x 1.597610 0.000000 0.000000 
#    y 0.000000 1.599520 0.000000 
#    z 0.000000 0.000000 1.591660 
# 
# From -- ./inp_files/45006.got.cif
#   From: 2010.05.17/outbox.cif.g08.bks.cpg/sg67_23_cif.got.tgz:45006.got - 2010.06.03 18:28:57.
