data_PCOD9500362
_publ_section_title
;
Structure prediction by ZEFSAII (Michael W. Deem and Ramdas Pophale) SiO2 
 PCOD9500362
Probable space group: C M M A
;
_chemical_formula_sum "Si O2"
_cell_formula_units_Z 80
_cell_length_a 19.618795
_cell_length_b 8.590767
_cell_length_c 26.785853
_cell_angle_alpha 90.000000
_cell_angle_beta 90.000000
_cell_angle_gamma 90.000000
_cell_volume 4514.500968
_symmetry_space_group_name_H-M "C M M A"
_symmetry_group_IT_number 67
_symmetry_cell_setting 'orthorhombic'
loop_
_space_group_symop_operation_xyz
x,y,z
-x,1/2-y,z
x,-y,-z
-x,1/2+y,-z
-x,-y,-z
x,1/2+y,-z
-x,y,z
x,1/2-y,z
1/2+x,1/2+y,z
1/2-x,-y,z
1/2+x,1/2-y,-z
1/2-x,y,-z
1/2-x,1/2-y,-z
1/2+x,y,-z
1/2-x,1/2+y,z
1/2+x,-y,z
loop_
_atom_site_type_symbol
_atom_site_label
_atom_site_fract_x
_atom_site_fract_y
_atom_site_fract_z
Si Si1 0.673400 0.562590 0.446666
Si Si2 0.419373 0.937110 0.243112
Si Si3 0.173293 0.065289 0.844512
Si Si4 0.578044 0.439537 0.644034
Si Si5 0.172363 0.564559 0.948688
O O1 0.647715 0.500000 0.500000
O O2 0.674756 0.750000 0.448188
O O3 0.750000 0.500000 0.440467
O O4 0.627207 0.509975 0.400328
O O5 0.500000 0.968969 0.236238
O O6 0.410396 0.750000 0.239319
O O7 0.401182 0.985807 0.299843
O O8 0.373405 0.018234 0.201879
O O9 0.177680 0.250000 0.850019
O O10 0.250000 0.000000 0.837390
O O11 0.143584 0.993952 0.896018
O O12 0.500000 0.489608 0.635640
O O13 0.577856 0.250000 0.644011
O O14 0.173872 0.750000 0.950229
O O15 0.250000 0.500000 0.948014
O O16 0.140613 0.500000 0.000000
#
# Coordination Sequence:
#
# PCOD9500362 Si02
#       5
#    16  16  16  16  16
#     4  10  19  32  50  72 100 131 163 199 243 293
#     4   9  18  35  56  75  99 133 169 205 252 307
#     4  11  21  33  50  75 105 134 170 212 253 298
#     4   8  16  32  53  74  96 126 164 203 244 293
#     4  10  17  28  46  70 100 132 167 206 253 301
#
# _framework density 17.720673999999999
#
# number of rings (size 3 to 8) (size 9 to 14) (size 15 to 20)
#    0.000    2.400    0.000    7.800    0.000    1.600 
#    0.000    4.000    0.000    4.800    0.000    0.000 
#    0.000    0.000    0.000    0.000    0.000    0.000 
#
# Total GULP energy -223057.887438 kJ/mol
# GULP energy per Si atom -5576.447186 kJ/mol
# Density = 1.768034 g / cm^3
# Si number density = 17.720674 Si / 1000 Ang^3
#
#
#
# Elastic Constant Matrix: (Units=GPa)
#
#
# Indices 1 2 3 4 5 6 
#
# 1 44.2755 32.1774 76.6190 0.0000 0.0000 0.0000
# 2 32.1774 103.1507 61.7711 0.0000 0.0000 0.0000
# 3 76.6190 61.7711 199.9453 0.0000 0.0000 0.0000
# 4 0.0000 0.0000 0.0000 41.9031 0.0000 0.0000
# 5 0.0000 0.0000 0.0000 0.0000 -282.4128 0.0000
# 6 0.0000 0.0000 0.0000 0.0000 0.0000 14.9800
#
#
#
# Elastic Compliance Matrix: (Units=1/GPa)
#
#
# Indices 1 2 3 4 5 6 
#
# 1 0.071152 -0.007200 -0.025041 0.000000 0.000000 0.000000
# 2 -0.007200 0.012624 -0.001141 0.000000 0.000000 0.000000
# 3 -0.025041 -0.001141 0.014950 0.000000 0.000000 0.000000
# 4 0.000000 0.000000 0.000000 0.023865 0.000000 0.000000
# 5 0.000000 0.000000 0.000000 0.000000 -0.003541 0.000000
# 6 0.000000 0.000000 0.000000 0.000000 0.000000 0.066756
#
#
# Mechanical properties :
#
#
# Convention : Reuss Voigt Hill
#
# Bulk Modulus (GPa) = 31.28757 76.50074 53.89416
# Shear Modulus (GPa) = 18.99527 -33.31902 -7.16187
#
# Velocity S-wave (km/s) = 3.27758 -4.34087 -2.01254
# Velocity P-wave (km/s) = 5.65842 4.25909 5.00787
#
# Compressibility (1/GPa) = 0.03196158
#
# Stress axis : x y z
#
# Youngs Moduli (GPa) = 14.05433 79.21538 66.89110
#
# Poissons Ratio (x) = 0.57034 1.67504
# Poissons Ratio (y) = 0.10119 0.07632
# Poissons Ratio (z) = 0.35194 0.09038
#
# Static dielectric constant tensor:
#      x y z
#    x 1.584140 0.000000 0.000000 
#    y 0.000000 1.597070 0.000000 
#    z 0.000000 0.000000 1.637160 
# 
# From -- ./inp_files/43333.got.cif
#   From: 2010.05.17/outbox.cif.g08.bks.cpg/sg67_22_cif.got.tgz:43333.got - 2010.06.03 18:28:57.
