data_PCOD9500201
_publ_section_title
;
Structure prediction by ZEFSAII (Michael W. Deem and Ramdas Pophale) SiO2 
 PCOD9500201
Probable space group: C M M A
;
_chemical_formula_sum "Si O2"
_cell_formula_units_Z 72
_cell_length_a 9.915263
_cell_length_b 16.826033
_cell_length_c 21.139360
_cell_angle_alpha 90.000000
_cell_angle_beta 90.000000
_cell_angle_gamma 90.000000
_cell_volume 3526.775453
_symmetry_space_group_name_H-M "C M M A"
_symmetry_group_IT_number 67
_symmetry_cell_setting 'orthorhombic'
loop_
_space_group_symop_operation_xyz
x,y,z
-x,1/2-y,z
x,-y,-z
-x,1/2+y,-z
-x,-y,-z
x,1/2+y,-z
-x,y,z
x,1/2-y,z
1/2+x,1/2+y,z
1/2-x,-y,z
1/2+x,1/2-y,-z
1/2-x,y,-z
1/2-x,1/2-y,-z
1/2+x,y,-z
1/2-x,1/2+y,z
1/2+x,-y,z
loop_
_atom_site_type_symbol
_atom_site_label
_atom_site_fract_x
_atom_site_fract_y
_atom_site_fract_z
Si Si1 0.241544 0.904153 0.806799
Si Si2 0.500000 0.923617 0.282590
Si Si3 0.750000 0.376150 0.500000
Si Si4 0.000000 0.552337 0.575991
Si Si5 0.000000 0.616765 0.269499
Si Si6 0.000000 0.360954 0.585037
Si Si7 0.346357 0.345841 0.943746
O O1 0.372329 0.867366 0.774398
O O2 0.207183 0.870061 0.875074
O O3 0.126323 0.891396 0.755188
O O4 0.250000 0.000000 0.813897
O O5 0.500000 0.905989 0.356175
O O6 0.500000 0.020265 0.279154
O O7 0.859605 0.423019 0.457299
O O8 0.639135 0.336648 0.451505
O O9 0.000000 0.457404 0.580926
O O10 0.000000 0.654811 0.339552
O O11 0.500000 0.374662 0.951427
O O12 0.348600 0.250000 0.946741
O O13 0.250000 0.375029 0.000000
#
# Coordination Sequence:
#
# PCOD9500201 Si02
#       7
#    16   8   8   8   8   8  16
#     4  10  19  34  52  77 105 139 178 214 256 310
#     4   9  17  30  45  64  97 136 177 214 260 306
#     4  10  17  22  34  54  84 126 177 214 247 300
#     4  10  16  23  36  54  84 127 169 216 251 298
#     4   9  19  28  45  68  99 136 173 216 260 310
#     4  10  16  25  34  56  86 127 175 210 251 298
#     4  10  22  40  60  81 106 137 172 211 259 310
#
# _framework density 20.41525
#
# number of rings (size 3 to 8) (size 9 to 14) (size 15 to 20)
#    0.000    2.222    1.111    4.000    1.556    4.000 
#    0.000    1.111    0.000    0.000    0.000    0.000 
#    0.000    0.000    0.000   70.000    0.000   77.778 
#
# Total GULP energy -200674.901463 kJ/mol
# GULP energy per Si atom -5574.302818 kJ/mol
# Density = 2.036878 g / cm^3
# Si number density = 20.415250 Si / 1000 Ang^3
#
#
#
# Elastic Constant Matrix: (Units=GPa)
#
#
# Indices 1 2 3 4 5 6 
#
# 1 216.9316 27.1254 121.1781 0.0000 0.0000 0.0000
# 2 27.1254 30.6035 20.4064 0.0000 0.0000 0.0000
# 3 121.1781 20.4064 220.7364 0.0000 0.0000 0.0000
# 4 0.0000 0.0000 0.0000 154.0282 0.0000 0.0000
# 5 0.0000 0.0000 0.0000 0.0000 35.8542 0.0000
# 6 0.0000 0.0000 0.0000 0.0000 0.0000 -10.9374
#
#
#
# Elastic Compliance Matrix: (Units=1/GPa)
#
#
# Indices 1 2 3 4 5 6 
#
# 1 0.007063 -0.003916 -0.003515 0.000000 0.000000 0.000000
# 2 -0.003916 0.036994 -0.001270 0.000000 0.000000 0.000000
# 3 -0.003515 -0.001270 0.006578 0.000000 0.000000 0.000000
# 4 0.000000 0.000000 0.000000 0.006492 0.000000 0.000000
# 5 0.000000 0.000000 0.000000 0.000000 0.027891 0.000000
# 6 0.000000 0.000000 0.000000 0.000000 0.000000 -0.091430
#
#
# Mechanical properties :
#
#
# Convention : Reuss Voigt Hill
#
# Bulk Modulus (GPa) = 30.09212 89.52123 59.80667
# Shear Modulus (GPa) = 226.56156 55.75978 141.16067
#
# Velocity S-wave (km/s) = 10.54597 5.23184 8.32435
# Velocity P-wave (km/s) = 12.76958 8.96892 11.03412
#
# Compressibility (1/GPa) = 0.03323129
#
# Stress axis : x y z
#
# Youngs Moduli (GPa) = 141.57932 27.03129 152.03175
#
# Poissons Ratio (x) = 0.10586 0.53446
# Poissons Ratio (y) = 0.55448 0.19308
# Poissons Ratio (z) = 0.49771 0.03433
#
# Static dielectric constant tensor:
#      x y z
#    x 1.711030 0.000000 0.000000 
#    y 0.000000 1.762220 0.000000 
#    z 0.000000 0.000000 1.702960 
# 
# From -- ./inp_files/36808.got.cif
#   From: 2010.05.17/outbox.cif.g08.bks.cpg/sg67_19_cif.got.tgz:36808.got - 2010.06.03 18:28:57.
