data_PCOD9500488
_publ_section_title
;
Structure prediction by ZEFSAII (Michael W. Deem and Ramdas Pophale) SiO2 
 PCOD9500488
Probable space group: C M M A
;
_chemical_formula_sum "Si O2"
_cell_formula_units_Z 88
_cell_length_a 31.738127
_cell_length_b 8.388985
_cell_length_c 18.080258
_cell_angle_alpha 90.000000
_cell_angle_beta 90.000000
_cell_angle_gamma 90.000000
_cell_volume 4813.880830
_symmetry_space_group_name_H-M "C M M A"
_symmetry_group_IT_number 67
_symmetry_cell_setting 'orthorhombic'
loop_
_space_group_symop_operation_xyz
x,y,z
-x,1/2-y,z
x,-y,-z
-x,1/2+y,-z
-x,-y,-z
x,1/2+y,-z
-x,y,z
x,1/2-y,z
1/2+x,1/2+y,z
1/2-x,-y,z
1/2+x,1/2-y,-z
1/2-x,y,-z
1/2-x,1/2-y,-z
1/2+x,y,-z
1/2-x,1/2+y,z
1/2+x,-y,z
loop_
_atom_site_type_symbol
_atom_site_label
_atom_site_fract_x
_atom_site_fract_y
_atom_site_fract_z
Si Si1 0.676376 0.059209 0.420763
Si Si2 0.088898 0.056407 0.640427
Si Si3 0.500000 0.443162 0.416895
Si Si4 0.619449 0.442417 0.197040
Si Si5 0.795338 0.560941 0.740153
Si Si6 0.047459 0.942830 0.084176
O O1 0.677879 0.250000 0.421183
O O2 0.627639 0.003335 0.410928
O O3 0.693017 0.000000 0.500000
O O4 0.697451 0.003585 0.343911
O O5 0.088613 0.250000 0.636741
O O6 0.043132 0.997648 0.618844
O O7 0.099195 0.012971 0.724205
O O8 0.500000 0.250000 0.412889
O O9 0.500000 0.500000 0.500000
O O10 0.621748 0.250000 0.192894
O O11 0.666996 0.505069 0.205771
O O12 0.586972 0.497969 0.133831
O O13 0.795757 0.750000 0.736101
O O14 0.750000 0.500000 0.765743
O O15 0.047865 0.750000 0.085773
O O16 0.000000 0.992157 0.109789
O O17 0.052057 0.000000 0.000000
#
# Coordination Sequence:
#
# PCOD9500488 Si02
#       6
#    16  16   8  16  16  16
#     4  10  19  33  50  72 100 134 174 222 272 322
#     4   8  16  28  45  67  93 128 171 215 256 302
#     4  10  18  28  42  62  89 126 168 212 255 298
#     4   9  18  34  54  78 106 139 178 218 260 311
#     4  11  22  37  56  78 103 135 174 221 273 325
#     4   9  18  32  54  84 117 151 182 215 256 306
#
# _framework density 18.280470000000001
#
# number of rings (size 3 to 8) (size 9 to 14) (size 15 to 20)
#    0.000    2.545    0.000    3.818    1.273    1.091 
#    0.000    5.455    0.000    0.545    0.000    3.818 
#    0.000    0.000    0.000    0.000    0.000    0.000 
#
# Total GULP energy -245247.296789 kJ/mol
# GULP energy per Si atom -5573.802200 kJ/mol
# Density = 1.823886 g / cm^3
# Si number density = 18.280470 Si / 1000 Ang^3
#
#
#
# Elastic Constant Matrix: (Units=GPa)
#
#
# Indices 1 2 3 4 5 6 
#
# 1 167.2630 27.5626 61.4479 0.0000 0.0000 0.0000
# 2 27.5626 43.6132 17.8837 0.0000 0.0000 0.0000
# 3 61.4479 17.8837 74.8423 0.0000 0.0000 0.0000
# 4 0.0000 0.0000 0.0000 24.0028 0.0000 0.0000
# 5 0.0000 0.0000 0.0000 0.0000 -10.9448 0.0000
# 6 0.0000 0.0000 0.0000 0.0000 0.0000 19.3810
#
#
#
# Elastic Compliance Matrix: (Units=1/GPa)
#
#
# Indices 1 2 3 4 5 6 
#
# 1 0.008881 -0.002908 -0.006597 0.000000 0.000000 0.000000
# 2 -0.002908 0.026371 -0.003914 0.000000 0.000000 0.000000
# 3 -0.006597 -0.003914 0.019713 0.000000 0.000000 0.000000
# 4 0.000000 0.000000 0.000000 0.041662 0.000000 0.000000
# 5 0.000000 0.000000 0.000000 0.000000 -0.091368 0.000000
# 6 0.000000 0.000000 0.000000 0.000000 0.000000 0.051597
#
#
# Mechanical properties :
#
#
# Convention : Reuss Voigt Hill
#
# Bulk Modulus (GPa) = 35.55171 55.50076 45.52623
# Shear Modulus (GPa) = 53.72258 18.40943 36.06601
#
# Velocity S-wave (km/s) = 5.42695 3.17685 4.44658
# Velocity P-wave (km/s) = 7.66545 6.62443 7.16388
#
# Compressibility (1/GPa) = 0.02812804
#
# Stress axis : x y z
#
# Youngs Moduli (GPa) = 112.59566 37.91977 50.72757
#
# Poissons Ratio (x) = 0.11026 0.33465
# Poissons Ratio (y) = 0.32739 0.19856
# Poissons Ratio (z) = 0.74280 0.14843
#
# Static dielectric constant tensor:
#      x y z
#    x 1.633430 0.000000 0.000000 
#    y 0.000000 1.634660 0.000000 
#    z 0.000000 0.000000 1.591690 
# 
# From -- ./inp_files/36146.got.cif
#   From: 2010.05.17/outbox.cif.g08.bks.cpg/sg67_19_cif.got.tgz:36146.got - 2010.06.03 18:28:57.
