data_PCOD9500155
_publ_section_title
;
Structure prediction by ZEFSAII (Michael W. Deem and Ramdas Pophale) SiO2 
 PCOD9500155
Probable space group: C M M A
;
_chemical_formula_sum "Si O2"
_cell_formula_units_Z 68
_cell_length_a 16.965338
_cell_length_b 21.532978
_cell_length_c 7.173689
_cell_angle_alpha 90.000000
_cell_angle_beta 90.000000
_cell_angle_gamma 90.000000
_cell_volume 2620.650816
_symmetry_space_group_name_H-M "C M M A"
_symmetry_group_IT_number 67
_symmetry_cell_setting 'orthorhombic'
loop_
_space_group_symop_operation_xyz
x,y,z
-x,1/2-y,z
x,-y,-z
-x,1/2+y,-z
-x,-y,-z
x,1/2+y,-z
-x,y,z
x,1/2-y,z
1/2+x,1/2+y,z
1/2-x,-y,z
1/2+x,1/2-y,-z
1/2-x,y,-z
1/2-x,1/2-y,-z
1/2+x,y,-z
1/2-x,1/2+y,z
1/2+x,-y,z
loop_
_atom_site_type_symbol
_atom_site_label
_atom_site_fract_x
_atom_site_fract_y
_atom_site_fract_z
Si Si1 0.500000 0.557423 0.859000
Si Si2 0.830411 0.613214 0.770048
Si Si3 0.847816 0.111133 0.780869
Si Si4 0.000000 0.250000 0.146085
Si Si5 0.500000 0.384505 0.756900
Si Si6 0.624703 0.250000 0.186191
Si Si7 0.790833 0.750000 0.699853
O O1 0.419485 0.564299 0.746065
O O2 0.500000 0.500000 0.000000
O O3 0.500000 0.612523 0.014519
O O4 0.740711 0.595701 0.709468
O O5 0.914992 0.587546 0.698799
O O6 0.833797 0.685738 0.721575
O O7 0.834990 0.608206 0.994442
O O8 0.881047 0.180174 0.726188
O O9 0.927492 0.250000 0.998208
O O10 0.000000 0.310858 0.273890
O O11 0.717751 0.250000 0.159994
O O12 0.750000 0.750000 0.500000
#
# Coordination Sequence:
#
# PCOD9500155 Si02
#       7
#     8  16  16   4   8   8   8
#     4  10  18  28  42  69 108 125 142 192 241 296
#     4   9  16  28  45  64  92 125 158 192 220 282
#     4   9  16  27  45  70  90 125 160 182 233 279
#     4  12  14  24  46  70  88 118 156 190 214 274
#     4  10  18  28  45  72  93 124 161 187 231 283
#     4  10  15  26  45  63  94 117 154 190 218 284
#     4  10  20  29  40  65 100 132 155 196 243 275
#
# _framework density 25.947754
#
# number of rings (size 3 to 8) (size 9 to 14) (size 15 to 20)
#    0.000    2.353    4.706    1.412    0.000    2.824 
#    0.000   10.588    0.000    0.000    0.000    0.000 
#    0.000   90.353    0.000    0.000    0.000    0.000 
#
# Total GULP energy -189320.806150 kJ/mol
# GULP energy per Si atom -5568.259004 kJ/mol
# Density = 2.588870 g / cm^3
# Si number density = 25.947754 Si / 1000 Ang^3
#
#
#
# Elastic Constant Matrix: (Units=GPa)
#
#
# Indices 1 2 3 4 5 6 
#
# 1 319.1827 47.7959 25.6952 0.0000 0.0000 0.0000
# 2 47.7959 74.3555 -1.9782 0.0000 0.0000 0.0000
# 3 25.6952 -1.9782 82.9997 0.0000 0.0000 0.0000
# 4 0.0000 0.0000 0.0000 -20.1212 0.0000 0.0000
# 5 0.0000 0.0000 0.0000 0.0000 -11.1126 0.0000
# 6 0.0000 0.0000 0.0000 0.0000 0.0000 -20.6448
#
#
#
# Elastic Compliance Matrix: (Units=1/GPa)
#
#
# Indices 1 2 3 4 5 6 
#
# 1 0.003575 -0.002329 -0.001162 0.000000 0.000000 0.000000
# 2 -0.002329 0.014975 0.001078 0.000000 0.000000 0.000000
# 3 -0.001162 0.001078 0.012434 0.000000 0.000000 0.000000
# 4 0.000000 0.000000 0.000000 -0.049699 0.000000 0.000000
# 5 0.000000 0.000000 0.000000 0.000000 -0.089988 0.000000
# 6 0.000000 0.000000 0.000000 0.000000 0.000000 -0.048438
#
#
# Mechanical properties :
#
#
# Convention : Reuss Voigt Hill
#
# Bulk Modulus (GPa) = 38.23099 68.84041 53.53570
# Shear Modulus (GPa) = -34.82022 16.62593 -9.09714
#
# Velocity S-wave (km/s) = -3.66722 2.53404 -1.87445
# Velocity P-wave (km/s) = 1.77919 5.92873 3.99902
#
# Compressibility (1/GPa) = 0.02615679
#
# Stress axis : x y z
#
# Youngs Moduli (GPa) = 279.69221 66.77888 80.42603
#
# Poissons Ratio (x) = 0.15554 0.09349
# Poissons Ratio (y) = 0.65145 -0.08670
# Poissons Ratio (z) = 0.32511 -0.07199
#
# Static dielectric constant tensor:
#      x y z
#    x 2.365600 0.000000 0.000000 
#    y 0.000000 2.107820 0.000000 
#    z 0.000000 0.000000 2.039500 
# 
# From -- ./inp_files/9575.got.cif
#   From: 2010.05.17/outbox.cif.g08.bks.cpg/sg67_5_cif.got.tgz:9575.got - 2010.06.03 18:28:57.
