data_PCOD9500846
_publ_section_title
;
Structure prediction by ZEFSAII (Michael W. Deem and Ramdas Pophale) SiO2 
 PCOD9500846
Probable space group: C M M A
;
_chemical_formula_sum "Si O2"
_cell_formula_units_Z 96
_cell_length_a 30.032067
_cell_length_b 8.151143
_cell_length_c 21.149275
_cell_angle_alpha 90.000000
_cell_angle_beta 90.000000
_cell_angle_gamma 90.000000
_cell_volume 5177.251001
_symmetry_space_group_name_H-M "C M M A"
_symmetry_group_IT_number 67
_symmetry_cell_setting 'orthorhombic'
loop_
_space_group_symop_operation_xyz
x,y,z
-x,1/2-y,z
x,-y,-z
-x,1/2+y,-z
-x,-y,-z
x,1/2+y,-z
-x,y,z
x,1/2-y,z
1/2+x,1/2+y,z
1/2-x,-y,z
1/2+x,1/2-y,-z
1/2-x,y,-z
1/2-x,1/2-y,-z
1/2+x,y,-z
1/2-x,1/2+y,z
1/2+x,-y,z
loop_
_atom_site_type_symbol
_atom_site_label
_atom_site_fract_x
_atom_site_fract_y
_atom_site_fract_z
Si Si1 0.950985 0.550459 0.386750
Si Si2 0.450962 0.449728 0.237995
Si Si3 0.199831 0.056021 0.071546
Si Si4 0.301101 0.051754 0.309440
Si Si5 0.856163 0.447869 0.568286
Si Si6 0.142311 0.052419 0.811551
O O1 0.951386 0.750000 0.390251
O O2 0.945770 0.509411 0.312343
O O3 0.907091 0.491515 0.422563
O O4 0.000000 0.492584 0.408118
O O5 0.500000 0.506582 0.217154
O O6 0.451289 0.250000 0.235358
O O7 0.408119 0.507830 0.199439
O O8 0.199487 0.250000 0.072615
O O9 0.250000 0.000000 0.088075
O O10 0.164945 0.992569 0.122708
O O11 0.190424 0.000000 0.000000
O O12 0.302915 0.250000 0.309235
O O13 0.326374 0.994828 0.372825
O O14 0.327277 0.993503 0.247032
O O15 0.250000 0.000000 0.308443
O O16 0.838964 0.500000 0.500000
O O17 0.857139 0.250000 0.570824
O O18 0.141069 0.250000 0.807631
#
# Coordination Sequence:
#
# PCOD9500846 Si02
#       6
#    16  16  16  16  16  16
#     4   8  13  25  47  72  97 126 162 204 251 306
#     4   8  13  24  48  79 105 132 169 211 253 301
#     4  11  22  37  56  81 112 145 177 211 253 303
#     4  10  21  35  51  71  97 129 169 214 259 306
#     4  10  20  34  49  69  96 129 167 210 258 308
#     4  10  18  32  55  82 109 136 170 214 258 305
#
# _framework density 18.542659
#
# number of rings (size 3 to 8) (size 9 to 14) (size 15 to 20)
#    0.000    2.500    1.667    3.500    0.000    3.333 
#    0.000    1.667    0.000    1.000    0.000    2.333 
#    0.000    0.000    0.000    0.000    0.000    0.000 
#
# Total GULP energy -267765.183111 kJ/mol
# GULP energy per Si atom -5578.441315 kJ/mol
# Density = 1.850045 g / cm^3
# Si number density = 18.542659 Si / 1000 Ang^3
#
#
#
# Elastic Constant Matrix: (Units=GPa)
#
#
# Indices 1 2 3 4 5 6 
#
# 1 148.5274 14.7252 76.0961 0.0000 0.0000 0.0000
# 2 14.7252 14.0594 6.7884 0.0000 0.0000 0.0000
# 3 76.0961 6.7884 95.7684 0.0000 0.0000 0.0000
# 4 0.0000 0.0000 0.0000 14.1155 0.0000 0.0000
# 5 0.0000 0.0000 0.0000 0.0000 30.2719 0.0000
# 6 0.0000 0.0000 0.0000 0.0000 0.0000 13.4177
#
#
#
# Elastic Compliance Matrix: (Units=1/GPa)
#
#
# Indices 1 2 3 4 5 6 
#
# 1 0.012247 -0.008417 -0.009135 0.000000 0.000000 0.000000
# 2 -0.008417 0.079432 0.001057 0.000000 0.000000 0.000000
# 3 -0.009135 0.001057 0.017625 0.000000 0.000000 0.000000
# 4 0.000000 0.000000 0.000000 0.070844 0.000000 0.000000
# 5 0.000000 0.000000 0.000000 0.000000 0.033034 0.000000
# 6 0.000000 0.000000 0.000000 0.000000 0.000000 0.074528
#
#
# Mechanical properties :
#
#
# Convention : Reuss Voigt Hill
#
# Bulk Modulus (GPa) = 13.10342 50.39717 31.75029
# Shear Modulus (GPa) = 14.44510 22.27740 18.36125
#
# Velocity S-wave (km/s) = 2.79412 3.46990 3.15018
# Velocity P-wave (km/s) = 4.18228 6.57964 5.51285
#
# Compressibility (1/GPa) = 0.07631597
#
# Stress axis : x y z
#
# Youngs Moduli (GPa) = 81.64991 12.58943 56.73616
#
# Poissons Ratio (x) = 0.10596 0.51829
# Poissons Ratio (y) = 0.68723 -0.06000
# Poissons Ratio (z) = 0.74587 -0.01331
#
# Static dielectric constant tensor:
#      x y z
#    x 1.626410 0.000000 0.000000 
#    y 0.000000 1.687780 0.000000 
#    z 0.000000 0.000000 1.545360 
# 
# From -- ./inp_files/37214.got.cif
#   From: 2010.05.17/outbox.cif.g08.bks.cpg/sg67_19_cif.got.tgz:37214.got - 2010.06.03 18:28:57.
