data_PCOD9500613
_publ_section_title
;
Structure prediction by ZEFSAII (Michael W. Deem and Ramdas Pophale) SiO2 
 PCOD9500613
Probable space group: C M M A
;
_chemical_formula_sum "Si O2"
_cell_formula_units_Z 72
_cell_length_a 31.842624
_cell_length_b 8.653776
_cell_length_c 14.652448
_cell_angle_alpha 90.000000
_cell_angle_beta 90.000000
_cell_angle_gamma 90.000000
_cell_volume 4037.612971
_symmetry_space_group_name_H-M "C M M A"
_symmetry_group_IT_number 67
_symmetry_cell_setting 'orthorhombic'
loop_
_space_group_symop_operation_xyz
x,y,z
-x,1/2-y,z
x,-y,-z
-x,1/2+y,-z
-x,-y,-z
x,1/2+y,-z
-x,y,z
x,1/2-y,z
1/2+x,1/2+y,z
1/2-x,-y,z
1/2+x,1/2-y,-z
1/2-x,y,-z
1/2-x,1/2-y,-z
1/2+x,y,-z
1/2-x,1/2+y,z
1/2+x,-y,z
loop_
_atom_site_type_symbol
_atom_site_label
_atom_site_fract_x
_atom_site_fract_y
_atom_site_fract_z
Si Si1 0.295955 0.433881 0.399973
Si Si2 0.628904 0.563650 0.283118
Si Si3 0.953123 0.936774 0.602551
Si Si4 0.000000 0.434562 0.896578
Si Si5 0.412335 0.065460 0.898617
O O1 0.307168 0.500000 0.500000
O O2 0.293701 0.250000 0.405526
O O3 0.250000 0.500000 0.376703
O O4 0.331080 0.486731 0.329027
O O5 0.632329 0.750000 0.291515
O O6 0.586418 0.514970 0.336475
O O7 0.622549 0.526797 0.176426
O O8 0.952884 0.750000 0.600148
O O9 0.000000 0.985361 0.634838
O O10 0.948001 0.000000 0.500000
O O11 0.043604 0.499975 0.859748
O O12 0.000000 0.250000 0.896568
O O13 0.000000 0.500000 0.000000
O O14 0.416398 0.250000 0.905217
O O15 0.405088 0.000000 0.000000
#
# Coordination Sequence:
#
# PCOD9500613 Si02
#       5
#    16  16  16   8  16
#     4  11  22  38  61  86 115 143 177 222 272 328
#     4  10  21  35  55  80 107 143 185 225 273 329
#     4   9  18  32  49  70 101 140 178 215 257 312
#     4  10  18  30  48  70  99 136 183 232 276 322
#     4  10  20  34  53  75 106 144 185 232 279 328
#
# _framework density 17.832318000000001
#
# number of rings (size 3 to 8) (size 9 to 14) (size 15 to 20)
#    0.000    2.000    0.000    6.333    1.556    4.444 
#    0.000    0.000    0.000    0.667    0.000    4.667 
#    0.000    0.000    0.000    0.000    0.000    0.000 
#
# Total GULP energy -200959.711712 kJ/mol
# GULP energy per Si atom -5582.214214 kJ/mol
# Density = 1.779173 g / cm^3
# Si number density = 17.832318 Si / 1000 Ang^3
#
#
#
# Elastic Constant Matrix: (Units=GPa)
#
#
# Indices 1 2 3 4 5 6 
#
# 1 110.0712 58.4256 87.9047 0.0000 0.0000 0.0000
# 2 58.4256 85.1101 53.6488 0.0000 0.0000 0.0000
# 3 87.9047 53.6488 110.7218 0.0000 0.0000 0.0000
# 4 0.0000 0.0000 0.0000 20.7418 0.0000 0.0000
# 5 0.0000 0.0000 0.0000 0.0000 28.1033 0.0000
# 6 0.0000 0.0000 0.0000 0.0000 0.0000 24.8085
#
#
#
# Elastic Compliance Matrix: (Units=1/GPa)
#
#
# Indices 1 2 3 4 5 6 
#
# 1 0.027746 -0.007431 -0.018428 0.000000 0.000000 0.000000
# 2 -0.007431 0.018906 -0.003261 0.000000 0.000000 0.000000
# 3 -0.018428 -0.003261 0.025242 0.000000 0.000000 0.000000
# 4 0.000000 0.000000 0.000000 0.048212 0.000000 0.000000
# 5 0.000000 0.000000 0.000000 0.000000 0.035583 0.000000
# 6 0.000000 0.000000 0.000000 0.000000 0.000000 0.040309
#
#
# Mechanical properties :
#
#
# Convention : Reuss Voigt Hill
#
# Bulk Modulus (GPa) = 73.23503 78.42904 75.83204
# Shear Modulus (GPa) = 19.32077 21.79231 20.55654
#
# Velocity S-wave (km/s) = 3.29518 3.49960 3.39893
# Velocity P-wave (km/s) = 7.45892 7.77216 7.61715
#
# Compressibility (1/GPa) = 0.01365467
#
# Stress axis : x y z
#
# Youngs Moduli (GPa) = 36.04125 52.89237 39.61673
#
# Poissons Ratio (x) = 0.39305 0.73004
# Poissons Ratio (y) = 0.26783 0.12919
# Poissons Ratio (z) = 0.66415 0.17249
#
# Static dielectric constant tensor:
#      x y z
#    x 1.613530 0.000000 0.000000 
#    y 0.000000 1.611480 0.000000 
#    z 0.000000 0.000000 1.598250 
# 
# From -- ./inp_files/30985.got.cif
#   From: 2010.05.17/outbox.cif.g08.bks.cpg/sg67_16_cif.got.tgz:30985.got - 2010.06.03 18:28:57.
