data_PCOD9500569
_publ_section_title
;
Structure prediction by ZEFSAII (Michael W. Deem and Ramdas Pophale) SiO2 
 PCOD9500569
Probable space group: C M M A
;
_chemical_formula_sum "Si O2"
_cell_formula_units_Z 72
_cell_length_a 15.018603
_cell_length_b 15.485977
_cell_length_c 15.548471
_cell_angle_alpha 90.000000
_cell_angle_beta 90.000000
_cell_angle_gamma 90.000000
_cell_volume 3616.228255
_symmetry_space_group_name_H-M "C M M A"
_symmetry_group_IT_number 67
_symmetry_cell_setting 'orthorhombic'
loop_
_space_group_symop_operation_xyz
x,y,z
-x,1/2-y,z
x,-y,-z
-x,1/2+y,-z
-x,-y,-z
x,1/2+y,-z
-x,y,z
x,1/2-y,z
1/2+x,1/2+y,z
1/2-x,-y,z
1/2+x,1/2-y,-z
1/2-x,y,-z
1/2-x,1/2-y,-z
1/2+x,y,-z
1/2-x,1/2+y,z
1/2+x,-y,z
loop_
_atom_site_type_symbol
_atom_site_label
_atom_site_fract_x
_atom_site_fract_y
_atom_site_fract_z
Si Si1 0.893173 0.058802 0.420861
Si Si2 0.107222 0.061681 0.926574
Si Si3 0.676227 0.250000 0.283033
Si Si4 0.394321 0.750000 0.904490
Si Si5 0.680366 0.750000 0.421841
Si Si6 0.607346 0.937380 0.729662
O O1 0.870226 0.159182 0.428536
O O2 0.000000 0.052348 0.420519
O O3 0.860209 0.000000 0.500000
O O4 0.860821 0.012991 0.333245
O O5 0.120784 0.161206 0.952820
O O6 0.139641 0.051716 0.828218
O O7 0.000000 0.047927 0.922208
O O8 0.143568 0.000000 0.000000
O O9 0.666622 0.250000 0.180036
O O10 0.770061 0.250000 0.329955
O O11 0.631682 0.157833 0.306495
O O12 0.500000 0.750000 0.875885
O O13 0.750000 0.750000 0.500000
O O14 0.500000 0.939777 0.732858
#
# Coordination Sequence:
#
# PCOD9500569 Si02
#       6
#    16  16   8   8   8  16
#     4  10  22  40  58  75 101 137 172 209 255 306
#     4   8  13  23  42  71 103 131 166 214 258 293
#     4  10  18  29  50  77 104 133 166 213 259 298
#     4   8  14  26  44  70 105 138 173 214 256 308
#     4  12  25  37  53  79 107 133 167 213 258 306
#     4   9  17  31  52  77 105 139 177 213 255 308
#
# _framework density 19.910247999999999
#
# number of rings (size 3 to 8) (size 9 to 14) (size 15 to 20)
#    0.000    2.667    0.000    4.000    0.000    3.111 
#    0.000    6.667    0.000    5.333    0.000   18.667 
#    0.000    0.000    0.000    0.000    0.000    3.556 
#
# Total GULP energy -200632.289484 kJ/mol
# GULP energy per Si atom -5573.119152 kJ/mol
# Density = 1.986493 g / cm^3
# Si number density = 19.910248 Si / 1000 Ang^3
#
#
#
# Elastic Constant Matrix: (Units=GPa)
#
#
# Indices 1 2 3 4 5 6 
#
# 1 29.7110 18.5474 16.1408 0.0000 0.0000 0.0000
# 2 18.5474 183.8331 92.1952 0.0000 0.0000 0.0000
# 3 16.1408 92.1952 94.7518 0.0000 0.0000 0.0000
# 4 0.0000 0.0000 0.0000 37.2438 0.0000 0.0000
# 5 0.0000 0.0000 0.0000 0.0000 4.1686 0.0000
# 6 0.0000 0.0000 0.0000 0.0000 0.0000 -5.7462
#
#
#
# Elastic Compliance Matrix: (Units=1/GPa)
#
#
# Indices 1 2 3 4 5 6 
#
# 1 0.037208 -0.001123 -0.005245 0.000000 0.000000 0.000000
# 2 -0.001123 0.010658 -0.010179 0.000000 0.000000 0.000000
# 3 -0.005245 -0.010179 0.021352 0.000000 0.000000 0.000000
# 4 0.000000 0.000000 0.000000 0.026850 0.000000 0.000000
# 5 0.000000 0.000000 0.000000 0.000000 0.239891 0.000000
# 6 0.000000 0.000000 0.000000 0.000000 0.000000 -0.174027
#
#
# Mechanical properties :
#
#
# Convention : Reuss Voigt Hill
#
# Bulk Modulus (GPa) = 27.68338 62.45141 45.06739
# Shear Modulus (GPa) = 24.14660 19.22740 21.68700
#
# Velocity S-wave (km/s) = 3.48627 3.11095 3.30394
# Velocity P-wave (km/s) = 5.48996 6.65872 6.10239
#
# Compressibility (1/GPa) = 0.03612275
#
# Stress axis : x y z
#
# Youngs Moduli (GPa) = 26.87562 93.82589 46.83442
#
# Poissons Ratio (x) = 0.10541 0.24566
# Poissons Ratio (y) = 0.03019 0.47673
# Poissons Ratio (z) = 0.14097 0.95506
#
# Static dielectric constant tensor:
#      x y z
#    x 1.706370 0.000000 0.000000 
#    y 0.000000 1.711330 0.000000 
#    z 0.000000 0.000000 1.721640 
# 
# From -- ./inp_files/28308.got.cif
#   From: 2010.05.17/outbox.cif.g08.bks.cpg/sg67_15_cif.got.tgz:28308.got - 2010.06.03 18:28:57.
