data_PCOD9500832
_publ_section_title
;
Structure prediction by ZEFSAII (Michael W. Deem and Ramdas Pophale) SiO2 
 PCOD9500832
Probable space group: C M M A
;
_chemical_formula_sum "Si O2"
_cell_formula_units_Z 80
_cell_length_a 20.045742
_cell_length_b 18.046005
_cell_length_c 11.203311
_cell_angle_alpha 90.000000
_cell_angle_beta 90.000000
_cell_angle_gamma 90.000000
_cell_volume 4052.748016
_symmetry_space_group_name_H-M "C M M A"
_symmetry_group_IT_number 67
_symmetry_cell_setting 'orthorhombic'
loop_
_space_group_symop_operation_xyz
x,y,z
-x,1/2-y,z
x,-y,-z
-x,1/2+y,-z
-x,-y,-z
x,1/2+y,-z
-x,y,z
x,1/2-y,z
1/2+x,1/2+y,z
1/2-x,-y,z
1/2+x,1/2-y,-z
1/2-x,y,-z
1/2-x,1/2-y,-z
1/2+x,y,-z
1/2-x,1/2+y,z
1/2+x,-y,z
loop_
_atom_site_type_symbol
_atom_site_label
_atom_site_fract_x
_atom_site_fract_y
_atom_site_fract_z
Si Si1 0.000000 0.914020 0.531674
Si Si2 0.713889 0.336834 0.754274
Si Si3 0.640769 0.386095 0.263510
Si Si4 0.500000 0.163919 0.274524
Si Si5 0.827752 0.975449 0.872540
Si Si6 0.646927 0.086568 0.535355
O O1 0.000000 0.874442 0.403845
O O2 0.072245 0.900781 0.589385
O O3 0.000000 0.000000 0.500000
O O4 0.697791 0.250000 0.750943
O O5 0.792154 0.348237 0.785161
O O6 0.672395 0.388464 0.845668
O O7 0.698749 0.377502 0.627213
O O8 0.570273 0.357366 0.215905
O O9 0.642072 0.473358 0.231105
O O10 0.645310 0.374699 0.405919
O O11 0.500000 0.250000 0.294396
O O12 0.750000 0.000000 0.872072
O O13 0.855916 0.000000 0.000000
O O14 0.658989 0.000000 0.500000
#
# Coordination Sequence:
#
# PCOD9500832 Si02
#       6
#     8  16  16   8  16  16
#     4   8  18  32  50  74 111 154 188 213 260 341
#     4  11  22  34  55  88 118 143 182 237 284 325
#     4  10  20  35  57  79 114 151 186 222 279 343
#     4  10  20  34  53  78 108 144 187 234 274 320
#     4   9  19  38  59  80 105 148 191 227 278 341
#     4  10  18  32  54  82 115 153 182 218 275 339
#
# _framework density 19.739692999999999
#
# number of rings (size 3 to 8) (size 9 to 14) (size 15 to 20)
#    0.000    2.200    2.000    1.200    0.000    5.600 
#    0.000    9.500    0.000    0.000    0.000    0.000 
#    0.000    0.000    0.000    0.000    0.000    0.000 
#
# Total GULP energy -222757.235348 kJ/mol
# GULP energy per Si atom -5568.930884 kJ/mol
# Density = 1.969476 g / cm^3
# Si number density = 19.739693 Si / 1000 Ang^3
#
#
#
# Elastic Constant Matrix: (Units=GPa)
#
#
# Indices 1 2 3 4 5 6 
#
# 1 97.1431 28.7453 12.6091 0.0000 0.0000 0.0000
# 2 28.7453 148.4620 26.4656 0.0000 0.0000 0.0000
# 3 12.6091 26.4656 63.9657 0.0000 0.0000 0.0000
# 4 0.0000 0.0000 0.0000 11.2782 0.0000 0.0000
# 5 0.0000 0.0000 0.0000 0.0000 4.2807 0.0000
# 6 0.0000 0.0000 0.0000 0.0000 0.0000 19.4916
#
#
#
# Elastic Compliance Matrix: (Units=1/GPa)
#
#
# Indices 1 2 3 4 5 6 
#
# 1 0.011034 -0.001888 -0.001394 0.000000 0.000000 0.000000
# 2 -0.001888 0.007595 -0.002770 0.000000 0.000000 0.000000
# 3 -0.001394 -0.002770 0.017054 0.000000 0.000000 0.000000
# 4 0.000000 0.000000 0.000000 0.088666 0.000000 0.000000
# 5 0.000000 0.000000 0.000000 0.000000 0.233608 0.000000
# 6 0.000000 0.000000 0.000000 0.000000 0.000000 0.051304
#
#
# Mechanical properties :
#
#
# Convention : Reuss Voigt Hill
#
# Bulk Modulus (GPa) = 42.41065 49.46788 45.93927
# Shear Modulus (GPa) = 11.64890 23.12682 17.38786
#
# Velocity S-wave (km/s) = 2.43189 3.42656 2.97114
# Velocity P-wave (km/s) = 5.42375 6.38511 5.92396
#
# Compressibility (1/GPa) = 0.02357898
#
# Stress axis : x y z
#
# Youngs Moduli (GPa) = 90.63187 131.66371 58.63611
#
# Poissons Ratio (x) = 0.24856 0.08173
# Poissons Ratio (y) = 0.17110 0.16244
# Poissons Ratio (z) = 0.12633 0.36475
#
# Static dielectric constant tensor:
#      x y z
#    x 1.790040 0.000000 0.000000 
#    y 0.000000 1.688420 0.000000 
#    z 0.000000 0.000000 1.725690 
# 
# From -- ./inp_files/19360.got.cif
#   From: 2010.05.17/outbox.cif.g08.bks.cpg/sg67_10_cif.got.tgz:19360.got - 2010.06.03 18:28:57.
