data_PCOD9500664
_publ_section_title
;
Structure prediction by ZEFSAII (Michael W. Deem and Ramdas Pophale) SiO2 
 PCOD9500664
Probable space group: C M M A
;
_chemical_formula_sum "Si O2"
_cell_formula_units_Z 96
_cell_length_a 29.795531
_cell_length_b 8.470651
_cell_length_c 21.232395
_cell_angle_alpha 90.000000
_cell_angle_beta 90.000000
_cell_angle_gamma 90.000000
_cell_volume 5358.792037
_symmetry_space_group_name_H-M "C M M A"
_symmetry_group_IT_number 67
_symmetry_cell_setting 'orthorhombic'
loop_
_space_group_symop_operation_xyz
x,y,z
-x,1/2-y,z
x,-y,-z
-x,1/2+y,-z
-x,-y,-z
x,1/2+y,-z
-x,y,z
x,1/2-y,z
1/2+x,1/2+y,z
1/2-x,-y,z
1/2+x,1/2-y,-z
1/2-x,y,-z
1/2-x,1/2-y,-z
1/2+x,y,-z
1/2-x,1/2+y,z
1/2+x,-y,z
loop_
_atom_site_type_symbol
_atom_site_label
_atom_site_fract_x
_atom_site_fract_y
_atom_site_fract_z
Si Si1 0.948211 0.940935 0.812863
Si Si2 0.297826 0.560559 0.259855
Si Si3 0.607375 0.057369 0.689608
Si Si4 0.448182 0.940665 0.430884
Si Si5 0.202115 0.560961 0.116365
Si Si6 0.106508 0.438834 0.932597
O O1 0.947376 0.750000 0.813626
O O2 0.921474 0.992686 0.750437
O O3 0.000000 0.991706 0.810695
O O4 0.923444 0.001022 0.875026
O O5 0.296987 0.750000 0.257114
O O6 0.250000 0.500000 0.284202
O O7 0.341179 0.509049 0.299491
O O8 0.302700 0.498041 0.188388
O O9 0.606740 0.250000 0.688999
O O10 0.583932 0.003840 0.625328
O O11 0.500000 0.989832 0.419250
O O12 0.447582 0.750000 0.431243
O O13 0.435072 0.000000 0.500000
O O14 0.203268 0.750000 0.116786
O O15 0.250000 0.500000 0.091972
O O16 0.157967 0.506676 0.079277
O O17 0.106178 0.250000 0.932460
O O18 0.090595 0.500000 0.000000
#
# Coordination Sequence:
#
# PCOD9500664 Si02
#       6
#    16  16  16  16  16  16
#     4  10  20  36  58  80 101 131 174 219 262 309
#     4  10  18  30  51  77 105 135 168 210 257 307
#     4   9  17  31  54  80 105 137 173 211 255 306
#     4   9  17  31  51  77 109 141 174 210 252 304
#     4  10  20  34  53  77 103 133 167 210 261 312
#     4  11  24  39  55  75 103 137 173 214 263 315
#
# _framework density 17.914486
#
# number of rings (size 3 to 8) (size 9 to 14) (size 15 to 20)
#    0.000    2.167    1.667    3.000    0.000    5.000 
#    0.000    4.167    0.000    2.500    0.000    3.500 
#    0.000    0.000    0.000    0.000    0.000    0.000 
#
# Total GULP energy -267908.929819 kJ/mol
# GULP energy per Si atom -5581.436038 kJ/mol
# Density = 1.787371 g / cm^3
# Si number density = 17.914486 Si / 1000 Ang^3
#
#
#
# Elastic Constant Matrix: (Units=GPa)
#
#
# Indices 1 2 3 4 5 6 
#
# 1 143.8214 20.7134 84.5675 0.0000 0.0000 0.0000
# 2 20.7134 20.1227 12.5162 0.0000 0.0000 0.0000
# 3 84.5675 12.5162 135.2783 0.0000 0.0000 0.0000
# 4 0.0000 0.0000 0.0000 15.1877 0.0000 0.0000
# 5 0.0000 0.0000 0.0000 0.0000 24.5157 0.0000
# 6 0.0000 0.0000 0.0000 0.0000 0.0000 17.9581
#
#
#
# Elastic Compliance Matrix: (Units=1/GPa)
#
#
# Indices 1 2 3 4 5 6 
#
# 1 0.012166 -0.008269 -0.006840 0.000000 0.000000 0.000000
# 2 -0.008269 0.058349 -0.000230 0.000000 0.000000 0.000000
# 3 -0.006840 -0.000230 0.011690 0.000000 0.000000 0.000000
# 4 0.000000 0.000000 0.000000 0.065843 0.000000 0.000000
# 5 0.000000 0.000000 0.000000 0.000000 0.040790 0.000000
# 6 0.000000 0.000000 0.000000 0.000000 0.000000 0.055685
#
#
# Mechanical properties :
#
#
# Convention : Reuss Voigt Hill
#
# Bulk Modulus (GPa) = 19.40703 59.42405 39.41554
# Shear Modulus (GPa) = 17.10126 23.62733 20.36430
#
# Velocity S-wave (km/s) = 3.09302 3.63560 3.37523
# Velocity P-wave (km/s) = 4.85926 7.13207 6.10241
#
# Compressibility (1/GPa) = 0.05152773
#
# Stress axis : x y z
#
# Youngs Moduli (GPa) = 82.19524 17.13820 85.54567
#
# Poissons Ratio (x) = 0.14171 0.58517
# Poissons Ratio (y) = 0.67964 0.01964
# Poissons Ratio (z) = 0.56226 0.00393
#
# Static dielectric constant tensor:
#      x y z
#    x 1.627520 0.000000 0.000000 
#    y 0.000000 1.617650 0.000000 
#    z 0.000000 0.000000 1.582260 
# 
# From -- ./inp_files/37200.got.cif
#   From: 2010.05.17/outbox.cif.g08.bks.cpg/sg67_19_cif.got.tgz:37200.got - 2010.06.03 18:28:57.
