data_PCOD9500029
_publ_section_title
;
Structure prediction by ZEFSAII (Michael W. Deem and Ramdas Pophale) SiO2 
 PCOD9500029
Probable space group: C C C M
;
_chemical_formula_sum "Si O2"
_cell_formula_units_Z 80
_cell_length_a 8.943079
_cell_length_b 12.592803
_cell_length_c 28.349407
_cell_angle_alpha 90.000000
_cell_angle_beta 90.000000
_cell_angle_gamma 90.000000
_cell_volume 3192.665766
_symmetry_space_group_name_H-M "C C C M"
_symmetry_group_IT_number 66
_symmetry_cell_setting 'orthorhombic'
loop_
_space_group_symop_operation_xyz
x,y,z
-x,-y,z
x,-y,1/2-z
-x,y,1/2-z
-x,-y,-z
x,y,-z
-x,y,1/2+z
x,-y,1/2+z
1/2+x,1/2+y,z
1/2-x,1/2-y,z
1/2+x,1/2-y,1/2-z
1/2-x,1/2+y,1/2-z
1/2-x,1/2-y,-z
1/2+x,1/2+y,-z
1/2-x,1/2+y,1/2+z
1/2+x,1/2-y,1/2+z
loop_
_atom_site_type_symbol
_atom_site_label
_atom_site_fract_x
_atom_site_fract_y
_atom_site_fract_z
Si Si1 0.737377 0.524968 0.500000
Si Si2 0.528338 0.676949 0.000000
Si Si3 0.504688 0.677135 0.799590
Si Si4 0.720123 0.068698 0.100645
Si Si5 0.254096 0.489290 0.300006
Si Si6 0.518495 0.274618 0.899718
O O1 0.622538 0.429256 0.500000
O O2 0.646571 0.638206 0.500000
O O3 0.816437 0.517419 0.449634
O O4 0.560100 0.733393 0.950358
O O5 0.500000 0.739181 0.750000
O O6 0.619154 0.579403 0.794450
O O7 0.339469 0.624706 0.803873
O O8 0.554506 0.730140 0.848144
O O9 0.629524 0.176679 0.102322
O O10 0.894055 0.110501 0.099350
O O11 0.687728 0.001017 0.147524
O O12 0.170204 0.500000 0.250000
#
# Coordination Sequence:
#
# PCOD9500029 Si02
#       6
#     8   8  16  16  16  16
#     4   9  15  21  29  41  61  93 130 161 190 233
#     4   9  15  21  29  41  61  93 130 161 190 233
#     4   8  13  21  32  44  59  84 120 157 191 233
#     4   9  15  21  29  43  64  89 119 158 201 238
#     4   8  13  21  32  44  59  84 120 157 191 233
#     4   9  15  21  29  43  64  89 119 158 201 238
#
# _framework density 25.057431000000001
#
# number of rings (size 3 to 8) (size 9 to 14) (size 15 to 20)
#    0.000    3.400    0.000    3.000    0.000    7.200 
#    0.000    0.000    0.000    0.000    0.000    0.000 
#    0.000    0.800    0.000    1.800    0.000   44.400 
#
# Total GULP energy -222856.233281 kJ/mol
# GULP energy per Si atom -5571.405832 kJ/mol
# Density = 2.500040 g / cm^3
# Si number density = 25.057431 Si / 1000 Ang^3
#
#
#
# Elastic Constant Matrix: (Units=GPa)
#
#
# Indices 1 2 3 4 5 6 
#
# 1 41.5001 13.1927 15.5530 0.0000 0.0000 0.0000
# 2 13.1927 45.1837 29.7208 0.0000 0.0000 0.0000
# 3 15.5530 29.7208 359.6776 0.0000 0.0000 0.0000
# 4 0.0000 0.0000 0.0000 13.0360 0.0000 0.0000
# 5 0.0000 0.0000 0.0000 0.0000 -20.7298 0.0000
# 6 0.0000 0.0000 0.0000 0.0000 0.0000 15.8455
#
#
#
# Elastic Compliance Matrix: (Units=1/GPa)
#
#
# Indices 1 2 3 4 5 6 
#
# 1 0.026660 -0.007430 -0.000539 0.000000 0.000000 0.000000
# 2 -0.007430 0.025475 -0.001784 0.000000 0.000000 0.000000
# 3 -0.000539 -0.001784 0.002951 0.000000 0.000000 0.000000
# 4 0.000000 0.000000 0.000000 0.076711 0.000000 0.000000
# 5 0.000000 0.000000 0.000000 0.000000 -0.048240 0.000000
# 6 0.000000 0.000000 0.000000 0.000000 0.000000 0.063109
#
#
# Mechanical properties :
#
#
# Convention : Reuss Voigt Hill
#
# Bulk Modulus (GPa) = 28.10494 62.58826 45.34660
# Shear Modulus (GPa) = 28.08499 27.48999 27.78749
#
# Velocity S-wave (km/s) = 3.35150 3.31581 3.33371
# Velocity P-wave (km/s) = 5.12029 6.30013 5.74060
#
# Compressibility (1/GPa) = 0.03558093
#
# Stress axis : x y z
#
# Youngs Moduli (GPa) = 37.50911 39.25490 338.87236
#
# Poissons Ratio (x) = 0.29165 0.18262
# Poissons Ratio (y) = 0.27868 0.60446
# Poissons Ratio (z) = 0.02021 0.07002
#
# Static dielectric constant tensor:
#      x y z
#    x 2.022840 0.000000 0.000000 
#    y 0.000000 1.947670 0.000000 
#    z 0.000000 0.000000 2.134860 
# 
# From -- ./inp_files/63545.got.cif
#   From: 2010.05.17/outbox.cif.g08.bks.cpg/sg66_32_cif.got.tgz:63545.got - 2010.06.03 17:51:23.
