data_PCOD9500334
_publ_section_title
;
Structure prediction by ZEFSAII (Michael W. Deem and Ramdas Pophale) SiO2 
 PCOD9500334
Probable space group: C M M A
;
_chemical_formula_sum "Si O2"
_cell_formula_units_Z 96
_cell_length_a 32.093292
_cell_length_b 8.771080
_cell_length_c 19.653070
_cell_angle_alpha 90.000000
_cell_angle_beta 90.000000
_cell_angle_gamma 90.000000
_cell_volume 5532.198324
_symmetry_space_group_name_H-M "C M M A"
_symmetry_group_IT_number 67
_symmetry_cell_setting 'orthorhombic'
loop_
_space_group_symop_operation_xyz
x,y,z
-x,1/2-y,z
x,-y,-z
-x,1/2+y,-z
-x,-y,-z
x,1/2+y,-z
-x,y,z
x,1/2-y,z
1/2+x,1/2+y,z
1/2-x,-y,z
1/2+x,1/2-y,-z
1/2-x,y,-z
1/2-x,1/2-y,-z
1/2+x,y,-z
1/2-x,1/2+y,z
1/2+x,-y,z
loop_
_atom_site_type_symbol
_atom_site_label
_atom_site_fract_x
_atom_site_fract_y
_atom_site_fract_z
Si Si1 0.952114 0.067496 0.424515
Si Si2 0.047634 0.932042 0.925936
Si Si3 0.208330 0.567026 0.176692
Si Si4 0.120350 0.432743 0.667470
Si Si5 0.707375 0.067818 0.670023
Si Si6 0.116054 0.932360 0.172396
O O1 0.946909 0.250000 0.426162
O O2 0.000000 0.034549 0.403579
O O3 0.946576 0.000000 0.500000
O O4 0.918624 0.993208 0.374772
O O5 0.048762 0.750000 0.930054
O O6 0.000000 0.979009 0.908969
O O7 0.080436 0.988558 0.870714
O O8 0.057585 0.000000 0.000000
O O9 0.211768 0.750000 0.183071
O O10 0.250000 0.500000 0.142901
O O11 0.207031 0.494320 0.252198
O O12 0.162939 0.530905 0.146378
O O13 0.123859 0.250000 0.663180
O O14 0.163591 0.506765 0.641532
O O15 0.114500 0.472757 0.747435
O O16 0.708841 0.250000 0.669485
O O17 0.750000 0.000000 0.638897
O O18 0.111005 0.750000 0.167684
#
# Coordination Sequence:
#
# PCOD9500334 Si02
#       6
#    16  16  16  16  16  16
#     4  10  21  37  56  77 102 135 174 213 255 306
#     4  10  21  36  54  74  97 129 168 207 250 303
#     4   9  16  27  44  69 100 133 167 203 246 296
#     4  10  20  34  52  77 107 137 171 212 257 301
#     4  10  17  27  45  70 101 135 170 208 251 299
#     4   9  19  33  50  75 105 134 166 206 251 297
#
# _framework density 17.352957
#
# number of rings (size 3 to 8) (size 9 to 14) (size 15 to 20)
#    0.000    2.333    0.000    5.500    0.000    6.667 
#    0.000    3.333    0.000    1.000    0.000    7.000 
#    0.000    0.000    0.000    0.000    0.000    0.000 
#
# Total GULP energy -267594.516795 kJ/mol
# GULP energy per Si atom -5574.885767 kJ/mol
# Density = 1.731346 g / cm^3
# Si number density = 17.352957 Si / 1000 Ang^3
#
#
#
# Elastic Constant Matrix: (Units=GPa)
#
#
# Indices 1 2 3 4 5 6 
#
# 1 177.6443 74.2190 73.5717 0.0000 0.0000 0.0000
# 2 74.2190 84.0833 34.4613 0.0000 0.0000 0.0000
# 3 73.5717 34.4613 46.1042 0.0000 0.0000 0.0000
# 4 0.0000 0.0000 0.0000 25.7384 0.0000 0.0000
# 5 0.0000 0.0000 0.0000 0.0000 -14.3892 0.0000
# 6 0.0000 0.0000 0.0000 0.0000 0.0000 34.7427
#
#
#
# Elastic Compliance Matrix: (Units=1/GPa)
#
#
# Indices 1 2 3 4 5 6 
#
# 1 0.018552 -0.006116 -0.025033 0.000000 0.000000 0.000000
# 2 -0.006116 0.019161 -0.004563 0.000000 0.000000 0.000000
# 3 -0.025033 -0.004563 0.065048 0.000000 0.000000 0.000000
# 4 0.000000 0.000000 0.000000 0.038853 0.000000 0.000000
# 5 0.000000 0.000000 0.000000 0.000000 -0.069497 0.000000
# 6 0.000000 0.000000 0.000000 0.000000 0.000000 0.028783
#
#
# Mechanical properties :
#
#
# Convention : Reuss Voigt Hill
#
# Bulk Modulus (GPa) = 31.91114 74.70396 53.30755
# Shear Modulus (GPa) = 27.35668 17.59037 22.47352
#
# Velocity S-wave (km/s) = 3.97480 3.18729 3.60263
# Velocity P-wave (km/s) = 6.28449 7.52916 6.93481
#
# Compressibility (1/GPa) = 0.03133702
#
# Stress axis : x y z
#
# Youngs Moduli (GPa) = 53.90283 52.18819 15.37320
#
# Poissons Ratio (x) = 0.31916 0.38484
# Poissons Ratio (y) = 0.32965 0.07015
# Poissons Ratio (z) = 1.34937 0.23815
#
# Static dielectric constant tensor:
#      x y z
#    x 1.635660 0.000000 0.000000 
#    y 0.000000 1.578910 0.000000 
#    z 0.000000 0.000000 1.556330 
# 
# From -- ./inp_files/37181.got.cif
#   From: 2010.05.17/outbox.cif.g08.bks.cpg/sg67_19_cif.got.tgz:37181.got - 2010.06.03 18:28:57.
