data_PCOD9500202
_publ_section_title
;
Structure prediction by ZEFSAII (Michael W. Deem and Ramdas Pophale) SiO2 
 PCOD9500202
Probable space group: C M M A
;
_chemical_formula_sum "Si O2"
_cell_formula_units_Z 104
_cell_length_a 19.044263
_cell_length_b 17.526988
_cell_length_c 14.313034
_cell_angle_alpha 90.000000
_cell_angle_beta 90.000000
_cell_angle_gamma 90.000000
_cell_volume 4777.527138
_symmetry_space_group_name_H-M "C M M A"
_symmetry_group_IT_number 67
_symmetry_cell_setting 'orthorhombic'
loop_
_space_group_symop_operation_xyz
x,y,z
-x,1/2-y,z
x,-y,-z
-x,1/2+y,-z
-x,-y,-z
x,1/2+y,-z
-x,y,z
x,1/2-y,z
1/2+x,1/2+y,z
1/2-x,-y,z
1/2+x,1/2-y,-z
1/2-x,y,-z
1/2-x,1/2-y,-z
1/2+x,y,-z
1/2-x,1/2+y,z
1/2+x,-y,z
loop_
_atom_site_type_symbol
_atom_site_label
_atom_site_fract_x
_atom_site_fract_y
_atom_site_fract_z
Si Si1 0.585426 0.400390 0.879289
Si Si2 0.324880 0.336289 0.048027
Si Si3 0.500000 0.557158 0.595890
Si Si4 0.500000 0.331177 0.570385
Si Si5 0.153300 0.508800 0.610389
Si Si6 0.500000 0.340202 0.233167
Si Si7 0.140627 0.167267 0.307821
Si Si8 0.138300 0.562674 0.200959
O O1 0.500000 0.398222 0.880428
O O2 0.618832 0.375028 0.977702
O O3 0.617849 0.346186 0.798906
O O4 0.611869 0.483618 0.844859
O O5 0.348069 0.250000 0.072925
O O6 0.250000 0.329945 0.000000
O O7 0.310084 0.391979 0.134560
O O8 0.500000 0.596633 0.496181
O O9 0.430589 0.508564 0.614749
O O10 0.500000 0.631887 0.660231
O O11 0.500000 0.250000 0.517455
O O12 0.567914 0.331045 0.634834
O O13 0.171845 0.500000 0.500000
O O14 0.174900 0.592520 0.645933
O O15 0.171771 0.452568 0.696920
O O16 0.500000 0.250000 0.219682
O O17 0.429728 0.381814 0.198163
O O18 0.176161 0.250000 0.318384
#
# Coordination Sequence:
#
# PCOD9500202 Si02
#       8
#    16  16   8   8  16   8  16  16
#     4  11  22  38  61  90 122 156 202 257 317 378
#     4  11  26  46  65  88 120 161 210 265 323 382
#     4  10  17  26  42  67 112 166 202 238 300 369
#     4  10  16  23  39  66 106 149 194 238 286 358
#     4  10  18  30  50  77 117 159 198 244 307 368
#     4  10  19  32  50  82 126 165 206 255 315 372
#     4  10  19  29  45  75 112 151 196 246 300 363
#     4  10  22  37  59  87 122 161 208 254 308 376
#
# _framework density 21.768584000000001
#
# number of rings (size 3 to 8) (size 9 to 14) (size 15 to 20)
#    0.000    1.692    3.077    2.308    3.231    2.769 
#    0.000    0.769    0.000    0.000    0.000    8.615 
#    0.000   11.077    0.000    0.000    0.000    0.000 
#
# Total GULP energy -289953.772928 kJ/mol
# GULP energy per Si atom -5576.034095 kJ/mol
# Density = 2.171904 g / cm^3
# Si number density = 21.768584 Si / 1000 Ang^3
#
#
#
# Elastic Constant Matrix: (Units=GPa)
#
#
# Indices 1 2 3 4 5 6 
#
# 1 60.4441 23.2301 11.8349 0.0000 0.0000 0.0000
# 2 23.2301 163.0422 58.6556 0.0000 0.0000 0.0000
# 3 11.8349 58.6556 135.2124 0.0000 0.0000 0.0000
# 4 0.0000 0.0000 0.0000 31.1210 0.0000 0.0000
# 5 0.0000 0.0000 0.0000 0.0000 7.1613 0.0000
# 6 0.0000 0.0000 0.0000 0.0000 0.0000 2.5087
#
#
#
# Elastic Compliance Matrix: (Units=1/GPa)
#
#
# Indices 1 2 3 4 5 6 
#
# 1 0.017535 -0.002306 -0.000534 0.000000 0.000000 0.000000
# 2 -0.002306 0.007571 -0.003082 0.000000 0.000000 0.000000
# 3 -0.000534 -0.003082 0.008780 0.000000 0.000000 0.000000
# 4 0.000000 0.000000 0.000000 0.032133 0.000000 0.000000
# 5 0.000000 0.000000 0.000000 0.000000 0.139639 0.000000
# 6 0.000000 0.000000 0.000000 0.000000 0.000000 0.398611
#
#
# Mechanical properties :
#
#
# Convention : Reuss Voigt Hill
#
# Bulk Modulus (GPa) = 45.37244 60.68222 53.02733
# Shear Modulus (GPa) = 8.01975 25.82342 16.92159
#
# Velocity S-wave (km/s) = 1.92148 3.44796 2.79111
# Velocity P-wave (km/s) = 5.08046 6.61724 5.89911
#
# Compressibility (1/GPa) = 0.02203981
#
# Stress axis : x y z
#
# Youngs Moduli (GPa) = 57.02829 132.08504 113.89898
#
# Poissons Ratio (x) = 0.30461 0.06087
# Poissons Ratio (y) = 0.13152 0.35108
# Poissons Ratio (z) = 0.03048 0.40714
#
# Static dielectric constant tensor:
#      x y z
#    x 1.775330 0.000000 0.000000 
#    y 0.000000 1.844890 0.000000 
#    z 0.000000 0.000000 1.860120 
# 
# From -- ./inp_files/29525.got.cif
#   From: 2010.05.17/outbox.cif.g08.bks.cpg/sg67_15_cif.got.tgz:29525.got - 2010.06.03 18:28:57.
