data_PCOD9500788
_publ_section_title
;
Structure prediction by ZEFSAII (Michael W. Deem and Ramdas Pophale) SiO2 
 PCOD9500788
Probable space group: C M M A
;
_chemical_formula_sum "Si O2"
_cell_formula_units_Z 80
_cell_length_a 16.727660
_cell_length_b 18.230451
_cell_length_c 15.220025
_cell_angle_alpha 90.000000
_cell_angle_beta 90.000000
_cell_angle_gamma 90.000000
_cell_volume 4641.389026
_symmetry_space_group_name_H-M "C M M A"
_symmetry_group_IT_number 67
_symmetry_cell_setting 'orthorhombic'
loop_
_space_group_symop_operation_xyz
x,y,z
-x,1/2-y,z
x,-y,-z
-x,1/2+y,-z
-x,-y,-z
x,1/2+y,-z
-x,y,z
x,1/2-y,z
1/2+x,1/2+y,z
1/2-x,-y,z
1/2+x,1/2-y,-z
1/2-x,y,-z
1/2-x,1/2-y,-z
1/2+x,y,-z
1/2-x,1/2+y,z
1/2+x,-y,z
loop_
_atom_site_type_symbol
_atom_site_label
_atom_site_fract_x
_atom_site_fract_y
_atom_site_fract_z
Si Si1 0.500000 0.166295 0.705689
Si Si2 0.905619 0.164372 0.987185
Si Si3 0.642620 0.887952 0.171361
Si Si4 0.838861 0.021402 0.702550
Si Si5 0.818718 0.665997 0.195734
Si Si6 0.000000 0.476766 0.399234
O O1 0.500000 0.250000 0.677365
O O2 0.575338 0.149358 0.768311
O O3 0.500000 0.109663 0.624978
O O4 0.888296 0.250000 0.010418
O O5 0.860217 0.148015 0.897192
O O6 0.000000 0.158097 0.972306
O O7 0.881528 0.115260 0.069870
O O8 0.724411 0.843845 0.182162
O O9 0.654043 0.969059 0.211353
O O10 0.841185 0.105603 0.732317
O O11 0.750000 0.000000 0.665283
O O12 0.917057 0.005258 0.644376
O O13 0.838770 0.750000 0.218408
O O14 0.000000 0.500000 0.500000
#
# Coordination Sequence:
#
# PCOD9500788 Si02
#       6
#     8  16  16  16  16   8
#     4  10  18  32  57  83 105 129 171 223 261 306
#     4  10  19  29  44  72 107 143 181 220 257 292
#     4  10  18  32  52  75 104 141 180 222 260 296
#     4   9  21  38  56  80 106 135 175 216 262 315
#     4  10  20  33  50  73 106 146 182 215 252 301
#     4  10  22  40  61  83 107 135 165 206 272 334
#
# _framework density 17.236219999999999
#
# number of rings (size 3 to 8) (size 9 to 14) (size 15 to 20)
#    0.000    2.200    1.000    2.400    1.400    2.800 
#    0.000    5.000    0.000    0.000    0.000    8.400 
#    0.000    0.000    0.000    0.000    0.000    0.000 
#
# Total GULP energy -223052.764416 kJ/mol
# GULP energy per Si atom -5576.319110 kJ/mol
# Density = 1.719699 g / cm^3
# Si number density = 17.236220 Si / 1000 Ang^3
#
#
#
# Elastic Constant Matrix: (Units=GPa)
#
#
# Indices 1 2 3 4 5 6 
#
# 1 106.8447 41.6605 44.4421 0.0000 0.0000 0.0000
# 2 41.6605 104.0650 51.0314 0.0000 0.0000 0.0000
# 3 44.4421 51.0314 68.0210 0.0000 0.0000 0.0000
# 4 0.0000 0.0000 0.0000 14.0192 0.0000 0.0000
# 5 0.0000 0.0000 0.0000 0.0000 15.6796 0.0000
# 6 0.0000 0.0000 0.0000 0.0000 0.0000 20.8294
#
#
#
# Elastic Compliance Matrix: (Units=1/GPa)
#
#
# Indices 1 2 3 4 5 6 
#
# 1 0.013028 -0.001648 -0.007276 0.000000 0.000000 0.000000
# 2 -0.001648 0.015411 -0.010485 0.000000 0.000000 0.000000
# 3 -0.007276 -0.010485 0.027321 0.000000 0.000000 0.000000
# 4 0.000000 0.000000 0.000000 0.071331 0.000000 0.000000
# 5 0.000000 0.000000 0.000000 0.000000 0.063777 0.000000
# 6 0.000000 0.000000 0.000000 0.000000 0.000000 0.048009
#
#
# Mechanical properties :
#
#
# Convention : Reuss Voigt Hill
#
# Bulk Modulus (GPa) = 59.02171 61.46652 60.24411
# Shear Modulus (GPa) = 17.64650 19.55875 18.60262
#
# Velocity S-wave (km/s) = 3.20316 3.37226 3.28880
# Velocity P-wave (km/s) = 6.92802 7.13453 7.03203
#
# Compressibility (1/GPa) = 0.01694292
#
# Stress axis : x y z
#
# Youngs Moduli (GPa) = 76.75612 64.89041 36.60141
#
# Poissons Ratio (x) = 0.10691 0.26631
# Poissons Ratio (y) = 0.12646 0.38377
# Poissons Ratio (z) = 0.55848 0.68038
#
# Static dielectric constant tensor:
#      x y z
#    x 1.599420 0.000000 0.000000 
#    y 0.000000 1.600190 0.000000 
#    z 0.000000 0.000000 1.538300 
# 
# From -- ./inp_files/28421.got.cif
#   From: 2010.05.17/outbox.cif.g08.bks.cpg/sg67_15_cif.got.tgz:28421.got - 2010.06.03 18:28:57.
