data_PCOD9500222
_publ_section_title
;
Structure prediction by ZEFSAII (Michael W. Deem and Ramdas Pophale) SiO2 
 PCOD9500222
Probable space group: C M M A
;
_chemical_formula_sum "Si O2"
_cell_formula_units_Z 72
_cell_length_a 20.725662
_cell_length_b 19.372387
_cell_length_c 11.427881
_cell_angle_alpha 90.000000
_cell_angle_beta 90.000000
_cell_angle_gamma 90.000000
_cell_volume 4588.357590
_symmetry_space_group_name_H-M "C M M A"
_symmetry_group_IT_number 67
_symmetry_cell_setting 'orthorhombic'
loop_
_space_group_symop_operation_xyz
x,y,z
-x,1/2-y,z
x,-y,-z
-x,1/2+y,-z
-x,-y,-z
x,1/2+y,-z
-x,y,z
x,1/2-y,z
1/2+x,1/2+y,z
1/2-x,-y,z
1/2+x,1/2-y,-z
1/2-x,y,-z
1/2-x,1/2-y,-z
1/2+x,y,-z
1/2-x,1/2+y,z
1/2+x,-y,z
loop_
_atom_site_type_symbol
_atom_site_label
_atom_site_fract_x
_atom_site_fract_y
_atom_site_fract_z
Si Si1 0.750000 0.374721 0.500000
Si Si2 0.753361 0.170056 0.861546
Si Si3 0.307511 0.051388 0.278415
Si Si4 0.925535 0.470094 0.367427
Si Si5 0.644083 0.672398 0.325213
O O1 0.712602 0.422066 0.407252
O O2 0.698886 0.331556 0.574203
O O3 0.770614 0.250000 0.839178
O O4 0.803774 0.117561 0.804397
O O5 0.685061 0.158899 0.793999
O O6 0.750000 0.159470 0.000000
O O7 0.250000 0.000000 0.240753
O O8 0.374896 0.012695 0.289209
O O9 0.919402 0.500000 0.500000
O O10 0.903958 0.390101 0.354798
O O11 0.000000 0.478073 0.333144
O O12 0.616733 0.750000 0.320825
#
# Coordination Sequence:
#
# PCOD9500222 Si02
#       5
#     8  16  16  16  16
#     4  10  16  28  50  76 100 124 162 210 254 302
#     4   9  19  33  52  79 104 128 164 212 259 296
#     4  11  17  31  53  75 101 131 166 207 252 300
#     4  11  21  34  49  72 108 141 167 204 252 303
#     4  10  19  31  50  74 101 132 167 208 255 308
#
# _framework density 15.691889
#
# number of rings (size 3 to 8) (size 9 to 14) (size 15 to 20)
#    0.000    1.778    6.667    0.667    0.000    1.778 
#    0.000    0.000    0.000    3.333    0.000    3.111 
#    0.000    0.000    0.000    0.000    0.000    0.000 
#
# Total GULP energy -200576.183430 kJ/mol
# GULP energy per Si atom -5571.560651 kJ/mol
# Density = 1.565617 g / cm^3
# Si number density = 15.691889 Si / 1000 Ang^3
#
#
#
# Elastic Constant Matrix: (Units=GPa)
#
#
# Indices 1 2 3 4 5 6 
#
# 1 108.7591 63.5729 24.6519 0.0000 0.0000 0.0000
# 2 63.5729 126.3325 45.8262 0.0000 0.0000 0.0000
# 3 24.6519 45.8262 65.6941 0.0000 0.0000 0.0000
# 4 0.0000 0.0000 0.0000 11.7444 0.0000 0.0000
# 5 0.0000 0.0000 0.0000 0.0000 8.2650 0.0000
# 6 0.0000 0.0000 0.0000 0.0000 0.0000 6.4438
#
#
#
# Elastic Compliance Matrix: (Units=1/GPa)
#
#
# Indices 1 2 3 4 5 6 
#
# 1 0.013035 -0.006406 -0.000423 0.000000 0.000000 0.000000
# 2 -0.006406 0.013745 -0.007184 0.000000 0.000000 0.000000
# 3 -0.000423 -0.007184 0.020392 0.000000 0.000000 0.000000
# 4 0.000000 0.000000 0.000000 0.085147 0.000000 0.000000
# 5 0.000000 0.000000 0.000000 0.000000 0.120992 0.000000
# 6 0.000000 0.000000 0.000000 0.000000 0.000000 0.155189
#
#
# Mechanical properties :
#
#
# Convention : Reuss Voigt Hill
#
# Bulk Modulus (GPa) = 52.22974 63.20974 57.71974
# Shear Modulus (GPa) = 11.28900 16.40630 13.84765
#
# Velocity S-wave (km/s) = 2.68510 3.23697 2.97387
# Velocity P-wave (km/s) = 6.55514 7.37156 6.97530
#
# Compressibility (1/GPa) = 0.01914618
#
# Stress axis : x y z
#
# Youngs Moduli (GPa) = 76.71646 72.75158 49.03805
#
# Poissons Ratio (x) = 0.46606 0.02073
# Poissons Ratio (y) = 0.49146 0.35231
# Poissons Ratio (z) = 0.03243 0.52268
#
# Static dielectric constant tensor:
#      x y z
#    x 1.510300 0.000000 0.000000 
#    y 0.000000 1.563970 0.000000 
#    z 0.000000 0.000000 1.518970 
# 
# From -- ./inp_files/20749.got.cif
#   From: 2010.05.17/outbox.cif.g08.bks.cpg/sg67_11_cif.got.tgz:20749.got - 2010.06.03 18:28:57.
