data_PCOD9500921
_publ_section_title
;
Structure prediction by ZEFSAII (Michael W. Deem and Ramdas Pophale) SiO2 
 PCOD9500921
Probable space group: C M M A
;
_chemical_formula_sum "Si O2"
_cell_formula_units_Z 96
_cell_length_a 14.219206
_cell_length_b 21.282022
_cell_length_c 12.497051
_cell_angle_alpha 90.000000
_cell_angle_beta 90.000000
_cell_angle_gamma 90.000000
_cell_volume 3781.775779
_symmetry_space_group_name_H-M "C M M A"
_symmetry_group_IT_number 67
_symmetry_cell_setting 'orthorhombic'
loop_
_space_group_symop_operation_xyz
x,y,z
-x,1/2-y,z
x,-y,-z
-x,1/2+y,-z
-x,-y,-z
x,1/2+y,-z
-x,y,z
x,1/2-y,z
1/2+x,1/2+y,z
1/2-x,-y,z
1/2+x,1/2-y,-z
1/2-x,y,-z
1/2-x,1/2-y,-z
1/2+x,y,-z
1/2-x,1/2+y,z
1/2+x,-y,z
loop_
_atom_site_type_symbol
_atom_site_label
_atom_site_fract_x
_atom_site_fract_y
_atom_site_fract_z
Si Si1 0.889068 0.179083 0.313846
Si Si2 0.761377 0.141174 0.857689
Si Si3 0.599774 0.548971 0.096263
Si Si4 0.611704 0.250000 0.364336
Si Si5 0.388759 0.123849 0.473855
Si Si6 0.889144 0.250000 0.893280
Si Si7 0.154212 0.036229 0.712510
O O1 0.885672 0.250000 0.360259
O O2 0.815232 0.176452 0.217576
O O3 0.857100 0.128340 0.403122
O O4 0.000000 0.168797 0.285011
O O5 0.691032 0.091285 0.910340
O O6 0.828606 0.188468 0.922416
O O7 0.829811 0.098332 0.784710
O O8 0.500000 0.583531 0.085491
O O9 0.600057 0.511762 0.209337
O O10 0.604499 0.500000 0.000000
O O11 0.500000 0.250000 0.386307
O O12 0.650889 0.314389 0.413443
O O13 0.617769 0.250000 0.236447
O O14 0.500000 0.133332 0.483319
O O15 0.378117 0.062428 0.401630
O O16 0.000000 0.250000 0.923416
O O17 0.250000 0.000000 0.693668
#
# Coordination Sequence:
#
# PCOD9500921 Si02
#       7
#    16  16  16   8  16   8  16
#     4  10  20  35  59  96 139 182 226 275 342 416
#     4  11  22  39  64 100 140 178 223 282 347 410
#     4  10  23  46  75 101 128 172 233 292 349 415
#     4   9  16  29  53  85 123 171 221 265 317 389
#     4  10  18  33  57  90 132 178 228 280 333 405
#     4  11  22  37  62 102 148 186 223 276 346 418
#     4  10  22  37  59  90 130 177 235 285 341 399
#
# _framework density 25.384899000000001
#
# number of rings (size 3 to 8) (size 9 to 14) (size 15 to 20)
#    0.000    1.833    3.333    1.000    0.000    4.333 
#    0.000    7.500    0.000   12.500    0.000    3.500 
#    0.000    0.000    0.000    0.000    0.000    0.000 
#
# Total GULP energy -268414.814948 kJ/mol
# GULP energy per Si atom -5591.975311 kJ/mol
# Density = 2.532712 g / cm^3
# Si number density = 25.384899 Si / 1000 Ang^3
#
#
#
# Elastic Constant Matrix: (Units=GPa)
#
#
# Indices 1 2 3 4 5 6 
#
# 1 145.5730 37.7630 34.0596 0.0000 0.0000 0.0000
# 2 37.7630 89.4363 36.0712 0.0000 0.0000 0.0000
# 3 34.0596 36.0712 80.9521 0.0000 0.0000 0.0000
# 4 0.0000 0.0000 0.0000 44.1220 0.0000 0.0000
# 5 0.0000 0.0000 0.0000 0.0000 -2.0809 0.0000
# 6 0.0000 0.0000 0.0000 0.0000 0.0000 384.7929
#
#
#
# Elastic Compliance Matrix: (Units=1/GPa)
#
#
# Indices 1 2 3 4 5 6 
#
# 1 0.008046 -0.002477 -0.002281 0.000000 0.000000 0.000000
# 2 -0.002477 0.014393 -0.005371 0.000000 0.000000 0.000000
# 3 -0.002281 -0.005371 0.015706 0.000000 0.000000 0.000000
# 4 0.000000 0.000000 0.000000 0.022664 0.000000 0.000000
# 5 0.000000 0.000000 0.000000 0.000000 -0.480563 0.000000
# 6 0.000000 0.000000 0.000000 0.000000 0.000000 0.002599
#
#
# Mechanical properties :
#
#
# Convention : Reuss Voigt Hill
#
# Bulk Modulus (GPa) = 55.91018 59.08322 57.49670
# Shear Modulus (GPa) = -12.78992 99.23798 43.22403
#
# Velocity S-wave (km/s) = -2.24707 6.25925 4.13091
# Velocity P-wave (km/s) = 3.91667 8.69270 6.74179
#
# Compressibility (1/GPa) = 0.01788583
#
# Stress axis : x y z
#
# Youngs Moduli (GPa) = 124.28912 69.47641 63.66895
#
# Poissons Ratio (x) = 0.17210 0.14525
# Poissons Ratio (y) = 0.30787 0.34199
# Poissons Ratio (z) = 0.28355 0.37318
#
# Static dielectric constant tensor:
#      x y z
#    x 1.963630 0.000000 0.000000 
#    y 0.000000 2.017350 0.000000 
#    z 0.000000 0.000000 2.075480 
# 
# From -- ./inp_files/27276.got.cif
#   From: 2010.05.17/outbox.cif.g08.bks.cpg/sg67_14_cif.got.tgz:27276.got - 2010.06.03 18:28:57.
