data_PCOD9500219
_publ_section_title
;
Structure prediction by ZEFSAII (Michael W. Deem and Ramdas Pophale) SiO2 
 PCOD9500219
Probable space group: C M M A
;
_chemical_formula_sum "Si O2"
_cell_formula_units_Z 112
_cell_length_a 16.538193
_cell_length_b 23.094728
_cell_length_c 17.214254
_cell_angle_alpha 90.000000
_cell_angle_beta 90.000000
_cell_angle_gamma 90.000000
_cell_volume 6574.899431
_symmetry_space_group_name_H-M "C M M A"
_symmetry_group_IT_number 67
_symmetry_cell_setting 'orthorhombic'
loop_
_space_group_symop_operation_xyz
x,y,z
-x,1/2-y,z
x,-y,-z
-x,1/2+y,-z
-x,-y,-z
x,1/2+y,-z
-x,y,z
x,1/2-y,z
1/2+x,1/2+y,z
1/2-x,-y,z
1/2+x,1/2-y,-z
1/2-x,y,-z
1/2-x,1/2-y,-z
1/2+x,y,-z
1/2-x,1/2+y,z
1/2+x,-y,z
loop_
_atom_site_type_symbol
_atom_site_label
_atom_site_fract_x
_atom_site_fract_y
_atom_site_fract_z
Si Si1 0.694825 0.606631 0.321386
Si Si2 0.259640 0.929472 0.151168
Si Si3 0.088112 0.057469 0.817728
Si Si4 0.676659 0.404038 0.447748
Si Si5 0.089367 0.953189 0.931366
Si Si6 0.407999 0.493193 0.351804
Si Si7 0.903826 0.817952 0.568967
O O1 0.709269 0.599927 0.230109
O O2 0.777751 0.615537 0.369091
O O3 0.654529 0.545601 0.346446
O O4 0.634534 0.655676 0.352555
O O5 0.165367 0.911997 0.143359
O O6 0.326828 0.919621 0.084351
O O7 0.250000 0.000000 0.160789
O O8 0.100020 0.045493 0.726510
O O9 0.000000 0.085023 0.831006
O O10 0.083127 0.993383 0.855002
O O11 0.750000 0.427641 0.500000
O O12 0.613147 0.452439 0.423713
O O13 0.636149 0.353437 0.497940
O O14 0.000000 0.925182 0.942354
O O15 0.100004 0.000000 0.000000
O O16 0.500000 0.514809 0.354989
O O17 0.886117 0.750000 0.562287
O O18 0.000000 0.826281 0.568297
#
# Coordination Sequence:
#
# PCOD9500219 Si02
#       7
#    16  16  16  16  16  16  16
#     4  11  19  31  49  71  92 121 157 198 244 295
#     4  10  16  28  45  66  97 127 160 194 233 277
#     4   9  17  27  42  63  94 129 160 193 229 278
#     4  10  21  33  50  67  90 117 152 199 249 294
#     4   9  17  27  41  65  96 134 170 193 222 272
#     4  11  19  30  47  70  96 122 157 194 240 291
#     4  10  23  40  52  65  87 119 161 207 257 307
#
# _framework density 17.034481
#
# number of rings (size 3 to 8) (size 9 to 14) (size 15 to 20)
#    0.000    2.000    4.286    1.286    0.000    9.714 
#    0.000    3.571    0.000    0.000    0.000    0.000 
#    0.000    0.000    0.000   11.571    0.000   48.571 
#
# Total GULP energy -311771.585710 kJ/mol
# GULP energy per Si atom -5567.349745 kJ/mol
# Density = 1.699571 g / cm^3
# Si number density = 17.034481 Si / 1000 Ang^3
#
#
#
# Elastic Constant Matrix: (Units=GPa)
#
#
# Indices 1 2 3 4 5 6 
#
# 1 137.1171 26.6546 21.9054 0.0000 0.0000 0.0000
# 2 26.6546 29.0984 2.3392 0.0000 0.0000 0.0000
# 3 21.9054 2.3392 31.6285 0.0000 0.0000 0.0000
# 4 0.0000 0.0000 0.0000 5.3379 0.0000 0.0000
# 5 0.0000 0.0000 0.0000 0.0000 13.8878 0.0000
# 6 0.0000 0.0000 0.0000 0.0000 0.0000 14.1097
#
#
#
# Elastic Compliance Matrix: (Units=1/GPa)
#
#
# Indices 1 2 3 4 5 6 
#
# 1 0.009972 -0.008631 -0.006268 0.000000 0.000000 0.000000
# 2 -0.008631 0.042041 0.002868 0.000000 0.000000 0.000000
# 3 -0.006268 0.002868 0.035746 0.000000 0.000000 0.000000
# 4 0.000000 0.000000 0.000000 0.187341 0.000000 0.000000
# 5 0.000000 0.000000 0.000000 0.000000 0.072006 0.000000
# 6 0.000000 0.000000 0.000000 0.000000 0.000000 0.070873
#
#
# Mechanical properties :
#
#
# Convention : Reuss Voigt Hill
#
# Bulk Modulus (GPa) = 15.69904 33.29360 24.49632
# Shear Modulus (GPa) = 10.79273 16.46338 13.62806
#
# Velocity S-wave (km/s) = 2.51984 3.11219 2.83154
# Velocity P-wave (km/s) = 4.20739 5.70101 5.01017
#
# Compressibility (1/GPa) = 0.06369815
#
# Stress axis : x y z
#
# Youngs Moduli (GPa) = 100.27883 23.78605 27.97499
#
# Poissons Ratio (x) = 0.20529 0.17535
# Poissons Ratio (y) = 0.86548 -0.08024
# Poissons Ratio (z) = 0.62857 -0.06822
#
# Static dielectric constant tensor:
#      x y z
#    x 1.691380 0.000000 0.000000 
#    y 0.000000 1.528450 0.000000 
#    z 0.000000 0.000000 1.628280 
# 
# From -- ./inp_files/34435.got.cif
#   From: 2010.05.17/outbox.cif.g08.bks.cpg/sg67_18_cif.got.tgz:34435.got - 2010.06.03 18:28:57.
