data_PCOD9500768
_publ_section_title
;
Structure prediction by ZEFSAII (Michael W. Deem and Ramdas Pophale) SiO2 
 PCOD9500768
Probable space group: C M M A
;
_chemical_formula_sum "Si O2"
_cell_formula_units_Z 104
_cell_length_a 14.253493
_cell_length_b 18.196137
_cell_length_c 15.401282
_cell_angle_alpha 90.000000
_cell_angle_beta 90.000000
_cell_angle_gamma 90.000000
_cell_volume 3994.453573
_symmetry_space_group_name_H-M "C M M A"
_symmetry_group_IT_number 67
_symmetry_cell_setting 'orthorhombic'
loop_
_space_group_symop_operation_xyz
x,y,z
-x,1/2-y,z
x,-y,-z
-x,1/2+y,-z
-x,-y,-z
x,1/2+y,-z
-x,y,z
x,1/2-y,z
1/2+x,1/2+y,z
1/2-x,-y,z
1/2+x,1/2-y,-z
1/2-x,y,-z
1/2-x,1/2-y,-z
1/2+x,y,-z
1/2-x,1/2+y,z
1/2+x,-y,z
loop_
_atom_site_type_symbol
_atom_site_label
_atom_site_fract_x
_atom_site_fract_y
_atom_site_fract_z
Si Si1 0.386050 0.361596 0.410581
Si Si2 0.863980 0.356598 0.903762
Si Si3 0.129589 0.250000 0.744868
Si Si4 0.637279 0.508827 0.166337
Si Si5 0.886598 0.326843 0.392507
Si Si6 0.861634 0.668631 0.901216
Si Si7 0.605821 0.014890 0.638872
O O1 0.500000 0.361913 0.401670
O O2 0.352883 0.313859 0.329982
O O3 0.367010 0.328700 0.504902
O O4 0.352229 0.445887 0.410777
O O5 0.894786 0.313231 0.818839
O O6 0.888812 0.442620 0.897346
O O7 0.751369 0.340830 0.901262
O O8 0.893379 0.331034 0.998982
O O9 0.750000 0.500000 0.169807
O O10 0.607716 0.591959 0.142568
O O11 0.601561 0.490917 0.261677
O O12 0.850988 0.250000 0.354164
O O13 0.849865 0.404304 0.358410
O O14 0.000000 0.326235 0.380054
O O15 0.883338 0.750000 0.862890
O O16 0.500000 0.024771 0.603435
#
# Coordination Sequence:
#
# PCOD9500768 Si02
#       7
#    16  16   8  16  16  16  16
#     4  10  19  31  50  78 106 133 172 221 271 314
#     4  10  18  32  50  80 105 131 168 219 268 308
#     4  12  17  27  54  78 107 126 159 222 281 303
#     4  10  21  34  53  79 106 137 174 219 263 310
#     4   9  17  31  51  75 102 135 179 223 256 302
#     4  10  18  32  52  75 103 134 176 216 253 310
#     4  10  20  34  53  77 105 138 174 218 266 314
#
# _framework density 26.036100999999999
#
# number of rings (size 3 to 8) (size 9 to 14) (size 15 to 20)
#    0.000    2.000    3.846    1.615    0.000    4.308 
#    0.000    0.000    0.000    5.538    0.000    5.385 
#    0.000    0.000    0.000    0.000    0.000    0.000 
#
# Total GULP energy -289652.676241 kJ/mol
# GULP energy per Si atom -5570.243774 kJ/mol
# Density = 2.597684 g / cm^3
# Si number density = 26.036101 Si / 1000 Ang^3
#
#
#
# Elastic Constant Matrix: (Units=GPa)
#
#
# Indices 1 2 3 4 5 6 
#
# 1 108.4248 5.5749 -13.8093 0.0000 0.0000 0.0000
# 2 5.5749 255.7414 9.3572 0.0000 0.0000 0.0000
# 3 -13.8093 9.3572 58.1621 0.0000 0.0000 0.0000
# 4 0.0000 0.0000 0.0000 31.2085 0.0000 0.0000
# 5 0.0000 0.0000 0.0000 0.0000 -1.8504 0.0000
# 6 0.0000 0.0000 0.0000 0.0000 0.0000 -13.7720
#
#
#
# Elastic Compliance Matrix: (Units=1/GPa)
#
#
# Indices 1 2 3 4 5 6 
#
# 1 0.009532 -0.000292 0.002310 0.000000 0.000000 0.000000
# 2 -0.000292 0.003942 -0.000704 0.000000 0.000000 0.000000
# 3 0.002310 -0.000704 0.017855 0.000000 0.000000 0.000000
# 4 0.000000 0.000000 0.000000 0.032043 0.000000 0.000000
# 5 0.000000 0.000000 0.000000 0.000000 -0.540432 0.000000
# 6 0.000000 0.000000 0.000000 0.000000 0.000000 -0.072611
#
#
# Mechanical properties :
#
#
# Convention : Reuss Voigt Hill
#
# Bulk Modulus (GPa) = 29.44799 47.17487 38.31143
# Shear Modulus (GPa) = -9.24248 31.19759 10.97755
#
# Velocity S-wave (km/s) = -1.88615 3.46532 2.05559
# Velocity P-wave (km/s) = 2.56740 5.84548 4.51449
#
# Compressibility (1/GPa) = 0.03395817
#
# Stress axis : x y z
#
# Youngs Moduli (GPa) = 104.90700 253.65789 56.00657
#
# Poissons Ratio (x) = 0.07415 -0.12939
# Poissons Ratio (y) = 0.03067 0.03941
# Poissons Ratio (z) = -0.24236 0.17849
#
# Static dielectric constant tensor:
#      x y z
#    x 2.136560 0.000000 0.000000 
#    y 0.000000 2.000950 0.000000 
#    z 0.000000 0.000000 1.930100 
# 
# From -- ./inp_files/30245.got.cif
#   From: 2010.05.17/outbox.cif.g08.bks.cpg/sg67_16_cif.got.tgz:30245.got - 2010.06.03 18:28:57.
