data_PCOD9500584
_publ_section_title
;
Structure prediction by ZEFSAII (Michael W. Deem and Ramdas Pophale) SiO2 
 PCOD9500584
Probable space group: C M M A
;
_chemical_formula_sum "Si O2"
_cell_formula_units_Z 84
_cell_length_a 25.834483
_cell_length_b 21.333909
_cell_length_c 7.894028
_cell_angle_alpha 90.000000
_cell_angle_beta 90.000000
_cell_angle_gamma 90.000000
_cell_volume 4350.797553
_symmetry_space_group_name_H-M "C M M A"
_symmetry_group_IT_number 67
_symmetry_cell_setting 'orthorhombic'
loop_
_space_group_symop_operation_xyz
x,y,z
-x,1/2-y,z
x,-y,-z
-x,1/2+y,-z
-x,-y,-z
x,1/2+y,-z
-x,y,z
x,1/2-y,z
1/2+x,1/2+y,z
1/2-x,-y,z
1/2+x,1/2-y,-z
1/2-x,y,-z
1/2-x,1/2-y,-z
1/2+x,y,-z
1/2-x,1/2+y,z
1/2+x,-y,z
loop_
_atom_site_type_symbol
_atom_site_label
_atom_site_fract_x
_atom_site_fract_y
_atom_site_fract_z
Si Si1 0.311629 0.324781 0.301867
Si Si2 0.086695 0.177372 0.204353
Si Si3 0.698845 0.324613 0.707312
Si Si4 0.000000 0.591567 0.643907
Si Si5 0.500000 0.250000 0.312491
Si Si6 0.076728 0.147413 0.822166
Si Si7 0.500000 0.045408 0.256542
O O1 0.315213 0.250000 0.266451
O O2 0.309123 0.332279 0.505413
O O3 0.255423 0.348822 0.239675
O O4 0.363294 0.354340 0.227700
O O5 0.084516 0.250000 0.263655
O O6 0.145861 0.153610 0.208654
O O7 0.049492 0.134210 0.314503
O O8 0.069160 0.174960 0.010099
O O9 0.701435 0.250000 0.739529
O O10 0.000000 0.565930 0.453969
O O11 0.000000 0.529000 0.758449
O O12 0.545168 0.305206 0.298581
O O13 0.050102 0.079747 0.818632
#
# Coordination Sequence:
#
# PCOD9500584 Si02
#       7
#    16  16  16   8   4  16   8
#     4   9  15  30  50  75 108 148 176 222 258 318
#     4  11  21  34  54  85 112 142 171 227 272 322
#     4   8  17  29  48  76 111 141 182 212 269 314
#     4  11  23  42  57  72 108 138 190 225 272 317
#     4  10  18  30  42  74 108 138 168 216 246 314
#     4  11  20  33  54  77 113 141 180 214 270 319
#     4  10  25  40  55  77  98 151 185 225 261 327
#
# _framework density 19.306805000000001
#
# number of rings (size 3 to 8) (size 9 to 14) (size 15 to 20)
#    0.000    2.095    1.905    3.714    0.000    2.286 
#    6.857    2.857    0.000    1.143    0.000    8.000 
#    0.000    0.000    0.000    0.000    0.000    0.000 
#
# Total GULP energy -233851.056426 kJ/mol
# GULP energy per Si atom -5567.882296 kJ/mol
# Density = 1.926286 g / cm^3
# Si number density = 19.306805 Si / 1000 Ang^3
#
#
#
# Elastic Constant Matrix: (Units=GPa)
#
#
# Indices 1 2 3 4 5 6 
#
# 1 173.2486 45.4166 26.9471 0.0000 0.0000 0.0000
# 2 45.4166 74.9736 10.1453 0.0000 0.0000 0.0000
# 3 26.9471 10.1453 26.8377 0.0000 0.0000 0.0000
# 4 0.0000 0.0000 0.0000 17.4979 0.0000 0.0000
# 5 0.0000 0.0000 0.0000 0.0000 29.3463 0.0000
# 6 0.0000 0.0000 0.0000 0.0000 0.0000 4.1680
#
#
#
# Elastic Compliance Matrix: (Units=1/GPa)
#
#
# Indices 1 2 3 4 5 6 
#
# 1 0.007767 -0.003847 -0.006345 0.000000 0.000000 0.000000
# 2 -0.003847 0.015962 -0.002172 0.000000 0.000000 0.000000
# 3 -0.006345 -0.002172 0.044453 0.000000 0.000000 0.000000
# 4 0.000000 0.000000 0.000000 0.057150 0.000000 0.000000
# 5 0.000000 0.000000 0.000000 0.000000 0.034076 0.000000
# 6 0.000000 0.000000 0.000000 0.000000 0.000000 0.239925
#
#
# Mechanical properties :
#
#
# Convention : Reuss Voigt Hill
#
# Bulk Modulus (GPa) = 23.01197 48.89755 35.95476
# Shear Modulus (GPa) = 11.40135 23.03917 17.22026
#
# Velocity S-wave (km/s) = 2.43273 3.45819 2.98975
# Velocity P-wave (km/s) = 4.45375 6.42861 5.53005
#
# Compressibility (1/GPa) = 0.04345565
#
# Stress axis : x y z
#
# Youngs Moduli (GPa) = 128.74463 62.64863 22.49582
#
# Poissons Ratio (x) = 0.24098 0.14273
# Poissons Ratio (y) = 0.49523 0.04885
# Poissons Ratio (z) = 0.81687 0.13605
#
# Static dielectric constant tensor:
#      x y z
#    x 1.707970 0.000000 0.000000 
#    y 0.000000 1.646230 0.000000 
#    z 0.000000 0.000000 1.747610 
# 
# From -- ./inp_files/12406.got.cif
#   From: 2010.05.17/outbox.cif.g08.bks.cpg/sg67_7_cif.got.tgz:12406.got - 2010.06.03 18:28:57.
