data_PCOD9500685
_publ_section_title
;
Structure prediction by ZEFSAII (Michael W. Deem and Ramdas Pophale) SiO2 
 PCOD9500685
Probable space group: C M M A
;
_chemical_formula_sum "Si O2"
_cell_formula_units_Z 112
_cell_length_a 15.983080
_cell_length_b 25.946466
_cell_length_c 16.084690
_cell_angle_alpha 90.000000
_cell_angle_beta 90.000000
_cell_angle_gamma 90.000000
_cell_volume 6670.392388
_symmetry_space_group_name_H-M "C M M A"
_symmetry_group_IT_number 67
_symmetry_cell_setting 'orthorhombic'
loop_
_space_group_symop_operation_xyz
x,y,z
-x,1/2-y,z
x,-y,-z
-x,1/2+y,-z
-x,-y,-z
x,1/2+y,-z
-x,y,z
x,1/2-y,z
1/2+x,1/2+y,z
1/2-x,-y,z
1/2+x,1/2-y,-z
1/2-x,y,-z
1/2-x,1/2-y,-z
1/2+x,y,-z
1/2-x,1/2+y,z
1/2+x,-y,z
loop_
_atom_site_type_symbol
_atom_site_label
_atom_site_fract_x
_atom_site_fract_y
_atom_site_fract_z
Si Si1 0.322734 0.461189 0.721251
Si Si2 0.408213 0.687887 0.835785
Si Si3 0.723415 0.114096 0.405102
Si Si4 0.748820 0.310996 0.730126
Si Si5 0.348872 0.189456 0.979863
Si Si6 0.400286 0.369225 0.815493
Si Si7 0.597196 0.028486 0.417501
O O1 0.250000 0.500000 0.752634
O O2 0.280279 0.422500 0.653989
O O3 0.368053 0.426540 0.790638
O O4 0.384013 0.495040 0.664226
O O5 0.500000 0.668438 0.808599
O O6 0.408454 0.750000 0.824219
O O7 0.325115 0.668695 0.788647
O O8 0.396267 0.679430 0.933902
O O9 0.750000 0.116458 0.500000
O O10 0.728063 0.168869 0.360854
O O11 0.636023 0.084490 0.405498
O O12 0.746239 0.250000 0.736486
O O13 0.659519 0.333022 0.759062
O O14 0.362299 0.250000 0.955590
O O15 0.378998 0.151138 0.907999
O O16 0.250000 0.184209 0.000000
O O17 0.500000 0.365000 0.800750
O O18 0.500000 0.033259 0.430995
O O19 0.634371 0.000000 0.500000
#
# Coordination Sequence:
#
# PCOD9500685 Si02
#       7
#    16  16  16  16  16  16  16
#     4   9  19  34  54  77 107 136 171 219 279 325
#     4   9  17  31  51  73 100 138 184 229 267 303
#     4  10  19  33  51  74 101 135 178 218 261 325
#     4  10  21  35  50  74 111 150 182 220 267 319
#     4  10  18  31  52  79 114 146 179 222 266 315
#     4  11  21  33  54  84 113 142 178 219 271 332
#     4  10  18  30  53  79 100 124 164 224 283 323
#
# _framework density 16.790617000000001
#
# number of rings (size 3 to 8) (size 9 to 14) (size 15 to 20)
#    0.000    2.143    2.857    1.286    0.000    2.571 
#    0.000    0.000    0.000    0.429    0.000    3.000 
#    0.000    0.000    0.000    0.000    0.000    0.000 
#
# Total GULP energy -311850.609784 kJ/mol
# GULP energy per Si atom -5568.760889 kJ/mol
# Density = 1.675240 g / cm^3
# Si number density = 16.790617 Si / 1000 Ang^3
#
#
#
# Elastic Constant Matrix: (Units=GPa)
#
#
# Indices 1 2 3 4 5 6 
#
# 1 120.5950 38.2383 45.6511 0.0000 0.0000 0.0000
# 2 38.2383 58.3978 39.7577 0.0000 0.0000 0.0000
# 3 45.6511 39.7577 68.4514 0.0000 0.0000 0.0000
# 4 0.0000 0.0000 0.0000 27.2022 0.0000 0.0000
# 5 0.0000 0.0000 0.0000 0.0000 14.7163 0.0000
# 6 0.0000 0.0000 0.0000 0.0000 0.0000 15.8164
#
#
#
# Elastic Compliance Matrix: (Units=1/GPa)
#
#
# Indices 1 2 3 4 5 6 
#
# 1 0.011593 -0.003850 -0.005496 0.000000 0.000000 0.000000
# 2 -0.003850 0.029602 -0.014626 0.000000 0.000000 0.000000
# 3 -0.005496 -0.014626 0.026769 0.000000 0.000000 0.000000
# 4 0.000000 0.000000 0.000000 0.036762 0.000000 0.000000
# 5 0.000000 0.000000 0.000000 0.000000 0.067952 0.000000
# 6 0.000000 0.000000 0.000000 0.000000 0.000000 0.063226
#
#
# Mechanical properties :
#
#
# Convention : Reuss Voigt Hill
#
# Bulk Modulus (GPa) = 49.94580 54.97092 52.45836
# Shear Modulus (GPa) = 17.21048 19.80012 18.50530
#
# Velocity S-wave (km/s) = 3.20504 3.43773 3.32342
# Velocity P-wave (km/s) = 6.59600 6.96903 6.78508
#
# Compressibility (1/GPa) = 0.02002170
#
# Stress axis : x y z
#
# Youngs Moduli (GPa) = 86.25692 33.78134 37.35635
#
# Poissons Ratio (x) = 0.13004 0.20530
# Poissons Ratio (y) = 0.33205 0.54638
# Poissons Ratio (z) = 0.47405 0.49409
#
# Static dielectric constant tensor:
#      x y z
#    x 1.590150 0.000000 0.000000 
#    y 0.000000 1.571000 0.000000 
#    z 0.000000 0.000000 1.568510 
# 
# From -- ./inp_files/27755.got.cif
#   From: 2010.05.17/outbox.cif.g08.bks.cpg/sg67_14_cif.got.tgz:27755.got - 2010.06.03 18:28:57.
