data_PCOD9500899
_publ_section_title
;
Structure prediction by ZEFSAII (Michael W. Deem and Ramdas Pophale) SiO2 
 PCOD9500899
Probable space group: C M M A
;
_chemical_formula_sum "Si O2"
_cell_formula_units_Z 80
_cell_length_a 14.576366
_cell_length_b 23.478747
_cell_length_c 10.225226
_cell_angle_alpha 90.000000
_cell_angle_beta 90.000000
_cell_angle_gamma 90.000000
_cell_volume 3499.428272
_symmetry_space_group_name_H-M "C M M A"
_symmetry_group_IT_number 67
_symmetry_cell_setting 'orthorhombic'
loop_
_space_group_symop_operation_xyz
x,y,z
-x,1/2-y,z
x,-y,-z
-x,1/2+y,-z
-x,-y,-z
x,1/2+y,-z
-x,y,z
x,1/2-y,z
1/2+x,1/2+y,z
1/2-x,-y,z
1/2+x,1/2-y,-z
1/2-x,y,-z
1/2-x,1/2-y,-z
1/2+x,y,-z
1/2-x,1/2+y,z
1/2+x,-y,z
loop_
_atom_site_type_symbol
_atom_site_label
_atom_site_fract_x
_atom_site_fract_y
_atom_site_fract_z
Si Si1 0.388206 0.062911 0.549735
Si Si2 0.660565 0.750000 0.092423
Si Si3 0.887799 0.129478 0.703845
Si Si4 0.611338 0.940308 0.946008
Si Si5 0.889136 0.868096 0.803868
Si Si6 0.397112 0.750000 0.808681
O O1 0.500000 0.059581 0.555893
O O2 0.362309 0.109083 0.439762
O O3 0.358363 0.089019 0.688905
O O4 0.358646 0.000000 0.500000
O O5 0.648477 0.804580 0.184150
O O6 0.750000 0.750000 0.000000
O O7 0.593590 0.750000 0.966075
O O8 0.856162 0.081677 0.806813
O O9 0.855838 0.191111 0.754428
O O10 0.000000 0.129575 0.708916
O O11 0.500000 0.944387 0.937287
O O12 0.633355 0.894544 0.055746
O O13 0.644754 0.000000 0.000000
O O14 0.000000 0.864318 0.793070
O O15 0.500000 0.750000 0.753782
#
# Coordination Sequence:
#
# PCOD9500899 Si02
#       6
#    16   8  16  16  16   8
#     4   9  17  29  48  83 122 144 168 221 285 346
#     4  12  24  37  54  78 110 148 196 250 283 321
#     4   9  16  26  45  73 106 139 171 214 268 324
#     4   9  15  24  44  76 106 135 176 221 270 330
#     4  10  19  33  55  81 114 151 184 227 290 348
#     4  10  18  33  54  77 102 134 181 227 278 332
#
# _framework density 22.860879000000001
#
# number of rings (size 3 to 8) (size 9 to 14) (size 15 to 20)
#    0.000    2.400    2.000    2.100    0.000    5.600 
#    0.000    3.000    0.000    3.000    0.000    1.400 
#    0.000    0.000    0.000    0.000    0.000    0.400 
#
# Total GULP energy -223314.683568 kJ/mol
# GULP energy per Si atom -5582.867089 kJ/mol
# Density = 2.280885 g / cm^3
# Si number density = 22.860879 Si / 1000 Ang^3
#
#
#
# Elastic Constant Matrix: (Units=GPa)
#
#
# Indices 1 2 3 4 5 6 
#
# 1 62.7608 6.0584 17.0722 0.0000 0.0000 0.0000
# 2 6.0584 108.5984 -2.3603 0.0000 0.0000 0.0000
# 3 17.0722 -2.3603 83.5761 0.0000 0.0000 0.0000
# 4 0.0000 0.0000 0.0000 18.8995 0.0000 0.0000
# 5 0.0000 0.0000 0.0000 0.0000 11.3614 0.0000
# 6 0.0000 0.0000 0.0000 0.0000 0.0000 103.3647
#
#
#
# Elastic Compliance Matrix: (Units=1/GPa)
#
#
# Indices 1 2 3 4 5 6 
#
# 1 0.016984 -0.001024 -0.003498 0.000000 0.000000 0.000000
# 2 -0.001024 0.009276 0.000471 0.000000 0.000000 0.000000
# 3 -0.003498 0.000471 0.012693 0.000000 0.000000 0.000000
# 4 0.000000 0.000000 0.000000 0.052911 0.000000 0.000000
# 5 0.000000 0.000000 0.000000 0.000000 0.088017 0.000000
# 6 0.000000 0.000000 0.000000 0.000000 0.000000 0.009674
#
#
# Mechanical properties :
#
#
# Convention : Reuss Voigt Hill
#
# Bulk Modulus (GPa) = 32.41378 32.94177 32.67778
# Shear Modulus (GPa) = 24.04529 42.33612 33.19070
#
# Velocity S-wave (km/s) = 3.24668 4.30804 3.81446
# Velocity P-wave (km/s) = 5.31640 6.25992 5.80735
#
# Compressibility (1/GPa) = 0.03085107
#
# Stress axis : x y z
#
# Youngs Moduli (GPa) = 58.87923 107.81003 78.78338
#
# Poissons Ratio (x) = 0.11035 0.27560
# Poissons Ratio (y) = 0.06026 -0.03711
# Poissons Ratio (z) = 0.20597 -0.05078
#
# Static dielectric constant tensor:
#      x y z
#    x 2.253650 0.000000 0.000000 
#    y 0.000000 1.874290 0.000000 
#    z 0.000000 0.000000 1.779160 
# 
# From -- ./inp_files/11135.got.cif
#   From: 2010.05.17/outbox.cif.g08.bks.cpg/sg67_6_cif.got.tgz:11135.got - 2010.06.03 18:28:57.
