data_PCOD9500771
_publ_section_title
;
Structure prediction by ZEFSAII (Michael W. Deem and Ramdas Pophale) SiO2 
 PCOD9500771
Probable space group: C M M A
;
_chemical_formula_sum "Si O2"
_cell_formula_units_Z 96
_cell_length_a 9.435679
_cell_length_b 24.099443
_cell_length_c 25.571478
_cell_angle_alpha 90.000000
_cell_angle_beta 90.000000
_cell_angle_gamma 90.000000
_cell_volume 5814.816222
_symmetry_space_group_name_H-M "C M M A"
_symmetry_group_IT_number 67
_symmetry_cell_setting 'orthorhombic'
loop_
_space_group_symop_operation_xyz
x,y,z
-x,1/2-y,z
x,-y,-z
-x,1/2+y,-z
-x,-y,-z
x,1/2+y,-z
-x,y,z
x,1/2-y,z
1/2+x,1/2+y,z
1/2-x,-y,z
1/2+x,1/2-y,-z
1/2-x,y,-z
1/2-x,1/2-y,-z
1/2+x,y,-z
1/2-x,1/2+y,z
1/2+x,-y,z
loop_
_atom_site_type_symbol
_atom_site_label
_atom_site_fract_x
_atom_site_fract_y
_atom_site_fract_z
Si Si1 0.160710 0.367420 0.144315
Si Si2 0.829998 0.058028 0.245079
Si Si3 0.834472 0.750000 0.294848
Si Si4 0.830543 0.856155 0.663496
Si Si5 0.668305 0.685123 0.446845
Si Si6 0.848029 0.250000 0.200871
Si Si7 0.168151 0.815110 0.054717
O O1 0.205330 0.406990 0.192454
O O2 0.150152 0.305939 0.168439
O O3 0.266576 0.358249 0.096263
O O4 0.000000 0.383470 0.127723
O O5 0.796508 0.093057 0.297797
O O6 0.000000 0.050224 0.244491
O O7 0.750000 0.000000 0.245109
O O8 0.757663 0.804130 0.316413
O O9 0.793951 0.750000 0.234160
O O10 0.000000 0.750000 0.305445
O O11 0.799834 0.855973 0.601394
O O12 0.000000 0.846197 0.668441
O O13 0.500000 0.683262 0.456246
O O14 0.702189 0.750000 0.432619
O O15 0.750000 0.672062 0.500000
O O16 0.000000 0.250000 0.231906
O O17 0.189535 0.750000 0.071069
O O18 0.000000 0.822977 0.048420
O O19 0.250000 0.821408 0.000000
#
# Coordination Sequence:
#
# PCOD9500771 Si02
#       7
#    16  16   8  16  16   8  16
#     4  10  19  33  55  77 102 140 175 210 257 315
#     4  10  22  38  57  77 101 136 180 223 267 316
#     4  12  22  28  45  80 111 134 167 219 265 305
#     4  10  19  36  55  72 102 147 180 204 257 327
#     4   9  17  29  49  74 105 139 171 208 251 310
#     4  10  18  32  51  72 105 142 173 203 255 331
#     4  10  20  32  49  77 113 146 175 210 253 306
#
# _framework density 16.509550000000001
#
# number of rings (size 3 to 8) (size 9 to 14) (size 15 to 20)
#    0.000    2.000    3.333    1.250    0.000    3.333 
#    0.000    0.000    0.000    1.000    0.000    7.000 
#    0.000    0.000    0.000    0.000    0.000    0.000 
#
# Total GULP energy -267350.754622 kJ/mol
# GULP energy per Si atom -5569.807388 kJ/mol
# Density = 1.647197 g / cm^3
# Si number density = 16.509550 Si / 1000 Ang^3
#
#
#
# Elastic Constant Matrix: (Units=GPa)
#
#
# Indices 1 2 3 4 5 6 
#
# 1 59.1064 49.4426 62.0929 0.0000 0.0000 0.0000
# 2 49.4426 96.0726 59.4284 0.0000 0.0000 0.0000
# 3 62.0929 59.4284 122.6308 0.0000 0.0000 0.0000
# 4 0.0000 0.0000 0.0000 8.4317 0.0000 0.0000
# 5 0.0000 0.0000 0.0000 0.0000 28.0245 0.0000
# 6 0.0000 0.0000 0.0000 0.0000 0.0000 37.6792
#
#
#
# Elastic Compliance Matrix: (Units=1/GPa)
#
#
# Indices 1 2 3 4 5 6 
#
# 1 0.045250 -0.013016 -0.016604 0.000000 0.000000 0.000000
# 2 -0.013016 0.018609 -0.002427 0.000000 0.000000 0.000000
# 3 -0.016604 -0.002427 0.017738 0.000000 0.000000 0.000000
# 4 0.000000 0.000000 0.000000 0.118601 0.000000 0.000000
# 5 0.000000 0.000000 0.000000 0.000000 0.035683 0.000000
# 6 0.000000 0.000000 0.000000 0.000000 0.000000 0.026540
#
#
# Mechanical properties :
#
#
# Convention : Reuss Voigt Hill
#
# Bulk Modulus (GPa) = 57.13795 68.85972 62.99884
# Shear Modulus (GPa) = 15.04440 21.95015 18.49727
#
# Velocity S-wave (km/s) = 3.02197 3.65024 3.35087
# Velocity P-wave (km/s) = 6.84548 7.71786 7.29472
#
# Compressibility (1/GPa) = 0.01750150
#
# Stress axis : x y z
#
# Youngs Moduli (GPa) = 22.09957 53.73710 56.37575
#
# Poissons Ratio (x) = 0.69947 0.93605
# Poissons Ratio (y) = 0.28766 0.13685
# Poissons Ratio (z) = 0.36694 0.13044
#
# Static dielectric constant tensor:
#      x y z
#    x 1.566590 0.000000 0.000000 
#    y 0.000000 1.538500 0.000000 
#    z 0.000000 0.000000 1.598420 
# 
# From -- ./inp_files/43682.got.cif
#   From: 2010.05.17/outbox.cif.g08.bks.cpg/sg67_22_cif.got.tgz:43682.got - 2010.06.03 18:28:57.
