data_PCOD9500944
_publ_section_title
;
Structure prediction by ZEFSAII (Michael W. Deem and Ramdas Pophale) SiO2 
 PCOD9500944
Probable space group: C M M A
;
_chemical_formula_sum "Si O2"
_cell_formula_units_Z 116
_cell_length_a 15.011043
_cell_length_b 24.993551
_cell_length_c 15.557435
_cell_angle_alpha 90.000000
_cell_angle_beta 90.000000
_cell_angle_gamma 90.000000
_cell_volume 5836.827087
_symmetry_space_group_name_H-M "C M M A"
_symmetry_group_IT_number 67
_symmetry_cell_setting 'orthorhombic'
loop_
_space_group_symop_operation_xyz
x,y,z
-x,1/2-y,z
x,-y,-z
-x,1/2+y,-z
-x,-y,-z
x,1/2+y,-z
-x,y,z
x,1/2-y,z
1/2+x,1/2+y,z
1/2-x,-y,z
1/2+x,1/2-y,-z
1/2-x,y,-z
1/2-x,1/2-y,-z
1/2+x,y,-z
1/2-x,1/2+y,z
1/2+x,-y,z
loop_
_atom_site_type_symbol
_atom_site_label
_atom_site_fract_x
_atom_site_fract_y
_atom_site_fract_z
Si Si1 0.354307 0.689269 0.704395
Si Si2 0.000000 0.750000 0.693402
Si Si3 0.104303 0.687625 0.483578
Si Si4 0.891415 0.012974 0.901811
Si Si5 0.156107 0.836506 0.664636
Si Si6 0.893797 0.632965 0.117328
Si Si7 0.392046 0.405625 0.810761
Si Si8 0.609214 0.188802 0.942227
O O1 0.388166 0.750000 0.710573
O O2 0.387803 0.666442 0.612998
O O3 0.248692 0.688046 0.694185
O O4 0.379440 0.658981 0.790448
O O5 0.922528 0.703521 0.691159
O O6 0.134858 0.750000 0.482940
O O7 0.153886 0.659016 0.561405
O O8 0.000000 0.688789 0.507093
O O9 0.857929 0.072480 0.882285
O O10 0.000000 0.013921 0.895374
O O11 0.861055 0.963154 0.844487
O O12 0.869528 0.000000 0.000000
O O13 0.140826 0.890954 0.716241
O O14 0.000000 0.628937 0.102614
O O15 0.861488 0.668712 0.036881
O O16 0.500000 0.405792 0.812480
O O17 0.363333 0.356652 0.873797
O O18 0.500000 0.190175 0.939747
O O19 0.638357 0.250000 0.924222
#
# Coordination Sequence:
#
# PCOD9500944 Si02
#       8
#    16   4  16  16  16  16  16  16
#     4  11  23  34  53  82 117 151 186 224 279 341
#     4  12  20  36  58  80 114 156 184 228 280 340
#     4  10  18  34  56  82 112 149 184 220 269 339
#     4   9  16  32  57  82 105 141 200 246 276 326
#     4  12  21  35  54  83 116 145 185 232 282 331
#     4  10  19  35  54  77 113 152 190 236 278 330
#     4  10  19  30  53  83 106 144 189 236 281 326
#     4   9  17  26  46  76 109 144 185 224 274 333
#
# _framework density 19.873812000000001
#
# number of rings (size 3 to 8) (size 9 to 14) (size 15 to 20)
#    0.000    1.793    4.138    1.241    0.966    2.483 
#    0.000    1.379    0.000    3.310    0.000    5.793 
#    0.000    0.000    0.000    0.000    0.000    0.000 
#
# Total GULP energy -323432.522317 kJ/mol
# GULP energy per Si atom -5576.422799 kJ/mol
# Density = 1.982858 g / cm^3
# Si number density = 19.873812 Si / 1000 Ang^3
#
#
#
# Elastic Constant Matrix: (Units=GPa)
#
#
# Indices 1 2 3 4 5 6 
#
# 1 34.6531 1.3532 -17.6255 0.0000 0.0000 0.0000
# 2 1.3532 106.2086 51.2060 0.0000 0.0000 0.0000
# 3 -17.6255 51.2060 113.1727 0.0000 0.0000 0.0000
# 4 0.0000 0.0000 0.0000 27.2663 0.0000 0.0000
# 5 0.0000 0.0000 0.0000 0.0000 289.7542 0.0000
# 6 0.0000 0.0000 0.0000 0.0000 0.0000 4.1673
#
#
#
# Elastic Compliance Matrix: (Units=1/GPa)
#
#
# Indices 1 2 3 4 5 6 
#
# 1 0.032404 -0.003640 0.006694 0.000000 0.000000 0.000000
# 2 -0.003640 0.012451 -0.006201 0.000000 0.000000 0.000000
# 3 0.006694 -0.006201 0.012684 0.000000 0.000000 0.000000
# 4 0.000000 0.000000 0.000000 0.036675 0.000000 0.000000
# 5 0.000000 0.000000 0.000000 0.000000 0.003451 0.000000
# 6 0.000000 0.000000 0.000000 0.000000 0.000000 0.239961
#
#
# Mechanical properties :
#
#
# Convention : Reuss Voigt Hill
#
# Bulk Modulus (GPa) = 19.51397 35.98909 27.75153
# Shear Modulus (GPa) = 13.85031 78.84428 46.34729
#
# Velocity S-wave (km/s) = 2.64277 6.30544 4.83440
# Velocity P-wave (km/s) = 4.37637 8.43561 6.71983
#
# Compressibility (1/GPa) = 0.05124533
#
# Stress axis : x y z
#
# Youngs Moduli (GPa) = 30.86030 80.31301 78.83937
#
# Poissons Ratio (x) = 0.29234 -0.52772
# Poissons Ratio (y) = 0.11233 0.48885
# Poissons Ratio (z) = -0.20656 0.49799
#
# Static dielectric constant tensor:
#      x y z
#    x 1.740560 0.000000 0.000000 
#    y 0.000000 1.704480 0.000000 
#    z 0.000000 0.000000 1.726570 
# 
# From -- ./inp_files/28776.got.cif
#   From: 2010.05.17/outbox.cif.g08.bks.cpg/sg67_15_cif.got.tgz:28776.got - 2010.06.03 18:28:57.
