data_PCOD9500134
_publ_section_title
;
Structure prediction by ZEFSAII (Michael W. Deem and Ramdas Pophale) SiO2 
 PCOD9500134
Probable space group: C C C M
;
_chemical_formula_sum "Si O2"
_cell_formula_units_Z 56
_cell_length_a 27.000000
_cell_length_b 15.000000
_cell_length_c 15.000000
_cell_angle_alpha 90.000000
_cell_angle_beta 90.000000
_cell_angle_gamma 90.000000
_cell_volume 6075.000000
_symmetry_space_group_name_H-M "C C C M"
_symmetry_group_IT_number 66
_symmetry_cell_setting 'orthorhombic'
loop_
_space_group_symop_operation_xyz
x,y,z
-x,-y,z
x,-y,1/2-z
-x,y,1/2-z
-x,-y,-z
x,y,-z
-x,y,1/2+z
x,-y,1/2+z
1/2+x,1/2+y,z
1/2-x,1/2-y,z
1/2+x,1/2-y,1/2-z
1/2-x,1/2+y,1/2-z
1/2-x,1/2-y,-z
1/2+x,1/2+y,-z
1/2-x,1/2+y,1/2+z
1/2+x,1/2-y,1/2+z
loop_
_atom_site_type_symbol
_atom_site_label
_atom_site_fract_x
_atom_site_fract_y
_atom_site_fract_z
Si Si1 0.197031 0.527903 0.599055
Si Si2 0.691496 0.512189 0.356564
Si Si3 0.800055 0.704858 0.794015
Si Si4 0.630159 0.663674 0.101951
Si Si5 0.942020 0.898643 0.761139
Si Si6 0.678747 0.163732 0.098194
Si Si7 0.116535 0.166563 0.402761
O O1 0.189995 0.565109 0.500000
O O2 0.252869 0.490876 0.608240
O O3 0.191689 0.606505 0.668408
O O4 0.164494 0.439566 0.610086
O O5 0.693565 0.500000 0.250000
O O6 0.662015 0.427397 0.394416
O O7 0.663643 0.602607 0.382864
O O8 0.750000 0.750000 0.830117
O O9 0.843425 0.767607 0.830731
O O10 0.794455 0.693987 0.688150
O O11 0.577770 0.639220 0.146013
O O12 0.627995 0.695094 0.000000
O O13 0.919785 0.846663 0.678257
O O14 0.000000 0.899176 0.750000
O O15 0.923077 0.000000 0.750000
O O16 0.633682 0.232037 0.094465
O O17 0.703776 0.170338 0.000000
O O18 0.096646 0.140034 0.500000
#
# Coordination Sequence:
#
# PCOD9500134 Si02
#       7
#    16  16  16  16  16  16  16
#     4  11  24  37  53  84 117 154 202 242 280 333
#     4  12  20  34  53  78 117 158 195 236 281 334
#     4  12  23  37  57  82 118 160 200 237 285 340
#     4  12  23  38  58  83 118 158 195 235 290 351
#     4  11  23  40  61  86 116 149 191 242 295 355
#     4  10  23  38  55  79 110 151 198 245 286 331
#     4  11  21  37  58  81 110 151 191 237 293 344
#
# _framework density 9.2181069999999998
#
# number of rings (size 3 to 8) (size 9 to 14) (size 15 to 20)
#    0.000    0.714    5.714    3.000    2.000    1.429 
#    0.000    1.429    0.000    0.000    0.000    2.000 
#    0.000    4.571    0.000    0.000    0.000    0.000 
#
# Total GULP energy -312485.411857 kJ/mol
# GULP energy per Si atom -5580.096640 kJ/mol
# Density = 0.919713 g / cm^3
# Si number density = 9.218107 Si / 1000 Ang^3
#
#
#
# Elastic Constant Matrix: (Units=GPa)
#
#
# Indices 1 2 3 4 5 6 
#
# 1 38.5560 33.8116 15.8077 0.0000 0.0000 0.0000
# 2 33.8116 97.6701 43.2568 0.0000 0.0000 0.0000
# 3 15.8077 43.2568 135.7380 0.0000 0.0000 0.0000
# 4 0.0000 0.0000 0.0000 21.2896 0.0000 0.0000
# 5 0.0000 0.0000 0.0000 0.0000 8.5275 0.0000
# 6 0.0000 0.0000 0.0000 0.0000 0.0000 251.3892
#
#
#
# Elastic Compliance Matrix: (Units=1/GPa)
#
#
# Indices 1 2 3 4 5 6 
#
# 1 0.037251 -0.012778 -0.000266 0.000000 0.000000 0.000000
# 2 -0.012778 0.016304 -0.003708 0.000000 0.000000 0.000000
# 3 -0.000266 -0.003708 0.008580 0.000000 0.000000 0.000000
# 4 0.000000 0.000000 0.000000 0.046971 0.000000 0.000000
# 5 0.000000 0.000000 0.000000 0.000000 0.117268 0.000000
# 6 0.000000 0.000000 0.000000 0.000000 0.000000 0.003978
#
#
# Mechanical properties :
#
#
# Convention : Reuss Voigt Hill
#
# Bulk Modulus (GPa) = 34.92660 50.85738 42.89199
# Shear Modulus (GPa) = 18.28834 68.18046 43.23440
#
# Velocity S-wave (km/s) = 3.15299 6.08786 4.84786
# Velocity P-wave (km/s) = 5.67810 8.77847 7.39264
#
# Compressibility (1/GPa) = 0.02863147
#
# Stress axis : x y z
#
# Youngs Moduli (GPa) = 26.84505 61.33451 116.55433
#
# Poissons Ratio (x) = 0.78371 0.03102
# Poissons Ratio (y) = 0.34302 0.43215
# Poissons Ratio (z) = 0.00715 0.22741
#
# Static dielectric constant tensor:
#      x y z
#    x 1.619420 0.000000 0.000000 
#    y 0.000000 1.659320 0.000000 
#    z 0.000000 0.000000 1.687610 
# 
# From -- ./inp_files/28993.got.cif
#   From: 2010.05.17/outbox.ucp.g08.bks.cvg/sg66_15_cif.got.tgz:28993.got - 2010.06.11 16:44:13.
