data_PCOD9500649
_publ_section_title
;
Structure prediction by ZEFSAII (Michael W. Deem and Ramdas Pophale) SiO2 
 PCOD9500649
Probable space group: C M M A
;
_chemical_formula_sum "Si O2"
_cell_formula_units_Z 96
_cell_length_a 14.071793
_cell_length_b 16.204276
_cell_length_c 21.627516
_cell_angle_alpha 90.000000
_cell_angle_beta 90.000000
_cell_angle_gamma 90.000000
_cell_volume 4931.575787
_symmetry_space_group_name_H-M "C M M A"
_symmetry_group_IT_number 67
_symmetry_cell_setting 'orthorhombic'
loop_
_space_group_symop_operation_xyz
x,y,z
-x,1/2-y,z
x,-y,-z
-x,1/2+y,-z
-x,-y,-z
x,1/2+y,-z
-x,y,z
x,1/2-y,z
1/2+x,1/2+y,z
1/2-x,-y,z
1/2+x,1/2-y,-z
1/2-x,y,-z
1/2-x,1/2-y,-z
1/2+x,y,-z
1/2-x,1/2+y,z
1/2+x,-y,z
loop_
_atom_site_type_symbol
_atom_site_label
_atom_site_fract_x
_atom_site_fract_y
_atom_site_fract_z
Si Si1 0.890441 0.348540 0.785260
Si Si2 0.609738 0.599201 0.422303
Si Si3 0.787199 0.407696 0.908186
Si Si4 0.891213 0.653851 0.972248
Si Si5 0.236988 0.400603 0.670641
Si Si6 0.610239 0.899225 0.558123
O O1 0.894338 0.250000 0.787630
O O2 0.849635 0.380640 0.850183
O O3 0.813293 0.373218 0.733321
O O4 0.000000 0.378108 0.773439
O O5 0.500000 0.620075 0.417013
O O6 0.663256 0.625847 0.360340
O O7 0.617196 0.499288 0.432405
O O8 0.643933 0.628056 0.490122
O O9 0.750000 0.500000 0.900982
O O10 0.689714 0.356692 0.920096
O O11 0.851947 0.397210 0.969359
O O12 0.891535 0.750000 0.990928
O O13 0.000000 0.631270 0.955504
O O14 0.250000 0.500000 0.674744
O O15 0.167474 0.368851 0.616423
O O16 0.500000 0.877775 0.562265
#
# Coordination Sequence:
#
# PCOD9500649 Si02
#       6
#    16  16  16  16  16  16
#     4  11  24  41  58  75 103 146 190 230 276 330
#     4   8  14  24  42  71 104 136 167 210 272 331
#     4  11  22  37  59  87 115 145 184 231 273 308
#     4  10  20  36  61  91 123 155 181 210 257 319
#     4  10  18  30  50  77 104 133 176 229 276 320
#     4   8  13  23  42  71 104 133 168 216 270 326
#
# _framework density 19.466394999999999
#
# number of rings (size 3 to 8) (size 9 to 14) (size 15 to 20)
#    0.000    2.333    0.000    6.000    0.000    6.000 
#    0.000    0.833    0.000    3.500    0.000    2.333 
#    0.000    0.000    0.000    0.000    0.000    0.000 
#
# Total GULP energy -267279.400664 kJ/mol
# GULP energy per Si atom -5568.320847 kJ/mol
# Density = 1.942209 g / cm^3
# Si number density = 19.466395 Si / 1000 Ang^3
#
#
#
# Elastic Constant Matrix: (Units=GPa)
#
#
# Indices 1 2 3 4 5 6 
#
# 1 131.3919 21.1469 47.2277 0.0000 0.0000 0.0000
# 2 21.1469 38.9694 15.2246 0.0000 0.0000 0.0000
# 3 47.2277 15.2246 98.6010 0.0000 0.0000 0.0000
# 4 0.0000 0.0000 0.0000 -22.2029 0.0000 0.0000
# 5 0.0000 0.0000 0.0000 0.0000 26.0319 0.0000
# 6 0.0000 0.0000 0.0000 0.0000 0.0000 18.4633
#
#
#
# Elastic Compliance Matrix: (Units=1/GPa)
#
#
# Indices 1 2 3 4 5 6 
#
# 1 0.009659 -0.003655 -0.004062 0.000000 0.000000 0.000000
# 2 -0.003655 0.028691 -0.002680 0.000000 0.000000 0.000000
# 3 -0.004062 -0.002680 0.012501 0.000000 0.000000 0.000000
# 4 0.000000 0.000000 0.000000 -0.045039 0.000000 0.000000
# 5 0.000000 0.000000 0.000000 0.000000 0.038414 0.000000
# 6 0.000000 0.000000 0.000000 0.000000 0.000000 0.054162
#
#
# Mechanical properties :
#
#
# Convention : Reuss Voigt Hill
#
# Bulk Modulus (GPa) = 33.26806 48.46229 40.86518
# Shear Modulus (GPa) = 38.69938 16.81599 27.75768
#
# Velocity S-wave (km/s) = 4.46355 2.94232 3.78024
# Velocity P-wave (km/s) = 6.60995 6.04089 6.33182
#
# Compressibility (1/GPa) = 0.03005886
#
# Stress axis : x y z
#
# Youngs Moduli (GPa) = 103.52894 34.85385 79.99126
#
# Poissons Ratio (x) = 0.12737 0.32494
# Poissons Ratio (y) = 0.37835 0.21435
# Poissons Ratio (z) = 0.42056 0.09340
#
# Static dielectric constant tensor:
#      x y z
#    x 1.720950 0.000000 0.000000 
#    y 0.000000 1.718700 0.000000 
#    z 0.000000 0.000000 1.686870 
# 
# From -- ./inp_files/38387.got.cif
#   From: 2010.05.17/outbox.cif.g08.bks.cpg/sg67_20_cif.got.tgz:38387.got - 2010.06.03 18:28:57.
