data_PCOD9500889
_publ_section_title
;
Structure prediction by ZEFSAII (Michael W. Deem and Ramdas Pophale) SiO2 
 PCOD9500889
Probable space group: C M M A
;
_chemical_formula_sum "Si O2"
_cell_formula_units_Z 72
_cell_length_a 27.598257
_cell_length_b 8.579239
_cell_length_c 14.100324
_cell_angle_alpha 90.000000
_cell_angle_beta 90.000000
_cell_angle_gamma 90.000000
_cell_volume 3338.562517
_symmetry_space_group_name_H-M "C M M A"
_symmetry_group_IT_number 67
_symmetry_cell_setting 'orthorhombic'
loop_
_space_group_symop_operation_xyz
x,y,z
-x,1/2-y,z
x,-y,-z
-x,1/2+y,-z
-x,-y,-z
x,1/2+y,-z
-x,y,z
x,1/2-y,z
1/2+x,1/2+y,z
1/2-x,-y,z
1/2+x,1/2-y,-z
1/2-x,y,-z
1/2-x,1/2-y,-z
1/2+x,y,-z
1/2-x,1/2+y,z
1/2+x,-y,z
loop_
_atom_site_type_symbol
_atom_site_label
_atom_site_fract_x
_atom_site_fract_y
_atom_site_fract_z
Si Si1 0.947475 0.062255 0.608328
Si Si2 0.898418 0.937510 0.107171
Si Si3 0.000000 0.063481 0.109020
Si Si4 0.654955 0.935123 0.393670
Si Si5 0.699834 0.063809 0.213477
O O1 0.943747 0.250000 0.609038
O O2 0.000000 0.018413 0.650129
O O3 0.948782 0.000000 0.500000
O O4 0.897552 0.992024 0.644806
O O5 0.901341 0.750000 0.108056
O O6 0.848652 0.985920 0.157833
O O7 0.949042 0.001217 0.149630
O O8 0.895887 0.000000 0.000000
O O9 0.000000 0.250000 0.108586
O O10 0.000000 0.000000 0.000000
O O11 0.655869 0.750000 0.397217
O O12 0.661229 0.000000 0.500000
O O13 0.693519 0.000190 0.319896
O O14 0.701124 0.250000 0.214717
O O15 0.750000 0.000000 0.172136
#
# Coordination Sequence:
#
# PCOD9500889 Si02
#       5
#    16  16   8  16  16
#     4   9  16  28  49  77 110 148 189 237 294 354
#     4  10  21  39  65  95 129 166 203 248 304 365
#     4  10  18  32  60  94 129 164 203 248 298 360
#     4  11  22  38  61  86 117 157 204 256 309 367
#     4  11  25  44  64  89 122 161 207 259 311 365
#
# _framework density 21.566167
#
# number of rings (size 3 to 8) (size 9 to 14) (size 15 to 20)
#    0.000    1.778    0.000    7.667    0.000    5.778 
#    2.000    4.444    0.000    0.000    0.000    0.000 
#    0.000    0.000    0.000    0.000    0.000    0.000 
#
# Total GULP energy -201201.990159 kJ/mol
# GULP energy per Si atom -5588.944171 kJ/mol
# Density = 2.151708 g / cm^3
# Si number density = 21.566167 Si / 1000 Ang^3
#
#
#
# Elastic Constant Matrix: (Units=GPa)
#
#
# Indices 1 2 3 4 5 6 
#
# 1 204.8519 60.2357 59.0238 0.0000 0.0000 0.0000
# 2 60.2357 94.1589 15.6636 0.0000 0.0000 0.0000
# 3 59.0238 15.6636 69.7073 0.0000 0.0000 0.0000
# 4 0.0000 0.0000 0.0000 14.6005 0.0000 0.0000
# 5 0.0000 0.0000 0.0000 0.0000 31.8859 0.0000
# 6 0.0000 0.0000 0.0000 0.0000 0.0000 38.7173
#
#
#
# Elastic Compliance Matrix: (Units=1/GPa)
#
#
# Indices 1 2 3 4 5 6 
#
# 1 0.007661 -0.003970 -0.005595 0.000000 0.000000 0.000000
# 2 -0.003970 0.013090 0.000420 0.000000 0.000000 0.000000
# 3 -0.005595 0.000420 0.018989 0.000000 0.000000 0.000000
# 4 0.000000 0.000000 0.000000 0.068491 0.000000 0.000000
# 5 0.000000 0.000000 0.000000 0.000000 0.031362 0.000000
# 6 0.000000 0.000000 0.000000 0.000000 0.000000 0.025828
#
#
# Mechanical properties :
#
#
# Convention : Reuss Voigt Hill
#
# Bulk Modulus (GPa) = 46.61902 70.95159 58.78531
# Shear Modulus (GPa) = 26.19720 32.62707 29.41214
#
# Velocity S-wave (km/s) = 3.48909 3.89380 3.69699
# Velocity P-wave (km/s) = 6.15592 7.29291 6.74840
#
# Compressibility (1/GPa) = 0.02145047
#
# Stress axis : x y z
#
# Youngs Moduli (GPa) = 130.53110 76.39258 52.66333
#
# Poissons Ratio (x) = 0.30330 0.29464
# Poissons Ratio (y) = 0.51824 -0.02213
# Poissons Ratio (z) = 0.73029 -0.03211
#
# Static dielectric constant tensor:
#      x y z
#    x 1.835490 0.000000 0.000000 
#    y 0.000000 1.716000 0.000000 
#    z 0.000000 0.000000 1.760730 
# 
# From -- ./inp_files/30543.got.cif
#   From: 2010.05.17/outbox.cif.g08.bks.cpg/sg67_16_cif.got.tgz:30543.got - 2010.06.03 18:28:57.
