data_PCOD9500604
_publ_section_title
;
Structure prediction by ZEFSAII (Michael W. Deem and Ramdas Pophale) SiO2 
 PCOD9500604
Probable space group: C M M A
;
_chemical_formula_sum "Si O2"
_cell_formula_units_Z 80
_cell_length_a 27.842823
_cell_length_b 8.889937
_cell_length_c 18.825609
_cell_angle_alpha 90.000000
_cell_angle_beta 90.000000
_cell_angle_gamma 90.000000
_cell_volume 4659.732480
_symmetry_space_group_name_H-M "C M M A"
_symmetry_group_IT_number 67
_symmetry_cell_setting 'orthorhombic'
loop_
_space_group_symop_operation_xyz
x,y,z
-x,1/2-y,z
x,-y,-z
-x,1/2+y,-z
-x,-y,-z
x,1/2+y,-z
-x,y,z
x,1/2-y,z
1/2+x,1/2+y,z
1/2-x,-y,z
1/2+x,1/2-y,-z
1/2-x,y,-z
1/2-x,1/2-y,-z
1/2+x,y,-z
1/2-x,1/2+y,z
1/2+x,-y,z
loop_
_atom_site_type_symbol
_atom_site_label
_atom_site_fract_x
_atom_site_fract_y
_atom_site_fract_z
Si Si1 0.250000 0.000000 0.188149
Si Si2 0.196338 0.566740 0.574538
Si Si3 0.679806 0.582334 0.930980
Si Si4 0.500000 0.930717 0.920256
Si Si5 0.405676 0.568826 0.149606
Si Si6 0.342881 0.924170 0.278406
O O1 0.281784 0.093433 0.132426
O O2 0.208764 0.069287 0.238099
O O3 0.178221 0.500000 0.500000
O O4 0.198628 0.750000 0.572323
O O5 0.250000 0.500000 0.583574
O O6 0.165659 0.514591 0.642772
O O7 0.662881 0.750000 0.948261
O O8 0.636340 0.479047 0.904179
O O9 0.699421 0.500000 0.000000
O O10 0.500000 0.750000 0.925150
O O11 0.546339 0.990087 0.877369
O O12 0.500000 0.000000 0.000000
O O13 0.411243 0.750000 0.150573
O O14 0.383889 0.514432 0.225735
O O15 0.355183 0.750000 0.287579
#
# Coordination Sequence:
#
# PCOD9500604 Si02
#       6
#     8  16  16   8  16  16
#     4  10  19  32  47  66  96 134 174 210 251 298
#     4  10  18  30  47  73 105 141 178 212 249 294
#     4  11  22  34  49  69  96 130 170 214 257 304
#     4  12  24  40  60  82 105 132 167 214 267 318
#     4  10  21  38  57  77 100 130 168 212 262 314
#     4   9  18  32  50  72 102 136 171 209 251 301
#
# _framework density 17.168367
#
# number of rings (size 3 to 8) (size 9 to 14) (size 15 to 20)
#    0.000    1.800    1.000    4.800    0.000    3.200 
#    0.000    3.000    0.000    0.000    0.000    0.700 
#    0.000    0.000    0.000    0.000    0.000    0.000 
#
# Total GULP energy -222813.046241 kJ/mol
# GULP energy per Si atom -5570.326156 kJ/mol
# Density = 1.712929 g / cm^3
# Si number density = 17.168367 Si / 1000 Ang^3
#
#
#
# Elastic Constant Matrix: (Units=GPa)
#
#
# Indices 1 2 3 4 5 6 
#
# 1 106.4728 28.2137 61.7516 0.0000 0.0000 0.0000
# 2 28.2137 87.7801 39.2662 0.0000 0.0000 0.0000
# 3 61.7516 39.2662 160.8880 0.0000 0.0000 0.0000
# 4 0.0000 0.0000 0.0000 17.0911 0.0000 0.0000
# 5 0.0000 0.0000 0.0000 0.0000 22.3367 0.0000
# 6 0.0000 0.0000 0.0000 0.0000 0.0000 -77.4013
#
#
#
# Elastic Compliance Matrix: (Units=1/GPa)
#
#
# Indices 1 2 3 4 5 6 
#
# 1 0.012413 -0.002086 -0.004255 0.000000 0.000000 0.000000
# 2 -0.002086 0.013139 -0.002406 0.000000 0.000000 0.000000
# 3 -0.004255 -0.002406 0.008436 0.000000 0.000000 0.000000
# 4 0.000000 0.000000 0.000000 0.058510 0.000000 0.000000
# 5 0.000000 0.000000 0.000000 0.000000 0.044769 0.000000
# 6 0.000000 0.000000 0.000000 0.000000 0.000000 -0.012920
#
#
# Mechanical properties :
#
#
# Convention : Reuss Voigt Hill
#
# Bulk Modulus (GPa) = 60.63171 68.17822 64.40497
# Shear Modulus (GPa) = 33.93534 7.46594 20.70064
#
# Velocity S-wave (km/s) = 4.45074 2.08761 3.47615
# Velocity P-wave (km/s) = 7.86160 6.75341 7.32848
#
# Compressibility (1/GPa) = 0.01649302
#
# Stress axis : x y z
#
# Youngs Moduli (GPa) = 80.56255 76.11001 118.54166
#
# Poissons Ratio (x) = 0.15878 0.50440
# Poissons Ratio (y) = 0.16807 0.28520
# Poissons Ratio (z) = 0.34280 0.18312
#
# Static dielectric constant tensor:
#      x y z
#    x 1.573630 0.000000 0.000000 
#    y 0.000000 1.583510 0.000000 
#    z 0.000000 0.000000 1.521840 
# 
# From -- ./inp_files/35777.got.cif
#   From: 2010.05.17/outbox.cif.g08.bks.cpg/sg67_18_cif.got.tgz:35777.got - 2010.06.03 18:28:57.
