data_PCOD9500789
_publ_section_title
;
Structure prediction by ZEFSAII (Michael W. Deem and Ramdas Pophale) SiO2 
 PCOD9500789
Probable space group: C M M A
;
_chemical_formula_sum "Si O2"
_cell_formula_units_Z 80
_cell_length_a 22.837546
_cell_length_b 16.706954
_cell_length_c 11.928139
_cell_angle_alpha 90.000000
_cell_angle_beta 90.000000
_cell_angle_gamma 90.000000
_cell_volume 4551.131701
_symmetry_space_group_name_H-M "C M M A"
_symmetry_group_IT_number 67
_symmetry_cell_setting 'orthorhombic'
loop_
_space_group_symop_operation_xyz
x,y,z
-x,1/2-y,z
x,-y,-z
-x,1/2+y,-z
-x,-y,-z
x,1/2+y,-z
-x,y,z
x,1/2-y,z
1/2+x,1/2+y,z
1/2-x,-y,z
1/2+x,1/2-y,-z
1/2-x,y,-z
1/2-x,1/2-y,-z
1/2+x,y,-z
1/2-x,1/2+y,z
1/2+x,-y,z
loop_
_atom_site_type_symbol
_atom_site_label
_atom_site_fract_x
_atom_site_fract_y
_atom_site_fract_z
Si Si1 0.761285 0.154689 0.371934
Si Si2 0.694852 0.556457 0.814279
Si Si3 0.500000 0.342919 0.741602
Si Si4 0.371758 0.654190 0.994403
Si Si5 0.874110 0.593880 0.751903
Si Si6 0.000000 0.658022 0.012996
O O1 0.755042 0.250000 0.363370
O O2 0.750000 0.130209 0.500000
O O3 0.716779 0.111677 0.287267
O O4 0.825930 0.129427 0.331866
O O5 0.750000 0.500000 0.843382
O O6 0.675055 0.608628 0.919555
O O7 0.642803 0.498200 0.773640
O O8 0.500000 0.250000 0.703787
O O9 0.560311 0.387137 0.711494
O O10 0.500000 0.340502 0.877612
O O11 0.368757 0.750000 0.979450
O O12 0.365763 0.635605 0.126118
O O13 0.436715 0.623759 0.956534
O O14 0.000000 0.750000 0.052471
#
# Coordination Sequence:
#
# PCOD9500789 Si02
#       6
#    16  16   8  16  16   8
#     4  10  21  38  58  76  96 131 177 216 256 308
#     4  10  22  34  48  74 109 138 167 207 258 309
#     4   9  16  31  53  77 104 135 175 214 250 295
#     4  10  18  32  52  75 105 138 173 208 250 303
#     4  10  20  33  53  80 106 133 168 214 260 302
#     4   7  14  27  47  72  97 130 167 205 243 289
#
# _framework density 17.578044999999999
#
# number of rings (size 3 to 8) (size 9 to 14) (size 15 to 20)
#    0.000    2.400    0.000    4.200    0.000   10.000 
#    0.000    8.000    0.000    3.600    0.000    4.200 
#    0.000    0.000    0.000    0.000    0.000    0.000 
#
# Total GULP energy -223078.493747 kJ/mol
# GULP energy per Si atom -5576.962344 kJ/mol
# Density = 1.753804 g / cm^3
# Si number density = 17.578045 Si / 1000 Ang^3
#
#
#
# Elastic Constant Matrix: (Units=GPa)
#
#
# Indices 1 2 3 4 5 6 
#
# 1 120.8824 49.1189 63.7285 0.0000 0.0000 0.0000
# 2 49.1189 63.3517 35.3507 0.0000 0.0000 0.0000
# 3 63.7285 35.3507 93.6761 0.0000 0.0000 0.0000
# 4 0.0000 0.0000 0.0000 -18.8666 0.0000 0.0000
# 5 0.0000 0.0000 0.0000 0.0000 2.5252 0.0000
# 6 0.0000 0.0000 0.0000 0.0000 0.0000 21.0577
#
#
#
# Elastic Compliance Matrix: (Units=1/GPa)
#
#
# Indices 1 2 3 4 5 6 
#
# 1 0.015394 -0.007717 -0.007561 0.000000 0.000000 0.000000
# 2 -0.007717 0.023864 -0.003756 0.000000 0.000000 0.000000
# 3 -0.007561 -0.003756 0.017236 0.000000 0.000000 0.000000
# 4 0.000000 0.000000 0.000000 -0.053004 0.000000 0.000000
# 5 0.000000 0.000000 0.000000 0.000000 0.396001 0.000000
# 6 0.000000 0.000000 0.000000 0.000000 0.000000 0.047489
#
#
# Mechanical properties :
#
#
# Convention : Reuss Voigt Hill
#
# Bulk Modulus (GPa) = 54.26661 63.81181 59.03921
# Shear Modulus (GPa) = 10.17940 9.59076 9.88508
#
# Velocity S-wave (km/s) = 2.40905 2.33836 2.37397
# Velocity P-wave (km/s) = 6.21907 6.60843 6.41671
#
# Compressibility (1/GPa) = 0.01842754
#
# Stress axis : x y z
#
# Youngs Moduli (GPa) = 64.96069 41.90476 58.01848
#
# Poissons Ratio (x) = 0.32336 0.43865
# Poissons Ratio (y) = 0.50128 0.21790
# Poissons Ratio (z) = 0.49114 0.15738
#
# Static dielectric constant tensor:
#      x y z
#    x 1.634840 0.000000 0.000000 
#    y 0.000000 1.607070 0.000000 
#    z 0.000000 0.000000 1.562440 
# 
# From -- ./inp_files/17982.got.cif
#   From: 2010.05.17/outbox.cif.g08.bks.cpg/sg67_9_cif.got.tgz:17982.got - 2010.06.03 18:28:57.
