data_PCOD9500570
_publ_section_title
;
Structure prediction by ZEFSAII (Michael W. Deem and Ramdas Pophale) SiO2 
 PCOD9500570
Probable space group: C M M A
;
_chemical_formula_sum "Si O2"
_cell_formula_units_Z 68
_cell_length_a 9.554967
_cell_length_b 17.549159
_cell_length_c 19.045904
_cell_angle_alpha 90.000000
_cell_angle_beta 90.000000
_cell_angle_gamma 90.000000
_cell_volume 3193.648325
_symmetry_space_group_name_H-M "C M M A"
_symmetry_group_IT_number 67
_symmetry_cell_setting 'orthorhombic'
loop_
_space_group_symop_operation_xyz
x,y,z
-x,1/2-y,z
x,-y,-z
-x,1/2+y,-z
-x,-y,-z
x,1/2+y,-z
-x,y,z
x,1/2-y,z
1/2+x,1/2+y,z
1/2-x,-y,z
1/2+x,1/2-y,-z
1/2-x,y,-z
1/2-x,1/2-y,-z
1/2+x,y,-z
1/2-x,1/2+y,z
1/2+x,-y,z
loop_
_atom_site_type_symbol
_atom_site_label
_atom_site_fract_x
_atom_site_fract_y
_atom_site_fract_z
Si Si1 0.500000 0.250000 0.849898
Si Si2 0.339290 0.157186 0.567119
Si Si3 0.500000 0.555428 0.066448
Si Si4 0.336601 0.158251 0.295139
Si Si5 0.000000 0.659873 0.057703
Si Si6 0.233144 0.614187 0.851252
O O1 0.623502 0.184050 0.847150
O O2 0.500000 0.131053 0.565440
O O3 0.342048 0.250000 0.564433
O O4 0.250000 0.131148 0.500000
O O5 0.260909 0.137865 0.639252
O O6 0.365594 0.549631 0.115434
O O7 0.500000 0.500000 0.000000
O O8 0.500000 0.635295 0.023317
O O9 0.500000 0.147550 0.312251
O O10 0.319273 0.250000 0.280784
O O11 0.295491 0.110259 0.226659
O O12 0.139023 0.630942 0.096243
O O13 0.000000 0.750000 0.061880
#
# Coordination Sequence:
#
# PCOD9500570 Si02
#       6
#     4  16   8  16   8  16
#     4  10  20  32  54  86 116 142 180 258 312 356
#     4   9  17  26  40  66 108 160 206 241 292 364
#     4  11  29  46  60  83 118 159 201 252 323 390
#     4  10  18  29  50  77 112 150 197 259 311 362
#     4  12  23  39  65  92 116 149 196 258 314 377
#     4  11  22  37  60  83 117 148 202 251 315 369
#
# _framework density 21.292262999999998
#
# number of rings (size 3 to 8) (size 9 to 14) (size 15 to 20)
#    0.000    1.647    3.529    1.412    6.588    5.647 
#    0.000    0.000    0.000    0.000    0.000    0.000 
#    0.000    0.000    0.000    6.353    0.000    2.824 
#
# Total GULP energy -189457.423274 kJ/mol
# GULP energy per Si atom -5572.277155 kJ/mol
# Density = 2.124380 g / cm^3
# Si number density = 21.292263 Si / 1000 Ang^3
#
#
#
# Elastic Constant Matrix: (Units=GPa)
#
#
# Indices 1 2 3 4 5 6 
#
# 1 208.8265 16.1462 86.3420 0.0000 0.0000 0.0000
# 2 16.1462 28.8638 -0.4904 0.0000 0.0000 0.0000
# 3 86.3420 -0.4904 160.4209 0.0000 0.0000 0.0000
# 4 0.0000 0.0000 0.0000 19.8749 0.0000 0.0000
# 5 0.0000 0.0000 0.0000 0.0000 34.5164 0.0000
# 6 0.0000 0.0000 0.0000 0.0000 0.0000 24.0325
#
#
#
# Elastic Compliance Matrix: (Units=1/GPa)
#
#
# Indices 1 2 3 4 5 6 
#
# 1 0.006535 -0.003716 -0.003529 0.000000 0.000000 0.000000
# 2 -0.003716 0.036760 0.002112 0.000000 0.000000 0.000000
# 3 -0.003529 0.002112 0.008139 0.000000 0.000000 0.000000
# 4 0.000000 0.000000 0.000000 0.050315 0.000000 0.000000
# 5 0.000000 0.000000 0.000000 0.000000 0.028972 0.000000
# 6 0.000000 0.000000 0.000000 0.000000 0.000000 0.041610
#
#
# Mechanical properties :
#
#
# Convention : Reuss Voigt Hill
#
# Bulk Modulus (GPa) = 24.28949 66.90075 45.59512
# Shear Modulus (GPa) = 25.46889 35.42565 30.44727
#
# Velocity S-wave (km/s) = 3.46230 4.08337 3.78560
# Velocity P-wave (km/s) = 5.23601 7.32942 6.36931
#
# Compressibility (1/GPa) = 0.04117006
#
# Stress axis : x y z
#
# Youngs Moduli (GPa) = 153.02499 27.20359 122.86199
#
# Poissons Ratio (x) = 0.10108 0.43353
# Poissons Ratio (y) = 0.56857 -0.25950
# Poissons Ratio (z) = 0.53996 -0.05746
#
# Static dielectric constant tensor:
#      x y z
#    x 1.749480 0.000000 0.000000 
#    y 0.000000 -1.983770 0.000000 
#    z 0.000000 0.000000 1.762620 
# 
# From -- ./inp_files/31833.got.cif
#   From: 2010.05.17/outbox.cif.g08.bks.cpg/sg67_16_cif.got.tgz:31833.got - 2010.06.03 18:28:57.
