data_PCOD9500918
_publ_section_title
;
Structure prediction by ZEFSAII (Michael W. Deem and Ramdas Pophale) SiO2 
 PCOD9500918
Probable space group: C M M A
;
_chemical_formula_sum "Si O2"
_cell_formula_units_Z 56
_cell_length_a 10.445392
_cell_length_b 14.550064
_cell_length_c 17.961704
_cell_angle_alpha 90.000000
_cell_angle_beta 90.000000
_cell_angle_gamma 90.000000
_cell_volume 2729.839929
_symmetry_space_group_name_H-M "C M M A"
_symmetry_group_IT_number 67
_symmetry_cell_setting 'orthorhombic'
loop_
_space_group_symop_operation_xyz
x,y,z
-x,1/2-y,z
x,-y,-z
-x,1/2+y,-z
-x,-y,-z
x,1/2+y,-z
-x,y,z
x,1/2-y,z
1/2+x,1/2+y,z
1/2-x,-y,z
1/2+x,1/2-y,-z
1/2-x,y,-z
1/2-x,1/2-y,-z
1/2+x,y,-z
1/2-x,1/2+y,z
1/2+x,-y,z
loop_
_atom_site_type_symbol
_atom_site_label
_atom_site_fract_x
_atom_site_fract_y
_atom_site_fract_z
Si Si1 0.356599 0.250000 0.062774
Si Si2 0.500000 0.637900 0.555952
Si Si3 0.355776 0.427165 0.167830
Si Si4 0.221699 0.638541 0.331136
Si Si5 0.000000 0.137695 0.384747
O O1 0.500000 0.250000 0.029731
O O2 0.345560 0.338289 0.115811
O O3 0.250000 0.250000 0.000000
O O4 0.500000 0.750000 0.553757
O O5 0.373890 0.610883 0.602260
O O6 0.500000 0.607142 0.470703
O O7 0.500000 0.464185 0.162327
O O8 0.250000 0.500000 0.144984
O O9 0.328917 0.397977 0.252882
O O10 0.219671 0.750000 0.328390
O O11 0.367792 0.608882 0.346040
O O12 0.000000 0.250000 0.384588
#
# Coordination Sequence:
#
# PCOD9500918 Si02
#       5
#     8   8  16  16   8
#     4  10  24  48  74 102 133 167 206 250 313 381
#     4   9  16  28  53  81 117 167 217 268 323 376
#     4  11  24  42  67  97 132 172 213 257 312 376
#     4  10  18  33  57  84 123 167 216 265 321 374
#     4   9  18  28  47  89 123 157 217 278 319 372
#
# _framework density 20.514023999999999
#
# number of rings (size 3 to 8) (size 9 to 14) (size 15 to 20)
#    0.000    2.000    2.857    0.857    2.000    5.143 
#    0.000    2.857    0.000    5.143    0.000    0.000 
#    0.000    0.000    0.000    0.000    0.000    0.000 
#
# Total GULP energy -156627.851851 kJ/mol
# GULP energy per Si atom -5593.851852 kJ/mol
# Density = 2.046733 g / cm^3
# Si number density = 20.514024 Si / 1000 Ang^3
#
#
#
# Elastic Constant Matrix: (Units=GPa)
#
#
# Indices 1 2 3 4 5 6 
#
# 1 214.1014 47.8650 65.8898 0.0000 0.0000 0.0000
# 2 47.8650 68.1780 6.2302 0.0000 0.0000 0.0000
# 3 65.8898 6.2302 84.6517 0.0000 0.0000 0.0000
# 4 0.0000 0.0000 0.0000 -6.4980 0.0000 0.0000
# 5 0.0000 0.0000 0.0000 0.0000 39.5506 0.0000
# 6 0.0000 0.0000 0.0000 0.0000 0.0000 20.0581
#
#
#
# Elastic Compliance Matrix: (Units=1/GPa)
#
#
# Indices 1 2 3 4 5 6 
#
# 1 0.007381 -0.004688 -0.005400 0.000000 0.000000 0.000000
# 2 -0.004688 0.017745 0.002343 0.000000 0.000000 0.000000
# 3 -0.005400 0.002343 0.015844 0.000000 0.000000 0.000000
# 4 0.000000 0.000000 0.000000 -0.153894 0.000000 0.000000
# 5 0.000000 0.000000 0.000000 0.000000 0.025284 0.000000
# 6 0.000000 0.000000 0.000000 0.000000 0.000000 0.049855
#
#
# Mechanical properties :
#
#
# Convention : Reuss Voigt Hill
#
# Bulk Modulus (GPa) = 39.24745 67.43346 53.34046
# Shear Modulus (GPa) = -362.22993 27.08522 -167.57235
#
# Velocity S-wave (km/s) = -13.30263 3.63757 -9.04788
# Velocity P-wave (km/s) = 14.72322 7.11237 9.11557
#
# Compressibility (1/GPa) = 0.02547936
#
# Stress axis : x y z
#
# Youngs Moduli (GPa) = 135.49142 56.35482 63.11695
#
# Poissons Ratio (x) = 0.26420 0.34081
# Poissons Ratio (y) = 0.63520 -0.14789
# Poissons Ratio (z) = 0.73161 -0.13205
#
# Static dielectric constant tensor:
#      x y z
#    x 1.713360 0.000000 0.000000 
#    y 0.000000 1.764550 0.000000 
#    z 0.000000 0.000000 1.664140 
# 
# From -- ./inp_files/26623.got.cif
#   From: 2010.05.17/outbox.cif.g08.bks.cpg/sg67_14_cif.got.tgz:26623.got - 2010.06.03 18:28:57.
