data_PCOD9500054
_publ_section_title
;
Structure prediction by ZEFSAII (Michael W. Deem and Ramdas Pophale) SiO2 
 PCOD9500054
Probable space group: C C C M
;
_chemical_formula_sum "Si O2"
_cell_formula_units_Z 64
_cell_length_a 15.059838
_cell_length_b 12.136473
_cell_length_c 12.946928
_cell_angle_alpha 90.000000
_cell_angle_beta 90.000000
_cell_angle_gamma 90.000000
_cell_volume 2366.352979
_symmetry_space_group_name_H-M "C C C M"
_symmetry_group_IT_number 66
_symmetry_cell_setting 'orthorhombic'
loop_
_space_group_symop_operation_xyz
x,y,z
-x,-y,z
x,-y,1/2-z
-x,y,1/2-z
-x,-y,-z
x,y,-z
-x,y,1/2+z
x,-y,1/2+z
1/2+x,1/2+y,z
1/2-x,1/2-y,z
1/2+x,1/2-y,1/2-z
1/2-x,1/2+y,1/2-z
1/2-x,1/2-y,-z
1/2+x,1/2+y,-z
1/2-x,1/2+y,1/2+z
1/2+x,1/2-y,1/2+z
loop_
_atom_site_type_symbol
_atom_site_label
_atom_site_fract_x
_atom_site_fract_y
_atom_site_fract_z
Si Si1 0.367003 0.864471 0.161064
Si Si2 0.324483 0.385694 0.342482
Si Si3 0.937506 0.345533 0.387672
Si Si4 0.872918 0.109986 0.612644
O O1 0.350966 0.736946 0.128841
O O2 0.275215 0.917994 0.124939
O O3 0.383287 0.876452 0.285016
O O4 0.463043 0.892099 0.117502
O O5 0.393039 0.479385 0.378110
O O6 0.318693 0.377121 0.217952
O O7 0.898409 0.371242 0.500000
O O8 0.942410 0.210568 0.380223
O O9 0.830616 0.125398 0.500000
#
# Coordination Sequence:
#
# PCOD9500054 Si02
#       4
#    16  16  16  16
#     4   9  18  32  50  74 104 137 174 216 260 307
#     4   9  18  32  50  74 104 137 174 216 260 307
#     4   9  18  32  50  73 101 134 172 213 258 308
#     4   9  18  32  50  73 101 134 172 213 258 308
#
# _framework density 27.045839000000001
#
# number of rings (size 3 to 8) (size 9 to 14) (size 15 to 20)
#    0.000    3.000    0.000    0.000    0.000    4.000 
#    0.000   15.000    0.000   12.000    0.000   14.000 
#    0.000    0.000    0.000    0.000    0.000    0.000 
#
# Total GULP energy -178561.375339 kJ/mol
# GULP energy per Si atom -5580.042979 kJ/mol
# Density = 2.698428 g / cm^3
# Si number density = 27.045839 Si / 1000 Ang^3
#
#
#
# Elastic Constant Matrix: (Units=GPa)
#
#
# Indices 1 2 3 4 5 6 
#
# 1 124.0779 40.6965 23.8378 0.0000 0.0000 0.0000
# 2 40.6965 131.1571 9.1704 0.0000 0.0000 0.0000
# 3 23.8378 9.1704 174.5398 0.0000 0.0000 0.0000
# 4 0.0000 0.0000 0.0000 1.9041 0.0000 0.0000
# 5 0.0000 0.0000 0.0000 0.0000 -6.2407 0.0000
# 6 0.0000 0.0000 0.0000 0.0000 0.0000 24.5505
#
#
#
# Elastic Compliance Matrix: (Units=1/GPa)
#
#
# Indices 1 2 3 4 5 6 
#
# 1 0.009181 -0.002771 -0.001108 0.000000 0.000000 0.000000
# 2 -0.002771 0.008489 -0.000068 0.000000 0.000000 0.000000
# 3 -0.001108 -0.000068 0.005884 0.000000 0.000000 0.000000
# 4 0.000000 0.000000 0.000000 0.525174 0.000000 0.000000
# 5 0.000000 0.000000 0.000000 0.000000 -0.160237 0.000000
# 6 0.000000 0.000000 0.000000 0.000000 0.000000 0.040732
#
#
# Mechanical properties :
#
#
# Convention : Reuss Voigt Hill
#
# Bulk Modulus (GPa) = 63.85588 64.13159 63.99374
# Shear Modulus (GPa) = 11.30357 27.78078 19.54218
#
# Velocity S-wave (km/s) = 2.04658 3.20843 2.69096
# Velocity P-wave (km/s) = 5.40797 6.12283 5.77647
#
# Compressibility (1/GPa) = 0.01566026
#
# Stress axis : x y z
#
# Youngs Moduli (GPa) = 108.91609 117.79818 169.94456
#
# Poissons Ratio (x) = 0.32646 0.18836
# Poissons Ratio (y) = 0.30185 0.01147
# Poissons Ratio (z) = 0.12072 0.00795
#
# Static dielectric constant tensor:
#      x y z
#    x 2.026590 0.000000 0.000000 
#    y 0.000000 2.225400 0.000000 
#    z 0.000000 0.000000 2.062090 
# 
# From -- ./inp_files/27890.got.cif
#   From: 2010.05.17/outbox.cif.g08.bks.cpg/sg66_14_cif.got.tgz:27890.got - 2010.06.03 17:51:23.
