data_PCOD9500228
_publ_section_title
;
Structure prediction by ZEFSAII (Michael W. Deem and Ramdas Pophale) SiO2 
 PCOD9500228
Probable space group: C M M A
;
_chemical_formula_sum "Si O2"
_cell_formula_units_Z 48
_cell_length_a 23.734445
_cell_length_b 5.550855
_cell_length_c 15.779294
_cell_angle_alpha 90.000000
_cell_angle_beta 90.000000
_cell_angle_gamma 90.000000
_cell_volume 2078.866168
_symmetry_space_group_name_H-M "C M M A"
_symmetry_group_IT_number 67
_symmetry_cell_setting 'orthorhombic'
loop_
_space_group_symop_operation_xyz
x,y,z
-x,1/2-y,z
x,-y,-z
-x,1/2+y,-z
-x,-y,-z
x,1/2+y,-z
-x,y,z
x,1/2-y,z
1/2+x,1/2+y,z
1/2-x,-y,z
1/2+x,1/2-y,-z
1/2-x,y,-z
1/2-x,1/2-y,-z
1/2+x,y,-z
1/2-x,1/2+y,z
1/2+x,-y,z
loop_
_atom_site_type_symbol
_atom_site_label
_atom_site_fract_x
_atom_site_fract_y
_atom_site_fract_z
Si Si1 0.123525 0.250000 0.206549
Si Si2 0.726972 0.750000 0.596114
Si Si3 0.599717 0.250000 0.267828
Si Si4 0.500000 0.750000 0.867831
Si Si5 0.594667 0.750000 0.550379
Si Si6 0.000000 0.750000 0.866805
Si Si7 0.726799 0.250000 0.902295
O O1 0.133768 0.499859 0.256155
O O2 0.056752 0.250000 0.188573
O O3 0.160473 0.250000 0.120158
O O4 0.750000 0.500000 0.635057
O O5 0.750000 0.750000 0.500000
O O6 0.660202 0.750000 0.580097
O O7 0.554977 0.250000 0.191573
O O8 0.567155 0.250000 0.356964
O O9 0.500000 0.499539 0.914446
O O10 0.583586 0.500000 0.500000
O O11 0.750000 0.500000 0.865586
O O12 0.750000 0.250000 0.000000
#
# Coordination Sequence:
#
# PCOD9500228 Si02
#       7
#     8   8   8   4   8   4   8
#     4  10  19  38  59  86 117 144 205 242 293 343
#     4  10  16  30  46  58  78 120 166 213 258 335
#     4  10  21  35  56  82 108 147 184 258 293 345
#     4   8  16  34  52  75 109 138 186 228 320 354
#     4  12  21  33  50  70 100 139 189 229 296 357
#     4   8  16  30  60  83 105 152 186 254 288 328
#     4  10  21  38  63  87 123 169 192 215 284 358
#
# _framework density 23.089511999999999
#
# number of rings (size 3 to 8) (size 9 to 14) (size 15 to 20)
#    0.000    2.000    3.333    2.000    0.000    0.000 
#    0.000    5.833    0.000    4.000    0.000    0.000 
#    0.000    0.000    0.000    0.000    0.000    0.000 
#
# Total GULP energy -133641.750541 kJ/mol
# GULP energy per Si atom -5568.406273 kJ/mol
# Density = 2.303696 g / cm^3
# Si number density = 23.089512 Si / 1000 Ang^3
#
#
#
# Elastic Constant Matrix: (Units=GPa)
#
#
# Indices 1 2 3 4 5 6 
#
# 1 83.2219 5.0051 15.4613 0.0000 0.0000 0.0000
# 2 5.0051 307.8357 48.8923 0.0000 0.0000 0.0000
# 3 15.4613 48.8923 109.5011 0.0000 0.0000 0.0000
# 4 0.0000 0.0000 0.0000 20.1783 0.0000 0.0000
# 5 0.0000 0.0000 0.0000 0.0000 -279.0680 0.0000
# 6 0.0000 0.0000 0.0000 0.0000 0.0000 -0.6123
#
#
#
# Elastic Compliance Matrix: (Units=1/GPa)
#
#
# Indices 1 2 3 4 5 6 
#
# 1 0.012342 0.000082 -0.001779 0.000000 0.000000 0.000000
# 2 0.000082 0.003497 -0.001573 0.000000 0.000000 0.000000
# 3 -0.001779 -0.001573 0.010086 0.000000 0.000000 0.000000
# 4 0.000000 0.000000 0.000000 0.049558 0.000000 0.000000
# 5 0.000000 0.000000 0.000000 0.000000 -0.003583 0.000000
# 6 0.000000 0.000000 0.000000 0.000000 0.000000 -1.633191
#
#
# Mechanical properties :
#
#
# Convention : Reuss Voigt Hill
#
# Bulk Modulus (GPa) = 51.58879 71.03069 61.30974
# Shear Modulus (GPa) = -3.22937 -23.15374 -13.19155
#
# Velocity S-wave (km/s) = -1.18392 -3.17011 -2.39283
# Velocity P-wave (km/s) = 4.53018 4.17499 4.35621
#
# Compressibility (1/GPa) = 0.01938406
#
# Stress axis : x y z
#
# Youngs Moduli (GPa) = 81.02622 285.96078 99.14855
#
# Poissons Ratio (x) = -0.02343 0.17640
# Poissons Ratio (y) = -0.00664 0.15596
# Poissons Ratio (z) = 0.14416 0.44981
#
# Static dielectric constant tensor:
#      x y z
#    x 1.884070 0.000000 0.000000 
#    y 0.000000 1.969940 0.000000 
#    z 0.000000 0.000000 2.013000 
# 
# From -- ./inp_files/30391.got.cif
#   From: 2010.05.17/outbox.cif.g08.bks.cpg/sg67_16_cif.got.tgz:30391.got - 2010.06.03 18:28:57.
