data_PCOD9500803
_publ_section_title
;
Structure prediction by ZEFSAII (Michael W. Deem and Ramdas Pophale) SiO2 
 PCOD9500803
Probable space group: C M M A
;
_chemical_formula_sum "Si O2"
_cell_formula_units_Z 104
_cell_length_a 14.681686
_cell_length_b 22.278716
_cell_length_c 15.796468
_cell_angle_alpha 90.000000
_cell_angle_beta 90.000000
_cell_angle_gamma 90.000000
_cell_volume 5166.852703
_symmetry_space_group_name_H-M "C M M A"
_symmetry_group_IT_number 67
_symmetry_cell_setting 'orthorhombic'
loop_
_space_group_symop_operation_xyz
x,y,z
-x,1/2-y,z
x,-y,-z
-x,1/2+y,-z
-x,-y,-z
x,1/2+y,-z
-x,y,z
x,1/2-y,z
1/2+x,1/2+y,z
1/2-x,-y,z
1/2+x,1/2-y,-z
1/2-x,y,-z
1/2-x,1/2-y,-z
1/2+x,y,-z
1/2-x,1/2+y,z
1/2+x,-y,z
loop_
_atom_site_type_symbol
_atom_site_label
_atom_site_fract_x
_atom_site_fract_y
_atom_site_fract_z
Si Si1 0.604495 0.817882 0.373167
Si Si2 0.152484 0.467674 0.583185
Si Si3 0.750000 0.358760 0.500000
Si Si4 0.888211 0.182104 0.032626
Si Si5 0.141684 0.007336 0.771816
Si Si6 0.895502 0.871988 0.793834
Si Si7 0.892199 0.059219 0.948637
O O1 0.500000 0.835571 0.397384
O O2 0.600111 0.750000 0.340899
O O3 0.677341 0.821983 0.446842
O O4 0.643416 0.859183 0.298367
O O5 0.108201 0.500000 0.500000
O O6 0.250000 0.500000 0.590768
O O7 0.184094 0.401215 0.557269
O O8 0.109408 0.475800 0.676511
O O9 0.860475 0.250000 0.009400
O O10 0.857037 0.164442 0.127611
O O11 0.000000 0.182132 0.032155
O O12 0.857750 0.124508 0.978055
O O13 0.120496 0.052049 0.848243
O O14 0.250000 0.000000 0.768540
O O15 0.105139 0.943194 0.804337
O O16 0.000000 0.851546 0.786231
O O17 0.000000 0.059873 0.966984
O O18 0.856333 0.000000 0.000000
#
# Coordination Sequence:
#
# PCOD9500803 Si02
#       7
#    16  16   8  16  16  16  16
#     4  10  20  32  51  80 107 137 183 232 279 337
#     4   8  16  31  52  75 100 136 176 216 269 330
#     4  10  18  36  56  70 108 148 176 222 284 336
#     4   9  17  31  53  76 102 139 177 218 272 326
#     4  11  20  31  52  79 108 139 173 217 274 327
#     4  10  18  32  53  78 105 133 175 228 277 321
#     4  10  19  34  52  76 105 137 178 221 266 322
#
# _framework density 20.128307
#
# number of rings (size 3 to 8) (size 9 to 14) (size 15 to 20)
#    0.000    2.462    1.538    3.923    0.000    2.154 
#    0.000    1.538    0.000   17.538    0.000    2.154 
#    0.000    0.000    0.000    0.000    0.000    0.000 
#
# Total GULP energy -289579.218769 kJ/mol
# GULP energy per Si atom -5568.831130 kJ/mol
# Density = 2.008249 g / cm^3
# Si number density = 20.128307 Si / 1000 Ang^3
#
#
#
# Elastic Constant Matrix: (Units=GPa)
#
#
# Indices 1 2 3 4 5 6 
#
# 1 53.5466 16.8097 15.5708 0.0000 0.0000 0.0000
# 2 16.8097 110.9452 61.9124 0.0000 0.0000 0.0000
# 3 15.5708 61.9124 123.9619 0.0000 0.0000 0.0000
# 4 0.0000 0.0000 0.0000 74.8034 0.0000 0.0000
# 5 0.0000 0.0000 0.0000 0.0000 31.4082 0.0000
# 6 0.0000 0.0000 0.0000 0.0000 0.0000 -4.6638
#
#
#
# Elastic Compliance Matrix: (Units=1/GPa)
#
#
# Indices 1 2 3 4 5 6 
#
# 1 0.019774 -0.002232 -0.001369 0.000000 0.000000 0.000000
# 2 -0.002232 0.012748 -0.006087 0.000000 0.000000 0.000000
# 3 -0.001369 -0.006087 0.011279 0.000000 0.000000 0.000000
# 4 0.000000 0.000000 0.000000 0.013368 0.000000 0.000000
# 5 0.000000 0.000000 0.000000 0.000000 0.031839 0.000000
# 6 0.000000 0.000000 0.000000 0.000000 0.000000 -0.214419
#
#
# Mechanical properties :
#
#
# Convention : Reuss Voigt Hill
#
# Bulk Modulus (GPa) = 40.94039 53.00438 46.97239
# Shear Modulus (GPa) = -51.07609 33.25362 -8.91124
#
# Velocity S-wave (km/s) = -5.04285 4.06899 -2.10638
# Velocity P-wave (km/s) = 3.67740 6.96175 4.17988
#
# Compressibility (1/GPa) = 0.02442576
#
# Stress axis : x y z
#
# Youngs Moduli (GPa) = 50.57111 78.44170 88.66060
#
# Poissons Ratio (x) = 0.17509 0.12138
# Poissons Ratio (y) = 0.11288 0.53965
# Poissons Ratio (z) = 0.06923 0.47745
#
# Static dielectric constant tensor:
#      x y z
#    x 1.738720 0.000000 0.000000 
#    y 0.000000 1.734610 0.000000 
#    z 0.000000 0.000000 1.780630 
# 
# From -- ./inp_files/28710.got.cif
#   From: 2010.05.17/outbox.cif.g08.bks.cpg/sg67_15_cif.got.tgz:28710.got - 2010.06.03 18:28:57.
