data_PCOD9500859
_publ_section_title
;
Structure prediction by ZEFSAII (Michael W. Deem and Ramdas Pophale) SiO2 
 PCOD9500859
Probable space group: C M M A
;
_chemical_formula_sum "Si O2"
_cell_formula_units_Z 104
_cell_length_a 18.193304
_cell_length_b 25.480811
_cell_length_c 12.371129
_cell_angle_alpha 90.000000
_cell_angle_beta 90.000000
_cell_angle_gamma 90.000000
_cell_volume 5735.009722
_symmetry_space_group_name_H-M "C M M A"
_symmetry_group_IT_number 67
_symmetry_cell_setting 'orthorhombic'
loop_
_space_group_symop_operation_xyz
x,y,z
-x,1/2-y,z
x,-y,-z
-x,1/2+y,-z
-x,-y,-z
x,1/2+y,-z
-x,y,z
x,1/2-y,z
1/2+x,1/2+y,z
1/2-x,-y,z
1/2+x,1/2-y,-z
1/2-x,y,-z
1/2-x,1/2-y,-z
1/2+x,y,-z
1/2-x,1/2+y,z
1/2+x,-y,z
loop_
_atom_site_type_symbol
_atom_site_label
_atom_site_fract_x
_atom_site_fract_y
_atom_site_fract_z
Si Si1 0.579547 0.476387 0.711132
Si Si2 0.750000 0.144786 0.000000
Si Si3 0.704090 0.189986 0.611813
Si Si4 0.413347 0.109181 0.541195
Si Si5 0.135280 0.090710 0.698640
Si Si6 0.777067 0.943532 0.832159
Si Si7 0.671982 0.809252 0.800095
O O1 0.500000 0.460633 0.753668
O O2 0.587757 0.448442 0.595096
O O3 0.586271 0.538984 0.710843
O O4 0.645297 0.454157 0.780079
O O5 0.714242 0.103403 0.916635
O O6 0.799865 0.179868 0.921443
O O7 0.676196 0.250000 0.611361
O O8 0.750000 0.183105 0.500000
O O9 0.636749 0.149152 0.610911
O O10 0.760125 0.185635 0.713434
O O11 0.500000 0.124346 0.532599
O O12 0.374321 0.106404 0.425332
O O13 0.215723 0.072452 0.742216
O O14 0.118752 0.142856 0.767768
O O15 0.750000 0.000000 0.876967
O O16 0.643608 0.750000 0.788932
#
# Coordination Sequence:
#
# PCOD9500859 Si02
#       7
#    16   8  16  16  16  16  16
#     4  10  21  35  52  80 115 149 185 228 281 336
#     4  10  18  32  56  82 110 134 178 240 280 326
#     4  10  20  36  56  79 112 148 185 229 273 328
#     4  11  21  32  51  81 116 151 187 228 277 335
#     4  10  19  33  52  77 112 148 182 226 273 330
#     4   9  19  33  54  79 105 144 187 229 277 334
#     4  10  20  34  56  82 107 141 185 235 281 325
#
# _framework density 18.134232000000001
#
# number of rings (size 3 to 8) (size 9 to 14) (size 15 to 20)
#    0.000    2.000    1.538    3.231    0.000    1.538 
#    0.000    2.308    0.000   21.692    0.000    0.000 
#    0.000   14.769    0.000    0.000    0.000    0.000 
#
# Total GULP energy -289577.650255 kJ/mol
# GULP energy per Si atom -5568.800966 kJ/mol
# Density = 1.809296 g / cm^3
# Si number density = 18.134232 Si / 1000 Ang^3
#
#
#
# Elastic Constant Matrix: (Units=GPa)
#
#
# Indices 1 2 3 4 5 6 
#
# 1 54.0996 26.5783 25.6026 0.0000 0.0000 0.0000
# 2 26.5783 125.7991 14.2006 0.0000 0.0000 0.0000
# 3 25.6026 14.2006 64.3794 0.0000 0.0000 0.0000
# 4 0.0000 0.0000 0.0000 28.9320 0.0000 0.0000
# 5 0.0000 0.0000 0.0000 0.0000 -0.2980 0.0000
# 6 0.0000 0.0000 0.0000 0.0000 0.0000 -23.8028
#
#
#
# Elastic Compliance Matrix: (Units=1/GPa)
#
#
# Indices 1 2 3 4 5 6 
#
# 1 0.024785 -0.004229 -0.008924 0.000000 0.000000 0.000000
# 2 -0.004229 0.008874 -0.000275 0.000000 0.000000 0.000000
# 3 -0.008924 -0.000275 0.019143 0.000000 0.000000 0.000000
# 4 0.000000 0.000000 0.000000 0.034564 0.000000 0.000000
# 5 0.000000 0.000000 0.000000 0.000000 -3.355711 0.000000
# 6 0.000000 0.000000 0.000000 0.000000 0.000000 -0.042012
#
#
# Mechanical properties :
#
#
# Convention : Reuss Voigt Hill
#
# Bulk Modulus (GPa) = 38.54355 41.89344 40.21850
# Shear Modulus (GPa) = -1.52679 12.82601 5.64961
#
# Velocity S-wave (km/s) = -0.91857 2.66236 1.76698
# Velocity P-wave (km/s) = 4.49174 5.70990 5.13705
#
# Compressibility (1/GPa) = 0.02594468
#
# Stress axis : x y z
#
# Youngs Moduli (GPa) = 40.34640 112.69124 52.23964
#
# Poissons Ratio (x) = 0.47659 0.46618
# Poissons Ratio (y) = 0.17063 0.01439
# Poissons Ratio (z) = 0.36005 0.03104
#
# Static dielectric constant tensor:
#      x y z
#    x 1.597640 0.000000 0.000000 
#    y 0.000000 1.676700 0.000000 
#    z 0.000000 0.000000 1.636200 
# 
# From -- ./inp_files/19896.got.cif
#   From: 2010.05.17/outbox.cif.g08.bks.cpg/sg67_10_cif.got.tgz:19896.got - 2010.06.03 18:28:57.
