data_PCOD9500394
_publ_section_title
;
Structure prediction by ZEFSAII (Michael W. Deem and Ramdas Pophale) SiO2 
 PCOD9500394
Probable space group: C M M A
;
_chemical_formula_sum "Si O2"
_cell_formula_units_Z 96
_cell_length_a 23.191749
_cell_length_b 13.728140
_cell_length_c 14.436792
_cell_angle_alpha 90.000000
_cell_angle_beta 90.000000
_cell_angle_gamma 90.000000
_cell_volume 4596.379732
_symmetry_space_group_name_H-M "C M M A"
_symmetry_group_IT_number 67
_symmetry_cell_setting 'orthorhombic'
loop_
_space_group_symop_operation_xyz
x,y,z
-x,1/2-y,z
x,-y,-z
-x,1/2+y,-z
-x,-y,-z
x,1/2+y,-z
-x,y,z
x,1/2-y,z
1/2+x,1/2+y,z
1/2-x,-y,z
1/2+x,1/2-y,-z
1/2-x,y,-z
1/2-x,1/2-y,-z
1/2+x,y,-z
1/2-x,1/2+y,z
1/2+x,-y,z
loop_
_atom_site_type_symbol
_atom_site_label
_atom_site_fract_x
_atom_site_fract_y
_atom_site_fract_z
Si Si1 0.161086 0.368796 0.960527
Si Si2 0.371993 0.641653 0.439077
Si Si3 0.279719 0.632508 0.141485
Si Si4 0.934489 0.632356 0.177278
Si Si5 0.626732 0.062453 0.362830
Si Si6 0.746327 0.863754 0.346889
O O1 0.160619 0.250000 0.961756
O O2 0.216738 0.395064 0.897790
O O3 0.102936 0.400105 0.910896
O O4 0.174088 0.401676 0.065348
O O5 0.388830 0.750000 0.407944
O O6 0.392472 0.548461 0.381562
O O7 0.388992 0.623797 0.545252
O O8 0.302336 0.635268 0.425850
O O9 0.282199 0.750000 0.138853
O O10 0.283725 0.607576 0.249080
O O11 0.935684 0.750000 0.176405
O O12 0.901209 0.601256 0.269803
O O13 0.000000 0.596607 0.176498
O O14 0.696217 0.074147 0.359404
O O15 0.765314 0.750000 0.337725
#
# Coordination Sequence:
#
# PCOD9500394 Si02
#       6
#    16  16  16  16  16  16
#     4   8  13  24  42  72 110 144 176 216 274 337
#     4  10  22  35  50  75 107 145 187 230 283 344
#     4   8  13  22  43  73 108 144 173 211 273 341
#     4  10  19  31  52  83 115 148 188 233 281 333
#     4  11  20  34  53  75 110 148 184 231 284 341
#     4  10  17  28  49  79 111 144 180 220 277 347
#
# _framework density 20.886002999999999
#
# number of rings (size 3 to 8) (size 9 to 14) (size 15 to 20)
#    0.000    2.500    1.667    3.500    0.000    2.667 
#    0.000    1.667    0.000    2.500    0.000    3.500 
#    0.000   10.667    0.000    0.000    0.000    0.000 
#
# Total GULP energy -268045.298882 kJ/mol
# GULP energy per Si atom -5584.277060 kJ/mol
# Density = 2.083847 g / cm^3
# Si number density = 20.886003 Si / 1000 Ang^3
#
#
#
# Elastic Constant Matrix: (Units=GPa)
#
#
# Indices 1 2 3 4 5 6 
#
# 1 59.0239 9.4437 26.0526 0.0000 0.0000 0.0000
# 2 9.4437 99.5246 24.4486 0.0000 0.0000 0.0000
# 3 26.0526 24.4486 87.6475 0.0000 0.0000 0.0000
# 4 0.0000 0.0000 0.0000 21.5932 0.0000 0.0000
# 5 0.0000 0.0000 0.0000 0.0000 12.9841 0.0000
# 6 0.0000 0.0000 0.0000 0.0000 0.0000 12.2955
#
#
#
# Elastic Compliance Matrix: (Units=1/GPa)
#
#
# Indices 1 2 3 4 5 6 
#
# 1 0.019520 -0.000458 -0.005674 0.000000 0.000000 0.000000
# 2 -0.000458 0.010798 -0.002876 0.000000 0.000000 0.000000
# 3 -0.005674 -0.002876 0.013898 0.000000 0.000000 0.000000
# 4 0.000000 0.000000 0.000000 0.046311 0.000000 0.000000
# 5 0.000000 0.000000 0.000000 0.000000 0.077017 0.000000
# 6 0.000000 0.000000 0.000000 0.000000 0.000000 0.081331
#
#
# Mechanical properties :
#
#
# Convention : Reuss Voigt Hill
#
# Bulk Modulus (GPa) = 38.16901 40.67620 39.42261
# Shear Modulus (GPa) = 18.14059 21.79129 19.96594
#
# Velocity S-wave (km/s) = 2.95032 3.23359 3.09520
# Velocity P-wave (km/s) = 5.46996 5.78438 5.62937
#
# Compressibility (1/GPa) = 0.02619926
#
# Stress axis : x y z
#
# Youngs Moduli (GPa) = 51.22888 92.61244 71.95182
#
# Poissons Ratio (x) = 0.04244 0.40829
# Poissons Ratio (y) = 0.02348 0.20691
# Poissons Ratio (z) = 0.29069 0.26633
#
# Static dielectric constant tensor:
#      x y z
#    x 1.705810 0.000000 0.000000 
#    y 0.000000 1.828370 0.000000 
#    z 0.000000 0.000000 1.742990 
# 
# From -- ./inp_files/29295.got.cif
#   From: 2010.05.17/outbox.cif.g08.bks.cpg/sg67_15_cif.got.tgz:29295.got - 2010.06.03 18:28:57.
