data_PCOD9500198
_publ_section_title
;
Structure prediction by ZEFSAII (Michael W. Deem and Ramdas Pophale) SiO2 
 PCOD9500198
Probable space group: C M M A
;
_chemical_formula_sum "Si O2"
_cell_formula_units_Z 120
_cell_length_a 13.756726
_cell_length_b 18.479994
_cell_length_c 19.720842
_cell_angle_alpha 90.000000
_cell_angle_beta 90.000000
_cell_angle_gamma 90.000000
_cell_volume 5013.515556
_symmetry_space_group_name_H-M "C M M A"
_symmetry_group_IT_number 67
_symmetry_cell_setting 'orthorhombic'
loop_
_space_group_symop_operation_xyz
x,y,z
-x,1/2-y,z
x,-y,-z
-x,1/2+y,-z
-x,-y,-z
x,1/2+y,-z
-x,y,z
x,1/2-y,z
1/2+x,1/2+y,z
1/2-x,-y,z
1/2+x,1/2-y,-z
1/2-x,y,-z
1/2-x,1/2-y,-z
1/2+x,y,-z
1/2-x,1/2+y,z
1/2+x,-y,z
loop_
_atom_site_type_symbol
_atom_site_label
_atom_site_fract_x
_atom_site_fract_y
_atom_site_fract_z
Si Si1 0.892431 0.955314 0.563110
Si Si2 0.387143 0.533550 0.290800
Si Si3 0.611231 0.366315 0.318906
Si Si4 0.820866 0.250000 0.779621
Si Si5 0.381521 0.626338 0.887769
Si Si6 0.858864 0.169041 0.527528
Si Si7 0.619237 0.540712 0.143146
Si Si8 0.618313 0.331658 0.958167
O O1 0.842298 0.948544 0.635964
O O2 0.905339 0.877230 0.531442
O O3 0.000000 0.988982 0.575630
O O4 0.849678 0.000000 0.500000
O O5 0.500000 0.558911 0.292942
O O6 0.385913 0.446616 0.289091
O O7 0.346265 0.559181 0.219352
O O8 0.500000 0.338940 0.307492
O O9 0.681745 0.312605 0.280590
O O10 0.629968 0.367910 0.399306
O O11 0.839643 0.185296 0.836221
O O12 0.500000 0.629962 0.880664
O O13 0.354173 0.541857 0.875845
O O14 0.356709 0.649306 0.964552
O O15 0.894842 0.250000 0.535617
O O16 0.750000 0.171769 0.500000
O O17 0.500000 0.540721 0.144250
O O18 0.649598 0.603735 0.091612
O O19 0.500000 0.330889 0.955054
O O20 0.650517 0.250000 0.939838
#
# Coordination Sequence:
#
# PCOD9500198 Si02
#       8
#    16  16  16   8  16  16  16  16
#     4  10  19  34  56  77  98 129 172 217 260 308
#     4   9  17  29  45  68  94 120 160 215 258 298
#     4  11  19  30  50  74 100 131 168 216 268 313
#     4  12  19  24  43  72  97 126 166 214 262 312
#     4  10  16  23  35  57  89 122 162 206 248 300
#     4  11  24  38  51  73 106 138 169 208 262 324
#     4   9  16  25  37  55  84 122 161 202 252 301
#     4   9  16  24  34  50  80 125 171 206 240 296
#
# _framework density 23.935300000000002
#
# number of rings (size 3 to 8) (size 9 to 14) (size 15 to 20)
#    0.000    2.000    4.000    2.000    0.000    2.667 
#    0.000    0.667    0.000    2.400    0.000    0.000 
#    0.000    0.000    0.000    2.400    3.467    2.133 
#
# Total GULP energy -334466.179013 kJ/mol
# GULP energy per Si atom -5574.436317 kJ/mol
# Density = 2.388082 g / cm^3
# Si number density = 23.935300 Si / 1000 Ang^3
#
#
#
# Elastic Constant Matrix: (Units=GPa)
#
#
# Indices 1 2 3 4 5 6 
#
# 1 76.3318 9.3360 3.7432 0.0000 0.0000 0.0000
# 2 9.3360 127.8341 71.7921 0.0000 0.0000 0.0000
# 3 3.7432 71.7921 185.9833 0.0000 0.0000 0.0000
# 4 0.0000 0.0000 0.0000 104.6618 0.0000 0.0000
# 5 0.0000 0.0000 0.0000 0.0000 5.6876 0.0000
# 6 0.0000 0.0000 0.0000 0.0000 0.0000 15.3204
#
#
#
# Elastic Compliance Matrix: (Units=1/GPa)
#
#
# Indices 1 2 3 4 5 6 
#
# 1 0.013221 -0.001042 0.000136 0.000000 0.000000 0.000000
# 2 -0.001042 0.010070 -0.003866 0.000000 0.000000 0.000000
# 3 0.000136 -0.003866 0.006866 0.000000 0.000000 0.000000
# 4 0.000000 0.000000 0.000000 0.009555 0.000000 0.000000
# 5 0.000000 0.000000 0.000000 0.000000 0.175821 0.000000
# 6 0.000000 0.000000 0.000000 0.000000 0.000000 0.065272
#
#
# Mechanical properties :
#
#
# Convention : Reuss Voigt Hill
#
# Bulk Modulus (GPa) = 48.51125 62.21021 55.36073
# Shear Modulus (GPa) = 16.82249 45.48582 31.15416
#
# Velocity S-wave (km/s) = 2.65397 4.36405 3.61168
# Velocity P-wave (km/s) = 5.45005 7.17221 6.36960
#
# Compressibility (1/GPa) = 0.02061377
#
# Stress axis : x y z
#
# Youngs Moduli (GPa) = 75.63456 99.30484 145.63483
#
# Poissons Ratio (x) = 0.10348 -0.01983
# Poissons Ratio (y) = 0.07881 0.56305
# Poissons Ratio (z) = -0.01030 0.38393
#
# Static dielectric constant tensor:
#      x y z
#    x 1.873100 0.000000 0.000000 
#    y 0.000000 1.886800 0.000000 
#    z 0.000000 0.000000 1.884730 
# 
# From -- ./inp_files/35174.got.cif
#   From: 2010.05.17/outbox.cif.g08.bks.cpg/sg67_18_cif.got.tgz:35174.got - 2010.06.03 18:28:57.
