data_PCOD9500861
_publ_section_title
;
Structure prediction by ZEFSAII (Michael W. Deem and Ramdas Pophale) SiO2 
 PCOD9500861
Probable space group: C M M A
;
_chemical_formula_sum "Si O2"
_cell_formula_units_Z 96
_cell_length_a 21.048884
_cell_length_b 18.464168
_cell_length_c 14.312264
_cell_angle_alpha 90.000000
_cell_angle_beta 90.000000
_cell_angle_gamma 90.000000
_cell_volume 5562.463270
_symmetry_space_group_name_H-M "C M M A"
_symmetry_group_IT_number 67
_symmetry_cell_setting 'orthorhombic'
loop_
_space_group_symop_operation_xyz
x,y,z
-x,1/2-y,z
x,-y,-z
-x,1/2+y,-z
-x,-y,-z
x,1/2+y,-z
-x,y,z
x,1/2-y,z
1/2+x,1/2+y,z
1/2-x,-y,z
1/2+x,1/2-y,-z
1/2-x,y,-z
1/2-x,1/2-y,-z
1/2+x,y,-z
1/2-x,1/2+y,z
1/2+x,-y,z
loop_
_atom_site_type_symbol
_atom_site_label
_atom_site_fract_x
_atom_site_fract_y
_atom_site_fract_z
Si Si1 0.072162 0.163308 0.540568
Si Si2 0.685811 0.420985 0.547468
Si Si3 0.734901 0.580825 0.244180
Si Si4 0.310979 0.662900 0.065928
Si Si5 0.132144 0.336776 0.740732
Si Si6 0.928412 0.838046 0.061502
O O1 0.074937 0.250000 0.528406
O O2 0.124419 0.125499 0.476663
O O3 0.091897 0.148123 0.647861
O O4 0.000000 0.139378 0.522872
O O5 0.678363 0.500000 0.500000
O O6 0.750000 0.389146 0.500000
O O7 0.698361 0.426183 0.657545
O O8 0.750000 0.500000 0.210316
O O9 0.697957 0.624317 0.164593
O O10 0.801014 0.622424 0.262567
O O11 0.312359 0.750000 0.078565
O O12 0.250000 0.647173 0.000000
O O13 0.374753 0.639538 0.012193
O O14 0.143611 0.250000 0.745105
O O15 0.094746 0.357902 0.834554
O O16 0.929448 0.750000 0.059449
O O17 0.000000 0.863548 0.042851
#
# Coordination Sequence:
#
# PCOD9500861 Si02
#       6
#    16  16  16  16  16  16
#     4  10  21  35  55  87 119 145 185 242 295 341
#     4  11  21  40  58  79 111 154 195 234 281 342
#     4  12  22  35  57  83 111 144 191 237 278 329
#     4  10  20  36  56  83 114 144 181 225 279 340
#     4  10  18  32  56  83 111 144 185 235 284 329
#     4   9  17  32  55  80 109 145 181 218 268 333
#
# _framework density 17.258541000000001
#
# number of rings (size 3 to 8) (size 9 to 14) (size 15 to 20)
#    0.000    1.667    5.000    1.000    0.000    4.333 
#    0.000    0.833    0.000    5.000    0.000    0.000 
#    0.000    0.000    0.000    0.000    0.000    0.000 
#
# Total GULP energy -267902.080986 kJ/mol
# GULP energy per Si atom -5581.293354 kJ/mol
# Density = 1.721926 g / cm^3
# Si number density = 17.258541 Si / 1000 Ang^3
#
#
#
# Elastic Constant Matrix: (Units=GPa)
#
#
# Indices 1 2 3 4 5 6 
#
# 1 156.6077 40.9788 59.6246 0.0000 0.0000 0.0000
# 2 40.9788 29.1430 32.6755 0.0000 0.0000 0.0000
# 3 59.6246 32.6755 111.1885 0.0000 0.0000 0.0000
# 4 0.0000 0.0000 0.0000 23.4935 0.0000 0.0000
# 5 0.0000 0.0000 0.0000 0.0000 20.0023 0.0000
# 6 0.0000 0.0000 0.0000 0.0000 0.0000 11.7174
#
#
#
# Elastic Compliance Matrix: (Units=1/GPa)
#
#
# Indices 1 2 3 4 5 6 
#
# 1 0.010365 -0.012443 -0.001902 0.000000 0.000000 0.000000
# 2 -0.012443 0.066112 -0.012756 0.000000 0.000000 0.000000
# 3 -0.001902 -0.012756 0.013762 0.000000 0.000000 0.000000
# 4 0.000000 0.000000 0.000000 0.042565 0.000000 0.000000
# 5 0.000000 0.000000 0.000000 0.000000 0.049994 0.000000
# 6 0.000000 0.000000 0.000000 0.000000 0.000000 0.085343
#
#
# Mechanical properties :
#
#
# Convention : Reuss Voigt Hill
#
# Bulk Modulus (GPa) = 27.74834 62.61076 45.17955
# Shear Modulus (GPa) = 14.95413 21.95332 18.45372
#
# Velocity S-wave (km/s) = 2.94679 3.57042 3.27349
# Velocity P-wave (km/s) = 5.26223 7.30439 6.36573
#
# Compressibility (1/GPa) = 0.03603820
#
# Stress axis : x y z
#
# Youngs Moduli (GPa) = 96.47657 15.12584 72.66202
#
# Poissons Ratio (x) = 0.18820 0.13819
# Poissons Ratio (y) = 1.20041 0.92691
# Poissons Ratio (z) = 0.18348 0.19295
#
# Static dielectric constant tensor:
#      x y z
#    x 1.580020 0.000000 0.000000 
#    y 0.000000 1.582930 0.000000 
#    z 0.000000 0.000000 1.572870 
# 
# From -- ./inp_files/20841.got.cif
#   From: 2010.05.17/outbox.cif.g08.bks.cpg/sg67_11_cif.got.tgz:20841.got - 2010.06.03 18:28:57.
