data_PCOD9500031
_publ_section_title
;
Structure prediction by ZEFSAII (Michael W. Deem and Ramdas Pophale) SiO2 
 PCOD9500031
Probable space group: C C C M
;
_chemical_formula_sum "Si O2"
_cell_formula_units_Z 96
_cell_length_a 24.158707
_cell_length_b 9.883495
_cell_length_c 14.219385
_cell_angle_alpha 90.000000
_cell_angle_beta 90.000000
_cell_angle_gamma 90.000000
_cell_volume 3395.197534
_symmetry_space_group_name_H-M "C C C M"
_symmetry_group_IT_number 66
_symmetry_cell_setting 'orthorhombic'
loop_
_space_group_symop_operation_xyz
x,y,z
-x,-y,z
x,-y,1/2-z
-x,y,1/2-z
-x,-y,-z
x,y,-z
-x,y,1/2+z
x,-y,1/2+z
1/2+x,1/2+y,z
1/2-x,1/2-y,z
1/2+x,1/2-y,1/2-z
1/2-x,1/2+y,1/2-z
1/2-x,1/2-y,-z
1/2+x,1/2+y,-z
1/2-x,1/2+y,1/2+z
1/2+x,1/2-y,1/2+z
loop_
_atom_site_type_symbol
_atom_site_label
_atom_site_fract_x
_atom_site_fract_y
_atom_site_fract_z
Si Si1 0.952357 0.184588 0.608346
Si Si2 0.076320 0.201559 0.605213
Si Si3 0.664622 0.359317 0.615600
Si Si4 0.312088 0.779513 0.885031
Si Si5 0.065811 0.492185 0.144831
Si Si6 0.215868 0.572612 0.613820
O O1 0.960410 0.147965 0.500000
O O2 0.898281 0.107569 0.647087
O O3 0.929125 0.339672 0.607375
O O4 0.015339 0.171862 0.648064
O O5 0.078417 0.143122 0.500000
O O6 0.137152 0.187792 0.650680
O O7 0.077508 0.365930 0.595266
O O8 0.661573 0.361109 0.500000
O O9 0.719730 0.442802 0.640776
O O10 0.686050 0.209213 0.645938
O O11 0.250000 0.750000 0.853015
O O12 0.317214 0.938536 0.862439
O O13 0.312090 0.764181 0.000000
O O14 0.087274 0.500000 0.250000
O O15 0.000000 0.500000 0.150896
O O16 0.216104 0.581895 0.500000
#
# Coordination Sequence:
#
# PCOD9500031 Si02
#       6
#    16  16  16  16  16  16
#     4   9  15  23  37  57  82 107 131 164 205 246
#     4   9  16  25  38  57  79 104 135 168 202 242
#     4   8  13  21  35  55  78 103 128 160 199 237
#     4   9  16  25  38  57  79 104 137 173 204 239
#     4   9  16  24  35  56  84 109 131 158 199 248
#     4   8  13  21  33  52  78 104 132 163 196 235
#
# _framework density 28.275231999999999
#
# number of rings (size 3 to 8) (size 9 to 14) (size 15 to 20)
#    0.000    3.333    0.000    2.500    0.000    4.667 
#    0.000    0.000    0.000    1.000    8.667    7.000 
#    0.000    0.000    0.000    8.333    0.000    8.833 
#
# Total GULP energy -267916.073327 kJ/mol
# GULP energy per Si atom -5581.584861 kJ/mol
# Density = 2.821088 g / cm^3
# Si number density = 28.275232 Si / 1000 Ang^3
#
#
#
# Elastic Constant Matrix: (Units=GPa)
#
#
# Indices 1 2 3 4 5 6 
#
# 1 329.4900 28.5075 23.9490 0.0000 0.0000 0.0000
# 2 28.5075 97.0173 12.7443 0.0000 0.0000 0.0000
# 3 23.9490 12.7443 89.2833 0.0000 0.0000 0.0000
# 4 0.0000 0.0000 0.0000 9.8023 0.0000 0.0000
# 5 0.0000 0.0000 0.0000 0.0000 7.0788 0.0000
# 6 0.0000 0.0000 0.0000 0.0000 0.0000 44.5335
#
#
#
# Elastic Compliance Matrix: (Units=1/GPa)
#
#
# Indices 1 2 3 4 5 6 
#
# 1 0.003160 -0.000833 -0.000729 0.000000 0.000000 0.000000
# 2 -0.000833 0.010724 -0.001307 0.000000 0.000000 0.000000
# 3 -0.000729 -0.001307 0.011582 0.000000 0.000000 0.000000
# 4 0.000000 0.000000 0.000000 0.102017 0.000000 0.000000
# 5 0.000000 0.000000 0.000000 0.000000 0.141267 0.000000
# 6 0.000000 0.000000 0.000000 0.000000 0.000000 0.022455
#
#
# Mechanical properties :
#
#
# Convention : Reuss Voigt Hill
#
# Bulk Modulus (GPa) = 50.68813 71.79912 61.24363
# Shear Modulus (GPa) = 16.47343 42.32224 29.39783
#
# Velocity S-wave (km/s) = 2.41635 3.87304 3.22794
# Velocity P-wave (km/s) = 5.07451 6.74156 5.96654
#
# Compressibility (1/GPa) = 0.01972849
#
# Stress axis : x y z
#
# Youngs Moduli (GPa) = 316.45392 93.24975 86.33799
#
# Poissons Ratio (x) = 0.07766 0.06292
# Poissons Ratio (y) = 0.26354 0.11287
# Poissons Ratio (z) = 0.23062 0.12191
#
# Static dielectric constant tensor:
#      x y z
#    x 2.257050 0.000000 0.000000 
#    y 0.000000 2.417640 0.000000 
#    z 0.000000 0.000000 2.151160 
# 
# From -- ./inp_files/53110.got.cif
#   From: 2010.05.17/outbox.cif.g08.bks.cpg/sg66_27_cif.got.tgz:53110.got - 2010.06.03 17:51:23.
