data_PCOD9500487
_publ_section_title
;
Structure prediction by ZEFSAII (Michael W. Deem and Ramdas Pophale) SiO2 
 PCOD9500487
Probable space group: C M M A
;
_chemical_formula_sum "Si O2"
_cell_formula_units_Z 104
_cell_length_a 27.894810
_cell_length_b 8.596030
_cell_length_c 24.592731
_cell_angle_alpha 90.000000
_cell_angle_beta 90.000000
_cell_angle_gamma 90.000000
_cell_volume 5896.958746
_symmetry_space_group_name_H-M "C M M A"
_symmetry_group_IT_number 67
_symmetry_cell_setting 'orthorhombic'
loop_
_space_group_symop_operation_xyz
x,y,z
-x,1/2-y,z
x,-y,-z
-x,1/2+y,-z
-x,-y,-z
x,1/2+y,-z
-x,y,z
x,1/2-y,z
1/2+x,1/2+y,z
1/2-x,-y,z
1/2+x,1/2-y,-z
1/2-x,y,-z
1/2-x,1/2-y,-z
1/2+x,y,-z
1/2-x,1/2+y,z
1/2+x,-y,z
loop_
_atom_site_type_symbol
_atom_site_label
_atom_site_fract_x
_atom_site_fract_y
_atom_site_fract_z
Si Si1 0.897935 0.437524 0.061075
Si Si2 0.554433 0.564573 0.773671
Si Si3 0.853766 0.565079 0.832659
Si Si4 0.392678 0.565940 0.663447
Si Si5 0.801841 0.436731 0.272890
Si Si6 0.500000 0.563723 0.938375
Si Si7 0.444603 0.563851 0.440791
O O1 0.900165 0.250000 0.058886
O O2 0.858134 0.489764 0.105040
O O3 0.949428 0.500078 0.082631
O O4 0.890424 0.500000 0.000000
O O5 0.500000 0.518850 0.785849
O O6 0.559396 0.750000 0.785015
O O7 0.594800 0.472368 0.805984
O O8 0.567088 0.541117 0.710166
O O9 0.847090 0.750000 0.835341
O O10 0.816011 0.504284 0.788181
O O11 0.385623 0.750000 0.657948
O O12 0.343983 0.492408 0.687116
O O13 0.411045 0.496426 0.607225
O O14 0.801313 0.250000 0.272379
O O15 0.750000 0.500000 0.288238
O O16 0.500000 0.750000 0.936554
O O17 0.500000 0.500000 0.000000
O O18 0.430666 0.500000 0.500000
O O19 0.500000 0.513459 0.430839
O O20 0.443607 0.750000 0.441919
#
# Coordination Sequence:
#
# PCOD9500487 Si02
#       7
#    16  16  16  16  16   8  16
#     4  10  19  32  47  66  93 127 165 204 246 295
#     4   9  18  30  45  69 100 132 166 205 248 296
#     4   9  20  34  49  70  97 127 162 204 251 305
#     4  10  19  33  53  77 106 139 175 216 261 308
#     4  10  20  37  58  80 102 128 165 212 266 319
#     4  10  18  28  42  62  88 124 164 200 233 278
#     4  10  20  33  51  78 113 153 192 225 257 296
#
# _framework density 17.636209999999998
#
# number of rings (size 3 to 8) (size 9 to 14) (size 15 to 20)
#    0.000    2.308    0.000    3.923    1.077    4.308 
#    0.000    0.000    0.000    0.923    0.000    6.462 
#    0.000    0.000    0.000    0.000    0.000    0.000 
#
# Total GULP energy -289971.492211 kJ/mol
# GULP energy per Si atom -5576.374850 kJ/mol
# Density = 1.759607 g / cm^3
# Si number density = 17.636210 Si / 1000 Ang^3
#
#
#
# Elastic Constant Matrix: (Units=GPa)
#
#
# Indices 1 2 3 4 5 6 
#
# 1 59.6181 9.4085 28.1910 0.0000 0.0000 0.0000
# 2 9.4085 46.4071 26.8696 0.0000 0.0000 0.0000
# 3 28.1910 26.8696 111.3249 0.0000 0.0000 0.0000
# 4 0.0000 0.0000 0.0000 23.1842 0.0000 0.0000
# 5 0.0000 0.0000 0.0000 0.0000 19.2275 0.0000
# 6 0.0000 0.0000 0.0000 0.0000 0.0000 20.8701
#
#
#
# Elastic Compliance Matrix: (Units=1/GPa)
#
#
# Indices 1 2 3 4 5 6 
#
# 1 0.019117 -0.001247 -0.004540 0.000000 0.000000 0.000000
# 2 -0.001247 0.025130 -0.005750 0.000000 0.000000 0.000000
# 3 -0.004540 -0.005750 0.011520 0.000000 0.000000 0.000000
# 4 0.000000 0.000000 0.000000 0.043133 0.000000 0.000000
# 5 0.000000 0.000000 0.000000 0.000000 0.052009 0.000000
# 6 0.000000 0.000000 0.000000 0.000000 0.000000 0.047915
#
#
# Mechanical properties :
#
#
# Convention : Reuss Voigt Hill
#
# Bulk Modulus (GPa) = 30.58679 38.47649 34.53164
# Shear Modulus (GPa) = 21.47800 22.84842 22.16321
#
# Velocity S-wave (km/s) = 3.49354 3.60327 3.54883
# Velocity P-wave (km/s) = 5.80120 6.25903 6.03446
#
# Compressibility (1/GPa) = 0.03269385
#
# Stress axis : x y z
#
# Youngs Moduli (GPa) = 52.30934 39.79255 86.80437
#
# Poissons Ratio (x) = 0.04963 0.39410
# Poissons Ratio (y) = 0.06523 0.49910
# Poissons Ratio (z) = 0.23749 0.22880
#
# Static dielectric constant tensor:
#      x y z
#    x 1.590500 0.000000 0.000000 
#    y 0.000000 1.599290 0.000000 
#    z 0.000000 0.000000 1.619020 
# 
# From -- ./inp_files/42756.got.cif
#   From: 2010.05.17/outbox.cif.g08.bks.cpg/sg67_22_cif.got.tgz:42756.got - 2010.06.03 18:28:57.
