data_PCOD9500002
_publ_section_title
;
Structure prediction by ZEFSAII (Michael W. Deem and Ramdas Pophale) SiO2 
 PCOD9500002
Probable space group: C C C M
;
_chemical_formula_sum "Si O2"
_cell_formula_units_Z 72
_cell_length_a 12.751256
_cell_length_b 9.225635
_cell_length_c 28.104260
_cell_angle_alpha 90.000000
_cell_angle_beta 90.000000
_cell_angle_gamma 90.000000
_cell_volume 3306.141125
_symmetry_space_group_name_H-M "C C C M"
_symmetry_group_IT_number 66
_symmetry_cell_setting 'orthorhombic'
loop_
_space_group_symop_operation_xyz
x,y,z
-x,-y,z
x,-y,1/2-z
-x,y,1/2-z
-x,-y,-z
x,y,-z
-x,y,1/2+z
x,-y,1/2+z
1/2+x,1/2+y,z
1/2-x,1/2-y,z
1/2+x,1/2-y,1/2-z
1/2-x,1/2+y,1/2-z
1/2-x,1/2-y,-z
1/2+x,1/2+y,-z
1/2-x,1/2+y,1/2+z
1/2+x,1/2-y,1/2+z
loop_
_atom_site_type_symbol
_atom_site_label
_atom_site_fract_x
_atom_site_fract_y
_atom_site_fract_z
Si Si1 0.677869 0.028367 0.000000
Si Si2 0.525864 0.759744 0.000000
Si Si3 0.221326 0.916068 0.204484
Si Si4 0.977868 0.253059 0.397215
Si Si5 0.000000 0.000000 0.824936
Si Si6 0.673278 0.032642 0.895529
O O1 0.578603 0.138941 0.000000
O O2 0.728845 0.046338 0.052334
O O3 0.624330 0.870181 0.000000
O O4 0.527391 0.682762 0.050369
O O5 0.250000 0.750000 0.209868
O O6 0.097315 0.938915 0.203798
O O7 0.259550 0.964666 0.152140
O O8 0.267222 0.000000 0.250000
O O9 0.893405 0.383457 0.395673
O O10 0.962354 0.133028 0.357816
O O11 0.089746 0.335057 0.391942
#
# Coordination Sequence:
#
# PCOD9500002 Si02
#       6
#     8   8  16  16   8  16
#     4   7  12  28  63  95 125 174 214 269 308 406
#     4   7  12  27  54  93 137 170 215 256 329 383
#     4  12  28  49  69  96 131 176 221 281 338 399
#     4   9  18  35  64  99 133 177 215 275 321 405
#     4  12  25  43  66  96 136 163 224 282 337 384
#     4   9  18  40  67  96 133 174 227 258 338 398
#
# _framework density 21.777656
#
# number of rings (size 3 to 8) (size 9 to 14) (size 15 to 20)
#    0.000    2.444    2.222    3.000    3.111    0.444 
#    0.000    5.000    0.000    4.000    0.000    0.000 
#    0.000    0.000    0.000    0.000    0.000    0.000 
#
# Total GULP energy -200935.501988 kJ/mol
# GULP energy per Si atom -5581.541722 kJ/mol
# Density = 2.172809 g / cm^3
# Si number density = 21.777656 Si / 1000 Ang^3
#
#
#
# Elastic Constant Matrix: (Units=GPa)
#
#
# Indices 1 2 3 4 5 6 
#
# 1 65.5374 24.9865 48.8799 0.0000 0.0000 0.0000
# 2 24.9865 83.0700 46.6033 0.0000 0.0000 0.0000
# 3 48.8799 46.6033 182.3732 0.0000 0.0000 0.0000
# 4 0.0000 0.0000 0.0000 -25.0850 0.0000 0.0000
# 5 0.0000 0.0000 0.0000 0.0000 200.4727 0.0000
# 6 0.0000 0.0000 0.0000 0.0000 0.0000 14.6925
#
#
#
# Elastic Compliance Matrix: (Units=1/GPa)
#
#
# Indices 1 2 3 4 5 6 
#
# 1 0.019904 -0.003495 -0.004441 0.000000 0.000000 0.000000
# 2 -0.003495 0.014666 -0.002811 0.000000 0.000000 0.000000
# 3 -0.004441 -0.002811 0.007392 0.000000 0.000000 0.000000
# 4 0.000000 0.000000 0.000000 -0.039865 0.000000 0.000000
# 5 0.000000 0.000000 0.000000 0.000000 0.004988 0.000000
# 6 0.000000 0.000000 0.000000 0.000000 0.000000 0.068062
#
#
# Mechanical properties :
#
#
# Convention : Reuss Voigt Hill
#
# Bulk Modulus (GPa) = 48.85969 63.54666 56.20318
# Shear Modulus (GPa) = 48.32555 52.05011 50.18783
#
# Velocity S-wave (km/s) = 4.71578 4.89414 4.80579
# Velocity P-wave (km/s) = 7.22052 7.82176 7.52714
#
# Compressibility (1/GPa) = 0.02046677
#
# Stress axis : x y z
#
# Youngs Moduli (GPa) = 50.24222 68.18328 135.28137
#
# Poissons Ratio (x) = 0.23830 0.60085
# Poissons Ratio (y) = 0.17560 0.38028
# Poissons Ratio (z) = 0.22315 0.19167
#
# Static dielectric constant tensor:
#      x y z
#    x 1.804510 0.000000 0.000000 
#    y 0.000000 1.569410 0.000000 
#    z 0.000000 0.000000 1.835880 
# 
# From -- ./inp_files/64377.got.cif
#   From: 2010.05.17/outbox.cif.g08.bks.cpg/sg66_33_cif.got.tgz:64377.got - 2010.06.03 17:51:23.
