data_PCOD9500486
_publ_section_title
;
Structure prediction by ZEFSAII (Michael W. Deem and Ramdas Pophale) SiO2 
 PCOD9500486
Probable space group: C M M A
;
_chemical_formula_sum "Si O2"
_cell_formula_units_Z 104
_cell_length_a 27.989579
_cell_length_b 8.430667
_cell_length_c 24.764549
_cell_angle_alpha 90.000000
_cell_angle_beta 90.000000
_cell_angle_gamma 90.000000
_cell_volume 5843.710935
_symmetry_space_group_name_H-M "C M M A"
_symmetry_group_IT_number 67
_symmetry_cell_setting 'orthorhombic'
loop_
_space_group_symop_operation_xyz
x,y,z
-x,1/2-y,z
x,-y,-z
-x,1/2+y,-z
-x,-y,-z
x,1/2+y,-z
-x,y,z
x,1/2-y,z
1/2+x,1/2+y,z
1/2-x,-y,z
1/2+x,1/2-y,-z
1/2-x,y,-z
1/2-x,1/2-y,-z
1/2+x,y,-z
1/2-x,1/2+y,z
1/2+x,-y,z
loop_
_atom_site_type_symbol
_atom_site_label
_atom_site_fract_x
_atom_site_fract_y
_atom_site_fract_z
Si Si1 0.198063 0.939395 0.729161
Si Si2 0.646759 0.937928 0.166215
Si Si3 0.445803 0.060151 0.224977
Si Si4 0.893125 0.060536 0.666012
Si Si5 0.102705 0.940539 0.938829
Si Si6 0.000000 0.939109 0.061630
Si Si7 0.555294 0.441735 0.441021
O O1 0.198834 0.750000 0.731693
O O2 0.183488 0.003384 0.789179
O O3 0.250000 0.000000 0.713462
O O4 0.155926 0.989154 0.688607
O O5 0.655193 0.750000 0.162446
O O6 0.641809 0.997909 0.104842
O O7 0.594997 0.968940 0.192771
O O8 0.500000 0.013697 0.212382
O O9 0.441127 0.250000 0.214623
O O10 0.433346 0.033942 0.288033
O O11 0.886375 0.250000 0.662580
O O12 0.911926 0.001865 0.608383
O O13 0.101916 0.750000 0.940232
O O14 0.050664 0.998137 0.917787
O O15 0.109753 0.000000 0.000000
O O16 0.000000 0.750000 0.064184
O O17 0.000000 0.000000 0.000000
O O18 0.570661 0.500000 0.500000
O O19 0.500000 0.492289 0.432951
O O20 0.555713 0.250000 0.440518
#
# Coordination Sequence:
#
# PCOD9500486 Si02
#       7
#    16  16  16  16  16   8  16
#     4  10  20  36  56  77  97 121 156 201 253 305
#     4   9  20  34  48  68  95 124 155 193 241 293
#     4   9  17  28  44  68  96 126 161 199 236 280
#     4   9  17  31  50  72 100 133 167 203 245 289
#     4  10  19  32  47  65  91 125 160 196 235 280
#     4  10  18  28  42  62  88 122 162 196 225 266
#     4   9  17  29  47  73 107 146 181 209 238 276
#
# _framework density 17.796911000000001
#
# number of rings (size 3 to 8) (size 9 to 14) (size 15 to 20)
#    0.000    2.615    0.000    3.000    1.077    4.615 
#    0.000    0.000    0.000    3.692    0.000    6.462 
#    0.000    0.000    0.000    0.000    0.000    0.000 
#
# Total GULP energy -289795.720309 kJ/mol
# GULP energy per Si atom -5572.994621 kJ/mol
# Density = 1.775640 g / cm^3
# Si number density = 17.796911 Si / 1000 Ang^3
#
#
#
# Elastic Constant Matrix: (Units=GPa)
#
#
# Indices 1 2 3 4 5 6 
#
# 1 58.9996 3.4282 26.3844 0.0000 0.0000 0.0000
# 2 3.4282 22.6273 15.3439 0.0000 0.0000 0.0000
# 3 26.3844 15.3439 110.4783 0.0000 0.0000 0.0000
# 4 0.0000 0.0000 0.0000 21.2627 0.0000 0.0000
# 5 0.0000 0.0000 0.0000 0.0000 17.5893 0.0000
# 6 0.0000 0.0000 0.0000 0.0000 0.0000 15.6871
#
#
#
# Elastic Compliance Matrix: (Units=1/GPa)
#
#
# Indices 1 2 3 4 5 6 
#
# 1 0.018977 0.000219 -0.004562 0.000000 0.000000 0.000000
# 2 0.000219 0.048792 -0.006829 0.000000 0.000000 0.000000
# 3 -0.004562 -0.006829 0.011090 0.000000 0.000000 0.000000
# 4 0.000000 0.000000 0.000000 0.047031 0.000000 0.000000
# 5 0.000000 0.000000 0.000000 0.000000 0.056853 0.000000
# 6 0.000000 0.000000 0.000000 0.000000 0.000000 0.063747
#
#
# Mechanical properties :
#
#
# Convention : Reuss Voigt Hill
#
# Bulk Modulus (GPa) = 17.69490 31.37980 24.53735
# Shear Modulus (GPa) = 17.38095 20.70441 19.04268
#
# Velocity S-wave (km/s) = 3.12849 3.41452 3.27463
# Velocity P-wave (km/s) = 4.79732 5.76331 5.30236
#
# Compressibility (1/GPa) = 0.05651345
#
# Stress axis : x y z
#
# Youngs Moduli (GPa) = 52.69582 20.49515 90.17483
#
# Poissons Ratio (x) = -0.00448 0.41141
# Poissons Ratio (y) = -0.01152 0.61578
# Poissons Ratio (z) = 0.24042 0.13996
#
# Static dielectric constant tensor:
#      x y z
#    x 1.598890 0.000000 0.000000 
#    y 0.000000 1.648280 0.000000 
#    z 0.000000 0.000000 1.645200 
# 
# From -- ./inp_files/42928.got.cif
#   From: 2010.05.17/outbox.cif.g08.bks.cpg/sg67_22_cif.got.tgz:42928.got - 2010.06.03 18:28:57.
