data_PCOD9500359
_publ_section_title
;
Structure prediction by ZEFSAII (Michael W. Deem and Ramdas Pophale) SiO2 
 PCOD9500359
Probable space group: C M M A
;
_chemical_formula_sum "Si O2"
_cell_formula_units_Z 64
_cell_length_a 8.694441
_cell_length_b 15.362682
_cell_length_c 22.120313
_cell_angle_alpha 90.000000
_cell_angle_beta 90.000000
_cell_angle_gamma 90.000000
_cell_volume 2954.608709
_symmetry_space_group_name_H-M "C M M A"
_symmetry_group_IT_number 67
_symmetry_cell_setting 'orthorhombic'
loop_
_space_group_symop_operation_xyz
x,y,z
-x,1/2-y,z
x,-y,-z
-x,1/2+y,-z
-x,-y,-z
x,1/2+y,-z
-x,y,z
x,1/2-y,z
1/2+x,1/2+y,z
1/2-x,-y,z
1/2+x,1/2-y,-z
1/2-x,y,-z
1/2-x,1/2-y,-z
1/2+x,y,-z
1/2-x,1/2+y,z
1/2+x,-y,z
loop_
_atom_site_type_symbol
_atom_site_label
_atom_site_fract_x
_atom_site_fract_y
_atom_site_fract_z
Si Si1 0.826187 0.353476 0.807531
Si Si2 0.181314 0.403310 0.316124
Si Si3 0.683584 0.900736 0.561791
Si Si4 0.314616 0.647783 0.937978
O O1 0.840562 0.250000 0.816345
O O2 0.722824 0.365521 0.749004
O O3 0.767106 0.388667 0.872208
O O4 0.000000 0.387854 0.795692
O O5 0.250000 0.500000 0.313044
O O6 0.260254 0.360398 0.374939
O O7 0.000000 0.404983 0.326094
O O8 0.500000 0.903439 0.559458
O O9 0.750000 0.860891 0.500000
O O10 0.750000 0.000000 0.562815
O O11 0.500000 0.644752 0.939199
O O12 0.266626 0.750000 0.938466
O O13 0.250000 0.608589 0.000000
#
# Coordination Sequence:
#
# PCOD9500359 Si02
#       4
#    16  16  16  16
#     4   9  18  33  51  72 100 132 163 198 243 291
#     4  11  21  33  50  73 100 130 165 202 243 289
#     4  10  17  28  46  69  96 124 158 199 242 284
#     4   8  14  25  43  67  94 123 156 195 237 281
#
# _framework density 21.661072999999998
#
# number of rings (size 3 to 8) (size 9 to 14) (size 15 to 20)
#    0.000    2.500    0.000    8.250    0.000    1.500 
#    0.000    2.500    0.000    1.500    0.000    5.250 
#    0.000    0.000    0.000    0.000    0.000    0.000 
#
# Total GULP energy -178421.733688 kJ/mol
# GULP energy per Si atom -5575.679178 kJ/mol
# Density = 2.161177 g / cm^3
# Si number density = 21.661073 Si / 1000 Ang^3
#
#
#
# Elastic Constant Matrix: (Units=GPa)
#
#
# Indices 1 2 3 4 5 6 
#
# 1 142.2732 2.5165 79.7947 0.0000 0.0000 0.0000
# 2 2.5165 28.7920 15.6563 0.0000 0.0000 0.0000
# 3 79.7947 15.6563 236.0609 0.0000 0.0000 0.0000
# 4 0.0000 0.0000 0.0000 16.3775 0.0000 0.0000
# 5 0.0000 0.0000 0.0000 0.0000 146.7202 0.0000
# 6 0.0000 0.0000 0.0000 0.0000 0.0000 7.2954
#
#
#
# Elastic Compliance Matrix: (Units=1/GPa)
#
#
# Indices 1 2 3 4 5 6 
#
# 1 0.008694 0.000870 -0.002996 0.000000 0.000000 0.000000
# 2 0.000870 0.036118 -0.002689 0.000000 0.000000 0.000000
# 3 -0.002996 -0.002689 0.005427 0.000000 0.000000 0.000000
# 4 0.000000 0.000000 0.000000 0.061059 0.000000 0.000000
# 5 0.000000 0.000000 0.000000 0.000000 0.006816 0.000000
# 6 0.000000 0.000000 0.000000 0.000000 0.000000 0.137074
#
#
# Mechanical properties :
#
#
# Convention : Reuss Voigt Hill
#
# Bulk Modulus (GPa) = 24.62630 67.00681 45.81655
# Shear Modulus (GPa) = 17.96257 54.68919 36.32588
#
# Velocity S-wave (km/s) = 2.88280 5.03016 4.09958
# Velocity P-wave (km/s) = 4.74071 8.04599 6.60350
#
# Compressibility (1/GPa) = 0.04060700
#
# Stress axis : x y z
#
# Youngs Moduli (GPa) = 115.02290 27.68680 184.24897
#
# Poissons Ratio (x) = -0.02407 0.55209
# Poissons Ratio (y) = -0.10001 0.49552
# Poissons Ratio (z) = 0.34466 0.07446
#
# Static dielectric constant tensor:
#      x y z
#    x 1.710120 0.000000 0.000000 
#    y 0.000000 1.851270 0.000000 
#    z 0.000000 0.000000 1.908680 
# 
# From -- ./inp_files/31743.got.cif
#   From: 2010.05.17/outbox.cif.g08.bks.cpg/sg67_16_cif.got.tgz:31743.got - 2010.06.03 18:28:57.
