data_PCOD9500903
_publ_section_title
;
Structure prediction by ZEFSAII (Michael W. Deem and Ramdas Pophale) SiO2 
 PCOD9500903
Probable space group: C M M A
;
_chemical_formula_sum "Si O2"
_cell_formula_units_Z 96
_cell_length_a 9.023731
_cell_length_b 23.973300
_cell_length_c 26.186719
_cell_angle_alpha 90.000000
_cell_angle_beta 90.000000
_cell_angle_gamma 90.000000
_cell_volume 5664.936532
_symmetry_space_group_name_H-M "C M M A"
_symmetry_group_IT_number 67
_symmetry_cell_setting 'orthorhombic'
loop_
_space_group_symop_operation_xyz
x,y,z
-x,1/2-y,z
x,-y,-z
-x,1/2+y,-z
-x,-y,-z
x,1/2+y,-z
-x,y,z
x,1/2-y,z
1/2+x,1/2+y,z
1/2-x,-y,z
1/2+x,1/2-y,-z
1/2-x,y,-z
1/2-x,1/2-y,-z
1/2+x,y,-z
1/2-x,1/2+y,z
1/2+x,-y,z
loop_
_atom_site_type_symbol
_atom_site_label
_atom_site_fract_x
_atom_site_fract_y
_atom_site_fract_z
Si Si1 0.176882 0.184503 0.657925
Si Si2 0.174463 0.750000 0.076528
Si Si3 0.178657 0.439620 0.151658
Si Si4 0.166268 0.750000 0.820689
Si Si5 0.670377 0.182161 0.551777
Si Si6 0.172449 0.137071 0.244621
Si Si7 0.177902 0.632713 0.948948
O O1 0.219652 0.250000 0.666942
O O2 0.245772 0.166969 0.603753
O O3 0.236495 0.147141 0.704111
O O4 0.000000 0.182468 0.655286
O O5 0.208025 0.750000 0.136946
O O6 0.252851 0.694202 0.056631
O O7 0.000000 0.750000 0.065054
O O8 0.250000 0.500000 0.146947
O O9 0.225587 0.409213 0.204231
O O10 0.214963 0.401647 0.102353
O O11 0.000000 0.443669 0.153055
O O12 0.176482 0.804814 0.786498
O O13 0.000000 0.750000 0.845214
O O14 0.500000 0.164121 0.553160
O O15 0.671481 0.250000 0.550305
O O16 0.750000 0.162911 0.500000
O O17 0.000000 0.126069 0.257350
O O18 0.000000 0.635716 0.953533
O O19 0.250000 0.607172 0.000000
#
# Coordination Sequence:
#
# PCOD9500903 Si02
#       7
#    16   8  16   8  16  16  16
#     4  10  19  28  42  70 103 134 171 215 257 304
#     4  12  23  35  56  86 113 139 169 207 254 307
#     4  10  23  41  60  78 102 135 173 215 262 312
#     4  10  18  33  55  76 105 137 169 209 258 317
#     4   9  16  26  40  59  90 135 179 216 253 299
#     4  10  19  34  54  75 100 135 170 209 260 312
#     4  11  23  41  60  82 109 139 171 209 256 310
#
# _framework density 16.946351
#
# number of rings (size 3 to 8) (size 9 to 14) (size 15 to 20)
#    0.000    1.833    2.500    2.500    0.000    5.667 
#    0.000    1.667    0.000    0.000    0.000    0.000 
#    0.000    0.667    0.000    7.000    0.000    4.167 
#
# Total GULP energy -267880.192916 kJ/mol
# GULP energy per Si atom -5580.837352 kJ/mol
# Density = 1.690778 g / cm^3
# Si number density = 16.946351 Si / 1000 Ang^3
#
#
#
# Elastic Constant Matrix: (Units=GPa)
#
#
# Indices 1 2 3 4 5 6 
#
# 1 78.6722 33.2425 71.2102 0.0000 0.0000 0.0000
# 2 33.2425 78.8784 48.6568 0.0000 0.0000 0.0000
# 3 71.2102 48.6568 162.4447 0.0000 0.0000 0.0000
# 4 0.0000 0.0000 0.0000 -28.6835 0.0000 0.0000
# 5 0.0000 0.0000 0.0000 0.0000 36.0596 0.0000
# 6 0.0000 0.0000 0.0000 0.0000 0.0000 21.2223
#
#
#
# Elastic Compliance Matrix: (Units=1/GPa)
#
#
# Indices 1 2 3 4 5 6 
#
# 1 0.022100 -0.004094 -0.008462 0.000000 0.000000 0.000000
# 2 -0.004094 0.016310 -0.003090 0.000000 0.000000 0.000000
# 3 -0.008462 -0.003090 0.010791 0.000000 0.000000 0.000000
# 4 0.000000 0.000000 0.000000 -0.034863 0.000000 0.000000
# 5 0.000000 0.000000 0.000000 0.000000 0.027732 0.000000
# 6 0.000000 0.000000 0.000000 0.000000 0.000000 0.047120
#
#
# Mechanical properties :
#
#
# Convention : Reuss Voigt Hill
#
# Bulk Modulus (GPa) = 55.84087 69.57936 62.71011
# Shear Modulus (GPa) = 39.54107 16.84539 28.19323
#
# Velocity S-wave (km/s) = 4.83567 3.15626 4.08324
# Velocity P-wave (km/s) = 8.01258 7.37770 7.70168
#
# Compressibility (1/GPa) = 0.01790803
#
# Stress axis : x y z
#
# Youngs Moduli (GPa) = 45.24911 61.31370 92.67114
#
# Poissons Ratio (x) = 0.25103 0.78414
# Poissons Ratio (y) = 0.18526 0.28639
# Poissons Ratio (z) = 0.38288 0.18949
#
# Static dielectric constant tensor:
#      x y z
#    x 1.572440 0.000000 0.000000 
#    y 0.000000 1.548280 0.000000 
#    z 0.000000 0.000000 1.585360 
# 
# From -- ./inp_files/40855.got.cif
#   From: 2010.05.17/outbox.cif.g08.bks.cpg/sg67_21_cif.got.tgz:40855.got - 2010.06.03 18:28:57.
