data_PCOD9500009
_publ_section_title
;
Structure prediction by ZEFSAII (Michael W. Deem and Ramdas Pophale) SiO2 
 PCOD9500009
Probable space group: C C C M
;
_chemical_formula_sum "Si O2"
_cell_formula_units_Z 44
_cell_length_a 13.471016
_cell_length_b 6.227173
_cell_length_c 24.814643
_cell_angle_alpha 90.000000
_cell_angle_beta 90.000000
_cell_angle_gamma 90.000000
_cell_volume 2081.609756
_symmetry_space_group_name_H-M "C C C M"
_symmetry_group_IT_number 66
_symmetry_cell_setting 'orthorhombic'
loop_
_space_group_symop_operation_xyz
x,y,z
-x,-y,z
x,-y,1/2-z
-x,y,1/2-z
-x,-y,-z
x,y,-z
-x,y,1/2+z
x,-y,1/2+z
1/2+x,1/2+y,z
1/2-x,1/2-y,z
1/2+x,1/2-y,1/2-z
1/2-x,1/2+y,1/2-z
1/2-x,1/2-y,-z
1/2+x,1/2+y,-z
1/2-x,1/2+y,1/2+z
1/2+x,1/2-y,1/2+z
loop_
_atom_site_type_symbol
_atom_site_label
_atom_site_fract_x
_atom_site_fract_y
_atom_site_fract_z
Si Si1 0.000000 0.000000 0.845252
Si Si2 0.140314 0.333414 0.403798
Si Si3 0.000000 0.500000 0.000000
Si Si4 0.357633 0.853236 0.699276
O O1 0.924234 0.133207 0.882318
O O2 0.062911 0.167335 0.810532
O O3 0.250000 0.250000 0.417808
O O4 0.082137 0.439835 0.452837
O O5 0.146995 0.501037 0.354327
O O6 0.250000 0.750000 0.708783
O O7 0.382516 0.000000 0.750000
#
# Coordination Sequence:
#
# PCOD9500009 Si02
#       4
#     8  16   4  16
#     4  12  26  50  78 106 154 205 241 314 390 452
#     4  12  26  50  76 113 156 198 263 315 376 460
#     4  12  26  50  76 118 152 208 266 318 382 442
#     4  12  27  50  77 114 154 198 253 315 390 471
#
# _framework density 21.137485999999999
#
# number of rings (size 3 to 8) (size 9 to 14) (size 15 to 20)
#    0.000    0.000    7.273    1.636    0.000    5.091 
#    0.000    2.727    0.000    0.000    0.000    0.000 
#    0.000    0.000    0.000    0.000    0.000    0.000 
#
# Total GULP energy -122840.017094 kJ/mol
# GULP energy per Si atom -5583.637141 kJ/mol
# Density = 2.108938 g / cm^3
# Si number density = 21.137486 Si / 1000 Ang^3
#
#
#
# Elastic Constant Matrix: (Units=GPa)
#
#
# Indices 1 2 3 4 5 6 
#
# 1 222.0713 70.3919 71.9703 0.0000 0.0000 0.0000
# 2 70.3919 78.7113 47.1828 0.0000 0.0000 0.0000
# 3 71.9703 47.1828 173.8282 0.0000 0.0000 0.0000
# 4 0.0000 0.0000 0.0000 -10.1169 0.0000 0.0000
# 5 0.0000 0.0000 0.0000 0.0000 -339.9510 0.0000
# 6 0.0000 0.0000 0.0000 0.0000 0.0000 41.3328
#
#
#
# Elastic Compliance Matrix: (Units=1/GPa)
#
#
# Indices 1 2 3 4 5 6 
#
# 1 0.006535 -0.005043 -0.001337 0.000000 0.000000 0.000000
# 2 -0.005043 0.019065 -0.003087 0.000000 0.000000 0.000000
# 3 -0.001337 -0.003087 0.007144 0.000000 0.000000 0.000000
# 4 0.000000 0.000000 0.000000 -0.098845 0.000000 0.000000
# 5 0.000000 0.000000 0.000000 0.000000 -0.002942 0.000000
# 6 0.000000 0.000000 0.000000 0.000000 0.000000 0.024194
#
#
# Mechanical properties :
#
#
# Convention : Reuss Voigt Hill
#
# Bulk Modulus (GPa) = 72.40743 94.85564 83.63154
# Shear Modulus (GPa) = -234.61061 -42.74262 -138.67662
#
# Velocity S-wave (km/s) = -10.54674 -4.50168 -8.10860
# Velocity P-wave (km/s) = 10.67622 4.23707 6.92925
#
# Compressibility (1/GPa) = 0.01381074
#
# Stress axis : x y z
#
# Youngs Moduli (GPa) = 153.02848 52.45259 139.97350
#
# Poissons Ratio (x) = 0.26450 0.18712
# Poissons Ratio (y) = 0.77168 0.43210
# Poissons Ratio (z) = 0.20457 0.16192
#
# Static dielectric constant tensor:
#      x y z
#    x 1.759250 0.000000 0.000000 
#    y 0.000000 1.756180 0.000000 
#    z 0.000000 0.000000 1.716720 
# 
# From -- ./inp_files/60829.got.cif
#   From: 2010.05.17/outbox.cif.g08.bks.cpg/sg66_31_cif.got.tgz:60829.got - 2010.06.03 17:51:23.
