data_PCOD9500101
_publ_section_title
;
Structure prediction by ZEFSAII (Michael W. Deem and Ramdas Pophale) SiO2 
 PCOD9500101
Probable space group: C C C M
;
_chemical_formula_sum "Si O2"
_cell_formula_units_Z 40
_cell_length_a 15.000000
_cell_length_b 12.000000
_cell_length_c 24.000000
_cell_angle_alpha 90.000000
_cell_angle_beta 90.000000
_cell_angle_gamma 90.000000
_cell_volume 4320.000000
_symmetry_space_group_name_H-M "C C C M"
_symmetry_group_IT_number 66
_symmetry_cell_setting 'orthorhombic'
loop_
_space_group_symop_operation_xyz
x,y,z
-x,-y,z
x,-y,1/2-z
-x,y,1/2-z
-x,-y,-z
x,y,-z
-x,y,1/2+z
x,-y,1/2+z
1/2+x,1/2+y,z
1/2-x,1/2-y,z
1/2+x,1/2-y,1/2-z
1/2-x,1/2+y,1/2-z
1/2-x,1/2-y,-z
1/2+x,1/2+y,-z
1/2-x,1/2+y,1/2+z
1/2+x,1/2-y,1/2+z
loop_
_atom_site_type_symbol
_atom_site_label
_atom_site_fract_x
_atom_site_fract_y
_atom_site_fract_z
Si Si1 0.000000 0.692858 0.250000
Si Si2 0.649761 0.288428 0.933973
Si Si3 0.203674 0.366590 0.854584
Si Si4 0.356654 0.555384 0.433828
Si Si5 0.027793 0.761414 0.371656
Si Si6 0.354697 0.000000 0.250000
O O1 0.015003 0.766681 0.304896
O O2 0.081959 0.607319 0.238252
O O3 0.750000 0.250000 0.917023
O O4 0.638242 0.422068 0.927145
O O5 0.567090 0.235775 0.900218
O O6 0.641089 0.263037 0.000000
O O7 0.250000 0.250000 0.834619
O O8 0.263790 0.407904 0.905639
O O9 0.104639 0.333633 0.875524
O O10 0.198583 0.456900 0.804573
O O11 0.361753 0.580137 0.500000
O O12 0.430662 0.628477 0.400954
#
# Coordination Sequence:
#
# PCOD9500101 Si02
#       6
#     8  16  16  16  16   8
#     4   9  20  36  59  86 118 155 202 242 297 362
#     4  10  22  39  58  85 117 155 202 248 299 355
#     4   9  20  37  60  92 118 154 200 238 295 364
#     4  10  21  39  60  88 121 156 198 247 301 358
#     4  10  20  38  60  85 117 155 197 244 295 357
#     4   9  18  38  58  80 127 158 186 249 300 348
#
# _framework density 9.2592590000000001
#
# number of rings (size 3 to 8) (size 9 to 14) (size 15 to 20)
#    0.000    2.400    0.000    1.200    2.800    6.000 
#   10.800    1.000    0.000    3.600    0.000    0.000 
#    0.000    0.000    0.000    0.000    0.000    0.000 
#
# Total GULP energy -223066.419360 kJ/mol
# GULP energy per Si atom -5576.660484 kJ/mol
# Density = 0.923818 g / cm^3
# Si number density = 9.259259 Si / 1000 Ang^3
#
#
#
# Elastic Constant Matrix: (Units=GPa)
#
#
# Indices 1 2 3 4 5 6 
#
# 1 142.8642 25.2631 66.8401 0.0000 0.0000 0.0000
# 2 25.2631 62.5254 55.8338 0.0000 0.0000 0.0000
# 3 66.8401 55.8338 134.2705 0.0000 0.0000 0.0000
# 4 0.0000 0.0000 0.0000 33.4418 0.0000 0.0000
# 5 0.0000 0.0000 0.0000 0.0000 31.8728 0.0000
# 6 0.0000 0.0000 0.0000 0.0000 0.0000 17.6110
#
#
#
# Elastic Compliance Matrix: (Units=1/GPa)
#
#
# Indices 1 2 3 4 5 6 
#
# 1 0.009138 0.000588 -0.004794 0.000000 0.000000 0.000000
# 2 0.000588 0.025478 -0.010887 0.000000 0.000000 0.000000
# 3 -0.004794 -0.010887 0.014361 0.000000 0.000000 0.000000
# 4 0.000000 0.000000 0.000000 0.029903 0.000000 0.000000
# 5 0.000000 0.000000 0.000000 0.000000 0.031375 0.000000
# 6 0.000000 0.000000 0.000000 0.000000 0.000000 0.056783
#
#
# Mechanical properties :
#
#
# Convention : Reuss Voigt Hill
#
# Bulk Modulus (GPa) = 53.21379 70.61488 61.91434
# Shear Modulus (GPa) = 24.57152 29.36666 26.96909
#
# Velocity S-wave (km/s) = 3.64656 3.98653 3.82033
# Velocity P-wave (km/s) = 6.82112 7.70745 7.27779
#
# Compressibility (1/GPa) = 0.01879212
#
# Stress axis : x y z
#
# Youngs Moduli (GPa) = 109.42816 39.24952 69.63129
#
# Poissons Ratio (x) = -0.02310 0.33380
# Poissons Ratio (y) = -0.06439 0.75811
# Poissons Ratio (z) = 0.52458 0.42733
#
# Static dielectric constant tensor:
#      x y z
#    x 1.680700 0.000000 0.000000 
#    y 0.000000 1.633600 0.000000 
#    z 0.000000 0.000000 1.624800 
# 
# From -- ./inp_files/57942.got.cif
#   From: 2010.05.17/outbox.ucp.g08.bks.cvg/sg66_29_cif.got.tgz:57942.got - 2010.06.11 16:44:13.
