data_PCOD9500885
_publ_section_title
;
Structure prediction by ZEFSAII (Michael W. Deem and Ramdas Pophale) SiO2 
 PCOD9500885
Probable space group: C M M A
;
_chemical_formula_sum "Si O2"
_cell_formula_units_Z 96
_cell_length_a 14.145801
_cell_length_b 24.550615
_cell_length_c 13.750459
_cell_angle_alpha 90.000000
_cell_angle_beta 90.000000
_cell_angle_gamma 90.000000
_cell_volume 4775.370976
_symmetry_space_group_name_H-M "C M M A"
_symmetry_group_IT_number 67
_symmetry_cell_setting 'orthorhombic'
loop_
_space_group_symop_operation_xyz
x,y,z
-x,1/2-y,z
x,-y,-z
-x,1/2+y,-z
-x,-y,-z
x,1/2+y,-z
-x,y,z
x,1/2-y,z
1/2+x,1/2+y,z
1/2-x,-y,z
1/2+x,1/2-y,-z
1/2-x,y,-z
1/2-x,1/2-y,-z
1/2+x,y,-z
1/2-x,1/2+y,z
1/2+x,-y,z
loop_
_atom_site_type_symbol
_atom_site_label
_atom_site_fract_x
_atom_site_fract_y
_atom_site_fract_z
Si Si1 0.391016 0.642146 0.912208
Si Si2 0.221940 0.867583 0.611959
Si Si3 0.384484 0.945350 0.058675
Si Si4 0.616515 0.250000 0.205818
Si Si5 0.107676 0.417061 0.715332
Si Si6 0.735731 0.750000 0.381948
Si Si7 0.886357 0.540577 0.720297
O O1 0.500000 0.656149 0.935015
O O2 0.355192 0.696715 0.858621
O O3 0.391606 0.595007 0.829952
O O4 0.353370 0.610627 0.006528
O O5 0.250000 0.872051 0.500000
O O6 0.320518 0.876106 0.667262
O O7 0.184622 0.807348 0.636387
O O8 0.153957 0.915069 0.647545
O O9 0.500000 0.945265 0.058833
O O10 0.351821 0.947790 0.169993
O O11 0.357211 0.000000 0.000000
O O12 0.500000 0.250000 0.220075
O O13 0.672441 0.250000 0.309267
O O14 0.138593 0.478562 0.694373
O O15 0.000000 0.408946 0.681796
O O16 0.750000 0.750000 0.500000
O O17 0.000000 0.542554 0.721469
#
# Coordination Sequence:
#
# PCOD9500885 Si02
#       7
#    16  16  16   8  16   8  16
#     4   9  16  28  52  86 114 141 179 230 288 335
#     4  11  24  41  59  81 114 153 195 248 298 344
#     4   9  15  29  55  84 115 150 187 229 278 339
#     4  10  18  32  59  87 113 145 190 246 296 345
#     4  10  19  34  60  88 114 147 187 235 292 350
#     4  10  22  40  59  77 105 151 197 246 298 335
#     4  10  21  37  59  87 120 158 194 229 280 351
#
# _framework density 20.103149999999999
#
# number of rings (size 3 to 8) (size 9 to 14) (size 15 to 20)
#    0.000    2.167    3.333    0.500    0.000    2.000 
#    0.000    6.250    0.000    3.000    0.000    0.000 
#    0.000    0.000    0.000    0.000    0.000    0.000 
#
# Total GULP energy -267612.566207 kJ/mol
# GULP energy per Si atom -5575.261796 kJ/mol
# Density = 2.005739 g / cm^3
# Si number density = 20.103150 Si / 1000 Ang^3
#
#
#
# Elastic Constant Matrix: (Units=GPa)
#
#
# Indices 1 2 3 4 5 6 
#
# 1 28.8956 5.9256 -1.9902 0.0000 0.0000 0.0000
# 2 5.9256 158.1625 31.1229 0.0000 0.0000 0.0000
# 3 -1.9902 31.1229 64.6839 0.0000 0.0000 0.0000
# 4 0.0000 0.0000 0.0000 29.0235 0.0000 0.0000
# 5 0.0000 0.0000 0.0000 0.0000 21.2003 0.0000
# 6 0.0000 0.0000 0.0000 0.0000 0.0000 12.9030
#
#
#
# Elastic Compliance Matrix: (Units=1/GPa)
#
#
# Indices 1 2 3 4 5 6 
#
# 1 0.035083 -0.001687 0.001891 0.000000 0.000000 0.000000
# 2 -0.001687 0.007065 -0.003451 0.000000 0.000000 0.000000
# 3 0.001891 -0.003451 0.017179 0.000000 0.000000 0.000000
# 4 0.000000 0.000000 0.000000 0.034455 0.000000 0.000000
# 5 0.000000 0.000000 0.000000 0.000000 0.047169 0.000000
# 6 0.000000 0.000000 0.000000 0.000000 0.000000 0.077501
#
#
# Mechanical properties :
#
#
# Convention : Reuss Voigt Hill
#
# Bulk Modulus (GPa) = 18.92746 35.76209 27.34477
# Shear Modulus (GPa) = 20.61374 27.07094 23.84234
#
# Velocity S-wave (km/s) = 3.20566 3.67359 3.44757
# Velocity P-wave (km/s) = 4.81012 5.98511 5.42950
#
# Compressibility (1/GPa) = 0.05283329
#
# Stress axis : x y z
#
# Youngs Moduli (GPa) = 28.50352 141.54447 58.21220
#
# Poissons Ratio (x) = 0.23872 -0.11008
# Poissons Ratio (y) = 0.04807 0.20090
# Poissons Ratio (z) = -0.05390 0.48850
#
# Static dielectric constant tensor:
#      x y z
#    x 1.734740 0.000000 0.000000 
#    y 0.000000 1.738820 0.000000 
#    z 0.000000 0.000000 1.766790 
# 
# From -- ./inp_files/27440.got.cif
#   From: 2010.05.17/outbox.cif.g08.bks.cpg/sg67_14_cif.got.tgz:27440.got - 2010.06.03 18:28:57.
