data_PCOD9500160
_publ_section_title
;
Structure prediction by ZEFSAII (Michael W. Deem and Ramdas Pophale) SiO2 
 PCOD9500160
Probable space group: C M M A
;
_chemical_formula_sum "Si O2"
_cell_formula_units_Z 80
_cell_length_a 14.996824
_cell_length_b 8.720675
_cell_length_c 27.938591
_cell_angle_alpha 90.000000
_cell_angle_beta 90.000000
_cell_angle_gamma 90.000000
_cell_volume 3653.876770
_symmetry_space_group_name_H-M "C M M A"
_symmetry_group_IT_number 67
_symmetry_cell_setting 'orthorhombic'
loop_
_space_group_symop_operation_xyz
x,y,z
-x,1/2-y,z
x,-y,-z
-x,1/2+y,-z
-x,-y,-z
x,1/2+y,-z
-x,y,z
x,1/2-y,z
1/2+x,1/2+y,z
1/2-x,-y,z
1/2+x,1/2-y,-z
1/2-x,y,-z
1/2-x,1/2-y,-z
1/2+x,y,-z
1/2-x,1/2+y,z
1/2+x,-y,z
loop_
_atom_site_type_symbol
_atom_site_label
_atom_site_fract_x
_atom_site_fract_y
_atom_site_fract_z
Si Si1 0.649238 0.935107 0.749302
Si Si2 0.351563 0.566342 0.049018
Si Si3 0.150599 0.066761 0.646239
Si Si4 0.148545 0.564973 0.146849
Si Si5 0.605117 0.081647 0.547095
O O1 0.653680 0.750000 0.749382
O O2 0.608868 0.980677 0.697784
O O3 0.608731 0.976826 0.801005
O O4 0.750000 0.000000 0.749206
O O5 0.349477 0.750000 0.047644
O O6 0.250000 0.500000 0.049667
O O7 0.392173 0.507279 0.098931
O O8 0.391946 0.500000 0.000000
O O9 0.151262 0.250000 0.644907
O O10 0.250000 0.000000 0.646981
O O11 0.111405 0.007330 0.596807
O O12 0.150045 0.750000 0.142077
O O13 0.250000 0.500000 0.148783
O O14 0.500000 0.098935 0.538020
O O15 0.646197 0.250000 0.553121
O O16 0.642984 0.000000 0.500000
#
# Coordination Sequence:
#
# PCOD9500160 Si02
#       5
#    16  16  16  16  16
#     4   8  15  25  38  56  79 106 135 170 212 258
#     4  10  16  21  27  37  54  80 117 161 206 248
#     4  10  19  32  50  73  99 125 155 191 231 273
#     4   9  14  21  31  44  63  89 122 160 203 248
#     4  10  21  37  55  74  96 123 155 190 229 274
#
# _framework density 21.894553999999999
#
# number of rings (size 3 to 8) (size 9 to 14) (size 15 to 20)
#    0.000    2.600    0.000    5.400    0.000    3.200 
#    0.000    2.000    0.000    0.000    0.000    0.000 
#    0.000    0.000    0.000    0.000    0.000    1.000 
#
# Total GULP energy -222876.599170 kJ/mol
# GULP energy per Si atom -5571.914979 kJ/mol
# Density = 2.184472 g / cm^3
# Si number density = 21.894554 Si / 1000 Ang^3
#
#
#
# Elastic Constant Matrix: (Units=GPa)
#
#
# Indices 1 2 3 4 5 6 
#
# 1 45.3667 3.9246 15.4784 0.0000 0.0000 0.0000
# 2 3.9246 121.0147 91.2459 0.0000 0.0000 0.0000
# 3 15.4784 91.2459 283.6746 0.0000 0.0000 0.0000
# 4 0.0000 0.0000 0.0000 19.2324 0.0000 0.0000
# 5 0.0000 0.0000 0.0000 0.0000 242.9484 0.0000
# 6 0.0000 0.0000 0.0000 0.0000 0.0000 0.7516
#
#
#
# Elastic Compliance Matrix: (Units=1/GPa)
#
#
# Indices 1 2 3 4 5 6 
#
# 1 0.022467 0.000258 -0.001309 0.000000 0.000000 0.000000
# 2 0.000258 0.010912 -0.003524 0.000000 0.000000 0.000000
# 3 -0.001309 -0.003524 0.004730 0.000000 0.000000 0.000000
# 4 0.000000 0.000000 0.000000 0.051996 0.000000 0.000000
# 5 0.000000 0.000000 0.000000 0.000000 0.004116 0.000000
# 6 0.000000 0.000000 0.000000 0.000000 0.000000 1.330484
#
#
# Mechanical properties :
#
#
# Convention : Reuss Voigt Hill
#
# Bulk Modulus (GPa) = 34.53059 74.59487 54.56273
# Shear Modulus (GPa) = 3.46379 75.21361 39.33870
#
# Velocity S-wave (km/s) = 1.25915 5.86747 4.24339
# Velocity P-wave (km/s) = 4.23314 8.94690 6.99880
#
# Compressibility (1/GPa) = 0.02895983
#
# Stress axis : x y z
#
# Youngs Moduli (GPa) = 44.50999 91.63989 211.41013
#
# Poissons Ratio (x) = -0.02368 0.27673
# Poissons Ratio (y) = -0.01150 0.74503
# Poissons Ratio (z) = 0.05826 0.32295
#
# Static dielectric constant tensor:
#      x y z
#    x 1.773490 0.000000 0.000000 
#    y 0.000000 1.763540 0.000000 
#    z 0.000000 0.000000 1.906510 
# 
# From -- ./inp_files/44413.got.cif
#   From: 2010.05.17/outbox.cif.g08.bks.cpg/sg67_23_cif.got.tgz:44413.got - 2010.06.03 18:28:57.
