data_PCOD9500437
_publ_section_title
;
Structure prediction by ZEFSAII (Michael W. Deem and Ramdas Pophale) SiO2 
 PCOD9500437
Probable space group: C M M A
;
_chemical_formula_sum "Si O2"
_cell_formula_units_Z 112
_cell_length_a 14.619150
_cell_length_b 14.573077
_cell_length_c 26.314970
_cell_angle_alpha 90.000000
_cell_angle_beta 90.000000
_cell_angle_gamma 90.000000
_cell_volume 5606.299062
_symmetry_space_group_name_H-M "C M M A"
_symmetry_group_IT_number 67
_symmetry_cell_setting 'orthorhombic'
loop_
_space_group_symop_operation_xyz
x,y,z
-x,1/2-y,z
x,-y,-z
-x,1/2+y,-z
-x,-y,-z
x,1/2+y,-z
-x,y,z
x,1/2-y,z
1/2+x,1/2+y,z
1/2-x,-y,z
1/2+x,1/2-y,-z
1/2-x,y,-z
1/2-x,1/2-y,-z
1/2+x,y,-z
1/2-x,1/2+y,z
1/2+x,-y,z
loop_
_atom_site_type_symbol
_atom_site_label
_atom_site_fract_x
_atom_site_fract_y
_atom_site_fract_z
Si Si1 0.105266 0.888461 0.555665
Si Si2 0.751740 0.645506 0.756423
Si Si3 0.610711 0.497486 0.200732
Si Si4 0.249334 0.611430 0.638294
Si Si5 0.611605 0.645898 0.002760
Si Si6 0.394752 0.111507 0.443451
Si Si7 0.389392 0.505971 0.917971
O O1 0.164314 0.859321 0.603423
O O2 0.138555 0.859723 0.499560
O O3 0.000000 0.861239 0.560271
O O4 0.108379 0.999993 0.555835
O O5 0.752650 0.750000 0.775349
O O6 0.661452 0.589511 0.773901
O O7 0.838971 0.586569 0.775735
O O8 0.752848 0.645894 0.695315
O O9 0.500000 0.497899 0.206998
O O10 0.634793 0.494350 0.140828
O O11 0.250000 0.500000 0.641638
O O12 0.335858 0.640486 0.604457
O O13 0.500000 0.646701 0.003057
O O14 0.642726 0.750000 0.005555
O O15 0.640457 0.583334 0.050329
O O16 0.639733 0.593556 0.951293
O O17 0.500000 0.138699 0.438742
O O18 0.500000 0.505813 0.919226
#
# Coordination Sequence:
#
# PCOD9500437 Si02
#       7
#    16  16  16  16  16  16  16
#     4   8  14  24  43  75 109 140 179 227 282 352
#     4  11  25  43  60  88 121 155 207 266 311 356
#     4  10  22  43  66  88 118 162 209 256 308 358
#     4  10  17  31  51  76 104 150 191 235 295 354
#     4   8  13  23  44  81 123 153 184 233 289 350
#     4   8  14  24  43  75 109 140 179 227 282 352
#     4   8  15  28  50  81 116 153 195 239 289 352
#
# _framework density 19.977528
#
# number of rings (size 3 to 8) (size 9 to 14) (size 15 to 20)
#    0.000    3.000    1.429    2.143    0.000    4.571 
#    0.000    2.857    0.000    8.571    0.000   10.000 
#    0.000    0.000    0.000    0.000    0.000    0.000 
#
# Total GULP energy -312457.519090 kJ/mol
# GULP energy per Si atom -5579.598555 kJ/mol
# Density = 1.993206 g / cm^3
# Si number density = 19.977528 Si / 1000 Ang^3
#
#
#
# Elastic Constant Matrix: (Units=GPa)
#
#
# Indices 1 2 3 4 5 6 
#
# 1 87.4058 -0.2807 19.0764 0.0000 0.0000 0.0000
# 2 -0.2807 111.5067 8.9491 0.0000 0.0000 0.0000
# 3 19.0764 8.9491 136.3608 0.0000 0.0000 0.0000
# 4 0.0000 0.0000 0.0000 -96.6308 0.0000 0.0000
# 5 0.0000 0.0000 0.0000 0.0000 162.1849 0.0000
# 6 0.0000 0.0000 0.0000 0.0000 0.0000 -11.3291
#
#
#
# Elastic Compliance Matrix: (Units=1/GPa)
#
#
# Indices 1 2 3 4 5 6 
#
# 1 0.011804 0.000163 -0.001662 0.000000 0.000000 0.000000
# 2 0.000163 0.009018 -0.000615 0.000000 0.000000 0.000000
# 3 -0.001662 -0.000615 0.007606 0.000000 0.000000 0.000000
# 4 0.000000 0.000000 0.000000 -0.010349 0.000000 0.000000
# 5 0.000000 0.000000 0.000000 0.000000 0.006166 0.000000
# 6 0.000000 0.000000 0.000000 0.000000 0.000000 -0.088269
#
#
# Mechanical properties :
#
#
# Convention : Reuss Voigt Hill
#
# Bulk Modulus (GPa) = 41.32041 43.41810 42.36926
# Shear Modulus (GPa) = -96.65783 31.34692 -32.65545
#
# Velocity S-wave (km/s) = -6.96336 3.96550 -4.04742
# Velocity P-wave (km/s) = 6.62742 6.53816 0.76656
#
# Compressibility (1/GPa) = 0.02420111
#
# Stress axis : x y z
#
# Youngs Moduli (GPa) = 84.71590 110.89163 131.46930
#
# Poissons Ratio (x) = -0.01809 0.21851
# Poissons Ratio (y) = -0.01382 0.08081
# Poissons Ratio (z) = 0.14080 0.06816
#
# Static dielectric constant tensor:
#      x y z
#    x 1.719580 0.000000 0.000000 
#    y 0.000000 1.748270 0.000000 
#    z 0.000000 0.000000 1.668250 
# 
# From -- ./inp_files/41952.got.cif
#   From: 2010.05.17/outbox.cif.g08.bks.cpg/sg67_21_cif.got.tgz:41952.got - 2010.06.03 18:28:57.
