data_PCOD9500975
_publ_section_title
;
Structure prediction by ZEFSAII (Michael W. Deem and Ramdas Pophale) SiO2 
 PCOD9500975
Probable space group: C M M A
;
_chemical_formula_sum "Si O2"
_cell_formula_units_Z 68
_cell_length_a 15.742370
_cell_length_b 16.974774
_cell_length_c 11.407242
_cell_angle_alpha 90.000000
_cell_angle_beta 90.000000
_cell_angle_gamma 90.000000
_cell_volume 3048.279402
_symmetry_space_group_name_H-M "C M M A"
_symmetry_group_IT_number 67
_symmetry_cell_setting 'orthorhombic'
loop_
_space_group_symop_operation_xyz
x,y,z
-x,1/2-y,z
x,-y,-z
-x,1/2+y,-z
-x,-y,-z
x,1/2+y,-z
-x,y,z
x,1/2-y,z
1/2+x,1/2+y,z
1/2-x,-y,z
1/2+x,1/2-y,-z
1/2-x,y,-z
1/2-x,1/2-y,-z
1/2+x,y,-z
1/2-x,1/2+y,z
1/2+x,-y,z
loop_
_atom_site_type_symbol
_atom_site_label
_atom_site_fract_x
_atom_site_fract_y
_atom_site_fract_z
Si Si1 0.101396 0.839051 0.039126
Si Si2 0.192564 0.337125 0.613138
Si Si3 0.155035 0.134573 0.220746
Si Si4 0.000000 0.250000 0.282258
Si Si5 0.599925 0.959155 0.750837
O O1 0.116038 0.750000 0.084192
O O2 0.118115 0.905967 0.134103
O O3 0.000000 0.843224 0.009300
O O4 0.150957 0.850895 0.918481
O O5 0.153303 0.250000 0.599873
O O6 0.250000 0.353173 0.500000
O O7 0.259039 0.336870 0.719924
O O8 0.126270 0.405152 0.641359
O O9 0.075323 0.181797 0.274084
O O10 0.147119 0.041733 0.244409
O O11 0.500000 0.975046 0.750535
#
# Coordination Sequence:
#
# PCOD9500975 Si02
#       5
#    16  16  16   4  16
#     4  10  18  35  62  96 134 167 205 256 317 388
#     4  11  26  48  66  90 127 168 216 272 320 374
#     4  12  21  41  68  96 130 167 218 262 315 377
#     4  12  20  40  68 100 126 176 214 256 318 386
#     4  11  24  40  65  98 133 168 208 262 325 384
#
# _framework density 22.307666000000001
#
# number of rings (size 3 to 8) (size 9 to 14) (size 15 to 20)
#    0.000    0.941    4.706    2.118    0.000    6.118 
#    2.118    5.882    0.000    0.000    0.000    0.000 
#    0.000    0.000    0.000    0.000    0.000    0.000 
#
# Total GULP energy -189800.396414 kJ/mol
# GULP energy per Si atom -5582.364600 kJ/mol
# Density = 2.225689 g / cm^3
# Si number density = 22.307666 Si / 1000 Ang^3
#
#
#
# Elastic Constant Matrix: (Units=GPa)
#
#
# Indices 1 2 3 4 5 6 
#
# 1 32.1857 -10.8378 -3.4228 0.0000 0.0000 0.0000
# 2 -10.8378 146.3572 20.6313 0.0000 0.0000 0.0000
# 3 -3.4228 20.6313 56.9744 0.0000 0.0000 0.0000
# 4 0.0000 0.0000 0.0000 13.7072 0.0000 0.0000
# 5 0.0000 0.0000 0.0000 0.0000 19.1037 0.0000
# 6 0.0000 0.0000 0.0000 0.0000 0.0000 16.7526
#
#
#
# Elastic Compliance Matrix: (Units=1/GPa)
#
#
# Indices 1 2 3 4 5 6 
#
# 1 0.031932 0.002207 0.001119 0.000000 0.000000 0.000000
# 2 0.002207 0.007353 -0.002530 0.000000 0.000000 0.000000
# 3 0.001119 -0.002530 0.018535 0.000000 0.000000 0.000000
# 4 0.000000 0.000000 0.000000 0.072954 0.000000 0.000000
# 5 0.000000 0.000000 0.000000 0.000000 0.052346 0.000000
# 6 0.000000 0.000000 0.000000 0.000000 0.000000 0.059692
#
#
# Mechanical properties :
#
#
# Convention : Reuss Voigt Hill
#
# Bulk Modulus (GPa) = 16.83167 27.58428 22.20798
# Shear Modulus (GPa) = 19.15537 25.18916 22.17226
#
# Velocity S-wave (km/s) = 2.93352 3.36396 3.15609
# Velocity P-wave (km/s) = 4.36299 5.24219 4.82266
#
# Compressibility (1/GPa) = 0.05941179
#
# Stress axis : x y z
#
# Youngs Moduli (GPa) = 31.31670 136.00551 53.95165
#
# Poissons Ratio (x) = -0.30014 -0.06038
# Poissons Ratio (y) = -0.06911 0.13649
# Poissons Ratio (z) = -0.03505 0.34408
#
# Static dielectric constant tensor:
#      x y z
#    x 1.820110 0.000000 0.000000 
#    y 0.000000 1.794930 0.000000 
#    z 0.000000 0.000000 1.851410 
# 
# From -- ./inp_files/19138.got.cif
#   From: 2010.05.17/outbox.cif.g08.bks.cpg/sg67_10_cif.got.tgz:19138.got - 2010.06.03 18:28:57.
