data_PCOD9500397
_publ_section_title
;
Structure prediction by ZEFSAII (Michael W. Deem and Ramdas Pophale) SiO2 
 PCOD9500397
Probable space group: C M M A
;
_chemical_formula_sum "Si O2"
_cell_formula_units_Z 52
_cell_length_a 8.188014
_cell_length_b 14.887739
_cell_length_c 17.995746
_cell_angle_alpha 90.000000
_cell_angle_beta 90.000000
_cell_angle_gamma 90.000000
_cell_volume 2193.699710
_symmetry_space_group_name_H-M "C M M A"
_symmetry_group_IT_number 67
_symmetry_cell_setting 'orthorhombic'
loop_
_space_group_symop_operation_xyz
x,y,z
-x,1/2-y,z
x,-y,-z
-x,1/2+y,-z
-x,-y,-z
x,1/2+y,-z
-x,y,z
x,1/2-y,z
1/2+x,1/2+y,z
1/2-x,-y,z
1/2+x,1/2-y,-z
1/2-x,y,-z
1/2-x,1/2-y,-z
1/2+x,y,-z
1/2-x,1/2+y,z
1/2+x,-y,z
loop_
_atom_site_type_symbol
_atom_site_label
_atom_site_fract_x
_atom_site_fract_y
_atom_site_fract_z
Si Si1 0.250000 0.000000 0.000000
Si Si2 0.309236 0.352009 0.896191
Si Si3 0.692961 0.396409 0.263243
Si Si4 0.193894 0.895426 0.578977
O O1 0.197462 0.075567 0.938800
O O2 0.500000 0.375931 0.911789
O O3 0.279145 0.250000 0.919582
O O4 0.280548 0.355808 0.808177
O O5 0.500000 0.391009 0.252188
O O6 0.750000 0.500000 0.264594
O O7 0.736038 0.357422 0.344194
O O8 0.250000 0.856357 0.500000
O O9 0.000000 0.892417 0.582780
O O10 0.250000 0.000000 0.577744
#
# Coordination Sequence:
#
# PCOD9500397 Si02
#       4
#     4  16  16  16
#     4  12  24  44  76 100 132 172 212 268 322 402
#     4  11  25  44  67  98 135 173 215 267 328 392
#     4  11  21  36  60  89 126 171 220 270 327 388
#     4  10  17  28  49  82 124 167 217 269 322 380
#
# _framework density 23.704248
#
# number of rings (size 3 to 8) (size 9 to 14) (size 15 to 20)
#    0.000    1.231    1.538    9.231    0.000    1.846 
#    0.000    0.000    0.000    0.923    0.000    0.000 
#    0.000    0.000    0.000    0.000    0.000    0.000 
#
# Total GULP energy -145123.808753 kJ/mol
# GULP energy per Si atom -5581.684952 kJ/mol
# Density = 2.365030 g / cm^3
# Si number density = 23.704248 Si / 1000 Ang^3
#
#
#
# Elastic Constant Matrix: (Units=GPa)
#
#
# Indices 1 2 3 4 5 6 
#
# 1 114.0967 22.1184 25.5508 0.0000 0.0000 0.0000
# 2 22.1184 127.8053 44.5990 0.0000 0.0000 0.0000
# 3 25.5508 44.5990 220.0416 0.0000 0.0000 0.0000
# 4 0.0000 0.0000 0.0000 -173.2937 0.0000 0.0000
# 5 0.0000 0.0000 0.0000 0.0000 7.6210 0.0000
# 6 0.0000 0.0000 0.0000 0.0000 0.0000 -5.5065
#
#
#
# Elastic Compliance Matrix: (Units=1/GPa)
#
#
# Indices 1 2 3 4 5 6 
#
# 1 0.009198 -0.001312 -0.000802 0.000000 0.000000 0.000000
# 2 -0.001312 0.008607 -0.001592 0.000000 0.000000 0.000000
# 3 -0.000802 -0.001592 0.004960 0.000000 0.000000 0.000000
# 4 0.000000 0.000000 0.000000 -0.005771 0.000000 0.000000
# 5 0.000000 0.000000 0.000000 0.000000 0.131216 0.000000
# 6 0.000000 0.000000 0.000000 0.000000 0.000000 -0.181603
#
#
# Mechanical properties :
#
#
# Convention : Reuss Voigt Hill
#
# Bulk Modulus (GPa) = 65.13260 71.83110 68.48185
# Shear Modulus (GPa) = -239.68607 -9.59082 -124.63845
#
# Velocity S-wave (km/s) = -10.06652 -2.01366 -7.25912
# Velocity P-wave (km/s) = 10.37189 4.99624 6.42704
#
# Compressibility (1/GPa) = 0.01535330
#
# Stress axis : x y z
#
# Youngs Moduli (GPa) = 108.71370 116.18360 201.59450
#
# Poissons Ratio (x) = 0.15243 0.16172
# Poissons Ratio (y) = 0.14263 0.32097
# Poissons Ratio (z) = 0.08721 0.18498
#
# Static dielectric constant tensor:
#      x y z
#    x 1.895130 0.000000 0.000000 
#    y 0.000000 1.854560 0.000000 
#    z 0.000000 0.000000 1.929760 
# 
# From -- ./inp_files/31569.got.cif
#   From: 2010.05.17/outbox.cif.g08.bks.cpg/sg67_16_cif.got.tgz:31569.got - 2010.06.03 18:28:57.
