data_PCOD9500512
_publ_section_title
;
Structure prediction by ZEFSAII (Michael W. Deem and Ramdas Pophale) SiO2 
 PCOD9500512
Probable space group: C M M A
;
_chemical_formula_sum "Si O2"
_cell_formula_units_Z 128
_cell_length_a 23.483300
_cell_length_b 26.174003
_cell_length_c 11.541286
_cell_angle_alpha 90.000000
_cell_angle_beta 90.000000
_cell_angle_gamma 90.000000
_cell_volume 7093.874114
_symmetry_space_group_name_H-M "C M M A"
_symmetry_group_IT_number 67
_symmetry_cell_setting 'orthorhombic'
loop_
_space_group_symop_operation_xyz
x,y,z
-x,1/2-y,z
x,-y,-z
-x,1/2+y,-z
-x,-y,-z
x,1/2+y,-z
-x,y,z
x,1/2-y,z
1/2+x,1/2+y,z
1/2-x,-y,z
1/2+x,1/2-y,-z
1/2-x,y,-z
1/2-x,1/2-y,-z
1/2+x,y,-z
1/2-x,1/2+y,z
1/2+x,-y,z
loop_
_atom_site_type_symbol
_atom_site_label
_atom_site_fract_x
_atom_site_fract_y
_atom_site_fract_z
Si Si1 0.265161 0.161568 0.750512
Si Si2 0.137730 0.690811 0.324149
Si Si3 0.734274 0.057852 0.137307
Si Si4 0.122186 0.114208 0.861350
Si Si5 0.932526 0.142049 0.200157
Si Si6 0.934576 0.447288 0.045122
Si Si7 0.872089 0.310361 0.402517
Si Si8 0.160098 0.306307 0.045161
O O1 0.203952 0.180297 0.707518
O O2 0.264491 0.101880 0.786771
O O3 0.311284 0.174569 0.652604
O O4 0.287027 0.188666 0.867866
O O5 0.123874 0.750000 0.297780
O O6 0.105396 0.648724 0.246939
O O7 0.128073 0.682322 0.460202
O O8 0.667645 0.069465 0.161150
O O9 0.750000 0.000000 0.167882
O O10 0.750000 0.064177 0.000000
O O11 0.071644 0.091202 0.937087
O O12 0.157968 0.151935 0.945581
O O13 0.912330 0.086114 0.153400
O O14 0.916995 0.155545 0.331508
O O15 0.895402 0.181621 0.124217
O O16 0.000000 0.146063 0.179594
O O17 0.000000 0.458763 0.073315
O O18 0.907178 0.500000 0.000000
O O19 0.882013 0.250000 0.379601
O O20 0.157346 0.250000 0.995452
#
# Coordination Sequence:
#
# PCOD9500512 Si02
#       8
#    16  16  16  16  16  16  16  16
#     4  10  18  31  49  71  97 131 170 210 245 289
#     4  10  20  33  49  71 101 138 172 201 242 294
#     4  10  20  31  46  71 101 131 162 192 246 303
#     4  10  20  32  49  73 104 132 162 205 248 304
#     4   9  18  32  51  75  99 124 161 209 252 292
#     4   9  19  35  57  80  99 125 162 205 257 305
#     4  10  20  33  51  72  98 135 177 210 240 283
#     4  10  18  28  45  72 101 129 159 200 255 305
#
# _framework density 18.043738000000001
#
# number of rings (size 3 to 8) (size 9 to 14) (size 15 to 20)
#    0.000    2.250    1.250    3.000    1.750    2.000 
#    0.000    2.500    0.000   11.625    0.000    2.625 
#    0.000    0.000    0.000    0.000    0.000    0.000 
#
# Total GULP energy -356672.544585 kJ/mol
# GULP energy per Si atom -5573.008509 kJ/mol
# Density = 1.800267 g / cm^3
# Si number density = 18.043738 Si / 1000 Ang^3
#
#
#
# Elastic Constant Matrix: (Units=GPa)
#
#
# Indices 1 2 3 4 5 6 
#
# 1 29.2693 6.7545 4.1772 0.0000 0.0000 0.0000
# 2 6.7545 124.5133 47.6372 0.0000 0.0000 0.0000
# 3 4.1772 47.6372 99.7388 0.0000 0.0000 0.0000
# 4 0.0000 0.0000 0.0000 25.9809 0.0000 0.0000
# 5 0.0000 0.0000 0.0000 0.0000 12.9788 0.0000
# 6 0.0000 0.0000 0.0000 0.0000 0.0000 14.3278
#
#
#
# Elastic Compliance Matrix: (Units=1/GPa)
#
#
# Indices 1 2 3 4 5 6 
#
# 1 0.034636 -0.001620 -0.000677 0.000000 0.000000 0.000000
# 2 -0.001620 0.009903 -0.004662 0.000000 0.000000 0.000000
# 3 -0.000677 -0.004662 0.012281 0.000000 0.000000 0.000000
# 4 0.000000 0.000000 0.000000 0.038490 0.000000 0.000000
# 5 0.000000 0.000000 0.000000 0.000000 0.077049 0.000000
# 6 0.000000 0.000000 0.000000 0.000000 0.000000 0.069795
#
#
# Mechanical properties :
#
#
# Convention : Reuss Voigt Hill
#
# Bulk Modulus (GPa) = 23.30869 41.18434 32.24652
# Shear Modulus (GPa) = 18.49308 23.65432 21.07370
#
# Velocity S-wave (km/s) = 3.20488 3.62462 3.42120
# Velocity P-wave (km/s) = 5.16149 6.35543 5.78932
#
# Compressibility (1/GPa) = 0.04290245
#
# Stress axis : x y z
#
# Youngs Moduli (GPa) = 28.87171 100.98224 81.42559
#
# Poissons Ratio (x) = 0.16358 0.05511
# Poissons Ratio (y) = 0.04677 0.37960
# Poissons Ratio (z) = 0.01954 0.47077
#
# Static dielectric constant tensor:
#      x y z
#    x 1.649900 0.000000 0.000000 
#    y 0.000000 1.644540 0.000000 
#    z 0.000000 0.000000 1.618110 
# 
# From -- ./inp_files/23247.got.cif
#   From: 2010.05.17/outbox.cif.g08.bks.cpg/sg67_12_cif.got.tgz:23247.got - 2010.06.03 18:28:57.
