data_PCOD9500039
_publ_section_title
;
Structure prediction by ZEFSAII (Michael W. Deem and Ramdas Pophale) SiO2 
 PCOD9500039
Probable space group: C C C M
;
_chemical_formula_sum "Si O2"
_cell_formula_units_Z 80
_cell_length_a 7.431319
_cell_length_b 28.391045
_cell_length_c 16.724149
_cell_angle_alpha 90.000000
_cell_angle_beta 90.000000
_cell_angle_gamma 90.000000
_cell_volume 3528.509659
_symmetry_space_group_name_H-M "C C C M"
_symmetry_group_IT_number 66
_symmetry_cell_setting 'orthorhombic'
loop_
_space_group_symop_operation_xyz
x,y,z
-x,-y,z
x,-y,1/2-z
-x,y,1/2-z
-x,-y,-z
x,y,-z
-x,y,1/2+z
x,-y,1/2+z
1/2+x,1/2+y,z
1/2-x,1/2-y,z
1/2+x,1/2-y,1/2-z
1/2-x,1/2+y,1/2-z
1/2-x,1/2-y,-z
1/2+x,1/2+y,-z
1/2-x,1/2+y,1/2+z
1/2+x,1/2-y,1/2+z
loop_
_atom_site_type_symbol
_atom_site_label
_atom_site_fract_x
_atom_site_fract_y
_atom_site_fract_z
Si Si1 0.967752 0.150068 0.655970
Si Si2 0.535347 0.550780 0.909347
Si Si3 0.034300 0.251472 0.844923
Si Si4 0.966353 0.550513 0.908433
Si Si5 0.442919 0.849891 0.596136
O O1 0.036485 0.099782 0.625078
O O2 0.037070 0.200869 0.624433
O O3 0.755032 0.150861 0.635677
O O4 0.000000 0.150925 0.750000
O O5 0.500000 0.500000 0.869338
O O6 0.750916 0.554887 0.912042
O O7 0.465528 0.547693 0.000000
O O8 0.250000 0.250000 0.858913
O O9 0.967223 0.300367 0.881922
O O10 0.000000 0.254041 0.750000
O O11 0.031680 0.600854 0.875520
O O12 0.000000 0.500000 0.868325
O O13 0.036385 0.547118 0.000000
O O14 0.423027 0.852764 0.500000
#
# Coordination Sequence:
#
# PCOD9500039 Si02
#       5
#    16  16  16  16  16
#     4   9  17  29  46  70  98 127 158 200 251 296
#     4   9  17  29  46  69  96 127 162 199 241 291
#     4   9  18  32  50  71  98 131 164 203 255 305
#     4   8  14  27  46  68  94 121 153 195 238 279
#     4   9  17  30  52  77  97 126 172 214 246 296
#
# _framework density 22.672463
#
# number of rings (size 3 to 8) (size 9 to 14) (size 15 to 20)
#    0.000    3.200    0.000    1.800    0.000    4.800 
#    0.000    6.000    0.000    3.600    0.000    4.200 
#    0.000    0.000    0.000    0.000    0.000    0.800 
#
# Total GULP energy -222701.825528 kJ/mol
# GULP energy per Si atom -5567.545638 kJ/mol
# Density = 2.262086 g / cm^3
# Si number density = 22.672463 Si / 1000 Ang^3
#
#
#
# Elastic Constant Matrix: (Units=GPa)
#
#
# Indices 1 2 3 4 5 6 
#
# 1 75.7640 14.8167 1.8609 0.0000 0.0000 0.0000
# 2 14.8167 339.9044 46.4280 0.0000 0.0000 0.0000
# 3 1.8609 46.4280 37.1322 0.0000 0.0000 0.0000
# 4 0.0000 0.0000 0.0000 38.3354 0.0000 0.0000
# 5 0.0000 0.0000 0.0000 0.0000 13.0670 0.0000
# 6 0.0000 0.0000 0.0000 0.0000 0.0000 11.7313
#
#
#
# Elastic Compliance Matrix: (Units=1/GPa)
#
#
# Indices 1 2 3 4 5 6 
#
# 1 0.013313 -0.000590 0.000070 0.000000 0.000000 0.000000
# 2 -0.000590 0.003574 -0.004439 0.000000 0.000000 0.000000
# 3 0.000070 -0.004439 0.032478 0.000000 0.000000 0.000000
# 4 0.000000 0.000000 0.000000 0.026086 0.000000 0.000000
# 5 0.000000 0.000000 0.000000 0.000000 0.076528 0.000000
# 6 0.000000 0.000000 0.000000 0.000000 0.000000 0.085242
#
#
# Mechanical properties :
#
#
# Convention : Reuss Voigt Hill
#
# Bulk Modulus (GPa) = 25.35049 64.33464 44.84257
# Shear Modulus (GPa) = 19.20959 38.60643 28.90801
#
# Velocity S-wave (km/s) = 2.91394 4.13096 3.57463
# Velocity P-wave (km/s) = 4.74625 7.15475 6.07113
#
# Compressibility (1/GPa) = 0.03944697
#
# Stress axis : x y z
#
# Youngs Moduli (GPa) = 75.11728 279.79198 30.79024
#
# Poissons Ratio (x) = 0.16506 -0.00217
# Poissons Ratio (y) = 0.04431 0.13669
# Poissons Ratio (z) = -0.00529 1.24207
#
# Static dielectric constant tensor:
#      x y z
#    x 1.956590 0.000000 0.000000 
#    y 0.000000 2.001020 0.000000 
#    z 0.000000 0.000000 1.788320 
# 
# From -- ./inp_files/26681.got.cif
#   From: 2010.05.17/outbox.cif.g08.bks.cpg/sg66_14_cif.got.tgz:26681.got - 2010.06.03 17:51:23.
