data_PCOD9500258
_publ_section_title
;
Structure prediction by ZEFSAII (Michael W. Deem and Ramdas Pophale) SiO2 
 PCOD9500258
Probable space group: C M M A
;
_chemical_formula_sum "Si O2"
_cell_formula_units_Z 96
_cell_length_a 8.544322
_cell_length_b 28.064320
_cell_length_c 24.875367
_cell_angle_alpha 90.000000
_cell_angle_beta 90.000000
_cell_angle_gamma 90.000000
_cell_volume 5964.878850
_symmetry_space_group_name_H-M "C M M A"
_symmetry_group_IT_number 67
_symmetry_cell_setting 'orthorhombic'
loop_
_space_group_symop_operation_xyz
x,y,z
-x,1/2-y,z
x,-y,-z
-x,1/2+y,-z
-x,-y,-z
x,1/2+y,-z
-x,y,z
x,1/2-y,z
1/2+x,1/2+y,z
1/2-x,-y,z
1/2+x,1/2-y,-z
1/2-x,y,-z
1/2-x,1/2-y,-z
1/2+x,y,-z
1/2-x,1/2+y,z
1/2+x,-y,z
loop_
_atom_site_type_symbol
_atom_site_label
_atom_site_fract_x
_atom_site_fract_y
_atom_site_fract_z
Si Si1 0.686323 0.853117 0.558217
Si Si2 0.188561 0.554128 0.831648
Si Si3 0.689418 0.196484 0.663839
Si Si4 0.310010 0.101882 0.721445
Si Si5 0.812032 0.052336 0.389037
Si Si6 0.186624 0.554454 0.055652
O O1 0.500000 0.852246 0.558448
O O2 0.750000 0.839308 0.500000
O O3 0.751092 0.819388 0.605352
O O4 0.745321 0.906322 0.572949
O O5 0.250000 0.500000 0.826316
O O6 0.242091 0.583084 0.779162
O O7 0.251823 0.574810 0.887981
O O8 0.000000 0.552989 0.833715
O O9 0.500000 0.195560 0.662653
O O10 0.740189 0.250000 0.677167
O O11 0.741095 0.155014 0.704885
O O12 0.500000 0.101843 0.722565
O O13 0.264514 0.067462 0.671905
O O14 0.000000 0.053258 0.392048
O O15 0.750000 0.000000 0.401764
O O16 0.250000 0.500000 0.056165
O O17 0.000000 0.553550 0.054854
O O18 0.250000 0.576290 0.000000
#
# Coordination Sequence:
#
# PCOD9500258 Si02
#       6
#    16  16  16  16  16  16
#     4  11  22  36  52  71  94 119 150 187 226 270
#     4  10  17  26  40  61  90 122 155 186 218 256
#     4   9  18  35  56  74  93 118 147 183 229 277
#     4   8  16  29  46  68  93 119 149 185 222 266
#     4  10  19  33  50  70  95 124 156 187 224 266
#     4  10  17  26  38  55  81 116 156 191 224 257
#
# _framework density 16.094207000000001
#
# number of rings (size 3 to 8) (size 9 to 14) (size 15 to 20)
#    0.000    2.333    0.000    7.000    0.000    1.000 
#    0.000    9.167    0.000    0.000    0.000    0.000 
#    0.000    0.667    0.000    1.167    0.000    2.000 
#
# Total GULP energy -267662.970612 kJ/mol
# GULP energy per Si atom -5576.311888 kJ/mol
# Density = 1.605758 g / cm^3
# Si number density = 16.094207 Si / 1000 Ang^3
#
#
#
# Elastic Constant Matrix: (Units=GPa)
#
#
# Indices 1 2 3 4 5 6 
#
# 1 61.2611 12.3471 21.1487 0.0000 0.0000 0.0000
# 2 12.3471 66.4029 23.4628 0.0000 0.0000 0.0000
# 3 21.1487 23.4628 119.3107 0.0000 0.0000 0.0000
# 4 0.0000 0.0000 0.0000 10.4325 0.0000 0.0000
# 5 0.0000 0.0000 0.0000 0.0000 35.1237 0.0000
# 6 0.0000 0.0000 0.0000 0.0000 0.0000 14.8738
#
#
#
# Elastic Compliance Matrix: (Units=1/GPa)
#
#
# Indices 1 2 3 4 5 6 
#
# 1 0.017722 -0.002348 -0.002680 0.000000 0.000000 0.000000
# 2 -0.002348 0.016495 -0.002828 0.000000 0.000000 0.000000
# 3 -0.002680 -0.002828 0.009412 0.000000 0.000000 0.000000
# 4 0.000000 0.000000 0.000000 0.095854 0.000000 0.000000
# 5 0.000000 0.000000 0.000000 0.000000 0.028471 0.000000
# 6 0.000000 0.000000 0.000000 0.000000 0.000000 0.067232
#
#
# Mechanical properties :
#
#
# Convention : Reuss Voigt Hill
#
# Bulk Modulus (GPa) = 35.81833 40.09910 37.95872
# Shear Modulus (GPa) = 19.21565 24.75374 21.98470
#
# Velocity S-wave (km/s) = 3.45910 3.92606 3.69995
# Velocity P-wave (km/s) = 6.18527 6.74694 6.47220
#
# Compressibility (1/GPa) = 0.02791866
#
# Stress axis : x y z
#
# Youngs Moduli (GPa) = 56.42729 60.62309 106.24181
#
# Poissons Ratio (x) = 0.14237 0.28468
# Poissons Ratio (y) = 0.13252 0.30041
# Poissons Ratio (z) = 0.15120 0.17142
#
# Static dielectric constant tensor:
#      x y z
#    x 1.541230 0.000000 0.000000 
#    y 0.000000 1.524530 0.000000 
#    z 0.000000 0.000000 1.566920 
# 
# From -- ./inp_files/40950.got.cif
#   From: 2010.05.17/outbox.cif.g08.bks.cpg/sg67_21_cif.got.tgz:40950.got - 2010.06.03 18:28:57.
