data_PCOD9500468
_publ_section_title
;
Structure prediction by ZEFSAII (Michael W. Deem and Ramdas Pophale) SiO2 
 PCOD9500468
Probable space group: C M M A
;
_chemical_formula_sum "Si O2"
_cell_formula_units_Z 116
_cell_length_a 14.510286
_cell_length_b 18.431610
_cell_length_c 18.458247
_cell_angle_alpha 90.000000
_cell_angle_beta 90.000000
_cell_angle_gamma 90.000000
_cell_volume 4936.619998
_symmetry_space_group_name_H-M "C M M A"
_symmetry_group_IT_number 67
_symmetry_cell_setting 'orthorhombic'
loop_
_space_group_symop_operation_xyz
x,y,z
-x,1/2-y,z
x,-y,-z
-x,1/2+y,-z
-x,-y,-z
x,1/2+y,-z
-x,y,z
x,1/2-y,z
1/2+x,1/2+y,z
1/2-x,-y,z
1/2+x,1/2-y,-z
1/2-x,y,-z
1/2-x,1/2-y,-z
1/2+x,y,-z
1/2-x,1/2+y,z
1/2+x,-y,z
loop_
_atom_site_type_symbol
_atom_site_label
_atom_site_fract_x
_atom_site_fract_y
_atom_site_fract_z
Si Si1 0.000000 0.250000 0.919627
Si Si2 0.859855 0.416749 0.491642
Si Si3 0.741987 0.623275 0.760228
Si Si4 0.644110 0.356188 0.018057
Si Si5 0.896245 0.549167 0.665090
Si Si6 0.398724 0.638212 0.143261
Si Si7 0.892432 0.035508 0.867010
Si Si8 0.897385 0.124963 0.644717
O O1 0.917347 0.311363 0.925472
O O2 0.894430 0.500000 0.500000
O O3 0.750000 0.418722 0.500000
O O4 0.886464 0.403915 0.408707
O O5 0.891571 0.366127 0.557651
O O6 0.815831 0.574989 0.716644
O O7 0.810505 0.667132 0.813166
O O8 0.672847 0.576728 0.810124
O O9 0.678813 0.658587 0.697470
O O10 0.636128 0.435543 0.053727
O O11 0.750000 0.339540 0.000000
O O12 0.599291 0.340700 0.940533
O O13 0.884364 0.462937 0.651522
O O14 0.000000 0.557827 0.693457
O O15 0.500000 0.655225 0.174156
O O16 0.383409 0.550998 0.139052
O O17 0.000000 0.050629 0.852448
O O18 0.000000 0.144187 0.669048
#
# Coordination Sequence:
#
# PCOD9500468 Si02
#       8
#     4  16  16  16  16  16  16  16
#     4  12  26  48  66  86 104 132 182 236 268 314
#     4   9  15  25  39  52  77 123 182 235 268 294
#     4  12  21  30  46  70 104 140 178 221 270 327
#     4  12  24  42  66  85 107 138 178 226 269 319
#     4  10  18  27  39  58  87 129 181 232 268 301
#     4  11  22  36  56  83 113 145 176 216 273 330
#     4  11  22  36  56  83 113 145 176 216 273 330
#     4  10  18  27  39  58  87 129 181 232 268 301
#
# _framework density 23.497858000000001
#
# number of rings (size 3 to 8) (size 9 to 14) (size 15 to 20)
#    0.000    1.241    4.138    4.345    0.000    5.517 
#    0.000    0.000    0.000    0.000    0.000    0.000 
#    0.000    0.000    0.000    0.000    0.000   16.552 
#
# Total GULP energy -323368.096630 kJ/mol
# GULP energy per Si atom -5575.312011 kJ/mol
# Density = 2.344438 g / cm^3
# Si number density = 23.497858 Si / 1000 Ang^3
#
#
#
# Elastic Constant Matrix: (Units=GPa)
#
#
# Indices 1 2 3 4 5 6 
#
# 1 187.0981 24.3779 30.3895 0.0000 0.0000 0.0000
# 2 24.3779 53.1777 11.8289 0.0000 0.0000 0.0000
# 3 30.3895 11.8289 105.5500 0.0000 0.0000 0.0000
# 4 0.0000 0.0000 0.0000 -55.4494 0.0000 0.0000
# 5 0.0000 0.0000 0.0000 0.0000 14.5433 0.0000
# 6 0.0000 0.0000 0.0000 0.0000 0.0000 -19.2344
#
#
#
# Elastic Compliance Matrix: (Units=1/GPa)
#
#
# Indices 1 2 3 4 5 6 
#
# 1 0.005887 -0.002381 -0.001428 0.000000 0.000000 0.000000
# 2 -0.002381 0.020249 -0.001584 0.000000 0.000000 0.000000
# 3 -0.001428 -0.001584 0.010063 0.000000 0.000000 0.000000
# 4 0.000000 0.000000 0.000000 -0.018034 0.000000 0.000000
# 5 0.000000 0.000000 0.000000 0.000000 0.068760 0.000000
# 6 0.000000 0.000000 0.000000 0.000000 0.000000 -0.051990
#
#
# Mechanical properties :
#
#
# Convention : Reuss Voigt Hill
#
# Bulk Modulus (GPa) = 39.35034 53.22427 46.28731
# Shear Modulus (GPa) = 92.26656 6.58721 49.42688
#
# Velocity S-wave (km/s) = 6.27305 1.67613 4.59133
# Velocity P-wave (km/s) = 8.32172 5.14254 6.91725
#
# Compressibility (1/GPa) = 0.02541274
#
# Stress axis : x y z
#
# Youngs Moduli (GPa) = 169.86609 49.38594 99.37551
#
# Poissons Ratio (x) = 0.11759 0.14192
# Poissons Ratio (y) = 0.40446 0.15738
# Poissons Ratio (z) = 0.24259 0.07821
#
# Static dielectric constant tensor:
#      x y z
#    x 1.892920 0.000000 0.000000 
#    y 0.000000 2.023880 0.000000 
#    z 0.000000 0.000000 2.001140 
# 
# From -- ./inp_files/33808.got.cif
#   From: 2010.05.17/outbox.cif.g08.bks.cpg/sg67_17_cif.got.tgz:33808.got - 2010.06.03 18:28:57.
