data_PCOD9500697
_publ_section_title
;
Structure prediction by ZEFSAII (Michael W. Deem and Ramdas Pophale) SiO2 
 PCOD9500697
Probable space group: C M M A
;
_chemical_formula_sum "Si O2"
_cell_formula_units_Z 96
_cell_length_a 22.713322
_cell_length_b 14.709546
_cell_length_c 12.363129
_cell_angle_alpha 90.000000
_cell_angle_beta 90.000000
_cell_angle_gamma 90.000000
_cell_volume 4130.554220
_symmetry_space_group_name_H-M "C M M A"
_symmetry_group_IT_number 67
_symmetry_cell_setting 'orthorhombic'
loop_
_space_group_symop_operation_xyz
x,y,z
-x,1/2-y,z
x,-y,-z
-x,1/2+y,-z
-x,-y,-z
x,1/2+y,-z
-x,y,z
x,1/2-y,z
1/2+x,1/2+y,z
1/2-x,-y,z
1/2+x,1/2-y,-z
1/2-x,y,-z
1/2-x,1/2-y,-z
1/2+x,y,-z
1/2-x,1/2+y,z
1/2+x,-y,z
loop_
_atom_site_type_symbol
_atom_site_label
_atom_site_fract_x
_atom_site_fract_y
_atom_site_fract_z
Si Si1 0.432745 0.358731 0.663626
Si Si2 0.000000 0.396506 0.963055
Si Si3 0.390215 0.140016 0.430291
Si Si4 0.308488 0.895681 0.758909
Si Si5 0.681019 0.390872 0.807500
Si Si6 0.871168 0.610479 0.023186
Si Si7 0.500000 0.139909 0.285931
O O1 0.500000 0.393098 0.683968
O O2 0.438671 0.250000 0.651938
O O3 0.405126 0.393900 0.550303
O O4 0.381714 0.372581 0.751419
O O5 0.062415 0.355754 0.997542
O O6 0.000000 0.397060 0.833673
O O7 0.000000 0.500000 0.000000
O O8 0.389947 0.250000 0.435366
O O9 0.333245 0.113144 0.361993
O O10 0.443366 0.110873 0.352742
O O11 0.242986 0.855083 0.762828
O O12 0.350129 0.860299 0.857195
O O13 0.310115 0.001500 0.791389
O O14 0.674070 0.360630 0.931119
O O15 0.873559 0.500000 0.000000
O O16 0.500000 0.250000 0.279710
#
# Coordination Sequence:
#
# PCOD9500697 Si02
#       7
#    16   8  16  16  16  16   8
#     4  10  22  42  61  82 115 154 196 241 292 351
#     4  10  18  30  55  88 116 143 186 242 286 339
#     4  10  20  37  62  84 109 149 193 240 289 336
#     4  10  20  38  59  85 117 150 193 241 280 343
#     4  10  22  37  58  84 118 157 190 229 291 351
#     4   9  18  33  55  84 113 149 187 229 282 340
#     4  10  18  34  57  85 116 146 190 241 286 331
#
# _framework density 23.241434000000002
#
# number of rings (size 3 to 8) (size 9 to 14) (size 15 to 20)
#    0.000    2.167    2.500    0.500    1.167    4.000 
#    3.000    5.833    0.000    2.000    0.000    0.000 
#    0.000    0.000    0.000    0.000    0.000    0.000 
#
# Total GULP energy -267825.757080 kJ/mol
# GULP energy per Si atom -5579.703273 kJ/mol
# Density = 2.318854 g / cm^3
# Si number density = 23.241434 Si / 1000 Ang^3
#
#
#
# Elastic Constant Matrix: (Units=GPa)
#
#
# Indices 1 2 3 4 5 6 
#
# 1 170.9278 2.7381 35.5951 0.0000 0.0000 0.0000
# 2 2.7381 61.9647 -2.0671 0.0000 0.0000 0.0000
# 3 35.5951 -2.0671 75.8756 0.0000 0.0000 0.0000
# 4 0.0000 0.0000 0.0000 35.1397 0.0000 0.0000
# 5 0.0000 0.0000 0.0000 0.0000 32.7393 0.0000
# 6 0.0000 0.0000 0.0000 0.0000 0.0000 -16.0243
#
#
#
# Elastic Compliance Matrix: (Units=1/GPa)
#
#
# Indices 1 2 3 4 5 6 
#
# 1 0.006493 -0.000389 -0.003057 0.000000 0.000000 0.000000
# 2 -0.000389 0.016176 0.000623 0.000000 0.000000 0.000000
# 3 -0.003057 0.000623 0.014630 0.000000 0.000000 0.000000
# 4 0.000000 0.000000 0.000000 0.028458 0.000000 0.000000
# 5 0.000000 0.000000 0.000000 0.000000 0.030544 0.000000
# 6 0.000000 0.000000 0.000000 0.000000 0.000000 -0.062405
#
#
# Mechanical properties :
#
#
# Convention : Reuss Voigt Hill
#
# Bulk Modulus (GPa) = 31.59071 42.36670 36.97870
# Shear Modulus (GPa) = 99.81349 28.53773 64.17561
#
# Velocity S-wave (km/s) = 6.56046 3.50792 5.26047
# Velocity P-wave (km/s) = 8.42663 5.88862 7.26925
#
# Compressibility (1/GPa) = 0.03165487
#
# Stress axis : x y z
#
# Youngs Moduli (GPa) = 154.00710 61.81927 68.35068
#
# Poissons Ratio (x) = 0.02404 0.20893
# Poissons Ratio (y) = 0.05989 -0.04259
# Poissons Ratio (z) = 0.47076 -0.03852
#
# Static dielectric constant tensor:
#      x y z
#    x 1.901200 0.000000 0.000000 
#    y 0.000000 1.947900 0.000000 
#    z 0.000000 0.000000 1.844130 
# 
# From -- ./inp_files/20914.got.cif
#   From: 2010.05.17/outbox.cif.g08.bks.cpg/sg67_11_cif.got.tgz:20914.got - 2010.06.03 18:28:57.
