data_PCOD9500396
_publ_section_title
;
Structure prediction by ZEFSAII (Michael W. Deem and Ramdas Pophale) SiO2 
 PCOD9500396
Probable space group: C M M A
;
_chemical_formula_sum "Si O2"
_cell_formula_units_Z 112
_cell_length_a 30.521177
_cell_length_b 14.278890
_cell_length_c 11.655619
_cell_angle_alpha 90.000000
_cell_angle_beta 90.000000
_cell_angle_gamma 90.000000
_cell_volume 5079.618172
_symmetry_space_group_name_H-M "C M M A"
_symmetry_group_IT_number 67
_symmetry_cell_setting 'orthorhombic'
loop_
_space_group_symop_operation_xyz
x,y,z
-x,1/2-y,z
x,-y,-z
-x,1/2+y,-z
-x,-y,-z
x,1/2+y,-z
-x,y,z
x,1/2-y,z
1/2+x,1/2+y,z
1/2-x,-y,z
1/2+x,1/2-y,-z
1/2-x,y,-z
1/2-x,1/2-y,-z
1/2+x,y,-z
1/2-x,1/2+y,z
1/2+x,-y,z
loop_
_atom_site_type_symbol
_atom_site_label
_atom_site_fract_x
_atom_site_fract_y
_atom_site_fract_z
Si Si1 0.049743 0.059879 0.272371
Si Si2 0.408707 0.393919 0.958859
Si Si3 0.640901 0.527715 0.368266
Si Si4 0.721449 0.362485 0.740373
Si Si5 0.187263 0.143185 0.026217
Si Si6 0.319834 0.862593 0.764626
Si Si7 0.949887 0.848213 0.192853
O O1 0.057750 0.105947 0.146732
O O2 0.000000 0.082400 0.312813
O O3 0.094388 0.078801 0.342728
O O4 0.052481 0.946860 0.256893
O O5 0.361388 0.359286 0.920490
O O6 0.403941 0.500000 0.000000
O O7 0.421925 0.346613 0.077266
O O8 0.642975 0.500000 0.500000
O O9 0.683212 0.588730 0.331286
O O10 0.645961 0.430960 0.295757
O O11 0.714816 0.250000 0.739433
O O12 0.717370 0.395638 0.873418
O O13 0.772010 0.378629 0.707682
O O14 0.201135 0.250000 0.007753
O O15 0.182916 0.105747 0.897879
O O16 0.329235 0.750000 0.760135
O O17 0.941690 0.750000 0.257790
O O18 0.000000 0.846977 0.151716
#
# Coordination Sequence:
#
# PCOD9500396 Si02
#       7
#    16  16  16  16  16  16  16
#     4  10  21  38  58  80 113 155 201 256 309 356
#     4  10  17  28  49  79 118 153 187 227 284 354
#     4  12  26  43  63  87 117 161 217 263 304 358
#     4  10  22  41  63  92 129 162 196 245 306 367
#     4  10  19  33  58  91 126 158 187 232 297 364
#     4  10  22  40  65  96 126 158 199 248 302 368
#     4   9  17  29  49  81 115 147 186 235 295 361
#
# _framework density 22.048901999999998
#
# number of rings (size 3 to 8) (size 9 to 14) (size 15 to 20)
#    0.000    1.857    1.429    3.429    0.000    7.143 
#    0.000    2.857    0.000    1.286    0.000    2.000 
#    0.000    0.000    0.000    0.000    0.000    0.000 
#
# Total GULP energy -312399.575876 kJ/mol
# GULP energy per Si atom -5578.563855 kJ/mol
# Density = 2.199872 g / cm^3
# Si number density = 22.048902 Si / 1000 Ang^3
#
#
#
# Elastic Constant Matrix: (Units=GPa)
#
#
# Indices 1 2 3 4 5 6 
#
# 1 154.4434 6.3179 23.8864 0.0000 0.0000 0.0000
# 2 6.3179 50.7965 -7.8541 0.0000 0.0000 0.0000
# 3 23.8864 -7.8541 74.0633 0.0000 0.0000 0.0000
# 4 0.0000 0.0000 0.0000 16.6319 0.0000 0.0000
# 5 0.0000 0.0000 0.0000 0.0000 8.4323 0.0000
# 6 0.0000 0.0000 0.0000 0.0000 0.0000 18.4856
#
#
#
# Elastic Compliance Matrix: (Units=1/GPa)
#
#
# Indices 1 2 3 4 5 6 
#
# 1 0.006888 -0.001220 -0.002351 0.000000 0.000000 0.000000
# 2 -0.001220 0.020231 0.002539 0.000000 0.000000 0.000000
# 3 -0.002351 0.002539 0.014529 0.000000 0.000000 0.000000
# 4 0.000000 0.000000 0.000000 0.060125 0.000000 0.000000
# 5 0.000000 0.000000 0.000000 0.000000 0.118592 0.000000
# 6 0.000000 0.000000 0.000000 0.000000 0.000000 0.054096
#
#
# Mechanical properties :
#
#
# Convention : Reuss Voigt Hill
#
# Bulk Modulus (GPa) = 25.26278 36.00038 30.63158
# Shear Modulus (GPa) = 17.25796 25.84017 21.54906
#
# Velocity S-wave (km/s) = 2.80074 3.42709 3.12962
# Velocity P-wave (km/s) = 4.68416 5.65887 5.19443
#
# Compressibility (1/GPa) = 0.03958393
#
# Stress axis : x y z
#
# Youngs Moduli (GPa) = 145.17188 49.42973 68.82579
#
# Poissons Ratio (x) = 0.06032 0.16181
# Poissons Ratio (y) = 0.17715 -0.17474
# Poissons Ratio (z) = 0.34130 -0.12550
#
# Static dielectric constant tensor:
#      x y z
#    x 1.847750 0.000000 0.000000 
#    y 0.000000 2.021790 0.000000 
#    z 0.000000 0.000000 1.773930 
# 
# From -- ./inp_files/23834.got.cif
#   From: 2010.05.17/outbox.cif.g08.bks.cpg/sg67_12_cif.got.tgz:23834.got - 2010.06.03 18:28:57.
