data_PCOD9500293
_publ_section_title
;
Structure prediction by ZEFSAII (Michael W. Deem and Ramdas Pophale) SiO2 
 PCOD9500293
Probable space group: C M M A
;
_chemical_formula_sum "Si O2"
_cell_formula_units_Z 72
_cell_length_a 7.702481
_cell_length_b 28.234657
_cell_length_c 14.491919
_cell_angle_alpha 90.000000
_cell_angle_beta 90.000000
_cell_angle_gamma 90.000000
_cell_volume 3151.657751
_symmetry_space_group_name_H-M "C M M A"
_symmetry_group_IT_number 67
_symmetry_cell_setting 'orthorhombic'
loop_
_space_group_symop_operation_xyz
x,y,z
-x,1/2-y,z
x,-y,-z
-x,1/2+y,-z
-x,-y,-z
x,1/2+y,-z
-x,y,z
x,1/2-y,z
1/2+x,1/2+y,z
1/2-x,-y,z
1/2+x,1/2-y,-z
1/2-x,y,-z
1/2-x,1/2-y,-z
1/2+x,y,-z
1/2-x,1/2+y,z
1/2+x,-y,z
loop_
_atom_site_type_symbol
_atom_site_label
_atom_site_fract_x
_atom_site_fract_y
_atom_site_fract_z
Si Si1 0.704372 0.555279 0.400229
Si Si2 0.285604 0.653929 0.793333
Si Si3 0.692165 0.445322 0.196315
Si Si4 0.207705 0.250000 0.892980
Si Si5 0.291886 0.695901 0.604213
O O1 0.500000 0.560837 0.382959
O O2 0.750000 0.500000 0.410069
O O3 0.750000 0.577010 0.500000
O O4 0.806448 0.565924 0.306525
O O5 0.500000 0.652181 0.794820
O O6 0.220808 0.603958 0.835880
O O7 0.229892 0.701162 0.846997
O O8 0.227583 0.663384 0.687364
O O9 0.500000 0.445620 0.157242
O O10 0.750000 0.500000 0.185691
O O11 0.000000 0.250000 0.879286
O O12 0.250000 0.250000 0.000000
O O13 0.500000 0.697004 0.611924
O O14 0.228282 0.750000 0.616905
O O15 0.250000 0.681814 0.500000
#
# Coordination Sequence:
#
# PCOD9500293 Si02
#       5
#    16  16  16   8  16
#     4  10  17  27  42  62  92 134 181 231 271 308
#     4   9  18  34  58  80 108 147 183 215 267 331
#     4  10  19  32  49  73 102 140 181 219 263 317
#     4  10  20  40  65  90 112 136 171 220 275 332
#     4   9  16  29  49  74 104 141 179 218 261 314
#
# _framework density 22.845120000000001
#
# number of rings (size 3 to 8) (size 9 to 14) (size 15 to 20)
#    0.000    2.444    1.111    4.667    0.000    0.889 
#    0.000    7.778    0.000    0.667    0.000    4.667 
#    0.000    0.000    0.000    0.000    0.000    0.000 
#
# Total GULP energy -200534.465788 kJ/mol
# GULP energy per Si atom -5570.401827 kJ/mol
# Density = 2.279312 g / cm^3
# Si number density = 22.845120 Si / 1000 Ang^3
#
#
#
# Elastic Constant Matrix: (Units=GPa)
#
#
# Indices 1 2 3 4 5 6 
#
# 1 61.3659 7.3999 -8.4492 0.0000 0.0000 0.0000
# 2 7.3999 256.3989 45.4957 0.0000 0.0000 0.0000
# 3 -8.4492 45.4957 45.4099 0.0000 0.0000 0.0000
# 4 0.0000 0.0000 0.0000 -2.8198 0.0000 0.0000
# 5 0.0000 0.0000 0.0000 0.0000 17.3531 0.0000
# 6 0.0000 0.0000 0.0000 0.0000 0.0000 22.1713
#
#
#
# Elastic Compliance Matrix: (Units=1/GPa)
#
#
# Indices 1 2 3 4 5 6 
#
# 1 0.017065 -0.001284 0.004462 0.000000 0.000000 0.000000
# 2 -0.001284 0.004840 -0.005088 0.000000 0.000000 0.000000
# 3 0.004462 -0.005088 0.027950 0.000000 0.000000 0.000000
# 4 0.000000 0.000000 0.000000 -0.354639 0.000000 0.000000
# 5 0.000000 0.000000 0.000000 0.000000 0.057627 0.000000
# 6 0.000000 0.000000 0.000000 0.000000 0.000000 0.045103
#
#
# Mechanical properties :
#
#
# Convention : Reuss Voigt Hill
#
# Bulk Modulus (GPa) = 21.72332 50.22972 35.97652
# Shear Modulus (GPa) = -27.33905 28.58946 0.62521
#
# Velocity S-wave (km/s) = -3.46311 3.54142 0.52371
# Velocity P-wave (km/s) = 2.54189 6.22551 4.01844
#
# Compressibility (1/GPa) = 0.04603349
#
# Stress axis : x y z
#
# Youngs Moduli (GPa) = 58.59983 206.60772 35.77864
#
# Poissons Ratio (x) = 0.26533 -0.15964
# Poissons Ratio (y) = 0.07526 0.18205
# Poissons Ratio (z) = -0.26146 1.05126
#
# Static dielectric constant tensor:
#      x y z
#    x 1.875500 0.000000 0.000000 
#    y 0.000000 1.912990 0.000000 
#    z 0.000000 0.000000 1.854740 
# 
# From -- ./inp_files/25060.got.cif
#   From: 2010.05.17/outbox.cif.g08.bks.cpg/sg67_13_cif.got.tgz:25060.got - 2010.06.03 18:28:57.
