data_PCOD9500464
_publ_section_title
;
Structure prediction by ZEFSAII (Michael W. Deem and Ramdas Pophale) SiO2 
 PCOD9500464
Probable space group: C M M A
;
_chemical_formula_sum "Si O2"
_cell_formula_units_Z 104
_cell_length_a 19.559602
_cell_length_b 14.376184
_cell_length_c 16.231325
_cell_angle_alpha 90.000000
_cell_angle_beta 90.000000
_cell_angle_gamma 90.000000
_cell_volume 4564.125838
_symmetry_space_group_name_H-M "C M M A"
_symmetry_group_IT_number 67
_symmetry_cell_setting 'orthorhombic'
loop_
_space_group_symop_operation_xyz
x,y,z
-x,1/2-y,z
x,-y,-z
-x,1/2+y,-z
-x,-y,-z
x,1/2+y,-z
-x,y,z
x,1/2-y,z
1/2+x,1/2+y,z
1/2-x,-y,z
1/2+x,1/2-y,-z
1/2-x,y,-z
1/2-x,1/2-y,-z
1/2+x,y,-z
1/2-x,1/2+y,z
1/2+x,-y,z
loop_
_atom_site_type_symbol
_atom_site_label
_atom_site_fract_x
_atom_site_fract_y
_atom_site_fract_z
Si Si1 0.855607 0.363331 0.951328
Si Si2 0.640825 0.146925 0.352910
Si Si3 0.500000 0.448027 0.312495
Si Si4 0.219484 0.136939 0.298409
Si Si5 0.352789 0.106354 0.529328
Si Si6 0.791262 0.863605 0.880308
Si Si7 0.000000 0.409743 0.438510
Si Si8 0.000000 0.863590 0.131681
O O1 0.854973 0.250000 0.951120
O O2 0.787366 0.391287 0.900463
O O3 0.929617 0.388610 0.915671
O O4 0.839883 0.394435 0.045065
O O5 0.626089 0.250000 0.320521
O O6 0.569823 0.093322 0.350723
O O7 0.701954 0.103017 0.301084
O O8 0.671046 0.154027 0.445444
O O9 0.500000 0.553350 0.344771
O O10 0.500000 0.417938 0.218151
O O11 0.222691 0.250000 0.298752
O O12 0.183798 0.111124 0.383516
O O13 0.187751 0.107622 0.211540
O O14 0.429866 0.140508 0.543654
O O15 0.351959 0.000000 0.500000
O O16 0.791680 0.750000 0.881886
O O17 0.000000 0.500000 0.500000
O O18 0.000000 0.750000 0.144726
#
# Coordination Sequence:
#
# PCOD9500464 Si02
#       8
#    16  16   8  16  16  16   8   8
#     4   8  14  26  46  71 105 142 165 202 264 326
#     4  11  21  33  53  80 110 140 175 225 281 318
#     4  12  20  35  53  78 108 145 178 224 269 314
#     4  10  21  34  52  83 113 138 177 228 270 318
#     4  11  21  39  56  71 106 145 185 225 263 318
#     4   8  14  28  47  69 104 142 169 200 262 329
#     4  10  20  41  55  69  98 142 191 227 254 316
#     4  10  18  26  45  81 112 131 169 221 268 314
#
# _framework density 22.7864
#
# number of rings (size 3 to 8) (size 9 to 14) (size 15 to 20)
#    0.000    2.154    3.077    3.462    0.000    4.923 
#    0.000    1.923    0.000    1.846    0.000    2.154 
#    0.000    0.000    0.000    0.000    0.000    0.000 
#
# Total GULP energy -290343.012480 kJ/mol
# GULP energy per Si atom -5583.519471 kJ/mol
# Density = 2.273454 g / cm^3
# Si number density = 22.786400 Si / 1000 Ang^3
#
#
#
# Elastic Constant Matrix: (Units=GPa)
#
#
# Indices 1 2 3 4 5 6 
#
# 1 96.0731 2.8175 76.4402 0.0000 0.0000 0.0000
# 2 2.8175 44.2636 14.1574 0.0000 0.0000 0.0000
# 3 76.4402 14.1574 199.6941 0.0000 0.0000 0.0000
# 4 0.0000 0.0000 0.0000 24.5417 0.0000 0.0000
# 5 0.0000 0.0000 0.0000 0.0000 29.1545 0.0000
# 6 0.0000 0.0000 0.0000 0.0000 0.0000 5.9661
#
#
#
# Elastic Compliance Matrix: (Units=1/GPa)
#
#
# Indices 1 2 3 4 5 6 
#
# 1 0.015002 0.000902 -0.005807 0.000000 0.000000 0.000000
# 2 0.000902 0.023170 -0.001988 0.000000 0.000000 0.000000
# 3 -0.005807 -0.001988 0.007371 0.000000 0.000000 0.000000
# 4 0.000000 0.000000 0.000000 0.040747 0.000000 0.000000
# 5 0.000000 0.000000 0.000000 0.000000 0.034300 0.000000
# 6 0.000000 0.000000 0.000000 0.000000 0.000000 0.167613
#
#
# Mechanical properties :
#
#
# Convention : Reuss Voigt Hill
#
# Bulk Modulus (GPa) = 31.48702 58.54010 45.01356
# Shear Modulus (GPa) = 15.99616 28.37352 22.18484
#
# Velocity S-wave (km/s) = 2.65241 3.53256 3.12364
# Velocity P-wave (km/s) = 4.81962 6.51039 5.72774
#
# Compressibility (1/GPa) = 0.03175912
#
# Stress axis : x y z
#
# Youngs Moduli (GPa) = 66.65634 43.15861 135.66108
#
# Poissons Ratio (x) = -0.03894 0.78774
# Poissons Ratio (y) = -0.06014 0.26970
# Poissons Ratio (z) = 0.38705 0.08580
#
# Static dielectric constant tensor:
#      x y z
#    x 1.822320 0.000000 0.000000 
#    y 0.000000 1.997240 0.000000 
#    z 0.000000 0.000000 1.848690 
# 
# From -- ./inp_files/29516.got.cif
#   From: 2010.05.17/outbox.cif.g08.bks.cpg/sg67_15_cif.got.tgz:29516.got - 2010.06.03 18:28:57.
