data_PCOD9500716
_publ_section_title
;
Structure prediction by ZEFSAII (Michael W. Deem and Ramdas Pophale) SiO2 
 PCOD9500716
Probable space group: C M M A
;
_chemical_formula_sum "Si O2"
_cell_formula_units_Z 96
_cell_length_a 8.737660
_cell_length_b 18.455242
_cell_length_c 32.539278
_cell_angle_alpha 90.000000
_cell_angle_beta 90.000000
_cell_angle_gamma 90.000000
_cell_volume 5247.141768
_symmetry_space_group_name_H-M "C M M A"
_symmetry_group_IT_number 67
_symmetry_cell_setting 'orthorhombic'
loop_
_space_group_symop_operation_xyz
x,y,z
-x,1/2-y,z
x,-y,-z
-x,1/2+y,-z
-x,-y,-z
x,1/2+y,-z
-x,y,z
x,1/2-y,z
1/2+x,1/2+y,z
1/2-x,-y,z
1/2+x,1/2-y,-z
1/2-x,y,-z
1/2-x,1/2-y,-z
1/2+x,y,-z
1/2-x,1/2+y,z
1/2+x,-y,z
loop_
_atom_site_type_symbol
_atom_site_label
_atom_site_fract_x
_atom_site_fract_y
_atom_site_fract_z
Si Si1 0.681449 0.663485 0.457517
Si Si2 0.684213 0.918945 0.710046
Si Si3 0.816065 0.665907 0.372339
Si Si4 0.683230 0.582101 0.205564
Si Si5 0.682459 0.418911 0.120971
Si Si6 0.679585 0.337092 0.956093
O O1 0.500000 0.655710 0.458163
O O2 0.718697 0.750000 0.457075
O O3 0.750000 0.633730 0.500000
O O4 0.747821 0.634794 0.414632
O O5 0.500000 0.921422 0.713635
O O6 0.727060 0.875977 0.668941
O O7 0.753498 0.885563 0.751917
O O8 0.750000 0.000000 0.706366
O O9 0.768255 0.750000 0.368466
O O10 0.000000 0.664186 0.375781
O O11 0.500000 0.580282 0.205568
O O12 0.750000 0.500000 0.205604
O O13 0.746192 0.613830 0.162937
O O14 0.500000 0.422896 0.124938
O O15 0.750000 0.500000 0.116450
O O16 0.732356 0.373737 0.081405
O O17 0.500000 0.356098 0.954387
O O18 0.692884 0.250000 0.953053
O O19 0.750000 0.359011 0.000000
#
# Coordination Sequence:
#
# PCOD9500716 Si02
#       6
#    16  16  16  16  16  16
#     4   9  16  26  43  67  94 124 158 196 239 288
#     4  10  19  32  51  73  98 130 166 203 244 295
#     4   9  18  32  49  70  97 127 160 200 244 288
#     4  10  18  31  51  74 101 132 168 209 252 298
#     4  11  21  35  56  81 108 136 172 216 261 304
#     4  10  21  38  58  80 108 141 176 212 254 306
#
# _framework density 18.295674000000002
#
# number of rings (size 3 to 8) (size 9 to 14) (size 15 to 20)
#    0.000    2.167    0.000    6.500    0.000    4.667 
#    0.000    2.500    0.000    3.500    0.000    3.500 
#    0.000    0.000    0.000    0.000    0.000    0.000 
#
# Total GULP energy -267754.985120 kJ/mol
# GULP energy per Si atom -5578.228857 kJ/mol
# Density = 1.825403 g / cm^3
# Si number density = 18.295674 Si / 1000 Ang^3
#
#
#
# Elastic Constant Matrix: (Units=GPa)
#
#
# Indices 1 2 3 4 5 6 
#
# 1 100.2858 18.5432 73.7286 0.0000 0.0000 0.0000
# 2 18.5432 15.8263 38.8447 0.0000 0.0000 0.0000
# 3 73.7286 38.8447 218.9910 0.0000 0.0000 0.0000
# 4 0.0000 0.0000 0.0000 25.4631 0.0000 0.0000
# 5 0.0000 0.0000 0.0000 0.0000 38.1709 0.0000
# 6 0.0000 0.0000 0.0000 0.0000 0.0000 16.7262
#
#
#
# Elastic Compliance Matrix: (Units=1/GPa)
#
#
# Indices 1 2 3 4 5 6 
#
# 1 0.013866 -0.008480 -0.003164 0.000000 0.000000 0.000000
# 2 -0.008480 0.117092 -0.017915 0.000000 0.000000 0.000000
# 3 -0.003164 -0.017915 0.008809 0.000000 0.000000 0.000000
# 4 0.000000 0.000000 0.000000 0.039273 0.000000 0.000000
# 5 0.000000 0.000000 0.000000 0.000000 0.026198 0.000000
# 6 0.000000 0.000000 0.000000 0.000000 0.000000 0.059787
#
#
# Mechanical properties :
#
#
# Convention : Reuss Voigt Hill
#
# Bulk Modulus (GPa) = 12.39933 66.37068 39.38501
# Shear Modulus (GPa) = 14.24398 29.67114 21.95756
#
# Velocity S-wave (km/s) = 2.79327 4.03147 3.46808
# Velocity P-wave (km/s) = 4.14669 7.61747 6.13273
#
# Compressibility (1/GPa) = 0.08064950
#
# Stress axis : x y z
#
# Youngs Moduli (GPa) = 72.12082 8.54027 113.51552
#
# Poissons Ratio (x) = 0.07242 0.35916
# Poissons Ratio (y) = 0.61159 2.03361
# Poissons Ratio (z) = 0.22819 0.15300
#
# Static dielectric constant tensor:
#      x y z
#    x 1.613890 0.000000 0.000000 
#    y 0.000000 1.624690 0.000000 
#    z 0.000000 0.000000 1.665010 
# 
# From -- ./inp_files/40784.got.cif
#   From: 2010.05.17/outbox.cif.g08.bks.cpg/sg67_21_cif.got.tgz:40784.got - 2010.06.03 18:28:57.
