data_PCOD9500996
_publ_section_title
;
Structure prediction by ZEFSAII (Michael W. Deem and Ramdas Pophale) SiO2 
 PCOD9500996
Probable space group: C M M A
;
_chemical_formula_sum "Si O2"
_cell_formula_units_Z 116
_cell_length_a 17.710440
_cell_length_b 16.771473
_cell_length_c 19.159599
_cell_angle_alpha 90.000000
_cell_angle_beta 90.000000
_cell_angle_gamma 90.000000
_cell_volume 5690.978877
_symmetry_space_group_name_H-M "C M M A"
_symmetry_group_IT_number 67
_symmetry_cell_setting 'orthorhombic'
loop_
_space_group_symop_operation_xyz
x,y,z
-x,1/2-y,z
x,-y,-z
-x,1/2+y,-z
-x,-y,-z
x,1/2+y,-z
-x,y,z
x,1/2-y,z
1/2+x,1/2+y,z
1/2-x,-y,z
1/2+x,1/2-y,-z
1/2-x,y,-z
1/2-x,1/2-y,-z
1/2+x,y,-z
1/2-x,1/2+y,z
1/2+x,-y,z
loop_
_atom_site_type_symbol
_atom_site_label
_atom_site_fract_x
_atom_site_fract_y
_atom_site_fract_z
Si Si1 0.329904 0.838620 0.462276
Si Si2 0.912783 0.933776 0.149457
Si Si3 0.089459 0.076797 0.583788
Si Si4 0.000000 0.750000 0.823458
Si Si5 0.371531 0.111540 0.821520
Si Si6 0.324130 0.944281 0.332403
Si Si7 0.408677 0.663652 0.717412
Si Si8 0.263758 0.096157 0.078509
O O1 0.365229 0.750000 0.461977
O O2 0.250000 0.834078 0.500000
O O3 0.375911 0.901858 0.509250
O O4 0.314481 0.870632 0.385026
O O5 0.889341 0.904173 0.227097
O O6 0.850991 0.894006 0.099669
O O7 0.000000 0.911019 0.136795
O O8 0.904948 0.028995 0.146806
O O9 0.114361 0.145546 0.638571
O O10 0.000000 0.075579 0.576832
O O11 0.115709 0.998976 0.625974
O O12 0.066523 0.819872 0.822923
O O13 0.348816 0.088193 0.742451
O O14 0.296226 0.130760 0.866361
O O15 0.250000 0.000000 0.326616
O O16 0.500000 0.664960 0.716301
O O17 0.380873 0.750000 0.740739
O O18 0.250000 0.000000 0.080363
O O19 0.250000 0.124439 0.000000
#
# Coordination Sequence:
#
# PCOD9500996 Si02
#       8
#    16  16  16   4  16  16  16  16
#     4  11  25  43  61  89 130 169 219 281 344 414
#     4  10  18  37  67 101 135 176 221 284 342 411
#     4  11  23  40  64  94 124 170 224 282 347 406
#     4  12  28  48  70 102 140 192 236 290 334 410
#     4  11  24  44  68  97 139 182 241 283 338 416
#     4  12  24  42  68  95 127 181 228 283 345 412
#     4   9  18  33  58  91 127 160 207 271 336 401
#     4   9  20  41  68 103 139 179 229 284 340 413
#
# _framework density 20.383137000000001
#
# number of rings (size 3 to 8) (size 9 to 14) (size 15 to 20)
#    0.000    1.517    3.448    2.069    1.931    1.931 
#    2.483    1.724    0.000    0.000    0.000    0.000 
#    0.000    0.000    0.000    0.000    0.000    0.000 
#
# Total GULP energy -323169.381018 kJ/mol
# GULP energy per Si atom -5571.885880 kJ/mol
# Density = 2.033674 g / cm^3
# Si number density = 20.383137 Si / 1000 Ang^3
#
#
#
# Elastic Constant Matrix: (Units=GPa)
#
#
# Indices 1 2 3 4 5 6 
#
# 1 136.8935 32.8537 75.7263 0.0000 0.0000 0.0000
# 2 32.8537 84.2789 36.3798 0.0000 0.0000 0.0000
# 3 75.7263 36.3798 128.7566 0.0000 0.0000 0.0000
# 4 0.0000 0.0000 0.0000 12.8493 0.0000 0.0000
# 5 0.0000 0.0000 0.0000 0.0000 24.0383 0.0000
# 6 0.0000 0.0000 0.0000 0.0000 0.0000 16.3743
#
#
#
# Elastic Compliance Matrix: (Units=1/GPa)
#
#
# Indices 1 2 3 4 5 6 
#
# 1 0.011040 -0.001709 -0.006010 0.000000 0.000000 0.000000
# 2 -0.001709 0.013778 -0.002888 0.000000 0.000000 0.000000
# 3 -0.006010 -0.002888 0.012117 0.000000 0.000000 0.000000
# 4 0.000000 0.000000 0.000000 0.077825 0.000000 0.000000
# 5 0.000000 0.000000 0.000000 0.000000 0.041600 0.000000
# 6 0.000000 0.000000 0.000000 0.000000 0.000000 0.061071
#
#
# Mechanical properties :
#
#
# Convention : Reuss Voigt Hill
#
# Bulk Modulus (GPa) = 63.60803 71.09428 67.35115
# Shear Modulus (GPa) = 20.50139 24.31699 22.40919
#
# Velocity S-wave (km/s) = 3.17488 3.45772 3.31932
# Velocity P-wave (km/s) = 6.68683 7.13413 6.91410
#
# Compressibility (1/GPa) = 0.01572129
#
# Stress axis : x y z
#
# Youngs Moduli (GPa) = 90.58219 72.57848 82.52781
#
# Poissons Ratio (x) = 0.12406 0.49598
# Poissons Ratio (y) = 0.15483 0.23832
# Poissons Ratio (z) = 0.54439 0.20958
#
# Static dielectric constant tensor:
#      x y z
#    x 1.716800 0.000000 0.000000 
#    y 0.000000 1.774640 0.000000 
#    z 0.000000 0.000000 1.720990 
# 
# From -- ./inp_files/34339.got.cif
#   From: 2010.05.17/outbox.cif.g08.bks.cpg/sg67_18_cif.got.tgz:34339.got - 2010.06.03 18:28:57.
