data_PCOD9500357
_publ_section_title
;
Structure prediction by ZEFSAII (Michael W. Deem and Ramdas Pophale) SiO2 
 PCOD9500357
Probable space group: C M M A
;
_chemical_formula_sum "Si O2"
_cell_formula_units_Z 80
_cell_length_a 15.033667
_cell_length_b 8.672529
_cell_length_c 27.936977
_cell_angle_alpha 90.000000
_cell_angle_beta 90.000000
_cell_angle_gamma 90.000000
_cell_volume 3642.420632
_symmetry_space_group_name_H-M "C M M A"
_symmetry_group_IT_number 67
_symmetry_cell_setting 'orthorhombic'
loop_
_space_group_symop_operation_xyz
x,y,z
-x,1/2-y,z
x,-y,-z
-x,1/2+y,-z
-x,-y,-z
x,1/2+y,-z
-x,y,z
x,1/2-y,z
1/2+x,1/2+y,z
1/2-x,-y,z
1/2+x,1/2-y,-z
1/2-x,y,-z
1/2-x,1/2-y,-z
1/2+x,y,-z
1/2-x,1/2+y,z
1/2+x,-y,z
loop_
_atom_site_type_symbol
_atom_site_label
_atom_site_fract_x
_atom_site_fract_y
_atom_site_fract_z
Si Si1 0.108074 0.068313 0.950265
Si Si2 0.848888 0.931854 0.645876
Si Si3 0.351461 0.566070 0.549023
Si Si4 0.395363 0.561769 0.847412
Si Si5 0.605407 0.923988 0.744900
O O1 0.125184 0.250000 0.951175
O O2 0.141354 0.006680 0.898700
O O3 0.000000 0.048471 0.950026
O O4 0.141653 0.000000 0.000000
O O5 0.848338 0.750000 0.638379
O O6 0.750000 0.000000 0.647626
O O7 0.892554 0.010200 0.599189
O O8 0.885155 0.974579 0.697862
O O9 0.391904 0.500000 0.500000
O O10 0.348995 0.750000 0.547222
O O11 0.250000 0.500000 0.549730
O O12 0.500000 0.519769 0.848578
O O13 0.391072 0.750000 0.846863
O O14 0.358450 0.512307 0.795626
O O15 0.500000 0.908152 0.752657
O O16 0.641430 0.750000 0.735852
#
# Coordination Sequence:
#
# PCOD9500357 Si02
#       5
#    16  16  16  16  16
#     4   8  12  18  29  47  72 103 138 175 215 258
#     4  11  21  33  49  71  98 125 156 193 232 272
#     4  10  17  28  46  69  95 121 151 186 228 273
#     4   7  11  21  37  55  77 109 147 181 216 265
#     4   9  17  31  50  69  91 123 160 194 231 277
#
# _framework density 21.963415000000001
#
# number of rings (size 3 to 8) (size 9 to 14) (size 15 to 20)
#    0.000    3.000    0.000    7.800    0.000    0.400 
#    0.000    1.000    0.000    4.200    0.000    0.000 
#    0.000    0.800    0.000    9.200    0.000   10.800 
#
# Total GULP energy -222830.463615 kJ/mol
# GULP energy per Si atom -5570.761590 kJ/mol
# Density = 2.191343 g / cm^3
# Si number density = 21.963415 Si / 1000 Ang^3
#
#
#
# Elastic Constant Matrix: (Units=GPa)
#
#
# Indices 1 2 3 4 5 6 
#
# 1 41.4963 5.4296 15.6708 0.0000 0.0000 0.0000
# 2 5.4296 105.6736 77.2294 0.0000 0.0000 0.0000
# 3 15.6708 77.2294 268.0953 0.0000 0.0000 0.0000
# 4 0.0000 0.0000 0.0000 31.0610 0.0000 0.0000
# 5 0.0000 0.0000 0.0000 0.0000 10.3560 0.0000
# 6 0.0000 0.0000 0.0000 0.0000 0.0000 2.4584
#
#
#
# Elastic Compliance Matrix: (Units=1/GPa)
#
#
# Indices 1 2 3 4 5 6 
#
# 1 0.024649 -0.000270 -0.001363 0.000000 0.000000 0.000000
# 2 -0.000270 0.011990 -0.003438 0.000000 0.000000 0.000000
# 3 -0.001363 -0.003438 0.004800 0.000000 0.000000 0.000000
# 4 0.000000 0.000000 0.000000 0.032195 0.000000 0.000000
# 5 0.000000 0.000000 0.000000 0.000000 0.096562 0.000000
# 6 0.000000 0.000000 0.000000 0.000000 0.000000 0.406772
#
#
# Mechanical properties :
#
#
# Convention : Reuss Voigt Hill
#
# Bulk Modulus (GPa) = 31.95333 67.99166 49.97250
# Shear Modulus (GPa) = 8.36761 29.90411 19.13586
#
# Velocity S-wave (km/s) = 1.95399 3.69391 2.95491
# Velocity P-wave (km/s) = 4.43517 7.01550 5.86890
#
# Compressibility (1/GPa) = 0.03129564
#
# Stress axis : x y z
#
# Youngs Moduli (GPa) = 40.57024 83.40570 208.33103
#
# Poissons Ratio (x) = 0.02256 0.28393
# Poissons Ratio (y) = 0.01097 0.71624
# Poissons Ratio (z) = 0.05529 0.28675
#
# Static dielectric constant tensor:
#      x y z
#    x 1.925710 0.000000 0.000000 
#    y 0.000000 1.763880 0.000000 
#    z 0.000000 0.000000 1.937380 
# 
# From -- ./inp_files/43335.got.cif
#   From: 2010.05.17/outbox.cif.g08.bks.cpg/sg67_22_cif.got.tgz:43335.got - 2010.06.03 18:28:57.
