data_PCOD9500412
_publ_section_title
;
Structure prediction by ZEFSAII (Michael W. Deem and Ramdas Pophale) SiO2 
 PCOD9500412
Probable space group: C M M A
;
_chemical_formula_sum "Si O2"
_cell_formula_units_Z 88
_cell_length_a 8.538125
_cell_length_b 20.658349
_cell_length_c 26.493054
_cell_angle_alpha 90.000000
_cell_angle_beta 90.000000
_cell_angle_gamma 90.000000
_cell_volume 4672.939340
_symmetry_space_group_name_H-M "C M M A"
_symmetry_group_IT_number 67
_symmetry_cell_setting 'orthorhombic'
loop_
_space_group_symop_operation_xyz
x,y,z
-x,1/2-y,z
x,-y,-z
-x,1/2+y,-z
-x,-y,-z
x,1/2+y,-z
-x,y,z
x,1/2-y,z
1/2+x,1/2+y,z
1/2-x,-y,z
1/2+x,1/2-y,-z
1/2-x,y,-z
1/2-x,1/2-y,-z
1/2+x,y,-z
1/2-x,1/2+y,z
1/2+x,-y,z
loop_
_atom_site_type_symbol
_atom_site_label
_atom_site_fract_x
_atom_site_fract_y
_atom_site_fract_z
Si Si1 0.184925 0.322678 0.767678
Si Si2 0.000000 0.950507 0.546059
Si Si3 0.750000 0.500000 0.376369
Si Si4 0.186014 0.573770 0.051898
Si Si5 0.819273 0.360201 0.651544
Si Si6 0.500000 0.824224 0.411455
Si Si7 0.684774 0.427411 0.842241
O O1 0.238725 0.250000 0.780828
O O2 0.198834 0.332189 0.707537
O O3 0.273235 0.378832 0.797378
O O4 0.000000 0.327766 0.779777
O O5 0.861778 0.966686 0.583552
O O6 0.000000 0.873324 0.540519
O O7 0.000000 0.000000 0.500000
O O8 0.814034 0.560979 0.345563
O O9 0.250000 0.500000 0.052537
O O10 0.243184 0.600208 0.105541
O O11 0.000000 0.572449 0.050080
O O12 0.250000 0.604154 0.000000
O O13 0.663957 0.337249 0.619986
O O14 0.000000 0.344011 0.633475
O O15 0.500000 0.750000 0.426454
O O16 0.500000 0.433158 0.848730
O O17 0.750000 0.500000 0.833196
#
# Coordination Sequence:
#
# PCOD9500412 Si02
#       7
#    16   8   8  16  16   8  16
#     4  10  22  39  58  80 112 155 192 235 296 354
#     4  10  20  36  62  90 126 160 198 251 305 352
#     4  10  19  36  60  94 118 156 203 244 298 354
#     4  10  17  29  50  76 108 143 185 233 291 348
#     4  10  21  38  61  88 123 157 200 250 302 357
#     4  10  22  38  62  92 122 160 210 250 298 361
#     4  11  22  36  54  81 115 148 191 241 290 345
#
# _framework density 18.831828999999999
#
# number of rings (size 3 to 8) (size 9 to 14) (size 15 to 20)
#    0.000    1.818    0.909    5.727    2.545    1.455 
#    0.000    0.000    0.000   10.364    0.000    0.000 
#    0.000    0.000    0.000    0.000    0.000    0.000 
#
# Total GULP energy -244950.958362 kJ/mol
# GULP energy per Si atom -5567.067236 kJ/mol
# Density = 1.878897 g / cm^3
# Si number density = 18.831829 Si / 1000 Ang^3
#
#
#
# Elastic Constant Matrix: (Units=GPa)
#
#
# Indices 1 2 3 4 5 6 
#
# 1 136.5698 34.8807 29.5338 0.0000 0.0000 0.0000
# 2 34.8807 118.2287 35.6606 0.0000 0.0000 0.0000
# 3 29.5338 35.6606 59.0584 0.0000 0.0000 0.0000
# 4 0.0000 0.0000 0.0000 6.0949 0.0000 0.0000
# 5 0.0000 0.0000 0.0000 0.0000 16.8483 0.0000
# 6 0.0000 0.0000 0.0000 0.0000 0.0000 15.5369
#
#
#
# Elastic Compliance Matrix: (Units=1/GPa)
#
#
# Indices 1 2 3 4 5 6 
#
# 1 0.008418 -0.001484 -0.003313 0.000000 0.000000 0.000000
# 2 -0.001484 0.010603 -0.005660 0.000000 0.000000 0.000000
# 3 -0.003313 -0.005660 0.022007 0.000000 0.000000 0.000000
# 4 0.000000 0.000000 0.000000 0.164072 0.000000 0.000000
# 5 0.000000 0.000000 0.000000 0.000000 0.059353 0.000000
# 6 0.000000 0.000000 0.000000 0.000000 0.000000 0.064363
#
#
# Mechanical properties :
#
#
# Convention : Reuss Voigt Hill
#
# Bulk Modulus (GPa) = 49.72005 57.11190 53.41597
# Shear Modulus (GPa) = 14.02775 21.94814 17.98794
#
# Velocity S-wave (km/s) = 2.73224 3.41762 3.09396
# Velocity P-wave (km/s) = 6.03431 6.77987 6.41793
#
# Compressibility (1/GPa) = 0.02011261
#
# Stress axis : x y z
#
# Youngs Moduli (GPa) = 118.79513 94.31009 45.43968
#
# Poissons Ratio (x) = 0.13996 0.15056
# Poissons Ratio (y) = 0.17630 0.25720
# Poissons Ratio (z) = 0.39362 0.53383
#
# Static dielectric constant tensor:
#      x y z
#    x 1.671460 0.000000 0.000000 
#    y 0.000000 1.686350 0.000000 
#    z 0.000000 0.000000 1.662300 
# 
# From -- ./inp_files/40721.got.cif
#   From: 2010.05.17/outbox.cif.g08.bks.cpg/sg67_21_cif.got.tgz:40721.got - 2010.06.03 18:28:57.
