data_PCOD9500537
_publ_section_title
;
Structure prediction by ZEFSAII (Michael W. Deem and Ramdas Pophale) SiO2 
 PCOD9500537
Probable space group: C M M A
;
_chemical_formula_sum "Si O2"
_cell_formula_units_Z 80
_cell_length_a 8.502024
_cell_length_b 28.178601
_cell_length_c 19.337527
_cell_angle_alpha 90.000000
_cell_angle_beta 90.000000
_cell_angle_gamma 90.000000
_cell_volume 4632.790777
_symmetry_space_group_name_H-M "C M M A"
_symmetry_group_IT_number 67
_symmetry_cell_setting 'orthorhombic'
loop_
_space_group_symop_operation_xyz
x,y,z
-x,1/2-y,z
x,-y,-z
-x,1/2+y,-z
-x,-y,-z
x,1/2+y,-z
-x,y,z
x,1/2-y,z
1/2+x,1/2+y,z
1/2-x,-y,z
1/2+x,1/2-y,-z
1/2-x,y,-z
1/2-x,1/2-y,-z
1/2+x,y,-z
1/2-x,1/2+y,z
1/2+x,-y,z
loop_
_atom_site_type_symbol
_atom_site_label
_atom_site_fract_x
_atom_site_fract_y
_atom_site_fract_z
Si Si1 0.189172 0.446230 0.925767
Si Si2 0.309715 0.196688 0.289259
Si Si3 0.191130 0.602978 0.214070
Si Si4 0.811208 0.947625 0.355343
Si Si5 0.187108 0.853873 0.575284
O O1 0.250000 0.500000 0.917308
O O2 0.244500 0.415690 0.860102
O O3 0.000000 0.447066 0.926952
O O4 0.250000 0.428683 0.000000
O O5 0.500000 0.196241 0.289456
O O6 0.256508 0.250000 0.273466
O O7 0.256971 0.155711 0.236052
O O8 0.253597 0.179949 0.364638
O O9 0.236518 0.568219 0.277315
O O10 0.000000 0.603151 0.212617
O O11 0.744400 0.906949 0.405190
O O12 0.000000 0.946582 0.359161
O O13 0.750000 0.000000 0.370784
O O14 0.250000 0.840717 0.500000
O O15 0.000000 0.852414 0.576109
#
# Coordination Sequence:
#
# PCOD9500537 Si02
#       5
#    16  16  16  16  16
#     4  10  18  29  45  69 101 133 165 197 234 280
#     4   9  18  35  57  77  96 122 159 203 250 297
#     4   8  16  30  49  72  98 127 161 201 241 287
#     4  10  19  33  51  73  99 129 166 203 244 292
#     4  11  22  36  52  72  99 129 162 201 245 292
#
# _framework density 17.26821
#
# number of rings (size 3 to 8) (size 9 to 14) (size 15 to 20)
#    0.000    2.400    0.000    5.400    0.000    1.200 
#    0.000   11.000    0.000    0.600    0.000    0.000 
#    0.000    0.000    0.000    0.000    0.000    0.800 
#
# Total GULP energy -223163.627399 kJ/mol
# GULP energy per Si atom -5579.090685 kJ/mol
# Density = 1.722891 g / cm^3
# Si number density = 17.268210 Si / 1000 Ang^3
#
#
#
# Elastic Constant Matrix: (Units=GPa)
#
#
# Indices 1 2 3 4 5 6 
#
# 1 35.9621 9.6321 10.0222 0.0000 0.0000 0.0000
# 2 9.6321 75.4392 25.4552 0.0000 0.0000 0.0000
# 3 10.0222 25.4552 110.6630 0.0000 0.0000 0.0000
# 4 0.0000 0.0000 0.0000 7.7578 0.0000 0.0000
# 5 0.0000 0.0000 0.0000 0.0000 19.6078 0.0000
# 6 0.0000 0.0000 0.0000 0.0000 0.0000 19.1941
#
#
#
# Elastic Compliance Matrix: (Units=1/GPa)
#
#
# Indices 1 2 3 4 5 6 
#
# 1 0.029169 -0.003071 -0.001935 0.000000 0.000000 0.000000
# 2 -0.003071 0.014695 -0.003102 0.000000 0.000000 0.000000
# 3 -0.001935 -0.003102 0.009925 0.000000 0.000000 0.000000
# 4 0.000000 0.000000 0.000000 0.128902 0.000000 0.000000
# 5 0.000000 0.000000 0.000000 0.000000 0.051000 0.000000
# 6 0.000000 0.000000 0.000000 0.000000 0.000000 0.052099
#
#
# Mechanical properties :
#
#
# Convention : Reuss Voigt Hill
#
# Bulk Modulus (GPa) = 26.61568 34.69814 30.65691
# Shear Modulus (GPa) = 15.89665 21.10892 18.50278
#
# Velocity S-wave (km/s) = 3.03739 3.50010 3.27692
# Velocity P-wave (km/s) = 5.26759 6.03917 5.66653
#
# Compressibility (1/GPa) = 0.03757184
#
# Stress axis : x y z
#
# Youngs Moduli (GPa) = 34.28293 68.05250 100.75335
#
# Poissons Ratio (x) = 0.20901 0.19498
# Poissons Ratio (y) = 0.10529 0.31253
# Poissons Ratio (z) = 0.06635 0.21110
#
# Static dielectric constant tensor:
#      x y z
#    x 1.584990 0.000000 0.000000 
#    y 0.000000 1.578390 0.000000 
#    z 0.000000 0.000000 1.581280 
# 
# From -- ./inp_files/32134.got.cif
#   From: 2010.05.17/outbox.cif.g08.bks.cpg/sg67_17_cif.got.tgz:32134.got - 2010.06.03 18:28:57.
