data_PCOD9500897
_publ_section_title
;
Structure prediction by ZEFSAII (Michael W. Deem and Ramdas Pophale) SiO2 
 PCOD9500897
Probable space group: C M M A
;
_chemical_formula_sum "Si O2"
_cell_formula_units_Z 104
_cell_length_a 31.050263
_cell_length_b 9.193213
_cell_length_c 20.630271
_cell_angle_alpha 90.000000
_cell_angle_beta 90.000000
_cell_angle_gamma 90.000000
_cell_volume 5888.945546
_symmetry_space_group_name_H-M "C M M A"
_symmetry_group_IT_number 67
_symmetry_cell_setting 'orthorhombic'
loop_
_space_group_symop_operation_xyz
x,y,z
-x,1/2-y,z
x,-y,-z
-x,1/2+y,-z
-x,-y,-z
x,1/2+y,-z
-x,y,z
x,1/2-y,z
1/2+x,1/2+y,z
1/2-x,-y,z
1/2+x,1/2-y,-z
1/2-x,y,-z
1/2-x,1/2-y,-z
1/2+x,y,-z
1/2-x,1/2+y,z
1/2+x,-y,z
loop_
_atom_site_type_symbol
_atom_site_label
_atom_site_fract_x
_atom_site_fract_y
_atom_site_fract_z
Si Si1 0.667073 0.920551 0.569026
Si Si2 0.500000 0.916102 0.434044
Si Si3 0.450914 0.579912 0.782354
Si Si4 0.705794 0.426696 0.296494
Si Si5 0.204803 0.573887 0.068963
Si Si6 0.860373 0.073644 0.815436
Si Si7 0.072389 0.913266 0.368722
O O1 0.675678 0.750000 0.557725
O O2 0.696861 0.971058 0.628849
O O3 0.619427 0.931143 0.600843
O O4 0.670268 0.000000 0.500000
O O5 0.500000 0.750000 0.447664
O O6 0.500000 0.000000 0.500000
O O7 0.458201 0.964415 0.395727
O O8 0.500000 0.519361 0.786148
O O9 0.454799 0.750000 0.801049
O O10 0.409402 0.515733 0.819479
O O11 0.433435 0.579709 0.708412
O O12 0.708585 0.250000 0.294467
O O13 0.750000 0.500000 0.274225
O O14 0.666589 0.470335 0.248775
O O15 0.209424 0.750000 0.063146
O O16 0.250000 0.500000 0.089218
O O17 0.168601 0.541326 0.122225
O O18 0.194228 0.500000 0.000000
O O19 0.863547 0.250000 0.811141
O O20 0.057416 0.750000 0.387690
#
# Coordination Sequence:
#
# PCOD9500897 Si02
#       7
#    16   8  16  16  16  16  16
#     4  10  21  35  52  70  95 128 167 215 263 312
#     4  12  24  34  46  68  98 128 163 210 265 324
#     4   9  15  27  53  81 101 127 168 213 256 303
#     4  10  20  35  53  74 100 130 169 215 260 308
#     4  10  19  32  53  81 115 146 176 210 249 300
#     4   9  17  31  52  79 108 137 170 212 256 300
#     4  10  18  33  54  73  93 125 165 211 267 316
#
# _framework density 17.660207
#
# number of rings (size 3 to 8) (size 9 to 14) (size 15 to 20)
#    0.000    2.154    2.308    2.538    0.000    2.769 
#    0.000    2.308    0.000    2.308    0.000    0.000 
#    0.000    0.000    0.000    0.000    0.000    0.615 
#
# Total GULP energy -289631.659788 kJ/mol
# GULP energy per Si atom -5569.839611 kJ/mol
# Density = 1.762001 g / cm^3
# Si number density = 17.660207 Si / 1000 Ang^3
#
#
#
# Elastic Constant Matrix: (Units=GPa)
#
#
# Indices 1 2 3 4 5 6 
#
# 1 132.4499 23.5050 62.0144 0.0000 0.0000 0.0000
# 2 23.5050 49.0817 23.7498 0.0000 0.0000 0.0000
# 3 62.0144 23.7498 83.8855 0.0000 0.0000 0.0000
# 4 0.0000 0.0000 0.0000 16.5561 0.0000 0.0000
# 5 0.0000 0.0000 0.0000 0.0000 26.4868 0.0000
# 6 0.0000 0.0000 0.0000 0.0000 0.0000 -5.8661
#
#
#
# Elastic Compliance Matrix: (Units=1/GPa)
#
#
# Indices 1 2 3 4 5 6 
#
# 1 0.011659 -0.001637 -0.008156 0.000000 0.000000 0.000000
# 2 -0.001637 0.023838 -0.005539 0.000000 0.000000 0.000000
# 3 -0.008156 -0.005539 0.019519 0.000000 0.000000 0.000000
# 4 0.000000 0.000000 0.000000 0.060401 0.000000 0.000000
# 5 0.000000 0.000000 0.000000 0.000000 0.037755 0.000000
# 6 0.000000 0.000000 0.000000 0.000000 0.000000 -0.170471
#
#
# Mechanical properties :
#
#
# Convention : Reuss Voigt Hill
#
# Bulk Modulus (GPa) = 41.06352 53.77282 47.41817
# Shear Modulus (GPa) = 232.75507 17.84522 125.30014
#
# Velocity S-wave (km/s) = 11.49271 3.18225 8.43235
# Velocity P-wave (km/s) = 14.12135 6.63453 11.03244
#
# Compressibility (1/GPa) = 0.02435251
#
# Stress axis : x y z
#
# Youngs Moduli (GPa) = 85.76918 41.94918 51.23312
#
# Poissons Ratio (x) = 0.06867 0.41785
# Poissons Ratio (y) = 0.14041 0.28378
# Poissons Ratio (z) = 0.69952 0.23235
#
# Static dielectric constant tensor:
#      x y z
#    x 1.673900 0.000000 0.000000 
#    y 0.000000 1.588700 0.000000 
#    z 0.000000 0.000000 1.636140 
# 
# From -- ./inp_files/40199.got.cif
#   From: 2010.05.17/outbox.cif.g08.bks.cpg/sg67_21_cif.got.tgz:40199.got - 2010.06.03 18:28:57.
