data_PCOD9500724
_publ_section_title
;
Structure prediction by ZEFSAII (Michael W. Deem and Ramdas Pophale) SiO2 
 PCOD9500724
Probable space group: C M M A
;
_chemical_formula_sum "Si O2"
_cell_formula_units_Z 72
_cell_length_a 17.143435
_cell_length_b 14.202409
_cell_length_c 16.392014
_cell_angle_alpha 90.000000
_cell_angle_beta 90.000000
_cell_angle_gamma 90.000000
_cell_volume 3991.096023
_symmetry_space_group_name_H-M "C M M A"
_symmetry_group_IT_number 67
_symmetry_cell_setting 'orthorhombic'
loop_
_space_group_symop_operation_xyz
x,y,z
-x,1/2-y,z
x,-y,-z
-x,1/2+y,-z
-x,-y,-z
x,1/2+y,-z
-x,y,z
x,1/2-y,z
1/2+x,1/2+y,z
1/2-x,-y,z
1/2+x,1/2-y,-z
1/2-x,y,-z
1/2-x,1/2-y,-z
1/2+x,y,-z
1/2-x,1/2+y,z
1/2+x,-y,z
loop_
_atom_site_type_symbol
_atom_site_label
_atom_site_fract_x
_atom_site_fract_y
_atom_site_fract_z
Si Si1 0.591576 0.440476 0.254927
Si Si2 0.340189 0.462105 0.587359
Si Si3 0.199704 0.750000 0.081687
Si Si4 0.659907 0.537086 0.913899
Si Si5 0.800069 0.250000 0.417094
Si Si6 0.192243 0.750000 0.258935
O O1 0.500000 0.422492 0.252405
O O2 0.614625 0.499433 0.334568
O O3 0.618241 0.489603 0.170318
O O4 0.639144 0.342851 0.260504
O O5 0.368875 0.500000 0.500000
O O6 0.250000 0.500000 0.594836
O O7 0.343755 0.349300 0.584750
O O8 0.155878 0.849467 0.080392
O O9 0.238230 0.750000 0.172227
O O10 0.250000 0.750000 0.000000
O O11 0.750000 0.500000 0.908728
O O12 0.628142 0.500000 0.000000
O O13 0.750000 0.250000 0.500000
O O14 0.745938 0.250000 0.337432
#
# Coordination Sequence:
#
# PCOD9500724 Si02
#       6
#    16  16   8  16   8   8
#     4  11  23  38  55  83 120 153 188 226 281 348
#     4  11  21  37  61  87 113 146 190 235 284 327
#     4  10  18  31  51  86 108 134 178 242 283 316
#     4  10  20  34  58  82 109 143 191 235 281 325
#     4  12  20  35  60  91 114 135 189 248 279 326
#     4  10  21  34  60  81 112 151 187 236 280 325
#
# _framework density 18.040158000000002
#
# number of rings (size 3 to 8) (size 9 to 14) (size 15 to 20)
#    0.000    1.333    6.667    1.000    3.111    0.889 
#    0.000    0.556    0.000    0.000    0.000    0.000 
#    0.000    0.000    0.000    0.000    0.000    0.000 
#
# Total GULP energy -200687.647929 kJ/mol
# GULP energy per Si atom -5574.656887 kJ/mol
# Density = 1.799910 g / cm^3
# Si number density = 18.040158 Si / 1000 Ang^3
#
#
#
# Elastic Constant Matrix: (Units=GPa)
#
#
# Indices 1 2 3 4 5 6 
#
# 1 30.2484 10.9203 42.7405 0.0000 0.0000 0.0000
# 2 10.9203 130.4364 56.2089 0.0000 0.0000 0.0000
# 3 42.7405 56.2089 220.0931 0.0000 0.0000 0.0000
# 4 0.0000 0.0000 0.0000 35.4645 0.0000 0.0000
# 5 0.0000 0.0000 0.0000 0.0000 4.3252 0.0000
# 6 0.0000 0.0000 0.0000 0.0000 0.0000 -5.5122
#
#
#
# Elastic Compliance Matrix: (Units=1/GPa)
#
#
# Indices 1 2 3 4 5 6 
#
# 1 0.045561 -0.000002 -0.008847 0.000000 0.000000 0.000000
# 2 -0.000002 0.008615 -0.002200 0.000000 0.000000 0.000000
# 3 -0.008847 -0.002200 0.006823 0.000000 0.000000 0.000000
# 4 0.000000 0.000000 0.000000 0.028197 0.000000 0.000000
# 5 0.000000 0.000000 0.000000 0.000000 0.231204 0.000000
# 6 0.000000 0.000000 0.000000 0.000000 0.000000 -0.181415
#
#
# Mechanical properties :
#
#
# Convention : Reuss Voigt Hill
#
# Bulk Modulus (GPa) = 25.70584 66.72416 46.21500
# Shear Modulus (GPa) = 28.72722 24.91602 26.82162
#
# Velocity S-wave (km/s) = 3.99482 3.72040 3.86005
# Velocity P-wave (km/s) = 5.96308 7.45131 6.74834
#
# Compressibility (1/GPa) = 0.03890167
#
# Stress axis : x y z
#
# Youngs Moduli (GPa) = 21.94844 116.08137 146.55529
#
# Poissons Ratio (x) = 0.00023 1.29660
# Poissons Ratio (y) = 0.00004 0.32238
# Poissons Ratio (z) = 0.19418 0.25534
#
# Static dielectric constant tensor:
#      x y z
#    x 1.652690 0.000000 0.000000 
#    y 0.000000 1.677140 0.000000 
#    z 0.000000 0.000000 1.645680 
# 
# From -- ./inp_files/28307.got.cif
#   From: 2010.05.17/outbox.cif.g08.bks.cpg/sg67_15_cif.got.tgz:28307.got - 2010.06.03 18:28:57.
