data_PCOD9500826
_publ_section_title
;
Structure prediction by ZEFSAII (Michael W. Deem and Ramdas Pophale) SiO2 
 PCOD9500826
Probable space group: C M M A
;
_chemical_formula_sum "Si O2"
_cell_formula_units_Z 104
_cell_length_a 8.899113
_cell_length_b 21.409894
_cell_length_c 31.399774
_cell_angle_alpha 90.000000
_cell_angle_beta 90.000000
_cell_angle_gamma 90.000000
_cell_volume 5982.569614
_symmetry_space_group_name_H-M "C M M A"
_symmetry_group_IT_number 67
_symmetry_cell_setting 'orthorhombic'
loop_
_space_group_symop_operation_xyz
x,y,z
-x,1/2-y,z
x,-y,-z
-x,1/2+y,-z
-x,-y,-z
x,1/2+y,-z
-x,y,z
x,1/2-y,z
1/2+x,1/2+y,z
1/2-x,-y,z
1/2+x,1/2-y,-z
1/2-x,y,-z
1/2-x,1/2-y,-z
1/2+x,y,-z
1/2-x,1/2+y,z
1/2+x,-y,z
loop_
_atom_site_type_symbol
_atom_site_label
_atom_site_fract_x
_atom_site_fract_y
_atom_site_fract_z
Si Si1 0.673072 0.673904 0.131092
Si Si2 0.828087 0.825787 0.217737
Si Si3 0.673539 0.673970 0.956298
Si Si4 0.316891 0.178547 0.312617
Si Si5 0.680952 0.120885 0.547267
Si Si6 0.318568 0.063102 0.373115
Si Si7 0.681681 0.750000 0.547598
O O1 0.500000 0.656747 0.128970
O O2 0.682711 0.750000 0.131402
O O3 0.742700 0.652238 0.175755
O O4 0.753846 0.652566 0.087972
O O5 0.831318 0.750000 0.216152
O O6 0.765279 0.839200 0.264787
O O7 0.000000 0.847778 0.215623
O O8 0.500000 0.657245 0.956956
O O9 0.684243 0.750000 0.956237
O O10 0.750000 0.652392 0.000000
O O11 0.500000 0.180783 0.311195
O O12 0.268251 0.250000 0.322987
O O13 0.277428 0.124045 0.345270
O O14 0.500000 0.123909 0.544700
O O15 0.750000 0.111152 0.500000
O O16 0.740812 0.071106 0.580839
O O17 0.751077 0.186035 0.564995
O O18 0.500000 0.060029 0.376827
O O19 0.250000 0.000000 0.353688
O O20 0.750000 0.750000 0.500000
O O21 0.000000 0.750000 0.451791
#
# Coordination Sequence:
#
# PCOD9500826 Si02
#       7
#    16  16  16  16  16  16   8
#     4   9  15  21  30  47  72 101 134 176 229 282
#     4   8  13  24  42  62  82 105 142 189 235 283
#     4   9  15  21  28  39  59  92 135 181 227 275
#     4   8  16  32  55  79  99 127 168 210 251 302
#     4  11  22  38  58  83 111 140 176 214 254 299
#     4  11  23  39  58  81 110 142 175 211 258 310
#     4  10  18  32  54  82 112 142 172 208 252 294
#
# _framework density 17.383835000000001
#
# number of rings (size 3 to 8) (size 9 to 14) (size 15 to 20)
#    0.000    2.615    0.000    5.308    1.077    4.000 
#    0.000    3.077    0.000    1.846    0.000    0.000 
#    0.000    0.000    0.000    0.000    0.000    0.769 
#
# Total GULP energy -289604.598804 kJ/mol
# GULP energy per Si atom -5569.319208 kJ/mol
# Density = 1.734427 g / cm^3
# Si number density = 17.383835 Si / 1000 Ang^3
#
#
#
# Elastic Constant Matrix: (Units=GPa)
#
#
# Indices 1 2 3 4 5 6 
#
# 1 108.1399 28.6726 63.5902 0.0000 0.0000 0.0000
# 2 28.6726 61.1570 46.5933 0.0000 0.0000 0.0000
# 3 63.5902 46.5933 142.6993 0.0000 0.0000 0.0000
# 4 0.0000 0.0000 0.0000 3.3634 0.0000 0.0000
# 5 0.0000 0.0000 0.0000 0.0000 21.3968 0.0000
# 6 0.0000 0.0000 0.0000 0.0000 0.0000 15.4571
#
#
#
# Elastic Compliance Matrix: (Units=1/GPa)
#
#
# Indices 1 2 3 4 5 6 
#
# 1 0.012748 -0.002195 -0.004964 0.000000 0.000000 0.000000
# 2 -0.002195 0.022144 -0.006252 0.000000 0.000000 0.000000
# 3 -0.004964 -0.006252 0.011261 0.000000 0.000000 0.000000
# 4 0.000000 0.000000 0.000000 0.297319 0.000000 0.000000
# 5 0.000000 0.000000 0.000000 0.000000 0.046736 0.000000
# 6 0.000000 0.000000 0.000000 0.000000 0.000000 0.064695
#
#
# Mechanical properties :
#
#
# Convention : Reuss Voigt Hill
#
# Bulk Modulus (GPa) = 51.73072 65.52317 58.62694
# Shear Modulus (GPa) = 10.24234 19.58614 14.91424
#
# Velocity S-wave (km/s) = 2.42995 3.36026 2.93223
# Velocity P-wave (km/s) = 6.13966 7.26835 6.72772
#
# Compressibility (1/GPa) = 0.01933087
#
# Stress axis : x y z
#
# Youngs Moduli (GPa) = 78.44094 45.15975 88.79879
#
# Poissons Ratio (x) = 0.09911 0.44083
# Poissons Ratio (y) = 0.17216 0.55518
# Poissons Ratio (z) = 0.38941 0.28235
#
# Static dielectric constant tensor:
#      x y z
#    x 1.554940 0.000000 0.000000 
#    y 0.000000 1.620160 0.000000 
#    z 0.000000 0.000000 0.317930 
# 
# From -- ./inp_files/45342.got.cif
#   From: 2010.05.17/outbox.cif.g08.bks.cpg/sg67_23_cif.got.tgz:45342.got - 2010.06.03 18:28:57.
