data_PCOD9500781
_publ_section_title
;
Structure prediction by ZEFSAII (Michael W. Deem and Ramdas Pophale) SiO2 
 PCOD9500781
Probable space group: C M M A
;
_chemical_formula_sum "Si O2"
_cell_formula_units_Z 104
_cell_length_a 21.687859
_cell_length_b 8.713694
_cell_length_c 30.002061
_cell_angle_alpha 90.000000
_cell_angle_beta 90.000000
_cell_angle_gamma 90.000000
_cell_volume 5669.830496
_symmetry_space_group_name_H-M "C M M A"
_symmetry_group_IT_number 67
_symmetry_cell_setting 'orthorhombic'
loop_
_space_group_symop_operation_xyz
x,y,z
-x,1/2-y,z
x,-y,-z
-x,1/2+y,-z
-x,-y,-z
x,1/2+y,-z
-x,y,z
x,1/2-y,z
1/2+x,1/2+y,z
1/2-x,-y,z
1/2+x,1/2-y,-z
1/2-x,y,-z
1/2-x,1/2-y,-z
1/2+x,y,-z
1/2-x,1/2+y,z
1/2+x,-y,z
loop_
_atom_site_type_symbol
_atom_site_label
_atom_site_fract_x
_atom_site_fract_y
_atom_site_fract_z
Si Si1 0.000000 0.932486 0.950128
Si Si2 0.569721 0.934149 0.709272
Si Si3 0.930264 0.934122 0.396666
Si Si4 0.184370 0.567319 0.865522
Si Si5 0.626045 0.931666 0.950607
Si Si6 0.315125 0.433262 0.549899
Si Si7 0.679956 0.933616 0.231876
O O1 0.000000 0.750000 0.950711
O O2 0.937635 0.999182 0.931481
O O3 0.000000 0.000000 0.000000
O O4 0.500000 0.984336 0.723492
O O5 0.572377 0.750000 0.715509
O O6 0.574255 0.963951 0.656295
O O7 0.628070 0.007123 0.734184
O O8 0.925171 0.750000 0.403077
O O9 0.000000 0.979685 0.410974
O O10 0.874565 0.015097 0.422105
O O11 0.182596 0.750000 0.873336
O O12 0.250000 0.500000 0.853561
O O13 0.170881 0.482898 0.911846
O O14 0.151920 0.533694 0.818161
O O15 0.621931 0.750000 0.955574
O O16 0.638370 0.000000 0.000000
O O17 0.321688 0.500000 0.500000
O O18 0.310974 0.250000 0.548137
O O19 0.250000 0.500000 0.567883
O O20 0.686405 0.750000 0.234581
O O21 0.750000 0.000000 0.239022
#
# Coordination Sequence:
#
# PCOD9500781 Si02
#       7
#     8  16  16  16  16  16  16
#     4  10  18  32  52  74 102 134 168 210 254 302
#     4   9  19  37  60  85 115 149 185 232 284 334
#     4   9  19  37  59  83 113 149 189 234 285 337
#     4  10  21  38  56  78 106 139 176 220 268 317
#     4  11  21  35  55  79 106 139 176 216 263 316
#     4  11  22  37  57  81 113 152 194 240 288 336
#     4  10  21  37  59  83 111 147 185 229 278 333
#
# _framework density 18.342700000000001
#
# number of rings (size 3 to 8) (size 9 to 14) (size 15 to 20)
#    0.000    2.000    0.000    6.692    0.000    4.308 
#    1.385    3.077    0.000    0.000    0.000    0.000 
#    0.000    0.000    0.000    0.000    0.000    0.000 
#
# Total GULP energy -289566.622596 kJ/mol
# GULP energy per Si atom -5568.588896 kJ/mol
# Density = 1.830095 g / cm^3
# Si number density = 18.342700 Si / 1000 Ang^3
#
#
#
# Elastic Constant Matrix: (Units=GPa)
#
#
# Indices 1 2 3 4 5 6 
#
# 1 123.1734 52.4258 63.0940 0.0000 0.0000 0.0000
# 2 52.4258 116.7004 47.1490 0.0000 0.0000 0.0000
# 3 63.0940 47.1490 69.4488 0.0000 0.0000 0.0000
# 4 0.0000 0.0000 0.0000 23.6312 0.0000 0.0000
# 5 0.0000 0.0000 0.0000 0.0000 120.1473 0.0000
# 6 0.0000 0.0000 0.0000 0.0000 0.0000 30.9269
#
#
#
# Elastic Compliance Matrix: (Units=1/GPa)
#
#
# Indices 1 2 3 4 5 6 
#
# 1 0.015440 -0.001749 -0.012840 0.000000 0.000000 0.000000
# 2 -0.001749 0.012006 -0.006562 0.000000 0.000000 0.000000
# 3 -0.012840 -0.006562 0.030519 0.000000 0.000000 0.000000
# 4 0.000000 0.000000 0.000000 0.042317 0.000000 0.000000
# 5 0.000000 0.000000 0.000000 0.000000 0.008323 0.000000
# 6 0.000000 0.000000 0.000000 0.000000 0.000000 0.032334
#
#
# Mechanical properties :
#
#
# Convention : Reuss Voigt Hill
#
# Bulk Modulus (GPa) = 63.84289 70.51780 67.18034
# Shear Modulus (GPa) = 26.53050 44.71800 35.62425
#
# Velocity S-wave (km/s) = 3.80725 4.94288 4.41176
# Velocity P-wave (km/s) = 7.36261 8.43233 7.91556
#
# Compressibility (1/GPa) = 0.01566345
#
# Stress axis : x y z
#
# Youngs Moduli (GPa) = 64.76653 83.29388 32.76603
#
# Poissons Ratio (x) = 0.14564 0.42072
# Poissons Ratio (y) = 0.11325 0.21502
# Poissons Ratio (z) = 0.83161 0.54659
#
# Static dielectric constant tensor:
#      x y z
#    x 1.731230 0.000000 0.000000 
#    y 0.000000 1.618520 0.000000 
#    z 0.000000 0.000000 1.618320 
# 
# From -- ./inp_files/43578.got.cif
#   From: 2010.05.17/outbox.cif.g08.bks.cpg/sg67_22_cif.got.tgz:43578.got - 2010.06.03 18:28:57.
