data_PCOD9500386
_publ_section_title
;
Structure prediction by ZEFSAII (Michael W. Deem and Ramdas Pophale) SiO2 
 PCOD9500386
Probable space group: C M M A
;
_chemical_formula_sum "Si O2"
_cell_formula_units_Z 64
_cell_length_a 8.640636
_cell_length_b 18.364374
_cell_length_c 21.406690
_cell_angle_alpha 90.000000
_cell_angle_beta 90.000000
_cell_angle_gamma 90.000000
_cell_volume 3396.810810
_symmetry_space_group_name_H-M "C M M A"
_symmetry_group_IT_number 67
_symmetry_cell_setting 'orthorhombic'
loop_
_space_group_symop_operation_xyz
x,y,z
-x,1/2-y,z
x,-y,-z
-x,1/2+y,-z
-x,-y,-z
x,1/2+y,-z
-x,y,z
x,1/2-y,z
1/2+x,1/2+y,z
1/2-x,-y,z
1/2+x,1/2-y,-z
1/2-x,y,-z
1/2-x,1/2-y,-z
1/2+x,y,-z
1/2-x,1/2+y,z
1/2+x,-y,z
loop_
_atom_site_type_symbol
_atom_site_label
_atom_site_fract_x
_atom_site_fract_y
_atom_site_fract_z
Si Si1 0.184985 0.082952 0.435827
Si Si2 0.182880 0.836708 0.813707
Si Si3 0.315385 0.917927 0.694007
Si Si4 0.814870 0.081745 0.933163
O O1 0.250000 0.116647 0.500000
O O2 0.245519 0.114236 0.370389
O O3 0.000000 0.081333 0.437273
O O4 0.250000 0.000000 0.435018
O O5 0.201200 0.750000 0.812641
O O6 0.263370 0.872220 0.753664
O O7 0.256172 0.869545 0.876331
O O8 0.000000 0.854146 0.812248
O O9 0.500000 0.921492 0.688868
O O10 0.250000 0.000000 0.701418
O O11 0.000000 0.079406 0.935083
O O12 0.750000 0.000000 0.924066
O O13 0.750000 0.107779 0.000000
#
# Coordination Sequence:
#
# PCOD9500386 Si02
#       4
#    16  16  16  16
#     4  10  17  28  47  75 109 142 180 226 279 330
#     4  11  24  41  59  81 112 149 188 230 277 329
#     4  11  21  35  56  82 112 146 187 231 278 331
#     4  11  22  39  63  89 117 147 184 227 274 327
#
# _framework density 18.841203
#
# number of rings (size 3 to 8) (size 9 to 14) (size 15 to 20)
#    0.000    1.250    0.000   11.250    0.000    2.500 
#    0.000    0.000    0.000    0.750    0.000    0.000 
#    0.000    0.000    0.000    0.000    0.000    0.000 
#
# Total GULP energy -178854.740576 kJ/mol
# GULP energy per Si atom -5589.210643 kJ/mol
# Density = 1.879832 g / cm^3
# Si number density = 18.841203 Si / 1000 Ang^3
#
#
#
# Elastic Constant Matrix: (Units=GPa)
#
#
# Indices 1 2 3 4 5 6 
#
# 1 224.5250 46.9663 98.2679 0.0000 0.0000 0.0000
# 2 46.9663 29.4772 52.1965 0.0000 0.0000 0.0000
# 3 98.2679 52.1965 200.7421 0.0000 0.0000 0.0000
# 4 0.0000 0.0000 0.0000 -16.1899 0.0000 0.0000
# 5 0.0000 0.0000 0.0000 0.0000 40.2556 0.0000
# 6 0.0000 0.0000 0.0000 0.0000 0.0000 18.8038
#
#
#
# Elastic Compliance Matrix: (Units=1/GPa)
#
#
# Indices 1 2 3 4 5 6 
#
# 1 0.006776 -0.009123 -0.000945 0.000000 0.000000 0.000000
# 2 -0.009123 0.075155 -0.015076 0.000000 0.000000 0.000000
# 3 -0.000945 -0.015076 0.009364 0.000000 0.000000 0.000000
# 4 0.000000 0.000000 0.000000 -0.061767 0.000000 0.000000
# 5 0.000000 0.000000 0.000000 0.000000 0.024841 0.000000
# 6 0.000000 0.000000 0.000000 0.000000 0.000000 0.053181
#
#
# Mechanical properties :
#
#
# Convention : Reuss Voigt Hill
#
# Bulk Modulus (GPa) = 24.38540 94.40066 59.39303
# Shear Modulus (GPa) = 29.15340 25.72814 27.44077
#
# Velocity S-wave (km/s) = 3.93787 3.69931 3.82045
# Velocity P-wave (km/s) = 5.80055 8.27397 7.14510
#
# Compressibility (1/GPa) = 0.04100814
#
# Stress axis : x y z
#
# Youngs Moduli (GPa) = 147.58737 13.30576 106.79191
#
# Poissons Ratio (x) = 0.12139 0.10089
# Poissons Ratio (y) = 1.34641 1.60999
# Poissons Ratio (z) = 0.13943 0.20060
#
# Static dielectric constant tensor:
#      x y z
#    x 1.629470 0.000000 0.000000 
#    y 0.000000 1.618750 0.000000 
#    z 0.000000 0.000000 1.682620 
# 
# From -- ./inp_files/36568.got.cif
#   From: 2010.05.17/outbox.cif.g08.bks.cpg/sg67_19_cif.got.tgz:36568.got - 2010.06.03 18:28:57.
