data_PCOD9500794
_publ_section_title
;
Structure prediction by ZEFSAII (Michael W. Deem and Ramdas Pophale) SiO2 
 PCOD9500794
Probable space group: C M M A
;
_chemical_formula_sum "Si O2"
_cell_formula_units_Z 104
_cell_length_a 8.714301
_cell_length_b 30.293154
_cell_length_c 20.636085
_cell_angle_alpha 90.000000
_cell_angle_beta 90.000000
_cell_angle_gamma 90.000000
_cell_volume 5447.589292
_symmetry_space_group_name_H-M "C M M A"
_symmetry_group_IT_number 67
_symmetry_cell_setting 'orthorhombic'
loop_
_space_group_symop_operation_xyz
x,y,z
-x,1/2-y,z
x,-y,-z
-x,1/2+y,-z
-x,-y,-z
x,1/2+y,-z
-x,y,z
x,1/2-y,z
1/2+x,1/2+y,z
1/2-x,-y,z
1/2+x,1/2-y,-z
1/2-x,y,-z
1/2-x,1/2-y,-z
1/2+x,y,-z
1/2-x,1/2+y,z
1/2+x,-y,z
loop_
_atom_site_type_symbol
_atom_site_label
_atom_site_fract_x
_atom_site_fract_y
_atom_site_fract_z
Si Si1 0.181003 0.130537 0.696341
Si Si2 0.318664 0.658903 0.428418
Si Si3 0.824458 0.545715 0.754982
Si Si4 0.814200 0.301764 0.808061
Si Si5 0.182841 0.250000 0.572605
Si Si6 0.685692 0.354564 0.931851
Si Si7 0.326705 0.545935 0.089038
O O1 0.269288 0.126339 0.628228
O O2 0.219066 0.086282 0.734997
O O3 0.230671 0.170816 0.743529
O O4 0.000000 0.135388 0.683593
O O5 0.500000 0.663073 0.435237
O O6 0.250000 0.650335 0.500000
O O7 0.247552 0.704649 0.400926
O O8 0.750000 0.500000 0.732349
O O9 0.830751 0.544795 0.832891
O O10 0.000000 0.551131 0.731876
O O11 0.770443 0.250000 0.805078
O O12 0.744970 0.326480 0.870676
O O13 0.000000 0.303885 0.812214
O O14 0.250000 0.250000 0.500000
O O15 0.000000 0.250000 0.573049
O O16 0.500000 0.354476 0.931067
O O17 0.741299 0.405880 0.927035
O O18 0.750000 0.336786 0.000000
O O19 0.500000 0.545773 0.063496
O O20 0.250000 0.500000 0.069247
#
# Coordination Sequence:
#
# PCOD9500794 Si02
#       7
#    16  16  16  16   8  16  16
#     4  11  22  37  61  90 120 156 195 243 298 352
#     4  11  22  37  56  83 118 159 201 245 295 352
#     4  10  19  35  58  87 119 152 193 240 292 351
#     4  10  23  42  62  86 115 151 196 245 294 346
#     4  10  18  32  52  76 110 150 193 238 285 344
#     4  11  23  40  60  85 115 153 195 242 292 350
#     4   9  19  34  55  82 115 149 186 232 288 348
#
# _framework density 19.091013
#
# number of rings (size 3 to 8) (size 9 to 14) (size 15 to 20)
#    0.000    1.692    1.538    4.385    1.077    3.385 
#    0.000    1.538    0.000    0.462    0.000    3.231 
#    0.000    0.000    0.000    0.000    0.000    0.000 
#
# Total GULP energy -290147.467662 kJ/mol
# GULP energy per Si atom -5579.758994 kJ/mol
# Density = 1.904756 g / cm^3
# Si number density = 19.091013 Si / 1000 Ang^3
#
#
#
# Elastic Constant Matrix: (Units=GPa)
#
#
# Indices 1 2 3 4 5 6 
#
# 1 85.5081 21.3621 37.7934 0.0000 0.0000 0.0000
# 2 21.3621 107.2664 41.7624 0.0000 0.0000 0.0000
# 3 37.7934 41.7624 111.7611 0.0000 0.0000 0.0000
# 4 0.0000 0.0000 0.0000 -2.5155 0.0000 0.0000
# 5 0.0000 0.0000 0.0000 0.0000 11.1270 0.0000
# 6 0.0000 0.0000 0.0000 0.0000 0.0000 31.2860
#
#
#
# Elastic Compliance Matrix: (Units=1/GPa)
#
#
# Indices 1 2 3 4 5 6 
#
# 1 0.013859 -0.001095 -0.004278 0.000000 0.000000 0.000000
# 2 -0.001095 0.010996 -0.003739 0.000000 0.000000 0.000000
# 3 -0.004278 -0.003739 0.011791 0.000000 0.000000 0.000000
# 4 0.000000 0.000000 0.000000 -0.397531 0.000000 0.000000
# 5 0.000000 0.000000 0.000000 0.000000 0.089871 0.000000
# 6 0.000000 0.000000 0.000000 0.000000 0.000000 0.031963
#
#
# Mechanical properties :
#
#
# Convention : Reuss Voigt Hill
#
# Bulk Modulus (GPa) = 54.27588 56.26348 55.26968
# Shear Modulus (GPa) = -23.28980 21.55400 -0.86790
#
# Velocity S-wave (km/s) = -3.49655 3.36372 -0.67498
# Velocity P-wave (km/s) = 3.49151 6.67992 5.32973
#
# Compressibility (1/GPa) = 0.01842439
#
# Stress axis : x y z
#
# Youngs Moduli (GPa) = 72.15595 90.94008 84.80838
#
# Poissons Ratio (x) = 0.09954 0.36277
# Poissons Ratio (y) = 0.07898 0.31709
# Poissons Ratio (z) = 0.30865 0.34001
#
# Static dielectric constant tensor:
#      x y z
#    x 1.667910 0.000000 0.000000 
#    y 0.000000 1.707170 0.000000 
#    z 0.000000 0.000000 1.648620 
# 
# From -- ./inp_files/37293.got.cif
#   From: 2010.05.17/outbox.cif.g08.bks.cpg/sg67_19_cif.got.tgz:37293.got - 2010.06.03 18:28:57.
