data_PCOD9500403
_publ_section_title
;
Structure prediction by ZEFSAII (Michael W. Deem and Ramdas Pophale) SiO2 
 PCOD9500403
Probable space group: C M M A
;
_chemical_formula_sum "Si O2"
_cell_formula_units_Z 80
_cell_length_a 35.936224
_cell_length_b 18.918153
_cell_length_c 5.510112
_cell_angle_alpha 90.000000
_cell_angle_beta 90.000000
_cell_angle_gamma 90.000000
_cell_volume 3746.033024
_symmetry_space_group_name_H-M "C M M A"
_symmetry_group_IT_number 67
_symmetry_cell_setting 'orthorhombic'
loop_
_space_group_symop_operation_xyz
x,y,z
-x,1/2-y,z
x,-y,-z
-x,1/2+y,-z
-x,-y,-z
x,1/2+y,-z
-x,y,z
x,1/2-y,z
1/2+x,1/2+y,z
1/2-x,-y,z
1/2+x,1/2-y,-z
1/2-x,y,-z
1/2-x,1/2-y,-z
1/2+x,y,-z
1/2-x,1/2+y,z
1/2+x,-y,z
loop_
_atom_site_type_symbol
_atom_site_label
_atom_site_fract_x
_atom_site_fract_y
_atom_site_fract_z
Si Si1 0.900169 0.250000 0.620431
Si Si2 0.272287 0.334076 0.247639
Si Si3 0.040706 0.045003 0.250122
Si Si4 0.121187 0.096337 0.149848
Si Si5 0.647995 0.606003 0.650766
Si Si6 0.899058 0.750000 0.879477
O O1 0.874651 0.319935 0.620922
O O2 0.921631 0.250000 0.368872
O O3 0.921837 0.250000 0.872378
O O4 0.280808 0.250000 0.233170
O O5 0.250000 0.344860 0.500000
O O6 0.310254 0.377318 0.271342
O O7 0.250000 0.352084 0.000000
O O8 0.078117 0.089339 0.223499
O O9 0.000000 0.080830 0.264414
O O10 0.044202 0.000000 0.500000
O O11 0.040128 0.000000 0.000000
O O12 0.144918 0.072814 0.382354
O O13 0.126955 0.180948 0.119068
O O14 0.128615 0.067403 0.879390
#
# Coordination Sequence:
#
# PCOD9500403 Si02
#       6
#     8  16  16  16  16   8
#     4   8  14  24  38  59  91 130 161 198 235 290
#     4  10  19  28  41  65 102 145 182 212 249 303
#     4  10  21  38  58  79 106 135 166 214 272 316
#     4  10  19  31  52  76 101 137 176 210 256 309
#     4  10  17  29  45  68 101 134 178 210 249 302
#     4   8  16  26  43  69  98 128 161 200 241 296
#
# _framework density 21.355923000000001
#
# number of rings (size 3 to 8) (size 9 to 14) (size 15 to 20)
#    0.000    2.400    1.000    2.400    0.000    0.000 
#    0.000    0.500    0.000    0.000    0.000   12.600 
#    0.000   56.000    0.000    0.000    0.000    0.000 
#
# Total GULP energy -222779.178382 kJ/mol
# GULP energy per Si atom -5569.479460 kJ/mol
# Density = 2.130732 g / cm^3
# Si number density = 21.355923 Si / 1000 Ang^3
#
#
#
# Elastic Constant Matrix: (Units=GPa)
#
#
# Indices 1 2 3 4 5 6 
#
# 1 104.5566 -1.5987 30.7082 0.0000 0.0000 0.0000
# 2 -1.5987 28.8753 7.7033 0.0000 0.0000 0.0000
# 3 30.7082 7.7033 234.5833 0.0000 0.0000 0.0000
# 4 0.0000 0.0000 0.0000 25.2051 0.0000 0.0000
# 5 0.0000 0.0000 0.0000 0.0000 32.6005 0.0000
# 6 0.0000 0.0000 0.0000 0.0000 0.0000 19.7757
#
#
#
# Elastic Compliance Matrix: (Units=1/GPa)
#
#
# Indices 1 2 3 4 5 6 
#
# 1 0.009970 0.000908 -0.001335 0.000000 0.000000 0.000000
# 2 0.000908 0.035021 -0.001269 0.000000 0.000000 0.000000
# 3 -0.001335 -0.001269 0.004479 0.000000 0.000000 0.000000
# 4 0.000000 0.000000 0.000000 0.039675 0.000000 0.000000
# 5 0.000000 0.000000 0.000000 0.000000 0.030674 0.000000
# 6 0.000000 0.000000 0.000000 0.000000 0.000000 0.050567
#
#
# Mechanical properties :
#
#
# Convention : Reuss Voigt Hill
#
# Bulk Modulus (GPa) = 21.70206 49.07119 35.38662
# Shear Modulus (GPa) = 26.43587 37.59641 32.01614
#
# Velocity S-wave (km/s) = 3.52216 4.20034 3.87611
# Velocity P-wave (km/s) = 5.16961 6.82287 6.05295
#
# Compressibility (1/GPa) = 0.04607857
#
# Stress axis : x y z
#
# Youngs Moduli (GPa) = 100.29924 28.55469 223.24910
#
# Poissons Ratio (x) = -0.02593 0.29803
# Poissons Ratio (y) = -0.09109 0.28328
# Poissons Ratio (z) = 0.13390 0.03623
#
# Static dielectric constant tensor:
#      x y z
#    x 1.716600 0.000000 0.000000 
#    y 0.000000 1.827870 0.000000 
#    z 0.000000 0.000000 1.899110 
# 
# From -- ./inp_files/4721.got.cif
#   From: 2010.05.17/outbox.cif.g08.bks.cpg/sg67_3_cif.got.tgz:4721.got - 2010.06.03 18:28:57.
