data_PCOD9500727
_publ_section_title
;
Structure prediction by ZEFSAII (Michael W. Deem and Ramdas Pophale) SiO2 
 PCOD9500727
Probable space group: C M M A
;
_chemical_formula_sum "Si O2"
_cell_formula_units_Z 84
_cell_length_a 16.847116
_cell_length_b 18.920810
_cell_length_c 13.744572
_cell_angle_alpha 90.000000
_cell_angle_beta 90.000000
_cell_angle_gamma 90.000000
_cell_volume 4381.234627
_symmetry_space_group_name_H-M "C M M A"
_symmetry_group_IT_number 67
_symmetry_cell_setting 'orthorhombic'
loop_
_space_group_symop_operation_xyz
x,y,z
-x,1/2-y,z
x,-y,-z
-x,1/2+y,-z
-x,-y,-z
x,1/2+y,-z
-x,y,z
x,1/2-y,z
1/2+x,1/2+y,z
1/2-x,-y,z
1/2+x,1/2-y,-z
1/2-x,y,-z
1/2-x,1/2-y,-z
1/2+x,y,-z
1/2-x,1/2+y,z
1/2+x,-y,z
loop_
_atom_site_type_symbol
_atom_site_label
_atom_site_fract_x
_atom_site_fract_y
_atom_site_fract_z
Si Si1 0.000000 0.166573 0.303940
Si Si2 0.500000 0.667862 0.069701
Si Si3 0.410185 0.664746 0.632159
Si Si4 0.676565 0.663874 0.070820
Si Si5 0.750000 0.000000 0.500000
Si Si6 0.150717 0.376754 0.418917
Si Si7 0.763166 0.669443 0.261481
O O1 0.924563 0.128275 0.349370
O O2 0.000000 0.250000 0.334669
O O3 0.000000 0.166933 0.187662
O O4 0.500000 0.750000 0.036559
O O5 0.587681 0.638076 0.042718
O O6 0.500000 0.638406 0.642594
O O7 0.411688 0.750000 0.640446
O O8 0.377508 0.647826 0.524886
O O9 0.348130 0.636406 0.712293
O O10 0.668774 0.750000 0.073802
O O11 0.706859 0.639207 0.177356
O O12 0.750000 0.647042 0.000000
O O13 0.806507 0.951302 0.565306
O O14 0.215914 0.330264 0.363094
O O15 0.778611 0.750000 0.230158
#
# Coordination Sequence:
#
# PCOD9500727 Si02
#       7
#     8   8  16  16   4  16  16
#     4  11  20  33  59  86 103 136 189 245 277 309
#     4   9  16  28  49  78 109 139 178 215 263 333
#     4  10  19  31  50  77 103 132 176 229 275 321
#     4   9  17  29  46  74 111 143 170 214 281 346
#     4  12  28  38  46  72 114 162 188 218 274 344
#     4  12  21  35  51  74 108 144 187 225 271 325
#     4  10  18  31  52  75 103 139 182 231 276 323
#
# _framework density 19.172677
#
# number of rings (size 3 to 8) (size 9 to 14) (size 15 to 20)
#    0.000    1.714    4.762    1.714    0.000    1.905 
#    1.714    0.000    0.000    0.000    0.000    0.667 
#    0.000    1.524    0.000    0.000    0.000    0.000 
#
# Total GULP energy -233833.564457 kJ/mol
# GULP energy per Si atom -5567.465820 kJ/mol
# Density = 1.912904 g / cm^3
# Si number density = 19.172677 Si / 1000 Ang^3
#
#
#
# Elastic Constant Matrix: (Units=GPa)
#
#
# Indices 1 2 3 4 5 6 
#
# 1 196.2937 11.5812 45.2754 0.0000 0.0000 0.0000
# 2 11.5812 29.9171 3.9456 0.0000 0.0000 0.0000
# 3 45.2754 3.9456 34.6026 0.0000 0.0000 0.0000
# 4 0.0000 0.0000 0.0000 -2.4042 0.0000 0.0000
# 5 0.0000 0.0000 0.0000 0.0000 31.1897 0.0000
# 6 0.0000 0.0000 0.0000 0.0000 0.0000 156.7009
#
#
#
# Elastic Compliance Matrix: (Units=1/GPa)
#
#
# Indices 1 2 3 4 5 6 
#
# 1 0.007372 -0.001606 -0.009462 0.000000 0.000000 0.000000
# 2 -0.001606 0.034286 -0.001809 0.000000 0.000000 0.000000
# 3 -0.009462 -0.001809 0.041486 0.000000 0.000000 0.000000
# 4 0.000000 0.000000 0.000000 -0.415939 0.000000 0.000000
# 5 0.000000 0.000000 0.000000 0.000000 0.032062 0.000000
# 6 0.000000 0.000000 0.000000 0.000000 0.000000 0.006382
#
#
# Mechanical properties :
#
#
# Convention : Reuss Voigt Hill
#
# Bulk Modulus (GPa) = 17.42432 42.49087 29.95760
# Shear Modulus (GPa) = -20.04259 50.43137 15.19439
#
# Velocity S-wave (km/s) = -3.23673 5.13428 2.81820
# Velocity P-wave (km/s) = 2.20471 7.57352 5.12335
#
# Compressibility (1/GPa) = 0.05739104
#
# Stress axis : x y z
#
# Youngs Moduli (GPa) = 135.65543 29.16660 24.10423
#
# Poissons Ratio (x) = 0.04683 0.22808
# Poissons Ratio (y) = 0.21782 0.04359
# Poissons Ratio (z) = 1.28360 0.05275
#
# Static dielectric constant tensor:
#      x y z
#    x 1.705760 0.000000 0.000000 
#    y 0.000000 1.652130 0.000000 
#    z 0.000000 0.000000 1.681270 
# 
# From -- ./inp_files/27107.got.cif
#   From: 2010.05.17/outbox.cif.g08.bks.cpg/sg67_14_cif.got.tgz:27107.got - 2010.06.03 18:28:57.
