data_PCOD9500124
_publ_section_title
;
Structure prediction by ZEFSAII (Michael W. Deem and Ramdas Pophale) SiO2 
 PCOD9500124
Probable space group: C C C M
;
_chemical_formula_sum "Si O2"
_cell_formula_units_Z 40
_cell_length_a 12.000000
_cell_length_b 15.000000
_cell_length_c 24.000000
_cell_angle_alpha 90.000000
_cell_angle_beta 90.000000
_cell_angle_gamma 90.000000
_cell_volume 4320.000000
_symmetry_space_group_name_H-M "C C C M"
_symmetry_group_IT_number 66
_symmetry_cell_setting 'orthorhombic'
loop_
_space_group_symop_operation_xyz
x,y,z
-x,-y,z
x,-y,1/2-z
-x,y,1/2-z
-x,-y,-z
x,y,-z
-x,y,1/2+z
x,-y,1/2+z
1/2+x,1/2+y,z
1/2-x,1/2-y,z
1/2+x,1/2-y,1/2-z
1/2-x,1/2+y,1/2-z
1/2-x,1/2-y,-z
1/2+x,1/2+y,-z
1/2-x,1/2+y,1/2+z
1/2+x,1/2-y,1/2+z
loop_
_atom_site_type_symbol
_atom_site_label
_atom_site_fract_x
_atom_site_fract_y
_atom_site_fract_z
Si Si1 0.710245 0.411010 0.212547
Si Si2 0.167303 0.390850 0.500000
Si Si3 0.722982 0.651910 0.834041
Si Si4 0.983161 0.895743 0.381406
Si Si5 0.415146 0.308230 0.500000
Si Si6 0.367809 0.986298 0.121467
O O1 0.682047 0.500000 0.250000
O O2 0.733961 0.349532 0.266268
O O3 0.613741 0.389249 0.166714
O O4 0.816594 0.424984 0.171490
O O5 0.291946 0.351584 0.500000
O O6 0.091819 0.300283 0.500000
O O7 0.152078 0.446535 0.441555
O O8 0.750000 0.750000 0.854650
O O9 0.596491 0.632496 0.851253
O O10 0.801011 0.578129 0.864558
O O11 0.964344 0.842770 0.440039
O O12 0.000000 0.000000 0.396108
O O13 0.500000 0.000000 0.127707
#
# Coordination Sequence:
#
# PCOD9500124 Si02
#       6
#    16   8  16  16   8  16
#     4  10  21  41  68  96 128 177 218 267 327 405
#     4  11  23  46  64  98 136 176 225 273 342 400
#     4  11  26  42  65 103 134 170 227 281 335 389
#     4  12  21  43  71  94 135 172 226 276 339 398
#     4  11  25  38  70 105 124 170 232 287 325 399
#     4  11  24  44  69  91 139 183 223 263 342 406
#
# _framework density 9.2592590000000001
#
# number of rings (size 3 to 8) (size 9 to 14) (size 15 to 20)
#    0.000    1.000    6.000    1.200    2.800    6.000 
#    3.600    1.000    0.000    0.000    0.000    0.000 
#    0.000    0.000    0.000    0.000    0.000    0.000 
#
# Total GULP energy -222836.924729 kJ/mol
# GULP energy per Si atom -5570.923118 kJ/mol
# Density = 0.923818 g / cm^3
# Si number density = 9.259259 Si / 1000 Ang^3
#
#
#
# Elastic Constant Matrix: (Units=GPa)
#
#
# Indices 1 2 3 4 5 6 
#
# 1 149.1406 37.7429 69.2883 0.0000 0.0000 0.0000
# 2 37.7429 111.2506 61.6259 0.0000 0.0000 0.0000
# 3 69.2883 61.6259 206.4002 0.0000 0.0000 0.0000
# 4 0.0000 0.0000 0.0000 26.4394 0.0000 0.0000
# 5 0.0000 0.0000 0.0000 0.0000 33.8012 0.0000
# 6 0.0000 0.0000 0.0000 0.0000 0.0000 15.1822
#
#
#
# Elastic Compliance Matrix: (Units=1/GPa)
#
#
# Indices 1 2 3 4 5 6 
#
# 1 0.008147 -0.001496 -0.002288 0.000000 0.000000 0.000000
# 2 -0.001496 0.011045 -0.002795 0.000000 0.000000 0.000000
# 3 -0.002288 -0.002795 0.006448 0.000000 0.000000 0.000000
# 4 0.000000 0.000000 0.000000 0.037822 0.000000 0.000000
# 5 0.000000 0.000000 0.000000 0.000000 0.029585 0.000000
# 6 0.000000 0.000000 0.000000 0.000000 0.000000 0.065867
#
#
# Mechanical properties :
#
#
# Convention : Reuss Voigt Hill
#
# Bulk Modulus (GPa) = 80.13084 89.34506 84.73795
# Shear Modulus (GPa) = 28.37160 34.96019 31.66589
#
# Velocity S-wave (km/s) = 3.91841 4.34965 4.13965
# Velocity P-wave (km/s) = 7.98977 8.57771 8.28895
#
# Compressibility (1/GPa) = 0.01247959
#
# Stress axis : x y z
#
# Youngs Moduli (GPa) = 122.74791 90.53996 155.09445
#
# Poissons Ratio (x) = 0.13549 0.35487
# Poissons Ratio (y) = 0.18368 0.43355
# Poissons Ratio (z) = 0.28086 0.25309
#
# Static dielectric constant tensor:
#      x y z
#    x 1.649350 0.000000 0.000000 
#    y 0.000000 1.716520 0.000000 
#    z 0.000000 0.000000 1.615910 
# 
# From -- ./inp_files/56644.got.cif
#   From: 2010.05.17/outbox.ucp.g08.bks.cvg/sg66_29_cif.got.tgz:56644.got - 2010.06.11 16:44:13.
