data_PCOD9500642
_publ_section_title
;
Structure prediction by ZEFSAII (Michael W. Deem and Ramdas Pophale) SiO2 
 PCOD9500642
Probable space group: C M M A
;
_chemical_formula_sum "Si O2"
_cell_formula_units_Z 120
_cell_length_a 8.485457
_cell_length_b 27.788918
_cell_length_c 29.094589
_cell_angle_alpha 90.000000
_cell_angle_beta 90.000000
_cell_angle_gamma 90.000000
_cell_volume 6860.552638
_symmetry_space_group_name_H-M "C M M A"
_symmetry_group_IT_number 67
_symmetry_cell_setting 'orthorhombic'
loop_
_space_group_symop_operation_xyz
x,y,z
-x,1/2-y,z
x,-y,-z
-x,1/2+y,-z
-x,-y,-z
x,1/2+y,-z
-x,y,z
x,1/2-y,z
1/2+x,1/2+y,z
1/2-x,-y,z
1/2+x,1/2-y,-z
1/2-x,y,-z
1/2-x,1/2-y,-z
1/2+x,y,-z
1/2-x,1/2+y,z
1/2+x,-y,z
loop_
_atom_site_type_symbol
_atom_site_label
_atom_site_fract_x
_atom_site_fract_y
_atom_site_fract_z
Si Si1 0.191030 0.897718 0.307353
Si Si2 0.810359 0.147246 0.947667
Si Si3 0.809884 0.552965 0.215739
Si Si4 0.309491 0.553543 0.889456
Si Si5 0.307984 0.802993 0.641892
Si Si6 0.688465 0.644616 0.550307
Si Si7 0.688198 0.250000 0.947351
Si Si8 0.812610 0.052364 0.397697
O O1 0.242749 0.911737 0.256284
O O2 0.242663 0.844894 0.323628
O O3 0.252467 0.933626 0.346657
O O4 0.000000 0.899488 0.308833
O O5 0.759839 0.099144 0.920270
O O6 0.748974 0.198669 0.928120
O O7 0.000000 0.149164 0.947782
O O8 0.750000 0.143357 0.000000
O O9 0.750000 0.500000 0.228003
O O10 0.757810 0.562621 0.163423
O O11 0.000000 0.553046 0.215255
O O12 0.500000 0.551852 0.890623
O O13 0.250000 0.500000 0.903001
O O14 0.500000 0.802617 0.642637
O O15 0.251217 0.750000 0.653498
O O16 0.261325 0.818503 0.590392
O O17 0.500000 0.643579 0.549536
O O18 0.750000 0.656431 0.500000
O O19 0.748842 0.592898 0.567730
O O20 0.500000 0.250000 0.947220
O O21 0.750000 0.250000 0.000000
O O22 0.000000 0.052977 0.398028
O O23 0.750000 0.000000 0.410150
#
# Coordination Sequence:
#
# PCOD9500642 Si02
#       8
#    16  16  16  16  16  16   8  16
#     4   9  17  30  50  73  98 124 156 198 237 282
#     4  10  19  32  50  72 100 134 171 216 261 307
#     4   9  17  30  48  71  98 128 162 198 239 288
#     4   9  19  33  49  70 101 136 171 209 255 305
#     4   8  15  29  49  71  95 123 154 191 233 275
#     4  10  20  34  50  70  95 124 158 194 234 278
#     4  10  18  30  50  74  96 124 166 212 256 302
#     4  11  21  33  49  70  97 125 157 192 232 282
#
# _framework density 17.491302000000001
#
# number of rings (size 3 to 8) (size 9 to 14) (size 15 to 20)
#    0.000    2.533    0.000    4.600    0.000    3.467 
#    0.000    2.667    1.467    9.600    0.000    0.000 
#    0.000    0.000    0.000    0.000    0.000    0.000 
#
# Total GULP energy -334453.621555 kJ/mol
# GULP energy per Si atom -5574.227026 kJ/mol
# Density = 1.745149 g / cm^3
# Si number density = 17.491302 Si / 1000 Ang^3
#
#
#
# Elastic Constant Matrix: (Units=GPa)
#
#
# Indices 1 2 3 4 5 6 
#
# 1 42.3936 22.7679 17.8277 0.0000 0.0000 0.0000
# 2 22.7679 127.3459 66.7905 0.0000 0.0000 0.0000
# 3 17.8277 66.7905 86.6695 0.0000 0.0000 0.0000
# 4 0.0000 0.0000 0.0000 7.2906 0.0000 0.0000
# 5 0.0000 0.0000 0.0000 0.0000 20.1816 0.0000
# 6 0.0000 0.0000 0.0000 0.0000 0.0000 16.2201
#
#
#
# Elastic Compliance Matrix: (Units=1/GPa)
#
#
# Indices 1 2 3 4 5 6 
#
# 1 0.026559 -0.003161 -0.003027 0.000000 0.000000 0.000000
# 2 -0.003161 0.013556 -0.009796 0.000000 0.000000 0.000000
# 3 -0.003027 -0.009796 0.019710 0.000000 0.000000 0.000000
# 4 0.000000 0.000000 0.000000 0.137163 0.000000 0.000000
# 5 0.000000 0.000000 0.000000 0.000000 0.049550 0.000000
# 6 0.000000 0.000000 0.000000 0.000000 0.000000 0.061652
#
#
# Mechanical properties :
#
#
# Convention : Reuss Voigt Hill
#
# Bulk Modulus (GPa) = 35.89874 52.35349 44.12611
# Shear Modulus (GPa) = 14.30843 18.67331 16.49087
#
# Velocity S-wave (km/s) = 2.86323 3.27092 3.07384
# Velocity P-wave (km/s) = 5.61240 6.65292 6.15469
#
# Compressibility (1/GPa) = 0.02785613
#
# Stress axis : x y z
#
# Youngs Moduli (GPa) = 37.65197 73.76966 50.73506
#
# Poissons Ratio (x) = 0.23316 0.15360
# Poissons Ratio (y) = 0.11900 0.49702
# Poissons Ratio (z) = 0.11399 0.72267
#
# Static dielectric constant tensor:
#      x y z
#    x 1.596810 0.000000 0.000000 
#    y 0.000000 1.603810 0.000000 
#    z 0.000000 0.000000 1.590400 
# 
# From -- ./inp_files/43938.got.cif
#   From: 2010.05.17/outbox.cif.g08.bks.cpg/sg67_22_cif.got.tgz:43938.got - 2010.06.03 18:28:57.
