data_PCOD9500860
_publ_section_title
;
Structure prediction by ZEFSAII (Michael W. Deem and Ramdas Pophale) SiO2 
 PCOD9500860
Probable space group: C M M A
;
_chemical_formula_sum "Si O2"
_cell_formula_units_Z 68
_cell_length_a 19.662662
_cell_length_b 20.895913
_cell_length_c 9.776285
_cell_angle_alpha 90.000000
_cell_angle_beta 90.000000
_cell_angle_gamma 90.000000
_cell_volume 4016.775125
_symmetry_space_group_name_H-M "C M M A"
_symmetry_group_IT_number 67
_symmetry_cell_setting 'orthorhombic'
loop_
_space_group_symop_operation_xyz
x,y,z
-x,1/2-y,z
x,-y,-z
-x,1/2+y,-z
-x,-y,-z
x,1/2+y,-z
-x,y,z
x,1/2-y,z
1/2+x,1/2+y,z
1/2-x,-y,z
1/2+x,1/2-y,-z
1/2-x,y,-z
1/2-x,1/2-y,-z
1/2+x,y,-z
1/2-x,1/2+y,z
1/2+x,-y,z
loop_
_atom_site_type_symbol
_atom_site_label
_atom_site_fract_x
_atom_site_fract_y
_atom_site_fract_z
Si Si1 0.500000 0.915069 0.332686
Si Si2 0.650746 0.103548 0.362917
Si Si3 0.244254 0.325257 0.844421
Si Si4 0.750000 0.000000 0.500000
Si Si5 0.000000 0.057052 0.658914
Si Si6 0.873935 0.174814 0.352099
O O1 0.500000 0.934067 0.493400
O O2 0.565160 0.871395 0.306063
O O3 0.500000 0.986421 0.273955
O O4 0.687533 0.138425 0.239881
O O5 0.574614 0.086078 0.313810
O O6 0.647010 0.149197 0.497351
O O7 0.698439 0.044034 0.410907
O O8 0.227593 0.250000 0.849744
O O9 0.312883 0.331743 0.755479
O O10 0.250000 0.348441 0.000000
O O11 0.892999 0.250000 0.360337
#
# Coordination Sequence:
#
# PCOD9500860 Si02
#       6
#     8  16  16   4   8  16
#     4   9  17  32  51  80 108 140 175 223 272 332
#     4  11  20  35  56  83 111 145 184 224 272 331
#     4  10  21  37  56  80 110 143 183 232 278 322
#     4  12  20  30  60  84 108 150 182 222 268 326
#     4   9  20  32  53  76 115 143 177 218 278 319
#     4  10  18  32  56  83 107 137 178 231 277 323
#
# _framework density 16.929003000000002
#
# number of rings (size 3 to 8) (size 9 to 14) (size 15 to 20)
#    0.000    1.882    2.353    3.882    0.000    1.882 
#    0.000    3.529    0.000    4.235    0.000    0.000 
#    0.000    0.000    0.000    0.000    0.000    0.000 
#
# Total GULP energy -189348.943923 kJ/mol
# GULP energy per Si atom -5569.086586 kJ/mol
# Density = 1.689047 g / cm^3
# Si number density = 16.929003 Si / 1000 Ang^3
#
#
#
# Elastic Constant Matrix: (Units=GPa)
#
#
# Indices 1 2 3 4 5 6 
#
# 1 128.5213 71.9010 56.6558 0.0000 0.0000 0.0000
# 2 71.9010 100.3538 50.3889 0.0000 0.0000 0.0000
# 3 56.6558 50.3889 99.0507 0.0000 0.0000 0.0000
# 4 0.0000 0.0000 0.0000 14.9881 0.0000 0.0000
# 5 0.0000 0.0000 0.0000 0.0000 -7.8128 0.0000
# 6 0.0000 0.0000 0.0000 0.0000 0.0000 -16.0934
#
#
#
# Elastic Compliance Matrix: (Units=1/GPa)
#
#
# Indices 1 2 3 4 5 6 
#
# 1 0.014030 -0.008089 -0.003910 0.000000 0.000000 0.000000
# 2 -0.008089 0.018047 -0.004554 0.000000 0.000000 0.000000
# 3 -0.003910 -0.004554 0.014649 0.000000 0.000000 0.000000
# 4 0.000000 0.000000 0.000000 0.066719 0.000000 0.000000
# 5 0.000000 0.000000 0.000000 0.000000 -0.127995 0.000000
# 6 0.000000 0.000000 0.000000 0.000000 0.000000 -0.062137
#
#
# Mechanical properties :
#
#
# Convention : Reuss Voigt Hill
#
# Bulk Modulus (GPa) = 73.42127 76.20190 74.81159
# Shear Modulus (GPa) = -128.06771 8.14839 -59.95966
#
# Velocity S-wave (km/s) = -8.70713 2.19630 -5.95778
# Velocity P-wave (km/s) = 7.59086 7.17927 1.74345
#
# Compressibility (1/GPa) = 0.01362003
#
# Stress axis : x y z
#
# Youngs Moduli (GPa) = 71.27805 55.41181 68.26401
#
# Poissons Ratio (x) = 0.44820 0.26691
# Poissons Ratio (y) = 0.57654 0.31088
# Poissons Ratio (z) = 0.27869 0.25235
#
# Static dielectric constant tensor:
#      x y z
#    x 1.696060 0.000000 0.000000 
#    y 0.000000 1.611920 0.000000 
#    z 0.000000 0.000000 1.539810 
# 
# From -- ./inp_files/9522.got.cif
#   From: 2010.05.17/outbox.cif.g08.bks.cpg/sg67_5_cif.got.tgz:9522.got - 2010.06.03 18:28:57.
