data_PCOD9500548
_publ_section_title
;
Structure prediction by ZEFSAII (Michael W. Deem and Ramdas Pophale) SiO2 
 PCOD9500548
Probable space group: C M M A
;
_chemical_formula_sum "Si O2"
_cell_formula_units_Z 96
_cell_length_a 21.330103
_cell_length_b 16.338067
_cell_length_c 12.363022
_cell_angle_alpha 90.000000
_cell_angle_beta 90.000000
_cell_angle_gamma 90.000000
_cell_volume 4308.422323
_symmetry_space_group_name_H-M "C M M A"
_symmetry_group_IT_number 67
_symmetry_cell_setting 'orthorhombic'
loop_
_space_group_symop_operation_xyz
x,y,z
-x,1/2-y,z
x,-y,-z
-x,1/2+y,-z
-x,-y,-z
x,1/2+y,-z
-x,y,z
x,1/2-y,z
1/2+x,1/2+y,z
1/2-x,-y,z
1/2+x,1/2-y,-z
1/2-x,y,-z
1/2-x,1/2-y,-z
1/2+x,y,-z
1/2-x,1/2+y,z
1/2+x,-y,z
loop_
_atom_site_type_symbol
_atom_site_label
_atom_site_fract_x
_atom_site_fract_y
_atom_site_fract_z
Si Si1 0.929029 0.152174 0.071237
Si Si2 0.358535 0.843273 0.489090
Si Si3 0.000000 0.985364 0.694576
Si Si4 0.191186 0.152080 0.710059
Si Si5 0.431095 0.901941 0.832314
Si Si6 0.828528 0.150191 0.251778
Si Si7 0.500000 0.380515 0.498260
O O1 0.923241 0.250000 0.044526
O O2 0.874827 0.130134 0.154584
O O3 0.000000 0.141508 0.115745
O O4 0.924626 0.100904 0.960847
O O5 0.335550 0.750000 0.479976
O O6 0.321698 0.882149 0.589425
O O7 0.349931 0.880448 0.370416
O O8 0.432221 0.840701 0.518029
O O9 0.942583 0.012049 0.771234
O O10 0.000000 0.048008 0.591964
O O11 0.000000 0.902766 0.626992
O O12 0.196793 0.250000 0.699558
O O13 0.129848 0.136458 0.780507
O O14 0.256488 0.123102 0.760637
O O15 0.500000 0.860369 0.810850
O O16 0.830793 0.250000 0.254231
#
# Coordination Sequence:
#
# PCOD9500548 Si02
#       7
#    16  16   8  16  16  16   8
#     4   9  17  29  47  71 107 146 186 227 266 315
#     4  10  19  31  50  77 107 136 170 218 275 334
#     4   9  20  34  51  74 103 133 174 228 281 314
#     4  10  18  29  47  73 108 140 174 218 270 330
#     4   9  17  32  48  72  97 140 179 225 265 307
#     4   9  19  31  45  72 108 146 173 209 272 331
#     4  11  19  34  53  78 100 134 176 227 283 319
#
# _framework density 22.281939000000001
#
# number of rings (size 3 to 8) (size 9 to 14) (size 15 to 20)
#    0.500    2.000    1.667    1.250    1.167    3.667 
#    0.000    2.500    0.000    3.000    0.000    0.000 
#    0.000    2.667    0.000    0.167    0.000    0.000 
#
# Total GULP energy -267528.569423 kJ/mol
# GULP energy per Si atom -5573.511863 kJ/mol
# Density = 2.223122 g / cm^3
# Si number density = 22.281939 Si / 1000 Ang^3
#
#
#
# Elastic Constant Matrix: (Units=GPa)
#
#
# Indices 1 2 3 4 5 6 
#
# 1 158.3622 10.0444 96.8677 0.0000 0.0000 0.0000
# 2 10.0444 27.5194 18.0892 0.0000 0.0000 0.0000
# 3 96.8677 18.0892 159.8794 0.0000 0.0000 0.0000
# 4 0.0000 0.0000 0.0000 20.7886 0.0000 0.0000
# 5 0.0000 0.0000 0.0000 0.0000 -1.9965 0.0000
# 6 0.0000 0.0000 0.0000 0.0000 0.0000 188.7538
#
#
#
# Elastic Compliance Matrix: (Units=1/GPa)
#
#
# Indices 1 2 3 4 5 6 
#
# 1 0.010036 0.000361 -0.006122 0.000000 0.000000 0.000000
# 2 0.000361 0.039271 -0.004662 0.000000 0.000000 0.000000
# 3 -0.006122 -0.004662 0.010491 0.000000 0.000000 0.000000
# 4 0.000000 0.000000 0.000000 0.048103 0.000000 0.000000
# 5 0.000000 0.000000 0.000000 0.000000 -0.500873 0.000000
# 6 0.000000 0.000000 0.000000 0.000000 0.000000 0.005298
#
#
# Mechanical properties :
#
#
# Convention : Reuss Voigt Hill
#
# Bulk Modulus (GPa) = 25.67212 66.19597 45.93405
# Shear Modulus (GPa) = -14.13050 56.22651 21.04800
#
# Velocity S-wave (km/s) = -2.52100 5.02881 3.07680
# Velocity P-wave (km/s) = 1.75288 7.96815 5.76905
#
# Compressibility (1/GPa) = 0.03895276
#
# Stress axis : x y z
#
# Youngs Moduli (GPa) = 99.63911 25.46433 95.31902
#
# Poissons Ratio (x) = -0.00919 0.58350
# Poissons Ratio (y) = -0.03594 0.44435
# Poissons Ratio (z) = 0.60995 0.11871
#
# Static dielectric constant tensor:
#      x y z
#    x 1.825360 0.000000 0.000000 
#    y 0.000000 1.911320 0.000000 
#    z 0.000000 0.000000 1.828750 
# 
# From -- ./inp_files/21036.got.cif
#   From: 2010.05.17/outbox.cif.g08.bks.cpg/sg67_11_cif.got.tgz:21036.got - 2010.06.03 18:28:57.
