data_PCOD9500276
_publ_section_title
;
Structure prediction by ZEFSAII (Michael W. Deem and Ramdas Pophale) SiO2 
 PCOD9500276
Probable space group: C M M A
;
_chemical_formula_sum "Si O2"
_cell_formula_units_Z 96
_cell_length_a 27.460413
_cell_length_b 14.475628
_cell_length_c 12.294604
_cell_angle_alpha 90.000000
_cell_angle_beta 90.000000
_cell_angle_gamma 90.000000
_cell_volume 4887.187750
_symmetry_space_group_name_H-M "C M M A"
_symmetry_group_IT_number 67
_symmetry_cell_setting 'orthorhombic'
loop_
_space_group_symop_operation_xyz
x,y,z
-x,1/2-y,z
x,-y,-z
-x,1/2+y,-z
-x,-y,-z
x,1/2+y,-z
-x,y,z
x,1/2-y,z
1/2+x,1/2+y,z
1/2-x,-y,z
1/2+x,1/2-y,-z
1/2-x,y,-z
1/2-x,1/2-y,-z
1/2+x,y,-z
1/2-x,1/2+y,z
1/2+x,-y,z
loop_
_atom_site_type_symbol
_atom_site_label
_atom_site_fract_x
_atom_site_fract_y
_atom_site_fract_z
Si Si1 0.638357 0.142499 0.673275
Si Si2 0.713818 0.637129 0.152338
Si Si3 0.129864 0.137763 0.986623
Si Si4 0.444583 0.136800 0.829354
Si Si5 0.680465 0.638241 0.783042
Si Si6 0.303698 0.106129 0.469666
O O1 0.637448 0.250000 0.703390
O O2 0.684176 0.104186 0.741299
O O3 0.588315 0.106386 0.725472
O O4 0.652781 0.139378 0.547910
O O5 0.716807 0.750000 0.150759
O O6 0.679224 0.612774 0.052061
O O7 0.768868 0.605179 0.163354
O O8 0.127520 0.250000 0.985980
O O9 0.084852 0.108123 0.061856
O O10 0.137037 0.105871 0.862485
O O11 0.500000 0.103651 0.825869
O O12 0.446581 0.250000 0.829905
O O13 0.680010 0.750000 0.787567
O O14 0.682695 0.616080 0.655990
O O15 0.250000 0.146940 0.500000
O O16 0.300098 0.000000 0.500000
#
# Coordination Sequence:
#
# PCOD9500276 Si02
#       6
#    16  16  16  16  16  16
#     4   9  16  28  47  69  90 120 161 193 220 266
#     4   8  13  22  39  64  91 115 144 183 217 258
#     4   8  14  23  39  69  97 115 141 179 228 280
#     4   8  14  26  47  74  99 118 142 189 243 277
#     4  10  17  26  44  66  91 122 154 186 224 272
#     4  11  22  32  42  61  92 131 162 195 234 272
#
# _framework density 19.643198999999999
#
# number of rings (size 3 to 8) (size 9 to 14) (size 15 to 20)
#    0.000    3.000    1.667    3.000    0.000    2.667 
#    0.000    0.000    0.000    5.500    0.000    5.833 
#    0.000    0.000    0.000    0.000    0.000    0.000 
#
# Total GULP energy -267375.853034 kJ/mol
# GULP energy per Si atom -5570.330272 kJ/mol
# Density = 1.959849 g / cm^3
# Si number density = 19.643199 Si / 1000 Ang^3
#
#
#
# Elastic Constant Matrix: (Units=GPa)
#
#
# Indices 1 2 3 4 5 6 
#
# 1 143.4893 5.3186 83.9461 0.0000 0.0000 0.0000
# 2 5.3186 37.0509 -2.6458 0.0000 0.0000 0.0000
# 3 83.9461 -2.6458 135.7766 0.0000 0.0000 0.0000
# 4 0.0000 0.0000 0.0000 3.8875 0.0000 0.0000
# 5 0.0000 0.0000 0.0000 0.0000 1.6202 0.0000
# 6 0.0000 0.0000 0.0000 0.0000 0.0000 36.8306
#
#
#
# Elastic Compliance Matrix: (Units=1/GPa)
#
#
# Indices 1 2 3 4 5 6 
#
# 1 0.011077 -0.002082 -0.006889 0.000000 0.000000 0.000000
# 2 -0.002082 0.027419 0.001822 0.000000 0.000000 0.000000
# 3 -0.006889 0.001822 0.011660 0.000000 0.000000 0.000000
# 4 0.000000 0.000000 0.000000 0.257235 0.000000 0.000000
# 5 0.000000 0.000000 0.000000 0.000000 0.617194 0.000000
# 6 0.000000 0.000000 0.000000 0.000000 0.000000 0.027151
#
#
# Mechanical properties :
#
#
# Convention : Reuss Voigt Hill
#
# Bulk Modulus (GPa) = 27.88897 54.39496 41.14196
# Shear Modulus (GPa) = 5.11255 23.78086 14.44670
#
# Velocity S-wave (km/s) = 1.61504 3.48320 2.71487
# Velocity P-wave (km/s) = 4.20790 6.62786 5.55135
#
# Compressibility (1/GPa) = 0.03585647
#
# Stress axis : x y z
#
# Youngs Moduli (GPa) = 90.28108 36.47130 85.76581
#
# Poissons Ratio (x) = 0.07593 0.59082
# Poissons Ratio (y) = 0.18796 -0.15622
# Poissons Ratio (z) = 0.62193 -0.06643
#
# Static dielectric constant tensor:
#      x y z
#    x 1.685140 0.000000 0.000000 
#    y 0.000000 1.916790 0.000000 
#    z 0.000000 0.000000 1.736860 
# 
# From -- ./inp_files/19801.got.cif
#   From: 2010.05.17/outbox.cif.g08.bks.cpg/sg67_10_cif.got.tgz:19801.got - 2010.06.03 18:28:57.
