data_PCOD9500346
_publ_section_title
;
Structure prediction by ZEFSAII (Michael W. Deem and Ramdas Pophale) SiO2 
 PCOD9500346
Probable space group: C M M A
;
_chemical_formula_sum "Si O2"
_cell_formula_units_Z 64
_cell_length_a 18.018582
_cell_length_b 16.633001
_cell_length_c 11.937329
_cell_angle_alpha 90.000000
_cell_angle_beta 90.000000
_cell_angle_gamma 90.000000
_cell_volume 3577.654417
_symmetry_space_group_name_H-M "C M M A"
_symmetry_group_IT_number 67
_symmetry_cell_setting 'orthorhombic'
loop_
_space_group_symop_operation_xyz
x,y,z
-x,1/2-y,z
x,-y,-z
-x,1/2+y,-z
-x,-y,-z
x,1/2+y,-z
-x,y,z
x,1/2-y,z
1/2+x,1/2+y,z
1/2-x,-y,z
1/2+x,1/2-y,-z
1/2-x,y,-z
1/2-x,1/2-y,-z
1/2+x,y,-z
1/2-x,1/2+y,z
1/2+x,-y,z
loop_
_atom_site_type_symbol
_atom_site_label
_atom_site_fract_x
_atom_site_fract_y
_atom_site_fract_z
Si Si1 0.734855 0.404801 0.126828
Si Si2 0.283715 0.657921 0.348250
Si Si3 0.138782 0.089867 0.541910
Si Si4 0.417945 0.846382 0.767562
O O1 0.750000 0.500000 0.133862
O O2 0.788216 0.362426 0.217957
O O3 0.650714 0.383948 0.164131
O O4 0.750000 0.378464 0.000000
O O5 0.259164 0.750000 0.361774
O O6 0.218704 0.600199 0.395671
O O7 0.353127 0.642200 0.428890
O O8 0.086138 0.121745 0.639558
O O9 0.124834 0.000000 0.500000
O O10 0.500000 0.864851 0.813301
O O11 0.408206 0.750000 0.766024
#
# Coordination Sequence:
#
# PCOD9500346 Si02
#       4
#    16  16  16  16
#     4  10  20  35  54  78 104 136 179 224 266 308
#     4  10  17  27  47  74 103 134 172 218 261 300
#     4  10  17  28  47  72 103 134 168 209 256 307
#     4  10  21  37  56  78 107 142 177 214 262 321
#
# _framework density 17.888817
#
# number of rings (size 3 to 8) (size 9 to 14) (size 15 to 20)
#    0.000    2.000    0.000    9.750    0.000    2.500 
#    0.000    2.500    0.000    1.500    0.000    3.500 
#    0.000    0.000    0.000    0.000    0.000    0.000 
#
# Total GULP energy -178228.014327 kJ/mol
# GULP energy per Si atom -5569.625448 kJ/mol
# Density = 1.784810 g / cm^3
# Si number density = 17.888817 Si / 1000 Ang^3
#
#
#
# Elastic Constant Matrix: (Units=GPa)
#
#
# Indices 1 2 3 4 5 6 
#
# 1 84.2846 33.2719 45.3226 0.0000 0.0000 0.0000
# 2 33.2719 76.3838 33.5034 0.0000 0.0000 0.0000
# 3 45.3226 33.5034 155.0356 0.0000 0.0000 0.0000
# 4 0.0000 0.0000 0.0000 -23.4601 0.0000 0.0000
# 5 0.0000 0.0000 0.0000 0.0000 16.0398 0.0000
# 6 0.0000 0.0000 0.0000 0.0000 0.0000 -22.6532
#
#
#
# Elastic Compliance Matrix: (Units=1/GPa)
#
#
# Indices 1 2 3 4 5 6 
#
# 1 0.015857 -0.005384 -0.003472 0.000000 0.000000 0.000000
# 2 -0.005384 0.016291 -0.001946 0.000000 0.000000 0.000000
# 3 -0.003472 -0.001946 0.007886 0.000000 0.000000 0.000000
# 4 0.000000 0.000000 0.000000 -0.042626 0.000000 0.000000
# 5 0.000000 0.000000 0.000000 0.000000 0.062345 0.000000
# 6 0.000000 0.000000 0.000000 0.000000 0.000000 -0.044144
#
#
# Mechanical properties :
#
#
# Convention : Reuss Voigt Hill
#
# Bulk Modulus (GPa) = 54.26476 59.98885 57.12681
# Shear Modulus (GPa) = 115.32116 7.55906 61.44011
#
# Velocity S-wave (km/s) = 8.03775 2.05785 5.86686
# Velocity P-wave (km/s) = 10.79541 6.26525 8.82594
#
# Compressibility (1/GPa) = 0.01842817
#
# Stress axis : x y z
#
# Youngs Moduli (GPa) = 63.06341 61.38419 126.81065
#
# Poissons Ratio (x) = 0.33051 0.44029
# Poissons Ratio (y) = 0.33955 0.24683
# Poissons Ratio (z) = 0.21896 0.11948
#
# Static dielectric constant tensor:
#      x y z
#    x 1.652690 0.000000 0.000000 
#    y 0.000000 1.621250 0.000000 
#    z 0.000000 0.000000 1.654950 
# 
# From -- ./inp_files/17643.got.cif
#   From: 2010.05.17/outbox.cif.g08.bks.cpg/sg67_9_cif.got.tgz:17643.got - 2010.06.03 18:28:57.
