data_PCOD9500844
_publ_section_title
;
Structure prediction by ZEFSAII (Michael W. Deem and Ramdas Pophale) SiO2 
 PCOD9500844
Probable space group: C M M A
;
_chemical_formula_sum "Si O2"
_cell_formula_units_Z 88
_cell_length_a 12.626817
_cell_length_b 26.626394
_cell_length_c 14.782061
_cell_angle_alpha 90.000000
_cell_angle_beta 90.000000
_cell_angle_gamma 90.000000
_cell_volume 4969.826535
_symmetry_space_group_name_H-M "C M M A"
_symmetry_group_IT_number 67
_symmetry_cell_setting 'orthorhombic'
loop_
_space_group_symop_operation_xyz
x,y,z
-x,1/2-y,z
x,-y,-z
-x,1/2+y,-z
-x,-y,-z
x,1/2+y,-z
-x,y,z
x,1/2-y,z
1/2+x,1/2+y,z
1/2-x,-y,z
1/2+x,1/2-y,-z
1/2-x,y,-z
1/2-x,1/2-y,-z
1/2+x,y,-z
1/2-x,1/2+y,z
1/2+x,-y,z
loop_
_atom_site_type_symbol
_atom_site_label
_atom_site_fract_x
_atom_site_fract_y
_atom_site_fract_z
Si Si1 0.723725 0.659465 0.104188
Si Si2 0.380182 0.408261 0.345709
Si Si3 0.220397 0.446012 0.200372
Si Si4 0.000000 0.308998 0.184532
Si Si5 0.624834 0.695221 0.740102
Si Si6 0.000000 0.413337 0.282904
Si Si7 0.500000 0.559701 0.491902
O O1 0.734608 0.600736 0.132336
O O2 0.606461 0.679368 0.127965
O O3 0.805747 0.686998 0.170818
O O4 0.750000 0.667082 0.000000
O O5 0.500000 0.417113 0.307857
O O6 0.297736 0.439177 0.287054
O O7 0.352898 0.350239 0.328106
O O8 0.398445 0.420920 0.450488
O O9 0.250000 0.500000 0.160244
O O10 0.102364 0.439090 0.238319
O O11 0.000000 0.353447 0.260340
O O12 0.000000 0.250000 0.212661
O O13 0.500000 0.693002 0.762390
O O14 0.647805 0.750000 0.701099
O O15 0.000000 0.422579 0.389715
O O16 0.500000 0.500000 0.500000
#
# Coordination Sequence:
#
# PCOD9500844 Si02
#       7
#    16  16  16   8  16   8   8
#     4  10  22  37  54  82 108 137 184 227 264 320
#     4   8  18  33  50  78 106 134 176 223 257 304
#     4  10  20  36  57  74 109 148 178 219 269 323
#     4  10  22  40  56  75 112 147 176 220 271 327
#     4   9  17  32  54  77 104 137 172 217 270 311
#     4  10  22  36  53  84 109 143 183 214 273 328
#     4  10  18  32  55  81 109 139 183 222 263 314
#
# _framework density 17.706855000000001
#
# number of rings (size 3 to 8) (size 9 to 14) (size 15 to 20)
#    0.545    2.000    0.000    1.636    2.545    2.545 
#    0.000    2.727    0.000    3.273    0.000    7.636 
#    0.000    0.000    0.000    0.000    0.000    0.000 
#
# Total GULP energy -245052.017908 kJ/mol
# GULP energy per Si atom -5569.364043 kJ/mol
# Density = 1.766655 g / cm^3
# Si number density = 17.706855 Si / 1000 Ang^3
#
#
#
# Elastic Constant Matrix: (Units=GPa)
#
#
# Indices 1 2 3 4 5 6 
#
# 1 43.4952 31.9943 11.8228 0.0000 0.0000 0.0000
# 2 31.9943 130.1070 30.9400 0.0000 0.0000 0.0000
# 3 11.8228 30.9400 79.3519 0.0000 0.0000 0.0000
# 4 0.0000 0.0000 0.0000 4.7829 0.0000 0.0000
# 5 0.0000 0.0000 0.0000 0.0000 16.3433 0.0000
# 6 0.0000 0.0000 0.0000 0.0000 0.0000 16.8870
#
#
#
# Elastic Compliance Matrix: (Units=1/GPa)
#
#
# Indices 1 2 3 4 5 6 
#
# 1 0.028264 -0.006557 -0.001655 0.000000 0.000000 0.000000
# 2 -0.006557 0.009993 -0.002919 0.000000 0.000000 0.000000
# 3 -0.001655 -0.002919 0.013987 0.000000 0.000000 0.000000
# 4 0.000000 0.000000 0.000000 0.209080 0.000000 0.000000
# 5 0.000000 0.000000 0.000000 0.000000 0.061187 0.000000
# 6 0.000000 0.000000 0.000000 0.000000 0.000000 0.059217
#
#
# Mechanical properties :
#
#
# Convention : Reuss Voigt Hill
#
# Bulk Modulus (GPa) = 33.35332 44.71868 39.03600
# Shear Modulus (GPa) = 12.07781 19.48245 15.78013
#
# Velocity S-wave (km/s) = 2.61453 3.32064 2.98852
# Velocity P-wave (km/s) = 5.29072 6.32551 5.83111
#
# Compressibility (1/GPa) = 0.02998202
#
# Stress axis : x y z
#
# Youngs Moduli (GPa) = 35.38087 100.07432 71.49571
#
# Poissons Ratio (x) = 0.65617 0.11829
# Poissons Ratio (y) = 0.23199 0.20872
# Poissons Ratio (z) = 0.05854 0.29214
#
# Static dielectric constant tensor:
#      x y z
#    x 1.611260 0.000000 0.000000 
#    y 0.000000 1.652760 0.000000 
#    z 0.000000 0.000000 1.563280 
# 
# From -- ./inp_files/26316.got.cif
#   From: 2010.05.17/outbox.cif.g08.bks.cpg/sg67_14_cif.got.tgz:26316.got - 2010.06.03 18:28:57.
