data_PCOD9500994
_publ_section_title
;
Structure prediction by ZEFSAII (Michael W. Deem and Ramdas Pophale) SiO2 
 PCOD9500994
Probable space group: C M M A
;
_chemical_formula_sum "Si O2"
_cell_formula_units_Z 80
_cell_length_a 24.429853
_cell_length_b 8.453516
_cell_length_c 21.076878
_cell_angle_alpha 90.000000
_cell_angle_beta 90.000000
_cell_angle_gamma 90.000000
_cell_volume 4352.757920
_symmetry_space_group_name_H-M "C M M A"
_symmetry_group_IT_number 67
_symmetry_cell_setting 'orthorhombic'
loop_
_space_group_symop_operation_xyz
x,y,z
-x,1/2-y,z
x,-y,-z
-x,1/2+y,-z
-x,-y,-z
x,1/2+y,-z
-x,y,z
x,1/2-y,z
1/2+x,1/2+y,z
1/2-x,-y,z
1/2+x,1/2-y,-z
1/2-x,y,-z
1/2-x,1/2-y,-z
1/2+x,y,-z
1/2-x,1/2+y,z
1/2+x,-y,z
loop_
_atom_site_type_symbol
_atom_site_label
_atom_site_fract_x
_atom_site_fract_y
_atom_site_fract_z
Si Si1 0.188696 0.559991 0.070186
Si Si2 0.500000 0.561573 0.380140
Si Si3 0.811825 0.441103 0.688038
Si Si4 0.000000 0.058066 0.764612
Si Si5 0.384762 0.939586 0.569117
Si Si6 0.381812 0.442873 0.189555
O O1 0.189907 0.750000 0.069334
O O2 0.250000 0.500000 0.084800
O O3 0.146784 0.505682 0.124485
O O4 0.174207 0.500000 0.000000
O O5 0.500000 0.750000 0.381558
O O6 0.500000 0.502046 0.307530
O O7 0.554544 0.498979 0.413986
O O8 0.811614 0.250000 0.688338
O O9 0.750000 0.500000 0.689593
O O10 0.843874 0.493573 0.624864
O O11 0.845496 0.493496 0.750160
O O12 0.944305 0.006783 0.799286
O O13 0.000000 0.250000 0.761892
O O14 0.385479 0.750000 0.569021
O O15 0.368309 0.000000 0.500000
O O16 0.381795 0.250000 0.189247
#
# Coordination Sequence:
#
# PCOD9500994 Si02
#       6
#    16   8  16   8  16  16
#     4  10  19  33  54  82 113 147 186 224 271 322
#     4  12  23  37  58  87 114 141 183 231 283 330
#     4  10  21  37  57  81 108 144 185 228 277 330
#     4  10  18  37  62  81 109 145 185 227 274 334
#     4  11  23  40  60  81 111 147 186 229 280 335
#     4   9  18  34  58  83 107 143 187 226 272 328
#
# _framework density 18.379151
#
# number of rings (size 3 to 8) (size 9 to 14) (size 15 to 20)
#    0.000    1.800    2.000    3.600    0.000    2.000 
#    0.000    5.500    0.000    0.000    0.000    0.000 
#    0.000    0.000    0.000    0.000    0.000    0.000 
#
# Total GULP energy -223436.307631 kJ/mol
# GULP energy per Si atom -5585.907691 kJ/mol
# Density = 1.833732 g / cm^3
# Si number density = 18.379151 Si / 1000 Ang^3
#
#
#
# Elastic Constant Matrix: (Units=GPa)
#
#
# Indices 1 2 3 4 5 6 
#
# 1 161.2113 22.1562 100.2740 0.0000 0.0000 0.0000
# 2 22.1562 36.6684 25.9298 0.0000 0.0000 0.0000
# 3 100.2740 25.9298 165.2327 0.0000 0.0000 0.0000
# 4 0.0000 0.0000 0.0000 17.2395 0.0000 0.0000
# 5 0.0000 0.0000 0.0000 0.0000 49.0514 0.0000
# 6 0.0000 0.0000 0.0000 0.0000 0.0000 21.8840
#
#
#
# Elastic Compliance Matrix: (Units=1/GPa)
#
#
# Indices 1 2 3 4 5 6 
#
# 1 0.010091 -0.001987 -0.005812 0.000000 0.000000 0.000000
# 2 -0.001987 0.031067 -0.003669 0.000000 0.000000 0.000000
# 3 -0.005812 -0.003669 0.010155 0.000000 0.000000 0.000000
# 4 0.000000 0.000000 0.000000 0.058006 0.000000 0.000000
# 5 0.000000 0.000000 0.000000 0.000000 0.020387 0.000000
# 6 0.000000 0.000000 0.000000 0.000000 0.000000 0.045696
#
#
# Mechanical properties :
#
#
# Convention : Reuss Voigt Hill
#
# Bulk Modulus (GPa) = 35.24138 73.31471 54.27805
# Shear Modulus (GPa) = 24.06175 31.95179 28.00677
#
# Velocity S-wave (km/s) = 3.62219 4.17403 3.90787
# Velocity P-wave (km/s) = 6.05888 7.95027 7.06813
#
# Compressibility (1/GPa) = 0.02837573
#
# Stress axis : x y z
#
# Youngs Moduli (GPa) = 99.09399 32.18852 98.47243
#
# Poissons Ratio (x) = 0.06397 0.57235
# Poissons Ratio (y) = 0.19694 0.36131
# Poissons Ratio (z) = 0.57596 0.11811
#
# Static dielectric constant tensor:
#      x y z
#    x 1.607500 0.000000 0.000000 
#    y 0.000000 1.631930 0.000000 
#    z 0.000000 0.000000 1.621670 
# 
# From -- ./inp_files/39507.got.cif
#   From: 2010.05.17/outbox.cif.g08.bks.cpg/sg67_20_cif.got.tgz:39507.got - 2010.06.03 18:28:57.
