data_PCOD9500286
_publ_section_title
;
Structure prediction by ZEFSAII (Michael W. Deem and Ramdas Pophale) SiO2 
 PCOD9500286
Probable space group: C M M A
;
_chemical_formula_sum "Si O2"
_cell_formula_units_Z 96
_cell_length_a 8.718866
_cell_length_b 27.895344
_cell_length_c 24.550295
_cell_angle_alpha 90.000000
_cell_angle_beta 90.000000
_cell_angle_gamma 90.000000
_cell_volume 5971.018813
_symmetry_space_group_name_H-M "C M M A"
_symmetry_group_IT_number 67
_symmetry_cell_setting 'orthorhombic'
loop_
_space_group_symop_operation_xyz
x,y,z
-x,1/2-y,z
x,-y,-z
-x,1/2+y,-z
-x,-y,-z
x,1/2+y,-z
-x,y,z
x,1/2-y,z
1/2+x,1/2+y,z
1/2-x,-y,z
1/2+x,1/2-y,-z
1/2-x,y,-z
1/2-x,1/2-y,-z
1/2+x,y,-z
1/2-x,1/2+y,z
1/2+x,-y,z
loop_
_atom_site_type_symbol
_atom_site_label
_atom_site_fract_x
_atom_site_fract_y
_atom_site_fract_z
Si Si1 0.815566 0.804220 0.336673
Si Si2 0.316819 0.552292 0.610876
Si Si3 0.317657 0.353482 0.558049
Si Si4 0.182346 0.946393 0.831913
Si Si5 0.683401 0.601227 0.726197
Si Si6 0.183558 0.445661 0.944293
O O1 0.775686 0.750000 0.321253
O O2 0.739360 0.819176 0.393517
O O3 0.775175 0.845029 0.292826
O O4 0.000000 0.807299 0.343879
O O5 0.500000 0.552681 0.603802
O O6 0.250000 0.500000 0.599853
O O7 0.244197 0.593600 0.573634
O O8 0.284251 0.567844 0.673533
O O9 0.500000 0.354116 0.555965
O O10 0.250000 0.338904 0.500000
O O11 0.227872 0.916470 0.778916
O O12 0.256603 0.925099 0.887140
O O13 0.000000 0.949756 0.838526
O O14 0.250000 0.000000 0.824398
O O15 0.500000 0.598960 0.736348
O O16 0.250000 0.500000 0.943362
O O17 0.000000 0.447014 0.946016
O O18 0.250000 0.423477 0.000000
#
# Coordination Sequence:
#
# PCOD9500286 Si02
#       6
#    16  16  16  16  16  16
#     4   9  19  37  58  76  95 120 150 188 237 288
#     4  10  20  34  51  71  96 126 159 193 232 277
#     4  11  22  36  53  73  97 123 154 191 230 276
#     4  11  20  29  43  65  94 129 166 199 232 270
#     4   9  18  32  49  70  95 121 152 191 232 276
#     4  10  17  27  41  59  87 123 163 201 236 272
#
# _framework density 16.077659000000001
#
# number of rings (size 3 to 8) (size 9 to 14) (size 15 to 20)
#    0.000    2.000    0.000    8.000    0.000    5.667 
#    0.000    1.667    0.000    0.000    0.000    0.000 
#    0.000    0.667    0.000    1.833    0.000    3.000 
#
# Total GULP energy -267886.256382 kJ/mol
# GULP energy per Si atom -5580.963675 kJ/mol
# Density = 1.604107 g / cm^3
# Si number density = 16.077659 Si / 1000 Ang^3
#
#
#
# Elastic Constant Matrix: (Units=GPa)
#
#
# Indices 1 2 3 4 5 6 
#
# 1 96.4624 23.7347 52.1323 0.0000 0.0000 0.0000
# 2 23.7347 65.0346 21.2484 0.0000 0.0000 0.0000
# 3 52.1323 21.2484 105.4897 0.0000 0.0000 0.0000
# 4 0.0000 0.0000 0.0000 9.0491 0.0000 0.0000
# 5 0.0000 0.0000 0.0000 0.0000 62.1946 0.0000
# 6 0.0000 0.0000 0.0000 0.0000 0.0000 17.6440
#
#
#
# Elastic Compliance Matrix: (Units=1/GPa)
#
#
# Indices 1 2 3 4 5 6 
#
# 1 0.014746 -0.003212 -0.006640 0.000000 0.000000 0.000000
# 2 -0.003212 0.017159 -0.001869 0.000000 0.000000 0.000000
# 3 -0.006640 -0.001869 0.013138 0.000000 0.000000 0.000000
# 4 0.000000 0.000000 0.000000 0.110508 0.000000 0.000000
# 5 0.000000 0.000000 0.000000 0.000000 0.016079 0.000000
# 6 0.000000 0.000000 0.000000 0.000000 0.000000 0.056677
#
#
# Mechanical properties :
#
#
# Convention : Reuss Voigt Hill
#
# Bulk Modulus (GPa) = 46.29593 51.24641 48.77117
# Shear Modulus (GPa) = 19.30884 29.10229 24.20556
#
# Velocity S-wave (km/s) = 3.46927 4.25915 3.88434
# Velocity P-wave (km/s) = 6.70115 7.49204 7.10761
#
# Compressibility (1/GPa) = 0.02160017
#
# Stress axis : x y z
#
# Youngs Moduli (GPa) = 67.81626 58.27744 76.11718
#
# Poissons Ratio (x) = 0.18719 0.50544
# Poissons Ratio (y) = 0.21782 0.14226
# Poissons Ratio (z) = 0.45032 0.10892
#
# Static dielectric constant tensor:
#      x y z
#    x 1.534560 0.000000 0.000000 
#    y 0.000000 1.523520 0.000000 
#    z 0.000000 0.000000 1.560010 
# 
# From -- ./inp_files/40932.got.cif
#   From: 2010.05.17/outbox.cif.g08.bks.cpg/sg67_21_cif.got.tgz:40932.got - 2010.06.03 18:28:57.
