data_PCOD9500544
_publ_section_title
;
Structure prediction by ZEFSAII (Michael W. Deem and Ramdas Pophale) SiO2 
 PCOD9500544
Probable space group: C M M A
;
_chemical_formula_sum "Si O2"
_cell_formula_units_Z 96
_cell_length_a 27.992073
_cell_length_b 8.830328
_cell_length_c 25.007816
_cell_angle_alpha 90.000000
_cell_angle_beta 90.000000
_cell_angle_gamma 90.000000
_cell_volume 6181.411602
_symmetry_space_group_name_H-M "C M M A"
_symmetry_group_IT_number 67
_symmetry_cell_setting 'orthorhombic'
loop_
_space_group_symop_operation_xyz
x,y,z
-x,1/2-y,z
x,-y,-z
-x,1/2+y,-z
-x,-y,-z
x,1/2+y,-z
-x,y,z
x,1/2-y,z
1/2+x,1/2+y,z
1/2-x,-y,z
1/2+x,1/2-y,-z
1/2-x,y,-z
1/2-x,1/2-y,-z
1/2+x,y,-z
1/2-x,1/2+y,z
1/2+x,-y,z
loop_
_atom_site_type_symbol
_atom_site_label
_atom_site_fract_x
_atom_site_fract_y
_atom_site_fract_z
Si Si1 0.148240 0.068721 0.556741
Si Si2 0.058113 0.425314 0.054905
Si Si3 0.606079 0.432272 0.719524
Si Si4 0.698436 0.568032 0.666746
Si Si5 0.554297 0.067265 0.381775
Si Si6 0.555299 0.934870 0.171803
O O1 0.149264 0.250000 0.552529
O O2 0.182283 0.025299 0.606210
O O3 0.094545 0.023204 0.575000
O O4 0.161306 0.000000 0.500000
O O5 0.071762 0.250000 0.053011
O O6 0.072287 0.488638 0.113150
O O7 0.000000 0.432445 0.055221
O O8 0.074847 0.500000 0.000000
O O9 0.608237 0.250000 0.717298
O O10 0.657244 0.502210 0.704790
O O11 0.569912 0.491609 0.673906
O O12 0.586965 0.479347 0.777734
O O13 0.698832 0.750000 0.670106
O O14 0.750000 0.500000 0.678536
O O15 0.500000 0.027608 0.396087
O O16 0.557270 0.250000 0.375529
O O17 0.500000 0.981074 0.179875
O O18 0.555123 0.750000 0.169732
#
# Coordination Sequence:
#
# PCOD9500544 Si02
#       6
#    16  16  16  16  16  16
#     4   9  19  33  48  67  90 114 142 176 213 257
#     4   8  13  22  35  52  79 116 154 188 217 244
#     4  10  18  29  47  69  90 114 148 185 220 263
#     4  10  21  37  53  69  89 112 138 173 221 269
#     4   9  18  32  46  62  90 124 151 180 219 255
#     4   8  14  24  39  61  90 122 153 184 216 250
#
# _framework density 15.530434
#
# number of rings (size 3 to 8) (size 9 to 14) (size 15 to 20)
#    0.000    3.000    0.000    3.500    0.000    5.000 
#    0.000    3.333    0.000    4.000    0.000    0.000 
#    0.000    0.667    0.000    7.667    0.000    2.667 
#
# Total GULP energy -267328.246796 kJ/mol
# GULP energy per Si atom -5569.338475 kJ/mol
# Density = 1.549509 g / cm^3
# Si number density = 15.530434 Si / 1000 Ang^3
#
#
#
# Elastic Constant Matrix: (Units=GPa)
#
#
# Indices 1 2 3 4 5 6 
#
# 1 65.4309 14.2181 28.6412 0.0000 0.0000 0.0000
# 2 14.2181 18.4383 22.5965 0.0000 0.0000 0.0000
# 3 28.6412 22.5965 124.8560 0.0000 0.0000 0.0000
# 4 0.0000 0.0000 0.0000 22.8853 0.0000 0.0000
# 5 0.0000 0.0000 0.0000 0.0000 10.2099 0.0000
# 6 0.0000 0.0000 0.0000 0.0000 0.0000 15.3732
#
#
#
# Elastic Compliance Matrix: (Units=1/GPa)
#
#
# Indices 1 2 3 4 5 6 
#
# 1 0.018807 -0.011842 -0.002171 0.000000 0.000000 0.000000
# 2 -0.011842 0.077148 -0.011246 0.000000 0.000000 0.000000
# 3 -0.002171 -0.011246 0.010543 0.000000 0.000000 0.000000
# 4 0.000000 0.000000 0.000000 0.043696 0.000000 0.000000
# 5 0.000000 0.000000 0.000000 0.000000 0.097944 0.000000
# 6 0.000000 0.000000 0.000000 0.000000 0.000000 0.065048
#
#
# Mechanical properties :
#
#
# Convention : Reuss Voigt Hill
#
# Bulk Modulus (GPa) = 17.86335 37.73741 27.80038
# Shear Modulus (GPa) = 13.07657 19.24498 16.16077
#
# Velocity S-wave (km/s) = 2.90487 3.52402 3.22931
# Velocity P-wave (km/s) = 4.77264 6.39609 5.64305
#
# Compressibility (1/GPa) = 0.05598056
#
# Stress axis : x y z
#
# Youngs Moduli (GPa) = 53.17224 12.96205 94.85368
#
# Poissons Ratio (x) = 0.15349 0.20594
# Poissons Ratio (y) = 0.62964 1.06672
# Poissons Ratio (z) = 0.11544 0.14577
#
# Static dielectric constant tensor:
#      x y z
#    x 1.500960 0.000000 0.000000 
#    y 0.000000 1.517600 0.000000 
#    z 0.000000 0.000000 1.529380 
# 
# From -- ./inp_files/40943.got.cif
#   From: 2010.05.17/outbox.cif.g08.bks.cpg/sg67_21_cif.got.tgz:40943.got - 2010.06.03 18:28:57.
