data_PCOD9500248
_publ_section_title
;
Structure prediction by ZEFSAII (Michael W. Deem and Ramdas Pophale) SiO2 
 PCOD9500248
Probable space group: C M M A
;
_chemical_formula_sum "Si O2"
_cell_formula_units_Z 64
_cell_length_a 24.969593
_cell_length_b 23.151130
_cell_length_c 6.702769
_cell_angle_alpha 90.000000
_cell_angle_beta 90.000000
_cell_angle_gamma 90.000000
_cell_volume 3874.698455
_symmetry_space_group_name_H-M "C M M A"
_symmetry_group_IT_number 67
_symmetry_cell_setting 'orthorhombic'
loop_
_space_group_symop_operation_xyz
x,y,z
-x,1/2-y,z
x,-y,-z
-x,1/2+y,-z
-x,-y,-z
x,1/2+y,-z
-x,y,z
x,1/2-y,z
1/2+x,1/2+y,z
1/2-x,-y,z
1/2+x,1/2-y,-z
1/2-x,y,-z
1/2-x,1/2-y,-z
1/2+x,y,-z
1/2-x,1/2+y,z
1/2+x,-y,z
loop_
_atom_site_type_symbol
_atom_site_label
_atom_site_fract_x
_atom_site_fract_y
_atom_site_fract_z
Si Si1 0.750000 0.500000 0.500000
Si Si2 0.500000 0.250000 0.338488
Si Si3 0.088510 0.623971 0.847231
Si Si4 0.000000 0.563151 0.102245
Si Si5 0.301496 0.941938 0.124709
Si Si6 0.000000 0.119996 0.483806
Si Si7 0.938443 0.250000 0.049942
O O1 0.716223 0.538879 0.346154
O O2 0.500000 0.312570 0.444549
O O3 0.449043 0.250000 0.187538
O O4 0.147220 0.597983 0.856836
O O5 0.053018 0.611478 0.650689
O O6 0.089346 0.692368 0.878742
O O7 0.052116 0.596541 0.021417
O O8 0.000000 0.573534 0.338155
O O9 0.000000 0.500000 0.000000
O O10 0.250000 0.918309 0.000000
O O11 0.315999 0.000000 0.000000
O O12 0.000000 0.250000 0.130344
#
# Coordination Sequence:
#
# PCOD9500248 Si02
#       7
#     4   4  16   8  16   8   8
#     4   8  18  40  56  82 100 140 190 220 272 338
#     4  10  16  38  56  74 108 158 188 206 276 320
#     4  11  21  35  56  83 109 143 188 226 271 331
#     4  11  22  34  49  82 118 143 179 219 279 333
#     4   9  20  38  61  78 109 145 184 227 276 322
#     4  11  20  32  56  79 114 146 177 228 269 326
#     4  10  17  38  56  76 113 146 188 220 265 338
#
# _framework density 16.517413999999999
#
# number of rings (size 3 to 8) (size 9 to 14) (size 15 to 20)
#    0.375    1.750    5.000    1.500    0.000    8.000 
#    0.000    0.625    0.000    0.750    0.000    0.000 
#    0.000    0.000    0.000    0.000    0.000    0.000 
#
# Total GULP energy -178235.659736 kJ/mol
# GULP energy per Si atom -5569.864367 kJ/mol
# Density = 1.647982 g / cm^3
# Si number density = 16.517414 Si / 1000 Ang^3
#
#
#
# Elastic Constant Matrix: (Units=GPa)
#
#
# Indices 1 2 3 4 5 6 
#
# 1 158.1494 76.7552 57.8599 0.0000 0.0000 0.0000
# 2 76.7552 103.1691 37.9325 0.0000 0.0000 0.0000
# 3 57.8599 37.9325 118.4921 0.0000 0.0000 0.0000
# 4 0.0000 0.0000 0.0000 12.9885 0.0000 0.0000
# 5 0.0000 0.0000 0.0000 0.0000 -4.9332 0.0000
# 6 0.0000 0.0000 0.0000 0.0000 0.0000 51.9980
#
#
#
# Elastic Compliance Matrix: (Units=1/GPa)
#
#
# Indices 1 2 3 4 5 6 
#
# 1 0.010794 -0.006905 -0.003060 0.000000 0.000000 0.000000
# 2 -0.006905 0.015404 -0.001559 0.000000 0.000000 0.000000
# 3 -0.003060 -0.001559 0.010433 0.000000 0.000000 0.000000
# 4 0.000000 0.000000 0.000000 0.076991 0.000000 0.000000
# 5 0.000000 0.000000 0.000000 0.000000 -0.202707 0.000000
# 6 0.000000 0.000000 0.000000 0.000000 0.000000 0.019232
#
#
# Mechanical properties :
#
#
# Convention : Reuss Voigt Hill
#
# Bulk Modulus (GPa) = 73.63250 80.54509 77.08879
# Shear Modulus (GPa) = -118.26664 25.82817 -46.21924
#
# Velocity S-wave (km/s) = -8.47093 3.95865 -5.29555
# Velocity P-wave (km/s) = 7.14143 8.35249 3.06301
#
# Compressibility (1/GPa) = 0.01358096
#
# Stress axis : x y z
#
# Youngs Moduli (GPa) = 92.64262 64.92002 95.85146
#
# Poissons Ratio (x) = 0.44830 0.29332
# Poissons Ratio (y) = 0.63974 0.14945
# Poissons Ratio (z) = 0.28350 0.10122
#
# Static dielectric constant tensor:
#      x y z
#    x 1.536580 0.000000 0.000000 
#    y 0.000000 1.569180 0.000000 
#    z 0.000000 0.000000 1.592990 
# 
# From -- ./inp_files/2898.got.cif
#   From: 2010.05.17/outbox.cif.g08.bks.cpg/sg67_2_cif.got.tgz:2898.got - 2010.06.03 18:28:57.
