data_PCOD9500689
_publ_section_title
;
Structure prediction by ZEFSAII (Michael W. Deem and Ramdas Pophale) SiO2 
 PCOD9500689
Probable space group: C M M A
;
_chemical_formula_sum "Si O2"
_cell_formula_units_Z 80
_cell_length_a 16.578638
_cell_length_b 26.402356
_cell_length_c 9.724144
_cell_angle_alpha 90.000000
_cell_angle_beta 90.000000
_cell_angle_gamma 90.000000
_cell_volume 4256.404687
_symmetry_space_group_name_H-M "C M M A"
_symmetry_group_IT_number 67
_symmetry_cell_setting 'orthorhombic'
loop_
_space_group_symop_operation_xyz
x,y,z
-x,1/2-y,z
x,-y,-z
-x,1/2+y,-z
-x,-y,-z
x,1/2+y,-z
-x,y,z
x,1/2-y,z
1/2+x,1/2+y,z
1/2-x,-y,z
1/2+x,1/2-y,-z
1/2-x,y,-z
1/2-x,1/2-y,-z
1/2+x,y,-z
1/2-x,1/2+y,z
1/2+x,-y,z
loop_
_atom_site_type_symbol
_atom_site_label
_atom_site_fract_x
_atom_site_fract_y
_atom_site_fract_z
Si Si1 0.261363 0.558737 0.333408
Si Si2 0.402813 0.693213 0.972141
Si Si3 0.364054 0.691738 0.407234
Si Si4 0.686477 0.661559 0.700188
Si Si5 0.088871 0.613100 0.799368
O O1 0.250000 0.500000 0.300364
O O2 0.250000 0.564057 0.500000
O O3 0.200622 0.601606 0.276441
O O4 0.347171 0.575062 0.268393
O O5 0.500000 0.690759 0.951711
O O6 0.385347 0.750000 0.029689
O O7 0.354607 0.686777 0.830706
O O8 0.381054 0.645691 0.069471
O O9 0.385640 0.750000 0.405264
O O10 0.363879 0.671548 0.562422
O O11 0.274038 0.684287 0.341916
O O12 0.417912 0.656889 0.313911
O O13 0.000000 0.591292 0.827708
#
# Coordination Sequence:
#
# PCOD9500689 Si02
#       5
#    16  16  16  16  16
#     4  10  20  40  63  83 109 144 191 246 296 338
#     4  10  21  36  55  82 122 163 189 220 278 347
#     4  10  18  30  53  82 113 146 187 236 279 329
#     4  10  18  35  53  82 113 147 192 237 279 333
#     4  10  21  38  57  84 115 147 190 233 281 341
#
# _framework density 18.795206
#
# number of rings (size 3 to 8) (size 9 to 14) (size 15 to 20)
#    0.000    2.000    4.000    3.000    0.000    5.200 
#    0.000   10.000    0.000    2.400    0.000    0.000 
#    0.000    0.000    0.000    0.000    0.000    0.000 
#
# Total GULP energy -222872.806399 kJ/mol
# GULP energy per Si atom -5571.820160 kJ/mol
# Density = 1.875243 g / cm^3
# Si number density = 18.795206 Si / 1000 Ang^3
#
#
#
# Elastic Constant Matrix: (Units=GPa)
#
#
# Indices 1 2 3 4 5 6 
#
# 1 32.9653 28.0080 47.1538 0.0000 0.0000 0.0000
# 2 28.0080 145.0590 22.7051 0.0000 0.0000 0.0000
# 3 47.1538 22.7051 91.4257 0.0000 0.0000 0.0000
# 4 0.0000 0.0000 0.0000 9.9814 0.0000 0.0000
# 5 0.0000 0.0000 0.0000 0.0000 20.3080 0.0000
# 6 0.0000 0.0000 0.0000 0.0000 0.0000 55.5610
#
#
#
# Elastic Compliance Matrix: (Units=1/GPa)
#
#
# Indices 1 2 3 4 5 6 
#
# 1 0.148365 -0.017343 -0.072214 0.000000 0.000000 0.000000
# 2 -0.017343 0.009200 0.006660 0.000000 0.000000 0.000000
# 3 -0.072214 0.006660 0.046529 0.000000 0.000000 0.000000
# 4 0.000000 0.000000 0.000000 0.100186 0.000000 0.000000
# 5 0.000000 0.000000 0.000000 0.000000 0.049242 0.000000
# 6 0.000000 0.000000 0.000000 0.000000 0.000000 0.017998
#
#
# Mechanical properties :
#
#
# Convention : Reuss Voigt Hill
#
# Bulk Modulus (GPa) = 26.10946 51.68708 38.89827
# Shear Modulus (GPa) = 9.08957 28.60896 18.84926
#
# Velocity S-wave (km/s) = 2.20150 3.90570 3.17026
# Velocity P-wave (km/s) = 4.51485 6.92092 5.84307
#
# Compressibility (1/GPa) = 0.03830030
#
# Stress axis : x y z
#
# Youngs Moduli (GPa) = 6.74011 108.69681 21.49199
#
# Poissons Ratio (x) = 1.88515 1.55202
# Poissons Ratio (y) = 0.11690 -0.14314
# Poissons Ratio (z) = 0.48673 -0.72394
#
# Static dielectric constant tensor:
#      x y z
#    x 1.676690 0.000000 0.000000 
#    y 0.000000 1.646720 0.000000 
#    z 0.000000 0.000000 1.654800 
# 
# From -- ./inp_files/9894.got.cif
#   From: 2010.05.17/outbox.cif.g08.bks.cpg/sg67_5_cif.got.tgz:9894.got - 2010.06.03 18:28:57.
