data_PCOD9500432
_publ_section_title
;
Structure prediction by ZEFSAII (Michael W. Deem and Ramdas Pophale) SiO2 
 PCOD9500432
Probable space group: C M M A
;
_chemical_formula_sum "Si O2"
_cell_formula_units_Z 96
_cell_length_a 18.487598
_cell_length_b 23.579872
_cell_length_c 12.812863
_cell_angle_alpha 90.000000
_cell_angle_beta 90.000000
_cell_angle_gamma 90.000000
_cell_volume 5585.577923
_symmetry_space_group_name_H-M "C M M A"
_symmetry_group_IT_number 67
_symmetry_cell_setting 'orthorhombic'
loop_
_space_group_symop_operation_xyz
x,y,z
-x,1/2-y,z
x,-y,-z
-x,1/2+y,-z
-x,-y,-z
x,1/2+y,-z
-x,y,z
x,1/2-y,z
1/2+x,1/2+y,z
1/2-x,-y,z
1/2+x,1/2-y,-z
1/2-x,y,-z
1/2-x,1/2-y,-z
1/2+x,y,-z
1/2-x,1/2+y,z
1/2+x,-y,z
loop_
_atom_site_type_symbol
_atom_site_label
_atom_site_fract_x
_atom_site_fract_y
_atom_site_fract_z
Si Si1 0.775307 0.934882 0.887645
Si Si2 0.220169 0.350385 0.726217
Si Si3 0.288862 0.750000 0.887872
Si Si4 0.084004 0.366299 0.152048
Si Si5 0.366081 0.317844 0.631854
Si Si6 0.082752 0.181828 0.601566
Si Si7 0.085402 0.750000 0.972357
O O1 0.736800 0.907503 0.787539
O O2 0.859329 0.915914 0.876402
O O3 0.750000 0.000000 0.888585
O O4 0.750000 0.910678 0.000000
O O5 0.228755 0.303472 0.816832
O O6 0.282107 0.335645 0.642025
O O7 0.142032 0.346614 0.674958
O O8 0.250000 0.750000 0.000000
O O9 0.372813 0.750000 0.919050
O O10 0.094389 0.349675 0.273359
O O11 0.103386 0.307906 0.090186
O O12 0.000000 0.379860 0.130875
O O13 0.372228 0.250000 0.647921
O O14 0.398795 0.330960 0.519110
O O15 0.090626 0.250000 0.613973
O O16 0.000000 0.166553 0.624732
O O17 0.000000 0.750000 0.986906
#
# Coordination Sequence:
#
# PCOD9500432 Si02
#       7
#    16  16   8  16  16  16   8
#     4  10  22  40  58  76 102 140 190 233 268 311
#     4  11  20  33  53  76 106 140 180 220 268 324
#     4  12  20  30  48  75 103 138 172 211 267 326
#     4  10  19  33  55  84 112 138 176 226 277 323
#     4  10  17  30  52  80 110 144 174 215 259 322
#     4  10  20  32  48  77 115 146 172 208 261 327
#     4  10  20  30  47  79 114 140 165 211 280 342
#
# _framework density 17.18712
#
# number of rings (size 3 to 8) (size 9 to 14) (size 15 to 20)
#    0.000    1.667    2.500    4.500    0.000    2.667 
#    0.000    3.333    0.000    8.000    0.000    5.833 
#    0.000    0.000    0.000    0.000    0.000    0.000 
#
# Total GULP energy -267771.334818 kJ/mol
# GULP energy per Si atom -5578.569475 kJ/mol
# Density = 1.714800 g / cm^3
# Si number density = 17.187120 Si / 1000 Ang^3
#
#
#
# Elastic Constant Matrix: (Units=GPa)
#
#
# Indices 1 2 3 4 5 6 
#
# 1 139.4603 38.0674 37.7414 0.0000 0.0000 0.0000
# 2 38.0674 63.1188 9.8815 0.0000 0.0000 0.0000
# 3 37.7414 9.8815 36.9886 0.0000 0.0000 0.0000
# 4 0.0000 0.0000 0.0000 19.3299 0.0000 0.0000
# 5 0.0000 0.0000 0.0000 0.0000 29.5885 0.0000
# 6 0.0000 0.0000 0.0000 0.0000 0.0000 18.1885
#
#
#
# Elastic Compliance Matrix: (Units=1/GPa)
#
#
# Indices 1 2 3 4 5 6 
#
# 1 0.011363 -0.005258 -0.010190 0.000000 0.000000 0.000000
# 2 -0.005258 0.018968 0.000298 0.000000 0.000000 0.000000
# 3 -0.010190 0.000298 0.037353 0.000000 0.000000 0.000000
# 4 0.000000 0.000000 0.000000 0.051733 0.000000 0.000000
# 5 0.000000 0.000000 0.000000 0.000000 0.033797 0.000000
# 6 0.000000 0.000000 0.000000 0.000000 0.000000 0.054980
#
#
# Mechanical properties :
#
#
# Convention : Reuss Voigt Hill
#
# Bulk Modulus (GPa) = 26.74948 45.66091 36.20520
# Shear Modulus (GPa) = 19.92381 23.67988 21.80185
#
# Velocity S-wave (km/s) = 3.40844 3.71586 3.56546
# Velocity P-wave (km/s) = 5.57561 6.71079 6.16937
#
# Compressibility (1/GPa) = 0.03738390
#
# Stress axis : x y z
#
# Youngs Moduli (GPa) = 88.00171 52.72123 26.77150
#
# Poissons Ratio (x) = 0.27721 0.27280
# Poissons Ratio (y) = 0.46272 -0.00797
# Poissons Ratio (z) = 0.89674 -0.01571
#
# Static dielectric constant tensor:
#      x y z
#    x 1.622400 0.000000 0.000000 
#    y 0.000000 1.635670 0.000000 
#    z 0.000000 0.000000 1.576870 
# 
# From -- ./inp_files/19719.got.cif
#   From: 2010.05.17/outbox.cif.g08.bks.cpg/sg67_10_cif.got.tgz:19719.got - 2010.06.03 18:28:57.
