data_PCOD9500808
_publ_section_title
;
Structure prediction by ZEFSAII (Michael W. Deem and Ramdas Pophale) SiO2 
 PCOD9500808
Probable space group: C M M A
;
_chemical_formula_sum "Si O2"
_cell_formula_units_Z 72
_cell_length_a 8.551605
_cell_length_b 32.896547
_cell_length_c 13.835144
_cell_angle_alpha 90.000000
_cell_angle_beta 90.000000
_cell_angle_gamma 90.000000
_cell_volume 3892.078856
_symmetry_space_group_name_H-M "C M M A"
_symmetry_group_IT_number 67
_symmetry_cell_setting 'orthorhombic'
loop_
_space_group_symop_operation_xyz
x,y,z
-x,1/2-y,z
x,-y,-z
-x,1/2+y,-z
-x,-y,-z
x,1/2+y,-z
-x,y,z
x,1/2-y,z
1/2+x,1/2+y,z
1/2-x,-y,z
1/2+x,1/2-y,-z
1/2-x,y,-z
1/2-x,1/2-y,-z
1/2+x,y,-z
1/2-x,1/2+y,z
1/2+x,-y,z
loop_
_atom_site_type_symbol
_atom_site_label
_atom_site_fract_x
_atom_site_fract_y
_atom_site_fract_z
Si Si1 0.187915 0.580490 0.605378
Si Si2 0.187442 0.875274 0.895866
Si Si3 0.313751 0.543777 0.801308
Si Si4 0.810205 0.665220 0.698890
Si Si5 0.810077 0.750000 0.608892
O O1 0.250000 0.569274 0.500000
O O2 0.255230 0.553566 0.692449
O O3 0.235453 0.627117 0.631235
O O4 0.000000 0.578038 0.607663
O O5 0.248311 0.920013 0.867618
O O6 0.238879 0.846173 0.807635
O O7 0.000000 0.876193 0.897032
O O8 0.250000 0.862923 0.000000
O O9 0.500000 0.544159 0.803618
O O10 0.250000 0.500000 0.831316
O O11 0.755866 0.708709 0.661209
O O12 0.000000 0.665946 0.698465
O O13 0.750000 0.750000 0.500000
O O14 0.000000 0.750000 0.608678
#
# Coordination Sequence:
#
# PCOD9500808 Si02
#       5
#    16  16  16  16   8
#     4  10  19  33  51  75 105 142 181 220 263 315
#     4  10  20  37  57  79 104 137 176 218 264 315
#     4  11  22  37  55  78 105 136 172 218 266 316
#     4   8  17  32  52  76 107 140 176 217 261 309
#     4  10  18  32  53  80 110 144 177 214 259 306
#
# _framework density 18.499110000000002
#
# number of rings (size 3 to 8) (size 9 to 14) (size 15 to 20)
#    0.000    2.222    0.000    5.333    0.000    0.889 
#    0.000   10.556    0.000    0.000    0.000    0.000 
#    0.000    0.000    0.000    0.000    0.000    0.000 
#
# Total GULP energy -201004.165289 kJ/mol
# GULP energy per Si atom -5583.449036 kJ/mol
# Density = 1.845701 g / cm^3
# Si number density = 18.499110 Si / 1000 Ang^3
#
#
#
# Elastic Constant Matrix: (Units=GPa)
#
#
# Indices 1 2 3 4 5 6 
#
# 1 72.5511 15.2288 19.1642 0.0000 0.0000 0.0000
# 2 15.2288 100.5797 23.9084 0.0000 0.0000 0.0000
# 3 19.1642 23.9084 98.2849 0.0000 0.0000 0.0000
# 4 0.0000 0.0000 0.0000 7.1509 0.0000 0.0000
# 5 0.0000 0.0000 0.0000 0.0000 33.5220 0.0000
# 6 0.0000 0.0000 0.0000 0.0000 0.0000 15.7996
#
#
#
# Elastic Compliance Matrix: (Units=1/GPa)
#
#
# Indices 1 2 3 4 5 6 
#
# 1 0.014785 -0.001649 -0.002482 0.000000 0.000000 0.000000
# 2 -0.001649 0.010736 -0.002290 0.000000 0.000000 0.000000
# 3 -0.002482 -0.002290 0.011216 0.000000 0.000000 0.000000
# 4 0.000000 0.000000 0.000000 0.139843 0.000000 0.000000
# 5 0.000000 0.000000 0.000000 0.000000 0.029831 0.000000
# 6 0.000000 0.000000 0.000000 0.000000 0.000000 0.063293
#
#
# Mechanical properties :
#
#
# Convention : Reuss Voigt Hill
#
# Bulk Modulus (GPa) = 41.84886 43.11318 42.48102
# Shear Modulus (GPa) = 17.21109 25.50211 21.35660
#
# Velocity S-wave (km/s) = 3.05351 3.71692 3.40143
# Velocity P-wave (km/s) = 5.92479 6.46350 6.20000
#
# Compressibility (1/GPa) = 0.02389551
#
# Stress axis : x y z
#
# Youngs Moduli (GPa) = 67.63599 93.14120 89.16202
#
# Poissons Ratio (x) = 0.15356 0.22129
# Poissons Ratio (y) = 0.11151 0.20420
# Poissons Ratio (z) = 0.16786 0.21331
#
# Static dielectric constant tensor:
#      x y z
#    x 1.621160 0.000000 0.000000 
#    y 0.000000 1.633580 0.000000 
#    z 0.000000 0.000000 1.618800 
# 
# From -- ./inp_files/25289.got.cif
#   From: 2010.05.17/outbox.cif.g08.bks.cpg/sg67_13_cif.got.tgz:25289.got - 2010.06.03 18:28:57.
