data_PCOD9500686
_publ_section_title
;
Structure prediction by ZEFSAII (Michael W. Deem and Ramdas Pophale) SiO2 
 PCOD9500686
Probable space group: C M M A
;
_chemical_formula_sum "Si O2"
_cell_formula_units_Z 128
_cell_length_a 18.284921
_cell_length_b 18.210018
_cell_length_c 21.915243
_cell_angle_alpha 90.000000
_cell_angle_beta 90.000000
_cell_angle_gamma 90.000000
_cell_volume 7297.090860
_symmetry_space_group_name_H-M "C M M A"
_symmetry_group_IT_number 67
_symmetry_cell_setting 'orthorhombic'
loop_
_space_group_symop_operation_xyz
x,y,z
-x,1/2-y,z
x,-y,-z
-x,1/2+y,-z
-x,-y,-z
x,1/2+y,-z
-x,y,z
x,1/2-y,z
1/2+x,1/2+y,z
1/2-x,-y,z
1/2+x,1/2-y,-z
1/2-x,y,-z
1/2-x,1/2-y,-z
1/2+x,y,-z
1/2-x,1/2+y,z
1/2+x,-y,z
loop_
_atom_site_type_symbol
_atom_site_label
_atom_site_fract_x
_atom_site_fract_y
_atom_site_fract_z
Si Si1 0.085076 0.835965 0.003033
Si Si2 0.085458 0.446119 0.758248
Si Si3 0.347918 0.072854 0.112006
Si Si4 0.857423 0.111503 0.242483
Si Si5 0.276918 0.661402 0.433881
Si Si6 0.323472 0.897286 0.108322
Si Si7 0.781106 0.080188 0.677303
Si Si8 0.079843 0.836393 0.632811
O O1 0.093889 0.750000 0.018982
O O2 0.106033 0.887873 0.059521
O O3 0.000000 0.847742 0.985757
O O4 0.138810 0.856650 0.947704
O O5 0.116015 0.414422 0.821953
O O6 0.101509 0.533413 0.760172
O O7 0.137904 0.420525 0.703838
O O8 0.000000 0.431627 0.750770
O O9 0.264736 0.102549 0.108366
O O10 0.344200 0.984194 0.104375
O O11 0.851673 0.135917 0.172614
O O12 0.774908 0.101021 0.267985
O O13 0.896480 0.155683 0.296485
O O14 0.278211 0.750000 0.434583
O O15 0.250000 0.636031 0.500000
O O16 0.225699 0.633807 0.379524
O O17 0.356808 0.634003 0.411398
O O18 0.750000 0.000000 0.658517
O O19 0.075419 0.750000 0.620072
O O20 0.000000 0.870255 0.623929
#
# Coordination Sequence:
#
# PCOD9500686 Si02
#       8
#    16  16  16  16  16  16  16  16
#     4  11  25  40  51  71 105 138 172 217 265 311
#     4  10  18  30  53  79 102 131 167 208 255 302
#     4  10  20  37  57  78 101 133 172 215 256 314
#     4   9  17  31  50  75 105 131 161 205 257 304
#     4   9  18  33  52  73 100 138 177 208 246 299
#     4  10  20  35  58  80 101 129 174 216 257 311
#     4   9  17  32  52  75 105 133 164 206 248 297
#     4   9  17  29  47  73 104 135 168 207 253 305
#
# _framework density 17.541238
#
# number of rings (size 3 to 8) (size 9 to 14) (size 15 to 20)
#    0.000    2.375    1.250    1.500    0.000    6.250 
#    0.000    2.500    0.000    1.875    0.000    5.250 
#    0.000    0.000    0.000    0.000    0.000    0.000 
#
# Total GULP energy -356634.228988 kJ/mol
# GULP energy per Si atom -5572.409828 kJ/mol
# Density = 1.750131 g / cm^3
# Si number density = 17.541238 Si / 1000 Ang^3
#
#
#
# Elastic Constant Matrix: (Units=GPa)
#
#
# Indices 1 2 3 4 5 6 
#
# 1 138.5015 25.0056 51.3348 0.0000 0.0000 0.0000
# 2 25.0056 14.5000 22.3137 0.0000 0.0000 0.0000
# 3 51.3348 22.3137 97.5524 0.0000 0.0000 0.0000
# 4 0.0000 0.0000 0.0000 17.9280 0.0000 0.0000
# 5 0.0000 0.0000 0.0000 0.0000 15.2900 0.0000
# 6 0.0000 0.0000 0.0000 0.0000 0.0000 8.6351
#
#
#
# Elastic Compliance Matrix: (Units=1/GPa)
#
#
# Indices 1 2 3 4 5 6 
#
# 1 0.010780 -0.015217 -0.002192 0.000000 0.000000 0.000000
# 2 -0.015217 0.127907 -0.021249 0.000000 0.000000 0.000000
# 3 -0.002192 -0.021249 0.016265 0.000000 0.000000 0.000000
# 4 0.000000 0.000000 0.000000 0.055779 0.000000 0.000000
# 5 0.000000 0.000000 0.000000 0.000000 0.065402 0.000000
# 6 0.000000 0.000000 0.000000 0.000000 0.000000 0.115807
#
#
# Mechanical properties :
#
#
# Convention : Reuss Voigt Hill
#
# Bulk Modulus (GPa) = 12.88075 49.76245 31.32160
# Shear Modulus (GPa) = 10.09827 18.49727 14.29777
#
# Velocity S-wave (km/s) = 2.40195 3.25083 2.85808
# Velocity P-wave (km/s) = 3.87963 6.52081 5.36528
#
# Compressibility (1/GPa) = 0.07763525
#
# Stress axis : x y z
#
# Youngs Moduli (GPa) = 92.76506 7.81819 61.48217
#
# Poissons Ratio (x) = 0.11897 0.13477
# Poissons Ratio (y) = 1.41159 1.30645
# Poissons Ratio (z) = 0.20335 0.16613
#
# Static dielectric constant tensor:
#      x y z
#    x 1.615530 0.000000 0.000000 
#    y 0.000000 1.606780 0.000000 
#    z 0.000000 0.000000 1.578940 
# 
# From -- ./inp_files/39153.got.cif
#   From: 2010.05.17/outbox.cif.g08.bks.cpg/sg67_20_cif.got.tgz:39153.got - 2010.06.03 18:28:57.
