data_PCOD9500990
_publ_section_title
;
Structure prediction by ZEFSAII (Michael W. Deem and Ramdas Pophale) SiO2 
 PCOD9500990
Probable space group: C M M A
;
_chemical_formula_sum "Si O2"
_cell_formula_units_Z 88
_cell_length_a 14.737843
_cell_length_b 23.919926
_cell_length_c 12.360810
_cell_angle_alpha 90.000000
_cell_angle_beta 90.000000
_cell_angle_gamma 90.000000
_cell_volume 4357.533036
_symmetry_space_group_name_H-M "C M M A"
_symmetry_group_IT_number 67
_symmetry_cell_setting 'orthorhombic'
loop_
_space_group_symop_operation_xyz
x,y,z
-x,1/2-y,z
x,-y,-z
-x,1/2+y,-z
-x,-y,-z
x,1/2+y,-z
-x,y,z
x,1/2-y,z
1/2+x,1/2+y,z
1/2-x,-y,z
1/2+x,1/2-y,-z
1/2-x,y,-z
1/2-x,1/2-y,-z
1/2+x,y,-z
1/2-x,1/2+y,z
1/2+x,-y,z
loop_
_atom_site_type_symbol
_atom_site_label
_atom_site_fract_x
_atom_site_fract_y
_atom_site_fract_z
Si Si1 0.358013 0.812880 0.251403
Si Si2 0.000000 0.624462 0.139414
Si Si3 0.000000 0.381244 0.114234
Si Si4 0.500000 0.996396 0.216100
Si Si5 0.348767 0.972427 0.392514
Si Si6 0.350118 0.845793 0.476607
Si Si7 0.356314 0.183103 0.287173
O O1 0.367613 0.750000 0.208628
O O2 0.413694 0.855111 0.177234
O O3 0.393362 0.814414 0.375584
O O4 0.250767 0.826463 0.263270
O O5 0.086195 0.654154 0.194077
O O6 0.000000 0.558891 0.170719
O O7 0.000000 0.633067 0.011367
O O8 0.000000 0.447948 0.126999
O O9 0.412990 0.984408 0.292158
O O10 0.339926 0.907916 0.427346
O O11 0.389450 0.000000 0.500000
O O12 0.250000 0.000000 0.375192
O O13 0.250000 0.821199 0.500000
O O14 0.388565 0.842793 0.597344
O O15 0.370466 0.250000 0.291796
#
# Coordination Sequence:
#
# PCOD9500990 Si02
#       7
#    16   8   8   8  16  16  16
#     4  10  22  41  68  97 127 164 208 258 321 381
#     4  12  28  44  65  87 126 172 223 268 318 363
#     4  12  26  46  64  91 123 169 219 279 312 368
#     4  12  26  42  63  90 123 168 219 261 318 376
#     4  11  21  36  61  95 131 168 202 249 312 384
#     4  10  18  36  65  97 133 161 200 248 319 383
#     4  10  23  43  66  97 131 169 208 257 318 384
#
# _framework density 20.194911999999999
#
# number of rings (size 3 to 8) (size 9 to 14) (size 15 to 20)
#    0.000    1.273    3.636    2.727    2.545    5.818 
#    0.000    3.636    0.000    3.273    0.000    0.000 
#    0.000    0.000    0.000    0.000    0.000    0.000 
#
# Total GULP energy -245702.847111 kJ/mol
# GULP energy per Si atom -5584.155616 kJ/mol
# Density = 2.014895 g / cm^3
# Si number density = 20.194912 Si / 1000 Ang^3
#
#
#
# Elastic Constant Matrix: (Units=GPa)
#
#
# Indices 1 2 3 4 5 6 
#
# 1 109.7333 44.0705 55.5506 0.0000 0.0000 0.0000
# 2 44.0705 140.1505 43.9212 0.0000 0.0000 0.0000
# 3 55.5506 43.9212 163.4273 0.0000 0.0000 0.0000
# 4 0.0000 0.0000 0.0000 19.5126 0.0000 0.0000
# 5 0.0000 0.0000 0.0000 0.0000 52.1506 0.0000
# 6 0.0000 0.0000 0.0000 0.0000 0.0000 -1.7312
#
#
#
# Elastic Compliance Matrix: (Units=1/GPa)
#
#
# Indices 1 2 3 4 5 6 
#
# 1 0.011872 -0.002695 -0.003311 0.000000 0.000000 0.000000
# 2 -0.002695 0.008403 -0.001342 0.000000 0.000000 0.000000
# 3 -0.003311 -0.001342 0.007605 0.000000 0.000000 0.000000
# 4 0.000000 0.000000 0.000000 0.051249 0.000000 0.000000
# 5 0.000000 0.000000 0.000000 0.000000 0.019175 0.000000
# 6 0.000000 0.000000 0.000000 0.000000 0.000000 -0.577638
#
#
# Mechanical properties :
#
#
# Convention : Reuss Voigt Hill
#
# Bulk Modulus (GPa) = 75.85538 77.82175 76.83857
# Shear Modulus (GPa) = -10.86384 31.97100 10.55358
#
# Velocity S-wave (km/s) = -2.32189 3.98316 2.28849
# Velocity P-wave (km/s) = 5.51860 7.73131 6.71670
#
# Compressibility (1/GPa) = 0.01318298
#
# Stress axis : x y z
#
# Youngs Moduli (GPa) = 84.23449 118.99932 131.49160
#
# Poissons Ratio (x) = 0.32076 0.43535
# Poissons Ratio (y) = 0.22705 0.17649
# Poissons Ratio (z) = 0.27889 0.15972
#
# Static dielectric constant tensor:
#      x y z
#    x 1.784600 0.000000 0.000000 
#    y 0.000000 1.754660 0.000000 
#    z 0.000000 0.000000 1.692530 
# 
# From -- ./inp_files/18174.got.cif
#   From: 2010.05.17/outbox.cif.g08.bks.cpg/sg67_10_cif.got.tgz:18174.got - 2010.06.03 18:28:57.
