data_PCOD9500616
_publ_section_title
;
Structure prediction by ZEFSAII (Michael W. Deem and Ramdas Pophale) SiO2 
 PCOD9500616
Probable space group: C M M A
;
_chemical_formula_sum "Si O2"
_cell_formula_units_Z 96
_cell_length_a 15.026530
_cell_length_b 30.368584
_cell_length_c 12.239522
_cell_angle_alpha 90.000000
_cell_angle_beta 90.000000
_cell_angle_gamma 90.000000
_cell_volume 5585.315400
_symmetry_space_group_name_H-M "C M M A"
_symmetry_group_IT_number 67
_symmetry_cell_setting 'orthorhombic'
loop_
_space_group_symop_operation_xyz
x,y,z
-x,1/2-y,z
x,-y,-z
-x,1/2+y,-z
-x,-y,-z
x,1/2+y,-z
-x,y,z
x,1/2-y,z
1/2+x,1/2+y,z
1/2-x,-y,z
1/2+x,1/2-y,-z
1/2-x,y,-z
1/2-x,1/2-y,-z
1/2+x,y,-z
1/2-x,1/2+y,z
1/2+x,-y,z
loop_
_atom_site_type_symbol
_atom_site_label
_atom_site_fract_x
_atom_site_fract_y
_atom_site_fract_z
Si Si1 0.820116 0.335985 0.203707
Si Si2 0.897832 0.004592 0.868258
Si Si3 0.500000 0.304064 0.684711
Si Si4 0.397805 0.802739 0.985723
Si Si5 0.745575 0.429267 0.867469
Si Si6 0.000000 0.196498 0.570105
Si Si7 0.858852 0.801634 0.257003
O O1 0.833993 0.320997 0.078364
O O2 0.781580 0.385056 0.194451
O O3 0.745767 0.307833 0.265783
O O4 0.913304 0.325717 0.260880
O O5 0.840685 0.048270 0.840001
O O6 0.000000 0.003740 0.827732
O O7 0.832882 0.964049 0.839274
O O8 0.902650 0.000000 0.000000
O O9 0.500000 0.250000 0.700329
O O10 0.500000 0.315300 0.556239
O O11 0.500000 0.812182 0.016370
O O12 0.386348 0.750000 0.984450
O O13 0.383311 0.820185 0.863003
O O14 0.750000 0.422713 0.000000
O O15 0.084630 0.181130 0.641532
O O16 0.000000 0.250000 0.568099
O O17 0.880937 0.750000 0.250150
#
# Coordination Sequence:
#
# PCOD9500616 Si02
#       7
#    16  16   8  16  16   8  16
#     4  12  22  32  49  79 112 143 172 219 267 330
#     4   8  15  30  51  70 103 147 176 209 251 310
#     4  11  24  39  53  73 103 142 189 238 280 315
#     4  10  18  30  48  71 104 142 176 212 262 317
#     4   9  18  31  46  76 109 142 182 207 250 320
#     4   9  20  39  57  71  92 134 192 238 271 318
#     4  10  19  34  54  73  98 138 181 222 267 311
#
# _framework density 17.187929
#
# number of rings (size 3 to 8) (size 9 to 14) (size 15 to 20)
#    0.000    2.167    1.667    4.000    1.167    2.000 
#    1.500    2.500    0.000    0.000    0.000    0.000 
#    0.000   16.000    0.000    0.333    0.000    0.000 
#
# Total GULP energy -267375.549770 kJ/mol
# GULP energy per Si atom -5570.323954 kJ/mol
# Density = 1.714881 g / cm^3
# Si number density = 17.187929 Si / 1000 Ang^3
#
#
#
# Elastic Constant Matrix: (Units=GPa)
#
#
# Indices 1 2 3 4 5 6 
#
# 1 132.6540 28.8310 49.3449 0.0000 0.0000 0.0000
# 2 28.8310 50.2793 22.3330 0.0000 0.0000 0.0000
# 3 49.3449 22.3330 90.7030 0.0000 0.0000 0.0000
# 4 0.0000 0.0000 0.0000 2.2672 0.0000 0.0000
# 5 0.0000 0.0000 0.0000 0.0000 10.6489 0.0000
# 6 0.0000 0.0000 0.0000 0.0000 0.0000 -7.8584
#
#
#
# Elastic Compliance Matrix: (Units=1/GPa)
#
#
# Indices 1 2 3 4 5 6 
#
# 1 0.010041 -0.003740 -0.004541 0.000000 0.000000 0.000000
# 2 -0.003740 0.023724 -0.003807 0.000000 0.000000 0.000000
# 3 -0.004541 -0.003807 0.014433 0.000000 0.000000 0.000000
# 4 0.000000 0.000000 0.000000 0.441072 0.000000 0.000000
# 5 0.000000 0.000000 0.000000 0.000000 0.093906 0.000000
# 6 0.000000 0.000000 0.000000 0.000000 0.000000 -0.127253
#
#
# Mechanical properties :
#
#
# Convention : Reuss Voigt Hill
#
# Bulk Modulus (GPa) = 41.62972 52.73933 47.18452
# Shear Modulus (GPa) = 10.24364 12.55338 11.39851
#
# Velocity S-wave (km/s) = 2.44392 2.70545 2.57800
# Velocity P-wave (km/s) = 5.67772 6.36473 6.03102
#
# Compressibility (1/GPa) = 0.02402130
#
# Stress axis : x y z
#
# Youngs Moduli (GPa) = 99.59505 42.15063 69.28586
#
# Poissons Ratio (x) = 0.15765 0.31466
# Poissons Ratio (y) = 0.37251 0.26375
# Poissons Ratio (z) = 0.45231 0.16045
#
# Static dielectric constant tensor:
#      x y z
#    x 1.626210 0.000000 0.000000 
#    y 0.000000 1.600240 0.000000 
#    z 0.000000 0.000000 1.572750 
# 
# From -- ./inp_files/18513.got.cif
#   From: 2010.05.17/outbox.cif.g08.bks.cpg/sg67_10_cif.got.tgz:18513.got - 2010.06.03 18:28:57.
