data_PCOD9500066
_publ_section_title
;
Structure prediction by ZEFSAII (Michael W. Deem and Ramdas Pophale) SiO2 
 PCOD9500066
Probable space group: C C C M
;
_chemical_formula_sum "Si O2"
_cell_formula_units_Z 48
_cell_length_a 27.000000
_cell_length_b 24.000000
_cell_length_c 9.000000
_cell_angle_alpha 90.000000
_cell_angle_beta 90.000000
_cell_angle_gamma 90.000000
_cell_volume 5832.000000
_symmetry_space_group_name_H-M "C C C M"
_symmetry_group_IT_number 66
_symmetry_cell_setting 'orthorhombic'
loop_
_space_group_symop_operation_xyz
x,y,z
-x,-y,z
x,-y,1/2-z
-x,y,1/2-z
-x,-y,-z
x,y,-z
-x,y,1/2+z
x,-y,1/2+z
1/2+x,1/2+y,z
1/2-x,1/2-y,z
1/2+x,1/2-y,1/2-z
1/2-x,1/2+y,1/2-z
1/2-x,1/2-y,-z
1/2+x,1/2+y,-z
1/2-x,1/2+y,1/2+z
1/2+x,1/2-y,1/2+z
loop_
_atom_site_type_symbol
_atom_site_label
_atom_site_fract_x
_atom_site_fract_y
_atom_site_fract_z
Si Si1 0.191279 0.752358 0.166624
Si Si2 0.340908 0.140302 0.177598
Si Si3 0.446591 0.186769 0.820731
Si Si4 0.753610 0.938479 0.820939
Si Si5 0.848036 0.141047 0.322954
Si Si6 0.945344 0.810421 0.681038
O O1 0.250000 0.750000 0.157205
O O2 0.174706 0.693297 0.227176
O O3 0.176291 0.799917 0.281342
O O4 0.171330 0.764209 0.000000
O O5 0.401286 0.142292 0.201888
O O6 0.299219 0.092884 0.215827
O O7 0.334906 0.149450 0.000000
O O8 0.500000 0.170273 0.750000
O O9 0.434418 0.247373 0.744905
O O10 0.451629 0.194914 0.000000
O O11 0.804255 0.903616 0.779368
O O12 0.754565 0.000000 0.750000
O O13 0.754702 0.942863 0.000000
O O14 0.856438 0.135456 0.500000
O O15 0.901619 0.147733 0.239364
O O16 0.947405 0.809760 0.500000
O O17 0.000000 0.824137 0.750000
#
# Coordination Sequence:
#
# PCOD9500066 Si02
#       6
#    16  16  16  16  16  16
#     4  11  21  30  47  80 112 140 176 219 267 323
#     4  10  20  35  54  76 107 147 181 217 270 330
#     4  10  19  31  50  76 111 148 181 217 263 321
#     4  10  23  40  58  79 104 140 184 229 278 327
#     4  11  21  35  55  78 109 147 180 217 271 330
#     4  11  21  33  51  79 114 148 182 218 263 317
#
# _framework density 8.2304530000000007
#
# number of rings (size 3 to 8) (size 9 to 14) (size 15 to 20)
#    0.000    1.500    3.333    4.000    0.000    3.333 
#    0.000    0.000    0.000    1.000    0.000    7.000 
#    0.000    0.000    0.000    0.000    0.000    0.000 
#
# Total GULP energy -267247.629994 kJ/mol
# GULP energy per Si atom -5567.658958 kJ/mol
# Density = 0.821172 g / cm^3
# Si number density = 8.230453 Si / 1000 Ang^3
#
#
#
# Elastic Constant Matrix: (Units=GPa)
#
#
# Indices 1 2 3 4 5 6 
#
# 1 160.4034 53.4325 46.4731 0.0000 0.0000 0.0000
# 2 53.4325 82.9992 27.5557 0.0000 0.0000 0.0000
# 3 46.4731 27.5557 79.6011 0.0000 0.0000 0.0000
# 4 0.0000 0.0000 0.0000 25.9341 0.0000 0.0000
# 5 0.0000 0.0000 0.0000 0.0000 25.7979 0.0000
# 6 0.0000 0.0000 0.0000 0.0000 0.0000 21.6928
#
#
#
# Elastic Compliance Matrix: (Units=1/GPa)
#
#
# Indices 1 2 3 4 5 6 
#
# 1 0.008750 -0.004448 -0.003569 0.000000 0.000000 0.000000
# 2 -0.004448 0.015874 -0.002898 0.000000 0.000000 0.000000
# 3 -0.003569 -0.002898 0.015649 0.000000 0.000000 0.000000
# 4 0.000000 0.000000 0.000000 0.038559 0.000000 0.000000
# 5 0.000000 0.000000 0.000000 0.000000 0.038763 0.000000
# 6 0.000000 0.000000 0.000000 0.000000 0.000000 0.046098
#
#
# Mechanical properties :
#
#
# Convention : Reuss Voigt Hill
#
# Bulk Modulus (GPa) = 54.21990 64.21403 59.21697
# Shear Modulus (GPa) = 26.08627 27.72111 26.90369
#
# Velocity S-wave (km/s) = 3.98520 4.10818 4.04716
# Velocity P-wave (km/s) = 7.36110 7.84841 7.60866
#
# Compressibility (1/GPa) = 0.01844341
#
# Stress axis : x y z
#
# Youngs Moduli (GPa) = 114.28636 62.99553 63.90043
#
# Poissons Ratio (x) = 0.28022 0.22803
# Poissons Ratio (y) = 0.50837 0.18520
# Poissons Ratio (z) = 0.40784 0.18258
#
# Static dielectric constant tensor:
#      x y z
#    x 1.628760 0.000000 0.000000 
#    y 0.000000 1.527130 0.000000 
#    z 0.000000 0.000000 1.561730 
# 
# From -- ./inp_files/7963.got.cif
#   From: 2010.05.17/outbox.ucp.g08.bks.cvg/sg66_4_cif.got.tgz:7963.got - 2010.06.11 16:44:13.
