data_PCOD9500960
_publ_section_title
;
Structure prediction by ZEFSAII (Michael W. Deem and Ramdas Pophale) SiO2 
 PCOD9500960
Probable space group: C M M A
;
_chemical_formula_sum "Si O2"
_cell_formula_units_Z 72
_cell_length_a 14.655558
_cell_length_b 14.007602
_cell_length_c 17.779175
_cell_angle_alpha 90.000000
_cell_angle_beta 90.000000
_cell_angle_gamma 90.000000
_cell_volume 3649.873031
_symmetry_space_group_name_H-M "C M M A"
_symmetry_group_IT_number 67
_symmetry_cell_setting 'orthorhombic'
loop_
_space_group_symop_operation_xyz
x,y,z
-x,1/2-y,z
x,-y,-z
-x,1/2+y,-z
-x,-y,-z
x,1/2+y,-z
-x,y,z
x,1/2-y,z
1/2+x,1/2+y,z
1/2-x,-y,z
1/2+x,1/2-y,-z
1/2-x,y,-z
1/2-x,1/2-y,-z
1/2+x,y,-z
1/2-x,1/2+y,z
1/2+x,-y,z
loop_
_atom_site_type_symbol
_atom_site_label
_atom_site_fract_x
_atom_site_fract_y
_atom_site_fract_z
Si Si1 0.146600 0.860049 0.516379
Si Si2 0.500000 0.938895 0.371274
Si Si3 0.500000 0.139515 0.787828
Si Si4 0.893678 0.859475 0.017446
Si Si5 0.000000 0.146290 0.615645
Si Si6 0.347015 0.972073 0.124393
O O1 0.149933 0.750000 0.544073
O O2 0.250000 0.890334 0.500000
O O3 0.088045 0.920456 0.575890
O O4 0.087016 0.857806 0.440203
O O5 0.500000 0.867789 0.301869
O O6 0.500000 0.047173 0.340426
O O7 0.500000 0.250000 0.812381
O O8 0.413099 0.082787 0.819825
O O9 0.870745 0.750000 0.034134
O O10 0.000000 0.863334 0.992184
O O11 0.886038 0.930832 0.087661
O O12 0.836429 0.902272 0.948119
O O13 0.000000 0.250000 0.654440
O O14 0.250000 0.000000 0.158063
#
# Coordination Sequence:
#
# PCOD9500960 Si02
#       6
#    16   8   8  16   8  16
#     4   9  17  33  60  92 118 144 191 250 304 357
#     4  11  22  37  60  87 122 163 203 241 305 382
#     4  12  25  45  64  84 127 174 209 250 309 389
#     4  10  18  34  63  91 120 160 211 267 316 359
#     4   9  19  35  54  79 114 150 186 242 302 345
#     4  11  22  38  60  89 122 161 211 261 314 365
#
# _framework density 19.726713
#
# number of rings (size 3 to 8) (size 9 to 14) (size 15 to 20)
#    0.000    1.778    2.222    5.667    0.000    4.444 
#    4.000    1.111    0.000    0.000    0.000    0.000 
#    0.000    0.000    0.000    0.000    0.000    0.000 
#
# Total GULP energy -200953.049557 kJ/mol
# GULP energy per Si atom -5582.029154 kJ/mol
# Density = 1.968181 g / cm^3
# Si number density = 19.726713 Si / 1000 Ang^3
#
#
#
# Elastic Constant Matrix: (Units=GPa)
#
#
# Indices 1 2 3 4 5 6 
#
# 1 148.1878 30.9913 21.5451 0.0000 0.0000 0.0000
# 2 30.9913 170.3410 16.3916 0.0000 0.0000 0.0000
# 3 21.5451 16.3916 35.7982 0.0000 0.0000 0.0000
# 4 0.0000 0.0000 0.0000 24.3475 0.0000 0.0000
# 5 0.0000 0.0000 0.0000 0.0000 7.6213 0.0000
# 6 0.0000 0.0000 0.0000 0.0000 0.0000 8.8627
#
#
#
# Elastic Compliance Matrix: (Units=1/GPa)
#
#
# Indices 1 2 3 4 5 6 
#
# 1 0.007548 -0.000979 -0.004095 0.000000 0.000000 0.000000
# 2 -0.000979 0.006268 -0.002281 0.000000 0.000000 0.000000
# 3 -0.004095 -0.002281 0.031443 0.000000 0.000000 0.000000
# 4 0.000000 0.000000 0.000000 0.041072 0.000000 0.000000
# 5 0.000000 0.000000 0.000000 0.000000 0.131211 0.000000
# 6 0.000000 0.000000 0.000000 0.000000 0.000000 0.112832
#
#
# Mechanical properties :
#
#
# Convention : Reuss Voigt Hill
#
# Bulk Modulus (GPa) = 32.73284 54.68701 43.70993
# Shear Modulus (GPa) = 14.07392 27.19290 20.63341
#
# Velocity S-wave (km/s) = 2.67394 3.71682 3.23764
# Velocity P-wave (km/s) = 5.11492 6.79722 6.01517
#
# Compressibility (1/GPa) = 0.03055036
#
# Stress axis : x y z
#
# Youngs Moduli (GPa) = 132.47994 159.53489 31.80354
#
# Poissons Ratio (x) = 0.15623 0.13022
# Poissons Ratio (y) = 0.12974 0.07254
# Poissons Ratio (z) = 0.54244 0.36386
#
# Static dielectric constant tensor:
#      x y z
#    x 1.723860 0.000000 0.000000 
#    y 0.000000 1.744000 0.000000 
#    z 0.000000 0.000000 1.651480 
# 
# From -- ./inp_files/33504.got.cif
#   From: 2010.05.17/outbox.cif.g08.bks.cpg/sg67_17_cif.got.tgz:33504.got - 2010.06.03 18:28:57.
