data_PCOD9500598
_publ_section_title
;
Structure prediction by ZEFSAII (Michael W. Deem and Ramdas Pophale) SiO2 
 PCOD9500598
Probable space group: C M M A
;
_chemical_formula_sum "Si O2"
_cell_formula_units_Z 88
_cell_length_a 8.824587
_cell_length_b 28.205221
_cell_length_c 23.420630
_cell_angle_alpha 90.000000
_cell_angle_beta 90.000000
_cell_angle_gamma 90.000000
_cell_volume 5829.381377
_symmetry_space_group_name_H-M "C M M A"
_symmetry_group_IT_number 67
_symmetry_cell_setting 'orthorhombic'
loop_
_space_group_symop_operation_xyz
x,y,z
-x,1/2-y,z
x,-y,-z
-x,1/2+y,-z
-x,-y,-z
x,1/2+y,-z
-x,y,z
x,1/2-y,z
1/2+x,1/2+y,z
1/2-x,-y,z
1/2+x,1/2-y,-z
1/2-x,y,-z
1/2-x,1/2-y,-z
1/2+x,y,-z
1/2-x,1/2+y,z
1/2+x,-y,z
loop_
_atom_site_type_symbol
_atom_site_label
_atom_site_fract_x
_atom_site_fract_y
_atom_site_fract_z
Si Si1 0.677404 0.696660 0.661340
Si Si2 0.180734 0.641151 0.762795
Si Si3 0.319143 0.250000 0.562802
Si Si4 0.317341 0.804342 0.869108
Si Si5 0.681247 0.604733 0.939071
Si Si6 0.817700 0.051598 0.823519
O O1 0.500000 0.685708 0.654457
O O2 0.687085 0.750000 0.688230
O O3 0.758706 0.660043 0.702471
O O4 0.756970 0.705601 0.600309
O O5 0.238880 0.677625 0.811378
O O6 0.251836 0.590796 0.780517
O O7 0.000000 0.638807 0.763348
O O8 0.500000 0.250000 0.561404
O O9 0.250000 0.250000 0.500000
O O10 0.500000 0.807726 0.861077
O O11 0.279318 0.750000 0.882203
O O12 0.275348 0.842286 0.917947
O O13 0.500000 0.603295 0.943615
O O14 0.725346 0.569932 0.887223
O O15 0.750000 0.592929 0.000000
O O16 0.000000 0.051253 0.819957
O O17 0.750000 0.000000 0.813314
#
# Coordination Sequence:
#
# PCOD9500598 Si02
#       6
#    16  16   8  16  16  16
#     4   9  18  30  46  68  98 137 170 200 237 273
#     4  11  20  30  47  71  96 121 156 197 237 285
#     4  10  18  30  46  70 104 142 179 210 237 272
#     4   9  18  32  47  63  89 123 154 188 234 283
#     4   9  19  33  48  66  88 115 148 188 233 289
#     4  10  21  37  53  69  90 116 148 190 244 297
#
# _framework density 15.095941
#
# number of rings (size 3 to 8) (size 9 to 14) (size 15 to 20)
#    0.545    1.818    0.000    4.909    0.000    6.909 
#    0.000    1.818    0.000    0.000    0.000    0.000 
#    0.000    0.727    0.000    7.273    0.000    4.364 
#
# Total GULP energy -245197.195965 kJ/mol
# GULP energy per Si atom -5572.663545 kJ/mol
# Density = 1.506158 g / cm^3
# Si number density = 15.095941 Si / 1000 Ang^3
#
#
#
# Elastic Constant Matrix: (Units=GPa)
#
#
# Indices 1 2 3 4 5 6 
#
# 1 77.3235 36.9375 42.2600 0.0000 0.0000 0.0000
# 2 36.9375 83.7438 37.5399 0.0000 0.0000 0.0000
# 3 42.2600 37.5399 106.1250 0.0000 0.0000 0.0000
# 4 0.0000 0.0000 0.0000 11.8923 0.0000 0.0000
# 5 0.0000 0.0000 0.0000 0.0000 26.8250 0.0000
# 6 0.0000 0.0000 0.0000 0.0000 0.0000 21.9504
#
#
#
# Elastic Compliance Matrix: (Units=1/GPa)
#
#
# Indices 1 2 3 4 5 6 
#
# 1 0.018645 -0.005818 -0.005367 0.000000 0.000000 0.000000
# 2 -0.005818 0.016007 -0.003345 0.000000 0.000000 0.000000
# 3 -0.005367 -0.003345 0.012743 0.000000 0.000000 0.000000
# 4 0.000000 0.000000 0.000000 0.084088 0.000000 0.000000
# 5 0.000000 0.000000 0.000000 0.000000 0.037279 0.000000
# 6 0.000000 0.000000 0.000000 0.000000 0.000000 0.045557
#
#
# Mechanical properties :
#
#
# Convention : Reuss Voigt Hill
#
# Bulk Modulus (GPa) = 54.54020 55.62967 55.08493
# Shear Modulus (GPa) = 20.04077 22.16386 21.10232
#
# Velocity S-wave (km/s) = 3.64752 3.83587 3.74288
# Velocity P-wave (km/s) = 7.34484 7.51992 7.43290
#
# Compressibility (1/GPa) = 0.01833510
#
# Stress axis : x y z
#
# Youngs Moduli (GPa) = 53.63352 62.47230 78.47308
#
# Poissons Ratio (x) = 0.36348 0.42113
# Poissons Ratio (y) = 0.31205 0.26252
# Poissons Ratio (z) = 0.28783 0.20899
#
# Static dielectric constant tensor:
#      x y z
#    x 1.494510 0.000000 0.000000 
#    y 0.000000 1.496760 0.000000 
#    z 0.000000 0.000000 1.483670 
# 
# From -- ./inp_files/37435.got.cif
#   From: 2010.05.17/outbox.cif.g08.bks.cpg/sg67_19_cif.got.tgz:37435.got - 2010.06.03 18:28:57.
