data_PCOD9500825
_publ_section_title
;
Structure prediction by ZEFSAII (Michael W. Deem and Ramdas Pophale) SiO2 
 PCOD9500825
Probable space group: C M M A
;
_chemical_formula_sum "Si O2"
_cell_formula_units_Z 112
_cell_length_a 27.771480
_cell_length_b 14.810358
_cell_length_c 12.623837
_cell_angle_alpha 90.000000
_cell_angle_beta 90.000000
_cell_angle_gamma 90.000000
_cell_volume 5192.254359
_symmetry_space_group_name_H-M "C M M A"
_symmetry_group_IT_number 67
_symmetry_cell_setting 'orthorhombic'
loop_
_space_group_symop_operation_xyz
x,y,z
-x,1/2-y,z
x,-y,-z
-x,1/2+y,-z
-x,-y,-z
x,1/2+y,-z
-x,y,z
x,1/2-y,z
1/2+x,1/2+y,z
1/2-x,-y,z
1/2+x,1/2-y,-z
1/2-x,y,-z
1/2-x,1/2-y,-z
1/2+x,y,-z
1/2-x,1/2+y,z
1/2+x,-y,z
loop_
_atom_site_type_symbol
_atom_site_label
_atom_site_fract_x
_atom_site_fract_y
_atom_site_fract_z
Si Si1 0.054976 0.393581 0.525832
Si Si2 0.699145 0.518794 0.300839
Si Si3 0.118677 0.147448 0.334097
Si Si4 0.703260 0.093365 0.937725
Si Si5 0.372859 0.356324 0.280064
Si Si6 0.598201 0.352987 0.894465
Si Si7 0.947503 0.639606 0.101067
O O1 0.055125 0.500000 0.500000
O O2 0.077281 0.351247 0.420249
O O3 0.091200 0.370362 0.620710
O O4 0.000000 0.365645 0.548397
O O5 0.750000 0.500000 0.353372
O O6 0.663341 0.584402 0.364375
O O7 0.710270 0.567640 0.186564
O O8 0.671673 0.424290 0.285110
O O9 0.135712 0.250000 0.314966
O O10 0.099804 0.106877 0.222735
O O11 0.652918 0.146010 0.938769
O O12 0.750000 0.132939 0.000000
O O13 0.694698 0.000000 0.000000
O O14 0.359738 0.250000 0.274193
O O15 0.404315 0.383551 0.178296
O O16 0.582082 0.250000 0.879501
O O17 0.564193 0.393644 0.983171
O O18 0.947881 0.750000 0.098651
O O19 0.000000 0.609681 0.138274
#
# Coordination Sequence:
#
# PCOD9500825 Si02
#       7
#    16  16  16  16  16  16  16
#     4  11  23  43  71  98 126 165 215 268 320 380
#     4  11  22  39  62  89 128 166 206 266 319 369
#     4  10  22  41  64  93 129 167 210 262 321 381
#     4  10  18  32  54  81 114 163 209 252 309 364
#     4  11  23  40  65  95 127 167 214 264 320 380
#     4   9  19  34  55  86 123 161 203 256 312 378
#     4   9  18  33  55  86 126 166 202 250 315 382
#
# _framework density 21.570591
#
# number of rings (size 3 to 8) (size 9 to 14) (size 15 to 20)
#    0.000    1.857    2.857    1.714    0.000    3.143 
#    0.000    2.857    0.000    6.000    0.000    0.000 
#    0.000    0.000    0.000    0.000    0.000    0.000 
#
# Total GULP energy -312622.340360 kJ/mol
# GULP energy per Si atom -5582.541792 kJ/mol
# Density = 2.152150 g / cm^3
# Si number density = 21.570591 Si / 1000 Ang^3
#
#
#
# Elastic Constant Matrix: (Units=GPa)
#
#
# Indices 1 2 3 4 5 6 
#
# 1 117.7971 28.7010 27.7454 0.0000 0.0000 0.0000
# 2 28.7010 86.2744 -5.1444 0.0000 0.0000 0.0000
# 3 27.7454 -5.1444 71.5602 0.0000 0.0000 0.0000
# 4 0.0000 0.0000 0.0000 -1.9356 0.0000 0.0000
# 5 0.0000 0.0000 0.0000 0.0000 18.0290 0.0000
# 6 0.0000 0.0000 0.0000 0.0000 0.0000 32.0294
#
#
#
# Elastic Compliance Matrix: (Units=1/GPa)
#
#
# Indices 1 2 3 4 5 6 
#
# 1 0.010409 -0.003719 -0.004303 0.000000 0.000000 0.000000
# 2 -0.003719 0.012970 0.002374 0.000000 0.000000 0.000000
# 3 -0.004303 0.002374 0.015813 0.000000 0.000000 0.000000
# 4 0.000000 0.000000 0.000000 -0.516623 0.000000 0.000000
# 5 0.000000 0.000000 0.000000 0.000000 0.055466 0.000000
# 6 0.000000 0.000000 0.000000 0.000000 0.000000 0.031221
#
#
# Mechanical properties :
#
#
# Convention : Reuss Voigt Hill
#
# Bulk Modulus (GPa) = 35.84732 42.02618 38.93675
# Shear Modulus (GPa) = -13.50807 24.57986 5.53589
#
# Velocity S-wave (km/s) = -2.50517 3.37932 1.60374
# Velocity P-wave (km/s) = 2.87869 5.89507 4.63889
#
# Compressibility (1/GPa) = 0.02789609
#
# Stress axis : x y z
#
# Youngs Moduli (GPa) = 96.07138 77.10199 63.23761
#
# Poissons Ratio (x) = 0.28677 0.27212
# Poissons Ratio (y) = 0.35732 -0.15016
# Poissons Ratio (z) = 0.41341 -0.18308
#
# Static dielectric constant tensor:
#      x y z
#    x 2.015210 0.000000 0.000000 
#    y 0.000000 1.802630 0.000000 
#    z 0.000000 0.000000 1.813640 
# 
# From -- ./inp_files/23789.got.cif
#   From: 2010.05.17/outbox.cif.g08.bks.cpg/sg67_12_cif.got.tgz:23789.got - 2010.06.03 18:28:57.
