data_PCOD9500423
_publ_section_title
;
Structure prediction by ZEFSAII (Michael W. Deem and Ramdas Pophale) SiO2 
 PCOD9500423
Probable space group: C M M A
;
_chemical_formula_sum "Si O2"
_cell_formula_units_Z 116
_cell_length_a 27.358330
_cell_length_b 15.865786
_cell_length_c 11.759821
_cell_angle_alpha 90.000000
_cell_angle_beta 90.000000
_cell_angle_gamma 90.000000
_cell_volume 5104.484474
_symmetry_space_group_name_H-M "C M M A"
_symmetry_group_IT_number 67
_symmetry_cell_setting 'orthorhombic'
loop_
_space_group_symop_operation_xyz
x,y,z
-x,1/2-y,z
x,-y,-z
-x,1/2+y,-z
-x,-y,-z
x,1/2+y,-z
-x,y,z
x,1/2-y,z
1/2+x,1/2+y,z
1/2-x,-y,z
1/2+x,1/2-y,-z
1/2-x,y,-z
1/2-x,1/2-y,-z
1/2+x,y,-z
1/2-x,1/2+y,z
1/2+x,-y,z
loop_
_atom_site_type_symbol
_atom_site_label
_atom_site_fract_x
_atom_site_fract_y
_atom_site_fract_z
Si Si1 0.500000 0.250000 0.299687
Si Si2 0.862083 0.597511 0.543711
Si Si3 0.445781 0.091099 0.729808
Si Si4 0.231667 0.407341 0.309644
Si Si5 0.339128 0.840471 0.695955
Si Si6 0.700767 0.595073 0.049988
Si Si7 0.592157 0.101948 0.979138
Si Si8 0.931275 0.603235 0.219839
O O1 0.457521 0.174908 0.292374
O O2 0.862700 0.500000 0.500000
O O3 0.906091 0.610549 0.632422
O O4 0.811015 0.617392 0.605582
O O5 0.861068 0.651787 0.429971
O O6 0.500000 0.122149 0.700215
O O7 0.429908 0.121311 0.855681
O O8 0.448164 0.989481 0.745426
O O9 0.250000 0.500000 0.342389
O O10 0.281605 0.355371 0.307690
O O11 0.208457 0.410067 0.184612
O O12 0.348603 0.750000 0.747603
O O13 0.372209 0.904368 0.766613
O O14 0.648194 0.633262 0.021671
O O15 0.699772 0.500000 0.000000
O O16 0.750000 0.636328 0.000000
O O17 0.561481 0.130082 0.088541
O O18 0.592989 0.000000 0.000000
#
# Coordination Sequence:
#
# PCOD9500423 Si02
#       8
#     4  16  16  16  16  16  16  16
#     4  12  24  40  66  94 130 188 220 258 342 410
#     4  12  24  40  65  97 127 170 228 275 322 390
#     4  11  22  40  66 100 130 165 221 290 331 373
#     4  12  21  37  65  97 126 168 223 263 322 393
#     4  12  27  45  65  94 136 173 216 276 338 400
#     4  10  17  29  56  96 129 163 200 261 326 377
#     4   9  20  34  61  96 130 158 204 270 325 381
#     4  11  22  41  65  95 130 172 219 269 333 394
#
# _framework density 22.725116
#
# number of rings (size 3 to 8) (size 9 to 14) (size 15 to 20)
#    0.000    0.966    6.897    1.241    2.897    2.207 
#    1.241    0.000    3.034    1.241    0.000    0.000 
#    0.000    0.000    0.000    0.000    0.000    0.000 
#
# Total GULP energy -323520.323101 kJ/mol
# GULP energy per Si atom -5577.936605 kJ/mol
# Density = 2.267339 g / cm^3
# Si number density = 22.725116 Si / 1000 Ang^3
#
#
#
# Elastic Constant Matrix: (Units=GPa)
#
#
# Indices 1 2 3 4 5 6 
#
# 1 157.6928 -3.9404 27.4699 0.0000 0.0000 0.0000
# 2 -3.9404 17.8452 -13.0027 0.0000 0.0000 0.0000
# 3 27.4699 -13.0027 101.5441 0.0000 0.0000 0.0000
# 4 0.0000 0.0000 0.0000 -0.5115 0.0000 0.0000
# 5 0.0000 0.0000 0.0000 0.0000 -10.5785 0.0000
# 6 0.0000 0.0000 0.0000 0.0000 0.0000 16.3945
#
#
#
# Elastic Compliance Matrix: (Units=1/GPa)
#
#
# Indices 1 2 3 4 5 6 
#
# 1 0.006656 0.000174 -0.001778 0.000000 0.000000 0.000000
# 2 0.000174 0.061808 0.007868 0.000000 0.000000 0.000000
# 3 -0.001778 0.007868 0.011336 0.000000 0.000000 0.000000
# 4 0.000000 0.000000 0.000000 -1.955119 0.000000 0.000000
# 5 0.000000 0.000000 0.000000 0.000000 -0.094531 0.000000
# 6 0.000000 0.000000 0.000000 0.000000 0.000000 0.060996
#
#
# Mechanical properties :
#
#
# Convention : Reuss Voigt Hill
#
# Bulk Modulus (GPa) = 10.83108 33.12620 21.97864
# Shear Modulus (GPa) = -2.64466 18.83126 8.09330
#
# Velocity S-wave (km/s) = -1.07995 2.88176 1.88921
# Velocity P-wave (km/s) = 1.79483 5.06767 3.80149
#
# Compressibility (1/GPa) = 0.09232693
#
# Stress axis : x y z
#
# Youngs Moduli (GPa) = 150.25056 16.17902 88.21131
#
# Poissons Ratio (x) = -0.00281 0.15686
# Poissons Ratio (y) = -0.02614 -0.69400
# Poissons Ratio (z) = 0.26718 -0.12729
#
# Static dielectric constant tensor:
#      x y z
#    x 1.909050 0.000000 0.000000 
#    y 0.000000 1.851310 0.000000 
#    z 0.000000 0.000000 1.960140 
# 
# From -- ./inp_files/23042.got.cif
#   From: 2010.05.17/outbox.cif.g08.bks.cpg/sg67_12_cif.got.tgz:23042.got - 2010.06.03 18:28:57.
