data_PCOD9500684
_publ_section_title
;
Structure prediction by ZEFSAII (Michael W. Deem and Ramdas Pophale) SiO2 
 PCOD9500684
Probable space group: C M M A
;
_chemical_formula_sum "Si O2"
_cell_formula_units_Z 80
_cell_length_a 18.681000
_cell_length_b 16.076154
_cell_length_c 14.479754
_cell_angle_alpha 90.000000
_cell_angle_beta 90.000000
_cell_angle_gamma 90.000000
_cell_volume 4348.539926
_symmetry_space_group_name_H-M "C M M A"
_symmetry_group_IT_number 67
_symmetry_cell_setting 'orthorhombic'
loop_
_space_group_symop_operation_xyz
x,y,z
-x,1/2-y,z
x,-y,-z
-x,1/2+y,-z
-x,-y,-z
x,1/2+y,-z
-x,y,z
x,1/2-y,z
1/2+x,1/2+y,z
1/2-x,-y,z
1/2+x,1/2-y,-z
1/2-x,y,-z
1/2-x,1/2-y,-z
1/2+x,y,-z
1/2-x,1/2+y,z
1/2+x,-y,z
loop_
_atom_site_type_symbol
_atom_site_label
_atom_site_fract_x
_atom_site_fract_y
_atom_site_fract_z
Si Si1 0.180075 0.149811 0.438293
Si Si2 0.666704 0.250000 0.884087
Si Si3 0.081333 0.350117 0.604393
Si Si4 0.171992 0.408819 0.230000
Si Si5 0.841351 0.750000 0.097779
Si Si6 0.157053 0.409045 0.786051
O O1 0.185452 0.250000 0.421245
O O2 0.250000 0.127191 0.500000
O O3 0.113202 0.131351 0.504193
O O4 0.170460 0.105462 0.340342
O O5 0.643282 0.169359 0.826813
O O6 0.754326 0.250000 0.889976
O O7 0.641907 0.250000 0.989683
O O8 0.083188 0.250000 0.613941
O O9 0.131665 0.385971 0.683625
O O10 0.000000 0.378647 0.615534
O O11 0.136433 0.495108 0.198420
O O12 0.256956 0.410293 0.209203
O O13 0.868036 0.834396 0.147470
#
# Coordination Sequence:
#
# PCOD9500684 Si02
#       6
#    16   8  16  16   8  16
#     4  10  18  30  53  76 104 147 181 219 267 316
#     4   9  18  32  50  78 106 137 176 222 282 325
#     4  10  20  34  53  79 109 144 185 224 266 320
#     4  10  19  31  51  79 111 140 178 219 270 327
#     4   9  18  32  52  73 109 140 170 226 280 326
#     4  10  19  32  51  78 108 142 176 221 271 324
#
# _framework density 18.396979000000002
#
# number of rings (size 3 to 8) (size 9 to 14) (size 15 to 20)
#    0.000    2.200    4.000    0.000    0.000    1.600 
#    0.000    6.000    0.000    0.000    0.000    7.000 
#    0.000    0.000    0.000    0.000    0.000    0.000 
#
# Total GULP energy -222935.465848 kJ/mol
# GULP energy per Si atom -5573.386646 kJ/mol
# Density = 1.835511 g / cm^3
# Si number density = 18.396979 Si / 1000 Ang^3
#
#
#
# Elastic Constant Matrix: (Units=GPa)
#
#
# Indices 1 2 3 4 5 6 
#
# 1 8.6970 12.6617 -6.0575 0.0000 0.0000 0.0000
# 2 12.6617 142.5999 88.2243 0.0000 0.0000 0.0000
# 3 -6.0575 88.2243 115.5558 0.0000 0.0000 0.0000
# 4 0.0000 0.0000 0.0000 -4.2148 0.0000 0.0000
# 5 0.0000 0.0000 0.0000 0.0000 1.0949 0.0000
# 6 0.0000 0.0000 0.0000 0.0000 0.0000 8.0851
#
#
#
# Elastic Compliance Matrix: (Units=1/GPa)
#
#
# Indices 1 2 3 4 5 6 
#
# 1 0.226860 -0.052120 0.051684 0.000000 0.000000 0.000000
# 2 -0.052120 0.025264 -0.022021 0.000000 0.000000 0.000000
# 3 0.051684 -0.022021 0.028176 0.000000 0.000000 0.000000
# 4 0.000000 0.000000 0.000000 -0.237260 0.000000 0.000000
# 5 0.000000 0.000000 0.000000 0.000000 0.913289 0.000000
# 6 0.000000 0.000000 0.000000 0.000000 0.000000 0.123684
#
#
# Mechanical properties :
#
#
# Convention : Reuss Voigt Hill
#
# Bulk Modulus (GPa) = 4.24830 50.72330 27.48580
# Shear Modulus (GPa) = 4.15493 12.46133 8.30813
#
# Velocity S-wave (km/s) = 1.50446 2.60543 2.12740
# Velocity P-wave (km/s) = 2.30913 6.05660 4.58337
#
# Compressibility (1/GPa) = 0.23538818
#
# Stress axis : x y z
#
# Youngs Moduli (GPa) = 4.40800 39.58126 35.49153
#
# Poissons Ratio (x) = 2.06296 -1.83436
# Poissons Ratio (y) = 0.22974 0.78156
# Poissons Ratio (z) = -0.22782 0.87162
#
# Static dielectric constant tensor:
#      x y z
#    x 1.610000 0.000000 0.000000 
#    y 0.000000 1.688960 0.000000 
#    z 0.000000 0.000000 1.599290 
# 
# From -- ./inp_files/29418.got.cif
#   From: 2010.05.17/outbox.cif.g08.bks.cpg/sg67_15_cif.got.tgz:29418.got - 2010.06.03 18:28:57.
