data_PCOD9500470
_publ_section_title
;
Structure prediction by ZEFSAII (Michael W. Deem and Ramdas Pophale) SiO2 
 PCOD9500470
Probable space group: C M M A
;
_chemical_formula_sum "Si O2"
_cell_formula_units_Z 128
_cell_length_a 26.030072
_cell_length_b 18.074922
_cell_length_c 17.661832
_cell_angle_alpha 90.000000
_cell_angle_beta 90.000000
_cell_angle_gamma 90.000000
_cell_volume 8309.742202
_symmetry_space_group_name_H-M "C M M A"
_symmetry_group_IT_number 67
_symmetry_cell_setting 'orthorhombic'
loop_
_space_group_symop_operation_xyz
x,y,z
-x,1/2-y,z
x,-y,-z
-x,1/2+y,-z
-x,-y,-z
x,1/2+y,-z
-x,y,z
x,1/2-y,z
1/2+x,1/2+y,z
1/2-x,-y,z
1/2+x,1/2-y,-z
1/2-x,y,-z
1/2-x,1/2-y,-z
1/2+x,y,-z
1/2-x,1/2+y,z
1/2+x,-y,z
loop_
_atom_site_type_symbol
_atom_site_label
_atom_site_fract_x
_atom_site_fract_y
_atom_site_fract_z
Si Si1 0.634469 0.333446 0.106748
Si Si2 0.191211 0.983049 0.089342
Si Si3 0.561502 0.833898 0.288645
Si Si4 0.062077 0.399112 0.442903
Si Si5 0.594439 0.944057 0.165061
Si Si6 0.441640 0.164983 0.965143
Si Si7 0.062310 0.065994 0.604619
Si Si8 0.940172 0.100824 0.774830
O O1 0.654871 0.250000 0.106200
O O2 0.676579 0.397772 0.104598
O O3 0.596907 0.346302 0.177922
O O4 0.598534 0.344011 0.032864
O O5 0.250000 0.000000 0.108589
O O6 0.150563 0.031777 0.136389
O O7 0.183926 0.000000 0.000000
O O8 0.500000 0.850522 0.281384
O O9 0.569374 0.750000 0.263464
O O10 0.575883 0.842720 0.376847
O O11 0.592023 0.891996 0.238288
O O12 0.076596 0.480742 0.412267
O O13 0.079898 0.389905 0.529505
O O14 0.000000 0.398575 0.447122
O O15 0.568461 0.895585 0.098999
O O16 0.565291 0.019895 0.186178
O O17 0.500000 0.156831 0.993727
O O18 0.436743 0.250000 0.936161
O O19 0.077853 0.092680 0.687587
O O20 0.000000 0.067406 0.606555
O O21 0.000000 0.123363 0.776745
#
# Coordination Sequence:
#
# PCOD9500470 Si02
#       8
#    16  16  16  16  16  16  16  16
#     4  10  21  36  50  70  98 126 156 192 240 286
#     4  10  21  40  58  72  88 113 157 210 249 284
#     4  10  18  27  41  66 103 137 160 191 235 279
#     4   8  13  23  38  57  88 129 170 201 228 262
#     4  11  19  30  47  69  93 122 162 202 236 283
#     4  10  19  30  44  66 100 136 162 187 224 275
#     4   8  13  23  39  59  85 125 173 207 224 258
#     4  10  18  27  45  69  96 131 167 198 229 272
#
# _framework density 15.403606999999999
#
# number of rings (size 3 to 8) (size 9 to 14) (size 15 to 20)
#    0.000    2.375    2.500    2.625    0.000    1.750 
#    0.000    5.000    0.000    2.250    0.000    0.000 
#    0.000    8.000    0.000    5.625    0.000    0.500 
#
# Total GULP energy -356498.578720 kJ/mol
# GULP energy per Si atom -5570.290292 kJ/mol
# Density = 1.536855 g / cm^3
# Si number density = 15.403607 Si / 1000 Ang^3
#
#
#
# Elastic Constant Matrix: (Units=GPa)
#
#
# Indices 1 2 3 4 5 6 
#
# 1 63.8455 34.1722 18.1580 0.0000 0.0000 0.0000
# 2 34.1722 73.8813 24.5088 0.0000 0.0000 0.0000
# 3 18.1580 24.5088 79.8142 0.0000 0.0000 0.0000
# 4 0.0000 0.0000 0.0000 16.0480 0.0000 0.0000
# 5 0.0000 0.0000 0.0000 0.0000 0.6337 0.0000
# 6 0.0000 0.0000 0.0000 0.0000 0.0000 11.0202
#
#
#
# Elastic Compliance Matrix: (Units=1/GPa)
#
#
# Indices 1 2 3 4 5 6 
#
# 1 0.021101 -0.009094 -0.002008 0.000000 0.000000 0.000000
# 2 -0.009094 0.018989 -0.003762 0.000000 0.000000 0.000000
# 3 -0.002008 -0.003762 0.014141 0.000000 0.000000 0.000000
# 4 0.000000 0.000000 0.000000 0.062313 0.000000 0.000000
# 5 0.000000 0.000000 0.000000 0.000000 1.578076 0.000000
# 6 0.000000 0.000000 0.000000 0.000000 0.000000 0.090742
#
#
# Mechanical properties :
#
#
# Convention : Reuss Voigt Hill
#
# Bulk Modulus (GPa) = 40.81048 41.24658 41.02853
# Shear Modulus (GPa) = 2.74234 14.92051 8.83143
#
# Velocity S-wave (km/s) = 1.33574 3.11567 2.39704
# Velocity P-wave (km/s) = 5.37871 6.30702 5.86128
#
# Compressibility (1/GPa) = 0.02450351
#
# Stress axis : x y z
#
# Youngs Moduli (GPa) = 47.39069 52.66096 70.71506
#
# Poissons Ratio (x) = 0.47888 0.14201
# Poissons Ratio (y) = 0.43096 0.26605
# Poissons Ratio (z) = 0.09517 0.19813
#
# Static dielectric constant tensor:
#      x y z
#    x 1.476180 0.000000 0.000000 
#    y 0.000000 1.528380 0.000000 
#    z 0.000000 0.000000 1.545210 
# 
# From -- ./inp_files/35632.got.cif
#   From: 2010.05.17/outbox.cif.g08.bks.cpg/sg67_18_cif.got.tgz:35632.got - 2010.06.03 18:28:57.
