data_PCOD9500110
_publ_section_title
;
Structure prediction by ZEFSAII (Michael W. Deem and Ramdas Pophale) SiO2 
 PCOD9500110
Probable space group: C C C M
;
_chemical_formula_sum "Si O2"
_cell_formula_units_Z 32
_cell_length_a 12.000000
_cell_length_b 15.000000
_cell_length_c 18.000000
_cell_angle_alpha 90.000000
_cell_angle_beta 90.000000
_cell_angle_gamma 90.000000
_cell_volume 3240.000000
_symmetry_space_group_name_H-M "C C C M"
_symmetry_group_IT_number 66
_symmetry_cell_setting 'orthorhombic'
loop_
_space_group_symop_operation_xyz
x,y,z
-x,-y,z
x,-y,1/2-z
-x,y,1/2-z
-x,-y,-z
x,y,-z
-x,y,1/2+z
x,-y,1/2+z
1/2+x,1/2+y,z
1/2-x,1/2-y,z
1/2+x,1/2-y,1/2-z
1/2-x,1/2+y,1/2-z
1/2-x,1/2-y,-z
1/2+x,1/2+y,-z
1/2-x,1/2+y,1/2+z
1/2+x,1/2-y,1/2+z
loop_
_atom_site_type_symbol
_atom_site_label
_atom_site_fract_x
_atom_site_fract_y
_atom_site_fract_z
Si Si1 0.968413 0.638583 0.664485
Si Si2 0.237961 0.463320 0.589049
Si Si3 0.296861 0.155675 0.911179
Si Si4 0.871388 0.796143 0.583004
O O1 0.868545 0.575273 0.634545
O O2 0.931599 0.740006 0.646107
O O3 0.000000 0.623262 0.750000
O O4 0.080143 0.631251 0.616617
O O5 0.210686 0.458166 0.500000
O O6 0.268415 0.564915 0.607912
O O7 0.341948 0.397527 0.600594
O O8 0.250000 0.250000 0.881348
O O9 0.298708 0.163316 0.000000
O O10 0.924080 0.788184 0.500000
O O11 0.750000 0.750000 0.576947
#
# Coordination Sequence:
#
# PCOD9500110 Si02
#       4
#    16  16  16  16
#     4  11  21  32  51  80 108 137 169 209 262 316
#     4   9  18  35  58  78  98 133 180 221 256 302
#     4  10  21  36  53  76 106 137 172 218 266 306
#     4   8  15  31  55  77  97 128 174 219 252 294
#
# _framework density 9.8765429999999999
#
# number of rings (size 3 to 8) (size 9 to 14) (size 15 to 20)
#    0.000    2.500    0.000    4.500    0.000    7.000 
#    0.000    1.250    0.000    7.500    0.000    0.000 
#    0.000    0.000    0.000    0.000    0.000    0.000 
#
# Total GULP energy -178292.275797 kJ/mol
# GULP energy per Si atom -5571.633619 kJ/mol
# Density = 0.985406 g / cm^3
# Si number density = 9.876543 Si / 1000 Ang^3
#
#
#
# Elastic Constant Matrix: (Units=GPa)
#
#
# Indices 1 2 3 4 5 6 
#
# 1 4.0742 16.3465 5.7136 0.0000 0.0000 0.0000
# 2 16.3465 170.7641 39.4666 0.0000 0.0000 0.0000
# 3 5.7136 39.4666 42.5079 0.0000 0.0000 0.0000
# 4 0.0000 0.0000 0.0000 -12.5175 0.0000 0.0000
# 5 0.0000 0.0000 0.0000 0.0000 15.7395 0.0000
# 6 0.0000 0.0000 0.0000 0.0000 0.0000 23.2973
#
#
#
# Elastic Compliance Matrix: (Units=1/GPa)
#
#
# Indices 1 2 3 4 5 6 
#
# 1 0.417159 -0.034343 -0.024186 0.000000 0.000000 0.000000
# 2 -0.034343 0.010283 -0.004931 0.000000 0.000000 0.000000
# 3 -0.024186 -0.004931 0.031354 0.000000 0.000000 0.000000
# 4 0.000000 0.000000 0.000000 -0.079888 0.000000 0.000000
# 5 0.000000 0.000000 0.000000 0.000000 0.063535 0.000000
# 6 0.000000 0.000000 0.000000 0.000000 0.000000 0.042923
#
#
# Mechanical properties :
#
#
# Convention : Reuss Voigt Hill
#
# Bulk Modulus (GPa) = 3.01317 37.82220 20.41768
# Shear Modulus (GPa) = 6.91647 15.69182 11.30415
#
# Velocity S-wave (km/s) = 1.87325 2.82157 2.39482
# Velocity P-wave (km/s) = 2.49148 5.45931 4.24332
#
# Compressibility (1/GPa) = 0.33187648
#
# Stress axis : x y z
#
# Youngs Moduli (GPa) = 2.39717 97.24510 31.89339
#
# Poissons Ratio (x) = 3.33971 0.77136
# Poissons Ratio (y) = 0.08233 0.15728
# Poissons Ratio (z) = 0.05798 0.47955
#
# Static dielectric constant tensor:
#      x y z
#    x 1.713390 0.000000 0.000000 
#    y 0.000000 1.822040 0.000000 
#    z 0.000000 0.000000 1.668790 
# 
# From -- ./inp_files/27706.got.cif
#   From: 2010.05.17/outbox.ucp.g08.bks.cvg/sg66_14_cif.got.tgz:27706.got - 2010.06.11 16:44:13.
