data_PCOD9500666
_publ_section_title
;
Structure prediction by ZEFSAII (Michael W. Deem and Ramdas Pophale) SiO2 
 PCOD9500666
Probable space group: C M M A
;
_chemical_formula_sum "Si O2"
_cell_formula_units_Z 80
_cell_length_a 19.487308
_cell_length_b 19.890232
_cell_length_c 12.847122
_cell_angle_alpha 90.000000
_cell_angle_beta 90.000000
_cell_angle_gamma 90.000000
_cell_volume 4979.635409
_symmetry_space_group_name_H-M "C M M A"
_symmetry_group_IT_number 67
_symmetry_cell_setting 'orthorhombic'
loop_
_space_group_symop_operation_xyz
x,y,z
-x,1/2-y,z
x,-y,-z
-x,1/2+y,-z
-x,-y,-z
x,1/2+y,-z
-x,y,z
x,1/2-y,z
1/2+x,1/2+y,z
1/2-x,-y,z
1/2+x,1/2-y,-z
1/2-x,y,-z
1/2-x,1/2-y,-z
1/2+x,y,-z
1/2-x,1/2+y,z
1/2+x,-y,z
loop_
_atom_site_type_symbol
_atom_site_label
_atom_site_fract_x
_atom_site_fract_y
_atom_site_fract_z
Si Si1 0.820034 0.174002 0.698315
Si Si2 0.580042 0.949649 0.715287
Si Si3 0.672018 0.025721 0.882765
Si Si4 0.713413 0.174997 0.887920
Si Si5 0.250000 0.110332 0.500000
Si Si6 0.135293 0.500000 0.500000
O O1 0.844627 0.250000 0.685535
O O2 0.881733 0.121987 0.711286
O O3 0.771240 0.170666 0.798982
O O4 0.774600 0.152771 0.598702
O O5 0.500000 0.944429 0.738833
O O6 0.620444 0.993419 0.800644
O O7 0.591978 0.981624 0.601286
O O8 0.669829 0.106812 0.878724
O O9 0.750000 0.000000 0.858091
O O10 0.658057 0.000000 0.000000
O O11 0.680877 0.250000 0.879138
O O12 0.750000 0.171614 0.000000
O O13 0.186261 0.061694 0.472744
#
# Coordination Sequence:
#
# PCOD9500666 Si02
#       6
#    16  16  16  16   8   8
#     4  10  19  31  48  73 104 133 168 210 258 307
#     4  11  22  34  51  74 104 139 174 209 256 311
#     4  11  19  34  55  78 104 133 171 218 254 299
#     4  10  18  30  51  78 103 129 163 210 261 300
#     4   9  17  30  52  78  95 127 166 218 261 303
#     4   9  19  32  52  74 102 128 170 220 258 302
#
# _framework density 16.065432999999999
#
# number of rings (size 3 to 8) (size 9 to 14) (size 15 to 20)
#    0.000    1.800    4.000    1.800    2.800    0.800 
#    0.000    0.000    0.000    0.600    0.000    0.000 
#    0.000    0.000    0.000    0.000    0.000    0.000 
#
# Total GULP energy -223077.752496 kJ/mol
# GULP energy per Si atom -5576.943812 kJ/mol
# Density = 1.602887 g / cm^3
# Si number density = 16.065433 Si / 1000 Ang^3
#
#
#
# Elastic Constant Matrix: (Units=GPa)
#
#
# Indices 1 2 3 4 5 6 
#
# 1 83.4280 55.3912 63.4655 0.0000 0.0000 0.0000
# 2 55.3912 163.6900 66.8882 0.0000 0.0000 0.0000
# 3 63.4655 66.8882 109.9085 0.0000 0.0000 0.0000
# 4 0.0000 0.0000 0.0000 32.9463 0.0000 0.0000
# 5 0.0000 0.0000 0.0000 0.0000 10.8847 0.0000
# 6 0.0000 0.0000 0.0000 0.0000 0.0000 7.3815
#
#
#
# Elastic Compliance Matrix: (Units=1/GPa)
#
#
# Indices 1 2 3 4 5 6 
#
# 1 0.022475 -0.003064 -0.011113 0.000000 0.000000 0.000000
# 2 -0.003064 0.008549 -0.003433 0.000000 0.000000 0.000000
# 3 -0.011113 -0.003433 0.017605 0.000000 0.000000 0.000000
# 4 0.000000 0.000000 0.000000 0.030352 0.000000 0.000000
# 5 0.000000 0.000000 0.000000 0.000000 0.091872 0.000000
# 6 0.000000 0.000000 0.000000 0.000000 0.000000 0.135473
#
#
# Mechanical properties :
#
#
# Convention : Reuss Voigt Hill
#
# Bulk Modulus (GPa) = 74.58421 80.94627 77.76524
# Shear Modulus (GPa) = 14.45017 21.66129 18.05573
#
# Velocity S-wave (km/s) = 3.00235 3.67593 3.35608
# Velocity P-wave (km/s) = 7.65146 8.27716 7.97045
#
# Compressibility (1/GPa) = 0.01340766
#
# Stress axis : x y z
#
# Youngs Moduli (GPa) = 44.49456 116.97325 56.80203
#
# Poissons Ratio (x) = 0.35843 0.63124
# Poissons Ratio (y) = 0.13634 0.19502
# Poissons Ratio (z) = 0.49447 0.40161
#
# Static dielectric constant tensor:
#      x y z
#    x 1.493190 0.000000 0.000000 
#    y 0.000000 1.567520 0.000000 
#    z 0.000000 0.000000 1.529210 
# 
# From -- ./inp_files/19342.got.cif
#   From: 2010.05.17/outbox.cif.g08.bks.cpg/sg67_10_cif.got.tgz:19342.got - 2010.06.03 18:28:57.
