data_PCOD9500708
_publ_section_title
;
Structure prediction by ZEFSAII (Michael W. Deem and Ramdas Pophale) SiO2 
 PCOD9500708
Probable space group: C M M A
;
_chemical_formula_sum "Si O2"
_cell_formula_units_Z 96
_cell_length_a 25.991786
_cell_length_b 8.548701
_cell_length_c 25.978384
_cell_angle_alpha 90.000000
_cell_angle_beta 90.000000
_cell_angle_gamma 90.000000
_cell_volume 5772.293192
_symmetry_space_group_name_H-M "C M M A"
_symmetry_group_IT_number 67
_symmetry_cell_setting 'orthorhombic'
loop_
_space_group_symop_operation_xyz
x,y,z
-x,1/2-y,z
x,-y,-z
-x,1/2+y,-z
-x,-y,-z
x,1/2+y,-z
-x,y,z
x,1/2-y,z
1/2+x,1/2+y,z
1/2-x,-y,z
1/2+x,1/2-y,-z
1/2-x,y,-z
1/2-x,1/2-y,-z
1/2+x,y,-z
1/2-x,1/2+y,z
1/2+x,-y,z
loop_
_atom_site_type_symbol
_atom_site_label
_atom_site_fract_x
_atom_site_fract_y
_atom_site_fract_z
Si Si1 0.808614 0.563067 0.753514
Si Si2 0.500000 0.438470 0.441685
Si Si3 0.891427 0.437071 0.058415
Si Si4 0.612632 0.939065 0.558197
Si Si5 0.191534 0.562986 0.137751
Si Si6 0.000000 0.062870 0.941321
Si Si7 0.808173 0.061804 0.645424
O O1 0.808605 0.750000 0.754805
O O2 0.750000 0.500000 0.752733
O O3 0.829790 0.496133 0.806996
O O4 0.830487 0.502024 0.699485
O O5 0.500000 0.250000 0.441467
O O6 0.500000 0.500000 0.500000
O O7 0.444121 0.488450 0.421210
O O8 0.892277 0.250000 0.057195
O O9 0.844817 0.498654 0.092966
O O10 0.946123 0.499359 0.080271
O O11 0.886166 0.500000 0.000000
O O12 0.613518 0.750000 0.555966
O O13 0.656867 0.988927 0.597471
O O14 0.619435 0.000000 0.500000
O O15 0.192947 0.750000 0.137274
O O16 0.250000 0.500000 0.132119
O O17 0.000000 0.250000 0.941210
O O18 0.000000 0.000000 0.000000
O O19 0.806766 0.250000 0.647911
O O20 0.750000 0.000000 0.639450
#
# Coordination Sequence:
#
# PCOD9500708 Si02
#       7
#    16   8  16  16  16   8  16
#     4  10  18  31  50  71  93 124 162 201 239 284
#     4   8  14  28  46  65  86 115 152 192 228 270
#     4  11  21  35  53  77 105 136 170 208 250 296
#     4   9  18  30  47  68  93 121 154 191 234 280
#     4  11  21  35  53  76 103 133 166 205 249 299
#     4  10  18  32  52  75 100 133 172 210 248 292
#     4  10  19  31  46  68  94 124 156 192 234 282
#
# _framework density 16.631170999999998
#
# number of rings (size 3 to 8) (size 9 to 14) (size 15 to 20)
#    0.000    2.000    0.000    8.750    0.000    2.000 
#    0.000    3.333    0.000    1.000    0.000    4.667 
#    0.000    0.000    0.000    0.000    0.000    0.000 
#
# Total GULP energy -267530.253664 kJ/mol
# GULP energy per Si atom -5573.546951 kJ/mol
# Density = 1.659332 g / cm^3
# Si number density = 16.631171 Si / 1000 Ang^3
#
#
#
# Elastic Constant Matrix: (Units=GPa)
#
#
# Indices 1 2 3 4 5 6 
#
# 1 107.9083 42.2625 68.5328 0.0000 0.0000 0.0000
# 2 42.2625 130.2029 42.4098 0.0000 0.0000 0.0000
# 3 68.5328 42.4098 111.1544 0.0000 0.0000 0.0000
# 4 0.0000 0.0000 0.0000 25.7371 0.0000 0.0000
# 5 0.0000 0.0000 0.0000 0.0000 -2.3334 0.0000
# 6 0.0000 0.0000 0.0000 0.0000 0.0000 22.5038
#
#
#
# Elastic Compliance Matrix: (Units=1/GPa)
#
#
# Indices 1 2 3 4 5 6 
#
# 1 0.015779 -0.002230 -0.008878 0.000000 0.000000 0.000000
# 2 -0.002230 0.009085 -0.002092 0.000000 0.000000 0.000000
# 3 -0.008878 -0.002092 0.015268 0.000000 0.000000 0.000000
# 4 0.000000 0.000000 0.000000 0.038854 0.000000 0.000000
# 5 0.000000 0.000000 0.000000 0.000000 -0.428568 0.000000
# 6 0.000000 0.000000 0.000000 0.000000 0.000000 0.044437
#
#
# Mechanical properties :
#
#
# Convention : Reuss Voigt Hill
#
# Bulk Modulus (GPa) = 72.81261 72.85287 72.83274
# Shear Modulus (GPa) = -18.23695 22.25222 2.00764
#
# Velocity S-wave (km/s) = -3.31502 3.66181 1.09990
# Velocity P-wave (km/s) = 5.40587 7.85994 6.74544
#
# Compressibility (1/GPa) = 0.01373388
#
# Stress axis : x y z
#
# Youngs Moduli (GPa) = 63.37669 110.06667 65.49635
#
# Poissons Ratio (x) = 0.24545 0.58145
# Poissons Ratio (y) = 0.14133 0.13699
# Poissons Ratio (z) = 0.56263 0.23021
#
# Static dielectric constant tensor:
#      x y z
#    x 1.559430 0.000000 0.000000 
#    y 0.000000 1.550510 0.000000 
#    z 0.000000 0.000000 1.534730 
# 
# From -- ./inp_files/42575.got.cif
#   From: 2010.05.17/outbox.cif.g08.bks.cpg/sg67_22_cif.got.tgz:42575.got - 2010.06.03 18:28:57.
