data_PCOD9500149
_publ_section_title
;
Structure prediction by ZEFSAII (Michael W. Deem and Ramdas Pophale) SiO2 
 PCOD9500149
Probable space group: C M M A
;
_chemical_formula_sum "Si O2"
_cell_formula_units_Z 84
_cell_length_a 14.941635
_cell_length_b 35.789734
_cell_length_c 7.196638
_cell_angle_alpha 90.000000
_cell_angle_beta 90.000000
_cell_angle_gamma 90.000000
_cell_volume 3848.453570
_symmetry_space_group_name_H-M "C M M A"
_symmetry_group_IT_number 67
_symmetry_cell_setting 'orthorhombic'
loop_
_space_group_symop_operation_xyz
x,y,z
-x,1/2-y,z
x,-y,-z
-x,1/2+y,-z
-x,-y,-z
x,1/2+y,-z
-x,y,z
x,1/2-y,z
1/2+x,1/2+y,z
1/2-x,-y,z
1/2+x,1/2-y,-z
1/2-x,y,-z
1/2-x,1/2-y,-z
1/2+x,y,-z
1/2-x,1/2+y,z
1/2+x,-y,z
loop_
_atom_site_type_symbol
_atom_site_label
_atom_site_fract_x
_atom_site_fract_y
_atom_site_fract_z
Si Si1 0.852326 0.992230 0.776984
Si Si2 0.359241 0.311159 0.291193
Si Si3 0.000000 0.250000 0.827856
Si Si4 0.500000 0.367976 0.363408
Si Si5 0.157875 0.794068 0.734310
Si Si6 0.500000 0.846472 0.209042
Si Si7 0.500000 0.452267 0.285674
Si Si8 0.500000 0.434081 0.848961
O O1 0.910256 0.953518 0.761823
O O2 0.750000 0.000000 0.719307
O O3 0.912887 0.023291 0.677789
O O4 0.852524 0.000000 0.000000
O O5 0.422614 0.282003 0.192321
O O6 0.409527 0.350946 0.275000
O O7 0.257997 0.307511 0.224234
O O8 0.355542 0.298911 0.510439
O O9 0.500000 0.351661 0.569145
O O10 0.500000 0.412048 0.375428
O O11 0.144527 0.750000 0.776400
O O12 0.086488 0.821174 0.830554
O O13 0.500000 0.889189 0.144096
O O14 0.500000 0.445788 0.063995
#
# Coordination Sequence:
#
# PCOD9500149 Si02
#       8
#    16  16   4   8  16   8   8   8
#     4   8  15  30  54  74  89 117 158 196 223 262
#     4   9  16  24  42  64  92 114 158 200 238 256
#     4  10  12  22  38  60  82 116 146 200 236 260
#     4   9  19  29  43  71  99 122 148 190 238 284
#     4  10  16  27  42  65  87 127 162 201 226 275
#     4  10  21  29  44  68 102 126 150 190 239 277
#     4   9  17  32  52  71  95 119 155 190 227 275
#     4   9  18  33  49  74  95 119 155 191 228 280
#
# _framework density 21.826948999999999
#
# number of rings (size 3 to 8) (size 9 to 14) (size 15 to 20)
#    0.000    2.857    1.905    2.571    0.000    1.524 
#    0.000    1.905    0.000    1.143    9.905    1.333 
#    0.000    0.000    0.000    0.000    0.000    0.000 
#
# Total GULP energy -233913.108190 kJ/mol
# GULP energy per Si atom -5569.359719 kJ/mol
# Density = 2.177727 g / cm^3
# Si number density = 21.826949 Si / 1000 Ang^3
#
#
#
# Elastic Constant Matrix: (Units=GPa)
#
#
# Indices 1 2 3 4 5 6 
#
# 1 241.8658 133.0932 25.9270 0.0000 0.0000 0.0000
# 2 133.0932 183.6961 13.7188 0.0000 0.0000 0.0000
# 3 25.9270 13.7188 66.3725 0.0000 0.0000 0.0000
# 4 0.0000 0.0000 0.0000 21.5714 0.0000 0.0000
# 5 0.0000 0.0000 0.0000 0.0000 -22.1413 0.0000
# 6 0.0000 0.0000 0.0000 0.0000 0.0000 26.7175
#
#
#
# Elastic Compliance Matrix: (Units=1/GPa)
#
#
# Indices 1 2 3 4 5 6 
#
# 1 0.007066 -0.004990 -0.001729 0.000000 0.000000 0.000000
# 2 -0.004990 0.009054 0.000078 0.000000 0.000000 0.000000
# 3 -0.001729 0.000078 0.015726 0.000000 0.000000 0.000000
# 4 0.000000 0.000000 0.000000 0.046358 0.000000 0.000000
# 5 0.000000 0.000000 0.000000 0.000000 -0.045164 0.000000
# 6 0.000000 0.000000 0.000000 0.000000 0.000000 0.037429
#
#
# Mechanical properties :
#
#
# Convention : Reuss Voigt Hill
#
# Bulk Modulus (GPa) = 53.87008 93.04581 73.45795
# Shear Modulus (GPa) = 55.59464 26.50921 41.05193
#
# Velocity S-wave (km/s) = 5.05232 3.48877 4.34151
# Velocity P-wave (km/s) = 7.66607 7.67790 7.67199
#
# Compressibility (1/GPa) = 0.01856318
#
# Stress axis : x y z
#
# Youngs Moduli (GPa) = 141.52457 110.45323 63.59052
#
# Poissons Ratio (x) = 0.55120 0.10993
# Poissons Ratio (y) = 0.70626 -0.00496
# Poissons Ratio (z) = 0.24465 -0.00862
#
# Static dielectric constant tensor:
#      x y z
#    x 1.713620 0.000000 0.000000 
#    y 0.000000 1.768460 0.000000 
#    z 0.000000 0.000000 1.913680 
# 
# From -- ./inp_files/18479.got.cif
#   From: 2010.05.17/outbox.cif.g08.bks.cpg/sg67_10_cif.got.tgz:18479.got - 2010.06.03 18:28:57.
