data_PCOD9500302
_publ_section_title
;
Structure prediction by ZEFSAII (Michael W. Deem and Ramdas Pophale) SiO2 
 PCOD9500302
Probable space group: C M M A
;
_chemical_formula_sum "Si O2"
_cell_formula_units_Z 72
_cell_length_a 7.858506
_cell_length_b 26.612672
_cell_length_c 15.014052
_cell_angle_alpha 90.000000
_cell_angle_beta 90.000000
_cell_angle_gamma 90.000000
_cell_volume 3139.976416
_symmetry_space_group_name_H-M "C M M A"
_symmetry_group_IT_number 67
_symmetry_cell_setting 'orthorhombic'
loop_
_space_group_symop_operation_xyz
x,y,z
-x,1/2-y,z
x,-y,-z
-x,1/2+y,-z
-x,-y,-z
x,1/2+y,-z
-x,y,z
x,1/2-y,z
1/2+x,1/2+y,z
1/2-x,-y,z
1/2+x,1/2-y,-z
1/2-x,y,-z
1/2-x,1/2-y,-z
1/2+x,y,-z
1/2-x,1/2+y,z
1/2+x,-y,z
loop_
_atom_site_type_symbol
_atom_site_label
_atom_site_fract_x
_atom_site_fract_y
_atom_site_fract_z
Si Si1 0.701299 0.552803 0.396152
Si Si2 0.289590 0.655394 0.788429
Si Si3 0.702242 0.442024 0.103921
Si Si4 0.203277 0.250000 0.898872
Si Si5 0.311953 0.661111 0.601752
O O1 0.500000 0.562364 0.387986
O O2 0.750000 0.500000 0.352312
O O3 0.750000 0.547974 0.500000
O O4 0.808411 0.601587 0.373035
O O5 0.500000 0.653938 0.782894
O O6 0.232052 0.601013 0.827594
O O7 0.235783 0.698155 0.856647
O O8 0.223857 0.677229 0.692826
O O9 0.500000 0.439290 0.108618
O O10 0.750000 0.500000 0.124308
O O11 0.750000 0.432024 0.000000
O O12 0.000000 0.250000 0.886794
O O13 0.250000 0.250000 0.000000
O O14 0.500000 0.682535 0.599376
O O15 0.250000 0.666105 0.500000
#
# Coordination Sequence:
#
# PCOD9500302 Si02
#       5
#    16  16  16   8  16
#     4  10  17  27  43  66  95 134 179 227 273 320
#     4   9  20  36  58  83 113 147 186 226 276 334
#     4  10  19  34  54  82 113 147 182 223 274 335
#     4  10  20  40  65  90 114 144 179 226 281 334
#     4  10  19  34  51  73 104 143 185 230 273 323
#
# _framework density 22.930107
#
# number of rings (size 3 to 8) (size 9 to 14) (size 15 to 20)
#    0.000    2.222    0.000    6.667    0.000    0.889 
#    0.000   10.556    0.000    0.000    0.000    0.000 
#    0.000    0.000    0.000    0.000    0.000    0.000 
#
# Total GULP energy -200438.653568 kJ/mol
# GULP energy per Si atom -5567.740377 kJ/mol
# Density = 2.287792 g / cm^3
# Si number density = 22.930107 Si / 1000 Ang^3
#
#
#
# Elastic Constant Matrix: (Units=GPa)
#
#
# Indices 1 2 3 4 5 6 
#
# 1 63.6207 5.0656 4.2668 0.0000 0.0000 0.0000
# 2 5.0656 80.0013 56.8209 0.0000 0.0000 0.0000
# 3 4.2668 56.8209 197.1364 0.0000 0.0000 0.0000
# 4 0.0000 0.0000 0.0000 -11.1037 0.0000 0.0000
# 5 0.0000 0.0000 0.0000 0.0000 17.0960 0.0000
# 6 0.0000 0.0000 0.0000 0.0000 0.0000 5.3337
#
#
#
# Elastic Compliance Matrix: (Units=1/GPa)
#
#
# Indices 1 2 3 4 5 6 
#
# 1 0.015799 -0.000952 -0.000067 0.000000 0.000000 0.000000
# 2 -0.000952 0.015775 -0.004526 0.000000 0.000000 0.000000
# 3 -0.000067 -0.004526 0.006379 0.000000 0.000000 0.000000
# 4 0.000000 0.000000 0.000000 -0.090060 0.000000 0.000000
# 5 0.000000 0.000000 0.000000 0.000000 0.058493 0.000000
# 6 0.000000 0.000000 0.000000 0.000000 0.000000 0.187488
#
#
# Mechanical properties :
#
#
# Convention : Reuss Voigt Hill
#
# Bulk Modulus (GPa) = 37.23024 52.56278 44.89651
# Shear Modulus (GPa) = 23.37336 20.57220 21.97278
#
# Velocity S-wave (km/s) = 3.19616 2.99853 3.09892
# Velocity P-wave (km/s) = 5.46738 5.91279 5.69444
#
# Compressibility (1/GPa) = 0.02685989
#
# Stress axis : x y z
#
# Youngs Moduli (GPa) = 63.29713 63.39216 156.77226
#
# Poissons Ratio (x) = 0.06038 0.01057
# Poissons Ratio (y) = 0.06029 0.70958
# Poissons Ratio (z) = 0.00427 0.28692
#
# Static dielectric constant tensor:
#      x y z
#    x 1.853590 0.000000 0.000000 
#    y 0.000000 1.984070 0.000000 
#    z 0.000000 0.000000 1.876290 
# 
# From -- ./inp_files/25059.got.cif
#   From: 2010.05.17/outbox.cif.g08.bks.cpg/sg67_13_cif.got.tgz:25059.got - 2010.06.03 18:28:57.
