data_PCOD9500908
_publ_section_title
;
Structure prediction by ZEFSAII (Michael W. Deem and Ramdas Pophale) SiO2 
 PCOD9500908
Probable space group: C M M A
;
_chemical_formula_sum "Si O2"
_cell_formula_units_Z 100
_cell_length_a 29.672759
_cell_length_b 16.353430
_cell_length_c 10.033397
_cell_angle_alpha 90.000000
_cell_angle_beta 90.000000
_cell_angle_gamma 90.000000
_cell_volume 4868.719813
_symmetry_space_group_name_H-M "C M M A"
_symmetry_group_IT_number 67
_symmetry_cell_setting 'orthorhombic'
loop_
_space_group_symop_operation_xyz
x,y,z
-x,1/2-y,z
x,-y,-z
-x,1/2+y,-z
-x,-y,-z
x,1/2+y,-z
-x,y,z
x,1/2-y,z
1/2+x,1/2+y,z
1/2-x,-y,z
1/2+x,1/2-y,-z
1/2-x,y,-z
1/2-x,1/2-y,-z
1/2+x,y,-z
1/2-x,1/2+y,z
1/2+x,-y,z
loop_
_atom_site_type_symbol
_atom_site_label
_atom_site_fract_x
_atom_site_fract_y
_atom_site_fract_z
Si Si1 0.816605 0.407312 0.541296
Si Si2 0.000000 0.581864 0.583255
Si Si3 0.250000 0.500000 0.000000
Si Si4 0.597163 0.346774 0.570001
Si Si5 0.739976 0.657835 0.299171
Si Si6 0.404087 0.847540 0.127364
Si Si7 0.000000 0.575086 0.899397
Si Si8 0.309464 0.151377 0.985218
O O1 0.811802 0.500000 0.500000
O O2 0.869051 0.385018 0.538049
O O3 0.784632 0.393532 0.667472
O O4 0.794188 0.355877 0.421226
O O5 0.000000 0.500000 0.500000
O O6 0.954989 0.632000 0.550331
O O7 0.000000 0.559148 0.740133
O O8 0.285867 0.570989 0.948187
O O9 0.604040 0.250000 0.566712
O O10 0.606871 0.377878 0.721716
O O11 0.756419 0.750000 0.302476
O O12 0.712162 0.647519 0.163590
O O13 0.406822 0.750000 0.139902
O O14 0.452703 0.878099 0.080439
O O15 0.362433 0.864648 0.030073
O O16 0.000000 0.500000 0.000000
O O17 0.303075 0.250000 0.026396
#
# Coordination Sequence:
#
# PCOD9500908 Si02
#       8
#    16   8   4  16  16  16   8  16
#     4  11  20  28  49  81 113 142 181 232 287 349
#     4  10  21  37  55  85 119 154 182 238 300 354
#     4  12  26  36  60  74 108 152 198 248 296 358
#     4  10  18  33  55  80 107 147 192 230 281 352
#     4  10  19  33  51  73 109 146 182 230 285 345
#     4   9  18  35  59  84 112 146 192 246 298 351
#     4  10  21  35  63  93 119 142 198 252 302 366
#     4  10  22  39  58  82 112 152 198 246 299 361
#
# _framework density 20.539279000000001
#
# number of rings (size 3 to 8) (size 9 to 14) (size 15 to 20)
#    0.000    1.920    1.600    4.080    3.360    1.920 
#    0.000    0.000    0.000    1.920    0.000    0.000 
#    0.000    0.000    0.000    0.000    0.000    0.000 
#
# Total GULP energy -278364.906180 kJ/mol
# GULP energy per Si atom -5567.298124 kJ/mol
# Density = 2.049253 g / cm^3
# Si number density = 20.539279 Si / 1000 Ang^3
#
#
#
# Elastic Constant Matrix: (Units=GPa)
#
#
# Indices 1 2 3 4 5 6 
#
# 1 168.2586 42.9769 27.0097 0.0000 0.0000 0.0000
# 2 42.9769 75.4934 25.3765 0.0000 0.0000 0.0000
# 3 27.0097 25.3765 48.8538 0.0000 0.0000 0.0000
# 4 0.0000 0.0000 0.0000 6.4764 0.0000 0.0000
# 5 0.0000 0.0000 0.0000 0.0000 32.4367 0.0000
# 6 0.0000 0.0000 0.0000 0.0000 0.0000 53.1842
#
#
#
# Elastic Compliance Matrix: (Units=1/GPa)
#
#
# Indices 1 2 3 4 5 6 
#
# 1 0.007149 -0.003321 -0.002227 0.000000 0.000000 0.000000
# 2 -0.003321 0.017591 -0.007301 0.000000 0.000000 0.000000
# 3 -0.002227 -0.007301 0.025493 0.000000 0.000000 0.000000
# 4 0.000000 0.000000 0.000000 0.154406 0.000000 0.000000
# 5 0.000000 0.000000 0.000000 0.000000 0.030829 0.000000
# 6 0.000000 0.000000 0.000000 0.000000 0.000000 0.018803
#
#
# Mechanical properties :
#
#
# Convention : Reuss Voigt Hill
#
# Bulk Modulus (GPa) = 40.76015 53.70356 47.23186
# Shear Modulus (GPa) = 17.35214 31.56900 24.46057
#
# Velocity S-wave (km/s) = 2.90974 3.92472 3.45471
# Velocity P-wave (km/s) = 5.58363 6.83677 6.24173
#
# Compressibility (1/GPa) = 0.02453376
#
# Stress axis : x y z
#
# Youngs Moduli (GPa) = 139.87854 56.84686 39.22605
#
# Poissons Ratio (x) = 0.18879 0.08737
# Poissons Ratio (y) = 0.46455 0.28640
# Poissons Ratio (z) = 0.31156 0.41506
#
# Static dielectric constant tensor:
#      x y z
#    x 1.748320 0.000000 0.000000 
#    y 0.000000 1.747850 0.000000 
#    z 0.000000 0.000000 1.791130 
# 
# From -- ./inp_files/23759.got.cif
#   From: 2010.05.17/outbox.cif.g08.bks.cpg/sg67_12_cif.got.tgz:23759.got - 2010.06.03 18:28:57.
