data_PCOD9500720
_publ_section_title
;
Structure prediction by ZEFSAII (Michael W. Deem and Ramdas Pophale) SiO2 
 PCOD9500720
Probable space group: C M M A
;
_chemical_formula_sum "Si O2"
_cell_formula_units_Z 128
_cell_length_a 20.087949
_cell_length_b 19.728684
_cell_length_c 19.995584
_cell_angle_alpha 90.000000
_cell_angle_beta 90.000000
_cell_angle_gamma 90.000000
_cell_volume 7924.425861
_symmetry_space_group_name_H-M "C M M A"
_symmetry_group_IT_number 67
_symmetry_cell_setting 'orthorhombic'
loop_
_space_group_symop_operation_xyz
x,y,z
-x,1/2-y,z
x,-y,-z
-x,1/2+y,-z
-x,-y,-z
x,1/2+y,-z
-x,y,z
x,1/2-y,z
1/2+x,1/2+y,z
1/2-x,-y,z
1/2+x,1/2-y,-z
1/2-x,y,-z
1/2-x,1/2-y,-z
1/2+x,y,-z
1/2-x,1/2+y,z
1/2+x,-y,z
loop_
_atom_site_type_symbol
_atom_site_label
_atom_site_fract_x
_atom_site_fract_y
_atom_site_fract_z
Si Si1 0.842801 0.329990 0.808005
Si Si2 0.826891 0.077277 0.021246
Si Si3 0.823587 0.169339 0.656489
Si Si4 0.294142 0.068613 0.682456
Si Si5 0.923786 0.169300 0.935386
Si Si6 0.075768 0.442109 0.406047
Si Si7 0.924548 0.101149 0.555197
Si Si8 0.719408 0.074180 0.836836
O O1 0.827442 0.250000 0.811553
O O2 0.854931 0.346124 0.730080
O O3 0.902925 0.343858 0.858404
O O4 0.779884 0.372571 0.833735
O O5 0.828944 0.087432 0.101192
O O6 0.750000 0.089079 0.000000
O O7 0.874580 0.127863 0.982350
O O8 0.842701 0.000000 0.000000
O O9 0.815022 0.250000 0.650712
O O10 0.753622 0.129686 0.658891
O O11 0.870716 0.141504 0.598078
O O12 0.363364 0.069615 0.643548
O O13 0.308523 0.073276 0.761750
O O14 0.250000 0.000000 0.671753
O O15 0.916432 0.250000 0.946455
O O16 0.000000 0.150368 0.946998
O O17 0.087113 0.401695 0.475483
O O18 0.077171 0.522317 0.422869
O O19 0.000000 0.426679 0.382801
O O20 0.000000 0.126423 0.567154
O O21 0.750000 0.000000 0.850306
#
# Coordination Sequence:
#
# PCOD9500720 Si02
#       8
#    16  16  16  16  16  16  16  16
#     4   9  18  32  50  72 103 138 170 206 259 317
#     4  11  19  33  53  75 102 137 172 215 260 309
#     4  10  20  33  51  81 113 136 168 216 270 318
#     4  10  19  33  55  79 104 138 177 222 262 306
#     4  10  21  35  51  75 105 137 177 218 256 309
#     4   9  18  35  55  75 101 136 178 216 250 300
#     4   9  18  33  52  75 104 137 175 211 251 312
#     4  10  18  31  51  76 102 130 174 217 256 304
#
# _framework density 16.15259
#
# number of rings (size 3 to 8) (size 9 to 14) (size 15 to 20)
#    0.000    2.250    3.750    0.750    0.000    2.250 
#    0.000    3.125    0.000    1.125    0.000    0.000 
#    0.000    0.000    0.000    0.000    0.000    0.000 
#
# Total GULP energy -356643.384033 kJ/mol
# GULP energy per Si atom -5572.552876 kJ/mol
# Density = 1.611583 g / cm^3
# Si number density = 16.152590 Si / 1000 Ang^3
#
#
#
# Elastic Constant Matrix: (Units=GPa)
#
#
# Indices 1 2 3 4 5 6 
#
# 1 111.6933 44.0257 79.1088 0.0000 0.0000 0.0000
# 2 44.0257 49.3355 37.2910 0.0000 0.0000 0.0000
# 3 79.1088 37.2910 104.0081 0.0000 0.0000 0.0000
# 4 0.0000 0.0000 0.0000 20.1268 0.0000 0.0000
# 5 0.0000 0.0000 0.0000 0.0000 25.4752 0.0000
# 6 0.0000 0.0000 0.0000 0.0000 0.0000 21.8184
#
#
#
# Elastic Compliance Matrix: (Units=1/GPa)
#
#
# Indices 1 2 3 4 5 6 
#
# 1 0.022370 -0.009742 -0.013522 0.000000 0.000000 0.000000
# 2 -0.009742 0.032047 -0.004081 0.000000 0.000000 0.000000
# 3 -0.013522 -0.004081 0.021362 0.000000 0.000000 0.000000
# 4 0.000000 0.000000 0.000000 0.049685 0.000000 0.000000
# 5 0.000000 0.000000 0.000000 0.000000 0.039254 0.000000
# 6 0.000000 0.000000 0.000000 0.000000 0.000000 0.045833
#
#
# Mechanical properties :
#
#
# Convention : Reuss Voigt Hill
#
# Bulk Modulus (GPa) = 47.41321 65.09864 56.25592
# Shear Modulus (GPa) = 18.36411 20.45817 19.41114
#
# Velocity S-wave (km/s) = 3.37547 3.56273 3.47037
# Velocity P-wave (km/s) = 6.67898 7.57059 7.13872
#
# Compressibility (1/GPa) = 0.02109117
#
# Stress axis : x y z
#
# Youngs Moduli (GPa) = 44.70249 31.20421 46.81101
#
# Poissons Ratio (x) = 0.30398 0.63298
# Poissons Ratio (y) = 0.43548 0.19101
# Poissons Ratio (z) = 0.60447 0.12733
#
# Static dielectric constant tensor:
#      x y z
#    x 1.513700 0.000000 0.000000 
#    y 0.000000 1.535920 0.000000 
#    z 0.000000 0.000000 1.563500 
# 
# From -- ./inp_files/39159.got.cif
#   From: 2010.05.17/outbox.cif.g08.bks.cpg/sg67_20_cif.got.tgz:39159.got - 2010.06.03 18:28:57.
