data_PCOD9500462
_publ_section_title
;
Structure prediction by ZEFSAII (Michael W. Deem and Ramdas Pophale) SiO2 
 PCOD9500462
Probable space group: C M M A
;
_chemical_formula_sum "Si O2"
_cell_formula_units_Z 96
_cell_length_a 17.448769
_cell_length_b 29.073678
_cell_length_c 7.887414
_cell_angle_alpha 90.000000
_cell_angle_beta 90.000000
_cell_angle_gamma 90.000000
_cell_volume 4001.284266
_symmetry_space_group_name_H-M "C M M A"
_symmetry_group_IT_number 67
_symmetry_cell_setting 'orthorhombic'
loop_
_space_group_symop_operation_xyz
x,y,z
-x,1/2-y,z
x,-y,-z
-x,1/2+y,-z
-x,-y,-z
x,1/2+y,-z
-x,y,z
x,1/2-y,z
1/2+x,1/2+y,z
1/2-x,-y,z
1/2+x,1/2-y,-z
1/2-x,y,-z
1/2-x,1/2-y,-z
1/2+x,y,-z
1/2-x,1/2+y,z
1/2+x,-y,z
loop_
_atom_site_type_symbol
_atom_site_label
_atom_site_fract_x
_atom_site_fract_y
_atom_site_fract_z
Si Si1 0.658969 0.886604 0.509541
Si Si2 0.379509 0.803245 0.691667
Si Si3 0.211855 0.298978 0.186299
Si Si4 0.407851 0.059007 0.174039
Si Si5 0.088343 0.031203 0.327478
Si Si6 0.086527 0.857072 0.953957
O O1 0.750000 0.880042 0.500000
O O2 0.609485 0.839801 0.540329
O O3 0.639585 0.914105 0.683435
O O4 0.633396 0.922726 0.367122
O O5 0.405077 0.750000 0.675655
O O6 0.286692 0.802282 0.700325
O O7 0.407020 0.826110 0.870384
O O8 0.172924 0.250000 0.219267
O O9 0.250000 0.297853 0.000000
O O10 0.150031 0.338394 0.173728
O O11 0.500000 0.060955 0.213476
O O12 0.398603 0.090411 0.009122
O O13 0.386303 0.005591 0.186516
O O14 0.000000 0.043335 0.296459
O O15 0.090836 0.000000 0.500000
O O16 0.000000 0.852245 0.892372
#
# Coordination Sequence:
#
# PCOD9500462 Si02
#       6
#    16  16  16  16  16  16
#     4  10  18  26  41  63  83 113 158 195 222 263
#     4   9  18  30  40  56  89 126 155 190 236 273
#     4   8  14  25  40  58  85 120 150 181 228 275
#     4   8  15  27  42  64  94 117 133 171 234 288
#     4   8  14  26  42  60  87 117 139 172 230 286
#     4   9  15  24  43  70  91 111 148 190 226 271
#
# _framework density 23.992296
#
# number of rings (size 3 to 8) (size 9 to 14) (size 15 to 20)
#    0.000    3.333    0.000    3.000    0.000    5.333 
#    0.000    0.000    0.000    2.000    0.000    1.167 
#    0.000   16.000    0.000    5.333    0.000   12.833 
#
# Total GULP energy -267916.220707 kJ/mol
# GULP energy per Si atom -5581.587931 kJ/mol
# Density = 2.393769 g / cm^3
# Si number density = 23.992296 Si / 1000 Ang^3
#
#
#
# Elastic Constant Matrix: (Units=GPa)
#
#
# Indices 1 2 3 4 5 6 
#
# 1 55.8616 29.5839 -1.6967 0.0000 0.0000 0.0000
# 2 29.5839 169.3479 10.8336 0.0000 0.0000 0.0000
# 3 -1.6967 10.8336 59.4093 0.0000 0.0000 0.0000
# 4 0.0000 0.0000 0.0000 16.3980 0.0000 0.0000
# 5 0.0000 0.0000 0.0000 0.0000 11.7660 0.0000
# 6 0.0000 0.0000 0.0000 0.0000 0.0000 -121.2570
#
#
#
# Elastic Compliance Matrix: (Units=1/GPa)
#
#
# Indices 1 2 3 4 5 6 
#
# 1 0.019812 -0.003539 0.001211 0.000000 0.000000 0.000000
# 2 -0.003539 0.006607 -0.001306 0.000000 0.000000 0.000000
# 3 0.001211 -0.001306 0.017105 0.000000 0.000000 0.000000
# 4 0.000000 0.000000 0.000000 0.060983 0.000000 0.000000
# 5 0.000000 0.000000 0.000000 0.000000 0.084990 0.000000
# 6 0.000000 0.000000 0.000000 0.000000 0.000000 -0.008247
#
#
# Mechanical properties :
#
#
# Convention : Reuss Voigt Hill
#
# Bulk Modulus (GPa) = 27.58056 40.22894 33.90475
# Shear Modulus (GPa) = 24.92489 -2.22540 11.34975
#
# Velocity S-wave (km/s) = 3.22665 -0.96414 2.17735
# Velocity P-wave (km/s) = 5.04006 3.94518 4.52585
#
# Compressibility (1/GPa) = 0.03625743
#
# Stress axis : x y z
#
# Youngs Moduli (GPa) = 50.47406 151.36164 58.46208
#
# Poissons Ratio (x) = 0.53560 -0.07080
# Poissons Ratio (y) = 0.17860 0.07634
# Poissons Ratio (z) = -0.06113 0.19765
#
# Static dielectric constant tensor:
#      x y z
#    x 1.839850 0.000000 0.000000 
#    y 0.000000 1.982180 0.000000 
#    z 0.000000 0.000000 1.998720 
# 
# From -- ./inp_files/19794.got.cif
#   From: 2010.05.17/outbox.cif.g08.bks.cpg/sg67_10_cif.got.tgz:19794.got - 2010.06.03 18:28:57.
