data_PCOD9500092
_publ_section_title
;
Structure prediction by ZEFSAII (Michael W. Deem and Ramdas Pophale) SiO2 
 PCOD9500092
Probable space group: C C C M
;
_chemical_formula_sum "Si O2"
_cell_formula_units_Z 32
_cell_length_a 24.000000
_cell_length_b 15.000000
_cell_length_c 9.000000
_cell_angle_alpha 90.000000
_cell_angle_beta 90.000000
_cell_angle_gamma 90.000000
_cell_volume 3240.000000
_symmetry_space_group_name_H-M "C C C M"
_symmetry_group_IT_number 66
_symmetry_cell_setting 'orthorhombic'
loop_
_space_group_symop_operation_xyz
x,y,z
-x,-y,z
x,-y,1/2-z
-x,y,1/2-z
-x,-y,-z
x,y,-z
-x,y,1/2+z
x,-y,1/2+z
1/2+x,1/2+y,z
1/2-x,1/2-y,z
1/2+x,1/2-y,1/2-z
1/2-x,1/2+y,1/2-z
1/2-x,1/2-y,-z
1/2+x,1/2+y,-z
1/2-x,1/2+y,1/2+z
1/2+x,1/2-y,1/2+z
loop_
_atom_site_type_symbol
_atom_site_label
_atom_site_fract_x
_atom_site_fract_y
_atom_site_fract_z
Si Si1 0.771019 0.088569 0.824145
Si Si2 0.050935 0.093344 0.168827
Si Si3 0.850533 0.584331 0.824645
Si Si4 0.654380 0.278996 0.668500
O O1 0.710229 0.091563 0.750736
O O2 0.801178 0.179870 0.780183
O O3 0.798202 0.000000 0.750000
O O4 0.768725 0.076909 0.000000
O O5 0.105689 0.150269 0.171548
O O6 0.000000 0.140829 0.250000
O O7 0.059721 0.000000 0.250000
O O8 0.035452 0.077933 0.000000
O O9 0.879748 0.500000 0.750000
O O10 0.872420 0.683312 0.799195
O O11 0.845244 0.568242 0.000000
O O12 0.678277 0.274369 0.500000
#
# Coordination Sequence:
#
# PCOD9500092 Si02
#       4
#    16  16  16  16
#     4  11  21  32  49  74 104 136 170 206 246 295
#     4  10  20  35  54  77 103 130 160 197 246 298
#     4  10  20  35  52  71 100 135 170 209 250 291
#     4  10  21  35  52  74 101 133 168 207 250 296
#
# _framework density 9.8765429999999999
#
# number of rings (size 3 to 8) (size 9 to 14) (size 15 to 20)
#    0.000    1.750    0.000    7.500    0.000    9.000 
#    0.000    0.000    0.000    0.750    0.000    5.250 
#    0.000    0.000    0.000    0.000    0.000    0.000 
#
# Total GULP energy -178272.522130 kJ/mol
# GULP energy per Si atom -5571.016317 kJ/mol
# Density = 0.985406 g / cm^3
# Si number density = 9.876543 Si / 1000 Ang^3
#
#
#
# Elastic Constant Matrix: (Units=GPa)
#
#
# Indices 1 2 3 4 5 6 
#
# 1 24.1880 4.0895 10.8387 0.0000 0.0000 0.0000
# 2 4.0895 92.0145 45.3342 0.0000 0.0000 0.0000
# 3 10.8387 45.3342 118.1518 0.0000 0.0000 0.0000
# 4 0.0000 0.0000 0.0000 23.8457 0.0000 0.0000
# 5 0.0000 0.0000 0.0000 0.0000 206.0024 0.0000
# 6 0.0000 0.0000 0.0000 0.0000 0.0000 -60.3561
#
#
#
# Elastic Compliance Matrix: (Units=1/GPa)
#
#
# Indices 1 2 3 4 5 6 
#
# 1 0.043115 0.000040 -0.003971 0.000000 0.000000 0.000000
# 2 0.000040 0.013401 -0.005146 0.000000 0.000000 0.000000
# 3 -0.003971 -0.005146 0.010802 0.000000 0.000000 0.000000
# 4 0.000000 0.000000 0.000000 0.041936 0.000000 0.000000
# 5 0.000000 0.000000 0.000000 0.000000 0.004854 0.000000
# 6 0.000000 0.000000 0.000000 0.000000 0.000000 -0.016568
#
#
# Mechanical properties :
#
#
# Convention : Reuss Voigt Hill
#
# Bulk Modulus (GPa) = 20.33910 39.43100 29.88505
# Shear Modulus (GPa) = 37.85523 45.50452 41.67987
#
# Velocity S-wave (km/s) = 4.38244 4.80486 4.59850
# Velocity P-wave (km/s) = 5.99389 7.12654 6.58461
#
# Compressibility (1/GPa) = 0.04916639
#
# Stress axis : x y z
#
# Youngs Moduli (GPa) = 23.19368 74.61981 92.57297
#
# Poissons Ratio (x) = -0.00299 0.36756
# Poissons Ratio (y) = -0.00093 0.47635
# Poissons Ratio (z) = 0.09209 0.38397
#
# Static dielectric constant tensor:
#      x y z
#    x 1.692450 0.000000 0.000000 
#    y 0.000000 1.818730 0.000000 
#    z 0.000000 0.000000 1.696740 
# 
# From -- ./inp_files/5065.got.cif
#   From: 2010.05.17/outbox.ucp.g08.bks.cvg/sg66_3_cif.got.tgz:5065.got - 2010.06.11 16:44:13.
