data_PCOD9500217
_publ_section_title
;
Structure prediction by ZEFSAII (Michael W. Deem and Ramdas Pophale) SiO2 
 PCOD9500217
Probable space group: C M M A
;
_chemical_formula_sum "Si O2"
_cell_formula_units_Z 92
_cell_length_a 26.414299
_cell_length_b 21.967708
_cell_length_c 8.042210
_cell_angle_alpha 90.000000
_cell_angle_beta 90.000000
_cell_angle_gamma 90.000000
_cell_volume 4666.585702
_symmetry_space_group_name_H-M "C M M A"
_symmetry_group_IT_number 67
_symmetry_cell_setting 'orthorhombic'
loop_
_space_group_symop_operation_xyz
x,y,z
-x,1/2-y,z
x,-y,-z
-x,1/2+y,-z
-x,-y,-z
x,1/2+y,-z
-x,y,z
x,1/2-y,z
1/2+x,1/2+y,z
1/2-x,-y,z
1/2+x,1/2-y,-z
1/2-x,y,-z
1/2-x,1/2-y,-z
1/2+x,y,-z
1/2-x,1/2+y,z
1/2+x,-y,z
loop_
_atom_site_type_symbol
_atom_site_label
_atom_site_fract_x
_atom_site_fract_y
_atom_site_fract_z
Si Si1 0.000000 0.817555 0.119507
Si Si2 0.156514 0.436775 0.345761
Si Si3 0.610438 0.316311 0.165577
Si Si4 0.609522 0.055979 0.291216
Si Si5 0.500000 0.988345 0.801884
Si Si6 0.000000 0.127443 0.235473
Si Si7 0.392173 0.317999 0.765598
Si Si8 0.250000 0.500000 0.500000
O O1 0.051558 0.819693 0.221696
O O2 0.000000 0.750000 0.036314
O O3 0.000000 0.864656 0.967176
O O4 0.134621 0.491987 0.234163
O O5 0.123142 0.438254 0.514764
O O6 0.148264 0.369703 0.277925
O O7 0.212834 0.457195 0.393720
O O8 0.631429 0.250000 0.219726
O O9 0.631951 0.381704 0.215668
O O10 0.607271 0.315107 0.965943
O O11 0.550521 0.046729 0.252283
O O12 0.500000 0.056159 0.722920
O O13 0.500000 0.000000 0.000000
O O14 0.052132 0.159071 0.290265
O O15 0.382042 0.250000 0.701691
#
# Coordination Sequence:
#
# PCOD9500217 Si02
#       8
#     8  16  16  16   8   8  16   4
#     4   8  14  26  41  64 101 148 186 203 239 302
#     4  10  22  39  59  79 102 145 184 244 285 333
#     4   9  17  30  50  75 110 149 184 224 264 317
#     4  10  21  33  49  79 111 145 187 223 269 327
#     4  12  20  28  49  80 114 152 185 218 262 331
#     4  10  16  27  44  72 116 151 178 210 255 303
#     4  10  19  33  54  84 115 150 189 220 266 333
#     4   8  20  44  62  72 104 136 188 236 308 342
#
# _framework density 19.714627
#
# number of rings (size 3 to 8) (size 9 to 14) (size 15 to 20)
#    0.000    2.435    1.739    4.435    0.000    2.783 
#    0.000    0.435    0.000   11.478    0.000    9.739 
#    0.000    0.000    0.000    0.000    0.000    0.000 
#
# Total GULP energy -256226.549935 kJ/mol
# GULP energy per Si atom -5570.142390 kJ/mol
# Density = 1.966976 g / cm^3
# Si number density = 19.714627 Si / 1000 Ang^3
#
#
#
# Elastic Constant Matrix: (Units=GPa)
#
#
# Indices 1 2 3 4 5 6 
#
# 1 92.1890 47.5508 17.1832 0.0000 0.0000 0.0000
# 2 47.5508 229.4976 20.7949 0.0000 0.0000 0.0000
# 3 17.1832 20.7949 24.9688 0.0000 0.0000 0.0000
# 4 0.0000 0.0000 0.0000 20.7114 0.0000 0.0000
# 5 0.0000 0.0000 0.0000 0.0000 -4.3394 0.0000
# 6 0.0000 0.0000 0.0000 0.0000 0.0000 -0.8924
#
#
#
# Elastic Compliance Matrix: (Units=1/GPa)
#
#
# Indices 1 2 3 4 5 6 
#
# 1 0.013306 -0.002084 -0.007421 0.000000 0.000000 0.000000
# 2 -0.002084 0.005040 -0.002763 0.000000 0.000000 0.000000
# 3 -0.007421 -0.002763 0.047458 0.000000 0.000000 0.000000
# 4 0.000000 0.000000 0.000000 0.048283 0.000000 0.000000
# 5 0.000000 0.000000 0.000000 0.000000 -0.230448 0.000000
# 6 0.000000 0.000000 0.000000 0.000000 0.000000 -1.120572
#
#
# Mechanical properties :
#
#
# Convention : Reuss Voigt Hill
#
# Bulk Modulus (GPa) = 24.23230 57.52371 40.87801
# Shear Modulus (GPa) = -4.17138 20.50435 8.16648
#
# Velocity S-wave (km/s) = -1.45619 3.22849 2.03748
# Velocity P-wave (km/s) = 3.08073 6.56803 5.12981
#
# Compressibility (1/GPa) = 0.04126723
#
# Stress axis : x y z
#
# Youngs Moduli (GPa) = 75.15629 198.43008 21.07136
#
# Poissons Ratio (x) = 0.41362 0.15637
# Poissons Ratio (y) = 0.15666 0.05821
# Poissons Ratio (z) = 0.55772 0.54819
#
# Static dielectric constant tensor:
#      x y z
#    x 1.684590 0.000000 0.000000 
#    y 0.000000 1.794630 0.000000 
#    z 0.000000 0.000000 1.735960 
# 
# From -- ./inp_files/13792.got.cif
#   From: 2010.05.17/outbox.cif.g08.bks.cpg/sg67_7_cif.got.tgz:13792.got - 2010.06.03 18:28:57.
