data_PCOD9500991
_publ_section_title
;
Structure prediction by ZEFSAII (Michael W. Deem and Ramdas Pophale) SiO2 
 PCOD9500991
Probable space group: C M M A
;
_chemical_formula_sum "Si O2"
_cell_formula_units_Z 88
_cell_length_a 14.666714
_cell_length_b 24.797539
_cell_length_c 12.039139
_cell_angle_alpha 90.000000
_cell_angle_beta 90.000000
_cell_angle_gamma 90.000000
_cell_volume 4378.615741
_symmetry_space_group_name_H-M "C M M A"
_symmetry_group_IT_number 67
_symmetry_cell_setting 'orthorhombic'
loop_
_space_group_symop_operation_xyz
x,y,z
-x,1/2-y,z
x,-y,-z
-x,1/2+y,-z
-x,-y,-z
x,1/2+y,-z
-x,y,z
x,1/2-y,z
1/2+x,1/2+y,z
1/2-x,-y,z
1/2+x,1/2-y,-z
1/2-x,y,-z
1/2-x,1/2-y,-z
1/2+x,y,-z
1/2-x,1/2+y,z
1/2+x,-y,z
loop_
_atom_site_type_symbol
_atom_site_label
_atom_site_fract_x
_atom_site_fract_y
_atom_site_fract_z
Si Si1 0.500000 0.188523 0.737752
Si Si2 0.500000 0.141307 0.970642
Si Si3 0.639681 0.884335 0.388270
Si Si4 0.143913 0.883721 0.352706
Si Si5 0.350989 0.994728 0.309577
Si Si6 0.848009 0.448354 0.060073
Si Si7 0.000000 0.814581 0.219811
O O1 0.500000 0.250000 0.702094
O O2 0.500000 0.183259 0.870159
O O3 0.585260 0.156553 0.687806
O O4 0.412140 0.102785 0.953582
O O5 0.500000 0.167950 0.091038
O O6 0.745525 0.881977 0.348957
O O7 0.626212 0.872134 0.517691
O O8 0.604119 0.945658 0.374230
O O9 0.088530 0.841587 0.278312
O O10 0.113234 0.944417 0.316023
O O11 0.340010 0.969309 0.186342
O O12 0.250000 0.000000 0.360120
O O13 0.890999 0.500000 0.000000
O O14 0.750000 0.439397 0.000000
O O15 0.000000 0.750000 0.231210
#
# Coordination Sequence:
#
# PCOD9500991 Si02
#       7
#     8   8  16  16  16  16   8
#     4  12  26  44  65  91 123 169 223 275 313 363
#     4  12  26  42  63  89 123 168 218 261 320 376
#     4  10  22  42  67  97 131 167 206 258 318 383
#     4  10  23  42  67  97 129 168 209 255 320 381
#     4  10  18  36  65  99 133 161 198 250 317 385
#     4  11  21  36  61  95 131 168 202 249 312 385
#     4  12  28  46  64  87 125 171 221 273 316 367
#
# _framework density 20.097676
#
# number of rings (size 3 to 8) (size 9 to 14) (size 15 to 20)
#    0.000    1.273    3.636    2.727    2.545    5.818 
#    0.000    3.636    0.000    3.273    0.000    0.000 
#    0.000    0.000    0.000    0.000    0.000    0.000 
#
# Total GULP energy -245638.194941 kJ/mol
# GULP energy per Si atom -5582.686249 kJ/mol
# Density = 2.005193 g / cm^3
# Si number density = 20.097676 Si / 1000 Ang^3
#
#
#
# Elastic Constant Matrix: (Units=GPa)
#
#
# Indices 1 2 3 4 5 6 
#
# 1 106.1597 53.1187 47.3647 0.0000 0.0000 0.0000
# 2 53.1187 166.7374 55.8603 0.0000 0.0000 0.0000
# 3 47.3647 55.8603 147.4013 0.0000 0.0000 0.0000
# 4 0.0000 0.0000 0.0000 -8.6737 0.0000 0.0000
# 5 0.0000 0.0000 0.0000 0.0000 18.6085 0.0000
# 6 0.0000 0.0000 0.0000 0.0000 0.0000 25.2934
#
#
#
# Elastic Compliance Matrix: (Units=1/GPa)
#
#
# Indices 1 2 3 4 5 6 
#
# 1 0.012130 -0.002930 -0.002787 0.000000 0.000000 0.000000
# 2 -0.002930 0.007578 -0.001930 0.000000 0.000000 0.000000
# 3 -0.002787 -0.001930 0.008411 0.000000 0.000000 0.000000
# 4 0.000000 0.000000 0.000000 -0.115291 0.000000 0.000000
# 5 0.000000 0.000000 0.000000 0.000000 0.053739 0.000000
# 6 0.000000 0.000000 0.000000 0.000000 0.000000 0.039536
#
#
# Mechanical properties :
#
#
# Convention : Reuss Voigt Hill
#
# Bulk Modulus (GPa) = 77.98323 81.44287 79.71305
# Shear Modulus (GPa) = 194.76709 24.64262 109.70485
#
# Velocity S-wave (km/s) = 9.85498 3.50543 7.39624
# Velocity P-wave (km/s) = 12.97615 7.54954 10.61546
#
# Compressibility (1/GPa) = 0.01282327
#
# Stress axis : x y z
#
# Youngs Moduli (GPa) = 82.44318 131.96738 118.88935
#
# Poissons Ratio (x) = 0.38673 0.33135
# Poissons Ratio (y) = 0.24160 0.22946
# Poissons Ratio (z) = 0.22977 0.25470
#
# Static dielectric constant tensor:
#      x y z
#    x 1.703260 0.000000 0.000000 
#    y 0.000000 1.683790 0.000000 
#    z 0.000000 0.000000 1.762300 
# 
# From -- ./inp_files/18144.got.cif
#   From: 2010.05.17/outbox.cif.g08.bks.cpg/sg67_10_cif.got.tgz:18144.got - 2010.06.03 18:28:57.
