data_PCOD9500409
_publ_section_title
;
Structure prediction by ZEFSAII (Michael W. Deem and Ramdas Pophale) SiO2 
 PCOD9500409
Probable space group: C M M A
;
_chemical_formula_sum "Si O2"
_cell_formula_units_Z 88
_cell_length_a 21.575633
_cell_length_b 10.445301
_cell_length_c 21.900923
_cell_angle_alpha 90.000000
_cell_angle_beta 90.000000
_cell_angle_gamma 90.000000
_cell_volume 4935.679194
_symmetry_space_group_name_H-M "C M M A"
_symmetry_group_IT_number 67
_symmetry_cell_setting 'orthorhombic'
loop_
_space_group_symop_operation_xyz
x,y,z
-x,1/2-y,z
x,-y,-z
-x,1/2+y,-z
-x,-y,-z
x,1/2+y,-z
-x,y,z
x,1/2-y,z
1/2+x,1/2+y,z
1/2-x,-y,z
1/2+x,1/2-y,-z
1/2-x,y,-z
1/2-x,1/2-y,-z
1/2+x,y,-z
1/2-x,1/2+y,z
1/2+x,-y,z
loop_
_atom_site_type_symbol
_atom_site_label
_atom_site_fract_x
_atom_site_fract_y
_atom_site_fract_z
Si Si1 0.368288 0.750000 0.709967
Si Si2 0.326705 0.750000 0.143797
Si Si3 0.428294 0.506451 0.343326
Si Si4 0.825086 0.502566 0.069742
Si Si5 0.665638 0.398276 0.553150
Si Si6 0.382325 0.250000 0.723846
Si Si7 0.676376 0.250000 0.150185
Si Si8 0.239603 0.750000 0.638855
O O1 0.403887 0.622990 0.688114
O O2 0.353327 0.750000 0.782393
O O3 0.303172 0.750000 0.673763
O O4 0.342764 0.625110 0.105125
O O5 0.363475 0.750000 0.206395
O O6 0.251957 0.750000 0.156388
O O7 0.500000 0.493454 0.360101
O O8 0.386962 0.546454 0.401733
O O9 0.418641 0.623847 0.296572
O O10 0.750000 0.500000 0.066446
O O11 0.841345 0.626073 0.110087
O O12 0.848014 0.500000 0.000000
O O13 0.673952 0.500000 0.500000
O O14 0.649123 0.250000 0.532987
O O15 0.726432 0.369016 0.594146
O O16 0.317501 0.250000 0.686143
#
# Coordination Sequence:
#
# PCOD9500409 Si02
#       8
#     8   8  16  16  16   8   8   8
#     4  12  23  38  60  83 123 157 196 232 284 355
#     4  10  17  29  49  80 105 149 194 221 277 350
#     4  11  24  41  60  85 116 152 192 244 296 336
#     4   9  17  28  44  71 114 156 187 225 275 334
#     4   9  21  42  67  93 113 148 191 237 292 344
#     4  10  19  37  60  83 114 147 188 242 284 343
#     4  10  19  31  50  79 114 152 191 235 272 345
#     4   8  20  39  59  89 115 146 181 228 291 335
#
# _framework density 17.829360000000001
#
# number of rings (size 3 to 8) (size 9 to 14) (size 15 to 20)
#    0.545    1.636    1.818    2.182    1.273    5.455 
#    0.000    2.727    2.000    0.000    0.000    0.000 
#    0.000   50.909    0.000    0.000    0.000    0.000 
#
# Total GULP energy -245376.803978 kJ/mol
# GULP energy per Si atom -5576.745545 kJ/mol
# Density = 1.778878 g / cm^3
# Si number density = 17.829360 Si / 1000 Ang^3
#
#
#
# Elastic Constant Matrix: (Units=GPa)
#
#
# Indices 1 2 3 4 5 6 
#
# 1 54.4616 37.0973 33.8068 0.0000 0.0000 0.0000
# 2 37.0973 184.3024 88.4513 0.0000 0.0000 0.0000
# 3 33.8068 88.4513 162.0219 0.0000 0.0000 0.0000
# 4 0.0000 0.0000 0.0000 23.7328 0.0000 0.0000
# 5 0.0000 0.0000 0.0000 0.0000 11.6476 0.0000
# 6 0.0000 0.0000 0.0000 0.0000 0.0000 10.7337
#
#
#
# Elastic Compliance Matrix: (Units=1/GPa)
#
#
# Indices 1 2 3 4 5 6 
#
# 1 0.022295 -0.003056 -0.002984 0.000000 0.000000 0.000000
# 2 -0.003056 0.007771 -0.003605 0.000000 0.000000 0.000000
# 3 -0.002984 -0.003605 0.008763 0.000000 0.000000 0.000000
# 4 0.000000 0.000000 0.000000 0.042136 0.000000 0.000000
# 5 0.000000 0.000000 0.000000 0.000000 0.085855 0.000000
# 6 0.000000 0.000000 0.000000 0.000000 0.000000 0.093164
#
#
# Mechanical properties :
#
#
# Convention : Reuss Voigt Hill
#
# Bulk Modulus (GPa) = 51.17678 79.94407 65.56042
# Shear Modulus (GPa) = 17.49564 25.31818 21.40691
#
# Velocity S-wave (km/s) = 3.13594 3.77241 3.46881
# Velocity P-wave (km/s) = 6.47133 7.99441 7.27285
#
# Compressibility (1/GPa) = 0.01954011
#
# Stress axis : x y z
#
# Youngs Moduli (GPa) = 44.85269 128.68483 114.12250
#
# Poissons Ratio (x) = 0.39322 0.34053
# Poissons Ratio (y) = 0.13705 0.41138
# Poissons Ratio (z) = 0.13384 0.46387
#
# Static dielectric constant tensor:
#      x y z
#    x 1.580020 0.000000 0.000000 
#    y 0.000000 1.626240 0.000000 
#    z 0.000000 0.000000 1.611880 
# 
# From -- ./inp_files/39652.got.cif
#   From: 2010.05.17/outbox.cif.g08.bks.cpg/sg67_20_cif.got.tgz:39652.got - 2010.06.03 18:28:57.
