data_PCOD9500637
_publ_section_title
;
Structure prediction by ZEFSAII (Michael W. Deem and Ramdas Pophale) SiO2 
 PCOD9500637
Probable space group: C M M A
;
_chemical_formula_sum "Si O2"
_cell_formula_units_Z 116
_cell_length_a 29.059684
_cell_length_b 26.132071
_cell_length_c 9.771205
_cell_angle_alpha 90.000000
_cell_angle_beta 90.000000
_cell_angle_gamma 90.000000
_cell_volume 7420.152683
_symmetry_space_group_name_H-M "C M M A"
_symmetry_group_IT_number 67
_symmetry_cell_setting 'orthorhombic'
loop_
_space_group_symop_operation_xyz
x,y,z
-x,1/2-y,z
x,-y,-z
-x,1/2+y,-z
-x,-y,-z
x,1/2+y,-z
-x,y,z
x,1/2-y,z
1/2+x,1/2+y,z
1/2-x,-y,z
1/2+x,1/2-y,-z
1/2-x,y,-z
1/2-x,1/2-y,-z
1/2+x,y,-z
1/2-x,1/2+y,z
1/2+x,-y,z
loop_
_atom_site_type_symbol
_atom_site_label
_atom_site_fract_x
_atom_site_fract_y
_atom_site_fract_z
Si Si1 0.729075 0.377957 0.136787
Si Si2 0.807036 0.444942 0.270375
Si Si3 0.750000 0.500000 0.500000
Si Si4 0.350792 0.447811 0.221614
Si Si5 0.793003 0.189488 0.601306
Si Si6 0.446532 0.447899 0.581710
Si Si7 0.447786 0.485741 0.159250
Si Si8 0.639198 0.391553 0.505778
O O1 0.769155 0.418066 0.177901
O O2 0.681603 0.410682 0.131990
O O3 0.720451 0.337192 0.256163
O O4 0.750000 0.353830 0.000000
O O5 0.779407 0.465718 0.400391
O O6 0.832331 0.494123 0.207202
O O7 0.841241 0.406034 0.344718
O O8 0.404898 0.448405 0.187661
O O9 0.345944 0.429563 0.380160
O O10 0.799451 0.250000 0.614777
O O11 0.750000 0.179645 0.500000
O O12 0.838265 0.161544 0.540988
O O13 0.433373 0.500000 0.500000
O O14 0.500000 0.437787 0.556697
O O15 0.440896 0.465436 0.739771
O O16 0.414664 0.402554 0.527318
O O17 0.500000 0.466717 0.190661
O O18 0.446371 0.500000 0.000000
#
# Coordination Sequence:
#
# PCOD9500637 Si02
#       8
#    16  16   4  16  16  16  16  16
#     4  11  24  34  47  76 105 135 171 211 258 313
#     4  12  18  28  44  71 105 137 167 199 241 301
#     4  12  16  28  42  60 100 140 174 192 232 280
#     4  11  20  29  47  70 105 138 168 202 246 291
#     4  10  21  39  58  72  93 129 176 224 268 315
#     4  10  18  30  49  74 103 137 173 202 240 298
#     4  10  21  33  44  65 101 145 178 201 233 283
#     4  11  18  31  52  77  95 132 172 216 253 298
#
# _framework density 15.633101
#
# number of rings (size 3 to 8) (size 9 to 14) (size 15 to 20)
#    0.000    1.241    6.897    0.828    1.931    0.828 
#    0.000    0.000    0.000    0.414    0.000    0.000 
#    0.000    0.000    0.000    0.000    0.000    0.000 
#
# Total GULP energy -323121.772128 kJ/mol
# GULP energy per Si atom -5571.065037 kJ/mol
# Density = 1.559752 g / cm^3
# Si number density = 15.633101 Si / 1000 Ang^3
#
#
#
# Elastic Constant Matrix: (Units=GPa)
#
#
# Indices 1 2 3 4 5 6 
#
# 1 109.7377 44.0138 27.0721 0.0000 0.0000 0.0000
# 2 44.0138 74.2929 27.5118 0.0000 0.0000 0.0000
# 3 27.0721 27.5118 66.2819 0.0000 0.0000 0.0000
# 4 0.0000 0.0000 0.0000 5.9059 0.0000 0.0000
# 5 0.0000 0.0000 0.0000 0.0000 17.9930 0.0000
# 6 0.0000 0.0000 0.0000 0.0000 0.0000 14.6002
#
#
#
# Elastic Compliance Matrix: (Units=1/GPa)
#
#
# Indices 1 2 3 4 5 6 
#
# 1 0.012256 -0.006389 -0.002354 0.000000 0.000000 0.000000
# 2 -0.006389 0.019236 -0.005375 0.000000 0.000000 0.000000
# 3 -0.002354 -0.005375 0.018279 0.000000 0.000000 0.000000
# 4 0.000000 0.000000 0.000000 0.169322 0.000000 0.000000
# 5 0.000000 0.000000 0.000000 0.000000 0.055577 0.000000
# 6 0.000000 0.000000 0.000000 0.000000 0.000000 0.068492
#
#
# Mechanical properties :
#
#
# Convention : Reuss Voigt Hill
#
# Bulk Modulus (GPa) = 46.43452 49.72308 48.07880
# Shear Modulus (GPa) = 13.20739 17.81415 15.51077
#
# Velocity S-wave (km/s) = 2.90976 3.37933 3.15330
# Velocity P-wave (km/s) = 6.40750 6.86308 6.63920
#
# Compressibility (1/GPa) = 0.02153570
#
# Stress axis : x y z
#
# Youngs Moduli (GPa) = 81.59331 51.98655 54.70663
#
# Poissons Ratio (x) = 0.33215 0.12877
# Poissons Ratio (y) = 0.52132 0.29403
# Poissons Ratio (z) = 0.19205 0.27941
#
# Static dielectric constant tensor:
#      x y z
#    x 1.624030 0.000000 0.000000 
#    y 0.000000 1.506720 0.000000 
#    z 0.000000 0.000000 1.551530 
# 
# From -- ./inp_files/14853.got.cif
#   From: 2010.05.17/outbox.cif.g08.bks.cpg/sg67_8_cif.got.tgz:14853.got - 2010.06.03 18:28:57.
