data_PCOD9500915
_publ_section_title
;
Structure prediction by ZEFSAII (Michael W. Deem and Ramdas Pophale) SiO2 
 PCOD9500915
Probable space group: C M M A
;
_chemical_formula_sum "Si O2"
_cell_formula_units_Z 68
_cell_length_a 17.611735
_cell_length_b 16.282201
_cell_length_c 12.124479
_cell_angle_alpha 90.000000
_cell_angle_beta 90.000000
_cell_angle_gamma 90.000000
_cell_volume 3476.789036
_symmetry_space_group_name_H-M "C M M A"
_symmetry_group_IT_number 67
_symmetry_cell_setting 'orthorhombic'
loop_
_space_group_symop_operation_xyz
x,y,z
-x,1/2-y,z
x,-y,-z
-x,1/2+y,-z
-x,-y,-z
x,1/2+y,-z
-x,y,z
x,1/2-y,z
1/2+x,1/2+y,z
1/2-x,-y,z
1/2+x,1/2-y,-z
1/2-x,y,-z
1/2-x,1/2-y,-z
1/2+x,y,-z
1/2-x,1/2+y,z
1/2+x,-y,z
loop_
_atom_site_type_symbol
_atom_site_label
_atom_site_fract_x
_atom_site_fract_y
_atom_site_fract_z
Si Si1 0.089837 0.347972 0.485074
Si Si2 0.265771 0.098627 0.877338
Si Si3 0.129197 0.614107 0.277938
Si Si4 0.500000 0.750000 0.764126
Si Si5 0.412048 0.575222 0.247353
O O1 0.098775 0.250000 0.475922
O O2 0.136509 0.379425 0.589620
O O3 0.106185 0.390590 0.369302
O O4 0.000000 0.363296 0.510286
O O5 0.206909 0.131042 0.786761
O O6 0.351913 0.111443 0.838713
O O7 0.250000 0.000000 0.879583
O O8 0.250000 0.130348 0.000000
O O9 0.066175 0.678938 0.242673
O O10 0.100780 0.522505 0.249992
O O11 0.500000 0.594292 0.223226
#
# Coordination Sequence:
#
# PCOD9500915 Si02
#       5
#    16  16  16   4  16
#     4  10  18  33  56  87 125 155 191 241 294 358
#     4   9  21  41  59  85 118 154 203 255 294 343
#     4  11  19  36  61  88 124 154 199 243 294 353
#     4  12  20  36  60  96 122 160 194 240 302 352
#     4  10  20  36  62  89 118 159 196 239 298 361
#
# _framework density 19.558278000000001
#
# number of rings (size 3 to 8) (size 9 to 14) (size 15 to 20)
#    0.000    1.882    3.529    0.706    0.000    2.824 
#    4.235    7.647    0.000    0.000    0.000    0.000 
#    0.000    0.000    0.000    0.000    0.000    0.000 
#
# Total GULP energy -189298.886590 kJ/mol
# GULP energy per Si atom -5567.614311 kJ/mol
# Density = 1.951376 g / cm^3
# Si number density = 19.558278 Si / 1000 Ang^3
#
#
#
# Elastic Constant Matrix: (Units=GPa)
#
#
# Indices 1 2 3 4 5 6 
#
# 1 142.5625 26.9335 98.5723 0.0000 0.0000 0.0000
# 2 26.9335 29.3021 34.0344 0.0000 0.0000 0.0000
# 3 98.5723 34.0344 137.4108 0.0000 0.0000 0.0000
# 4 0.0000 0.0000 0.0000 -12.5661 0.0000 0.0000
# 5 0.0000 0.0000 0.0000 0.0000 13.9261 0.0000
# 6 0.0000 0.0000 0.0000 0.0000 0.0000 12.0448
#
#
#
# Elastic Compliance Matrix: (Units=1/GPa)
#
#
# Indices 1 2 3 4 5 6 
#
# 1 0.013977 -0.001687 -0.009609 0.000000 0.000000 0.000000
# 2 -0.001687 0.048114 -0.010707 0.000000 0.000000 0.000000
# 3 -0.009609 -0.010707 0.016822 0.000000 0.000000 0.000000
# 4 0.000000 0.000000 0.000000 -0.079579 0.000000 0.000000
# 5 0.000000 0.000000 0.000000 0.000000 0.071808 0.000000
# 6 0.000000 0.000000 0.000000 0.000000 0.000000 0.083024
#
#
# Mechanical properties :
#
#
# Convention : Reuss Voigt Hill
#
# Bulk Modulus (GPa) = 28.64653 69.81730 49.23192
# Shear Modulus (GPa) = 23.83160 12.66330 18.24745
#
# Velocity S-wave (km/s) = 3.49448 2.54729 3.05778
# Velocity P-wave (km/s) = 5.56421 6.66530 6.13948
#
# Compressibility (1/GPa) = 0.03490824
#
# Stress axis : x y z
#
# Youngs Moduli (GPa) = 71.54716 20.78402 59.44542
#
# Poissons Ratio (x) = 0.03506 0.57118
# Poissons Ratio (y) = 0.12068 0.63649
# Poissons Ratio (z) = 0.68747 0.22254
#
# Static dielectric constant tensor:
#      x y z
#    x 1.679460 0.000000 0.000000 
#    y 0.000000 1.671570 0.000000 
#    z 0.000000 0.000000 1.691870 
# 
# From -- ./inp_files/19134.got.cif
#   From: 2010.05.17/outbox.cif.g08.bks.cpg/sg67_10_cif.got.tgz:19134.got - 2010.06.03 18:28:57.
