data_PCOD9500206
_publ_section_title
;
Structure prediction by ZEFSAII (Michael W. Deem and Ramdas Pophale) SiO2 
 PCOD9500206
Probable space group: C M M A
;
_chemical_formula_sum "Si O2"
_cell_formula_units_Z 96
_cell_length_a 22.077026
_cell_length_b 22.976063
_cell_length_c 10.595724
_cell_angle_alpha 90.000000
_cell_angle_beta 90.000000
_cell_angle_gamma 90.000000
_cell_volume 5374.608315
_symmetry_space_group_name_H-M "C M M A"
_symmetry_group_IT_number 67
_symmetry_cell_setting 'orthorhombic'
loop_
_space_group_symop_operation_xyz
x,y,z
-x,1/2-y,z
x,-y,-z
-x,1/2+y,-z
-x,-y,-z
x,1/2+y,-z
-x,y,z
x,1/2-y,z
1/2+x,1/2+y,z
1/2-x,-y,z
1/2+x,1/2-y,-z
1/2-x,y,-z
1/2-x,1/2-y,-z
1/2+x,y,-z
1/2-x,1/2+y,z
1/2+x,-y,z
loop_
_atom_site_type_symbol
_atom_site_label
_atom_site_fract_x
_atom_site_fract_y
_atom_site_fract_z
Si Si1 0.656243 0.107611 0.422142
Si Si2 0.429549 0.401151 0.823774
Si Si3 0.314090 0.934856 0.056070
Si Si4 0.933452 0.016293 0.649651
Si Si5 0.774857 0.435534 0.341811
Si Si6 0.429721 0.180908 0.586305
O O1 0.618025 0.064160 0.335290
O O2 0.721758 0.112670 0.356863
O O3 0.675680 0.076338 0.552568
O O4 0.614257 0.158992 0.474301
O O5 0.500000 0.394380 0.864865
O O6 0.380238 0.404017 0.937134
O O7 0.427233 0.461255 0.741790
O O8 0.415842 0.351150 0.719402
O O9 0.299973 0.936495 0.203568
O O10 0.250000 0.910876 0.000000
O O11 0.320990 0.000000 0.000000
O O12 0.000000 0.041702 0.673287
O O13 0.932518 0.000000 0.500000
O O14 0.750000 0.500000 0.364029
O O15 0.500000 0.165105 0.557118
O O16 0.425218 0.250000 0.600565
#
# Coordination Sequence:
#
# PCOD9500206 Si02
#       6
#    16  16  16  16  16  16
#     4  11  19  29  52  74 112 141 174 214 258 339
#     4  10  20  34  51  74 107 141 181 226 271 327
#     4  11  21  33  52  73 107 144 173 218 269 330
#     4  10  16  24  45  74 103 133 163 204 259 322
#     4  11  20  31  46  80 108 147 177 205 268 337
#     4  10  20  34  54  80 110 146 186 227 271 321
#
# _framework density 17.861765999999999
#
# number of rings (size 3 to 8) (size 9 to 14) (size 15 to 20)
#    0.000    1.500    5.000    3.500    0.000    0.333 
#    0.000    1.667    0.000    0.500    0.000    0.000 
#    0.000    2.667    0.000    0.000    0.000    0.000 
#
# Total GULP energy -267243.169345 kJ/mol
# GULP energy per Si atom -5567.566028 kJ/mol
# Density = 1.782111 g / cm^3
# Si number density = 17.861766 Si / 1000 Ang^3
#
#
#
# Elastic Constant Matrix: (Units=GPa)
#
#
# Indices 1 2 3 4 5 6 
#
# 1 127.8510 27.7925 19.4235 0.0000 0.0000 0.0000
# 2 27.7925 54.1212 3.0862 0.0000 0.0000 0.0000
# 3 19.4235 3.0862 37.1175 0.0000 0.0000 0.0000
# 4 0.0000 0.0000 0.0000 9.5716 0.0000 0.0000
# 5 0.0000 0.0000 0.0000 0.0000 28.6583 0.0000
# 6 0.0000 0.0000 0.0000 0.0000 0.0000 14.2403
#
#
#
# Elastic Compliance Matrix: (Units=1/GPa)
#
#
# Indices 1 2 3 4 5 6 
#
# 1 0.009527 -0.004630 -0.004600 0.000000 0.000000 0.000000
# 2 -0.004630 0.020815 0.000692 0.000000 0.000000 0.000000
# 3 -0.004600 0.000692 0.029291 0.000000 0.000000 0.000000
# 4 0.000000 0.000000 0.000000 0.104476 0.000000 0.000000
# 5 0.000000 0.000000 0.000000 0.000000 0.034894 0.000000
# 6 0.000000 0.000000 0.000000 0.000000 0.000000 0.070223
#
#
# Mechanical properties :
#
#
# Convention : Reuss Voigt Hill
#
# Bulk Modulus (GPa) = 23.49799 35.52158 29.50978
# Shear Modulus (GPa) = 16.63955 21.74654 19.19304
#
# Velocity S-wave (km/s) = 3.05548 3.49304 3.28156
# Velocity P-wave (km/s) = 5.06280 6.01652 5.56015
#
# Compressibility (1/GPa) = 0.04255684
#
# Stress axis : x y z
#
# Youngs Moduli (GPa) = 104.96481 48.04178 34.13981
#
# Poissons Ratio (x) = 0.22243 0.15706
# Poissons Ratio (y) = 0.48599 -0.02363
# Poissons Ratio (z) = 0.48289 -0.03325
#
# Static dielectric constant tensor:
#      x y z
#    x 1.765250 0.000000 0.000000 
#    y 0.000000 1.595760 0.000000 
#    z 0.000000 0.000000 1.614400 
# 
# From -- ./inp_files/22067.got.cif
#   From: 2010.05.17/outbox.cif.g08.bks.cpg/sg67_12_cif.got.tgz:22067.got - 2010.06.03 18:28:57.
