data_PCOD9500414
_publ_section_title
;
Structure prediction by ZEFSAII (Michael W. Deem and Ramdas Pophale) SiO2 
 PCOD9500414
Probable space group: C M M A
;
_chemical_formula_sum "Si O2"
_cell_formula_units_Z 104
_cell_length_a 27.541609
_cell_length_b 8.939988
_cell_length_c 20.976325
_cell_angle_alpha 90.000000
_cell_angle_beta 90.000000
_cell_angle_gamma 90.000000
_cell_volume 5164.825436
_symmetry_space_group_name_H-M "C M M A"
_symmetry_group_IT_number 67
_symmetry_cell_setting 'orthorhombic'
loop_
_space_group_symop_operation_xyz
x,y,z
-x,1/2-y,z
x,-y,-z
-x,1/2+y,-z
-x,-y,-z
x,1/2+y,-z
-x,y,z
x,1/2-y,z
1/2+x,1/2+y,z
1/2-x,-y,z
1/2+x,1/2-y,-z
1/2-x,y,-z
1/2-x,1/2-y,-z
1/2+x,y,-z
1/2-x,1/2+y,z
1/2+x,-y,z
loop_
_atom_site_type_symbol
_atom_site_label
_atom_site_fract_x
_atom_site_fract_y
_atom_site_fract_z
Si Si1 0.398635 0.929082 0.069935
Si Si2 0.798703 0.430898 0.928273
Si Si3 0.444675 0.587091 0.599827
Si Si4 0.367990 0.000000 0.500000
Si Si5 0.888172 0.427032 0.296143
Si Si6 0.698584 0.421310 0.617690
Si Si7 0.554858 0.074524 0.183963
O O1 0.393744 0.750000 0.065070
O O2 0.349018 0.003729 0.097518
O O3 0.439267 0.980181 0.119365
O O4 0.406776 0.000000 0.000000
O O5 0.797659 0.250000 0.929850
O O6 0.750000 0.500000 0.897697
O O7 0.799040 0.500000 0.000000
O O8 0.500000 0.564195 0.578344
O O9 0.442665 0.750000 0.633024
O O10 0.405986 0.591686 0.542857
O O11 0.427267 0.460711 0.648270
O O12 0.332443 0.927629 0.447746
O O13 0.885317 0.250000 0.283765
O O14 0.837233 0.481184 0.326881
O O15 0.906752 0.513745 0.234800
O O16 0.708272 0.250000 0.633118
O O17 0.750000 0.500000 0.610935
O O18 0.500000 0.056253 0.209475
O O19 0.562487 0.250000 0.170559
#
# Coordination Sequence:
#
# PCOD9500414 Si02
#       7
#    16  16  16   8  16  16  16
#     4  11  22  38  60  88 123 160 198 241 292 349
#     4  10  17  29  50  78 112 149 189 230 276 329
#     4  10  20  34  54  81 114 153 196 242 293 347
#     4  10  20  34  54  82 118 156 198 242 290 342
#     4  10  22  40  60  84 113 147 191 241 294 351
#     4  10  22  38  58  84 115 152 194 240 289 344
#     4  11  24  42  64  89 116 149 192 240 292 352
#
# _framework density 20.136206999999999
#
# number of rings (size 3 to 8) (size 9 to 14) (size 15 to 20)
#    0.000    1.692    0.000    6.462    0.000    8.615 
#    0.000    0.769    0.000    1.846    0.000    0.000 
#    0.000    0.000    0.000    0.000    0.000    0.000 
#
# Total GULP energy -290001.672622 kJ/mol
# GULP energy per Si atom -5576.955243 kJ/mol
# Density = 2.009038 g / cm^3
# Si number density = 20.136207 Si / 1000 Ang^3
#
#
#
# Elastic Constant Matrix: (Units=GPa)
#
#
# Indices 1 2 3 4 5 6 
#
# 1 129.2742 40.7853 37.2674 0.0000 0.0000 0.0000
# 2 40.7853 124.4910 29.9481 0.0000 0.0000 0.0000
# 3 37.2674 29.9481 80.0185 0.0000 0.0000 0.0000
# 4 0.0000 0.0000 0.0000 21.3588 0.0000 0.0000
# 5 0.0000 0.0000 0.0000 0.0000 22.0035 0.0000
# 6 0.0000 0.0000 0.0000 0.0000 0.0000 15.2755
#
#
#
# Elastic Compliance Matrix: (Units=1/GPa)
#
#
# Indices 1 2 3 4 5 6 
#
# 1 0.009473 -0.002244 -0.003572 0.000000 0.000000 0.000000
# 2 -0.002244 0.009359 -0.002458 0.000000 0.000000 0.000000
# 3 -0.003572 -0.002458 0.015081 0.000000 0.000000 0.000000
# 4 0.000000 0.000000 0.000000 0.046819 0.000000 0.000000
# 5 0.000000 0.000000 0.000000 0.000000 0.045447 0.000000
# 6 0.000000 0.000000 0.000000 0.000000 0.000000 0.065464
#
#
# Mechanical properties :
#
#
# Convention : Reuss Voigt Hill
#
# Bulk Modulus (GPa) = 57.58669 61.08726 59.33697
# Shear Modulus (GPa) = 23.36666 26.77976 25.07321
#
# Velocity S-wave (km/s) = 3.41020 3.65078 3.53254
# Velocity P-wave (km/s) = 6.64580 6.94073 6.79487
#
# Compressibility (1/GPa) = 0.01736513
#
# Stress axis : x y z
#
# Youngs Moduli (GPa) = 105.55948 106.84701 66.31063
#
# Poissons Ratio (x) = 0.23980 0.23687
# Poissons Ratio (y) = 0.23691 0.16296
# Poissons Ratio (z) = 0.37707 0.26258
#
# Static dielectric constant tensor:
#      x y z
#    x 1.771670 0.000000 0.000000 
#    y 0.000000 1.700050 0.000000 
#    z 0.000000 0.000000 1.722450 
# 
# From -- ./inp_files/39966.got.cif
#   From: 2010.05.17/outbox.cif.g08.bks.cpg/sg67_20_cif.got.tgz:39966.got - 2010.06.03 18:28:57.
