data_PCOD9500337
_publ_section_title
;
Structure prediction by ZEFSAII (Michael W. Deem and Ramdas Pophale) SiO2 
 PCOD9500337
Probable space group: C M M A
;
_chemical_formula_sum "Si O2"
_cell_formula_units_Z 80
_cell_length_a 18.271465
_cell_length_b 8.662944
_cell_length_c 27.052570
_cell_angle_alpha 90.000000
_cell_angle_beta 90.000000
_cell_angle_gamma 90.000000
_cell_volume 4282.007334
_symmetry_space_group_name_H-M "C M M A"
_symmetry_group_IT_number 67
_symmetry_cell_setting 'orthorhombic'
loop_
_space_group_symop_operation_xyz
x,y,z
-x,1/2-y,z
x,-y,-z
-x,1/2+y,-z
-x,-y,-z
x,1/2+y,-z
-x,y,z
x,1/2-y,z
1/2+x,1/2+y,z
1/2-x,-y,z
1/2+x,1/2-y,-z
1/2-x,y,-z
1/2-x,1/2-y,-z
1/2+x,y,-z
1/2-x,1/2+y,z
1/2+x,-y,z
loop_
_atom_site_type_symbol
_atom_site_label
_atom_site_fract_x
_atom_site_fract_y
_atom_site_fract_z
Si Si1 0.666761 0.934163 0.050598
Si Si2 0.667790 0.064814 0.652904
Si Si3 0.331818 0.432775 0.152411
Si Si4 0.833315 0.565644 0.449338
Si Si5 0.413611 0.933602 0.245683
O O1 0.668866 0.750000 0.048801
O O2 0.750000 0.000000 0.051565
O O3 0.634889 0.992202 0.102550
O O4 0.632814 0.000000 0.000000
O O5 0.671082 0.250000 0.647581
O O6 0.622623 0.025589 0.701879
O O7 0.750000 0.000000 0.658912
O O8 0.634930 0.993728 0.602526
O O9 0.326773 0.250000 0.145471
O O10 0.250000 0.500000 0.159069
O O11 0.377447 0.475754 0.200652
O O12 0.867175 0.500000 0.500000
O O13 0.831235 0.750000 0.450900
O O14 0.750000 0.500000 0.448467
O O15 0.500000 0.960129 0.247452
O O16 0.400738 0.750000 0.237794
#
# Coordination Sequence:
#
# PCOD9500337 Si02
#       5
#    16  16  16  16  16
#     4  10  17  28  47  74 107 138 170 210 258 308
#     4  10  19  32  52  77 104 134 170 211 255 305
#     4  11  21  34  54  80 108 139 177 218 260 308
#     4  10  17  27  45  71 103 133 164 204 251 302
#     4  10  22  39  56  75 103 139 176 217 266 315
#
# _framework density 18.682827
#
# number of rings (size 3 to 8) (size 9 to 14) (size 15 to 20)
#    0.000    1.800    0.000   10.200    0.000    3.600 
#    0.000    0.000    0.000    1.200    0.000    0.000 
#    0.000    0.000    0.000    0.000    0.000    0.000 
#
# Total GULP energy -223260.846955 kJ/mol
# GULP energy per Si atom -5581.521174 kJ/mol
# Density = 1.864030 g / cm^3
# Si number density = 18.682827 Si / 1000 Ang^3
#
#
#
# Elastic Constant Matrix: (Units=GPa)
#
#
# Indices 1 2 3 4 5 6 
#
# 1 22.1283 29.3699 31.4019 0.0000 0.0000 0.0000
# 2 29.3699 161.4343 96.7369 0.0000 0.0000 0.0000
# 3 31.4019 96.7369 189.9333 0.0000 0.0000 0.0000
# 4 0.0000 0.0000 0.0000 40.6430 0.0000 0.0000
# 5 0.0000 0.0000 0.0000 0.0000 -7.0264 0.0000
# 6 0.0000 0.0000 0.0000 0.0000 0.0000 10.9402
#
#
#
# Elastic Compliance Matrix: (Units=1/GPa)
#
#
# Indices 1 2 3 4 5 6 
#
# 1 0.065183 -0.007773 -0.006818 0.000000 0.000000 0.000000
# 2 -0.007773 0.009843 -0.003728 0.000000 0.000000 0.000000
# 3 -0.006818 -0.003728 0.008291 0.000000 0.000000 0.000000
# 4 0.000000 0.000000 0.000000 0.024604 0.000000 0.000000
# 5 0.000000 0.000000 0.000000 0.000000 -0.142321 0.000000
# 6 0.000000 0.000000 0.000000 0.000000 0.000000 0.091406
#
#
# Mechanical properties :
#
#
# Convention : Reuss Voigt Hill
#
# Bulk Modulus (GPa) = 21.42304 76.50146 48.96225
# Shear Modulus (GPa) = 45.78604 23.31053 34.54828
#
# Velocity S-wave (km/s) = 4.95583 3.53611 4.30490
# Velocity P-wave (km/s) = 6.65121 7.59661 7.13957
#
# Compressibility (1/GPa) = 0.04667871
#
# Stress axis : x y z
#
# Youngs Moduli (GPa) = 15.34139 101.59988 120.61542
#
# Poissons Ratio (x) = 0.78978 0.82231
# Poissons Ratio (y) = 0.11926 0.44963
# Poissons Ratio (z) = 0.10459 0.37874
#
# Static dielectric constant tensor:
#      x y z
#    x 1.608870 0.000000 0.000000 
#    y 0.000000 1.628450 0.000000 
#    z 0.000000 0.000000 1.711320 
# 
# From -- ./inp_files/44439.got.cif
#   From: 2010.05.17/outbox.cif.g08.bks.cpg/sg67_23_cif.got.tgz:44439.got - 2010.06.03 18:28:57.
