data_PCOD9500638
_publ_section_title
;
Structure prediction by ZEFSAII (Michael W. Deem and Ramdas Pophale) SiO2 
 PCOD9500638
Probable space group: C M M A
;
_chemical_formula_sum "Si O2"
_cell_formula_units_Z 80
_cell_length_a 10.865187
_cell_length_b 14.762568
_cell_length_c 24.618104
_cell_angle_alpha 90.000000
_cell_angle_beta 90.000000
_cell_angle_gamma 90.000000
_cell_volume 3948.696170
_symmetry_space_group_name_H-M "C M M A"
_symmetry_group_IT_number 67
_symmetry_cell_setting 'orthorhombic'
loop_
_space_group_symop_operation_xyz
x,y,z
-x,1/2-y,z
x,-y,-z
-x,1/2+y,-z
-x,-y,-z
x,1/2+y,-z
-x,y,z
x,1/2-y,z
1/2+x,1/2+y,z
1/2-x,-y,z
1/2+x,1/2-y,-z
1/2-x,y,-z
1/2-x,1/2-y,-z
1/2+x,y,-z
1/2-x,1/2+y,z
1/2+x,-y,z
loop_
_atom_site_type_symbol
_atom_site_label
_atom_site_fract_x
_atom_site_fract_y
_atom_site_fract_z
Si Si1 0.500000 0.388700 0.060484
Si Si2 0.747151 0.106860 0.118854
Si Si3 0.648105 0.353858 0.351387
Si Si4 0.500000 0.610091 0.065823
Si Si5 0.358560 0.859198 0.766250
Si Si6 0.363088 0.097483 0.470320
O O1 0.375405 0.356363 0.089627
O O2 0.500000 0.499143 0.065422
O O3 0.500000 0.364000 0.997327
O O4 0.726346 0.117846 0.182966
O O5 0.876110 0.141777 0.095804
O O6 0.750000 0.000000 0.106917
O O7 0.500000 0.349933 0.345064
O O8 0.691625 0.250000 0.359552
O O9 0.690346 0.389834 0.292799
O O10 0.669812 0.407874 0.406641
O O11 0.500000 0.891897 0.775990
O O12 0.364874 0.750000 0.762595
O O13 0.500000 0.138947 0.473932
O O14 0.250000 0.145567 0.500000
O O15 0.372047 0.000000 0.500000
#
# Coordination Sequence:
#
# PCOD9500638 Si02
#       6
#     8  16  16   8  16  16
#     4   9  16  30  49  71  99 135 173 208 239 296
#     4  10  18  30  49  75 102 126 169 212 254 299
#     4   8  15  29  50  73  93 125 174 209 231 277
#     4   9  18  28  47  73 105 135 161 204 261 302
#     4   9  17  32  54  74  95 132 178 215 244 288
#     4   9  17  30  48  70 100 126 157 196 243 293
#
# _framework density 20.259851999999999
#
# number of rings (size 3 to 8) (size 9 to 14) (size 15 to 20)
#    0.000    3.000    1.000    1.800    0.000    2.800 
#    3.600    0.500    2.200    3.600    0.000    0.000 
#    0.000    0.000    0.000    0.000    0.000    0.000 
#
# Total GULP energy -222818.589555 kJ/mol
# GULP energy per Si atom -5570.464739 kJ/mol
# Density = 2.021374 g / cm^3
# Si number density = 20.259852 Si / 1000 Ang^3
#
#
#
# Elastic Constant Matrix: (Units=GPa)
#
#
# Indices 1 2 3 4 5 6 
#
# 1 147.7719 12.9737 97.8313 0.0000 0.0000 0.0000
# 2 12.9737 57.5212 12.8261 0.0000 0.0000 0.0000
# 3 97.8313 12.8261 207.6670 0.0000 0.0000 0.0000
# 4 0.0000 0.0000 0.0000 37.5120 0.0000 0.0000
# 5 0.0000 0.0000 0.0000 0.0000 14.8405 0.0000
# 6 0.0000 0.0000 0.0000 0.0000 0.0000 -8.8127
#
#
#
# Elastic Compliance Matrix: (Units=1/GPa)
#
#
# Indices 1 2 3 4 5 6 
#
# 1 0.009917 -0.001212 -0.004597 0.000000 0.000000 0.000000
# 2 -0.001212 0.017776 -0.000527 0.000000 0.000000 0.000000
# 3 -0.004597 -0.000527 0.007014 0.000000 0.000000 0.000000
# 4 0.000000 0.000000 0.000000 0.026658 0.000000 0.000000
# 5 0.000000 0.000000 0.000000 0.000000 0.067383 0.000000
# 6 0.000000 0.000000 0.000000 0.000000 0.000000 -0.113472
#
#
# Mechanical properties :
#
#
# Convention : Reuss Voigt Hill
#
# Bulk Modulus (GPa) = 45.38283 73.35802 59.37042
# Shear Modulus (GPa) = 141.67621 27.99655 84.83638
#
# Velocity S-wave (km/s) = 8.37146 3.72139 6.47804
# Velocity P-wave (km/s) = 10.76526 7.39947 9.23696
#
# Compressibility (1/GPa) = 0.02203477
#
# Stress axis : x y z
#
# Youngs Moduli (GPa) = 100.83696 56.25653 142.58007
#
# Poissons Ratio (x) = 0.06817 0.65545
# Poissons Ratio (y) = 0.12218 0.07515
# Poissons Ratio (z) = 0.46355 0.02965
#
# Static dielectric constant tensor:
#      x y z
#    x 1.744360 0.000000 0.000000 
#    y 0.000000 1.763150 0.000000 
#    z 0.000000 0.000000 1.737120 
# 
# From -- ./inp_files/37779.got.cif
#   From: 2010.05.17/outbox.cif.g08.bks.cpg/sg67_19_cif.got.tgz:37779.got - 2010.06.03 18:28:57.
