data_PCOD9500428
_publ_section_title
;
Structure prediction by ZEFSAII (Michael W. Deem and Ramdas Pophale) SiO2 
 PCOD9500428
Probable space group: C M M A
;
_chemical_formula_sum "Si O2"
_cell_formula_units_Z 112
_cell_length_a 14.773813
_cell_length_b 27.961536
_cell_length_c 16.552540
_cell_angle_alpha 90.000000
_cell_angle_beta 90.000000
_cell_angle_gamma 90.000000
_cell_volume 6837.829512
_symmetry_space_group_name_H-M "C M M A"
_symmetry_group_IT_number 67
_symmetry_cell_setting 'orthorhombic'
loop_
_space_group_symop_operation_xyz
x,y,z
-x,1/2-y,z
x,-y,-z
-x,1/2+y,-z
-x,-y,-z
x,1/2+y,-z
-x,y,z
x,1/2-y,z
1/2+x,1/2+y,z
1/2-x,-y,z
1/2+x,1/2-y,-z
1/2-x,y,-z
1/2-x,1/2-y,-z
1/2+x,y,-z
1/2-x,1/2+y,z
1/2+x,-y,z
loop_
_atom_site_type_symbol
_atom_site_label
_atom_site_fract_x
_atom_site_fract_y
_atom_site_fract_z
Si Si1 0.896784 0.805117 0.167567
Si Si2 0.605699 0.953606 0.949793
Si Si3 0.213674 0.402123 0.807693
Si Si4 0.256734 0.057626 0.369457
Si Si5 0.103622 0.942029 0.508755
Si Si6 0.850426 0.304694 0.016492
Si Si7 0.401783 0.389532 0.893305
O O1 0.869015 0.750000 0.188539
O O2 0.832037 0.849161 0.191781
O O3 0.000000 0.812756 0.196566
O O4 0.898380 0.806531 0.069821
O O5 0.500000 0.037770 0.071740
O O6 0.658773 0.935886 0.870961
O O7 0.608824 0.912684 0.017795
O O8 0.638805 0.000000 0.000000
O O9 0.219001 0.422039 0.717517
O O10 0.316262 0.401602 0.839890
O O11 0.161220 0.071594 0.411567
O O12 0.335542 0.072570 0.432129
O O13 0.250000 0.000000 0.364286
O O14 0.000000 0.925177 0.509053
O O15 0.101479 0.000000 0.500000
O O16 0.839259 0.250000 0.041047
O O17 0.897863 0.333747 0.086285
O O18 0.750000 0.325208 0.000000
O O19 0.500000 0.404476 0.861228
#
# Coordination Sequence:
#
# PCOD9500428 Si02
#       7
#    16  16  16  16  16  16  16
#     4  10  20  34  51  71  97 129 172 231 283 312
#     4  10  22  37  49  64  94 139 185 220 254 299
#     4  12  22  33  52  75 103 138 175 222 259 312
#     4   9  20  33  50  82 107 129 167 203 247 313
#     4   8  15  34  58  76 103 133 158 201 257 306
#     4  10  17  30  51  69  86 120 172 224 271 306
#     4  11  22  34  45  64  95 136 181 216 252 294
#
# _framework density 16.379467000000002
#
# number of rings (size 3 to 8) (size 9 to 14) (size 15 to 20)
#    0.000    2.000    2.857    2.143    2.000    3.143 
#    0.000    0.000    0.000    0.000    0.000    2.000 
#    0.000    1.143    0.000    0.000    0.000    0.000 
#
# Total GULP energy -311990.927822 kJ/mol
# GULP energy per Si atom -5571.266568 kJ/mol
# Density = 1.634219 g / cm^3
# Si number density = 16.379467 Si / 1000 Ang^3
#
#
#
# Elastic Constant Matrix: (Units=GPa)
#
#
# Indices 1 2 3 4 5 6 
#
# 1 142.8851 36.0690 59.5443 0.0000 0.0000 0.0000
# 2 36.0690 59.9451 36.0976 0.0000 0.0000 0.0000
# 3 59.5443 36.0976 94.1429 0.0000 0.0000 0.0000
# 4 0.0000 0.0000 0.0000 15.0328 0.0000 0.0000
# 5 0.0000 0.0000 0.0000 0.0000 2.9724 0.0000
# 6 0.0000 0.0000 0.0000 0.0000 0.0000 4.0904
#
#
#
# Elastic Compliance Matrix: (Units=1/GPa)
#
#
# Indices 1 2 3 4 5 6 
#
# 1 0.009860 -0.002831 -0.005151 0.000000 0.000000 0.000000
# 2 -0.002831 0.022503 -0.006838 0.000000 0.000000 0.000000
# 3 -0.005151 -0.006838 0.016502 0.000000 0.000000 0.000000
# 4 0.000000 0.000000 0.000000 0.066521 0.000000 0.000000
# 5 0.000000 0.000000 0.000000 0.000000 0.336429 0.000000
# 6 0.000000 0.000000 0.000000 0.000000 0.000000 0.244476
#
#
# Mechanical properties :
#
#
# Convention : Reuss Voigt Hill
#
# Bulk Modulus (GPa) = 52.01442 62.26610 57.14026
# Shear Modulus (GPa) = 6.82744 15.43659 11.13202
#
# Velocity S-wave (km/s) = 2.04385 3.07324 2.60980
# Velocity P-wave (km/s) = 6.11511 7.11971 6.63645
#
# Compressibility (1/GPa) = 0.01922544
#
# Stress axis : x y z
#
# Youngs Moduli (GPa) = 101.42317 44.43867 60.59970
#
# Poissons Ratio (x) = 0.12581 0.31213
# Poissons Ratio (y) = 0.28713 0.41437
# Poissons Ratio (z) = 0.52239 0.30386
#
# Static dielectric constant tensor:
#      x y z
#    x 1.622910 0.000000 0.000000 
#    y 0.000000 1.624180 0.000000 
#    z 0.000000 0.000000 1.514980 
# 
# From -- ./inp_files/27888.got.cif
#   From: 2010.05.17/outbox.cif.g08.bks.cpg/sg67_14_cif.got.tgz:27888.got - 2010.06.03 18:28:57.
