data_PCOD9500040
_publ_section_title
;
Structure prediction by ZEFSAII (Michael W. Deem and Ramdas Pophale) SiO2 
 PCOD9500040
Probable space group: C C C M
;
_chemical_formula_sum "Si O2"
_cell_formula_units_Z 80
_cell_length_a 29.033139
_cell_length_b 8.174597
_cell_length_c 17.538021
_cell_angle_alpha 90.000000
_cell_angle_beta 90.000000
_cell_angle_gamma 90.000000
_cell_volume 4162.372376
_symmetry_space_group_name_H-M "C C C M"
_symmetry_group_IT_number 66
_symmetry_cell_setting 'orthorhombic'
loop_
_space_group_symop_operation_xyz
x,y,z
-x,-y,z
x,-y,1/2-z
-x,y,1/2-z
-x,-y,-z
x,y,-z
-x,y,1/2+z
x,-y,1/2+z
1/2+x,1/2+y,z
1/2-x,1/2-y,z
1/2+x,1/2-y,1/2-z
1/2-x,1/2+y,1/2-z
1/2-x,1/2-y,-z
1/2+x,1/2+y,-z
1/2-x,1/2+y,1/2+z
1/2+x,1/2-y,1/2+z
loop_
_atom_site_type_symbol
_atom_site_label
_atom_site_fract_x
_atom_site_fract_y
_atom_site_fract_z
Si Si1 0.450292 0.044212 0.659817
Si Si2 0.268981 0.062638 0.911525
Si Si3 0.898765 0.836382 0.705284
Si Si4 0.138690 0.655962 0.648119
Si Si5 0.669206 0.492943 0.911203
O O1 0.438767 0.235678 0.663855
O O2 0.500000 0.000000 0.626535
O O3 0.451994 0.000000 0.750000
O O4 0.406977 0.944952 0.625161
O O5 0.250000 0.250000 0.910712
O O6 0.314785 0.050763 0.861410
O O7 0.222602 0.970568 0.887362
O O8 0.280043 0.023375 0.000000
O O9 0.873166 0.722022 0.767492
O O10 0.914250 0.000000 0.750000
O O11 0.862415 0.886525 0.642187
O O12 0.150920 0.820043 0.600437
O O13 0.666226 0.453447 0.000000
#
# Coordination Sequence:
#
# PCOD9500040 Si02
#       5
#    16  16  16  16  16
#     4   9  18  34  53  74 100 130 168 214 262 311
#     4   8  14  27  49  73  98 133 170 203 250 309
#     4   9  18  33  52  77 104 132 170 217 262 303
#     4   9  16  30  51  75 100 128 171 216 255 299
#     4   9  17  32  52  74 104 140 173 205 251 311
#
# _framework density 19.219806999999999
#
# number of rings (size 3 to 8) (size 9 to 14) (size 15 to 20)
#    0.000    3.200    0.000    1.800    0.000    0.000 
#    0.000   43.000    0.000    9.000    0.000    0.000 
#    0.000    0.000    0.000    0.000    0.000    0.000 
#
# Total GULP energy -222704.367348 kJ/mol
# GULP energy per Si atom -5567.609184 kJ/mol
# Density = 1.917606 g / cm^3
# Si number density = 19.219807 Si / 1000 Ang^3
#
#
#
# Elastic Constant Matrix: (Units=GPa)
#
#
# Indices 1 2 3 4 5 6 
#
# 1 176.8070 72.3076 36.5902 0.0000 0.0000 0.0000
# 2 72.3076 65.0993 23.0680 0.0000 0.0000 0.0000
# 3 36.5902 23.0680 28.6040 0.0000 0.0000 0.0000
# 4 0.0000 0.0000 0.0000 7.0570 0.0000 0.0000
# 5 0.0000 0.0000 0.0000 0.0000 -44.2187 0.0000
# 6 0.0000 0.0000 0.0000 0.0000 0.0000 18.1581
#
#
#
# Elastic Compliance Matrix: (Units=1/GPa)
#
#
# Indices 1 2 3 4 5 6 
#
# 1 0.011037 -0.010159 -0.005925 0.000000 0.000000 0.000000
# 2 -0.010159 0.030859 -0.011891 0.000000 0.000000 0.000000
# 3 -0.005925 -0.011891 0.052129 0.000000 0.000000 0.000000
# 4 0.000000 0.000000 0.000000 0.141703 0.000000 0.000000
# 5 0.000000 0.000000 0.000000 0.000000 -0.022615 0.000000
# 6 0.000000 0.000000 0.000000 0.000000 0.000000 0.055072
#
#
# Mechanical properties :
#
#
# Convention : Reuss Voigt Hill
#
# Bulk Modulus (GPa) = 26.26441 59.38243 42.82342
# Shear Modulus (GPa) = 14.84442 5.43559 10.14001
#
# Velocity S-wave (km/s) = 2.78213 1.68353 2.29941
# Velocity P-wave (km/s) = 4.90054 5.89428 5.42023
#
# Compressibility (1/GPa) = 0.03807433
#
# Stress axis : x y z
#
# Youngs Moduli (GPa) = 90.60479 32.40557 19.18315
#
# Poissons Ratio (x) = 0.32922 0.11367
# Poissons Ratio (y) = 0.92049 0.22810
# Poissons Ratio (z) = 0.53686 0.38532
#
# Static dielectric constant tensor:
#      x y z
#    x 1.695980 0.000000 0.000000 
#    y 0.000000 1.740890 0.000000 
#    z 0.000000 0.000000 1.647730 
# 
# From -- ./inp_files/36953.got.cif
#   From: 2010.05.17/outbox.cif.g08.bks.cpg/sg66_19_cif.got.tgz:36953.got - 2010.06.03 17:51:23.
