data_PCOD9500619
_publ_section_title
;
Structure prediction by ZEFSAII (Michael W. Deem and Ramdas Pophale) SiO2 
 PCOD9500619
Probable space group: C M M A
;
_chemical_formula_sum "Si O2"
_cell_formula_units_Z 116
_cell_length_a 24.279496
_cell_length_b 18.374156
_cell_length_c 15.867141
_cell_angle_alpha 90.000000
_cell_angle_beta 90.000000
_cell_angle_gamma 90.000000
_cell_volume 7078.573528
_symmetry_space_group_name_H-M "C M M A"
_symmetry_group_IT_number 67
_symmetry_cell_setting 'orthorhombic'
loop_
_space_group_symop_operation_xyz
x,y,z
-x,1/2-y,z
x,-y,-z
-x,1/2+y,-z
-x,-y,-z
x,1/2+y,-z
-x,y,z
x,1/2-y,z
1/2+x,1/2+y,z
1/2-x,-y,z
1/2+x,1/2-y,-z
1/2-x,y,-z
1/2-x,1/2-y,-z
1/2+x,y,-z
1/2-x,1/2+y,z
1/2+x,-y,z
loop_
_atom_site_type_symbol
_atom_site_label
_atom_site_fract_x
_atom_site_fract_y
_atom_site_fract_z
Si Si1 0.715132 0.830691 0.414144
Si Si2 0.647034 0.439608 0.239289
Si Si3 0.436212 0.912858 0.016280
Si Si4 0.434939 0.666394 0.837459
Si Si5 0.745303 0.667861 0.773075
Si Si6 0.316077 0.484548 0.595168
Si Si7 0.333622 0.080261 0.873386
Si Si8 0.250000 0.500000 0.000000
O O1 0.690643 0.750000 0.423880
O O2 0.750000 0.845326 0.500000
O O3 0.751039 0.829376 0.328852
O O4 0.675628 0.898181 0.396248
O O5 0.595364 0.387524 0.226214
O O6 0.698351 0.390644 0.208404
O O7 0.655608 0.467207 0.334198
O O8 0.647442 0.511538 0.182490
O O9 0.500000 0.900769 0.043107
O O10 0.388337 0.891040 0.080796
O O11 0.426954 0.868809 0.929883
O O12 0.430274 0.000000 0.000000
O O13 0.500000 0.666908 0.821566
O O14 0.414951 0.750000 0.833864
O O15 0.734068 0.750000 0.802730
O O16 0.801126 0.637293 0.814699
O O17 0.332352 0.500000 0.500000
O O18 0.250000 0.500000 0.603927
O O19 0.289947 0.049474 0.942068
#
# Coordination Sequence:
#
# PCOD9500619 Si02
#       8
#    16  16  16  16  16  16  16   4
#     4  10  18  30  48  73 108 145 176 212 259 313
#     4  12  19  34  54  76 107 142 180 219 266 327
#     4  10  20  36  57  79 100 135 185 227 265 319
#     4  10  22  39  58  81 107 136 177 231 282 323
#     4  11  22  33  47  75 111 141 174 214 262 322
#     4  11  18  31  51  78 109 145 181 217 259 317
#     4  12  21  34  53  75 105 141 178 219 269 328
#     4  12  20  32  48  68 102 144 178 198 276 324
#
# _framework density 16.387483
#
# number of rings (size 3 to 8) (size 9 to 14) (size 15 to 20)
#    0.000    1.103    7.586    0.414    0.000    0.552 
#    0.000    1.034    0.000    0.414    0.000    0.000 
#    0.000    0.552    0.000    0.000    0.000    0.000 
#
# Total GULP energy -323340.410498 kJ/mol
# GULP energy per Si atom -5574.834664 kJ/mol
# Density = 1.635018 g / cm^3
# Si number density = 16.387483 Si / 1000 Ang^3
#
#
#
# Elastic Constant Matrix: (Units=GPa)
#
#
# Indices 1 2 3 4 5 6 
#
# 1 60.8880 27.5900 44.7992 0.0000 0.0000 0.0000
# 2 27.5900 116.2966 33.3938 0.0000 0.0000 0.0000
# 3 44.7992 33.3938 92.6564 0.0000 0.0000 0.0000
# 4 0.0000 0.0000 0.0000 19.9327 0.0000 0.0000
# 5 0.0000 0.0000 0.0000 0.0000 17.0511 0.0000
# 6 0.0000 0.0000 0.0000 0.0000 0.0000 18.2531
#
#
#
# Elastic Compliance Matrix: (Units=1/GPa)
#
#
# Indices 1 2 3 4 5 6 
#
# 1 0.026336 -0.002891 -0.011691 0.000000 0.000000 0.000000
# 2 -0.002891 0.009909 -0.002173 0.000000 0.000000 0.000000
# 3 -0.011691 -0.002173 0.017229 0.000000 0.000000 0.000000
# 4 0.000000 0.000000 0.000000 0.050169 0.000000 0.000000
# 5 0.000000 0.000000 0.000000 0.000000 0.058647 0.000000
# 6 0.000000 0.000000 0.000000 0.000000 0.000000 0.054785
#
#
# Mechanical properties :
#
#
# Convention : Reuss Voigt Hill
#
# Bulk Modulus (GPa) = 50.09587 53.48966 51.79276
# Shear Modulus (GPa) = 19.43720 21.98459 20.71089
#
# Velocity S-wave (km/s) = 3.44772 3.66669 3.55889
# Velocity P-wave (km/s) = 6.81799 7.11601 6.96859
#
# Compressibility (1/GPa) = 0.01996172
#
# Stress axis : x y z
#
# Youngs Moduli (GPa) = 37.97155 100.92260 58.04293
#
# Poissons Ratio (x) = 0.29174 0.67860
# Poissons Ratio (y) = 0.10976 0.12615
# Poissons Ratio (z) = 0.44394 0.21935
#
# Static dielectric constant tensor:
#      x y z
#    x 1.545200 0.000000 0.000000 
#    y 0.000000 1.582680 0.000000 
#    z 0.000000 0.000000 1.561950 
# 
# From -- ./inp_files/30285.got.cif
#   From: 2010.05.17/outbox.cif.g08.bks.cpg/sg67_16_cif.got.tgz:30285.got - 2010.06.03 18:28:57.
