data_PCOD9500288
_publ_section_title
;
Structure prediction by ZEFSAII (Michael W. Deem and Ramdas Pophale) SiO2 
 PCOD9500288
Probable space group: C M M A
;
_chemical_formula_sum "Si O2"
_cell_formula_units_Z 96
_cell_length_a 8.570875
_cell_length_b 28.044805
_cell_length_c 24.765237
_cell_angle_alpha 90.000000
_cell_angle_beta 90.000000
_cell_angle_gamma 90.000000
_cell_volume 5952.783317
_symmetry_space_group_name_H-M "C M M A"
_symmetry_group_IT_number 67
_symmetry_cell_setting 'orthorhombic'
loop_
_space_group_symop_operation_xyz
x,y,z
-x,1/2-y,z
x,-y,-z
-x,1/2+y,-z
-x,-y,-z
x,1/2+y,-z
-x,y,z
x,1/2-y,z
1/2+x,1/2+y,z
1/2-x,-y,z
1/2+x,1/2-y,-z
1/2-x,y,-z
1/2-x,1/2-y,-z
1/2+x,y,-z
1/2-x,1/2+y,z
1/2+x,-y,z
loop_
_atom_site_type_symbol
_atom_site_label
_atom_site_fract_x
_atom_site_fract_y
_atom_site_fract_z
Si Si1 0.811869 0.899662 0.776904
Si Si2 0.313788 0.554068 0.668880
Si Si3 0.313768 0.554404 0.444204
Si Si4 0.812781 0.144491 0.058163
Si Si5 0.313575 0.447973 0.115426
Si Si6 0.189565 0.303135 0.166915
O O1 0.743089 0.916560 0.720413
O O2 0.751517 0.932994 0.825615
O O3 0.763731 0.845815 0.793148
O O4 0.000000 0.902301 0.775654
O O5 0.500000 0.552183 0.666243
O O6 0.250000 0.500000 0.674828
O O7 0.247667 0.574625 0.612432
O O8 0.500000 0.553536 0.445038
O O9 0.250000 0.500000 0.443732
O O10 0.250000 0.576340 0.500000
O O11 0.746409 0.092829 0.074897
O O12 0.766012 0.180116 0.106579
O O13 0.000000 0.141900 0.057332
O O14 0.750000 0.158994 0.000000
O O15 0.500000 0.448250 0.116648
O O16 0.250000 0.500000 0.101066
O O17 0.246417 0.250000 0.179264
O O18 0.000000 0.302158 0.168019
#
# Coordination Sequence:
#
# PCOD9500288 Si02
#       6
#    16  16  16  16  16  16
#     4  10  19  32  49  70  95 121 153 191 231 275
#     4  11  20  30  44  65  94 128 165 199 233 270
#     4  10  17  27  41  60  88 124 164 200 235 270
#     4  10  20  34  51  72  96 120 150 185 223 269
#     4  11  21  34  50  68  92 122 155 188 227 270
#     4   8  16  32  53  73  93 118 147 183 229 278
#
# _framework density 16.126909999999999
#
# number of rings (size 3 to 8) (size 9 to 14) (size 15 to 20)
#    0.000    2.000    0.000    8.500    0.000    0.667 
#    0.000    1.667    0.000   17.500    0.000    0.000 
#    0.000    0.667    0.000    1.833    0.000    3.000 
#
# Total GULP energy -267823.549401 kJ/mol
# GULP energy per Si atom -5579.657279 kJ/mol
# Density = 1.609020 g / cm^3
# Si number density = 16.126910 Si / 1000 Ang^3
#
#
#
# Elastic Constant Matrix: (Units=GPa)
#
#
# Indices 1 2 3 4 5 6 
#
# 1 116.1772 17.5824 37.0113 0.0000 0.0000 0.0000
# 2 17.5824 70.4813 25.5476 0.0000 0.0000 0.0000
# 3 37.0113 25.5476 120.9168 0.0000 0.0000 0.0000
# 4 0.0000 0.0000 0.0000 9.5181 0.0000 0.0000
# 5 0.0000 0.0000 0.0000 0.0000 34.4380 0.0000
# 6 0.0000 0.0000 0.0000 0.0000 0.0000 8.5747
#
#
#
# Elastic Compliance Matrix: (Units=1/GPa)
#
#
# Indices 1 2 3 4 5 6 
#
# 1 0.009673 -0.001451 -0.002654 0.000000 0.000000 0.000000
# 2 -0.001451 0.015582 -0.002848 0.000000 0.000000 0.000000
# 3 -0.002654 -0.002848 0.009684 0.000000 0.000000 0.000000
# 4 0.000000 0.000000 0.000000 0.105063 0.000000 0.000000
# 5 0.000000 0.000000 0.000000 0.000000 0.029038 0.000000
# 6 0.000000 0.000000 0.000000 0.000000 0.000000 0.116623
#
#
# Mechanical properties :
#
#
# Convention : Reuss Voigt Hill
#
# Bulk Modulus (GPa) = 47.54436 51.98421 49.76429
# Shear Modulus (GPa) = 16.30893 25.66842 20.98867
#
# Velocity S-wave (km/s) = 3.18352 3.99388 3.61150
# Velocity P-wave (km/s) = 6.56190 7.31933 6.95094
#
# Compressibility (1/GPa) = 0.02103299
#
# Stress axis : x y z
#
# Youngs Moduli (GPa) = 103.38405 64.17458 103.25963
#
# Poissons Ratio (x) = 0.09311 0.27407
# Poissons Ratio (y) = 0.15000 0.29410
# Poissons Ratio (z) = 0.27440 0.18278
#
# Static dielectric constant tensor:
#      x y z
#    x 1.541350 0.000000 0.000000 
#    y 0.000000 1.528370 0.000000 
#    z 0.000000 0.000000 1.559970 
# 
# From -- ./inp_files/40779.got.cif
#   From: 2010.05.17/outbox.cif.g08.bks.cpg/sg67_21_cif.got.tgz:40779.got - 2010.06.03 18:28:57.
