data_PCOD9500103
_publ_section_title
;
Structure prediction by ZEFSAII (Michael W. Deem and Ramdas Pophale) SiO2 
 PCOD9500103
Probable space group: C C C M
;
_chemical_formula_sum "Si O2"
_cell_formula_units_Z 52
_cell_length_a 27.000000
_cell_length_b 21.000000
_cell_length_c 9.000000
_cell_angle_alpha 90.000000
_cell_angle_beta 90.000000
_cell_angle_gamma 90.000000
_cell_volume 5103.000000
_symmetry_space_group_name_H-M "C C C M"
_symmetry_group_IT_number 66
_symmetry_cell_setting 'orthorhombic'
loop_
_space_group_symop_operation_xyz
x,y,z
-x,-y,z
x,-y,1/2-z
-x,y,1/2-z
-x,-y,-z
x,y,-z
-x,y,1/2+z
x,-y,1/2+z
1/2+x,1/2+y,z
1/2-x,1/2-y,z
1/2+x,1/2-y,1/2-z
1/2-x,1/2+y,1/2-z
1/2-x,1/2-y,-z
1/2+x,1/2+y,-z
1/2-x,1/2+y,1/2+z
1/2+x,1/2-y,1/2+z
loop_
_atom_site_type_symbol
_atom_site_label
_atom_site_fract_x
_atom_site_fract_y
_atom_site_fract_z
Si Si1 0.122473 0.159447 0.673325
Si Si2 0.454353 0.910358 0.338950
Si Si3 0.368122 0.000000 0.250000
Si Si4 0.404821 0.801369 0.830219
Si Si5 0.693519 0.881442 0.335978
Si Si6 0.724819 0.681326 0.827904
Si Si7 0.950949 0.069095 0.324136
O O1 0.119002 0.141488 0.500000
O O2 0.095217 0.226837 0.694798
O O3 0.178549 0.170761 0.722048
O O4 0.096653 0.108617 0.777710
O O5 0.500000 0.936477 0.250000
O O6 0.474134 0.901408 0.500000
O O7 0.406399 0.955362 0.338197
O O8 0.438334 0.842870 0.274690
O O9 0.333408 0.949425 0.168524
O O10 0.349226 0.828872 0.812462
O O11 0.418596 0.814997 0.000000
O O12 0.715302 0.871000 0.500000
O O13 0.734214 0.871446 0.211036
O O14 0.750000 0.750000 0.800832
O O15 0.709731 0.678913 0.000000
O O16 0.956966 0.064208 0.500000
O O17 0.000000 0.099260 0.250000
O O18 0.946490 0.000000 0.250000
#
# Coordination Sequence:
#
# PCOD9500103 Si02
#       7
#    16  16   8  16  16  16  16
#     4  11  22  40  66  95 126 163 206 255 308 366
#     4  11  23  38  59  85 119 159 204 258 310 363
#     4  10  23  40  60  88 114 158 211 262 308 364
#     4   9  20  37  59  86 118 155 200 251 306 364
#     4  10  20  38  61  85 116 159 207 253 305 367
#     4  11  23  38  60  92 127 161 201 251 307 369
#     4  11  23  43  69  97 128 164 204 249 306 374
#
# _framework density 10.190084000000001
#
# number of rings (size 3 to 8) (size 9 to 14) (size 15 to 20)
#    0.000    1.538    1.538    3.923    0.000    8.000 
#    1.385    0.000    0.000    0.000    0.000    0.000 
#    0.000    0.000    0.000    0.000    0.000    0.000 
#
# Total GULP energy -290073.673551 kJ/mol
# GULP energy per Si atom -5578.339876 kJ/mol
# Density = 1.016689 g / cm^3
# Si number density = 10.190084 Si / 1000 Ang^3
#
#
#
# Elastic Constant Matrix: (Units=GPa)
#
#
# Indices 1 2 3 4 5 6 
#
# 1 56.3381 31.9465 49.0751 0.0000 0.0000 0.0000
# 2 31.9465 29.1035 50.8536 0.0000 0.0000 0.0000
# 3 49.0751 50.8536 115.8323 0.0000 0.0000 0.0000
# 4 0.0000 0.0000 0.0000 -15.6456 0.0000 0.0000
# 5 0.0000 0.0000 0.0000 0.0000 30.8206 0.0000
# 6 0.0000 0.0000 0.0000 0.0000 0.0000 53.3129
#
#
#
# Elastic Compliance Matrix: (Units=1/GPa)
#
#
# Indices 1 2 3 4 5 6 
#
# 1 0.051063 -0.078366 0.012771 0.000000 0.000000 0.000000
# 2 -0.078366 0.267816 -0.084377 0.000000 0.000000 0.000000
# 3 0.012771 -0.084377 0.040266 0.000000 0.000000 0.000000
# 4 0.000000 0.000000 0.000000 -0.063916 0.000000 0.000000
# 5 0.000000 0.000000 0.000000 0.000000 0.032446 0.000000
# 6 0.000000 0.000000 0.000000 0.000000 0.000000 0.018757
#
#
# Mechanical properties :
#
#
# Convention : Reuss Voigt Hill
#
# Bulk Modulus (GPa) = 16.89159 51.66940 34.28049
# Shear Modulus (GPa) = 7.50627 18.32416 12.91522
#
# Velocity S-wave (km/s) = 1.92123 3.00178 2.52010
# Velocity P-wave (km/s) = 3.63700 6.11736 5.03239
#
# Compressibility (1/GPa) = 0.05920106
#
# Stress axis : x y z
#
# Youngs Moduli (GPa) = 19.58369 3.73391 24.83457
#
# Poissons Ratio (x) = 0.29261 -0.31715
# Poissons Ratio (y) = 1.53469 2.09547
# Poissons Ratio (z) = -0.25010 0.31506
#
# Static dielectric constant tensor:
#      x y z
#    x 1.630260 0.000000 0.000000 
#    y 0.000000 1.718700 0.000000 
#    z 0.000000 0.000000 1.708940 
# 
# From -- ./inp_files/10366.got.cif
#   From: 2010.05.17/outbox.ucp.g08.bks.cvg/sg66_6_cif.got.tgz:10366.got - 2010.06.11 16:44:13.
