data_PCOD9500592
_publ_section_title
;
Structure prediction by ZEFSAII (Michael W. Deem and Ramdas Pophale) SiO2 
 PCOD9500592
Probable space group: C M M A
;
_chemical_formula_sum "Si O2"
_cell_formula_units_Z 112
_cell_length_a 15.388059
_cell_length_b 20.493260
_cell_length_c 20.407210
_cell_angle_alpha 90.000000
_cell_angle_beta 90.000000
_cell_angle_gamma 90.000000
_cell_volume 6435.444162
_symmetry_space_group_name_H-M "C M M A"
_symmetry_group_IT_number 67
_symmetry_cell_setting 'orthorhombic'
loop_
_space_group_symop_operation_xyz
x,y,z
-x,1/2-y,z
x,-y,-z
-x,1/2+y,-z
-x,-y,-z
x,1/2+y,-z
-x,y,z
x,1/2-y,z
1/2+x,1/2+y,z
1/2-x,-y,z
1/2+x,1/2-y,-z
1/2-x,y,-z
1/2-x,1/2-y,-z
1/2+x,y,-z
1/2-x,1/2+y,z
1/2+x,-y,z
loop_
_atom_site_type_symbol
_atom_site_label
_atom_site_fract_x
_atom_site_fract_y
_atom_site_fract_z
Si Si1 0.599085 0.612821 0.309191
Si Si2 0.253309 0.079518 0.075603
Si Si3 0.099305 0.065777 0.821605
Si Si4 0.605245 0.435105 0.458044
Si Si5 0.100292 0.907301 0.833525
Si Si6 0.344575 0.469567 0.316689
Si Si7 0.893506 0.824359 0.558618
O O1 0.500000 0.636056 0.304196
O O2 0.635012 0.619701 0.235982
O O3 0.597597 0.535207 0.322536
O O4 0.639157 0.648858 0.371202
O O5 0.335561 0.093371 0.123239
O O6 0.167565 0.107609 0.109929
O O7 0.250000 0.000000 0.075095
O O8 0.250000 0.100266 0.000000
O O9 0.128928 0.073546 0.745896
O O10 0.000000 0.087609 0.830505
O O11 0.100045 0.986442 0.828094
O O12 0.626666 0.500000 0.500000
O O13 0.500000 0.434613 0.449568
O O14 0.648311 0.435744 0.386798
O O15 0.632193 0.373408 0.501335
O O16 0.000000 0.887630 0.844082
O O17 0.250000 0.500000 0.304551
O O18 0.867737 0.750000 0.548038
O O19 0.000000 0.826987 0.560622
#
# Coordination Sequence:
#
# PCOD9500592 Si02
#       7
#    16  16  16  16  16  16  16
#     4   9  15  27  44  61  82 110 144 184 228 272
#     4   9  16  25  36  54  83 114 146 183 222 272
#     4   9  16  26  39  57  81 113 150 188 233 273
#     4  10  18  30  46  65  88 115 150 195 237 279
#     4   8  14  23  37  55  78 109 145 181 222 271
#     4  11  19  27  43  63  86 112 151 197 235 273
#     4   9  17  29  46  66  88 116 149 185 233 288
#
# _framework density 17.403616
#
# number of rings (size 3 to 8) (size 9 to 14) (size 15 to 20)
#    0.000    2.714    1.429    4.286    0.000    0.857 
#    0.000    2.857    0.000    1.714    0.000    0.000 
#    0.000    0.571    0.000    0.286    0.000   19.714 
#
# Total GULP energy -311798.506555 kJ/mol
# GULP energy per Si atom -5567.830474 kJ/mol
# Density = 1.736400 g / cm^3
# Si number density = 17.403616 Si / 1000 Ang^3
#
#
#
# Elastic Constant Matrix: (Units=GPa)
#
#
# Indices 1 2 3 4 5 6 
#
# 1 80.0034 8.7944 62.4231 0.0000 0.0000 0.0000
# 2 8.7944 44.0558 40.8148 0.0000 0.0000 0.0000
# 3 62.4231 40.8148 185.6072 0.0000 0.0000 0.0000
# 4 0.0000 0.0000 0.0000 7.2676 0.0000 0.0000
# 5 0.0000 0.0000 0.0000 0.0000 25.7689 0.0000
# 6 0.0000 0.0000 0.0000 0.0000 0.0000 -1.0443
#
#
#
# Elastic Compliance Matrix: (Units=1/GPa)
#
#
# Indices 1 2 3 4 5 6 
#
# 1 0.017148 0.002411 -0.006297 0.000000 0.000000 0.000000
# 2 0.002411 0.028845 -0.007154 0.000000 0.000000 0.000000
# 3 -0.006297 -0.007154 0.009079 0.000000 0.000000 0.000000
# 4 0.000000 0.000000 0.000000 0.137596 0.000000 0.000000
# 5 0.000000 0.000000 0.000000 0.000000 0.038806 0.000000
# 6 0.000000 0.000000 0.000000 0.000000 0.000000 -0.957538
#
#
# Mechanical properties :
#
#
# Convention : Reuss Voigt Hill
#
# Bulk Modulus (GPa) = 30.31112 59.30345 44.80728
# Shear Modulus (GPa) = -7.21515 19.57405 6.17945
#
# Velocity S-wave (km/s) = -2.03833 3.35731 1.88637
# Velocity P-wave (km/s) = 3.45176 7.01271 5.52688
#
# Compressibility (1/GPa) = 0.03299120
#
# Stress axis : x y z
#
# Youngs Moduli (GPa) = 58.31592 34.66837 110.14738
#
# Poissons Ratio (x) = -0.08359 0.69364
# Poissons Ratio (y) = -0.14060 0.78797
# Poissons Ratio (z) = 0.36724 0.24801
#
# Static dielectric constant tensor:
#      x y z
#    x 1.665520 0.000000 0.000000 
#    y 0.000000 1.567230 0.000000 
#    z 0.000000 0.000000 1.621080 
# 
# From -- ./inp_files/34438.got.cif
#   From: 2010.05.17/outbox.cif.g08.bks.cpg/sg67_18_cif.got.tgz:34438.got - 2010.06.03 18:28:57.
