data_PCOD9500556
_publ_section_title
;
Structure prediction by ZEFSAII (Michael W. Deem and Ramdas Pophale) SiO2 
 PCOD9500556
Probable space group: C M M A
;
_chemical_formula_sum "Si O2"
_cell_formula_units_Z 104
_cell_length_a 27.840713
_cell_length_b 8.322644
_cell_length_c 24.910053
_cell_angle_alpha 90.000000
_cell_angle_beta 90.000000
_cell_angle_gamma 90.000000
_cell_volume 5771.867105
_symmetry_space_group_name_H-M "C M M A"
_symmetry_group_IT_number 67
_symmetry_cell_setting 'orthorhombic'
loop_
_space_group_symop_operation_xyz
x,y,z
-x,1/2-y,z
x,-y,-z
-x,1/2+y,-z
-x,-y,-z
x,1/2+y,-z
-x,y,z
x,1/2-y,z
1/2+x,1/2+y,z
1/2-x,-y,z
1/2+x,1/2-y,-z
1/2-x,y,-z
1/2-x,1/2-y,-z
1/2+x,y,-z
1/2-x,1/2+y,z
1/2+x,-y,z
loop_
_atom_site_type_symbol
_atom_site_label
_atom_site_fract_x
_atom_site_fract_y
_atom_site_fract_z
Si Si1 0.000000 0.554773 0.938821
Si Si2 0.555622 0.944164 0.558851
Si Si3 0.402860 0.063585 0.880480
Si Si4 0.802390 0.558994 0.145428
Si Si5 0.394264 0.554843 0.665910
Si Si6 0.056323 0.437549 0.774131
Si Si7 0.302165 0.056075 0.269535
O O1 0.049877 0.496666 0.911232
O O2 0.000000 0.750000 0.934572
O O3 0.000000 0.500000 0.000000
O O4 0.500000 0.995875 0.566443
O O5 0.555821 0.750000 0.559630
O O6 0.588045 0.003691 0.608221
O O7 0.571418 0.000000 0.500000
O O8 0.399314 0.250000 0.894154
O O9 0.349896 0.990024 0.887352
O O10 0.416044 0.039649 0.817993
O O11 0.800774 0.750000 0.147185
O O12 0.750000 0.500000 0.126355
O O13 0.808293 0.499998 0.207574
O O14 0.392121 0.750000 0.662150
O O15 0.432013 0.517671 0.713152
O O16 0.343740 0.498896 0.690474
O O17 0.071231 0.250000 0.781164
O O18 0.000000 0.449919 0.784058
O O19 0.304083 0.250000 0.268388
O O20 0.250000 0.000000 0.287515
#
# Coordination Sequence:
#
# PCOD9500556 Si02
#       7
#     8  16  16  16  16  16  16
#     4  10  24  42  60  82 112 150 191 226 265 312
#     4   9  17  30  48  67  90 122 160 204 251 299
#     4  11  21  35  53  79 114 146 175 219 269 315
#     4  10  19  33  53  80 110 145 183 220 264 320
#     4   9  16  29  47  69  95 127 166 207 250 305
#     4  10  18  29  48  74 102 135 173 210 255 316
#     4   9  17  29  45  67  98 128 163 204 246 300
#
# _framework density 18.018433999999999
#
# number of rings (size 3 to 8) (size 9 to 14) (size 15 to 20)
#    0.000    2.308    2.308    1.385    0.000    3.692 
#    0.000    1.538    0.000    2.769    0.000    6.462 
#    0.000    0.000    0.000    0.000    0.000    0.000 
#
# Total GULP energy -289823.266877 kJ/mol
# GULP energy per Si atom -5573.524363 kJ/mol
# Density = 1.797742 g / cm^3
# Si number density = 18.018434 Si / 1000 Ang^3
#
#
#
# Elastic Constant Matrix: (Units=GPa)
#
#
# Indices 1 2 3 4 5 6 
#
# 1 144.0856 25.7364 50.8465 0.0000 0.0000 0.0000
# 2 25.7364 9.3123 3.3624 0.0000 0.0000 0.0000
# 3 50.8465 3.3624 61.2066 0.0000 0.0000 0.0000
# 4 0.0000 0.0000 0.0000 15.0006 0.0000 0.0000
# 5 0.0000 0.0000 0.0000 0.0000 15.4857 0.0000
# 6 0.0000 0.0000 0.0000 0.0000 0.0000 23.9212
#
#
#
# Elastic Compliance Matrix: (Units=1/GPa)
#
#
# Indices 1 2 3 4 5 6 
#
# 1 0.022637 -0.056900 -0.015679 0.000000 0.000000 0.000000
# 2 -0.056900 0.252582 0.033393 0.000000 0.000000 0.000000
# 3 -0.015679 0.033393 0.027529 0.000000 0.000000 0.000000
# 4 0.000000 0.000000 0.000000 0.066664 0.000000 0.000000
# 5 0.000000 0.000000 0.000000 0.000000 0.064576 0.000000
# 6 0.000000 0.000000 0.000000 0.000000 0.000000 0.041804
#
#
# Mechanical properties :
#
#
# Convention : Reuss Voigt Hill
#
# Bulk Modulus (GPa) = 4.45682 41.61056 23.03369
# Shear Modulus (GPa) = 7.94969 19.85879 13.90424
#
# Velocity S-wave (km/s) = 2.10275 3.32345 2.78090
# Velocity P-wave (km/s) = 2.89383 6.15390 4.80857
#
# Compressibility (1/GPa) = 0.22437506
#
# Stress axis : x y z
#
# Youngs Moduli (GPa) = 44.17574 3.95912 36.32522
#
# Poissons Ratio (x) = 0.22527 0.56956
# Poissons Ratio (y) = 2.51360 -1.21301
# Poissons Ratio (z) = 0.69265 -0.13221
#
# Static dielectric constant tensor:
#      x y z
#    x 1.644580 0.000000 0.000000 
#    y 0.000000 1.634050 0.000000 
#    z 0.000000 0.000000 1.604230 
# 
# From -- ./inp_files/42771.got.cif
#   From: 2010.05.17/outbox.cif.g08.bks.cpg/sg67_22_cif.got.tgz:42771.got - 2010.06.03 18:28:57.
