data_PCOD9500159
_publ_section_title
;
Structure prediction by ZEFSAII (Michael W. Deem and Ramdas Pophale) SiO2 
 PCOD9500159
Probable space group: C M M A
;
_chemical_formula_sum "Si O2"
_cell_formula_units_Z 104
_cell_length_a 21.738955
_cell_length_b 29.050082
_cell_length_c 7.013118
_cell_angle_alpha 90.000000
_cell_angle_beta 90.000000
_cell_angle_gamma 90.000000
_cell_volume 4428.913236
_symmetry_space_group_name_H-M "C M M A"
_symmetry_group_IT_number 67
_symmetry_cell_setting 'orthorhombic'
loop_
_space_group_symop_operation_xyz
x,y,z
-x,1/2-y,z
x,-y,-z
-x,1/2+y,-z
-x,-y,-z
x,1/2+y,-z
-x,y,z
x,1/2-y,z
1/2+x,1/2+y,z
1/2-x,-y,z
1/2+x,1/2-y,-z
1/2-x,y,-z
1/2-x,1/2-y,-z
1/2+x,y,-z
1/2-x,1/2+y,z
1/2+x,-y,z
loop_
_atom_site_type_symbol
_atom_site_label
_atom_site_fract_x
_atom_site_fract_y
_atom_site_fract_z
Si Si1 0.000000 0.638439 0.149400
Si Si2 0.405691 0.060582 0.167296
Si Si3 0.428619 0.302755 0.602270
Si Si4 0.611730 0.302601 0.153429
Si Si5 0.930817 0.960190 0.726835
Si Si6 0.704453 0.621138 0.782886
Si Si7 0.836710 0.381118 0.345397
O O1 0.053861 0.603569 0.234604
O O2 0.054098 0.671671 0.060673
O O3 0.335516 0.077026 0.154215
O O4 0.415443 0.014237 0.285794
O O5 0.430344 0.051001 0.954233
O O6 0.500000 0.317882 0.610284
O O7 0.423919 0.250000 0.669263
O O8 0.410877 0.301772 0.376497
O O9 0.381192 0.338145 0.694855
O O10 0.620419 0.250000 0.095293
O O11 0.673109 0.332829 0.135080
O O12 0.878487 0.926614 0.651350
O O13 0.000000 0.951004 0.657157
O O14 0.777746 0.616322 0.793199
O O15 0.688809 0.624742 0.557787
#
# Coordination Sequence:
#
# PCOD9500159 Si02
#       7
#     8  16  16  16  16  16  16
#     4  10  15  29  52  77 108 131 165 223 278 310
#     4  10  20  37  58  79 108 142 180 236 279 327
#     4   9  16  29  50  79 110 143 180 223 272 321
#     4   9  16  27  52  82 108 138 179 225 267 318
#     4  11  21  38  58  82 107 140 187 229 286 339
#     4   9  21  37  53  80 114 149 182 227 273 318
#     4  10  21  36  54  80 115 148 184 224 273 333
#
# _framework density 23.482057000000001
#
# number of rings (size 3 to 8) (size 9 to 14) (size 15 to 20)
#    0.000    2.308    2.308    1.154    0.000    2.462 
#    1.385    6.923    0.000    4.615    0.000    5.385 
#    0.000    0.000    0.000    0.000    0.000    0.000 
#
# Total GULP energy -289883.008096 kJ/mol
# GULP energy per Si atom -5574.673233 kJ/mol
# Density = 2.342861 g / cm^3
# Si number density = 23.482057 Si / 1000 Ang^3
#
#
#
# Elastic Constant Matrix: (Units=GPa)
#
#
# Indices 1 2 3 4 5 6 
#
# 1 214.1256 96.1523 26.8414 0.0000 0.0000 0.0000
# 2 96.1523 160.5920 4.8604 0.0000 0.0000 0.0000
# 3 26.8414 4.8604 57.7482 0.0000 0.0000 0.0000
# 4 0.0000 0.0000 0.0000 3.4535 0.0000 0.0000
# 5 0.0000 0.0000 0.0000 0.0000 18.3147 0.0000
# 6 0.0000 0.0000 0.0000 0.0000 0.0000 23.5550
#
#
#
# Elastic Compliance Matrix: (Units=1/GPa)
#
#
# Indices 1 2 3 4 5 6 
#
# 1 0.006821 -0.003998 -0.002834 0.000000 0.000000 0.000000
# 2 -0.003998 0.008586 0.001136 0.000000 0.000000 0.000000
# 3 -0.002834 0.001136 0.018538 0.000000 0.000000 0.000000
# 4 0.000000 0.000000 0.000000 0.289564 0.000000 0.000000
# 5 0.000000 0.000000 0.000000 0.000000 0.054601 0.000000
# 6 0.000000 0.000000 0.000000 0.000000 0.000000 0.042454
#
#
# Mechanical properties :
#
#
# Convention : Reuss Voigt Hill
#
# Bulk Modulus (GPa) = 44.34041 76.46378 60.40209
# Shear Modulus (GPa) = 11.37725 29.37209 20.37467
#
# Velocity S-wave (km/s) = 2.20354 3.54055 2.94882
# Velocity P-wave (km/s) = 5.03962 7.02476 6.11331
#
# Compressibility (1/GPa) = 0.02255279
#
# Stress axis : x y z
#
# Youngs Moduli (GPa) = 146.61307 116.46389 53.94294
#
# Poissons Ratio (x) = 0.46563 0.15286
# Poissons Ratio (y) = 0.58616 -0.06126
# Poissons Ratio (z) = 0.41547 -0.13226
#
# Static dielectric constant tensor:
#      x y z
#    x 1.855480 0.000000 0.000000 
#    y 0.000000 1.872390 0.000000 
#    z 0.000000 0.000000 2.066950 
# 
# From -- ./inp_files/11699.got.cif
#   From: 2010.05.17/outbox.cif.g08.bks.cpg/sg67_6_cif.got.tgz:11699.got - 2010.06.03 18:28:57.
