data_PCOD9500961
_publ_section_title
;
Structure prediction by ZEFSAII (Michael W. Deem and Ramdas Pophale) SiO2 
 PCOD9500961
Probable space group: C M M A
;
_chemical_formula_sum "Si O2"
_cell_formula_units_Z 84
_cell_length_a 14.897071
_cell_length_b 19.303390
_cell_length_c 15.337144
_cell_angle_alpha 90.000000
_cell_angle_beta 90.000000
_cell_angle_gamma 90.000000
_cell_volume 4410.410038
_symmetry_space_group_name_H-M "C M M A"
_symmetry_group_IT_number 67
_symmetry_cell_setting 'orthorhombic'
loop_
_space_group_symop_operation_xyz
x,y,z
-x,1/2-y,z
x,-y,-z
-x,1/2+y,-z
-x,-y,-z
x,1/2+y,-z
-x,y,z
x,1/2-y,z
1/2+x,1/2+y,z
1/2-x,-y,z
1/2+x,1/2-y,-z
1/2-x,y,-z
1/2-x,1/2-y,-z
1/2+x,y,-z
1/2-x,1/2+y,z
1/2+x,-y,z
loop_
_atom_site_type_symbol
_atom_site_label
_atom_site_fract_x
_atom_site_fract_y
_atom_site_fract_z
Si Si1 0.664185 0.450072 0.262722
Si Si2 0.788893 0.332768 0.229335
Si Si3 0.595988 0.332088 0.607341
Si Si4 0.250000 0.500000 0.000000
Si Si5 0.352771 0.571326 0.537195
Si Si6 0.601436 0.560633 0.127947
O O1 0.750000 0.500000 0.277607
O O2 0.700424 0.379900 0.217053
O O3 0.633137 0.430339 0.359542
O O4 0.604914 0.498526 0.200189
O O5 0.779007 0.250000 0.218551
O O6 0.822788 0.348922 0.327963
O O7 0.866774 0.367084 0.170906
O O8 0.500000 0.355175 0.646138
O O9 0.595555 0.250000 0.600941
O O10 0.604887 0.364790 0.512998
O O11 0.319122 0.457356 0.939730
O O12 0.391544 0.500000 0.500000
O O13 0.250000 0.572595 0.500000
O O14 0.500000 0.564576 0.093068
#
# Coordination Sequence:
#
# PCOD9500961 Si02
#       6
#    16  16  16   4  16  16
#     4  10  18  35  55  81 117 153 195 239 286 341
#     4  10  19  35  59  85 119 157 193 240 289 337
#     4  10  21  33  47  75 112 150 197 244 281 325
#     4  12  22  44  70  94 118 140 180 240 300 362
#     4  11  18  29  50  74 107 149 195 243 277 319
#     4  11  23  40  66  93 116 149 190 235 295 361
#
# _framework density 19.045846999999998
#
# number of rings (size 3 to 8) (size 9 to 14) (size 15 to 20)
#    0.000    1.524    6.667    2.000    0.000    3.429 
#    0.000    0.476    0.000    0.571    0.000    0.000 
#    0.000    0.000    0.000    0.000    0.000    0.000 
#
# Total GULP energy -233980.924965 kJ/mol
# GULP energy per Si atom -5570.974404 kJ/mol
# Density = 1.900250 g / cm^3
# Si number density = 19.045847 Si / 1000 Ang^3
#
#
#
# Elastic Constant Matrix: (Units=GPa)
#
#
# Indices 1 2 3 4 5 6 
#
# 1 66.4386 23.6122 16.0865 0.0000 0.0000 0.0000
# 2 23.6122 88.1038 16.5961 0.0000 0.0000 0.0000
# 3 16.0865 16.5961 68.5089 0.0000 0.0000 0.0000
# 4 0.0000 0.0000 0.0000 16.7132 0.0000 0.0000
# 5 0.0000 0.0000 0.0000 0.0000 -2.0742 0.0000
# 6 0.0000 0.0000 0.0000 0.0000 0.0000 11.1382
#
#
#
# Elastic Compliance Matrix: (Units=1/GPa)
#
#
# Indices 1 2 3 4 5 6 
#
# 1 0.017230 -0.004040 -0.003067 0.000000 0.000000 0.000000
# 2 -0.004040 0.012840 -0.002162 0.000000 0.000000 0.000000
# 3 -0.003067 -0.002162 0.015841 0.000000 0.000000 0.000000
# 4 0.000000 0.000000 0.000000 0.059833 0.000000 0.000000
# 5 0.000000 0.000000 0.000000 0.000000 -0.482119 0.000000
# 6 0.000000 0.000000 0.000000 0.000000 0.000000 0.089781
#
#
# Mechanical properties :
#
#
# Convention : Reuss Voigt Hill
#
# Bulk Modulus (GPa) = 36.53257 37.29342 36.91300
# Shear Modulus (GPa) = -19.31010 16.27254 -1.51878
#
# Velocity S-wave (km/s) = -3.18759 2.92616 -0.89396
# Velocity P-wave (km/s) = 2.38230 5.57135 4.28458
#
# Compressibility (1/GPa) = 0.02737284
#
# Stress axis : x y z
#
# Youngs Moduli (GPa) = 58.03863 77.88042 63.12921
#
# Poissons Ratio (x) = 0.31463 0.19362
# Poissons Ratio (y) = 0.23447 0.13648
# Poissons Ratio (z) = 0.17801 0.16837
#
# Static dielectric constant tensor:
#      x y z
#    x 1.769190 0.000000 0.000000 
#    y 0.000000 1.683360 0.000000 
#    z 0.000000 0.000000 1.696820 
# 
# From -- ./inp_files/27085.got.cif
#   From: 2010.05.17/outbox.cif.g08.bks.cpg/sg67_14_cif.got.tgz:27085.got - 2010.06.03 18:28:57.
