data_PCOD9500003
_publ_section_title
;
Structure prediction by ZEFSAII (Michael W. Deem and Ramdas Pophale) SiO2 
 PCOD9500003
Probable space group: C C C M
;
_chemical_formula_sum "Si O2"
_cell_formula_units_Z 40
_cell_length_a 17.017891
_cell_length_b 4.900519
_cell_length_c 21.392761
_cell_angle_alpha 90.000000
_cell_angle_beta 90.000000
_cell_angle_gamma 90.000000
_cell_volume 1784.081354
_symmetry_space_group_name_H-M "C C C M"
_symmetry_group_IT_number 66
_symmetry_cell_setting 'orthorhombic'
loop_
_space_group_symop_operation_xyz
x,y,z
-x,-y,z
x,-y,1/2-z
-x,y,1/2-z
-x,-y,-z
x,y,-z
-x,y,1/2+z
x,-y,1/2+z
1/2+x,1/2+y,z
1/2-x,1/2-y,z
1/2+x,1/2-y,1/2-z
1/2-x,1/2+y,1/2-z
1/2-x,1/2-y,-z
1/2+x,1/2+y,-z
1/2-x,1/2+y,1/2+z
1/2+x,1/2-y,1/2+z
loop_
_atom_site_type_symbol
_atom_site_label
_atom_site_fract_x
_atom_site_fract_y
_atom_site_fract_z
Si Si1 0.191243 0.501231 0.000000
Si Si2 0.166734 0.123081 0.681576
Si Si3 0.410473 0.913277 0.623074
O O1 0.250000 0.250000 0.000000
O O2 0.137409 0.493811 0.061199
O O3 0.250000 0.750000 0.000000
O O4 0.250000 0.250000 0.658262
O O5 0.112647 0.387717 0.679798
O O6 0.121253 0.111014 0.858327
O O7 0.180710 0.000000 0.750000
O O8 0.500000 0.000000 0.610289
#
# Coordination Sequence:
#
# PCOD9500003 Si02
#       3
#     8  16  16
#     4  12  25  44  71  96 129 176 227 276 333 408
#     4  12  25  44  70  99 135 181 229 276 331 406
#     4  12  26  44  68 101 138 174 222 283 346 403
#
# _framework density 22.420504000000001
#
# number of rings (size 3 to 8) (size 9 to 14) (size 15 to 20)
#    0.000    0.000    0.000   12.600    0.000    4.800 
#    0.000    6.000    0.000    0.000    0.000    0.000 
#    0.000    0.000    0.000    0.000    0.000    0.000 
#
# Total GULP energy -111715.002780 kJ/mol
# GULP energy per Si atom -5585.750139 kJ/mol
# Density = 2.236947 g / cm^3
# Si number density = 22.420504 Si / 1000 Ang^3
#
#
#
# Elastic Constant Matrix: (Units=GPa)
#
#
# Indices 1 2 3 4 5 6 
#
# 1 221.7526 80.0120 64.5420 0.0000 0.0000 0.0000
# 2 80.0120 179.3407 41.3376 0.0000 0.0000 0.0000
# 3 64.5420 41.3376 111.0669 0.0000 0.0000 0.0000
# 4 0.0000 0.0000 0.0000 22.5189 0.0000 0.0000
# 5 0.0000 0.0000 0.0000 0.0000 12.7007 0.0000
# 6 0.0000 0.0000 0.0000 0.0000 0.0000 36.8577
#
#
#
# Elastic Compliance Matrix: (Units=1/GPa)
#
#
# Indices 1 2 3 4 5 6 
#
# 1 0.006056 -0.002068 -0.002749 0.000000 0.000000 0.000000
# 2 -0.002068 0.006805 -0.001331 0.000000 0.000000 0.000000
# 3 -0.002749 -0.001331 0.011097 0.000000 0.000000 0.000000
# 4 0.000000 0.000000 0.000000 0.044407 0.000000 0.000000
# 5 0.000000 0.000000 0.000000 0.000000 0.078736 0.000000
# 6 0.000000 0.000000 0.000000 0.000000 0.000000 0.027131
#
#
# Mechanical properties :
#
#
# Convention : Reuss Voigt Hill
#
# Bulk Modulus (GPa) = 85.75715 98.21594 91.98655
# Shear Modulus (GPa) = 26.25817 36.16671 31.21244
#
# Velocity S-wave (km/s) = 3.42595 4.02071 3.73518
# Velocity P-wave (km/s) = 7.34724 8.09050 7.72781
#
# Compressibility (1/GPa) = 0.01166083
#
# Stress axis : x y z
#
# Youngs Moduli (GPa) = 165.12613 146.94062 90.11655
#
# Poissons Ratio (x) = 0.30389 0.24777
# Poissons Ratio (y) = 0.34150 0.11996
# Poissons Ratio (z) = 0.45401 0.19559
#
# Static dielectric constant tensor:
#      x y z
#    x 1.992500 0.000000 0.000000 
#    y 0.000000 1.863570 0.000000 
#    z 0.000000 0.000000 1.810390 
# 
# From -- ./inp_files/40859.got.cif
#   From: 2010.05.17/outbox.cif.g08.bks.cpg/sg66_21_cif.got.tgz:40859.got - 2010.06.03 17:51:23.
