data_PCOD9500767
_publ_section_title
;
Structure prediction by ZEFSAII (Michael W. Deem and Ramdas Pophale) SiO2 
 PCOD9500767
Probable space group: C M M A
;
_chemical_formula_sum "Si O2"
_cell_formula_units_Z 76
_cell_length_a 27.163446
_cell_length_b 7.498702
_cell_length_c 18.888281
_cell_angle_alpha 90.000000
_cell_angle_beta 90.000000
_cell_angle_gamma 90.000000
_cell_volume 3847.365041
_symmetry_space_group_name_H-M "C M M A"
_symmetry_group_IT_number 67
_symmetry_cell_setting 'orthorhombic'
loop_
_space_group_symop_operation_xyz
x,y,z
-x,1/2-y,z
x,-y,-z
-x,1/2+y,-z
-x,-y,-z
x,1/2+y,-z
-x,y,z
x,1/2-y,z
1/2+x,1/2+y,z
1/2-x,-y,z
1/2+x,1/2-y,-z
1/2-x,y,-z
1/2-x,1/2-y,-z
1/2+x,y,-z
1/2-x,1/2+y,z
1/2+x,-y,z
loop_
_atom_site_type_symbol
_atom_site_label
_atom_site_fract_x
_atom_site_fract_y
_atom_site_fract_z
Si Si1 0.795240 0.750000 0.447054
Si Si2 0.893496 0.250000 0.457396
Si Si3 0.403568 0.036557 0.224149
Si Si4 0.000000 0.461002 0.679812
Si Si5 0.443477 0.963924 0.921057
Si Si6 0.144526 0.546371 0.356796
Si Si7 0.000000 0.750000 0.556067
O O1 0.750000 0.750000 0.500000
O O2 0.845849 0.750000 0.492833
O O3 0.803132 0.919975 0.395187
O O4 0.886590 0.420949 0.407336
O O5 0.948766 0.250000 0.486493
O O6 0.398695 0.250000 0.215079
O O7 0.452418 0.000512 0.270997
O O8 0.412235 0.965431 0.145309
O O9 0.359412 0.979001 0.276512
O O10 0.000000 0.250000 0.664239
O O11 0.000000 0.581771 0.610004
O O12 0.500000 0.031497 0.916601
O O13 0.446420 0.750000 0.914247
O O14 0.424575 0.000000 0.000000
O O15 0.124238 0.750000 0.354962
#
# Coordination Sequence:
#
# PCOD9500767 Si02
#       7
#     8   8  16   8  16  16   4
#     4  10  24  46  66  84 108 143 186 237 304 356
#     4  12  22  38  56  84 117 139 185 232 279 338
#     4   9  15  30  50  68  95 145 191 226 275 329
#     4  10  18  32  50  69 101 151 189 233 273 322
#     4   9  16  26  39  62  96 138 187 233 271 313
#     4   9  21  37  58  79 105 142 186 231 277 344
#     4  12  24  32  52  84 112 142 192 226 272 338
#
# _framework density 19.753779000000002
#
# number of rings (size 3 to 8) (size 9 to 14) (size 15 to 20)
#    0.632    1.684    3.158    0.632    0.000    1.684 
#    3.789    3.158    0.000    0.000    0.000    0.000 
#    0.000    0.000    0.000    5.684    0.000    0.211 
#
# Total GULP energy -211642.152721 kJ/mol
# GULP energy per Si atom -5569.530335 kJ/mol
# Density = 1.970882 g / cm^3
# Si number density = 19.753779 Si / 1000 Ang^3
#
#
#
# Elastic Constant Matrix: (Units=GPa)
#
#
# Indices 1 2 3 4 5 6 
#
# 1 97.7717 9.7353 67.8874 0.0000 0.0000 0.0000
# 2 9.7353 67.4655 8.3440 0.0000 0.0000 0.0000
# 3 67.8874 8.3440 168.5182 0.0000 0.0000 0.0000
# 4 0.0000 0.0000 0.0000 -2.2292 0.0000 0.0000
# 5 0.0000 0.0000 0.0000 0.0000 22.6334 0.0000
# 6 0.0000 0.0000 0.0000 0.0000 0.0000 3.3684
#
#
#
# Elastic Compliance Matrix: (Units=1/GPa)
#
#
# Indices 1 2 3 4 5 6 
#
# 1 0.014323 -0.001362 -0.005703 0.000000 0.000000 0.000000
# 2 -0.001362 0.015043 -0.000196 0.000000 0.000000 0.000000
# 3 -0.005703 -0.000196 0.008241 0.000000 0.000000 0.000000
# 4 0.000000 0.000000 0.000000 -0.448594 0.000000 0.000000
# 5 0.000000 0.000000 0.000000 0.000000 0.044182 0.000000
# 6 0.000000 0.000000 0.000000 0.000000 0.000000 0.296876
#
#
# Mechanical properties :
#
#
# Convention : Reuss Voigt Hill
#
# Bulk Modulus (GPa) = 43.31575 56.18766 49.75170
# Shear Modulus (GPa) = -104.79595 21.27377 -41.76109
#
# Velocity S-wave (km/s) = -7.29152 3.28525 -4.60290
# Velocity P-wave (km/s) = 6.99378 6.54952 1.73446
#
# Compressibility (1/GPa) = 0.02308629
#
# Stress axis : x y z
#
# Youngs Moduli (GPa) = 69.81738 66.47543 121.34310
#
# Poissons Ratio (x) = 0.09051 0.69197
# Poissons Ratio (y) = 0.09506 0.02383
# Poissons Ratio (z) = 0.39814 0.01305
#
# Static dielectric constant tensor:
#      x y z
#    x 1.717040 0.000000 0.000000 
#    y 0.000000 1.794290 0.000000 
#    z 0.000000 0.000000 1.785270 
# 
# From -- ./inp_files/35832.got.cif
#   From: 2010.05.17/outbox.cif.g08.bks.cpg/sg67_18_cif.got.tgz:35832.got - 2010.06.03 18:28:57.
