data_PCOD9500947
_publ_section_title
;
Structure prediction by ZEFSAII (Michael W. Deem and Ramdas Pophale) SiO2 
 PCOD9500947
Probable space group: C M M A
;
_chemical_formula_sum "Si O2"
_cell_formula_units_Z 60
_cell_length_a 14.811871
_cell_length_b 22.708465
_cell_length_c 8.873172
_cell_angle_alpha 90.000000
_cell_angle_beta 90.000000
_cell_angle_gamma 90.000000
_cell_volume 2984.534474
_symmetry_space_group_name_H-M "C M M A"
_symmetry_group_IT_number 67
_symmetry_cell_setting 'orthorhombic'
loop_
_space_group_symop_operation_xyz
x,y,z
-x,1/2-y,z
x,-y,-z
-x,1/2+y,-z
-x,-y,-z
x,1/2+y,-z
-x,y,z
x,1/2-y,z
1/2+x,1/2+y,z
1/2-x,-y,z
1/2+x,1/2-y,-z
1/2-x,y,-z
1/2-x,1/2-y,-z
1/2+x,y,-z
1/2-x,1/2+y,z
1/2+x,-y,z
loop_
_atom_site_type_symbol
_atom_site_label
_atom_site_fract_x
_atom_site_fract_y
_atom_site_fract_z
Si Si1 0.786366 0.250000 0.671899
Si Si2 0.500000 0.346440 0.993281
Si Si3 0.151986 0.437638 0.065989
Si Si4 0.690568 0.869399 0.354524
Si Si5 0.000000 0.816385 0.645139
Si Si6 0.000000 0.750000 0.247347
O O1 0.750000 0.250000 0.500000
O O2 0.740851 0.187510 0.726380
O O3 0.895561 0.250000 0.686013
O O4 0.413457 0.387682 0.992613
O O5 0.500000 0.316547 0.827927
O O6 0.500000 0.305337 0.135519
O O7 0.167895 0.423552 0.242884
O O8 0.118418 0.500000 0.000000
O O9 0.250000 0.430491 0.000000
O O10 0.750000 0.885190 0.500000
O O11 0.591969 0.846882 0.405410
O O12 0.000000 0.750000 0.591638
#
# Coordination Sequence:
#
# PCOD9500947 Si02
#       6
#     8   8  16  16   8   4
#     4  10  22  35  54  89 127 162 199 244 307 378
#     4  10  21  36  60  92 122 156 208 256 318 380
#     4  10  21  39  62  87 120 160 209 268 315 351
#     4  10  21  37  59  91 127 166 205 247 312 387
#     4  10  18  34  57  89 131 165 193 246 310 371
#     4  12  22  36  60  92 122 166 200 256 314 388
#
# _framework density 20.103636999999999
#
# number of rings (size 3 to 8) (size 9 to 14) (size 15 to 20)
#    0.000    1.867    2.000    2.000    0.000    4.267 
#    0.000    8.000    0.000    1.600    0.000   31.733 
#    0.000    0.000    0.000    0.000    0.000    0.000 
#
# Total GULP energy -167087.371461 kJ/mol
# GULP energy per Si atom -5569.579049 kJ/mol
# Density = 2.005788 g / cm^3
# Si number density = 20.103637 Si / 1000 Ang^3
#
#
#
# Elastic Constant Matrix: (Units=GPa)
#
#
# Indices 1 2 3 4 5 6 
#
# 1 157.7790 39.0574 41.9718 0.0000 0.0000 0.0000
# 2 39.0574 101.6960 56.3069 0.0000 0.0000 0.0000
# 3 41.9718 56.3069 78.0672 0.0000 0.0000 0.0000
# 4 0.0000 0.0000 0.0000 27.6261 0.0000 0.0000
# 5 0.0000 0.0000 0.0000 0.0000 31.8572 0.0000
# 6 0.0000 0.0000 0.0000 0.0000 0.0000 -61.1059
#
#
#
# Elastic Compliance Matrix: (Units=1/GPa)
#
#
# Indices 1 2 3 4 5 6 
#
# 1 0.007465 -0.001074 -0.003239 0.000000 0.000000 0.000000
# 2 -0.001074 0.016525 -0.011342 0.000000 0.000000 0.000000
# 3 -0.003239 -0.011342 0.022731 0.000000 0.000000 0.000000
# 4 0.000000 0.000000 0.000000 0.036198 0.000000 0.000000
# 5 0.000000 0.000000 0.000000 0.000000 0.031390 0.000000
# 6 0.000000 0.000000 0.000000 0.000000 0.000000 -0.016365
#
#
# Mechanical properties :
#
#
# Convention : Reuss Voigt Hill
#
# Bulk Modulus (GPa) = 64.88182 68.02382 66.45282
# Shear Modulus (GPa) = 37.20458 13.02257 25.11358
#
# Velocity S-wave (km/s) = 4.30657 2.54790 3.53824
# Velocity P-wave (km/s) = 7.55463 6.52424 7.05827
#
# Compressibility (1/GPa) = 0.01541264
#
# Stress axis : x y z
#
# Youngs Moduli (GPa) = 133.94997 60.51330 43.99184
#
# Poissons Ratio (x) = 0.06497 0.14250
# Poissons Ratio (y) = 0.14381 0.49895
# Poissons Ratio (z) = 0.43391 0.68633
#
# Static dielectric constant tensor:
#      x y z
#    x 1.684330 0.000000 0.000000 
#    y 0.000000 1.746360 0.000000 
#    z 0.000000 0.000000 1.799560 
# 
# From -- ./inp_files/7911.got.cif
#   From: 2010.05.17/outbox.cif.g08.bks.cpg/sg67_4_cif.got.tgz:7911.got - 2010.06.03 18:28:57.
