data_PCOD9500316
_publ_section_title
;
Structure prediction by ZEFSAII (Michael W. Deem and Ramdas Pophale) SiO2 
 PCOD9500316
Probable space group: C M M A
;
_chemical_formula_sum "Si O2"
_cell_formula_units_Z 104
_cell_length_a 8.913633
_cell_length_b 27.990918
_cell_length_c 24.719721
_cell_angle_alpha 90.000000
_cell_angle_beta 90.000000
_cell_angle_gamma 90.000000
_cell_volume 6167.589433
_symmetry_space_group_name_H-M "C M M A"
_symmetry_group_IT_number 67
_symmetry_cell_setting 'orthorhombic'
loop_
_space_group_symop_operation_xyz
x,y,z
-x,1/2-y,z
x,-y,-z
-x,1/2+y,-z
-x,-y,-z
x,1/2+y,-z
-x,y,z
x,1/2-y,z
1/2+x,1/2+y,z
1/2-x,-y,z
1/2+x,1/2-y,-z
1/2-x,y,-z
1/2-x,1/2-y,-z
1/2+x,y,-z
1/2-x,1/2+y,z
1/2+x,-y,z
loop_
_atom_site_type_symbol
_atom_site_label
_atom_site_fract_x
_atom_site_fract_y
_atom_site_fract_z
Si Si1 0.173325 0.308267 0.055979
Si Si2 0.330150 0.807047 0.834051
Si Si3 0.322934 0.857910 0.260403
Si Si4 0.677975 0.046419 0.273216
Si Si5 0.820945 0.750000 0.440784
Si Si6 0.320618 0.343725 0.612323
Si Si7 0.180746 0.548795 0.606196
O O1 0.176569 0.250000 0.056209
O O2 0.259767 0.324842 0.109636
O O3 0.000000 0.322701 0.057875
O O4 0.250000 0.323529 0.000000
O O5 0.500000 0.824837 0.826173
O O6 0.337300 0.750000 0.838540
O O7 0.227578 0.819206 0.782849
O O8 0.500000 0.867672 0.257454
O O9 0.228676 0.904925 0.245932
O O10 0.290531 0.844828 0.322984
O O11 0.500000 0.042225 0.278696
O O12 0.754889 0.048909 0.332690
O O13 0.750000 0.000000 0.246193
O O14 0.750000 0.750000 0.500000
O O15 0.764058 0.798583 0.412240
O O16 0.000000 0.750000 0.442965
O O17 0.500000 0.337585 0.605130
O O18 0.282179 0.396643 0.587792
O O19 0.250000 0.500000 0.580626
O O20 0.000000 0.544578 0.606807
#
# Coordination Sequence:
#
# PCOD9500316 Si02
#       7
#    16  16  16  16   8  16  16
#     4   9  16  27  43  61  83 117 161 205 248 292
#     4  10  20  31  43  64  95 129 165 205 245 291
#     4  10  20  33  49  71 100 133 164 199 246 296
#     4  10  17  27  44  66  95 128 162 199 238 288
#     4  12  26  42  62  80 100 132 173 216 255 294
#     4   9  20  37  55  77 105 136 170 207 252 302
#     4   9  16  28  49  77 106 135 163 200 245 297
#
# _framework density 16.862342000000002
#
# number of rings (size 3 to 8) (size 9 to 14) (size 15 to 20)
#    0.000    2.308    0.000    5.769    1.077    6.462 
#    0.000    0.000    0.000    0.462    0.000    3.231 
#    0.000    0.615    0.000    6.154    0.000    4.154 
#
# Total GULP energy -289642.728039 kJ/mol
# GULP energy per Si atom -5570.052462 kJ/mol
# Density = 1.682396 g / cm^3
# Si number density = 16.862342 Si / 1000 Ang^3
#
#
#
# Elastic Constant Matrix: (Units=GPa)
#
#
# Indices 1 2 3 4 5 6 
#
# 1 93.9032 53.7406 36.6914 0.0000 0.0000 0.0000
# 2 53.7406 97.5322 39.1797 0.0000 0.0000 0.0000
# 3 36.6914 39.1797 54.6189 0.0000 0.0000 0.0000
# 4 0.0000 0.0000 0.0000 -7.3260 0.0000 0.0000
# 5 0.0000 0.0000 0.0000 0.0000 22.6168 0.0000
# 6 0.0000 0.0000 0.0000 0.0000 0.0000 26.4400
#
#
#
# Elastic Compliance Matrix: (Units=1/GPa)
#
#
# Indices 1 2 3 4 5 6 
#
# 1 0.017116 -0.006760 -0.006649 0.000000 0.000000 0.000000
# 2 -0.006760 0.017073 -0.007706 0.000000 0.000000 0.000000
# 3 -0.006649 -0.007706 0.028303 0.000000 0.000000 0.000000
# 4 0.000000 0.000000 0.000000 -0.136501 0.000000 0.000000
# 5 0.000000 0.000000 0.000000 0.000000 0.044215 0.000000
# 6 0.000000 0.000000 0.000000 0.000000 0.000000 0.037821
#
#
# Mechanical properties :
#
#
# Convention : Reuss Voigt Hill
#
# Bulk Modulus (GPa) = 49.35231 56.14197 52.74714
# Shear Modulus (GPa) = 87.70063 16.10901 51.90482
#
# Velocity S-wave (km/s) = 7.21960 3.09419 5.55413
# Velocity P-wave (km/s) = 9.94124 6.79205 8.51352
#
# Compressibility (1/GPa) = 0.02026248
#
# Stress axis : x y z
#
# Youngs Moduli (GPa) = 58.42495 58.57050 35.33199
#
# Poissons Ratio (x) = 0.39594 0.23492
# Poissons Ratio (y) = 0.39496 0.27227
# Poissons Ratio (z) = 0.38846 0.45135
#
# Static dielectric constant tensor:
#      x y z
#    x 1.578940 0.000000 0.000000 
#    y 0.000000 1.637460 0.000000 
#    z 0.000000 0.000000 1.550830 
# 
# From -- ./inp_files/41178.got.cif
#   From: 2010.05.17/outbox.cif.g08.bks.cpg/sg67_21_cif.got.tgz:41178.got - 2010.06.03 18:28:57.
