data_PCOD9500824
_publ_section_title
;
Structure prediction by ZEFSAII (Michael W. Deem and Ramdas Pophale) SiO2 
 PCOD9500824
Probable space group: C M M A
;
_chemical_formula_sum "Si O2"
_cell_formula_units_Z 112
_cell_length_a 19.195483
_cell_length_b 19.564767
_cell_length_c 17.487749
_cell_angle_alpha 90.000000
_cell_angle_beta 90.000000
_cell_angle_gamma 90.000000
_cell_volume 6567.614240
_symmetry_space_group_name_H-M "C M M A"
_symmetry_group_IT_number 67
_symmetry_cell_setting 'orthorhombic'
loop_
_space_group_symop_operation_xyz
x,y,z
-x,1/2-y,z
x,-y,-z
-x,1/2+y,-z
-x,-y,-z
x,1/2+y,-z
-x,y,z
x,1/2-y,z
1/2+x,1/2+y,z
1/2-x,-y,z
1/2+x,1/2-y,-z
1/2-x,y,-z
1/2-x,1/2-y,-z
1/2+x,y,-z
1/2-x,1/2+y,z
1/2+x,-y,z
loop_
_atom_site_type_symbol
_atom_site_label
_atom_site_fract_x
_atom_site_fract_y
_atom_site_fract_z
Si Si1 0.916115 0.908182 0.106197
Si Si2 0.674030 0.921786 0.471359
Si Si3 0.416532 0.175031 0.429704
Si Si4 0.824240 0.539655 0.870827
Si Si5 0.917062 0.399419 0.718705
Si Si6 0.668701 0.671194 0.022661
Si Si7 0.673440 0.468958 0.692676
O O1 0.898953 0.885066 0.193301
O O2 0.878791 0.858021 0.046426
O O3 0.000000 0.909884 0.096141
O O4 0.882354 0.984267 0.103015
O O5 0.750000 0.897412 0.500000
O O6 0.616025 0.879570 0.514524
O O7 0.664033 0.920168 0.379919
O O8 0.669225 0.000000 0.500000
O O9 0.500000 0.172953 0.433703
O O10 0.391772 0.250000 0.450816
O O11 0.396980 0.157783 0.342243
O O12 0.750000 0.500000 0.884309
O O13 0.829189 0.555727 0.780235
O O14 0.833630 0.610878 0.914438
O O15 0.880948 0.468869 0.691201
O O16 0.000000 0.408345 0.716382
O O17 0.648694 0.750000 0.042835
O O18 0.750000 0.673451 0.000000
O O19 0.750000 0.500000 0.680882
#
# Coordination Sequence:
#
# PCOD9500824 Si02
#       7
#    16  16  16  16  16  16  16
#     4  10  21  36  60  88 111 141 186 235 279 328
#     4  11  19  33  54  80 111 140 180 228 271 316
#     4  10  21  35  52  77 112 150 184 221 272 332
#     4  10  20  36  60  81 110 147 186 232 280 323
#     4   9  18  33  53  81 110 137 178 227 279 325
#     4  11  23  38  55  81 114 148 185 222 272 338
#     4  10  18  32  54  81 106 140 181 227 273 322
#
# _framework density 17.053376
#
# number of rings (size 3 to 8) (size 9 to 14) (size 15 to 20)
#    0.000    1.857    4.286    0.429    0.000    3.143 
#    0.000    2.143    0.000    0.000    0.000    0.000 
#    0.000    0.000    0.000    0.000    0.000    0.000 
#
# Total GULP energy -312068.161020 kJ/mol
# GULP energy per Si atom -5572.645733 kJ/mol
# Density = 1.701456 g / cm^3
# Si number density = 17.053376 Si / 1000 Ang^3
#
#
#
# Elastic Constant Matrix: (Units=GPa)
#
#
# Indices 1 2 3 4 5 6 
#
# 1 45.0828 31.6094 37.3052 0.0000 0.0000 0.0000
# 2 31.6094 95.8618 60.5626 0.0000 0.0000 0.0000
# 3 37.3052 60.5626 106.7763 0.0000 0.0000 0.0000
# 4 0.0000 0.0000 0.0000 13.1719 0.0000 0.0000
# 5 0.0000 0.0000 0.0000 0.0000 60.8668 0.0000
# 6 0.0000 0.0000 0.0000 0.0000 0.0000 14.1355
#
#
#
# Elastic Compliance Matrix: (Units=1/GPa)
#
#
# Indices 1 2 3 4 5 6 
#
# 1 0.033032 -0.005612 -0.008358 0.000000 0.000000 0.000000
# 2 -0.005612 0.017211 -0.007801 0.000000 0.000000 0.000000
# 3 -0.008358 -0.007801 0.016710 0.000000 0.000000 0.000000
# 4 0.000000 0.000000 0.000000 0.075919 0.000000 0.000000
# 5 0.000000 0.000000 0.000000 0.000000 0.016429 0.000000
# 6 0.000000 0.000000 0.000000 0.000000 0.000000 0.070744
#
#
# Mechanical properties :
#
#
# Convention : Reuss Voigt Hill
#
# Bulk Modulus (GPa) = 42.71405 56.29727 49.50566
# Shear Modulus (GPa) = 17.76894 25.51775 21.64334
#
# Velocity S-wave (km/s) = 3.23144 3.87246 3.56638
# Velocity P-wave (km/s) = 6.24697 7.28551 6.78613
#
# Compressibility (1/GPa) = 0.02341150
#
# Stress axis : x y z
#
# Youngs Moduli (GPa) = 30.27386 58.10375 59.84437
#
# Poissons Ratio (x) = 0.32607 0.50015
# Poissons Ratio (y) = 0.16989 0.46685
# Poissons Ratio (z) = 0.25302 0.45327
#
# Static dielectric constant tensor:
#      x y z
#    x 1.576370 0.000000 0.000000 
#    y 0.000000 1.566780 0.000000 
#    z 0.000000 0.000000 1.614850 
# 
# From -- ./inp_files/35095.got.cif
#   From: 2010.05.17/outbox.cif.g08.bks.cpg/sg67_18_cif.got.tgz:35095.got - 2010.06.03 18:28:57.
