data_PCOD9500226
_publ_section_title
;
Structure prediction by ZEFSAII (Michael W. Deem and Ramdas Pophale) SiO2 
 PCOD9500226
Probable space group: C M M A
;
_chemical_formula_sum "Si O2"
_cell_formula_units_Z 96
_cell_length_a 24.291425
_cell_length_b 8.254676
_cell_length_c 26.824709
_cell_angle_alpha 90.000000
_cell_angle_beta 90.000000
_cell_angle_gamma 90.000000
_cell_volume 5378.832787
_symmetry_space_group_name_H-M "C M M A"
_symmetry_group_IT_number 67
_symmetry_cell_setting 'orthorhombic'
loop_
_space_group_symop_operation_xyz
x,y,z
-x,1/2-y,z
x,-y,-z
-x,1/2+y,-z
-x,-y,-z
x,1/2+y,-z
-x,y,z
x,1/2-y,z
1/2+x,1/2+y,z
1/2-x,-y,z
1/2+x,1/2-y,-z
1/2-x,y,-z
1/2-x,1/2-y,-z
1/2+x,y,-z
1/2-x,1/2+y,z
1/2+x,-y,z
loop_
_atom_site_type_symbol
_atom_site_label
_atom_site_fract_x
_atom_site_fract_y
_atom_site_fract_z
Si Si1 0.500000 0.438461 0.321802
Si Si2 0.612186 0.556530 0.739062
Si Si3 0.500000 0.562967 0.429099
Si Si4 0.878738 0.055732 0.447266
Si Si5 0.436297 0.443276 0.947551
Si Si6 0.564188 0.445488 0.159445
Si Si7 0.312668 0.055671 0.349677
O O1 0.500000 0.250000 0.338926
O O2 0.554114 0.462887 0.289156
O O3 0.500000 0.551817 0.369425
O O4 0.622199 0.750000 0.743920
O O5 0.601437 0.492897 0.794782
O O6 0.658224 0.492128 0.701099
O O7 0.500000 0.750000 0.445558
O O8 0.441664 0.489032 0.445084
O O9 0.880631 0.250000 0.445971
O O10 0.854009 0.000000 0.500000
O O11 0.846232 0.998998 0.398516
O O12 0.500000 0.504124 0.947797
O O13 0.436778 0.250000 0.946903
O O14 0.413928 0.505475 0.894922
O O15 0.411083 0.500000 0.000000
O O16 0.500000 0.501614 0.164613
O O17 0.562389 0.250000 0.162247
O O18 0.314891 0.250000 0.348545
O O19 0.250000 0.000000 0.352794
#
# Coordination Sequence:
#
# PCOD9500226 Si02
#       7
#     8  16   8  16  16  16  16
#     4  10  16  29  53  78 100 131 168 201 243 305
#     4   9  17  30  52  77 100 128 166 206 248 300
#     4  10  21  35  53  82 114 135 159 199 248 297
#     4  11  23  39  58  82 108 135 166 203 248 300
#     4   9  16  25  36  55  87 129 171 205 239 281
#     4   9  15  25  43  67  94 125 162 202 242 288
#     4  11  23  40  59  78 101 133 171 212 255 302
#
# _framework density 17.847739000000001
#
# number of rings (size 3 to 8) (size 9 to 14) (size 15 to 20)
#    0.000    2.167    2.500    1.750    0.000    3.000 
#    0.000    4.167    0.000    0.000    0.000    0.000 
#    0.000    0.667    0.000    7.667    0.000    2.667 
#
# Total GULP energy -267555.515670 kJ/mol
# GULP energy per Si atom -5574.073243 kJ/mol
# Density = 1.780712 g / cm^3
# Si number density = 17.847739 Si / 1000 Ang^3
#
#
#
# Elastic Constant Matrix: (Units=GPa)
#
#
# Indices 1 2 3 4 5 6 
#
# 1 83.8057 13.9695 54.5193 0.0000 0.0000 0.0000
# 2 13.9695 27.5242 22.5107 0.0000 0.0000 0.0000
# 3 54.5193 22.5107 183.9904 0.0000 0.0000 0.0000
# 4 0.0000 0.0000 0.0000 23.5432 0.0000 0.0000
# 5 0.0000 0.0000 0.0000 0.0000 -1.9344 0.0000
# 6 0.0000 0.0000 0.0000 0.0000 0.0000 3.6284
#
#
#
# Elastic Compliance Matrix: (Units=1/GPa)
#
#
# Indices 1 2 3 4 5 6 
#
# 1 0.015267 -0.004499 -0.003973 0.000000 0.000000 0.000000
# 2 -0.004499 0.041697 -0.003768 0.000000 0.000000 0.000000
# 3 -0.003973 -0.003768 0.007074 0.000000 0.000000 0.000000
# 4 0.000000 0.000000 0.000000 0.042475 0.000000 0.000000
# 5 0.000000 0.000000 0.000000 0.000000 -0.516944 0.000000
# 6 0.000000 0.000000 0.000000 0.000000 0.000000 0.275607
#
#
# Mechanical properties :
#
#
# Convention : Reuss Voigt Hill
#
# Bulk Modulus (GPa) = 25.28050 53.03547 39.15798
# Shear Modulus (GPa) = -51.46319 18.66881 -16.39719
#
# Velocity S-wave (km/s) = -5.37561 3.23771 -3.03434
# Velocity P-wave (km/s) = 4.93298 6.61491 3.11631
#
# Compressibility (1/GPa) = 0.03955618
#
# Stress axis : x y z
#
# Youngs Moduli (GPa) = 65.49986 23.98248 141.37220
#
# Poissons Ratio (x) = 0.10790 0.56174
# Poissons Ratio (y) = 0.29468 0.53275
# Poissons Ratio (z) = 0.26026 0.09038
#
# Static dielectric constant tensor:
#      x y z
#    x 1.602430 0.000000 0.000000 
#    y 0.000000 1.646850 0.000000 
#    z 0.000000 0.000000 1.648420 
# 
# From -- ./inp_files/42589.got.cif
#   From: 2010.05.17/outbox.cif.g08.bks.cpg/sg67_22_cif.got.tgz:42589.got - 2010.06.03 18:28:57.
