data_PCOD9500368
_publ_section_title
;
Structure prediction by ZEFSAII (Michael W. Deem and Ramdas Pophale) SiO2 
 PCOD9500368
Probable space group: C M M A
;
_chemical_formula_sum "Si O2"
_cell_formula_units_Z 80
_cell_length_a 14.854400
_cell_length_b 8.813829
_cell_length_c 27.444166
_cell_angle_alpha 90.000000
_cell_angle_beta 90.000000
_cell_angle_gamma 90.000000
_cell_volume 3593.103873
_symmetry_space_group_name_H-M "C M M A"
_symmetry_group_IT_number 67
_symmetry_cell_setting 'orthorhombic'
loop_
_space_group_symop_operation_xyz
x,y,z
-x,1/2-y,z
x,-y,-z
-x,1/2+y,-z
-x,-y,-z
x,1/2+y,-z
-x,y,z
x,1/2-y,z
1/2+x,1/2+y,z
1/2-x,-y,z
1/2+x,1/2-y,-z
1/2-x,y,-z
1/2-x,1/2-y,-z
1/2+x,y,-z
1/2-x,1/2+y,z
1/2+x,-y,z
loop_
_atom_site_type_symbol
_atom_site_label
_atom_site_fract_x
_atom_site_fract_y
_atom_site_fract_z
Si Si1 0.647853 0.932197 0.049630
Si Si2 0.610230 0.926937 0.655941
Si Si3 0.349384 0.429724 0.147569
Si Si4 0.890982 0.571384 0.450050
Si Si5 0.393896 0.917259 0.246467
O O1 0.650119 0.750000 0.048003
O O2 0.750000 0.000000 0.050321
O O3 0.606497 0.990668 0.100371
O O4 0.607111 0.000000 0.000000
O O5 0.500000 0.929441 0.656051
O O6 0.635634 0.750000 0.659894
O O7 0.638847 0.989096 0.602883
O O8 0.643162 0.016668 0.703128
O O9 0.348446 0.250000 0.140095
O O10 0.250000 0.500000 0.149569
O O11 0.386658 0.473490 0.200219
O O12 0.856427 0.500000 0.500000
O O13 0.871961 0.750000 0.450658
O O14 0.000000 0.554211 0.450635
O O15 0.500000 0.900781 0.254792
O O16 0.355508 0.750000 0.234936
#
# Coordination Sequence:
#
# PCOD9500368 Si02
#       5
#    16  16  16  16  16
#     4  10  17  28  46  70  98 125 156 192 234 280
#     4   8  14  25  39  56  81 115 153 190 230 278
#     4  11  21  34  52  74 100 128 160 198 240 282
#     4   8  13  20  31  49  75 107 143 183 227 274
#     4  10  20  33  49  70  96 127 163 200 238 284
#
# _framework density 22.264872
#
# number of rings (size 3 to 8) (size 9 to 14) (size 15 to 20)
#    0.000    2.600    0.000    7.200    0.000    2.000 
#    0.000    4.000    0.000    0.600    0.000    0.000 
#    0.000    0.800    0.000    8.400    0.000   12.200 
#
# Total GULP energy -223147.799972 kJ/mol
# GULP energy per Si atom -5578.694999 kJ/mol
# Density = 2.221420 g / cm^3
# Si number density = 22.264872 Si / 1000 Ang^3
#
#
#
# Elastic Constant Matrix: (Units=GPa)
#
#
# Indices 1 2 3 4 5 6 
#
# 1 46.0768 11.8721 11.5854 0.0000 0.0000 0.0000
# 2 11.8721 153.1417 86.6566 0.0000 0.0000 0.0000
# 3 11.5854 86.6566 228.6493 0.0000 0.0000 0.0000
# 4 0.0000 0.0000 0.0000 41.3148 0.0000 0.0000
# 5 0.0000 0.0000 0.0000 0.0000 -314.1856 0.0000
# 6 0.0000 0.0000 0.0000 0.0000 0.0000 5.1255
#
#
#
# Elastic Compliance Matrix: (Units=1/GPa)
#
#
# Indices 1 2 3 4 5 6 
#
# 1 0.022210 -0.001381 -0.000602 0.000000 0.000000 0.000000
# 2 -0.001381 0.008398 -0.003113 0.000000 0.000000 0.000000
# 3 -0.000602 -0.003113 0.005584 0.000000 0.000000 0.000000
# 4 0.000000 0.000000 0.000000 0.024204 0.000000 0.000000
# 5 0.000000 0.000000 0.000000 0.000000 -0.003183 0.000000
# 6 0.000000 0.000000 0.000000 0.000000 0.000000 0.195102
#
#
# Mechanical properties :
#
#
# Convention : Reuss Voigt Hill
#
# Bulk Modulus (GPa) = 38.46119 72.01064 55.23592
# Shear Modulus (GPa) = 18.43830 -32.36548 -6.96359
#
# Velocity S-wave (km/s) = 2.88085 -3.81682 -1.77042
# Velocity P-wave (km/s) = 5.32707 3.60399 4.54788
#
# Compressibility (1/GPa) = 0.02600024
#
# Stress axis : x y z
#
# Youngs Moduli (GPa) = 45.02450 119.06899 179.08916
#
# Poissons Ratio (x) = 0.16446 0.10779
# Poissons Ratio (y) = 0.06219 0.55750
# Poissons Ratio (z) = 0.02710 0.37066
#
# Static dielectric constant tensor:
#      x y z
#    x 1.930880 0.000000 0.000000 
#    y 0.000000 1.773850 0.000000 
#    z 0.000000 0.000000 1.891210 
# 
# From -- ./inp_files/44441.got.cif
#   From: 2010.05.17/outbox.cif.g08.bks.cpg/sg67_23_cif.got.tgz:44441.got - 2010.06.03 18:28:57.
