data_PCOD9500068
_publ_section_title
;
Structure prediction by ZEFSAII (Michael W. Deem and Ramdas Pophale) SiO2 
 PCOD9500068
Probable space group: C C C M
;
_chemical_formula_sum "Si O2"
_cell_formula_units_Z 48
_cell_length_a 15.000000
_cell_length_b 21.000000
_cell_length_c 15.000000
_cell_angle_alpha 90.000000
_cell_angle_beta 90.000000
_cell_angle_gamma 90.000000
_cell_volume 4725.000000
_symmetry_space_group_name_H-M "C C C M"
_symmetry_group_IT_number 66
_symmetry_cell_setting 'orthorhombic'
loop_
_space_group_symop_operation_xyz
x,y,z
-x,-y,z
x,-y,1/2-z
-x,y,1/2-z
-x,-y,-z
x,y,-z
-x,y,1/2+z
x,-y,1/2+z
1/2+x,1/2+y,z
1/2-x,1/2-y,z
1/2+x,1/2-y,1/2-z
1/2-x,1/2+y,1/2-z
1/2-x,1/2-y,-z
1/2+x,1/2+y,-z
1/2-x,1/2+y,1/2+z
1/2+x,1/2-y,1/2+z
loop_
_atom_site_type_symbol
_atom_site_label
_atom_site_fract_x
_atom_site_fract_y
_atom_site_fract_z
Si Si1 0.104585 0.079451 0.891330
Si Si2 0.261358 0.822270 0.393470
Si Si3 0.105497 0.515943 0.599171
Si Si4 0.712712 0.883655 0.602368
Si Si5 0.103502 0.626728 0.728825
Si Si6 0.903198 0.932259 0.607855
O O1 0.183751 0.127592 0.862151
O O2 0.001135 0.092544 0.863787
O O3 0.115916 0.005395 0.863150
O O4 0.106999 0.080745 0.000000
O O5 0.259034 0.824622 0.500000
O O6 0.250000 0.750000 0.364219
O O7 0.359027 0.836189 0.355573
O O8 0.122505 0.546184 0.500000
O O9 0.166532 0.453522 0.599629
O O10 0.122256 0.556657 0.687700
O O11 0.000000 0.500000 0.600755
O O12 0.705182 0.858443 0.500000
O O13 0.658656 0.853059 0.683757
O O14 0.816380 0.890656 0.628005
O O15 0.000000 0.632212 0.750000
O O16 0.907198 0.935535 0.500000
#
# Coordination Sequence:
#
# PCOD9500068 Si02
#       6
#    16  16  16  16  16  16
#     4   8  14  29  54  80 108 140 179 231 284 344
#     4  10  22  41  63  85 108 144 199 254 300 342
#     4  10  19  32  51  80 119 158 191 225 283 354
#     4  10  20  32  49  78 117 154 186 224 278 357
#     4  12  23  35  55  80 114 151 190 237 286 344
#     4   8  14  27  50  81 112 144 177 216 286 355
#
# _framework density 10.15873
#
# number of rings (size 3 to 8) (size 9 to 14) (size 15 to 20)
#    0.000    2.333    1.667    3.000    0.000    3.333 
#    0.000    2.500    0.000    2.500    0.000    0.000 
#    0.000    0.000    0.000    0.000    0.000    0.000 
#
# Total GULP energy -267281.912844 kJ/mol
# GULP energy per Si atom -5568.373184 kJ/mol
# Density = 1.013561 g / cm^3
# Si number density = 10.158730 Si / 1000 Ang^3
#
#
#
# Elastic Constant Matrix: (Units=GPa)
#
#
# Indices 1 2 3 4 5 6 
#
# 1 72.9748 -3.6386 4.1991 0.0000 0.0000 0.0000
# 2 -3.6386 30.0429 -5.6024 0.0000 0.0000 0.0000
# 3 4.1991 -5.6024 46.4817 0.0000 0.0000 0.0000
# 4 0.0000 0.0000 0.0000 1.1043 0.0000 0.0000
# 5 0.0000 0.0000 0.0000 0.0000 -29.0089 0.0000
# 6 0.0000 0.0000 0.0000 0.0000 0.0000 7.3696
#
#
#
# Elastic Compliance Matrix: (Units=1/GPa)
#
#
# Indices 1 2 3 4 5 6 
#
# 1 0.013839 0.001476 -0.001072 0.000000 0.000000 0.000000
# 2 0.001476 0.034209 0.003990 0.000000 0.000000 0.000000
# 3 -0.001072 0.003990 0.022092 0.000000 0.000000 0.000000
# 4 0.000000 0.000000 0.000000 0.905553 0.000000 0.000000
# 5 0.000000 0.000000 0.000000 0.000000 -0.034472 0.000000
# 6 0.000000 0.000000 0.000000 0.000000 0.000000 0.135692
#
#
# Mechanical properties :
#
#
# Convention : Reuss Voigt Hill
#
# Bulk Modulus (GPa) = 12.67009 15.49063 14.08036
# Shear Modulus (GPa) = 4.56857 6.19574 5.38216
#
# Velocity S-wave (km/s) = 1.50116 1.74817 1.62935
# Velocity P-wave (km/s) = 3.04208 3.42281 3.23804
#
# Compressibility (1/GPa) = 0.07892606
#
# Stress axis : x y z
#
# Youngs Moduli (GPa) = 72.26137 29.23244 45.26608
#
# Poissons Ratio (x) = -0.04315 0.04854
# Poissons Ratio (y) = -0.10666 -0.18060
# Poissons Ratio (z) = 0.07748 -0.11663
#
# Static dielectric constant tensor:
#      x y z
#    x 1.716460 0.000000 0.000000 
#    y 0.000000 1.829500 0.000000 
#    z 0.000000 0.000000 1.782710 
# 
# From -- ./inp_files/28307.got.cif
#   From: 2010.05.17/outbox.ucp.g08.bks.cvg/sg66_15_cif.got.tgz:28307.got - 2010.06.11 16:44:13.
