data_PCOD9500212
_publ_section_title
;
Structure prediction by ZEFSAII (Michael W. Deem and Ramdas Pophale) SiO2 
 PCOD9500212
Probable space group: C M M A
;
_chemical_formula_sum "Si O2"
_cell_formula_units_Z 96
_cell_length_a 19.113803
_cell_length_b 23.761851
_cell_length_c 10.918833
_cell_angle_alpha 90.000000
_cell_angle_beta 90.000000
_cell_angle_gamma 90.000000
_cell_volume 4959.108354
_symmetry_space_group_name_H-M "C M M A"
_symmetry_group_IT_number 67
_symmetry_cell_setting 'orthorhombic'
loop_
_space_group_symop_operation_xyz
x,y,z
-x,1/2-y,z
x,-y,-z
-x,1/2+y,-z
-x,-y,-z
x,1/2+y,-z
-x,y,z
x,1/2-y,z
1/2+x,1/2+y,z
1/2-x,-y,z
1/2+x,1/2-y,-z
1/2-x,y,-z
1/2-x,1/2-y,-z
1/2+x,y,-z
1/2-x,1/2+y,z
1/2+x,-y,z
loop_
_atom_site_type_symbol
_atom_site_label
_atom_site_fract_x
_atom_site_fract_y
_atom_site_fract_z
Si Si1 0.419104 0.414130 0.405163
Si Si2 0.418970 0.967075 0.319583
Si Si3 0.286825 0.685594 0.865938
Si Si4 0.152410 0.360730 0.237590
Si Si5 0.334010 0.314562 0.497562
Si Si6 0.078732 0.317907 0.993486
O O1 0.500000 0.398952 0.380164
O O2 0.417552 0.441678 0.542113
O O3 0.398612 0.467450 0.321985
O O4 0.369864 0.360015 0.409100
O O5 0.500000 0.962855 0.279007
O O6 0.369085 0.925575 0.246523
O O7 0.287988 0.750000 0.817484
O O8 0.234201 0.648632 0.787982
O O9 0.250000 0.688710 0.000000
O O10 0.364420 0.663756 0.892689
O O11 0.138165 0.329303 0.365895
O O12 0.107976 0.334495 0.126745
O O13 0.350488 0.250000 0.467052
O O14 0.250000 0.320963 0.500000
O O15 0.078923 0.250000 0.988140
O O16 0.000000 0.338410 0.974704
#
# Coordination Sequence:
#
# PCOD9500212 Si02
#       6
#    16  16  16  16  16  16
#     4   8  15  29  45  61  88 125 162 204 254 297
#     4   8  14  25  42  65  91 121 161 208 249 281
#     4   8  14  24  38  59  92 132 168 207 260 312
#     4  10  16  26  43  64  94 136 176 209 249 295
#     4  10  20  31  44  67  99 134 171 211 256 305
#     4   9  16  25  40  66  97 130 173 219 259 305
#
# _framework density 19.358319000000002
#
# number of rings (size 3 to 8) (size 9 to 14) (size 15 to 20)
#    0.000    3.167    0.000    4.000    0.000    1.000 
#    0.000    6.667    0.000    1.000    0.000    2.333 
#    0.000   25.333    0.000   47.500    0.000   16.333 
#
# Total GULP energy -267561.830190 kJ/mol
# GULP energy per Si atom -5574.204796 kJ/mol
# Density = 1.931426 g / cm^3
# Si number density = 19.358319 Si / 1000 Ang^3
#
#
#
# Elastic Constant Matrix: (Units=GPa)
#
#
# Indices 1 2 3 4 5 6 
#
# 1 130.7430 75.2992 24.0522 0.0000 0.0000 0.0000
# 2 75.2992 139.6331 20.0825 0.0000 0.0000 0.0000
# 3 24.0522 20.0825 42.5363 0.0000 0.0000 0.0000
# 4 0.0000 0.0000 0.0000 19.7252 0.0000 0.0000
# 5 0.0000 0.0000 0.0000 0.0000 24.1220 0.0000
# 6 0.0000 0.0000 0.0000 0.0000 0.0000 26.6942
#
#
#
# Elastic Compliance Matrix: (Units=1/GPa)
#
#
# Indices 1 2 3 4 5 6 
#
# 1 0.011665 -0.005731 -0.003890 0.000000 0.000000 0.000000
# 2 -0.005731 0.010499 -0.001716 0.000000 0.000000 0.000000
# 3 -0.003890 -0.001716 0.026519 0.000000 0.000000 0.000000
# 4 0.000000 0.000000 0.000000 0.050697 0.000000 0.000000
# 5 0.000000 0.000000 0.000000 0.000000 0.041456 0.000000
# 6 0.000000 0.000000 0.000000 0.000000 0.000000 0.037461
#
#
# Mechanical properties :
#
#
# Convention : Reuss Voigt Hill
#
# Bulk Modulus (GPa) = 38.44912 61.30889 49.87900
# Shear Modulus (GPa) = 23.85025 27.00684 25.42855
#
# Velocity S-wave (km/s) = 3.51385 3.73916 3.62826
# Velocity P-wave (km/s) = 6.03057 7.09796 6.58593
#
# Compressibility (1/GPa) = 0.02600840
#
# Stress axis : x y z
#
# Youngs Moduli (GPa) = 85.72713 95.24741 37.70830
#
# Poissons Ratio (x) = 0.54586 0.14669
# Poissons Ratio (y) = 0.49130 0.06472
# Poissons Ratio (z) = 0.33350 0.16347
#
# Static dielectric constant tensor:
#      x y z
#    x 1.686890 0.000000 0.000000 
#    y 0.000000 1.660550 0.000000 
#    z 0.000000 0.000000 1.724070 
# 
# From -- ./inp_files/19685.got.cif
#   From: 2010.05.17/outbox.cif.g08.bks.cpg/sg67_10_cif.got.tgz:19685.got - 2010.06.03 18:28:57.
