data_PCOD9500779
_publ_section_title
;
Structure prediction by ZEFSAII (Michael W. Deem and Ramdas Pophale) SiO2 
 PCOD9500779
Probable space group: C M M A
;
_chemical_formula_sum "Si O2"
_cell_formula_units_Z 96
_cell_length_a 26.054517
_cell_length_b 8.576869
_cell_length_c 26.121827
_cell_angle_alpha 90.000000
_cell_angle_beta 90.000000
_cell_angle_gamma 90.000000
_cell_volume 5837.344873
_symmetry_space_group_name_H-M "C M M A"
_symmetry_group_IT_number 67
_symmetry_cell_setting 'orthorhombic'
loop_
_space_group_symop_operation_xyz
x,y,z
-x,1/2-y,z
x,-y,-z
-x,1/2+y,-z
-x,-y,-z
x,1/2+y,-z
-x,y,z
x,1/2-y,z
1/2+x,1/2+y,z
1/2-x,-y,z
1/2+x,1/2-y,-z
1/2-x,y,-z
1/2-x,1/2-y,-z
1/2+x,y,-z
1/2-x,1/2+y,z
1/2+x,-y,z
loop_
_atom_site_type_symbol
_atom_site_label
_atom_site_fract_x
_atom_site_fract_y
_atom_site_fract_z
Si Si1 0.000000 0.437634 0.442155
Si Si2 0.500000 0.063734 0.058222
Si Si3 0.308361 0.561960 0.864602
Si Si4 0.691887 0.062724 0.360169
Si Si5 0.612411 0.937272 0.442020
Si Si6 0.892221 0.063989 0.057893
Si Si7 0.192020 0.062493 0.751868
O O1 0.000000 0.500000 0.500000
O O2 0.055660 0.486368 0.421296
O O3 0.000000 0.250000 0.442806
O O4 0.500000 0.250000 0.058038
O O5 0.553730 0.001134 0.079879
O O6 0.500000 0.000000 0.000000
O O7 0.307663 0.750000 0.868115
O O8 0.250000 0.500000 0.869672
O O9 0.345268 0.492754 0.907519
O O10 0.328767 0.515460 0.807606
O O11 0.693391 0.250000 0.362269
O O12 0.670748 0.013954 0.303627
O O13 0.750000 0.000000 0.364984
O O14 0.656240 0.999730 0.405011
O O15 0.614493 0.750000 0.443791
O O16 0.617959 0.000000 0.500000
O O17 0.894586 0.250000 0.055831
O O18 0.886409 0.000000 0.000000
O O19 0.192929 0.250000 0.751878
O O20 0.250000 0.000000 0.751717
#
# Coordination Sequence:
#
# PCOD9500779 Si02
#       7
#     8   8  16  16  16  16  16
#     4   8  16  30  48  67  90 119 156 193 231 275
#     4  10  18  32  52  73  96 127 164 203 241 285
#     4  10  19  33  51  74 100 129 162 200 244 291
#     4  10  19  32  49  72  98 127 159 195 236 283
#     4  10  19  32  49  71  96 125 157 195 238 285
#     4  11  21  34  51  74 101 131 164 201 242 289
#     4   8  16  30  49  69  93 123 160 198 235 279
#
# _framework density 16.445834000000001
#
# number of rings (size 3 to 8) (size 9 to 14) (size 15 to 20)
#    0.000    2.333    0.000    4.750    0.000    2.667 
#    0.000    3.333    0.000    1.000    0.000    5.833 
#    0.000    0.000    0.000    0.000    0.000    0.000 
#
# Total GULP energy -267282.745054 kJ/mol
# GULP energy per Si atom -5568.390522 kJ/mol
# Density = 1.640840 g / cm^3
# Si number density = 16.445834 Si / 1000 Ang^3
#
#
#
# Elastic Constant Matrix: (Units=GPa)
#
#
# Indices 1 2 3 4 5 6 
#
# 1 112.6551 41.9791 70.5189 0.0000 0.0000 0.0000
# 2 41.9791 84.3464 39.8631 0.0000 0.0000 0.0000
# 3 70.5189 39.8631 111.3030 0.0000 0.0000 0.0000
# 4 0.0000 0.0000 0.0000 17.8700 0.0000 0.0000
# 5 0.0000 0.0000 0.0000 0.0000 -3.2268 0.0000
# 6 0.0000 0.0000 0.0000 0.0000 0.0000 22.9425
#
#
#
# Elastic Compliance Matrix: (Units=1/GPa)
#
#
# Indices 1 2 3 4 5 6 
#
# 1 0.015629 -0.003730 -0.008566 0.000000 0.000000 0.000000
# 2 -0.003730 0.015162 -0.003067 0.000000 0.000000 0.000000
# 3 -0.008566 -0.003067 0.015510 0.000000 0.000000 0.000000
# 4 0.000000 0.000000 0.000000 0.055960 0.000000 0.000000
# 5 0.000000 0.000000 0.000000 0.000000 -0.309907 0.000000
# 6 0.000000 0.000000 0.000000 0.000000 0.000000 0.043587
#
#
# Mechanical properties :
#
#
# Convention : Reuss Voigt Hill
#
# Bulk Modulus (GPa) = 64.20703 68.11410 66.16056
# Shear Modulus (GPa) = -39.01938 17.91336 -10.55301
#
# Velocity S-wave (km/s) = -4.87622 3.30393 -2.53589
# Velocity P-wave (km/s) = 2.72451 7.48744 5.63404
#
# Compressibility (1/GPa) = 0.01557462
#
# Stress axis : x y z
#
# Youngs Moduli (GPa) = 63.98494 65.95552 64.47384
#
# Poissons Ratio (x) = 0.24601 0.55229
# Poissons Ratio (y) = 0.23866 0.19774
# Poissons Ratio (z) = 0.54810 0.20228
#
# Static dielectric constant tensor:
#      x y z
#    x 1.554170 0.000000 0.000000 
#    y 0.000000 1.613710 0.000000 
#    z 0.000000 0.000000 1.553070 
# 
# From -- ./inp_files/42584.got.cif
#   From: 2010.05.17/outbox.cif.g08.bks.cpg/sg67_22_cif.got.tgz:42584.got - 2010.06.03 18:28:57.
