data_PCOD9500059
_publ_section_title
;
Structure prediction by ZEFSAII (Michael W. Deem and Ramdas Pophale) SiO2 
 PCOD9500059
Probable space group: C C C M
;
_chemical_formula_sum "Si O2"
_cell_formula_units_Z 56
_cell_length_a 24.000000
_cell_length_b 15.000000
_cell_length_c 15.000000
_cell_angle_alpha 90.000000
_cell_angle_beta 90.000000
_cell_angle_gamma 90.000000
_cell_volume 5400.000000
_symmetry_space_group_name_H-M "C C C M"
_symmetry_group_IT_number 66
_symmetry_cell_setting 'orthorhombic'
loop_
_space_group_symop_operation_xyz
x,y,z
-x,-y,z
x,-y,1/2-z
-x,y,1/2-z
-x,-y,-z
x,y,-z
-x,y,1/2+z
x,-y,1/2+z
1/2+x,1/2+y,z
1/2-x,1/2-y,z
1/2+x,1/2-y,1/2-z
1/2-x,1/2+y,1/2-z
1/2-x,1/2-y,-z
1/2+x,1/2+y,-z
1/2-x,1/2+y,1/2+z
1/2+x,1/2-y,1/2+z
loop_
_atom_site_type_symbol
_atom_site_label
_atom_site_fract_x
_atom_site_fract_y
_atom_site_fract_z
Si Si1 0.785094 0.660508 0.658914
Si Si2 0.476791 0.861053 0.897446
Si Si3 0.178115 0.946108 0.106785
Si Si4 0.886878 0.772593 0.603112
Si Si5 0.416571 0.036909 0.151031
Si Si6 0.812184 0.144798 0.397661
Si Si7 0.183624 0.345331 0.853801
O O1 0.750000 0.750000 0.679334
O O2 0.741258 0.590130 0.620534
O O3 0.836717 0.699871 0.604260
O O4 0.808372 0.626720 0.751647
O O5 0.440675 0.778850 0.858777
O O6 0.532149 0.893063 0.847384
O O7 0.437606 0.948990 0.899430
O O8 0.492450 0.840848 0.000000
O O9 0.137571 0.866067 0.140948
O O10 0.171359 0.047628 0.141810
O O11 0.170282 0.951312 0.000000
O O12 0.900010 0.790900 0.500000
O O13 0.364016 0.089411 0.111176
O O14 0.406570 0.000000 0.250000
O O15 0.831118 0.148526 0.500000
O O16 0.830789 0.239241 0.355402
O O17 0.744546 0.145536 0.396631
#
# Coordination Sequence:
#
# PCOD9500059 Si02
#       7
#    16  16  16  16  16  16  16
#     4  10  18  32  49  77 111 140 178 224 271 331
#     4  10  21  37  56  81 108 142 187 229 279 337
#     4   9  19  34  54  79 110 148 184 227 280 333
#     4   9  18  33  53  79 109 142 180 225 279 334
#     4  11  23  36  55  79 111 145 182 231 286 335
#     4  10  22  38  54  76 110 152 194 231 275 338
#     4  11  22  36  52  78 108 147 191 229 282 330
#
# _framework density 10.370369999999999
#
# number of rings (size 3 to 8) (size 9 to 14) (size 15 to 20)
#    0.000    2.000    1.429    3.857    4.000    4.000 
#    0.000    0.000    0.000    0.857    0.000    4.000 
#    0.000    7.143    0.000    0.429    0.000    0.000 
#
# Total GULP energy -312278.484924 kJ/mol
# GULP energy per Si atom -5576.401517 kJ/mol
# Density = 1.034677 g / cm^3
# Si number density = 10.370370 Si / 1000 Ang^3
#
#
#
# Elastic Constant Matrix: (Units=GPa)
#
#
# Indices 1 2 3 4 5 6 
#
# 1 71.1137 37.3419 2.3895 0.0000 0.0000 0.0000
# 2 37.3419 96.7507 4.7605 0.0000 0.0000 0.0000
# 3 2.3895 4.7605 47.3225 0.0000 0.0000 0.0000
# 4 0.0000 0.0000 0.0000 12.1319 0.0000 0.0000
# 5 0.0000 0.0000 0.0000 0.0000 -1.1764 0.0000
# 6 0.0000 0.0000 0.0000 0.0000 0.0000 43.5714
#
#
#
# Elastic Compliance Matrix: (Units=1/GPa)
#
#
# Indices 1 2 3 4 5 6 
#
# 1 0.017638 -0.006798 -0.000207 0.000000 0.000000 0.000000
# 2 -0.006798 0.013007 -0.000965 0.000000 0.000000 0.000000
# 3 -0.000207 -0.000965 0.021239 0.000000 0.000000 0.000000
# 4 0.000000 0.000000 0.000000 0.082428 0.000000 0.000000
# 5 0.000000 0.000000 0.000000 0.000000 -0.850037 0.000000
# 6 0.000000 0.000000 0.000000 0.000000 0.000000 0.022951
#
#
# Mechanical properties :
#
#
# Convention : Reuss Voigt Hill
#
# Bulk Modulus (GPa) = 27.82008 33.79674 30.80841
# Shear Modulus (GPa) = -7.52045 22.28504 7.38230
#
# Velocity S-wave (km/s) = -1.90625 3.28145 1.88866
# Velocity P-wave (km/s) = 2.93212 5.53962 4.43197
#
# Compressibility (1/GPa) = 0.03594526
#
# Stress axis : x y z
#
# Youngs Moduli (GPa) = 56.69475 76.88219 47.08290
#
# Poissons Ratio (x) = 0.52261 0.00974
# Poissons Ratio (y) = 0.38538 0.04545
# Poissons Ratio (z) = 0.01173 0.07421
#
# Static dielectric constant tensor:
#      x y z
#    x 1.765000 0.000000 0.000000 
#    y 0.000000 1.772440 0.000000 
#    z 0.000000 0.000000 1.810290 
# 
# From -- ./inp_files/32466.got.cif
#   From: 2010.05.17/outbox.ucp.g08.bks.cvg/sg66_17_cif.got.tgz:32466.got - 2010.06.11 16:44:13.
