data_PCOD9500810
_publ_section_title
;
Structure prediction by ZEFSAII (Michael W. Deem and Ramdas Pophale) SiO2 
 PCOD9500810
Probable space group: C M M A
;
_chemical_formula_sum "Si O2"
_cell_formula_units_Z 80
_cell_length_a 26.382720
_cell_length_b 14.118131
_cell_length_c 10.973931
_cell_angle_alpha 90.000000
_cell_angle_beta 90.000000
_cell_angle_gamma 90.000000
_cell_volume 4087.511625
_symmetry_space_group_name_H-M "C M M A"
_symmetry_group_IT_number 67
_symmetry_cell_setting 'orthorhombic'
loop_
_space_group_symop_operation_xyz
x,y,z
-x,1/2-y,z
x,-y,-z
-x,1/2+y,-z
-x,-y,-z
x,1/2+y,-z
-x,y,z
x,1/2-y,z
1/2+x,1/2+y,z
1/2-x,-y,z
1/2+x,1/2-y,-z
1/2-x,y,-z
1/2-x,1/2-y,-z
1/2+x,y,-z
1/2-x,1/2+y,z
1/2+x,-y,z
loop_
_atom_site_type_symbol
_atom_site_label
_atom_site_fract_x
_atom_site_fract_y
_atom_site_fract_z
Si Si1 0.060849 0.142718 0.922658
Si Si2 0.593460 0.444852 0.821893
Si Si3 0.305499 0.474117 0.699852
Si Si4 0.166488 0.645282 0.471103
Si Si5 0.555867 0.104329 0.558213
O O1 0.077922 0.250000 0.892304
O O2 0.000000 0.141597 0.917762
O O3 0.077503 0.113007 0.058956
O O4 0.079868 0.055700 0.840284
O O5 0.653433 0.439822 0.796710
O O6 0.565199 0.405838 0.702683
O O7 0.250000 0.500000 0.745904
O O8 0.305036 0.397429 0.589920
O O9 0.326495 0.568898 0.634754
O O10 0.184477 0.750000 0.440398
O O11 0.106813 0.649121 0.504631
O O12 0.500000 0.145195 0.534291
O O13 0.555664 0.000000 0.500000
#
# Coordination Sequence:
#
# PCOD9500810 Si02
#       5
#    16  16  16  16  16
#     4  10  21  37  59  83 107 141 182 221 266 321
#     4  10  19  37  57  79 108 144 180 229 266 316
#     4  10  21  37  54  77 106 143 186 228 275 320
#     4  10  19  34  53  78 111 148 186 222 262 321
#     4  10  18  32  53  81 117 150 175 211 267 330
#
# _framework density 19.571808999999998
#
# number of rings (size 3 to 8) (size 9 to 14) (size 15 to 20)
#    0.000    2.000    4.000    3.600    0.000    6.000 
#    0.000    2.000    0.000    1.200    0.000    0.000 
#    0.000    0.000    0.000    0.000    0.000    0.000 
#
# Total GULP energy -223230.273356 kJ/mol
# GULP energy per Si atom -5580.756834 kJ/mol
# Density = 1.952726 g / cm^3
# Si number density = 19.571809 Si / 1000 Ang^3
#
#
#
# Elastic Constant Matrix: (Units=GPa)
#
#
# Indices 1 2 3 4 5 6 
#
# 1 94.3734 -15.1897 -2.2688 0.0000 0.0000 0.0000
# 2 -15.1897 83.1412 -10.9794 0.0000 0.0000 0.0000
# 3 -2.2688 -10.9794 15.7924 0.0000 0.0000 0.0000
# 4 0.0000 0.0000 0.0000 -5.6284 0.0000 0.0000
# 5 0.0000 0.0000 0.0000 0.0000 17.3938 0.0000
# 6 0.0000 0.0000 0.0000 0.0000 0.0000 -1.1399
#
#
#
# Elastic Compliance Matrix: (Units=1/GPa)
#
#
# Indices 1 2 3 4 5 6 
#
# 1 0.011071 0.002458 0.003300 0.000000 0.000000 0.000000
# 2 0.002458 0.013790 0.009940 0.000000 0.000000 0.000000
# 3 0.003300 0.009940 0.070707 0.000000 0.000000 0.000000
# 4 0.000000 0.000000 0.000000 -0.177669 0.000000 0.000000
# 5 0.000000 0.000000 0.000000 0.000000 0.057492 0.000000
# 6 0.000000 0.000000 0.000000 0.000000 0.000000 -0.877260
#
#
# Mechanical properties :
#
#
# Convention : Reuss Voigt Hill
#
# Bulk Modulus (GPa) = 7.87626 15.15904 11.51765
# Shear Modulus (GPa) = -5.61202 16.90809 5.64803
#
# Velocity S-wave (km/s) = -1.69518 2.94241 1.70061
# Velocity P-wave (km/s) = 0.44892 4.39384 3.12309
#
# Compressibility (1/GPa) = 0.12696383
#
# Stress axis : x y z
#
# Youngs Moduli (GPa) = 90.32428 72.51874 14.14296
#
# Poissons Ratio (x) = -0.17828 -0.04667
# Poissons Ratio (y) = -0.22206 -0.14058
# Poissons Ratio (z) = -0.29804 -0.72085
#
# Static dielectric constant tensor:
#      x y z
#    x 1.712290 0.000000 0.000000 
#    y 0.000000 1.663950 0.000000 
#    z 0.000000 0.000000 1.663020 
# 
# From -- ./inp_files/23643.got.cif
#   From: 2010.05.17/outbox.cif.g08.bks.cpg/sg67_12_cif.got.tgz:23643.got - 2010.06.03 18:28:57.
