data_PCOD9500842
_publ_section_title
;
Structure prediction by ZEFSAII (Michael W. Deem and Ramdas Pophale) SiO2 
 PCOD9500842
Probable space group: C M M A
;
_chemical_formula_sum "Si O2"
_cell_formula_units_Z 128
_cell_length_a 18.713304
_cell_length_b 21.331953
_cell_length_c 19.007374
_cell_angle_alpha 90.000000
_cell_angle_beta 90.000000
_cell_angle_gamma 90.000000
_cell_volume 7587.578743
_symmetry_space_group_name_H-M "C M M A"
_symmetry_group_IT_number 67
_symmetry_cell_setting 'orthorhombic'
loop_
_space_group_symop_operation_xyz
x,y,z
-x,1/2-y,z
x,-y,-z
-x,1/2+y,-z
-x,-y,-z
x,1/2+y,-z
-x,y,z
x,1/2-y,z
1/2+x,1/2+y,z
1/2-x,-y,z
1/2+x,1/2-y,-z
1/2-x,y,-z
1/2-x,1/2-y,-z
1/2+x,y,-z
1/2-x,1/2+y,z
1/2+x,-y,z
loop_
_atom_site_type_symbol
_atom_site_label
_atom_site_fract_x
_atom_site_fract_y
_atom_site_fract_z
Si Si1 0.417001 0.411406 0.292883
Si Si2 0.777289 0.181000 0.190247
Si Si3 0.421144 0.001505 0.083955
Si Si4 0.303525 0.558007 0.830406
Si Si5 0.804730 0.679526 0.339533
Si Si6 0.273624 0.932202 0.419075
Si Si7 0.418436 0.391262 0.802514
Si Si8 0.581209 0.045536 0.649161
O O1 0.500000 0.405326 0.270595
O O2 0.360778 0.430315 0.231911
O O3 0.383554 0.347956 0.324010
O O4 0.414780 0.470009 0.346490
O O5 0.766770 0.250000 0.158595
O O6 0.740513 0.120881 0.155289
O O7 0.740372 0.182102 0.267046
O O8 0.860248 0.163073 0.195328
O O9 0.500000 0.025480 0.106882
O O10 0.411611 0.937771 0.130140
O O11 0.353419 0.041974 0.104566
O O12 0.423007 0.000000 0.000000
O O13 0.250000 0.500000 0.814331
O O14 0.806341 0.750000 0.368884
O O15 0.765606 0.626548 0.384667
O O16 0.250000 0.932938 0.500000
O O17 0.357798 0.928810 0.402016
O O18 0.250000 0.000000 0.387858
O O19 0.500000 0.368727 0.801319
O O20 0.406572 0.429710 0.729429
O O21 0.500000 0.063059 0.629684
#
# Coordination Sequence:
#
# PCOD9500842 Si02
#       8
#    16  16  16  16  16  16  16  16
#     4  10  19  31  53  80 107 140 178 221 272 317
#     4  10  20  33  51  81 111 138 180 230 273 320
#     4  10  20  33  52  83 116 141 179 230 278 333
#     4  11  19  31  54  80 108 144 180 228 273 324
#     4  10  21  35  54  77 109 144 178 221 272 324
#     4  11  22  36  56  82 109 141 182 228 278 333
#     4  10  18  32  55  81 107 144 182 223 280 325
#     4  10  18  32  57  84 108 137 181 230 275 325
#
# _framework density 16.869675999999998
#
# number of rings (size 3 to 8) (size 9 to 14) (size 15 to 20)
#    0.000    1.750    5.000    0.375    1.750    1.000 
#    0.000    1.875    0.000    3.000    0.000    1.750 
#    0.000    0.000    0.000    0.000    0.000    0.000 
#
# Total GULP energy -356396.977855 kJ/mol
# GULP energy per Si atom -5568.702779 kJ/mol
# Density = 1.683128 g / cm^3
# Si number density = 16.869676 Si / 1000 Ang^3
#
#
#
# Elastic Constant Matrix: (Units=GPa)
#
#
# Indices 1 2 3 4 5 6 
#
# 1 140.6192 61.8939 35.5478 0.0000 0.0000 0.0000
# 2 61.8939 122.9729 20.5373 0.0000 0.0000 0.0000
# 3 35.5478 20.5373 48.6634 0.0000 0.0000 0.0000
# 4 0.0000 0.0000 0.0000 6.8824 0.0000 0.0000
# 5 0.0000 0.0000 0.0000 0.0000 14.0793 0.0000
# 6 0.0000 0.0000 0.0000 0.0000 0.0000 8.7420
#
#
#
# Elastic Compliance Matrix: (Units=1/GPa)
#
#
# Indices 1 2 3 4 5 6 
#
# 1 0.010480 -0.004299 -0.005841 0.000000 0.000000 0.000000
# 2 -0.004299 0.010512 -0.001296 0.000000 0.000000 0.000000
# 3 -0.005841 -0.001296 0.025363 0.000000 0.000000 0.000000
# 4 0.000000 0.000000 0.000000 0.145299 0.000000 0.000000
# 5 0.000000 0.000000 0.000000 0.000000 0.071026 0.000000
# 6 0.000000 0.000000 0.000000 0.000000 0.000000 0.114391
#
#
# Mechanical properties :
#
#
# Convention : Reuss Voigt Hill
#
# Bulk Modulus (GPa) = 42.58440 60.91261 51.74850
# Shear Modulus (GPa) = 12.26175 18.89250 15.57713
#
# Velocity S-wave (km/s) = 2.69894 3.35013 3.04201
# Velocity P-wave (km/s) = 5.91696 7.15197 6.56357
#
# Compressibility (1/GPa) = 0.02348278
#
# Stress axis : x y z
#
# Youngs Moduli (GPa) = 95.41569 95.12728 39.42725
#
# Poissons Ratio (x) = 0.40899 0.23031
# Poissons Ratio (y) = 0.41023 0.05109
# Poissons Ratio (z) = 0.55735 0.12327
#
# Static dielectric constant tensor:
#      x y z
#    x 1.595100 0.000000 0.000000 
#    y 0.000000 1.595720 0.000000 
#    z 0.000000 0.000000 1.588050 
# 
# From -- ./inp_files/39125.got.cif
#   From: 2010.05.17/outbox.cif.g08.bks.cpg/sg67_20_cif.got.tgz:39125.got - 2010.06.03 18:28:57.
