data_PCOD9500874
_publ_section_title
;
Structure prediction by ZEFSAII (Michael W. Deem and Ramdas Pophale) SiO2 
 PCOD9500874
Probable space group: C M M A
;
_chemical_formula_sum "Si O2"
_cell_formula_units_Z 88
_cell_length_a 14.748587
_cell_length_b 11.144963
_cell_length_c 22.204239
_cell_angle_alpha 90.000000
_cell_angle_beta 90.000000
_cell_angle_gamma 90.000000
_cell_volume 3649.765307
_symmetry_space_group_name_H-M "C M M A"
_symmetry_group_IT_number 67
_symmetry_cell_setting 'orthorhombic'
loop_
_space_group_symop_operation_xyz
x,y,z
-x,1/2-y,z
x,-y,-z
-x,1/2+y,-z
-x,-y,-z
x,1/2+y,-z
-x,y,z
x,1/2-y,z
1/2+x,1/2+y,z
1/2-x,-y,z
1/2+x,1/2-y,-z
1/2-x,y,-z
1/2-x,1/2-y,-z
1/2+x,y,-z
1/2-x,1/2+y,z
1/2+x,-y,z
loop_
_atom_site_type_symbol
_atom_site_label
_atom_site_fract_x
_atom_site_fract_y
_atom_site_fract_z
Si Si1 0.151988 0.613780 0.967415
Si Si2 0.354402 0.489737 0.402157
Si Si3 0.893320 0.028075 0.161656
Si Si4 0.668614 0.250000 0.450098
Si Si5 0.899233 0.250000 0.250666
Si Si6 0.655391 0.750000 0.381173
Si Si7 0.892125 0.390040 0.728453
O O1 0.113079 0.750000 0.970042
O O2 0.156210 0.571009 0.898343
O O3 0.105122 0.500000 0.000000
O O4 0.250000 0.622459 0.000000
O O5 0.250000 0.500000 0.421461
O O6 0.386771 0.374279 0.440939
O O7 0.388356 0.627105 0.406501
O O8 0.359196 0.459404 0.330836
O O9 0.889889 0.136731 0.208502
O O10 0.000000 0.006175 0.145357
O O11 0.855962 0.922720 0.204684
O O12 0.750000 0.250000 0.500000
O O13 0.737824 0.250000 0.394461
O O14 0.841164 0.250000 0.309439
O O15 0.000000 0.250000 0.276970
O O16 0.881734 0.250000 0.718690
O O17 0.000000 0.417156 0.731519
#
# Coordination Sequence:
#
# PCOD9500874 Si02
#       7
#    16  16  16   8   8   8  16
#     4  10  22  41  59  81 115 156 200 249 304 360
#     4  10  20  35  56  88 124 161 207 255 310 366
#     4  10  20  36  61  87 113 152 197 244 306 380
#     4  10  22  40  57  77 117 172 217 255 300 356
#     4  10  18  32  57  87 115 144 185 239 310 382
#     4  10  20  32  56  90 118 154 198 254 312 358
#     4  10  20  36  61  94 128 160 199 255 318 382
#
# _framework density 24.111139000000001
#
# number of rings (size 3 to 8) (size 9 to 14) (size 15 to 20)
#    0.000    2.000    3.636    0.000    0.000    4.364 
#    3.273    0.000    0.000    1.091    0.000    6.364 
#    0.000    0.000    0.000    0.000    0.000    0.000 
#
# Total GULP energy -245317.240442 kJ/mol
# GULP energy per Si atom -5575.391828 kJ/mol
# Density = 2.405626 g / cm^3
# Si number density = 24.111139 Si / 1000 Ang^3
#
#
#
# Elastic Constant Matrix: (Units=GPa)
#
#
# Indices 1 2 3 4 5 6 
#
# 1 58.2686 1.4103 24.7963 0.0000 0.0000 0.0000
# 2 1.4103 220.2794 39.3698 0.0000 0.0000 0.0000
# 3 24.7963 39.3698 142.1837 0.0000 0.0000 0.0000
# 4 0.0000 0.0000 0.0000 8.3425 0.0000 0.0000
# 5 0.0000 0.0000 0.0000 0.0000 93.6493 0.0000
# 6 0.0000 0.0000 0.0000 0.0000 0.0000 5.2183
#
#
#
# Elastic Compliance Matrix: (Units=1/GPa)
#
#
# Indices 1 2 3 4 5 6 
#
# 1 0.018587 0.000484 -0.003376 0.000000 0.000000 0.000000
# 2 0.000484 0.004789 -0.001410 0.000000 0.000000 0.000000
# 3 -0.003376 -0.001410 0.008012 0.000000 0.000000 0.000000
# 4 0.000000 0.000000 0.000000 0.119869 0.000000 0.000000
# 5 0.000000 0.000000 0.000000 0.000000 0.010678 0.000000
# 6 0.000000 0.000000 0.000000 0.000000 0.000000 0.191633
#
#
# Mechanical properties :
#
#
# Convention : Reuss Voigt Hill
#
# Bulk Modulus (GPa) = 43.88972 61.32049 52.60511
# Shear Modulus (GPa) = 13.52208 45.11904 29.32056
#
# Velocity S-wave (km/s) = 2.37074 4.33054 3.49099
# Velocity P-wave (km/s) = 5.07311 7.10580 6.17369
#
# Compressibility (1/GPa) = 0.02278438
#
# Stress axis : x y z
#
# Youngs Moduli (GPa) = 53.80210 208.82639 124.80699
#
# Poissons Ratio (x) = -0.10114 0.42129
# Poissons Ratio (y) = -0.02606 0.17603
# Poissons Ratio (z) = 0.18161 0.29453
#
# Static dielectric constant tensor:
#      x y z
#    x 1.957540 0.000000 0.000000 
#    y 0.000000 2.534940 0.000000 
#    z 0.000000 0.000000 1.939440 
# 
# From -- ./inp_files/38942.got.cif
#   From: 2010.05.17/outbox.cif.g08.bks.cpg/sg67_20_cif.got.tgz:38942.got - 2010.06.03 18:28:57.
