data_PCOD9500542
_publ_section_title
;
Structure prediction by ZEFSAII (Michael W. Deem and Ramdas Pophale) SiO2 
 PCOD9500542
Probable space group: C M M A
;
_chemical_formula_sum "Si O2"
_cell_formula_units_Z 112
_cell_length_a 15.419201
_cell_length_b 27.502477
_cell_length_c 12.780577
_cell_angle_alpha 90.000000
_cell_angle_beta 90.000000
_cell_angle_gamma 90.000000
_cell_volume 5419.810989
_symmetry_space_group_name_H-M "C M M A"
_symmetry_group_IT_number 67
_symmetry_cell_setting 'orthorhombic'
loop_
_space_group_symop_operation_xyz
x,y,z
-x,1/2-y,z
x,-y,-z
-x,1/2+y,-z
-x,-y,-z
x,1/2+y,-z
-x,y,z
x,1/2-y,z
1/2+x,1/2+y,z
1/2-x,-y,z
1/2+x,1/2-y,-z
1/2-x,y,-z
1/2-x,1/2-y,-z
1/2+x,y,-z
1/2-x,1/2+y,z
1/2+x,-y,z
loop_
_atom_site_type_symbol
_atom_site_label
_atom_site_fract_x
_atom_site_fract_y
_atom_site_fract_z
Si Si1 0.395864 0.038970 0.337549
Si Si2 0.269325 0.873386 0.611333
Si Si3 0.400780 0.302387 0.991841
Si Si4 0.096873 0.429889 0.332141
Si Si5 0.179586 0.351342 0.828934
Si Si6 0.853858 0.403961 0.106498
Si Si7 0.097477 0.558113 0.109930
O O1 0.500000 0.049945 0.339658
O O2 0.337905 0.081061 0.390061
O O3 0.365136 0.034421 0.215285
O O4 0.386416 0.983881 0.376478
O O5 0.250000 0.849525 0.500000
O O6 0.175757 0.895698 0.638175
O O7 0.302439 0.840949 0.708287
O O8 0.500000 0.301068 0.029866
O O9 0.384510 0.250000 0.939049
O O10 0.334198 0.309123 0.088113
O O11 0.392935 0.350885 0.922279
O O12 0.100304 0.427755 0.205548
O O13 0.000000 0.415092 0.365737
O O14 0.256439 0.387927 0.865071
O O15 0.097166 0.385791 0.848947
O O16 0.861150 0.438472 0.005109
O O17 0.000000 0.540058 0.096250
#
# Coordination Sequence:
#
# PCOD9500542 Si02
#       7
#    16  16  16  16  16  16  16
#     4   9  19  32  47  69  95 126 167 213 254 293
#     4  10  21  36  52  69  92 126 172 218 261 301
#     4  10  19  31  51  79 105 129 158 192 239 302
#     4  10  20  33  47  68  99 131 165 206 252 298
#     4   9  18  31  47  68  96 126 157 199 246 292
#     4  10  18  29  46  68  99 133 160 190 233 293
#     4   9  15  26  44  65  91 125 161 193 233 286
#
# _framework density 20.664928
#
# number of rings (size 3 to 8) (size 9 to 14) (size 15 to 20)
#    0.000    2.429    0.000    4.714    0.000    4.000 
#    0.000    3.571    0.000    9.000    0.000    0.000 
#    0.000    9.143    0.000    0.000    0.000    0.000 
#
# Total GULP energy -311772.910048 kJ/mol
# GULP energy per Si atom -5567.373394 kJ/mol
# Density = 2.061789 g / cm^3
# Si number density = 20.664928 Si / 1000 Ang^3
#
#
#
# Elastic Constant Matrix: (Units=GPa)
#
#
# Indices 1 2 3 4 5 6 
#
# 1 83.6552 1.4531 -0.8660 0.0000 0.0000 0.0000
# 2 1.4531 58.8419 -6.7753 0.0000 0.0000 0.0000
# 3 -0.8660 -6.7753 89.5573 0.0000 0.0000 0.0000
# 4 0.0000 0.0000 0.0000 12.6881 0.0000 0.0000
# 5 0.0000 0.0000 0.0000 0.0000 12.3222 0.0000
# 6 0.0000 0.0000 0.0000 0.0000 0.0000 14.6343
#
#
#
# Elastic Compliance Matrix: (Units=1/GPa)
#
#
# Indices 1 2 3 4 5 6 
#
# 1 0.011960 -0.000284 0.000094 0.000000 0.000000 0.000000
# 2 -0.000284 0.017151 0.001295 0.000000 0.000000 0.000000
# 3 0.000094 0.001295 0.011265 0.000000 0.000000 0.000000
# 4 0.000000 0.000000 0.000000 0.078814 0.000000 0.000000
# 5 0.000000 0.000000 0.000000 0.000000 0.081154 0.000000
# 6 0.000000 0.000000 0.000000 0.000000 0.000000 0.068333
#
#
# Mechanical properties :
#
#
# Convention : Reuss Voigt Hill
#
# Bulk Modulus (GPa) = 23.48288 24.40866 23.94577
# Shear Modulus (GPa) = 17.81497 23.81175 20.81336
#
# Velocity S-wave (km/s) = 2.93932 3.39821 3.17706
# Velocity P-wave (km/s) = 4.78621 5.21865 5.00710
#
# Compressibility (1/GPa) = 0.04258422
#
# Stress axis : x y z
#
# Youngs Moduli (GPa) = 83.61381 58.30635 88.77135
#
# Poissons Ratio (x) = 0.01659 -0.00836
# Poissons Ratio (y) = 0.02379 -0.11494
# Poissons Ratio (z) = -0.00787 -0.07549
#
# Static dielectric constant tensor:
#      x y z
#    x 1.825100 0.000000 0.000000 
#    y 0.000000 1.760820 0.000000 
#    z 0.000000 0.000000 1.846080 
# 
# From -- ./inp_files/27898.got.cif
#   From: 2010.05.17/outbox.cif.g08.bks.cpg/sg67_14_cif.got.tgz:27898.got - 2010.06.03 18:28:57.
