data_PCOD9500289
_publ_section_title
;
Structure prediction by ZEFSAII (Michael W. Deem and Ramdas Pophale) SiO2 
 PCOD9500289
Probable space group: C M M A
;
_chemical_formula_sum "Si O2"
_cell_formula_units_Z 80
_cell_length_a 33.176241
_cell_length_b 8.261160
_cell_length_c 15.276713
_cell_angle_alpha 90.000000
_cell_angle_beta 90.000000
_cell_angle_gamma 90.000000
_cell_volume 4186.953430
_symmetry_space_group_name_H-M "C M M A"
_symmetry_group_IT_number 67
_symmetry_cell_setting 'orthorhombic'
loop_
_space_group_symop_operation_xyz
x,y,z
-x,1/2-y,z
x,-y,-z
-x,1/2+y,-z
-x,-y,-z
x,1/2+y,-z
-x,y,z
x,1/2-y,z
1/2+x,1/2+y,z
1/2-x,-y,z
1/2+x,1/2-y,-z
1/2-x,y,-z
1/2-x,1/2-y,-z
1/2+x,y,-z
1/2-x,1/2+y,z
1/2+x,-y,z
loop_
_atom_site_type_symbol
_atom_site_label
_atom_site_fract_x
_atom_site_fract_y
_atom_site_fract_z
Si Si1 0.621995 0.056903 0.208469
Si Si2 0.207080 0.063800 0.614403
Si Si3 0.122594 0.434167 0.406482
Si Si4 0.291446 0.057670 0.808709
Si Si5 0.455130 0.554520 0.900223
O O1 0.626346 0.250000 0.198685
O O2 0.581776 0.998982 0.159508
O O3 0.616248 0.021798 0.312813
O O4 0.662056 0.976558 0.165122
O O5 0.199470 0.250000 0.591227
O O6 0.250000 0.000000 0.585703
O O7 0.171068 0.948399 0.586004
O O8 0.208845 0.046620 0.719423
O O9 0.106570 0.500000 0.500000
O O10 0.109874 0.250000 0.396712
O O11 0.288046 0.250000 0.792457
O O12 0.250000 0.000000 0.856762
O O13 0.500000 0.499383 0.872233
O O14 0.455081 0.750000 0.897769
O O15 0.449289 0.500000 0.000000
#
# Coordination Sequence:
#
# PCOD9500289 Si02
#       5
#    16  16  16  16  16
#     4  10  19  33  53  78 108 142 178 217 264 313
#     4  10  17  27  41  60  88 125 170 219 268 311
#     4  11  21  33  47  67  96 133 177 220 262 308
#     4  10  17  27  44  68  99 137 180 221 262 307
#     4   9  19  36  60  89 117 141 167 206 259 318
#
# _framework density 19.106971000000001
#
# number of rings (size 3 to 8) (size 9 to 14) (size 15 to 20)
#    0.000    2.000    0.000    9.600    0.000    2.000 
#    0.000    2.000    0.000    1.200    0.000    4.200 
#    0.000    0.000    0.000    0.000    0.000    0.000 
#
# Total GULP energy -222699.346415 kJ/mol
# GULP energy per Si atom -5567.483660 kJ/mol
# Density = 1.906348 g / cm^3
# Si number density = 19.106971 Si / 1000 Ang^3
#
#
#
# Elastic Constant Matrix: (Units=GPa)
#
#
# Indices 1 2 3 4 5 6 
#
# 1 145.9151 22.4182 62.7705 0.0000 0.0000 0.0000
# 2 22.4182 87.4500 3.3059 0.0000 0.0000 0.0000
# 3 62.7705 3.3059 42.4895 0.0000 0.0000 0.0000
# 4 0.0000 0.0000 0.0000 19.8516 0.0000 0.0000
# 5 0.0000 0.0000 0.0000 0.0000 -186.2911 0.0000
# 6 0.0000 0.0000 0.0000 0.0000 0.0000 18.8489
#
#
#
# Elastic Compliance Matrix: (Units=1/GPa)
#
#
# Indices 1 2 3 4 5 6 
#
# 1 0.020138 -0.004050 -0.029435 0.000000 0.000000 0.000000
# 2 -0.004050 0.012283 0.005027 0.000000 0.000000 0.000000
# 3 -0.029435 0.005027 0.066630 0.000000 0.000000 0.000000
# 4 0.000000 0.000000 0.000000 0.050374 0.000000 0.000000
# 5 0.000000 0.000000 0.000000 0.000000 -0.005368 0.000000
# 6 0.000000 0.000000 0.000000 0.000000 0.000000 0.053053
#
#
# Mechanical properties :
#
#
# Convention : Reuss Voigt Hill
#
# Bulk Modulus (GPa) = 23.73331 50.31597 37.02464
# Shear Modulus (GPa) = 18.65172 -17.02746 0.81213
#
# Velocity S-wave (km/s) = 3.12777 -2.98848 0.65266
# Velocity P-wave (km/s) = 5.04898 3.80565 4.47075
#
# Compressibility (1/GPa) = 0.04213487
#
# Stress axis : x y z
#
# Youngs Moduli (GPa) = 49.65685 81.41178 15.00831
#
# Poissons Ratio (x) = 0.32970 0.44178
# Poissons Ratio (y) = 0.20110 -0.07545
# Poissons Ratio (z) = 1.46167 -0.40926
#
# Static dielectric constant tensor:
#      x y z
#    x 1.725670 0.000000 0.000000 
#    y 0.000000 1.641250 0.000000 
#    z 0.000000 0.000000 1.726880 
# 
# From -- ./inp_files/36077.got.cif
#   From: 2010.05.17/outbox.cif.g08.bks.cpg/sg67_19_cif.got.tgz:36077.got - 2010.06.03 18:28:57.
