data_PCOD9500234
_publ_section_title
;
Structure prediction by ZEFSAII (Michael W. Deem and Ramdas Pophale) SiO2 
 PCOD9500234
Probable space group: C M M A
;
_chemical_formula_sum "Si O2"
_cell_formula_units_Z 96
_cell_length_a 23.840592
_cell_length_b 7.567528
_cell_length_c 26.797194
_cell_angle_alpha 90.000000
_cell_angle_beta 90.000000
_cell_angle_gamma 90.000000
_cell_volume 4834.598270
_symmetry_space_group_name_H-M "C M M A"
_symmetry_group_IT_number 67
_symmetry_cell_setting 'orthorhombic'
loop_
_space_group_symop_operation_xyz
x,y,z
-x,1/2-y,z
x,-y,-z
-x,1/2+y,-z
-x,-y,-z
x,1/2+y,-z
-x,y,z
x,1/2-y,z
1/2+x,1/2+y,z
1/2-x,-y,z
1/2+x,1/2-y,-z
1/2-x,y,-z
1/2-x,1/2-y,-z
1/2+x,y,-z
1/2-x,1/2+y,z
1/2+x,-y,z
loop_
_atom_site_type_symbol
_atom_site_label
_atom_site_fract_x
_atom_site_fract_y
_atom_site_fract_z
Si Si1 0.564646 0.537783 0.557338
Si Si2 0.120217 0.049207 0.652607
Si Si3 0.000000 0.548136 0.205749
Si Si4 0.381119 0.541401 0.846423
Si Si5 0.815648 0.037417 0.749699
Si Si6 0.064455 0.462527 0.942740
Si Si7 0.500000 0.551893 0.313701
O O1 0.578662 0.500000 0.500000
O O2 0.500000 0.474786 0.565708
O O3 0.563193 0.750000 0.563584
O O4 0.609988 0.468851 0.597530
O O5 0.141318 0.250000 0.646186
O O6 0.155371 0.968642 0.698554
O O7 0.056135 0.047809 0.671466
O O8 0.944154 0.525348 0.174471
O O9 0.000000 0.433687 0.254466
O O10 0.000000 0.750000 0.224098
O O11 0.366324 0.750000 0.850803
O O12 0.342181 0.468894 0.801857
O O13 0.390040 0.470050 0.902499
O O14 0.825770 0.250000 0.749629
O O15 0.750000 0.000000 0.748529
O O16 0.061934 0.250000 0.936248
O O17 0.000000 0.528102 0.934854
O O18 0.079100 0.500000 0.000000
O O19 0.500000 0.750000 0.334752
#
# Coordination Sequence:
#
# PCOD9500234 Si02
#       7
#    16  16   8  16  16  16   8
#     4   9  17  29  48  74 103 133 164 199 236 290
#     4  10  19  35  55  71  97 141 177 195 236 312
#     4  10  16  30  51  70  96 132 170 197 237 309
#     4   9  16  29  53  74  93 131 172 200 234 301
#     4  10  21  36  55  74  95 127 171 218 257 297
#     4   9  16  27  45  72 102 130 161 195 236 291
#     4  12  22  28  43  78 111 130 156 207 260 293
#
# _framework density 19.856874000000001
#
# number of rings (size 3 to 8) (size 9 to 14) (size 15 to 20)
#    0.000    2.333    3.333    0.750    0.000    1.333 
#    0.000    1.667    0.000    1.000    0.000    7.000 
#    0.000    0.000    0.000    0.000    0.000    0.000 
#
# Total GULP energy -267353.704317 kJ/mol
# GULP energy per Si atom -5569.868840 kJ/mol
# Density = 1.981168 g / cm^3
# Si number density = 19.856874 Si / 1000 Ang^3
#
#
#
# Elastic Constant Matrix: (Units=GPa)
#
#
# Indices 1 2 3 4 5 6 
#
# 1 88.5109 -1.3359 63.1512 0.0000 0.0000 0.0000
# 2 -1.3359 44.9013 13.9896 0.0000 0.0000 0.0000
# 3 63.1512 13.9896 204.6667 0.0000 0.0000 0.0000
# 4 0.0000 0.0000 0.0000 19.9661 0.0000 0.0000
# 5 0.0000 0.0000 0.0000 0.0000 10.8054 0.0000
# 6 0.0000 0.0000 0.0000 0.0000 0.0000 22.2699
#
#
#
# Elastic Compliance Matrix: (Units=1/GPa)
#
#
# Indices 1 2 3 4 5 6 
#
# 1 0.014642 0.001883 -0.004647 0.000000 0.000000 0.000000
# 2 0.001883 0.022998 -0.002153 0.000000 0.000000 0.000000
# 3 -0.004647 -0.002153 0.006467 0.000000 0.000000 0.000000
# 4 0.000000 0.000000 0.000000 0.050085 0.000000 0.000000
# 5 0.000000 0.000000 0.000000 0.000000 0.092546 0.000000
# 6 0.000000 0.000000 0.000000 0.000000 0.000000 0.044904
#
#
# Mechanical properties :
#
#
# Convention : Reuss Voigt Hill
#
# Bulk Modulus (GPa) = 29.17669 54.40984 41.79327
# Shear Modulus (GPa) = 19.77080 28.09322 23.93201
#
# Velocity S-wave (km/s) = 3.15884 3.76544 3.47540
# Velocity P-wave (km/s) = 5.29431 6.80920 6.09898
#
# Compressibility (1/GPa) = 0.03427393
#
# Stress axis : x y z
#
# Youngs Moduli (GPa) = 68.29810 43.48216 154.63420
#
# Poissons Ratio (x) = -0.08189 0.71851
# Poissons Ratio (y) = -0.12863 0.33294
# Poissons Ratio (z) = 0.31735 0.09362
#
# Static dielectric constant tensor:
#      x y z
#    x 1.646390 0.000000 0.000000 
#    y 0.000000 1.772360 0.000000 
#    z 0.000000 0.000000 1.795910 
# 
# From -- ./inp_files/44803.got.cif
#   From: 2010.05.17/outbox.cif.g08.bks.cpg/sg67_23_cif.got.tgz:44803.got - 2010.06.03 18:28:57.
