data_PCOD9500919
_publ_section_title
;
Structure prediction by ZEFSAII (Michael W. Deem and Ramdas Pophale) SiO2 
 PCOD9500919
Probable space group: C M M A
;
_chemical_formula_sum "Si O2"
_cell_formula_units_Z 96
_cell_length_a 14.994067
_cell_length_b 19.083378
_cell_length_c 15.642958
_cell_angle_alpha 90.000000
_cell_angle_beta 90.000000
_cell_angle_gamma 90.000000
_cell_volume 4476.036086
_symmetry_space_group_name_H-M "C M M A"
_symmetry_group_IT_number 67
_symmetry_cell_setting 'orthorhombic'
loop_
_space_group_symop_operation_xyz
x,y,z
-x,1/2-y,z
x,-y,-z
-x,1/2+y,-z
-x,-y,-z
x,1/2+y,-z
-x,y,z
x,1/2-y,z
1/2+x,1/2+y,z
1/2-x,-y,z
1/2+x,1/2-y,-z
1/2-x,y,-z
1/2-x,1/2-y,-z
1/2+x,y,-z
1/2-x,1/2+y,z
1/2+x,-y,z
loop_
_atom_site_type_symbol
_atom_site_label
_atom_site_fract_x
_atom_site_fract_y
_atom_site_fract_z
Si Si1 0.399596 0.405062 0.224732
Si Si2 0.891767 0.667924 0.863600
Si Si3 0.391357 0.330693 0.057454
Si Si4 0.890940 0.669153 0.394935
Si Si5 0.163687 0.548288 0.737979
Si Si6 0.893489 0.926546 0.548706
O O1 0.500000 0.375265 0.223080
O O2 0.359983 0.380093 0.134522
O O3 0.358277 0.372081 0.310748
O O4 0.406376 0.487978 0.236421
O O5 0.872205 0.750000 0.847263
O O6 0.847302 0.615022 0.797752
O O7 0.000000 0.660253 0.857878
O O8 0.862507 0.651775 0.961122
O O9 0.500000 0.333155 0.052961
O O10 0.366586 0.250000 0.076212
O O11 0.865929 0.750000 0.389992
O O12 0.862146 0.632535 0.482654
O O13 0.000000 0.664469 0.396349
O O14 0.250000 0.500000 0.750593
O O15 0.152665 0.570398 0.639973
O O16 0.000000 0.918236 0.563909
O O17 0.880841 0.000000 0.500000
#
# Coordination Sequence:
#
# PCOD9500919 Si02
#       6
#    16  16  16  16  16  16
#     4  10  18  33  57  85 116 150 192 243 297 356
#     4   9  19  39  65  90 117 154 205 256 296 347
#     4   8  15  30  57  90 118 147 189 245 301 345
#     4   9  17  30  54  87 114 140 183 239 292 348
#     4  12  25  38  55  83 119 159 195 243 304 364
#     4  10  19  36  59  81 108 145 192 240 293 355
#
# _framework density 21.447548000000001
#
# number of rings (size 3 to 8) (size 9 to 14) (size 15 to 20)
#    0.000    2.333    1.667    3.000    0.000    3.667 
#    0.000    7.500    0.000    3.000    0.000    0.000 
#    0.000    0.000    0.000    0.000    0.000    0.000 
#
# Total GULP energy -267993.130580 kJ/mol
# GULP energy per Si atom -5583.190220 kJ/mol
# Density = 2.139873 g / cm^3
# Si number density = 21.447548 Si / 1000 Ang^3
#
#
#
# Elastic Constant Matrix: (Units=GPa)
#
#
# Indices 1 2 3 4 5 6 
#
# 1 55.0137 26.9256 39.9377 0.0000 0.0000 0.0000
# 2 26.9256 123.6059 107.1248 0.0000 0.0000 0.0000
# 3 39.9377 107.1248 207.3146 0.0000 0.0000 0.0000
# 4 0.0000 0.0000 0.0000 39.8396 0.0000 0.0000
# 5 0.0000 0.0000 0.0000 0.0000 -12.2283 0.0000
# 6 0.0000 0.0000 0.0000 0.0000 0.0000 17.3024
#
#
#
# Elastic Compliance Matrix: (Units=1/GPa)
#
#
# Indices 1 2 3 4 5 6 
#
# 1 0.021395 -0.001971 -0.003103 0.000000 0.000000 0.000000
# 2 -0.001971 0.014833 -0.007285 0.000000 0.000000 0.000000
# 3 -0.003103 -0.007285 0.009186 0.000000 0.000000 0.000000
# 4 0.000000 0.000000 0.000000 0.025101 0.000000 0.000000
# 5 0.000000 0.000000 0.000000 0.000000 -0.081778 0.000000
# 6 0.000000 0.000000 0.000000 0.000000 0.000000 0.057796
#
#
# Mechanical properties :
#
#
# Convention : Reuss Voigt Hill
#
# Bulk Modulus (GPa) = 48.32027 81.54561 64.93294
# Shear Modulus (GPa) = 63.98023 23.11248 43.54635
#
# Velocity S-wave (km/s) = 5.46770 3.28629 4.51085
# Velocity P-wave (km/s) = 7.90186 7.24590 7.58098
#
# Compressibility (1/GPa) = 0.02069525
#
# Stress axis : x y z
#
# Youngs Moduli (GPa) = 46.74050 67.41601 108.86516
#
# Poissons Ratio (x) = 0.13290 0.33780
# Poissons Ratio (y) = 0.09214 0.79308
# Poissons Ratio (z) = 0.14503 0.49112
#
# Static dielectric constant tensor:
#      x y z
#    x 2.035960 0.000000 0.000000 
#    y 0.000000 1.734880 0.000000 
#    z 0.000000 0.000000 1.752960 
# 
# From -- ./inp_files/27159.got.cif
#   From: 2010.05.17/outbox.cif.g08.bks.cpg/sg67_14_cif.got.tgz:27159.got - 2010.06.03 18:28:57.
