data_PCOD9500761
_publ_section_title
;
Structure prediction by ZEFSAII (Michael W. Deem and Ramdas Pophale) SiO2 
 PCOD9500761
Probable space group: C M M A
;
_chemical_formula_sum "Si O2"
_cell_formula_units_Z 64
_cell_length_a 25.312514
_cell_length_b 8.658919
_cell_length_c 14.845182
_cell_angle_alpha 90.000000
_cell_angle_beta 90.000000
_cell_angle_gamma 90.000000
_cell_volume 3253.752270
_symmetry_space_group_name_H-M "C M M A"
_symmetry_group_IT_number 67
_symmetry_cell_setting 'orthorhombic'
loop_
_space_group_symop_operation_xyz
x,y,z
-x,1/2-y,z
x,-y,-z
-x,1/2+y,-z
-x,-y,-z
x,1/2+y,-z
-x,y,z
x,1/2-y,z
1/2+x,1/2+y,z
1/2-x,-y,z
1/2+x,1/2-y,-z
1/2-x,y,-z
1/2-x,1/2-y,-z
1/2+x,y,-z
1/2-x,1/2+y,z
1/2+x,-y,z
loop_
_atom_site_type_symbol
_atom_site_label
_atom_site_fract_x
_atom_site_fract_y
_atom_site_fract_z
Si Si1 0.691140 0.564923 0.756237
Si Si2 0.109658 0.934251 0.399534
Si Si3 0.110181 0.934454 0.898740
Si Si4 0.000000 0.565144 0.102287
Si Si5 0.500000 0.065918 0.602128
O O1 0.692063 0.750000 0.767139
O O2 0.750000 0.500000 0.752107
O O3 0.658300 0.528969 0.665515
O O4 0.658369 0.490292 0.837759
O O5 0.103546 0.750000 0.405468
O O6 0.117560 0.000000 0.500000
O O7 0.055173 0.003646 0.360167
O O8 0.106869 0.750000 0.902225
O O9 0.055031 0.001772 0.859787
O O10 0.116206 0.000000 0.000000
O O11 0.000000 0.750000 0.102359
O O12 0.000000 0.500000 0.000000
O O13 0.500000 0.250000 0.601410
O O14 0.500000 0.000000 0.500000
#
# Coordination Sequence:
#
# PCOD9500761 Si02
#       5
#    16  16  16   8   8
#     4  11  25  43  61  85 116 154 200 248 292 344
#     4  10  21  38  61  87 119 154 191 237 291 347
#     4  11  22  39  63  90 121 156 194 240 293 350
#     4  10  18  33  58  89 123 155 191 236 288 349
#     4  10  18  31  56  87 119 151 189 234 286 347
#
# _framework density 19.669598000000001
#
# number of rings (size 3 to 8) (size 9 to 14) (size 15 to 20)
#    0.000    1.500    0.000    9.000    0.000    6.000 
#    0.000    6.250    0.000    0.000    0.000    0.000 
#    0.000    0.000    0.000    0.000    0.000    0.000 
#
# Total GULP energy -178897.581291 kJ/mol
# GULP energy per Si atom -5590.549415 kJ/mol
# Density = 1.962483 g / cm^3
# Si number density = 19.669598 Si / 1000 Ang^3
#
#
#
# Elastic Constant Matrix: (Units=GPa)
#
#
# Indices 1 2 3 4 5 6 
#
# 1 223.6738 99.7351 81.9155 0.0000 0.0000 0.0000
# 2 99.7351 158.6181 63.3020 0.0000 0.0000 0.0000
# 3 81.9155 63.3020 110.6898 0.0000 0.0000 0.0000
# 4 0.0000 0.0000 0.0000 22.9545 0.0000 0.0000
# 5 0.0000 0.0000 0.0000 0.0000 32.2128 0.0000
# 6 0.0000 0.0000 0.0000 0.0000 0.0000 40.0888
#
#
#
# Elastic Compliance Matrix: (Units=1/GPa)
#
#
# Indices 1 2 3 4 5 6 
#
# 1 0.007133 -0.003082 -0.003516 0.000000 0.000000 0.000000
# 2 -0.003082 0.009500 -0.003153 0.000000 0.000000 0.000000
# 3 -0.003516 -0.003153 0.013439 0.000000 0.000000 0.000000
# 4 0.000000 0.000000 0.000000 0.043564 0.000000 0.000000
# 5 0.000000 0.000000 0.000000 0.000000 0.031044 0.000000
# 6 0.000000 0.000000 0.000000 0.000000 0.000000 0.024945
#
#
# Mechanical properties :
#
#
# Convention : Reuss Voigt Hill
#
# Bulk Modulus (GPa) = 94.59341 109.20966 101.90154
# Shear Modulus (GPa) = 32.75493 35.58650 34.17071
#
# Velocity S-wave (km/s) = 4.08518 4.25810 4.17254
# Velocity P-wave (km/s) = 8.39328 8.93408 8.66790
#
# Compressibility (1/GPa) = 0.01057156
#
# Stress axis : x y z
#
# Youngs Moduli (GPa) = 140.20248 105.26124 74.40901
#
# Poissons Ratio (x) = 0.32437 0.26163
# Poissons Ratio (y) = 0.43204 0.23458
# Poissons Ratio (z) = 0.49297 0.33184
#
# Static dielectric constant tensor:
#      x y z
#    x 1.698430 0.000000 0.000000 
#    y 0.000000 1.659890 0.000000 
#    z 0.000000 0.000000 1.385550 
# 
# From -- ./inp_files/29764.got.cif
#   From: 2010.05.17/outbox.cif.g08.bks.cpg/sg67_15_cif.got.tgz:29764.got - 2010.06.03 18:28:57.
