data_PCOD9500457
_publ_section_title
;
Structure prediction by ZEFSAII (Michael W. Deem and Ramdas Pophale) SiO2 
 PCOD9500457
Probable space group: C M M A
;
_chemical_formula_sum "Si O2"
_cell_formula_units_Z 88
_cell_length_a 30.164351
_cell_length_b 16.375096
_cell_length_c 10.079865
_cell_angle_alpha 90.000000
_cell_angle_beta 90.000000
_cell_angle_gamma 90.000000
_cell_volume 4978.890283
_symmetry_space_group_name_H-M "C M M A"
_symmetry_group_IT_number 67
_symmetry_cell_setting 'orthorhombic'
loop_
_space_group_symop_operation_xyz
x,y,z
-x,1/2-y,z
x,-y,-z
-x,1/2+y,-z
-x,-y,-z
x,1/2+y,-z
-x,y,z
x,1/2-y,z
1/2+x,1/2+y,z
1/2-x,-y,z
1/2+x,1/2-y,-z
1/2-x,y,-z
1/2-x,1/2-y,-z
1/2+x,y,-z
1/2-x,1/2+y,z
1/2+x,-y,z
loop_
_atom_site_type_symbol
_atom_site_label
_atom_site_fract_x
_atom_site_fract_y
_atom_site_fract_z
Si Si1 0.389172 0.655412 0.450658
Si Si2 0.051237 0.346917 0.695452
Si Si3 0.640417 0.160199 0.833800
Si Si4 0.385145 0.079468 0.085723
Si Si5 0.800135 0.003614 0.204774
Si Si6 0.326595 0.000000 0.500000
O O1 0.373989 0.750000 0.476257
O O2 0.431570 0.643226 0.544315
O O3 0.392760 0.648353 0.291140
O O4 0.355817 0.582638 0.488918
O O5 0.055308 0.250000 0.726369
O O6 0.082796 0.397407 0.794139
O O7 0.000000 0.370343 0.708601
O O8 0.659874 0.250000 0.820470
O O9 0.677770 0.091356 0.823088
O O10 0.617589 0.149470 0.975442
O O11 0.335910 0.058744 0.141626
O O12 0.399292 0.000000 0.000000
O O13 0.750000 0.000000 0.155413
O O14 0.800457 0.992206 0.363153
#
# Coordination Sequence:
#
# PCOD9500457 Si02
#       6
#    16  16  16  16  16   8
#     4   9  18  34  57  81 106 142 184 227 276 332
#     4  10  20  36  58  82 109 143 187 235 280 329
#     4   9  19  35  55  77 109 145 180 223 277 332
#     4  10  20  35  55  79 111 147 184 223 275 331
#     4  10  20  34  55  81 110 144 186 229 275 331
#     4  10  17  34  59  78 110 144 181 228 289 328
#
# _framework density 17.674620999999998
#
# number of rings (size 3 to 8) (size 9 to 14) (size 15 to 20)
#    0.000    2.364    1.818    0.818    0.000    3.636 
#    0.000    5.000    0.000    7.636    0.000    0.000 
#    0.000    0.000    0.000    0.000    0.000    0.000 
#
# Total GULP energy -244954.710833 kJ/mol
# GULP energy per Si atom -5567.152519 kJ/mol
# Density = 1.763439 g / cm^3
# Si number density = 17.674621 Si / 1000 Ang^3
#
#
#
# Elastic Constant Matrix: (Units=GPa)
#
#
# Indices 1 2 3 4 5 6 
#
# 1 118.9176 35.8681 61.5277 0.0000 0.0000 0.0000
# 2 35.8681 56.8059 34.8795 0.0000 0.0000 0.0000
# 3 61.5277 34.8795 127.8603 0.0000 0.0000 0.0000
# 4 0.0000 0.0000 0.0000 22.7095 0.0000 0.0000
# 5 0.0000 0.0000 0.0000 0.0000 4.9746 0.0000
# 6 0.0000 0.0000 0.0000 0.0000 0.0000 11.8989
#
#
#
# Elastic Compliance Matrix: (Units=1/GPa)
#
#
# Indices 1 2 3 4 5 6 
#
# 1 0.012254 -0.004945 -0.004548 0.000000 0.000000 0.000000
# 2 -0.004945 0.023141 -0.003933 0.000000 0.000000 0.000000
# 3 -0.004548 -0.003933 0.011082 0.000000 0.000000 0.000000
# 4 0.000000 0.000000 0.000000 0.044035 0.000000 0.000000
# 5 0.000000 0.000000 0.000000 0.000000 0.201022 0.000000
# 6 0.000000 0.000000 0.000000 0.000000 0.000000 0.084042
#
#
# Mechanical properties :
#
#
# Convention : Reuss Voigt Hill
#
# Bulk Modulus (GPa) = 50.95372 63.12605 57.03988
# Shear Modulus (GPa) = 12.22588 19.33715 15.78151
#
# Velocity S-wave (km/s) = 2.63291 3.31125 2.99137
# Velocity P-wave (km/s) = 6.17530 7.10017 6.65382
#
# Compressibility (1/GPa) = 0.01962565
#
# Stress axis : x y z
#
# Youngs Moduli (GPa) = 81.60886 43.21324 90.23329
#
# Poissons Ratio (x) = 0.21368 0.41035
# Poissons Ratio (y) = 0.40354 0.35491
# Poissons Ratio (z) = 0.37113 0.16997
#
# Static dielectric constant tensor:
#      x y z
#    x 1.573350 0.000000 0.000000 
#    y 0.000000 1.628660 0.000000 
#    z 0.000000 0.000000 1.638360 
# 
# From -- ./inp_files/14644.got.cif
#   From: 2010.05.17/outbox.cif.g08.bks.cpg/sg67_8_cif.got.tgz:14644.got - 2010.06.03 18:28:57.
