data_PCOD9500968
_publ_section_title
;
Structure prediction by ZEFSAII (Michael W. Deem and Ramdas Pophale) SiO2 
 PCOD9500968
Probable space group: C M M A
;
_chemical_formula_sum "Si O2"
_cell_formula_units_Z 68
_cell_length_a 30.130216
_cell_length_b 14.412237
_cell_length_c 7.464770
_cell_angle_alpha 90.000000
_cell_angle_beta 90.000000
_cell_angle_gamma 90.000000
_cell_volume 3241.530194
_symmetry_space_group_name_H-M "C M M A"
_symmetry_group_IT_number 67
_symmetry_cell_setting 'orthorhombic'
loop_
_space_group_symop_operation_xyz
x,y,z
-x,1/2-y,z
x,-y,-z
-x,1/2+y,-z
-x,-y,-z
x,1/2+y,-z
-x,y,z
x,1/2-y,z
1/2+x,1/2+y,z
1/2-x,-y,z
1/2+x,1/2-y,-z
1/2-x,y,-z
1/2-x,1/2-y,-z
1/2+x,y,-z
1/2-x,1/2+y,z
1/2+x,-y,z
loop_
_atom_site_type_symbol
_atom_site_label
_atom_site_fract_x
_atom_site_fract_y
_atom_site_fract_z
Si Si1 0.000000 0.250000 0.994027
Si Si2 0.903875 0.750000 0.986367
Si Si3 0.236751 0.250000 0.789572
Si Si4 0.903942 0.443452 0.816994
Si Si5 0.819991 0.412200 0.599626
Si Si6 0.163127 0.750000 0.656920
Si Si7 0.000000 0.053630 0.809588
O O1 0.953515 0.250000 0.099134
O O2 0.000000 0.339369 0.868055
O O3 0.866325 0.750000 0.835238
O O4 0.901093 0.662183 0.115554
O O5 0.210113 0.157358 0.722785
O O6 0.284292 0.250000 0.694715
O O7 0.250000 0.250000 0.000000
O O8 0.859562 0.459892 0.709163
O O9 0.951663 0.464080 0.725058
O O10 0.903158 0.500000 0.000000
O O11 0.797659 0.500000 0.500000
O O12 0.843456 0.341714 0.460709
O O13 0.000000 0.000000 0.000000
#
# Coordination Sequence:
#
# PCOD9500968 Si02
#       7
#     4   8   8  16  16   8   8
#     4   8  16  28  52  84 112 146 192 236 278 320
#     4  10  18  35  59  84 114 153 196 237 275 342
#     4  11  25  45  66  85 111 156 206 244 290 359
#     4  10  19  35  58  84 113 153 199 237 282 346
#     4  11  23  39  59  88 120 150 188 246 307 354
#     4  11  23  40  59  83 119 154 184 240 309 353
#     4   8  16  30  52  80 112 148 192 240 278 330
#
# _framework density 20.977747999999998
#
# number of rings (size 3 to 8) (size 9 to 14) (size 15 to 20)
#    0.000    1.882    0.000    5.647    0.000    1.882 
#    0.000    2.941    0.000    0.000    0.000    0.000 
#    0.000    0.000    0.000    0.000    0.000    0.000 
#
# Total GULP energy -189525.453668 kJ/mol
# GULP energy per Si atom -5574.278049 kJ/mol
# Density = 2.093000 g / cm^3
# Si number density = 20.977748 Si / 1000 Ang^3
#
#
#
# Elastic Constant Matrix: (Units=GPa)
#
#
# Indices 1 2 3 4 5 6 
#
# 1 176.8872 2.1500 39.7214 0.0000 0.0000 0.0000
# 2 2.1500 110.1460 19.0789 0.0000 0.0000 0.0000
# 3 39.7214 19.0789 62.0349 0.0000 0.0000 0.0000
# 4 0.0000 0.0000 0.0000 12.9622 0.0000 0.0000
# 5 0.0000 0.0000 0.0000 0.0000 -30.8202 0.0000
# 6 0.0000 0.0000 0.0000 0.0000 0.0000 24.1433
#
#
#
# Elastic Compliance Matrix: (Units=1/GPa)
#
#
# Indices 1 2 3 4 5 6 
#
# 1 0.006645 0.000642 -0.004452 0.000000 0.000000 0.000000
# 2 0.000642 0.009652 -0.003379 0.000000 0.000000 0.000000
# 3 -0.004452 -0.003379 0.020010 0.000000 0.000000 0.000000
# 4 0.000000 0.000000 0.000000 0.077148 0.000000 0.000000
# 5 0.000000 0.000000 0.000000 0.000000 -0.032446 0.000000
# 6 0.000000 0.000000 0.000000 0.000000 0.000000 0.041419
#
#
# Mechanical properties :
#
#
# Convention : Reuss Voigt Hill
#
# Bulk Modulus (GPa) = 45.60565 52.32985 48.96775
# Shear Modulus (GPa) = 34.69408 20.46491 27.57949
#
# Velocity S-wave (km/s) = 4.07117 3.12677 3.62982
# Velocity P-wave (km/s) = 6.62468 6.16727 6.40006
#
# Compressibility (1/GPa) = 0.02192711
#
# Stress axis : x y z
#
# Youngs Moduli (GPa) = 150.48150 103.60921 49.97477
#
# Poissons Ratio (x) = -0.06647 0.22251
# Poissons Ratio (y) = -0.09653 0.16887
# Poissons Ratio (z) = 0.67000 0.35011
#
# Static dielectric constant tensor:
#      x y z
#    x 1.843000 0.000000 0.000000 
#    y 0.000000 1.760290 0.000000 
#    z 0.000000 0.000000 1.755910 
# 
# From -- ./inp_files/13301.got.cif
#   From: 2010.05.17/outbox.cif.g08.bks.cpg/sg67_7_cif.got.tgz:13301.got - 2010.06.03 18:28:57.
