data_PCOD9500114
_publ_section_title
;
Structure prediction by ZEFSAII (Michael W. Deem and Ramdas Pophale) SiO2 
 PCOD9500114
Probable space group: C C C M
;
_chemical_formula_sum "Si O2"
_cell_formula_units_Z 30
_cell_length_a 9.000000
_cell_length_b 18.000000
_cell_length_c 18.000000
_cell_angle_alpha 90.000000
_cell_angle_beta 90.000000
_cell_angle_gamma 90.000000
_cell_volume 2916.000000
_symmetry_space_group_name_H-M "C C C M"
_symmetry_group_IT_number 66
_symmetry_cell_setting 'orthorhombic'
loop_
_space_group_symop_operation_xyz
x,y,z
-x,-y,z
x,-y,1/2-z
-x,y,1/2-z
-x,-y,-z
x,y,-z
-x,y,1/2+z
x,-y,1/2+z
1/2+x,1/2+y,z
1/2-x,1/2-y,z
1/2+x,1/2-y,1/2-z
1/2-x,1/2+y,1/2-z
1/2-x,1/2-y,-z
1/2+x,1/2+y,-z
1/2-x,1/2+y,1/2+z
1/2+x,1/2-y,1/2+z
loop_
_atom_site_type_symbol
_atom_site_label
_atom_site_fract_x
_atom_site_fract_y
_atom_site_fract_z
Si Si1 0.964070 0.897888 0.500000
Si Si2 0.750000 0.250000 0.873711
Si Si3 0.013338 0.725153 0.000000
Si Si4 0.807733 0.414922 0.500000
Si Si5 0.000000 0.500000 0.121577
Si Si6 0.500000 0.500000 0.750000
Si Si7 0.220161 0.907299 0.848055
O O1 0.018486 0.812219 0.500000
O O2 0.855479 0.909693 0.569910
O O3 0.130285 0.933094 0.500000
O O4 0.789291 0.178880 0.826286
O O5 0.879061 0.282305 0.928172
O O6 0.874421 0.669500 0.000000
O O7 0.887274 0.452510 0.429401
O O8 0.884383 0.443019 0.159629
O O9 0.607246 0.451745 0.799154
#
# Coordination Sequence:
#
# PCOD9500114 Si02
#       7
#     8   8   8   8   8   4  16
#     4  10  21  36  65  90 135 156 204 254 326 357
#     4   9  18  38  66  84 126 159 206 248 316 357
#     4   9  16  31  59  98 122 156 195 258 303 372
#     4  11  18  30  54 103 126 159 194 258 305 381
#     4  11  22  33  62  86 128 154 212 246 318 364
#     4  12  28  44  64  84 128 158 220 248 328 368
#     4  11  23  44  63  95 119 173 200 268 306 386
#
# _framework density 10.288066000000001
#
# number of rings (size 3 to 8) (size 9 to 14) (size 15 to 20)
#    0.000    1.600    2.667    4.400    0.000    2.133 
#    0.000    2.667    5.867    0.000    0.000    0.000 
#    0.000    0.000    0.000    0.000    0.000    0.000 
#
# Total GULP energy -167189.212321 kJ/mol
# GULP energy per Si atom -5572.973744 kJ/mol
# Density = 1.026465 g / cm^3
# Si number density = 10.288066 Si / 1000 Ang^3
#
#
#
# Elastic Constant Matrix: (Units=GPa)
#
#
# Indices 1 2 3 4 5 6 
#
# 1 144.5205 37.8389 10.7401 0.0000 0.0000 0.0000
# 2 37.8389 152.4353 37.0016 0.0000 0.0000 0.0000
# 3 10.7401 37.0016 36.8412 0.0000 0.0000 0.0000
# 4 0.0000 0.0000 0.0000 17.2852 0.0000 0.0000
# 5 0.0000 0.0000 0.0000 0.0000 -37.9906 0.0000
# 6 0.0000 0.0000 0.0000 0.0000 0.0000 33.7285
#
#
#
# Elastic Compliance Matrix: (Units=1/GPa)
#
#
# Indices 1 2 3 4 5 6 
#
# 1 0.007405 -0.001738 -0.000413 0.000000 0.000000 0.000000
# 2 -0.001738 0.009083 -0.008616 0.000000 0.000000 0.000000
# 3 -0.000413 -0.008616 0.035917 0.000000 0.000000 0.000000
# 4 0.000000 0.000000 0.000000 0.057853 0.000000 0.000000
# 5 0.000000 0.000000 0.000000 0.000000 -0.026322 0.000000
# 6 0.000000 0.000000 0.000000 0.000000 0.000000 0.029648
#
#
# Mechanical properties :
#
#
# Convention : Reuss Voigt Hill
#
# Bulk Modulus (GPa) = 32.39252 56.10646 44.24949
# Shear Modulus (GPa) = 34.38577 19.15241 26.76909
#
# Velocity S-wave (km/s) = 4.09240 3.05422 3.61082
# Velocity P-wave (km/s) = 6.17311 6.30592 6.23987
#
# Compressibility (1/GPa) = 0.03087132
#
# Stress axis : x y z
#
# Youngs Moduli (GPa) = 135.04099 110.09681 27.84171
#
# Poissons Ratio (x) = 0.19133 0.01151
# Poissons Ratio (y) = 0.23468 0.23988
# Poissons Ratio (z) = 0.05582 0.94858
#
# Static dielectric constant tensor:
#      x y z
#    x 1.693650 0.000000 0.000000 
#    y 0.000000 1.875600 0.000000 
#    z 0.000000 0.000000 1.746860 
# 
# From -- ./inp_files/36179.got.cif
#   From: 2010.05.17/outbox.ucp.g08.bks.cvg/sg66_19_cif.got.tgz:36179.got - 2010.06.11 16:44:13.
