data_PCOD9500268
_publ_section_title
;
Structure prediction by ZEFSAII (Michael W. Deem and Ramdas Pophale) SiO2 
 PCOD9500268
Probable space group: C M M A
;
_chemical_formula_sum "Si O2"
_cell_formula_units_Z 80
_cell_length_a 15.003051
_cell_length_b 8.725664
_cell_length_c 27.589816
_cell_angle_alpha 90.000000
_cell_angle_beta 90.000000
_cell_angle_gamma 90.000000
_cell_volume 3611.826460
_symmetry_space_group_name_H-M "C M M A"
_symmetry_group_IT_number 67
_symmetry_cell_setting 'orthorhombic'
loop_
_space_group_symop_operation_xyz
x,y,z
-x,1/2-y,z
x,-y,-z
-x,1/2+y,-z
-x,-y,-z
x,1/2+y,-z
-x,y,z
x,1/2-y,z
1/2+x,1/2+y,z
1/2-x,-y,z
1/2+x,1/2-y,-z
1/2-x,y,-z
1/2-x,1/2-y,-z
1/2+x,y,-z
1/2-x,1/2+y,z
1/2+x,-y,z
loop_
_atom_site_type_symbol
_atom_site_label
_atom_site_fract_x
_atom_site_fract_y
_atom_site_fract_z
Si Si1 0.650740 0.431791 0.851895
Si Si2 0.394859 0.420277 0.048047
Si Si3 0.648564 0.933014 0.753668
Si Si4 0.148992 0.934098 0.655039
Si Si5 0.649126 0.933450 0.450997
O O1 0.651557 0.250000 0.846338
O O2 0.750000 0.500000 0.853521
O O3 0.612338 0.480631 0.903493
O O4 0.607648 0.505907 0.803828
O O5 0.500000 0.402330 0.039288
O O6 0.355865 0.250000 0.055853
O O7 0.356801 0.500000 0.000000
O O8 0.651369 0.750000 0.753790
O O9 0.750000 0.000000 0.753597
O O10 0.607696 0.993949 0.703433
O O11 0.151893 0.750000 0.660140
O O12 0.109242 0.970530 0.601977
O O13 0.250000 0.000000 0.653236
O O14 0.653201 0.750000 0.454953
O O15 0.607049 0.000000 0.500000
O O16 0.750000 0.000000 0.449882
#
# Coordination Sequence:
#
# PCOD9500268 Si02
#       5
#    16  16  16  16  16
#     4  11  21  34  52  74 101 129 161 200 241 283
#     4  10  21  38  58  79 103 130 161 195 233 280
#     4  10  17  26  40  58  81 109 142 181 227 275
#     4   9  15  22  31  45  65  93 129 170 217 266
#     4   9  15  20  27  38  56  83 120 166 212 258
#
# _framework density 22.149457999999999
#
# number of rings (size 3 to 8) (size 9 to 14) (size 15 to 20)
#    0.000    2.200    0.000    8.400    0.000    4.000 
#    0.000    2.000    0.000    0.000    0.000    0.000 
#    0.000    0.000    0.000    0.000    0.000    1.000 
#
# Total GULP energy -223189.146278 kJ/mol
# GULP energy per Si atom -5579.728657 kJ/mol
# Density = 2.209904 g / cm^3
# Si number density = 22.149458 Si / 1000 Ang^3
#
#
#
# Elastic Constant Matrix: (Units=GPa)
#
#
# Indices 1 2 3 4 5 6 
#
# 1 48.0430 7.6901 14.4385 0.0000 0.0000 0.0000
# 2 7.6901 185.8468 102.3929 0.0000 0.0000 0.0000
# 3 14.4385 102.3929 258.3615 0.0000 0.0000 0.0000
# 4 0.0000 0.0000 0.0000 23.5944 0.0000 0.0000
# 5 0.0000 0.0000 0.0000 0.0000 16.0714 0.0000
# 6 0.0000 0.0000 0.0000 0.0000 0.0000 0.4210
#
#
#
# Elastic Compliance Matrix: (Units=1/GPa)
#
#
# Indices 1 2 3 4 5 6 
#
# 1 0.021182 -0.000287 -0.001070 0.000000 0.000000 0.000000
# 2 -0.000287 0.006888 -0.002714 0.000000 0.000000 0.000000
# 3 -0.001070 -0.002714 0.005006 0.000000 0.000000 0.000000
# 4 0.000000 0.000000 0.000000 0.042383 0.000000 0.000000
# 5 0.000000 0.000000 0.000000 0.000000 0.062222 0.000000
# 6 0.000000 0.000000 0.000000 0.000000 0.000000 2.375410
#
#
# Mechanical properties :
#
#
# Convention : Reuss Voigt Hill
#
# Bulk Modulus (GPa) = 40.10520 82.36602 61.23561
# Shear Modulus (GPa) = 1.97664 32.53269 17.25467
#
# Velocity S-wave (km/s) = 0.94570 3.83662 2.79410
# Velocity P-wave (km/s) = 4.39754 7.54278 6.17381
#
# Compressibility (1/GPa) = 0.02493442
#
# Stress axis : x y z
#
# Youngs Moduli (GPa) = 47.20944 145.18480 199.76717
#
# Poissons Ratio (x) = 0.04166 0.21376
# Poissons Ratio (y) = 0.01355 0.54211
# Poissons Ratio (z) = 0.05052 0.39399
#
# Static dielectric constant tensor:
#      x y z
#    x 1.821640 0.000000 0.000000 
#    y 0.000000 1.761390 0.000000 
#    z 0.000000 0.000000 1.905070 
# 
# From -- ./inp_files/44415.got.cif
#   From: 2010.05.17/outbox.cif.g08.bks.cpg/sg67_23_cif.got.tgz:44415.got - 2010.06.03 18:28:57.
