data_PCOD9500563
_publ_section_title
;
Structure prediction by ZEFSAII (Michael W. Deem and Ramdas Pophale) SiO2 
 PCOD9500563
Probable space group: C M M A
;
_chemical_formula_sum "Si O2"
_cell_formula_units_Z 112
_cell_length_a 15.744503
_cell_length_b 14.402567
_cell_length_c 25.767769
_cell_angle_alpha 90.000000
_cell_angle_beta 90.000000
_cell_angle_gamma 90.000000
_cell_volume 5843.131749
_symmetry_space_group_name_H-M "C M M A"
_symmetry_group_IT_number 67
_symmetry_cell_setting 'orthorhombic'
loop_
_space_group_symop_operation_xyz
x,y,z
-x,1/2-y,z
x,-y,-z
-x,1/2+y,-z
-x,-y,-z
x,1/2+y,-z
-x,y,z
x,1/2-y,z
1/2+x,1/2+y,z
1/2-x,-y,z
1/2+x,1/2-y,-z
1/2-x,y,-z
1/2-x,1/2-y,-z
1/2+x,y,-z
1/2-x,1/2+y,z
1/2+x,-y,z
loop_
_atom_site_type_symbol
_atom_site_label
_atom_site_fract_x
_atom_site_fract_y
_atom_site_fract_z
Si Si1 0.594050 0.894802 0.480498
Si Si2 0.405858 0.354492 0.402239
Si Si3 0.346505 0.526399 0.080707
Si Si4 0.398466 0.144730 0.821190
Si Si5 0.780191 0.637850 0.613510
Si Si6 0.097608 0.863072 0.706162
Si Si7 0.400687 0.856002 0.983595
O O1 0.500000 0.871910 0.458144
O O2 0.603081 0.844905 0.535540
O O3 0.668570 0.880704 0.439609
O O4 0.593718 0.000000 0.500000
O O5 0.500000 0.397939 0.392765
O O6 0.409172 0.250000 0.380096
O O7 0.316568 0.399652 0.385445
O O8 0.250000 0.500000 0.088566
O O9 0.379387 0.575895 0.132091
O O10 0.391108 0.430876 0.062457
O O11 0.353974 0.598754 0.032868
O O12 0.500000 0.151787 0.817000
O O13 0.365960 0.250000 0.831424
O O14 0.370789 0.111825 0.763974
O O15 0.772927 0.750000 0.616493
O O16 0.838958 0.606788 0.661130
O O17 0.095139 0.750000 0.705655
O O18 0.000000 0.894715 0.698088
O O19 0.500000 0.853286 0.997866
O O20 0.373425 0.750000 0.972267
#
# Coordination Sequence:
#
# PCOD9500563 Si02
#       7
#    16  16  16  16  16  16  16
#     4  10  20  31  44  65  98 130 160 197 247 311
#     4   9  18  31  45  64  92 128 166 198 235 298
#     4  11  21  31  49  76 111 147 179 218 263 318
#     4   9  17  32  55  79 104 136 174 219 271 326
#     4  10  18  29  49  74  98 126 160 206 260 308
#     4   8  15  28  49  78 102 119 152 207 268 320
#     4  10  20  34  52  76 108 147 188 224 263 312
#
# _framework density 19.167802999999999
#
# number of rings (size 3 to 8) (size 9 to 14) (size 15 to 20)
#    0.000    2.429    0.000    5.143    0.000    6.571 
#    0.000    0.000    3.143    0.000    0.000    2.000 
#    0.000    4.571    0.000    0.286    0.000    0.000 
#
# Total GULP energy -312161.082994 kJ/mol
# GULP energy per Si atom -5574.305053 kJ/mol
# Density = 1.912418 g / cm^3
# Si number density = 19.167803 Si / 1000 Ang^3
#
#
#
# Elastic Constant Matrix: (Units=GPa)
#
#
# Indices 1 2 3 4 5 6 
#
# 1 110.2988 14.4346 52.7098 0.0000 0.0000 0.0000
# 2 14.4346 84.7359 31.1163 0.0000 0.0000 0.0000
# 3 52.7098 31.1163 103.2503 0.0000 0.0000 0.0000
# 4 0.0000 0.0000 0.0000 11.8779 0.0000 0.0000
# 5 0.0000 0.0000 0.0000 0.0000 2.6792 0.0000
# 6 0.0000 0.0000 0.0000 0.0000 0.0000 23.7509
#
#
#
# Elastic Compliance Matrix: (Units=1/GPa)
#
#
# Indices 1 2 3 4 5 6 
#
# 1 0.011996 0.000231 -0.006194 0.000000 0.000000 0.000000
# 2 0.000231 0.013274 -0.004118 0.000000 0.000000 0.000000
# 3 -0.006194 -0.004118 0.014088 0.000000 0.000000 0.000000
# 4 0.000000 0.000000 0.000000 0.084190 0.000000 0.000000
# 5 0.000000 0.000000 0.000000 0.000000 0.373241 0.000000
# 6 0.000000 0.000000 0.000000 0.000000 0.000000 0.042104
#
#
# Mechanical properties :
#
#
# Convention : Reuss Voigt Hill
#
# Bulk Modulus (GPa) = 52.09304 54.97850 53.53577
# Shear Modulus (GPa) = 8.84247 20.99657 14.91952
#
# Velocity S-wave (km/s) = 2.15016 3.31329 2.79294
# Velocity P-wave (km/s) = 5.77933 6.58651 6.19608
#
# Compressibility (1/GPa) = 0.01919642
#
# Stress axis : x y z
#
# Youngs Moduli (GPa) = 83.36220 75.33320 70.98155
#
# Poissons Ratio (x) = -0.01739 0.43963
# Poissons Ratio (y) = -0.01925 0.29233
# Poissons Ratio (z) = 0.51631 0.31025
#
# Static dielectric constant tensor:
#      x y z
#    x 1.705710 0.000000 0.000000 
#    y 0.000000 0.739060 0.000000 
#    z 0.000000 0.000000 1.655340 
# 
# From -- ./inp_files/44380.got.cif
#   From: 2010.05.17/outbox.cif.g08.bks.cpg/sg67_23_cif.got.tgz:44380.got - 2010.06.03 18:28:57.
