data_PCOD9500577
_publ_section_title
;
Structure prediction by ZEFSAII (Michael W. Deem and Ramdas Pophale) SiO2 
 PCOD9500577
Probable space group: C M M A
;
_chemical_formula_sum "Si O2"
_cell_formula_units_Z 128
_cell_length_a 22.462175
_cell_length_b 24.629901
_cell_length_c 11.216375
_cell_angle_alpha 90.000000
_cell_angle_beta 90.000000
_cell_angle_gamma 90.000000
_cell_volume 6205.360165
_symmetry_space_group_name_H-M "C M M A"
_symmetry_group_IT_number 67
_symmetry_cell_setting 'orthorhombic'
loop_
_space_group_symop_operation_xyz
x,y,z
-x,1/2-y,z
x,-y,-z
-x,1/2+y,-z
-x,-y,-z
x,1/2+y,-z
-x,y,z
x,1/2-y,z
1/2+x,1/2+y,z
1/2-x,-y,z
1/2+x,1/2-y,-z
1/2-x,y,-z
1/2-x,1/2-y,-z
1/2+x,y,-z
1/2-x,1/2+y,z
1/2+x,-y,z
loop_
_atom_site_type_symbol
_atom_site_label
_atom_site_fract_x
_atom_site_fract_y
_atom_site_fract_z
Si Si1 0.736905 0.619684 0.872274
Si Si2 0.932751 0.687492 0.294854
Si Si3 0.691406 0.462524 0.327193
Si Si4 0.068753 0.587923 0.975805
Si Si5 0.711627 0.813577 0.317895
Si Si6 0.868822 0.310568 0.956711
Si Si7 0.170352 0.142304 0.553450
Si Si8 0.070634 0.488407 0.796357
O O1 0.706454 0.576567 0.785688
O O2 0.788948 0.647958 0.796916
O O3 0.805871 0.670035 0.094790
O O4 0.750000 0.593425 0.000000
O O5 0.928769 0.750000 0.337564
O O6 0.889012 0.651721 0.372604
O O7 0.000000 0.668285 0.302778
O O8 0.912129 0.688685 0.158183
O O9 0.750000 0.500000 0.338878
O O10 0.686043 0.421127 0.438037
O O11 0.625562 0.486213 0.297055
O O12 0.107654 0.641176 0.962256
O O13 0.078619 0.542763 0.875216
O O14 0.000000 0.603639 0.971198
O O15 0.078564 0.559800 0.105414
O O16 0.704812 0.750000 0.293819
O O17 0.777093 0.824904 0.377303
O O18 0.667920 0.834672 0.420842
O O19 0.866759 0.250000 0.006397
O O20 0.000000 0.486378 0.757075
#
# Coordination Sequence:
#
# PCOD9500577 Si02
#       8
#    16  16  16  16  16  16  16  16
#     4  11  24  38  54  86 126 165 208 257 307 375
#     4  10  18  29  51  86 124 156 194 254 322 379
#     4  11  23  36  57  90 123 161 206 269 329 374
#     4   9  17  30  48  75 109 157 211 251 301 375
#     4  10  19  36  62  83 116 163 204 244 300 381
#     4  11  20  32  49  77 121 163 202 255 321 381
#     4  10  19  35  55  86 117 152 199 249 308 377
#     4   9  18  34  57  81 115 162 209 258 312 378
#
# _framework density 20.627327999999999
#
# number of rings (size 3 to 8) (size 9 to 14) (size 15 to 20)
#    0.000    1.875    3.750    3.000    1.750    3.500 
#    0.000    5.000    0.000    0.000    0.000   10.500 
#    0.000   27.000    0.000    0.000    0.000    0.000 
#
# Total GULP energy -357238.123461 kJ/mol
# GULP energy per Si atom -5581.845679 kJ/mol
# Density = 2.058038 g / cm^3
# Si number density = 20.627328 Si / 1000 Ang^3
#
#
#
# Elastic Constant Matrix: (Units=GPa)
#
#
# Indices 1 2 3 4 5 6 
#
# 1 105.6776 39.2724 17.2805 0.0000 0.0000 0.0000
# 2 39.2724 90.6372 8.3026 0.0000 0.0000 0.0000
# 3 17.2805 8.3026 41.3599 0.0000 0.0000 0.0000
# 4 0.0000 0.0000 0.0000 14.6013 0.0000 0.0000
# 5 0.0000 0.0000 0.0000 0.0000 16.7352 0.0000
# 6 0.0000 0.0000 0.0000 0.0000 0.0000 29.3764
#
#
#
# Elastic Compliance Matrix: (Units=1/GPa)
#
#
# Indices 1 2 3 4 5 6 
#
# 1 0.011898 -0.004788 -0.004010 0.000000 0.000000 0.000000
# 2 -0.004788 0.013166 -0.000643 0.000000 0.000000 0.000000
# 3 -0.004010 -0.000643 0.025982 0.000000 0.000000 0.000000
# 4 0.000000 0.000000 0.000000 0.068487 0.000000 0.000000
# 5 0.000000 0.000000 0.000000 0.000000 0.059754 0.000000
# 6 0.000000 0.000000 0.000000 0.000000 0.000000 0.034041
#
#
# Mechanical properties :
#
#
# Convention : Reuss Voigt Hill
#
# Bulk Modulus (GPa) = 31.08892 40.82064 35.95478
# Shear Modulus (GPa) = 20.58196 23.66387 22.12291
#
# Velocity S-wave (km/s) = 3.16223 3.39072 3.27847
# Velocity P-wave (km/s) = 5.33267 5.92975 5.63911
#
# Compressibility (1/GPa) = 0.03216580
#
# Stress axis : x y z
#
# Youngs Moduli (GPa) = 84.04965 75.95080 38.48768
#
# Poissons Ratio (x) = 0.36364 0.15433
# Poissons Ratio (y) = 0.40242 0.02473
# Poissons Ratio (z) = 0.33703 0.04881
#
# Static dielectric constant tensor:
#      x y z
#    x 1.757510 0.000000 0.000000 
#    y 0.000000 1.751630 0.000000 
#    z 0.000000 0.000000 1.790010 
# 
# From -- ./inp_files/22334.got.cif
#   From: 2010.05.17/outbox.cif.g08.bks.cpg/sg67_12_cif.got.tgz:22334.got - 2010.06.03 18:28:57.
