data_PCOD9500914
_publ_section_title
;
Structure prediction by ZEFSAII (Michael W. Deem and Ramdas Pophale) SiO2 
 PCOD9500914
Probable space group: C M M A
;
_chemical_formula_sum "Si O2"
_cell_formula_units_Z 96
_cell_length_a 18.091818
_cell_length_b 13.730979
_cell_length_c 21.743716
_cell_angle_alpha 90.000000
_cell_angle_beta 90.000000
_cell_angle_gamma 90.000000
_cell_volume 5401.538552
_symmetry_space_group_name_H-M "C M M A"
_symmetry_group_IT_number 67
_symmetry_cell_setting 'orthorhombic'
loop_
_space_group_symop_operation_xyz
x,y,z
-x,1/2-y,z
x,-y,-z
-x,1/2+y,-z
-x,-y,-z
x,1/2+y,-z
-x,y,z
x,1/2-y,z
1/2+x,1/2+y,z
1/2-x,-y,z
1/2+x,1/2-y,-z
1/2-x,y,-z
1/2-x,1/2-y,-z
1/2+x,y,-z
1/2-x,1/2+y,z
1/2+x,-y,z
loop_
_atom_site_type_symbol
_atom_site_label
_atom_site_fract_x
_atom_site_fract_y
_atom_site_fract_z
Si Si1 0.415597 0.929288 0.558615
Si Si2 0.589998 0.039896 0.188398
Si Si3 0.838099 0.750000 0.999635
Si Si4 0.589753 0.250000 0.634027
Si Si5 0.087952 0.142069 0.104006
Si Si6 0.410250 0.250000 0.133630
Si Si7 0.837034 0.750000 0.498629
Si Si8 0.910217 0.959105 0.681046
O O1 0.500000 0.895527 0.569543
O O2 0.364907 0.842138 0.538802
O O3 0.388863 0.983790 0.619463
O O4 0.417732 0.000000 0.500000
O O5 0.500000 0.038946 0.188926
O O6 0.611173 0.148920 0.167687
O O7 0.615837 0.009693 0.256512
O O8 0.612165 0.951851 0.142465
O O9 0.872853 0.750000 0.066881
O O10 0.750000 0.750000 0.000000
O O11 0.869280 0.658608 0.959911
O O12 0.500000 0.250000 0.625188
O O13 0.626409 0.250000 0.566595
O O14 0.610780 0.346854 0.671203
O O15 0.097739 0.250000 0.135620
O O16 0.000000 0.132723 0.092346
O O17 0.500000 0.250000 0.127469
O O18 0.750000 0.750000 0.500000
O O19 0.000000 0.959984 0.682835
#
# Coordination Sequence:
#
# PCOD9500914 Si02
#       8
#    16  16   8   8  16   8   8  16
#     4  10  19  35  57  81 108 140 182 232 285 330
#     4   9  18  32  54  85 112 144 181 226 278 329
#     4  10  20  35  56  82 110 142 186 226 271 322
#     4  10  18  33  56  83 108 133 180 235 278 320
#     4   8  16  32  54  80 109 136 176 224 274 317
#     4  10  20  35  54  79 116 146 179 219 270 335
#     4  12  24  35  52  78 110 145 181 226 279 340
#     4   9  18  31  55  85 110 138 180 230 278 327
#
# _framework density 17.772714000000001
#
# number of rings (size 3 to 8) (size 9 to 14) (size 15 to 20)
#    0.500    2.000    1.667    1.250    1.167    1.667 
#    0.000    6.667    0.000    6.000    0.000    0.000 
#    0.000    0.000    0.000    0.000    0.000    0.000 
#
# Total GULP energy -267306.594482 kJ/mol
# GULP energy per Si atom -5568.887385 kJ/mol
# Density = 1.773226 g / cm^3
# Si number density = 17.772714 Si / 1000 Ang^3
#
#
#
# Elastic Constant Matrix: (Units=GPa)
#
#
# Indices 1 2 3 4 5 6 
#
# 1 40.9731 47.0708 30.8757 0.0000 0.0000 0.0000
# 2 47.0708 170.4159 100.7402 0.0000 0.0000 0.0000
# 3 30.8757 100.7402 163.9257 0.0000 0.0000 0.0000
# 4 0.0000 0.0000 0.0000 26.1806 0.0000 0.0000
# 5 0.0000 0.0000 0.0000 0.0000 178.8729 0.0000
# 6 0.0000 0.0000 0.0000 0.0000 0.0000 10.5306
#
#
#
# Elastic Compliance Matrix: (Units=1/GPa)
#
#
# Indices 1 2 3 4 5 6 
#
# 1 0.035865 -0.009287 -0.001048 0.000000 0.000000 0.000000
# 2 -0.009287 0.011621 -0.005392 0.000000 0.000000 0.000000
# 3 -0.001048 -0.005392 0.009612 0.000000 0.000000 0.000000
# 4 0.000000 0.000000 0.000000 0.038196 0.000000 0.000000
# 5 0.000000 0.000000 0.000000 0.000000 0.005591 0.000000
# 6 0.000000 0.000000 0.000000 0.000000 0.000000 0.094962
#
#
# Mechanical properties :
#
#
# Convention : Reuss Voigt Hill
#
# Bulk Modulus (GPa) = 38.99714 81.40978 60.20346
# Shear Modulus (GPa) = 21.20015 56.22535 38.71275
#
# Velocity S-wave (km/s) = 3.45751 5.63067 4.67220
# Velocity P-wave (km/s) = 6.15865 9.39032 7.94062
#
# Compressibility (1/GPa) = 0.02564291
#
# Stress axis : x y z
#
# Youngs Moduli (GPa) = 27.88246 86.05312 104.04122
#
# Poissons Ratio (x) = 0.79915 0.10904
# Poissons Ratio (y) = 0.25894 0.56102
# Poissons Ratio (z) = 0.02922 0.46403
#
# Static dielectric constant tensor:
#      x y z
#    x 1.588960 0.000000 0.000000 
#    y 0.000000 1.610700 0.000000 
#    z 0.000000 0.000000 1.605280 
# 
# From -- ./inp_files/42194.got.cif
#   From: 2010.05.17/outbox.cif.g08.bks.cpg/sg67_22_cif.got.tgz:42194.got - 2010.06.03 18:28:57.
