data_PCOD9500792
_publ_section_title
;
Structure prediction by ZEFSAII (Michael W. Deem and Ramdas Pophale) SiO2 
 PCOD9500792
Probable space group: C M M A
;
_chemical_formula_sum "Si O2"
_cell_formula_units_Z 120
_cell_length_a 26.681889
_cell_length_b 8.602494
_cell_length_c 27.821573
_cell_angle_alpha 90.000000
_cell_angle_beta 90.000000
_cell_angle_gamma 90.000000
_cell_volume 6385.907631
_symmetry_space_group_name_H-M "C M M A"
_symmetry_group_IT_number 67
_symmetry_cell_setting 'orthorhombic'
loop_
_space_group_symop_operation_xyz
x,y,z
-x,1/2-y,z
x,-y,-z
-x,1/2+y,-z
-x,-y,-z
x,1/2+y,-z
-x,y,z
x,1/2-y,z
1/2+x,1/2+y,z
1/2-x,-y,z
1/2+x,1/2-y,-z
1/2-x,y,-z
1/2-x,1/2-y,-z
1/2+x,y,-z
1/2-x,1/2+y,z
1/2+x,-y,z
loop_
_atom_site_type_symbol
_atom_site_label
_atom_site_fract_x
_atom_site_fract_y
_atom_site_fract_z
Si Si1 0.444401 0.064688 0.084741
Si Si2 0.411181 0.434884 0.814885
Si Si3 0.000000 0.561776 0.445975
Si Si4 0.159711 0.564928 0.949714
Si Si5 0.558335 0.933874 0.713500
Si Si6 0.195674 0.937134 0.446139
Si Si7 0.697908 0.063811 0.847279
Si Si8 0.401510 0.439476 0.386736
O O1 0.500000 0.015612 0.068715
O O2 0.439999 0.250000 0.079112
O O3 0.438140 0.020982 0.141011
O O4 0.398185 0.984316 0.057976
O O5 0.415680 0.250000 0.823316
O O6 0.431905 0.479453 0.763166
O O7 0.352320 0.478140 0.818543
O O8 0.000000 0.500000 0.500000
O O9 0.050232 0.511363 0.417940
O O10 0.000000 0.750000 0.446852
O O11 0.162408 0.750000 0.950492
O O12 0.188516 0.507374 0.902130
O O13 0.178690 0.500000 0.000000
O O14 0.500000 0.949389 0.699597
O O15 0.567783 0.750000 0.721341
O O16 0.590991 0.989792 0.668324
O O17 0.197236 0.750000 0.447793
O O18 0.150153 0.987047 0.411796
O O19 0.186621 0.000000 0.500000
O O20 0.250000 0.000000 0.430627
O O21 0.700623 0.250000 0.848381
O O22 0.750000 0.000000 0.828270
O O23 0.402359 0.250000 0.386056
#
# Coordination Sequence:
#
# PCOD9500792 Si02
#       8
#    16  16   8  16  16  16  16  16
#     4  10  20  34  53  77 103 136 179 219 257 309
#     4  10  21  36  53  78 108 136 169 214 267 315
#     4  10  18  32  52  76 106 140 174 216 265 318
#     4  10  21  36  53  77 108 140 174 213 261 315
#     4  10  19  34  56  79 104 139 180 216 255 313
#     4  10  19  33  53  76 102 137 179 222 267 313
#     4   9  20  37  56  77 102 133 170 214 262 311
#     4   9  18  33  53  76 105 139 176 218 265 316
#
# _framework density 18.791377000000001
#
# number of rings (size 3 to 8) (size 9 to 14) (size 15 to 20)
#    0.000    2.267    0.667    3.600    0.000    6.667 
#    0.000    4.667    0.000    3.200    0.000    0.000 
#    0.000    0.000    0.000    0.000    0.000    0.000 
#
# Total GULP energy -334927.816749 kJ/mol
# GULP energy per Si atom -5582.130279 kJ/mol
# Density = 1.874861 g / cm^3
# Si number density = 18.791377 Si / 1000 Ang^3
#
#
#
# Elastic Constant Matrix: (Units=GPa)
#
#
# Indices 1 2 3 4 5 6 
#
# 1 74.8665 9.6507 2.4005 0.0000 0.0000 0.0000
# 2 9.6507 24.6228 2.0804 0.0000 0.0000 0.0000
# 3 2.4005 2.0804 62.8971 0.0000 0.0000 0.0000
# 4 0.0000 0.0000 0.0000 20.9037 0.0000 0.0000
# 5 0.0000 0.0000 0.0000 0.0000 0.8499 0.0000
# 6 0.0000 0.0000 0.0000 0.0000 0.0000 19.4200
#
#
#
# Elastic Compliance Matrix: (Units=1/GPa)
#
#
# Indices 1 2 3 4 5 6 
#
# 1 0.014076 -0.005487 -0.000356 0.000000 0.000000 0.000000
# 2 -0.005487 0.042865 -0.001208 0.000000 0.000000 0.000000
# 3 -0.000356 -0.001208 0.015953 0.000000 0.000000 0.000000
# 4 0.000000 0.000000 0.000000 0.047838 0.000000 0.000000
# 5 0.000000 0.000000 0.000000 0.000000 1.176553 0.000000
# 6 0.000000 0.000000 0.000000 0.000000 0.000000 0.051493
#
#
# Mechanical properties :
#
#
# Convention : Reuss Voigt Hill
#
# Bulk Modulus (GPa) = 17.00920 21.18328 19.09624
# Shear Modulus (GPa) = 3.61669 18.11838 10.86754
#
# Velocity S-wave (km/s) = 1.38883 3.10850 2.40745
# Velocity P-wave (km/s) = 3.41219 4.91742 4.23226
#
# Compressibility (1/GPa) = 0.05879170
#
# Stress axis : x y z
#
# Youngs Moduli (GPa) = 71.04396 23.32890 62.68597
#
# Poissons Ratio (x) = 0.12800 0.02230
# Poissons Ratio (y) = 0.38980 0.07575
# Poissons Ratio (z) = 0.02527 0.02819
#
# Static dielectric constant tensor:
#      x y z
#    x 1.655420 0.000000 0.000000 
#    y 0.000000 1.644150 0.000000 
#    z 0.000000 0.000000 1.636160 
# 
# From -- ./inp_files/45047.got.cif
#   From: 2010.05.17/outbox.cif.g08.bks.cpg/sg67_23_cif.got.tgz:45047.got - 2010.06.03 18:28:57.
