data_PCOD9500204
_publ_section_title
;
Structure prediction by ZEFSAII (Michael W. Deem and Ramdas Pophale) SiO2 
 PCOD9500204
Probable space group: C M M A
;
_chemical_formula_sum "Si O2"
_cell_formula_units_Z 56
_cell_length_a 38.043209
_cell_length_b 8.567214
_cell_length_c 9.272566
_cell_angle_alpha 90.000000
_cell_angle_beta 90.000000
_cell_angle_gamma 90.000000
_cell_volume 3022.154701
_symmetry_space_group_name_H-M "C M M A"
_symmetry_group_IT_number 67
_symmetry_cell_setting 'orthorhombic'
loop_
_space_group_symop_operation_xyz
x,y,z
-x,1/2-y,z
x,-y,-z
-x,1/2+y,-z
-x,-y,-z
x,1/2+y,-z
-x,y,z
x,1/2-y,z
1/2+x,1/2+y,z
1/2-x,-y,z
1/2+x,1/2-y,-z
1/2-x,y,-z
1/2-x,1/2-y,-z
1/2+x,y,-z
1/2-x,1/2+y,z
1/2+x,-y,z
loop_
_atom_site_type_symbol
_atom_site_label
_atom_site_fract_x
_atom_site_fract_y
_atom_site_fract_z
Si Si1 0.500000 0.563503 0.834704
Si Si2 0.572791 0.436616 0.834991
Si Si3 0.712708 0.936976 0.336886
Si Si4 0.853756 0.436773 0.836621
O O1 0.500000 0.750000 0.837981
O O2 0.536456 0.500650 0.768954
O O3 0.500000 0.500000 0.000000
O O4 0.572395 0.250000 0.837195
O O5 0.609436 0.499139 0.772199
O O6 0.573102 0.500000 0.000000
O O7 0.713001 0.750000 0.337126
O O8 0.709980 0.000000 0.500000
O O9 0.750000 0.000000 0.278231
O O10 0.679749 0.001207 0.249017
O O11 0.854693 0.250000 0.838414
O O12 0.851231 0.500000 0.000000
#
# Coordination Sequence:
#
# PCOD9500204 Si02
#       4
#     8  16  16  16
#     4  10  16  24  38  60  91 130 169 208 251 302
#     4  10  17  27  42  65  96 132 169 210 255 305
#     4  11  22  39  59  81 105 136 173 214 258 309
#     4  11  21  35  53  78 108 140 174 216 263 312
#
# _framework density 18.529826
#
# number of rings (size 3 to 8) (size 9 to 14) (size 15 to 20)
#    0.000    1.429    0.000   13.286    0.000    0.571 
#    0.000    2.857    0.000    0.000    0.000    1.000 
#    0.000    0.000    0.000    0.000    0.000    0.000 
#
# Total GULP energy -156316.408883 kJ/mol
# GULP energy per Si atom -5582.728889 kJ/mol
# Density = 1.848765 g / cm^3
# Si number density = 18.529826 Si / 1000 Ang^3
#
#
#
# Elastic Constant Matrix: (Units=GPa)
#
#
# Indices 1 2 3 4 5 6 
#
# 1 244.0920 100.9472 45.9386 0.0000 0.0000 0.0000
# 2 100.9472 244.2145 22.4536 0.0000 0.0000 0.0000
# 3 45.9386 22.4536 18.9069 0.0000 0.0000 0.0000
# 4 0.0000 0.0000 0.0000 19.4466 0.0000 0.0000
# 5 0.0000 0.0000 0.0000 0.0000 -17.5510 0.0000
# 6 0.0000 0.0000 0.0000 0.0000 0.0000 40.3061
#
#
#
# Elastic Compliance Matrix: (Units=1/GPa)
#
#
# Indices 1 2 3 4 5 6 
#
# 1 0.008158 -0.001740 -0.017755 0.000000 0.000000 0.000000
# 2 -0.001740 0.004968 -0.001673 0.000000 0.000000 0.000000
# 3 -0.017755 -0.001673 0.098018 0.000000 0.000000 0.000000
# 4 0.000000 0.000000 0.000000 0.051423 0.000000 0.000000
# 5 0.000000 0.000000 0.000000 0.000000 -0.056977 0.000000
# 6 0.000000 0.000000 0.000000 0.000000 0.000000 0.024810
#
#
# Mechanical properties :
#
#
# Convention : Reuss Voigt Hill
#
# Bulk Modulus (GPa) = 14.53314 93.98801 54.26058
# Shear Modulus (GPa) = 25.55304 30.96529 28.25917
#
# Velocity S-wave (km/s) = 3.71755 4.09235 3.90944
# Velocity P-wave (km/s) = 5.12709 8.55350 7.05158
#
# Compressibility (1/GPa) = 0.06880823
#
# Stress axis : x y z
#
# Youngs Moduli (GPa) = 122.58115 201.30310 10.20218
#
# Poissons Ratio (x) = 0.35019 0.18114
# Poissons Ratio (y) = 0.21324 0.01707
# Poissons Ratio (z) = 2.17648 0.33672
#
# Static dielectric constant tensor:
#      x y z
#    x 1.715360 0.000000 0.000000 
#    y 0.000000 1.609730 0.000000 
#    z 0.000000 0.000000 1.587450 
# 
# From -- ./inp_files/15700.got.cif
#   From: 2010.05.17/outbox.cif.g08.bks.cpg/sg67_8_cif.got.tgz:15700.got - 2010.06.03 18:28:57.
