data_PCOD9500250
_publ_section_title
;
Structure prediction by ZEFSAII (Michael W. Deem and Ramdas Pophale) SiO2 
 PCOD9500250
Probable space group: C M M A
;
_chemical_formula_sum "Si O2"
_cell_formula_units_Z 64
_cell_length_a 24.561096
_cell_length_b 16.228139
_cell_length_c 7.485250
_cell_angle_alpha 90.000000
_cell_angle_beta 90.000000
_cell_angle_gamma 90.000000
_cell_volume 2983.477531
_symmetry_space_group_name_H-M "C M M A"
_symmetry_group_IT_number 67
_symmetry_cell_setting 'orthorhombic'
loop_
_space_group_symop_operation_xyz
x,y,z
-x,1/2-y,z
x,-y,-z
-x,1/2+y,-z
-x,-y,-z
x,1/2+y,-z
-x,y,z
x,1/2-y,z
1/2+x,1/2+y,z
1/2-x,-y,z
1/2+x,1/2-y,-z
1/2-x,y,-z
1/2-x,1/2-y,-z
1/2+x,y,-z
1/2-x,1/2+y,z
1/2+x,-y,z
loop_
_atom_site_type_symbol
_atom_site_label
_atom_site_fract_x
_atom_site_fract_y
_atom_site_fract_z
Si Si1 0.188062 0.656752 0.023813
Si Si2 0.621395 0.121845 0.359116
Si Si3 0.500000 0.024763 0.716622
Si Si4 0.500000 0.341549 0.233834
Si Si5 0.117005 0.571699 0.737947
O O1 0.185219 0.750000 0.952268
O O2 0.148651 0.598849 0.911097
O O3 0.250000 0.628232 0.000000
O O4 0.165195 0.658830 0.224621
O O5 0.559738 0.155627 0.330338
O O6 0.635474 0.124707 0.567320
O O7 0.622307 0.024725 0.308759
O O8 0.552430 0.078751 0.756699
O O9 0.500000 0.000000 0.500000
O O10 0.500000 0.938496 0.827530
O O11 0.500000 0.250000 0.142073
#
# Coordination Sequence:
#
# PCOD9500250 Si02
#       5
#    16  16   8   8  16
#     4  11  26  43  57  84 124 164 214 264 307 368
#     4  10  20  39  64  89 122 156 201 257 309 376
#     4  10  16  39  61  94 132 151 201 254 306 379
#     4  10  18  31  59  93 124 157 189 239 311 376
#     4  10  20  39  66  89 120 161 200 250 320 376
#
# _framework density 21.451477000000001
#
# number of rings (size 3 to 8) (size 9 to 14) (size 15 to 20)
#    0.000    1.750    5.000    1.500    0.000    6.000 
#    0.000   10.625    0.000    0.000    0.000    0.000 
#    0.000    0.000    0.000    0.000    0.000    0.000 
#
# Total GULP energy -178351.457126 kJ/mol
# GULP energy per Si atom -5573.483035 kJ/mol
# Density = 2.140265 g / cm^3
# Si number density = 21.451477 Si / 1000 Ang^3
#
#
#
# Elastic Constant Matrix: (Units=GPa)
#
#
# Indices 1 2 3 4 5 6 
#
# 1 125.5577 37.6525 54.9721 0.0000 0.0000 0.0000
# 2 37.6525 67.6270 31.5085 0.0000 0.0000 0.0000
# 3 54.9721 31.5085 98.6375 0.0000 0.0000 0.0000
# 4 0.0000 0.0000 0.0000 15.2261 0.0000 0.0000
# 5 0.0000 0.0000 0.0000 0.0000 9.8522 0.0000
# 6 0.0000 0.0000 0.0000 0.0000 0.0000 8.2605
#
#
#
# Elastic Compliance Matrix: (Units=1/GPa)
#
#
# Indices 1 2 3 4 5 6 
#
# 1 0.011376 -0.003971 -0.005071 0.000000 0.000000 0.000000
# 2 -0.003971 0.018759 -0.003779 0.000000 0.000000 0.000000
# 3 -0.005071 -0.003779 0.014172 0.000000 0.000000 0.000000
# 4 0.000000 0.000000 0.000000 0.065677 0.000000 0.000000
# 5 0.000000 0.000000 0.000000 0.000000 0.101500 0.000000
# 6 0.000000 0.000000 0.000000 0.000000 0.000000 0.121058
#
#
# Mechanical properties :
#
#
# Convention : Reuss Voigt Hill
#
# Bulk Modulus (GPa) = 53.58143 60.00981 56.79562
# Shear Modulus (GPa) = 13.72104 17.84705 15.78404
#
# Velocity S-wave (km/s) = 2.53184 2.88752 2.71551
# Velocity P-wave (km/s) = 5.79475 6.25719 6.03041
#
# Compressibility (1/GPa) = 0.01866318
#
# Stress axis : x y z
#
# Youngs Moduli (GPa) = 87.90760 53.30896 70.56310
#
# Poissons Ratio (x) = 0.21167 0.35785
# Poissons Ratio (y) = 0.34906 0.26668
# Poissons Ratio (z) = 0.44581 0.20147
#
# Static dielectric constant tensor:
#      x y z
#    x 1.775430 0.000000 0.000000 
#    y 0.000000 1.826220 0.000000 
#    z 0.000000 0.000000 1.807890 
# 
# From -- ./inp_files/13266.got.cif
#   From: 2010.05.17/outbox.cif.g08.bks.cpg/sg67_7_cif.got.tgz:13266.got - 2010.06.03 18:28:57.
