data_PCOD9500207
_publ_section_title
;
Structure prediction by ZEFSAII (Michael W. Deem and Ramdas Pophale) SiO2 
 PCOD9500207
Probable space group: C M M A
;
_chemical_formula_sum "Si O2"
_cell_formula_units_Z 120
_cell_length_a 14.302223
_cell_length_b 17.351552
_cell_length_c 20.598869
_cell_angle_alpha 90.000000
_cell_angle_beta 90.000000
_cell_angle_gamma 90.000000
_cell_volume 5111.934106
_symmetry_space_group_name_H-M "C M M A"
_symmetry_group_IT_number 67
_symmetry_cell_setting 'orthorhombic'
loop_
_space_group_symop_operation_xyz
x,y,z
-x,1/2-y,z
x,-y,-z
-x,1/2+y,-z
-x,-y,-z
x,1/2+y,-z
-x,y,z
x,1/2-y,z
1/2+x,1/2+y,z
1/2-x,-y,z
1/2+x,1/2-y,-z
1/2-x,y,-z
1/2-x,1/2-y,-z
1/2+x,y,-z
1/2-x,1/2+y,z
1/2+x,-y,z
loop_
_atom_site_type_symbol
_atom_site_label
_atom_site_fract_x
_atom_site_fract_y
_atom_site_fract_z
Si Si1 0.113167 0.061197 0.212883
Si Si2 0.651974 0.838601 0.086856
Si Si3 0.114176 0.162416 0.471642
Si Si4 0.605335 0.111580 0.192776
Si Si5 0.831153 0.250000 0.723489
Si Si6 0.629249 0.160944 0.053570
Si Si7 0.114019 0.944252 0.645761
Si Si8 0.885928 0.120771 0.618524
O O1 0.140181 0.110551 0.150547
O O2 0.142433 0.089861 0.284306
O O3 0.000000 0.059224 0.212269
O O4 0.143650 0.972305 0.208850
O O5 0.621793 0.750000 0.098997
O O6 0.760144 0.837698 0.067172
O O7 0.606956 0.867343 0.019010
O O8 0.144058 0.250000 0.459438
O O9 0.146846 0.106000 0.414821
O O10 0.140581 0.136704 0.543880
O O11 0.000000 0.161410 0.470283
O O12 0.500000 0.121288 0.221466
O O13 0.664448 0.182241 0.219677
O O14 0.594872 0.115168 0.115440
O O15 0.844017 0.182543 0.667552
O O16 0.599195 0.250000 0.056937
O O17 0.000000 0.943073 0.644367
O O18 0.139886 0.033640 0.637968
O O19 0.000000 0.127840 0.621883
#
# Coordination Sequence:
#
# PCOD9500207 Si02
#       8
#    16  16  16  16   8  16  16  16
#     4  10  21  34  49  75 109 140 175 215 254 307
#     4   9  20  39  58  75  99 137 177 215 257 299
#     4   9  16  24  37  59  88 129 175 208 244 301
#     4  11  21  32  51  80 109 136 165 209 269 321
#     4  12  19  28  48  73 102 134 165 205 267 319
#     4   9  19  37  59  79 101 130 172 218 256 308
#     4   9  17  28  40  60  95 134 169 210 254 298
#     4  10  16  25  41  62  93 132 169 206 253 310
#
# _framework density 23.474481000000001
#
# number of rings (size 3 to 8) (size 9 to 14) (size 15 to 20)
#    0.000    2.267    2.667    2.400    0.000    4.000 
#    0.000    5.333    0.000    0.000    0.000    0.000 
#    0.000    2.133    0.800    0.000    0.000    0.000 
#
# Total GULP energy -334523.047978 kJ/mol
# GULP energy per Si atom -5575.384133 kJ/mol
# Density = 2.342105 g / cm^3
# Si number density = 23.474481 Si / 1000 Ang^3
#
#
#
# Elastic Constant Matrix: (Units=GPa)
#
#
# Indices 1 2 3 4 5 6 
#
# 1 67.8191 18.9427 13.1612 0.0000 0.0000 0.0000
# 2 18.9427 121.1885 111.2334 0.0000 0.0000 0.0000
# 3 13.1612 111.2334 238.5613 0.0000 0.0000 0.0000
# 4 0.0000 0.0000 0.0000 56.1691 0.0000 0.0000
# 5 0.0000 0.0000 0.0000 0.0000 20.8838 0.0000
# 6 0.0000 0.0000 0.0000 0.0000 0.0000 7.9949
#
#
#
# Elastic Compliance Matrix: (Units=1/GPa)
#
#
# Indices 1 2 3 4 5 6 
#
# 1 0.015449 -0.002854 0.000478 0.000000 0.000000 0.000000
# 2 -0.002854 0.014952 -0.006814 0.000000 0.000000 0.000000
# 3 0.000478 -0.006814 0.007343 0.000000 0.000000 0.000000
# 4 0.000000 0.000000 0.000000 0.017803 0.000000 0.000000
# 5 0.000000 0.000000 0.000000 0.000000 0.047884 0.000000
# 6 0.000000 0.000000 0.000000 0.000000 0.000000 0.125080
#
#
# Mechanical properties :
#
#
# Convention : Reuss Voigt Hill
#
# Bulk Modulus (GPa) = 51.64061 79.36040 65.50051
# Shear Modulus (GPa) = 19.73581 35.95832 27.84707
#
# Velocity S-wave (km/s) = 2.90269 3.91807 3.44796
# Velocity P-wave (km/s) = 5.76893 7.37217 6.61927
#
# Compressibility (1/GPa) = 0.01936460
#
# Stress axis : x y z
#
# Youngs Moduli (GPa) = 64.72741 66.87971 136.19004
#
# Poissons Ratio (x) = 0.19087 -0.06515
# Poissons Ratio (y) = 0.18473 0.92804
# Poissons Ratio (z) = -0.03096 0.45574
#
# Static dielectric constant tensor:
#      x y z
#    x 1.906960 0.000000 0.000000 
#    y 0.000000 1.810520 0.000000 
#    z 0.000000 0.000000 1.871350 
# 
# From -- ./inp_files/35160.got.cif
#   From: 2010.05.17/outbox.cif.g08.bks.cpg/sg67_18_cif.got.tgz:35160.got - 2010.06.03 18:28:57.
