data_PCOD9500663
_publ_section_title
;
Structure prediction by ZEFSAII (Michael W. Deem and Ramdas Pophale) SiO2 
 PCOD9500663
Probable space group: C M M A
;
_chemical_formula_sum "Si O2"
_cell_formula_units_Z 104
_cell_length_a 15.937453
_cell_length_b 14.406290
_cell_length_c 19.556313
_cell_angle_alpha 90.000000
_cell_angle_beta 90.000000
_cell_angle_gamma 90.000000
_cell_volume 4490.121051
_symmetry_space_group_name_H-M "C M M A"
_symmetry_group_IT_number 67
_symmetry_cell_setting 'orthorhombic'
loop_
_space_group_symop_operation_xyz
x,y,z
-x,1/2-y,z
x,-y,-z
-x,1/2+y,-z
-x,-y,-z
x,1/2+y,-z
-x,y,z
x,1/2-y,z
1/2+x,1/2+y,z
1/2-x,-y,z
1/2+x,1/2-y,-z
1/2-x,y,-z
1/2-x,1/2-y,-z
1/2+x,y,-z
1/2-x,1/2+y,z
1/2+x,-y,z
loop_
_atom_site_type_symbol
_atom_site_label
_atom_site_fract_x
_atom_site_fract_y
_atom_site_fract_z
Si Si1 0.157612 0.607001 0.477805
Si Si2 0.090174 0.137236 0.155146
Si Si3 0.242460 0.136867 0.921441
Si Si4 0.820189 0.638041 0.321577
Si Si5 0.872903 0.636939 0.689886
Si Si6 0.095421 0.136656 0.819232
Si Si7 0.500000 0.621818 0.430456
O O1 0.157512 0.500000 0.500000
O O2 0.250000 0.644611 0.500000
O O3 0.147778 0.613137 0.396435
O O4 0.075438 0.645574 0.514858
O O5 0.091896 0.250000 0.152647
O O6 0.173444 0.105982 0.117147
O O7 0.095955 0.112541 0.234811
O O8 0.000000 0.107783 0.126366
O O9 0.241447 0.250000 0.920918
O O10 0.160639 0.108617 0.878304
O O11 0.250000 0.108106 0.000000
O O12 0.819385 0.750000 0.317844
O O13 0.723387 0.608368 0.316620
O O14 0.871387 0.605751 0.255314
O O15 0.879386 0.750000 0.684030
O O16 0.928052 0.600747 0.628293
O O17 0.095456 0.250000 0.818423
O O18 0.000000 0.106555 0.830782
#
# Coordination Sequence:
#
# PCOD9500663 Si02
#       7
#    16  16  16  16  16  16   8
#     4  11  25  42  55  74 107 144 177 220 285 335
#     4   9  15  24  39  61  91 128 167 207 256 310
#     4   9  16  25  38  60  96 140 179 214 257 314
#     4  10  20  36  56  77 100 138 188 231 271 325
#     4  10  18  30  51  77 103 130 170 226 275 314
#     4   9  17  29  46  69  99 135 180 229 269 313
#     4  12  22  36  54  76  97 136 174 220 274 334
#
# _framework density 23.161959
#
# number of rings (size 3 to 8) (size 9 to 14) (size 15 to 20)
#    0.000    2.154    3.846    0.462    1.077    2.154 
#    0.000    3.077    0.000    0.000    0.000    0.000 
#    0.000    0.000    0.000   12.462    0.308    5.538 
#
# Total GULP energy -289768.010370 kJ/mol
# GULP energy per Si atom -5572.461738 kJ/mol
# Density = 2.310924 g / cm^3
# Si number density = 23.161959 Si / 1000 Ang^3
#
#
#
# Elastic Constant Matrix: (Units=GPa)
#
#
# Indices 1 2 3 4 5 6 
#
# 1 264.0626 19.9798 141.8252 0.0000 0.0000 0.0000
# 2 19.9798 82.8340 -2.1827 0.0000 0.0000 0.0000
# 3 141.8252 -2.1827 215.5249 0.0000 0.0000 0.0000
# 4 0.0000 0.0000 0.0000 21.6387 0.0000 0.0000
# 5 0.0000 0.0000 0.0000 0.0000 28.0450 0.0000
# 6 0.0000 0.0000 0.0000 0.0000 0.0000 -16.3451
#
#
#
# Elastic Compliance Matrix: (Units=1/GPa)
#
#
# Indices 1 2 3 4 5 6 
#
# 1 0.006053 -0.001565 -0.003999 0.000000 0.000000 0.000000
# 2 -0.001565 0.012480 0.001157 0.000000 0.000000 0.000000
# 3 -0.003999 0.001157 0.007283 0.000000 0.000000 0.000000
# 4 0.000000 0.000000 0.000000 0.046213 0.000000 0.000000
# 5 0.000000 0.000000 0.000000 0.000000 0.035657 0.000000
# 6 0.000000 0.000000 0.000000 0.000000 0.000000 -0.061180
#
#
# Mechanical properties :
#
#
# Convention : Reuss Voigt Hill
#
# Bulk Modulus (GPa) = 58.82119 97.96288 78.39204
# Shear Modulus (GPa) = 81.98041 33.52102 57.75071
#
# Velocity S-wave (km/s) = 5.95578 3.80839 4.99876
# Velocity P-wave (km/s) = 8.52911 7.85653 8.19972
#
# Compressibility (1/GPa) = 0.01700068
#
# Stress axis : x y z
#
# Youngs Moduli (GPa) = 165.19660 80.12554 137.30139
#
# Poissons Ratio (x) = 0.12543 0.54910
# Poissons Ratio (y) = 0.25861 -0.15880
# Poissons Ratio (z) = 0.66066 -0.09267
#
# Static dielectric constant tensor:
#      x y z
#    x 1.848850 0.000000 0.000000 
#    y 0.000000 1.978480 0.000000 
#    z 0.000000 0.000000 1.818720 
# 
# From -- ./inp_files/33770.got.cif
#   From: 2010.05.17/outbox.cif.g08.bks.cpg/sg67_17_cif.got.tgz:33770.got - 2010.06.03 18:28:57.
