data_PCOD9501302
_publ_section_title
;
Structure prediction by ZEFSAII (Michael W. Deem and Ramdas Pophale) SiO2 
 PCOD9501302
Probable space group: C M M A
;
_chemical_formula_sum "Si O2"
_cell_formula_units_Z 88
_cell_length_a 9.254331
_cell_length_b 27.423186
_cell_length_c 19.344344
_cell_angle_alpha 90.000000
_cell_angle_beta 90.000000
_cell_angle_gamma 90.000000
_cell_volume 4909.270302
_symmetry_space_group_name_H-M "C M M A"
_symmetry_group_IT_number 67
_symmetry_cell_setting 'orthorhombic'
loop_
_space_group_symop_operation_xyz
x,y,z
-x,1/2-y,z
x,-y,-z
-x,1/2+y,-z
-x,-y,-z
x,1/2+y,-z
-x,y,z
x,1/2-y,z
1/2+x,1/2+y,z
1/2-x,-y,z
1/2+x,1/2-y,-z
1/2-x,y,-z
1/2-x,1/2-y,-z
1/2+x,y,-z
1/2-x,1/2+y,z
1/2+x,-y,z
loop_
_atom_site_type_symbol
_atom_site_label
_atom_site_fract_x
_atom_site_fract_y
_atom_site_fract_z
Si Si1 0.162651 0.692117 0.565793
Si Si2 0.328321 0.853246 0.687163
Si Si3 0.166670 0.049181 0.140203
Si Si4 0.672563 0.850837 0.850592
Si Si5 0.166488 0.547952 0.691457
Si Si6 0.174254 0.250000 0.926455
O O1 0.150774 0.750000 0.555523
O O2 0.250000 0.671804 0.500000
O O3 0.250276 0.683499 0.635863
O O4 0.000000 0.672029 0.570309
O O5 0.500000 0.853042 0.676889
O O6 0.300355 0.844451 0.768479
O O7 0.257702 0.905241 0.670265
O O8 0.245266 0.100499 0.123600
O O9 0.165581 0.047244 0.224314
O O10 0.000000 0.048977 0.116858
O O11 0.250000 0.000000 0.116946
O O12 0.500000 0.858624 0.859116
O O13 0.713743 0.800238 0.887296
O O14 0.250000 0.500000 0.667940
O O15 0.000000 0.549743 0.669097
O O16 0.000000 0.250000 0.932847
O O17 0.250000 0.250000 0.000000
#
# Coordination Sequence:
#
# PCOD9501302 Si02
#       6
#    16  16  16  16  16   8
#     4  10  21  36  52  72 100 135 173 214 261 312
#     4  10  19  31  52  78 104 135 172 215 261 307
#     4   9  16  27  47  75 107 138 172 215 266 315
#     4   9  19  34  53  78 108 141 180 220 265 316
#     4   9  16  27  44  69 103 136 170 210 256 307
#     4  10  22  40  58  78 107 146 183 218 261 316
#
# _framework density 17.925270999999999
#
# number of rings (size 3 to 8) (size 9 to 14) (size 15 to 20)
#    0.000    2.545    0.000    2.182    1.273    6.909 
#    0.000    0.000    0.000    1.091    0.000    7.636 
#    0.000    0.000    0.000    0.000    0.000    0.000 
#
# Total GULP energy -245236.172981 kJ/mol
# GULP energy per Si atom -5573.549386 kJ/mol
# Density = 1.788447 g / cm^3
# Si number density = 17.925271 Si / 1000 Ang^3
#
#
#
# Elastic Constant Matrix: (Units=GPa)
#
#
# Indices 1 2 3 4 5 6 
#
# 1 124.1409 68.8157 50.4608 0.0000 0.0000 0.0000
# 2 68.8157 111.9195 42.7281 0.0000 0.0000 0.0000
# 3 50.4608 42.7281 42.4874 0.0000 0.0000 0.0000
# 4 0.0000 0.0000 0.0000 -12.0979 0.0000 0.0000
# 5 0.0000 0.0000 0.0000 0.0000 12.3120 0.0000
# 6 0.0000 0.0000 0.0000 0.0000 0.0000 33.3407
#
#
#
# Elastic Compliance Matrix: (Units=1/GPa)
#
#
# Indices 1 2 3 4 5 6 
#
# 1 0.016814 -0.004406 -0.015538 0.000000 0.000000 0.000000
# 2 -0.004406 0.015658 -0.010514 0.000000 0.000000 0.000000
# 3 -0.015538 -0.010514 0.052563 0.000000 0.000000 0.000000
# 4 0.000000 0.000000 0.000000 -0.082659 0.000000 0.000000
# 5 0.000000 0.000000 0.000000 0.000000 0.081221 0.000000
# 6 0.000000 0.000000 0.000000 0.000000 0.000000 0.029993
#
#
# Mechanical properties :
#
#
# Convention : Reuss Voigt Hill
#
# Bulk Modulus (GPa) = 41.45995 66.95077 54.20536
# Shear Modulus (GPa) = 27.39023 14.48049 20.93536
#
# Velocity S-wave (km/s) = 3.91323 2.84531 3.42120
# Velocity P-wave (km/s) = 6.60283 6.94445 6.77580
#
# Compressibility (1/GPa) = 0.02411966
#
# Stress axis : x y z
#
# Youngs Moduli (GPa) = 59.47512 63.86458 19.02465
#
# Poissons Ratio (x) = 0.28140 0.29560
# Poissons Ratio (y) = 0.26206 0.20002
# Poissons Ratio (z) = 0.92412 0.67145
#
# Static dielectric constant tensor:
#      x y z
#    x 1.612750 0.000000 0.000000 
#    y 0.000000 1.628010 0.000000 
#    z 0.000000 0.000000 1.590890 
# 
# From -- ./inp_files/36200.got.cif
#   From: 2010.05.17/outbox.cif.g08.bks.cpg/sg67_19_cif.got.tgz:36200.got - 2010.06.03 18:28:57.
