data_PCOD9501531
_publ_section_title
;
Structure prediction by ZEFSAII (Michael W. Deem and Ramdas Pophale) SiO2 
 PCOD9501531
Probable space group: C M M A
;
_chemical_formula_sum "Si O2"
_cell_formula_units_Z 52
_cell_length_a 31.864723
_cell_length_b 18.020285
_cell_length_c 5.285160
_cell_angle_alpha 90.000000
_cell_angle_beta 90.000000
_cell_angle_gamma 90.000000
_cell_volume 3034.799069
_symmetry_space_group_name_H-M "C M M A"
_symmetry_group_IT_number 67
_symmetry_cell_setting 'orthorhombic'
loop_
_space_group_symop_operation_xyz
x,y,z
-x,1/2-y,z
x,-y,-z
-x,1/2+y,-z
-x,-y,-z
x,1/2+y,-z
-x,y,z
x,1/2-y,z
1/2+x,1/2+y,z
1/2-x,-y,z
1/2+x,1/2-y,-z
1/2-x,y,-z
1/2-x,1/2-y,-z
1/2+x,y,-z
1/2-x,1/2+y,z
1/2+x,-y,z
loop_
_atom_site_type_symbol
_atom_site_label
_atom_site_fract_x
_atom_site_fract_y
_atom_site_fract_z
Si Si1 0.048040 0.840281 0.286109
Si Si2 0.400914 0.660822 0.211411
Si Si3 0.831067 0.954512 0.741530
Si Si4 0.250000 0.500000 0.500000
O O1 0.046594 0.750000 0.279310
O O2 0.070892 0.860233 0.546564
O O3 0.000000 0.866635 0.275029
O O4 0.075138 0.863287 0.043500
O O5 0.396685 0.750000 0.208212
O O6 0.356185 0.621267 0.232393
O O7 0.781695 0.951177 0.669267
O O8 0.849017 0.000000 0.500000
O O9 0.835502 0.000000 0.000000
#
# Coordination Sequence:
#
# PCOD9501531 Si02
#       4
#    16  16  16   4
#     4   9  17  30  50  77 109 142 175 208 250 305
#     4  10  19  32  54  82 106 134 175 221 257 288
#     4  10  20  36  57  77 103 135 179 207 257 325
#     4   8  22  36  60  76  92 144 180 196 258 340
#
# _framework density 17.134578999999999
#
# number of rings (size 3 to 8) (size 9 to 14) (size 15 to 20)
#    0.923    1.538    0.000    3.231    0.000    3.692 
#    0.000    0.769    0.000   20.308    0.000    0.000 
#    0.000    0.000    0.000    0.000    0.000    0.000 
#
# Total GULP energy -144736.477881 kJ/mol
# GULP energy per Si atom -5566.787611 kJ/mol
# Density = 1.709558 g / cm^3
# Si number density = 17.134579 Si / 1000 Ang^3
#
#
#
# Elastic Constant Matrix: (Units=GPa)
#
#
# Indices 1 2 3 4 5 6 
#
# 1 128.4607 39.4285 43.4709 0.0000 0.0000 0.0000
# 2 39.4285 27.4664 25.4946 0.0000 0.0000 0.0000
# 3 43.4709 25.4946 142.3416 0.0000 0.0000 0.0000
# 4 0.0000 0.0000 0.0000 8.2684 0.0000 0.0000
# 5 0.0000 0.0000 0.0000 0.0000 59.9306 0.0000
# 6 0.0000 0.0000 0.0000 0.0000 0.0000 7.7777
#
#
#
# Elastic Compliance Matrix: (Units=1/GPa)
#
#
# Indices 1 2 3 4 5 6 
#
# 1 0.013993 -0.019336 -0.000810 0.000000 0.000000 0.000000
# 2 -0.019336 0.070385 -0.006702 0.000000 0.000000 0.000000
# 3 -0.000810 -0.006702 0.008473 0.000000 0.000000 0.000000
# 4 0.000000 0.000000 0.000000 0.120942 0.000000 0.000000
# 5 0.000000 0.000000 0.000000 0.000000 0.016686 0.000000
# 6 0.000000 0.000000 0.000000 0.000000 0.000000 0.128573
#
#
# Mechanical properties :
#
#
# Convention : Reuss Voigt Hill
#
# Bulk Modulus (GPa) = 25.53838 57.22851 41.38344
# Shear Modulus (GPa) = 11.74258 27.85364 19.79811
#
# Velocity S-wave (km/s) = 2.62069 4.03622 3.40288
# Velocity P-wave (km/s) = 4.90860 7.42923 6.29634
#
# Compressibility (1/GPa) = 0.03915676
#
# Stress axis : x y z
#
# Youngs Moduli (GPa) = 71.46222 14.20753 118.01997
#
# Poissons Ratio (x) = 0.27471 0.09564
# Poissons Ratio (y) = 1.38176 0.79091
# Poissons Ratio (z) = 0.05791 0.09521
#
# Static dielectric constant tensor:
#      x y z
#    x 1.574000 0.000000 0.000000 
#    y 0.000000 1.560630 0.000000 
#    z 0.000000 0.000000 1.590930 
# 
# From -- ./inp_files/3890.got.cif
#   From: 2010.05.17/outbox.cif.g08.bks.cpg/sg67_2_cif.got.tgz:3890.got - 2010.06.03 18:28:57.
