data_PCOD9501640
_publ_section_title
;
Structure prediction by ZEFSAII (Michael W. Deem and Ramdas Pophale) SiO2 
 PCOD9501640
Probable space group: C M M A
;
_chemical_formula_sum "Si O2"
_cell_formula_units_Z 80
_cell_length_a 19.595263
_cell_length_b 8.446023
_cell_length_c 26.368156
_cell_angle_alpha 90.000000
_cell_angle_beta 90.000000
_cell_angle_gamma 90.000000
_cell_volume 4363.983661
_symmetry_space_group_name_H-M "C M M A"
_symmetry_group_IT_number 67
_symmetry_cell_setting 'orthorhombic'
loop_
_space_group_symop_operation_xyz
x,y,z
-x,1/2-y,z
x,-y,-z
-x,1/2+y,-z
-x,-y,-z
x,1/2+y,-z
-x,y,z
x,1/2-y,z
1/2+x,1/2+y,z
1/2-x,-y,z
1/2+x,1/2-y,-z
1/2-x,y,-z
1/2-x,1/2-y,-z
1/2+x,y,-z
1/2-x,1/2+y,z
1/2+x,-y,z
loop_
_atom_site_type_symbol
_atom_site_label
_atom_site_fract_x
_atom_site_fract_y
_atom_site_fract_z
Si Si1 0.674044 0.560030 0.943565
Si Si2 0.421624 0.056640 0.148522
Si Si3 0.921320 0.058933 0.445259
Si Si4 0.326951 0.560049 0.758391
Si Si5 0.673252 0.059862 0.647236
O O1 0.675705 0.750000 0.944335
O O2 0.750000 0.500000 0.930420
O O3 0.619463 0.507127 0.901719
O O4 0.657766 0.500000 0.000000
O O5 0.500000 0.003225 0.149171
O O6 0.422306 0.250000 0.148622
O O7 0.378716 0.006669 0.197858
O O8 0.920780 0.250000 0.445701
O O9 0.875643 0.005324 0.398148
O O10 0.000000 0.006139 0.439431
O O11 0.896378 0.000000 0.500000
O O12 0.325099 0.750000 0.757983
O O13 0.250000 0.500000 0.768218
O O14 0.348034 0.501022 0.702687
O O15 0.673602 0.250000 0.648372
O O16 0.750000 0.000000 0.638442
#
# Coordination Sequence:
#
# PCOD9501640 Si02
#       5
#    16  16  16  16  16
#     4  10  19  33  54  76 101 132 167 207 247 293
#     4   9  19  34  51  74 103 133 165 204 250 295
#     4   9  19  35  53  73  99 132 167 203 245 293
#     4  10  19  33  54  75  98 130 167 205 245 294
#     4  10  20  34  52  75 103 131 163 205 250 294
#
# _framework density 18.331875
#
# number of rings (size 3 to 8) (size 9 to 14) (size 15 to 20)
#    0.000    2.400    0.000    4.200    0.000    3.200 
#    0.000    5.000    0.000    8.400    0.000    0.000 
#    0.000    0.000    0.000    0.000    0.000    0.000 
#
# Total GULP energy -223235.226445 kJ/mol
# GULP energy per Si atom -5580.880661 kJ/mol
# Density = 1.829015 g / cm^3
# Si number density = 18.331875 Si / 1000 Ang^3
#
#
#
# Elastic Constant Matrix: (Units=GPa)
#
#
# Indices 1 2 3 4 5 6 
#
# 1 128.2203 23.0702 136.4703 0.0000 0.0000 0.0000
# 2 23.0702 37.1215 28.8086 0.0000 0.0000 0.0000
# 3 136.4703 28.8086 188.7062 0.0000 0.0000 0.0000
# 4 0.0000 0.0000 0.0000 12.0530 0.0000 0.0000
# 5 0.0000 0.0000 0.0000 0.0000 34.9266 0.0000
# 6 0.0000 0.0000 0.0000 0.0000 0.0000 18.9669
#
#
#
# Elastic Compliance Matrix: (Units=1/GPa)
#
#
# Indices 1 2 3 4 5 6 
#
# 1 0.034044 -0.002326 -0.024265 0.000000 0.000000 0.000000
# 2 -0.002326 0.030718 -0.003007 0.000000 0.000000 0.000000
# 3 -0.024265 -0.003007 0.023307 0.000000 0.000000 0.000000
# 4 0.000000 0.000000 0.000000 0.082967 0.000000 0.000000
# 5 0.000000 0.000000 0.000000 0.000000 0.028631 0.000000
# 6 0.000000 0.000000 0.000000 0.000000 0.000000 0.052723
#
#
# Mechanical properties :
#
#
# Convention : Reuss Voigt Hill
#
# Bulk Modulus (GPa) = 34.63627 81.19403 57.91515
# Shear Modulus (GPa) = 15.56602 24.23589 19.90095
#
# Velocity S-wave (km/s) = 2.91713 3.63996 3.29841
# Velocity P-wave (km/s) = 5.50284 7.87738 6.79464
#
# Compressibility (1/GPa) = 0.02887147
#
# Stress axis : x y z
#
# Youngs Moduli (GPa) = 29.37357 32.55412 42.90611
#
# Poissons Ratio (x) = 0.07573 1.04113
# Poissons Ratio (y) = 0.06833 0.12902
# Poissons Ratio (z) = 0.71276 0.09789
#
# Static dielectric constant tensor:
#      x y z
#    x 1.611720 0.000000 0.000000 
#    y 0.000000 1.631250 0.000000 
#    z 0.000000 0.000000 1.621710 
# 
# From -- ./inp_files/43344.got.cif
#   From: 2010.05.17/outbox.cif.g08.bks.cpg/sg67_22_cif.got.tgz:43344.got - 2010.06.03 18:28:57.
