data_PCOD9501304
_publ_section_title
;
Structure prediction by ZEFSAII (Michael W. Deem and Ramdas Pophale) SiO2 
 PCOD9501304
Probable space group: C M M A
;
_chemical_formula_sum "Si O2"
_cell_formula_units_Z 72
_cell_length_a 14.525353
_cell_length_b 10.474494
_cell_length_c 23.643438
_cell_angle_alpha 90.000000
_cell_angle_beta 90.000000
_cell_angle_gamma 90.000000
_cell_volume 3597.247965
_symmetry_space_group_name_H-M "C M M A"
_symmetry_group_IT_number 67
_symmetry_cell_setting 'orthorhombic'
loop_
_space_group_symop_operation_xyz
x,y,z
-x,1/2-y,z
x,-y,-z
-x,1/2+y,-z
-x,-y,-z
x,1/2+y,-z
-x,y,z
x,1/2-y,z
1/2+x,1/2+y,z
1/2-x,-y,z
1/2+x,1/2-y,-z
1/2-x,y,-z
1/2-x,1/2-y,-z
1/2+x,y,-z
1/2-x,1/2+y,z
1/2+x,-y,z
loop_
_atom_site_type_symbol
_atom_site_label
_atom_site_fract_x
_atom_site_fract_y
_atom_site_fract_z
Si Si1 0.168321 0.397274 0.864270
Si Si2 0.606861 0.025638 0.380345
Si Si3 0.387516 0.250000 0.591723
Si Si4 0.112754 0.250000 0.540134
Si Si5 0.500000 0.601160 0.949654
Si Si6 0.828051 0.893827 0.262236
O O1 0.202024 0.250000 0.870046
O O2 0.250000 0.500000 0.870061
O O3 0.128478 0.407609 0.800194
O O4 0.089441 0.417429 0.910266
O O5 0.500000 0.012049 0.396234
O O6 0.645585 0.124884 0.426093
O O7 0.612109 0.083580 0.317807
O O8 0.646696 0.882653 0.381595
O O9 0.500000 0.250000 0.596914
O O10 0.363223 0.250000 0.525486
O O11 0.000000 0.250000 0.542386
O O12 0.500000 0.750000 0.968893
O O13 0.500000 0.500000 0.000000
O O14 0.790328 0.750000 0.264910
O O15 0.750000 0.000000 0.264745
#
# Coordination Sequence:
#
# PCOD9501304 Si02
#       6
#    16  16   8   8   8  16
#     4   9  20  39  61  88 121 163 203 245 296 346
#     4  10  19  31  52  79 101 135 181 228 283 333
#     4   9  18  30  47  73 109 137 169 228 285 338
#     4   9  16  30  49  75 101 133 181 226 277 338
#     4  10  22  40  64  94 128 164 201 245 290 340
#     4  10  21  36  56  78 108 144 183 229 282 337
#
# _framework density 20.0153
#
# number of rings (size 3 to 8) (size 9 to 14) (size 15 to 20)
#    0.000    2.444    1.111    0.667    3.111    4.000 
#    0.000    2.222    0.000    4.000    0.000    0.000 
#    0.000    0.000    0.000    0.000    0.000    0.000 
#
# Total GULP energy -200834.920684 kJ/mol
# GULP energy per Si atom -5578.747797 kJ/mol
# Density = 1.996974 g / cm^3
# Si number density = 20.015300 Si / 1000 Ang^3
#
#
#
# Elastic Constant Matrix: (Units=GPa)
#
#
# Indices 1 2 3 4 5 6 
#
# 1 39.5857 30.6001 14.2653 0.0000 0.0000 0.0000
# 2 30.6001 175.5889 80.3685 0.0000 0.0000 0.0000
# 3 14.2653 80.3685 114.7898 0.0000 0.0000 0.0000
# 4 0.0000 0.0000 0.0000 38.2917 0.0000 0.0000
# 5 0.0000 0.0000 0.0000 0.0000 4.8995 0.0000
# 6 0.0000 0.0000 0.0000 0.0000 0.0000 13.1055
#
#
#
# Elastic Compliance Matrix: (Units=1/GPa)
#
#
# Indices 1 2 3 4 5 6 
#
# 1 0.029195 -0.005043 -0.000097 0.000000 0.000000 0.000000
# 2 -0.005043 0.009252 -0.005851 0.000000 0.000000 0.000000
# 3 -0.000097 -0.005851 0.012820 0.000000 0.000000 0.000000
# 4 0.000000 0.000000 0.000000 0.026115 0.000000 0.000000
# 5 0.000000 0.000000 0.000000 0.000000 0.204102 0.000000
# 6 0.000000 0.000000 0.000000 0.000000 0.000000 0.076304
#
#
# Mechanical properties :
#
#
# Convention : Reuss Voigt Hill
#
# Bulk Modulus (GPa) = 34.14779 64.49247 49.32013
# Shear Modulus (GPa) = 12.83587 24.90803 18.87195
#
# Velocity S-wave (km/s) = 2.53514 3.53150 3.07396
# Velocity P-wave (km/s) = 5.06628 6.99430 6.10686
#
# Compressibility (1/GPa) = 0.02928447
#
# Stress axis : x y z
#
# Youngs Moduli (GPa) = 34.25212 108.08373 78.00243
#
# Poissons Ratio (x) = 0.54512 0.00757
# Poissons Ratio (y) = 0.17275 0.45639
# Poissons Ratio (z) = 0.00333 0.63239
#
# Static dielectric constant tensor:
#      x y z
#    x 1.714070 0.000000 0.000000 
#    y 0.000000 1.725290 0.000000 
#    z 0.000000 0.000000 1.690970 
# 
# From -- ./inp_files/42135.got.cif
#   From: 2010.05.17/outbox.cif.g08.bks.cpg/sg67_22_cif.got.tgz:42135.got - 2010.06.03 18:28:57.
