data_PCOD9501260
_publ_section_title
;
Structure prediction by ZEFSAII (Michael W. Deem and Ramdas Pophale) SiO2 
 PCOD9501260
Probable space group: C M M A
;
_chemical_formula_sum "Si O2"
_cell_formula_units_Z 88
_cell_length_a 8.618040
_cell_length_b 33.348173
_cell_length_c 16.425507
_cell_angle_alpha 90.000000
_cell_angle_beta 90.000000
_cell_angle_gamma 90.000000
_cell_volume 4720.623184
_symmetry_space_group_name_H-M "C M M A"
_symmetry_group_IT_number 67
_symmetry_cell_setting 'orthorhombic'
loop_
_space_group_symop_operation_xyz
x,y,z
-x,1/2-y,z
x,-y,-z
-x,1/2+y,-z
-x,-y,-z
x,1/2+y,-z
-x,y,z
x,1/2-y,z
1/2+x,1/2+y,z
1/2-x,-y,z
1/2+x,1/2-y,-z
1/2-x,y,-z
1/2-x,1/2-y,-z
1/2+x,y,-z
1/2-x,1/2+y,z
1/2+x,-y,z
loop_
_atom_site_type_symbol
_atom_site_label
_atom_site_fract_x
_atom_site_fract_y
_atom_site_fract_z
Si Si1 0.818718 0.310668 0.787172
Si Si2 0.185344 0.750000 0.910493
Si Si3 0.682010 0.404767 0.235832
Si Si4 0.315382 0.045094 0.913524
Si Si5 0.817057 0.794288 0.616091
Si Si6 0.314640 0.118072 0.415069
O O1 0.755613 0.288528 0.865383
O O2 0.807977 0.358451 0.791495
O O3 0.714771 0.295816 0.712387
O O4 0.000000 0.300732 0.771699
O O5 0.000000 0.750000 0.906934
O O6 0.250000 0.750000 0.000000
O O7 0.500000 0.416394 0.237169
O O8 0.766318 0.431036 0.167714
O O9 0.739044 0.403077 0.330516
O O10 0.500000 0.043931 0.919573
O O11 0.250000 0.000000 0.906574
O O12 0.250000 0.061744 0.000000
O O13 0.762012 0.750000 0.588608
O O14 0.732960 0.834812 0.587562
O O15 0.000000 0.797561 0.598176
O O16 0.500000 0.116284 0.415039
O O17 0.250000 0.101257 0.500000
#
# Coordination Sequence:
#
# PCOD9501260 Si02
#       6
#    16   8  16  16  16  16
#     4  10  20  35  54  74 102 140 183 232 282 335
#     4  12  24  36  50  70  99 138 185 236 286 338
#     4   9  20  38  59  85 115 150 189 231 283 341
#     4  11  22  38  63  92 123 154 183 226 277 336
#     4  10  19  31  50  74 101 137 182 234 287 340
#     4  10  21  36  55  79 111 150 192 241 289 341
#
# _framework density 18.641605999999999
#
# number of rings (size 3 to 8) (size 9 to 14) (size 15 to 20)
#    0.000    1.818    0.909    5.727    0.000    6.545 
#    0.000    0.000    0.000    0.545    0.000    3.818 
#    0.000    0.000    0.000    0.000    0.000    0.000 
#
# Total GULP energy -245470.548757 kJ/mol
# GULP energy per Si atom -5578.876108 kJ/mol
# Density = 1.859918 g / cm^3
# Si number density = 18.641606 Si / 1000 Ang^3
#
#
#
# Elastic Constant Matrix: (Units=GPa)
#
#
# Indices 1 2 3 4 5 6 
#
# 1 85.0742 27.1837 42.2503 0.0000 0.0000 0.0000
# 2 27.1837 48.1212 46.2288 0.0000 0.0000 0.0000
# 3 42.2503 46.2288 178.5176 0.0000 0.0000 0.0000
# 4 0.0000 0.0000 0.0000 -110.6732 0.0000 0.0000
# 5 0.0000 0.0000 0.0000 0.0000 32.1697 0.0000
# 6 0.0000 0.0000 0.0000 0.0000 0.0000 27.5117
#
#
#
# Elastic Compliance Matrix: (Units=1/GPa)
#
#
# Indices 1 2 3 4 5 6 
#
# 1 0.014754 -0.006629 -0.001775 0.000000 0.000000 0.000000
# 2 -0.006629 0.030641 -0.006366 0.000000 0.000000 0.000000
# 3 -0.001775 -0.006366 0.007670 0.000000 0.000000 0.000000
# 4 0.000000 0.000000 0.000000 -0.009036 0.000000 0.000000
# 5 0.000000 0.000000 0.000000 0.000000 0.031085 0.000000
# 6 0.000000 0.000000 0.000000 0.000000 0.000000 0.036348
#
#
# Mechanical properties :
#
#
# Convention : Reuss Voigt Hill
#
# Bulk Modulus (GPa) = 42.50774 60.33763 51.42268
# Shear Modulus (GPa) = 33.59173 2.87166 18.23170
#
# Velocity S-wave (km/s) = 4.24957 1.24250 3.13071
# Velocity P-wave (km/s) = 6.85059 5.87332 6.38069
#
# Compressibility (1/GPa) = 0.02352513
#
# Stress axis : x y z
#
# Youngs Moduli (GPa) = 67.77670 32.63571 130.37236
#
# Poissons Ratio (x) = 0.21635 0.23144
# Poissons Ratio (y) = 0.44931 0.82993
# Poissons Ratio (z) = 0.12032 0.20775
#
# Static dielectric constant tensor:
#      x y z
#    x 1.637040 0.000000 0.000000 
#    y 0.000000 1.629210 0.000000 
#    z 0.000000 0.000000 1.654320 
# 
# From -- ./inp_files/32452.got.cif
#   From: 2010.05.17/outbox.cif.g08.bks.cpg/sg67_17_cif.got.tgz:32452.got - 2010.06.03 18:28:57.
