data_PCOD9501655
_publ_section_title
;
Structure prediction by ZEFSAII (Michael W. Deem and Ramdas Pophale) SiO2 
 PCOD9501655
Probable space group: C M M A
;
_chemical_formula_sum "Si O2"
_cell_formula_units_Z 80
_cell_length_a 18.688809
_cell_length_b 8.784941
_cell_length_c 26.613544
_cell_angle_alpha 90.000000
_cell_angle_beta 90.000000
_cell_angle_gamma 90.000000
_cell_volume 4369.413901
_symmetry_space_group_name_H-M "C M M A"
_symmetry_group_IT_number 67
_symmetry_cell_setting 'orthorhombic'
loop_
_space_group_symop_operation_xyz
x,y,z
-x,1/2-y,z
x,-y,-z
-x,1/2+y,-z
-x,-y,-z
x,1/2+y,-z
-x,y,z
x,1/2-y,z
1/2+x,1/2+y,z
1/2-x,-y,z
1/2+x,1/2-y,-z
1/2-x,y,-z
1/2-x,1/2-y,-z
1/2+x,y,-z
1/2-x,1/2+y,z
1/2+x,-y,z
loop_
_atom_site_type_symbol
_atom_site_label
_atom_site_fract_x
_atom_site_fract_y
_atom_site_fract_z
Si Si1 0.670735 0.932773 0.250568
Si Si2 0.829499 0.933542 0.553250
Si Si3 0.418249 0.564789 0.348539
Si Si4 0.415452 0.431313 0.157831
Si Si5 0.087115 0.425320 0.052049
O O1 0.674225 0.750000 0.250667
O O2 0.626951 0.983694 0.300032
O O3 0.750000 0.000000 0.251732
O O4 0.629224 0.988464 0.201252
O O5 0.825792 0.750000 0.550423
O O6 0.879433 0.978688 0.599771
O O7 0.855232 0.000000 0.500000
O O8 0.750000 0.000000 0.561402
O O9 0.500000 0.511137 0.346113
O O10 0.419585 0.750000 0.347778
O O11 0.500000 0.468988 0.163522
O O12 0.407850 0.250000 0.161494
O O13 0.392136 0.486281 0.102491
O O14 0.109380 0.250000 0.055045
O O15 0.000000 0.428493 0.050746
O O16 0.112043 0.500000 0.000000
#
# Coordination Sequence:
#
# PCOD9501655 Si02
#       5
#    16  16  16  16  16
#     4  11  22  37  57  78 104 139 179 221 268 324
#     4  10  19  33  54  78 107 141 177 216 258 310
#     4   9  19  35  55  79 106 137 174 218 268 319
#     4  10  20  34  53  79 110 141 177 223 270 317
#     4   9  16  27  46  74 107 142 179 219 265 315
#
# _framework density 18.309092
#
# number of rings (size 3 to 8) (size 9 to 14) (size 15 to 20)
#    0.000    2.200    0.000    4.200    0.000    4.800 
#    0.000    3.000    0.000    7.200    0.000    4.200 
#    0.000    0.000    0.000    0.000    0.000    0.000 
#
# Total GULP energy -223299.740603 kJ/mol
# GULP energy per Si atom -5582.493515 kJ/mol
# Density = 1.826742 g / cm^3
# Si number density = 18.309092 Si / 1000 Ang^3
#
#
#
# Elastic Constant Matrix: (Units=GPa)
#
#
# Indices 1 2 3 4 5 6 
#
# 1 100.4240 46.2845 100.2402 0.0000 0.0000 0.0000
# 2 46.2845 68.1939 58.2403 0.0000 0.0000 0.0000
# 3 100.2402 58.2403 201.5465 0.0000 0.0000 0.0000
# 4 0.0000 0.0000 0.0000 19.8782 0.0000 0.0000
# 5 0.0000 0.0000 0.0000 0.0000 -115.1150 0.0000
# 6 0.0000 0.0000 0.0000 0.0000 0.0000 13.8594
#
#
#
# Elastic Compliance Matrix: (Units=1/GPa)
#
#
# Indices 1 2 3 4 5 6 
#
# 1 0.022356 -0.007538 -0.008941 0.000000 0.000000 0.000000
# 2 -0.007538 0.022010 -0.002611 0.000000 0.000000 0.000000
# 3 -0.008941 -0.002611 0.010163 0.000000 0.000000 0.000000
# 4 0.000000 0.000000 0.000000 0.050306 0.000000 0.000000
# 5 0.000000 0.000000 0.000000 0.000000 -0.008687 0.000000
# 6 0.000000 0.000000 0.000000 0.000000 0.000000 0.072153
#
#
# Mechanical properties :
#
#
# Convention : Reuss Voigt Hill
#
# Bulk Modulus (GPa) = 61.16320 86.63272 73.89796
# Shear Modulus (GPa) = 23.59240 -5.24888 9.17176
#
# Velocity S-wave (km/s) = 3.59355 -1.69500 2.24060
# Velocity P-wave (km/s) = 7.12015 6.60218 6.86605
#
# Compressibility (1/GPa) = 0.01634970
#
# Stress axis : x y z
#
# Youngs Moduli (GPa) = 44.72982 45.43331 98.39610
#
# Poissons Ratio (x) = 0.34247 0.87975
# Poissons Ratio (y) = 0.33717 0.25694
# Poissons Ratio (z) = 0.39993 0.11864
#
# Static dielectric constant tensor:
#      x y z
#    x 1.609940 0.000000 0.000000 
#    y 0.000000 1.615210 0.000000 
#    z 0.000000 0.000000 1.615060 
# 
# From -- ./inp_files/43310.got.cif
#   From: 2010.05.17/outbox.cif.g08.bks.cpg/sg67_22_cif.got.tgz:43310.got - 2010.06.03 18:28:57.
