data_PCOD9501333
_publ_section_title
;
Structure prediction by ZEFSAII (Michael W. Deem and Ramdas Pophale) SiO2 
 PCOD9501333
Probable space group: C M M A
;
_chemical_formula_sum "Si O2"
_cell_formula_units_Z 72
_cell_length_a 18.811929
_cell_length_b 25.386757
_cell_length_c 8.215178
_cell_angle_alpha 90.000000
_cell_angle_beta 90.000000
_cell_angle_gamma 90.000000
_cell_volume 3923.354352
_symmetry_space_group_name_H-M "C M M A"
_symmetry_group_IT_number 67
_symmetry_cell_setting 'orthorhombic'
loop_
_space_group_symop_operation_xyz
x,y,z
-x,1/2-y,z
x,-y,-z
-x,1/2+y,-z
-x,-y,-z
x,1/2+y,-z
-x,y,z
x,1/2-y,z
1/2+x,1/2+y,z
1/2-x,-y,z
1/2+x,1/2-y,-z
1/2-x,y,-z
1/2-x,1/2-y,-z
1/2+x,y,-z
1/2-x,1/2+y,z
1/2+x,-y,z
loop_
_atom_site_type_symbol
_atom_site_label
_atom_site_fract_x
_atom_site_fract_y
_atom_site_fract_z
Si Si1 0.601834 0.107948 0.024568
Si Si2 0.000000 0.037199 0.159104
Si Si3 0.234732 0.750000 0.751599
Si Si4 0.000000 0.832582 0.513349
Si Si5 0.000000 0.567816 0.300302
Si Si6 0.122989 0.750000 0.459787
Si Si7 0.500000 0.311486 0.896286
Si Si8 0.250000 0.344297 0.000000
O O1 0.567558 0.084359 0.188032
O O2 0.684142 0.117725 0.035122
O O3 0.569564 0.073001 0.875162
O O4 0.566731 0.164533 0.990592
O O5 0.000000 0.995841 0.306303
O O6 0.000000 0.000000 0.000000
O O7 0.168632 0.750000 0.627001
O O8 0.313410 0.750000 0.670591
O O9 0.231159 0.696407 0.855563
O O10 0.930196 0.800210 0.453442
O O11 0.000000 0.892765 0.452395
O O12 0.000000 0.828745 0.708353
O O13 0.500000 0.250000 0.899909
#
# Coordination Sequence:
#
# PCOD9501333 Si02
#       8
#    16   8   8   8   8   8   8   8
#     4   9  19  33  51  73  99 133 166 212 262 304
#     4   7  15  35  54  69  99 124 157 219 269 291
#     4  10  22  32  44  66 108 144 160 204 246 298
#     4  11  19  30  54  73  97 133 181 206 243 311
#     4   9  18  36  53  75  96 127 171 223 260 298
#     4  10  20  34  44  68 104 140 170 200 254 296
#     4  10  19  32  48  72 105 139 167 209 255 298
#     4  11  20  30  49  74 102 130 179 199 244 314
#
# _framework density 18.351642999999999
#
# number of rings (size 3 to 8) (size 9 to 14) (size 15 to 20)
#    0.000    2.889    1.111    2.667    3.111    0.000 
#    8.000    7.222    0.000    0.000    0.000    0.000 
#    0.000   21.333    0.000    0.000    0.000    0.000 
#
# Total GULP energy -200536.512510 kJ/mol
# GULP energy per Si atom -5570.458681 kJ/mol
# Density = 1.830987 g / cm^3
# Si number density = 18.351643 Si / 1000 Ang^3
#
#
#
# Elastic Constant Matrix: (Units=GPa)
#
#
# Indices 1 2 3 4 5 6 
#
# 1 125.5893 20.1000 -3.8930 0.0000 0.0000 0.0000
# 2 20.1000 99.5182 9.6371 0.0000 0.0000 0.0000
# 3 -3.8930 9.6371 13.3959 0.0000 0.0000 0.0000
# 4 0.0000 0.0000 0.0000 25.1035 0.0000 0.0000
# 5 0.0000 0.0000 0.0000 0.0000 13.1386 0.0000
# 6 0.0000 0.0000 0.0000 0.0000 0.0000 -1.2975
#
#
#
# Elastic Compliance Matrix: (Units=1/GPa)
#
#
# Indices 1 2 3 4 5 6 
#
# 1 0.008418 -0.002082 0.003944 0.000000 0.000000 0.000000
# 2 -0.002082 0.011316 -0.008746 0.000000 0.000000 0.000000
# 3 0.003944 -0.008746 0.082088 0.000000 0.000000 0.000000
# 4 0.000000 0.000000 0.000000 0.039835 0.000000 0.000000
# 5 0.000000 0.000000 0.000000 0.000000 0.076112 0.000000
# 6 0.000000 0.000000 0.000000 0.000000 0.000000 -0.770715
#
#
# Mechanical properties :
#
#
# Convention : Reuss Voigt Hill
#
# Bulk Modulus (GPa) = 11.35665 32.24352 21.80008
# Shear Modulus (GPa) = -9.80724 21.56620 5.87948
#
# Velocity S-wave (km/s) = -2.31423 3.43179 1.79186
# Velocity P-wave (km/s) = 0.96907 5.77155 4.02317
#
# Compressibility (1/GPa) = 0.08805413
#
# Stress axis : x y z
#
# Youngs Moduli (GPa) = 118.79354 88.37141 12.18209
#
# Poissons Ratio (x) = 0.18400 -0.04805
# Poissons Ratio (y) = 0.24735 0.10654
# Poissons Ratio (z) = -0.46855 0.77288
#
# Static dielectric constant tensor:
#      x y z
#    x 1.638680 0.000000 0.000000 
#    y 0.000000 1.671970 0.000000 
#    z 0.000000 0.000000 1.687420 
# 
# From -- ./inp_files/9880.got.cif
#   From: 2010.05.17/outbox.cif.g08.bks.cpg/sg67_5_cif.got.tgz:9880.got - 2010.06.03 18:28:57.
