data_PCOD9501215
_publ_section_title
;
Structure prediction by ZEFSAII (Michael W. Deem and Ramdas Pophale) SiO2 
 PCOD9501215
Probable space group: C M M A
;
_chemical_formula_sum "Si O2"
_cell_formula_units_Z 104
_cell_length_a 27.490893
_cell_length_b 8.844889
_cell_length_c 24.564598
_cell_angle_alpha 90.000000
_cell_angle_beta 90.000000
_cell_angle_gamma 90.000000
_cell_volume 5972.977734
_symmetry_space_group_name_H-M "C M M A"
_symmetry_group_IT_number 67
_symmetry_cell_setting 'orthorhombic'
loop_
_space_group_symop_operation_xyz
x,y,z
-x,1/2-y,z
x,-y,-z
-x,1/2+y,-z
-x,-y,-z
x,1/2+y,-z
-x,y,z
x,1/2-y,z
1/2+x,1/2+y,z
1/2-x,-y,z
1/2+x,1/2-y,-z
1/2-x,y,-z
1/2-x,1/2-y,-z
1/2+x,y,-z
1/2-x,1/2+y,z
1/2+x,-y,z
loop_
_atom_site_type_symbol
_atom_site_label
_atom_site_fract_x
_atom_site_fract_y
_atom_site_fract_z
Si Si1 0.000000 0.567027 0.939908
Si Si2 0.556564 0.069352 0.558762
Si Si3 0.401939 0.067511 0.875247
Si Si4 0.801856 0.568568 0.142075
Si Si5 0.395025 0.570680 0.662372
Si Si6 0.056338 0.575829 0.759777
Si Si7 0.300893 0.068223 0.270001
O O1 0.050368 0.521516 0.909779
O O2 0.000000 0.750000 0.940946
O O3 0.000000 0.500000 0.000000
O O4 0.500000 0.027800 0.570904
O O5 0.559279 0.250000 0.556140
O O6 0.568603 0.000000 0.500000
O O7 0.590729 0.008170 0.606370
O O8 0.398064 0.250000 0.878304
O O9 0.414141 0.026649 0.812688
O O10 0.349778 0.994293 0.888116
O O11 0.800380 0.750000 0.138607
O O12 0.750000 0.500000 0.123824
O O13 0.807122 0.524556 0.206375
O O14 0.393264 0.750000 0.654296
O O15 0.434527 0.526908 0.707903
O O16 0.344890 0.519435 0.691178
O O17 0.069400 0.750000 0.746085
O O18 0.000000 0.575251 0.775489
O O19 0.299061 0.250000 0.271092
O O20 0.250000 0.000000 0.288665
#
# Coordination Sequence:
#
# PCOD9501215 Si02
#       7
#     8  16  16  16  16  16  16
#     4  10  22  40  60  84 114 152 195 232 275 328
#     4  10  21  37  55  75  99 133 176 217 260 313
#     4  10  19  34  55  79 110 147 184 227 273 323
#     4  10  19  33  52  79 112 147 186 226 274 331
#     4  11  21  33  49  75 107 137 171 215 264 317
#     4  10  19  31  48  73 105 141 176 212 260 317
#     4   9  19  32  47  71 104 138 173 212 257 313
#
# _framework density 17.411750000000001
#
# number of rings (size 3 to 8) (size 9 to 14) (size 15 to 20)
#    0.000    2.000    2.308    1.846    0.000    5.538 
#    0.000    0.000    0.000    0.923    0.000    6.462 
#    0.000    0.000    0.000    0.000    0.000    0.000 
#
# Total GULP energy -290042.585911 kJ/mol
# GULP energy per Si atom -5577.742037 kJ/mol
# Density = 1.737212 g / cm^3
# Si number density = 17.411750 Si / 1000 Ang^3
#
#
#
# Elastic Constant Matrix: (Units=GPa)
#
#
# Indices 1 2 3 4 5 6 
#
# 1 131.0635 30.2047 39.8433 0.0000 0.0000 0.0000
# 2 30.2047 21.9236 22.2412 0.0000 0.0000 0.0000
# 3 39.8433 22.2412 58.8718 0.0000 0.0000 0.0000
# 4 0.0000 0.0000 0.0000 23.8197 0.0000 0.0000
# 5 0.0000 0.0000 0.0000 0.0000 14.1052 0.0000
# 6 0.0000 0.0000 0.0000 0.0000 0.0000 29.2892
#
#
#
# Elastic Compliance Matrix: (Units=1/GPa)
#
#
# Indices 1 2 3 4 5 6 
#
# 1 0.011479 -0.012863 -0.002909 0.000000 0.000000 0.000000
# 2 -0.012863 0.088374 -0.024681 0.000000 0.000000 0.000000
# 3 -0.002909 -0.024681 0.028279 0.000000 0.000000 0.000000
# 4 0.000000 0.000000 0.000000 0.041982 0.000000 0.000000
# 5 0.000000 0.000000 0.000000 0.000000 0.070896 0.000000
# 6 0.000000 0.000000 0.000000 0.000000 0.000000 0.034142
#
#
# Mechanical properties :
#
#
# Convention : Reuss Voigt Hill
#
# Bulk Modulus (GPa) = 21.17533 44.04862 32.61197
# Shear Modulus (GPa) = 13.44807 21.41413 17.43110
#
# Velocity S-wave (km/s) = 2.78214 3.51075 3.16747
# Velocity P-wave (km/s) = 4.74430 6.46428 5.66989
#
# Compressibility (1/GPa) = 0.04722477
#
# Stress axis : x y z
#
# Youngs Moduli (GPa) = 87.11801 11.31554 35.36189
#
# Poissons Ratio (x) = 0.14556 0.10286
# Poissons Ratio (y) = 1.12064 0.87277
# Poissons Ratio (z) = 0.25341 0.27928
#
# Static dielectric constant tensor:
#      x y z
#    x 1.616980 0.000000 0.000000 
#    y 0.000000 1.591560 0.000000 
#    z 0.000000 0.000000 1.564120 
# 
# From -- ./inp_files/42772.got.cif
#   From: 2010.05.17/outbox.cif.g08.bks.cpg/sg67_22_cif.got.tgz:42772.got - 2010.06.03 18:28:57.
