data_PCOD9501819
_publ_section_title
;
Structure prediction by ZEFSAII (Michael W. Deem and Ramdas Pophale) SiO2 
 PCOD9501819
Probable space group: C M M A
;
_chemical_formula_sum "Si O2"
_cell_formula_units_Z 64
_cell_length_a 13.972919
_cell_length_b 14.025763
_cell_length_c 13.395863
_cell_angle_alpha 90.000000
_cell_angle_beta 90.000000
_cell_angle_gamma 90.000000
_cell_volume 2625.332621
_symmetry_space_group_name_H-M "C M M A"
_symmetry_group_IT_number 67
_symmetry_cell_setting 'orthorhombic'
loop_
_space_group_symop_operation_xyz
x,y,z
-x,1/2-y,z
x,-y,-z
-x,1/2+y,-z
-x,-y,-z
x,1/2+y,-z
-x,y,z
x,1/2-y,z
1/2+x,1/2+y,z
1/2-x,-y,z
1/2+x,1/2-y,-z
1/2-x,y,-z
1/2-x,1/2-y,-z
1/2+x,y,-z
1/2-x,1/2+y,z
1/2+x,-y,z
loop_
_atom_site_type_symbol
_atom_site_label
_atom_site_fract_x
_atom_site_fract_y
_atom_site_fract_z
Si Si1 0.883186 0.644492 0.765842
Si Si2 0.116072 0.539923 0.109088
Si Si3 0.892518 0.589546 0.549456
Si Si4 0.162622 0.250000 0.581436
Si Si5 0.382498 0.250000 0.189143
O O1 0.853768 0.750000 0.804579
O O2 0.852418 0.546653 0.818422
O O3 0.851697 0.634630 0.650183
O O4 0.000000 0.646617 0.771210
O O5 0.144991 0.648970 0.135792
O O6 0.000000 0.542452 0.113627
O O7 0.141682 0.500000 0.000000
O O8 0.844394 0.500000 0.500000
O O9 0.895530 0.660347 0.457724
O O10 0.000000 0.561529 0.580345
O O11 0.250000 0.250000 0.500000
O O12 0.162857 0.250000 0.700179
O O13 0.500000 0.250000 0.197168
#
# Coordination Sequence:
#
# PCOD9501819 Si02
#       5
#    16  16  16   8   8
#     4   9  16  27  46  74 105 135 177 230 285 343
#     4   9  18  30  50  82 115 149 186 239 306 356
#     4  10  19  34  57  81 108 146 195 247 297 355
#     4  12  24  36  53  82 120 160 197 239 300 363
#     4  10  20  36  55  80 121 162 204 251 299 369
#
# _framework density 24.377863000000001
#
# number of rings (size 3 to 8) (size 9 to 14) (size 15 to 20)
#    0.000    2.250    1.250    2.625    1.750    4.500 
#    0.000    0.000    0.000    0.000    0.000    5.250 
#    0.000    0.000    0.000    0.000    0.000    0.500 
#
# Total GULP energy -178454.915562 kJ/mol
# GULP energy per Si atom -5576.716111 kJ/mol
# Density = 2.432238 g / cm^3
# Si number density = 24.377863 Si / 1000 Ang^3
#
#
#
# Elastic Constant Matrix: (Units=GPa)
#
#
# Indices 1 2 3 4 5 6 
#
# 1 94.9903 34.5494 10.0709 0.0000 0.0000 0.0000
# 2 34.5494 281.0964 115.5368 0.0000 0.0000 0.0000
# 3 10.0709 115.5368 162.6813 0.0000 0.0000 0.0000
# 4 0.0000 0.0000 0.0000 41.1929 0.0000 0.0000
# 5 0.0000 0.0000 0.0000 0.0000 6.8653 0.0000
# 6 0.0000 0.0000 0.0000 0.0000 0.0000 -3.5236
#
#
#
# Elastic Compliance Matrix: (Units=1/GPa)
#
#
# Indices 1 2 3 4 5 6 
#
# 1 0.011038 -0.001519 0.000396 0.000000 0.000000 0.000000
# 2 -0.001519 0.005233 -0.003623 0.000000 0.000000 0.000000
# 3 0.000396 -0.003623 0.008695 0.000000 0.000000 0.000000
# 4 0.000000 0.000000 0.000000 0.024276 0.000000 0.000000
# 5 0.000000 0.000000 0.000000 0.000000 0.145661 0.000000
# 6 0.000000 0.000000 0.000000 0.000000 0.000000 -0.283803
#
#
# Mechanical properties :
#
#
# Convention : Reuss Voigt Hill
#
# Bulk Modulus (GPa) = 64.62408 95.45358 80.03883
# Shear Modulus (GPa) = -67.34051 34.14764 -16.59644
#
# Velocity S-wave (km/s) = -5.26152 3.74674 -2.61204
# Velocity P-wave (km/s) = 3.21630 7.61303 4.87922
#
# Compressibility (1/GPa) = 0.01547411
#
# Stress axis : x y z
#
# Youngs Moduli (GPa) = 90.59579 191.08781 115.00522
#
# Poissons Ratio (x) = 0.29032 -0.04551
# Poissons Ratio (y) = 0.13764 0.41662
# Poissons Ratio (z) = -0.03585 0.69223
#
# Static dielectric constant tensor:
#      x y z
#    x 2.023790 0.000000 0.000000 
#    y 0.000000 1.939060 0.000000 
#    z 0.000000 0.000000 1.912720 
# 
# From -- ./inp_files/18985.got.cif
#   From: 2010.05.17/outbox.cif.g08.bks.cpg/sg67_10_cif.got.tgz:18985.got - 2010.06.03 18:28:57.
