data_PCOD9501071
_publ_section_title
;
Structure prediction by ZEFSAII (Michael W. Deem and Ramdas Pophale) SiO2 
 PCOD9501071
Probable space group: C M M A
;
_chemical_formula_sum "Si O2"
_cell_formula_units_Z 96
_cell_length_a 8.493405
_cell_length_b 28.357649
_cell_length_c 24.667067
_cell_angle_alpha 90.000000
_cell_angle_beta 90.000000
_cell_angle_gamma 90.000000
_cell_volume 5941.137034
_symmetry_space_group_name_H-M "C M M A"
_symmetry_group_IT_number 67
_symmetry_cell_setting 'orthorhombic'
loop_
_space_group_symop_operation_xyz
x,y,z
-x,1/2-y,z
x,-y,-z
-x,1/2+y,-z
-x,-y,-z
x,1/2+y,-z
-x,y,z
x,1/2-y,z
1/2+x,1/2+y,z
1/2-x,-y,z
1/2+x,1/2-y,-z
1/2-x,y,-z
1/2-x,1/2-y,-z
1/2+x,y,-z
1/2-x,1/2+y,z
1/2+x,-y,z
loop_
_atom_site_type_symbol
_atom_site_label
_atom_site_fract_x
_atom_site_fract_y
_atom_site_fract_z
Si Si1 0.190449 0.858234 0.166030
Si Si2 0.310968 0.446690 0.441448
Si Si3 0.190549 0.896275 0.332336
Si Si4 0.309928 0.195477 0.059110
Si Si5 0.812890 0.552073 0.774063
Si Si6 0.191595 0.303015 0.725720
O O1 0.243072 0.837386 0.108571
O O2 0.255881 0.909058 0.182648
O O3 0.234954 0.822444 0.214712
O O4 0.000000 0.860979 0.166023
O O5 0.500000 0.447791 0.442635
O O6 0.250000 0.500000 0.433407
O O7 0.250000 0.430287 0.500000
O O8 0.258369 0.414907 0.390858
O O9 0.249072 0.930097 0.284198
O O10 0.242039 0.843310 0.316620
O O11 0.000000 0.897139 0.331029
O O12 0.500000 0.195078 0.058766
O O13 0.259986 0.250000 0.068116
O O14 0.250000 0.180795 0.000000
O O15 0.750000 0.500000 0.785645
O O16 0.000000 0.551401 0.772266
O O17 0.248867 0.250000 0.716246
O O18 0.000000 0.301719 0.724329
#
# Coordination Sequence:
#
# PCOD9501071 Si02
#       6
#    16  16  16  16  16  16
#     4   9  17  30  47  68  94 123 156 190 225 268
#     4  10  19  30  45  65  89 117 149 186 227 271
#     4   9  18  31  47  69  94 120 152 187 224 269
#     4   9  17  29  47  71  98 128 159 191 228 270
#     4  11  21  32  48  69  93 121 151 186 230 275
#     4   8  13  24  45  69  90 115 150 188 220 257
#
# _framework density 16.158524
#
# number of rings (size 3 to 8) (size 9 to 14) (size 15 to 20)
#    0.000    2.667    0.000    4.500    0.000    5.333 
#    0.000    0.000    0.000   13.000    0.000    3.500 
#    0.000    0.000    0.000    0.000    0.000    0.667 
#
# Total GULP energy -267584.533549 kJ/mol
# GULP energy per Si atom -5574.677782 kJ/mol
# Density = 1.612175 g / cm^3
# Si number density = 16.158524 Si / 1000 Ang^3
#
#
#
# Elastic Constant Matrix: (Units=GPa)
#
#
# Indices 1 2 3 4 5 6 
#
# 1 20.6814 22.9826 26.3302 0.0000 0.0000 0.0000
# 2 22.9826 135.1852 94.8050 0.0000 0.0000 0.0000
# 3 26.3302 94.8050 160.6620 0.0000 0.0000 0.0000
# 4 0.0000 0.0000 0.0000 19.6760 0.0000 0.0000
# 5 0.0000 0.0000 0.0000 0.0000 20.9050 0.0000
# 6 0.0000 0.0000 0.0000 0.0000 0.0000 16.0644
#
#
#
# Elastic Compliance Matrix: (Units=1/GPa)
#
#
# Indices 1 2 3 4 5 6 
#
# 1 0.063830 -0.005997 -0.006922 0.000000 0.000000 0.000000
# 2 -0.005997 0.013183 -0.006796 0.000000 0.000000 0.000000
# 3 -0.006922 -0.006796 0.011369 0.000000 0.000000 0.000000
# 4 0.000000 0.000000 0.000000 0.050823 0.000000 0.000000
# 5 0.000000 0.000000 0.000000 0.000000 0.047836 0.000000
# 6 0.000000 0.000000 0.000000 0.000000 0.000000 0.062249
#
#
# Mechanical properties :
#
#
# Convention : Reuss Voigt Hill
#
# Bulk Modulus (GPa) = 20.42858 67.19601 43.81230
# Shear Modulus (GPa) = 16.39139 22.82313 19.60726
#
# Velocity S-wave (km/s) = 3.18844 3.76234 3.48721
# Velocity P-wave (km/s) = 5.12103 7.78135 6.58689
#
# Compressibility (1/GPa) = 0.04895102
#
# Stress axis : x y z
#
# Youngs Moduli (GPa) = 15.66665 75.85467 87.95779
#
# Poissons Ratio (x) = 0.45492 0.60883
# Poissons Ratio (y) = 0.09396 0.59779
# Poissons Ratio (z) = 0.10844 0.51553
#
# Static dielectric constant tensor:
#      x y z
#    x 1.554600 0.000000 0.000000 
#    y 0.000000 1.534830 0.000000 
#    z 0.000000 0.000000 1.533900 
# 
# From -- ./inp_files/40914.got.cif
#   From: 2010.05.17/outbox.cif.g08.bks.cpg/sg67_21_cif.got.tgz:40914.got - 2010.06.03 18:28:57.
