data_PCOD9501180
_publ_section_title
;
Structure prediction by ZEFSAII (Michael W. Deem and Ramdas Pophale) SiO2 
 PCOD9501180
Probable space group: C M M A
;
_chemical_formula_sum "Si O2"
_cell_formula_units_Z 88
_cell_length_a 28.583894
_cell_length_b 7.961875
_cell_length_c 19.595297
_cell_angle_alpha 90.000000
_cell_angle_beta 90.000000
_cell_angle_gamma 90.000000
_cell_volume 4459.524949
_symmetry_space_group_name_H-M "C M M A"
_symmetry_group_IT_number 67
_symmetry_cell_setting 'orthorhombic'
loop_
_space_group_symop_operation_xyz
x,y,z
-x,1/2-y,z
x,-y,-z
-x,1/2+y,-z
-x,-y,-z
x,1/2+y,-z
-x,y,z
x,1/2-y,z
1/2+x,1/2+y,z
1/2-x,-y,z
1/2+x,1/2-y,-z
1/2-x,y,-z
1/2-x,1/2-y,-z
1/2+x,y,-z
1/2-x,1/2+y,z
1/2+x,-y,z
loop_
_atom_site_type_symbol
_atom_site_label
_atom_site_fract_x
_atom_site_fract_y
_atom_site_fract_z
Si Si1 0.392921 0.451692 0.577755
Si Si2 0.448247 0.544893 0.292116
Si Si3 0.643112 0.548359 0.211261
Si Si4 0.802407 0.547935 0.659698
Si Si5 0.602150 0.050668 0.078424
Si Si6 0.000000 0.452307 0.920133
O O1 0.400294 0.500000 0.500000
O O2 0.391782 0.250000 0.580860
O O3 0.432933 0.504950 0.631243
O O4 0.343009 0.512633 0.608171
O O5 0.500000 0.484897 0.273688
O O6 0.448791 0.750000 0.289617
O O7 0.405944 0.487628 0.244168
O O8 0.643235 0.750000 0.214094
O O9 0.683013 0.489393 0.263862
O O10 0.641526 0.499774 0.132450
O O11 0.804700 0.750000 0.659622
O O12 0.750000 0.500000 0.641409
O O13 0.598595 0.250000 0.079079
O O14 0.550864 0.981436 0.102890
O O15 0.610195 0.000000 0.000000
O O16 0.000000 0.250000 0.911670
O O17 0.000000 0.500000 0.000000
#
# Coordination Sequence:
#
# PCOD9501180 Si02
#       6
#    16  16  16  16  16   8
#     4   9  18  32  49  72 101 128 160 201 240 285
#     4   8  15  29  48  69  95 131 168 198 235 285
#     4   9  18  32  50  73  97 124 163 206 245 290
#     4   9  19  35  53  73  98 126 159 201 247 298
#     4  10  19  31  47  69  99 133 166 202 243 285
#     4   8  16  28  40  60  92 126 159 192 227 270
#
# _framework density 19.733042999999999
#
# number of rings (size 3 to 8) (size 9 to 14) (size 15 to 20)
#    0.000    3.091    0.000    2.727    1.273    2.909 
#    0.000    4.545    0.000    1.636    0.000    3.818 
#    0.000    0.000    0.000    0.000    0.000    0.000 
#
# Total GULP energy -245104.889953 kJ/mol
# GULP energy per Si atom -5570.565681 kJ/mol
# Density = 1.968813 g / cm^3
# Si number density = 19.733043 Si / 1000 Ang^3
#
#
#
# Elastic Constant Matrix: (Units=GPa)
#
#
# Indices 1 2 3 4 5 6 
#
# 1 31.6240 -1.9739 -21.0626 0.0000 0.0000 0.0000
# 2 -1.9739 16.4455 -4.3894 0.0000 0.0000 0.0000
# 3 -21.0626 -4.3894 65.2232 0.0000 0.0000 0.0000
# 4 0.0000 0.0000 0.0000 24.7454 0.0000 0.0000
# 5 0.0000 0.0000 0.0000 0.0000 17.1646 0.0000
# 6 0.0000 0.0000 0.0000 0.0000 0.0000 7.4421
#
#
#
# Elastic Compliance Matrix: (Units=1/GPa)
#
#
# Indices 1 2 3 4 5 6 
#
# 1 0.041476 0.008710 0.013980 0.000000 0.000000 0.000000
# 2 0.008710 0.063748 0.007103 0.000000 0.000000 0.000000
# 3 0.013980 0.007103 0.020325 0.000000 0.000000 0.000000
# 4 0.000000 0.000000 0.000000 0.040411 0.000000 0.000000
# 5 0.000000 0.000000 0.000000 0.000000 0.058259 0.000000
# 6 0.000000 0.000000 0.000000 0.000000 0.000000 0.134371
#
#
# Mechanical properties :
#
#
# Convention : Reuss Voigt Hill
#
# Bulk Modulus (GPa) = 5.40146 6.49341 5.94744
# Shear Modulus (GPa) = 13.86129 19.25168 16.55649
#
# Velocity S-wave (km/s) = 2.65324 3.12686 2.89973
# Velocity P-wave (km/s) = 3.48273 4.04155 3.77250
#
# Compressibility (1/GPa) = 0.18513497
#
# Stress axis : x y z
#
# Youngs Moduli (GPa) = 24.11007 15.68671 49.20139
#
# Poissons Ratio (x) = -0.13663 -0.68785
# Poissons Ratio (y) = -0.20999 -0.34947
# Poissons Ratio (z) = -0.33706 -0.11142
#
# Static dielectric constant tensor:
#      x y z
#    x 1.712710 0.000000 0.000000 
#    y 0.000000 1.708350 0.000000 
#    z 0.000000 0.000000 1.700540 
# 
# From -- ./inp_files/32391.got.cif
#   From: 2010.05.17/outbox.cif.g08.bks.cpg/sg67_17_cif.got.tgz:32391.got - 2010.06.03 18:28:57.
