data_PCOD9501918
_publ_section_title
;
Structure prediction by ZEFSAII (Michael W. Deem and Ramdas Pophale) SiO2 
 PCOD9501918
Probable space group: C M M A
;
_chemical_formula_sum "Si O2"
_cell_formula_units_Z 96
_cell_length_a 29.660347
_cell_length_b 8.667892
_cell_length_c 21.150615
_cell_angle_alpha 90.000000
_cell_angle_beta 90.000000
_cell_angle_gamma 90.000000
_cell_volume 5437.668389
_symmetry_space_group_name_H-M "C M M A"
_symmetry_group_IT_number 67
_symmetry_cell_setting 'orthorhombic'
loop_
_space_group_symop_operation_xyz
x,y,z
-x,1/2-y,z
x,-y,-z
-x,1/2+y,-z
-x,-y,-z
x,1/2+y,-z
-x,y,z
x,1/2-y,z
1/2+x,1/2+y,z
1/2-x,-y,z
1/2+x,1/2-y,-z
1/2-x,y,-z
1/2-x,1/2-y,-z
1/2+x,y,-z
1/2-x,1/2+y,z
1/2+x,-y,z
loop_
_atom_site_type_symbol
_atom_site_label
_atom_site_fract_x
_atom_site_fract_y
_atom_site_fract_z
Si Si1 0.947229 0.565098 0.687498
Si Si2 0.947828 0.064007 0.931672
Si Si3 0.106040 0.562930 0.191925
Si Si4 0.894831 0.564745 0.433158
Si Si5 0.297583 0.064563 0.386718
Si Si6 0.702448 0.935482 0.761098
O O1 0.943350 0.750000 0.686447
O O2 0.922345 0.500078 0.749208
O O3 0.923769 0.496648 0.625312
O O4 0.000000 0.523624 0.689189
O O5 0.946803 0.250000 0.934035
O O6 0.916424 0.013126 0.873868
O O7 0.000000 0.017036 0.920096
O O8 0.934252 0.000000 0.000000
O O9 0.104641 0.750000 0.194501
O O10 0.157988 0.514820 0.201336
O O11 0.911026 0.500000 0.500000
O O12 0.896015 0.750000 0.433219
O O13 0.842742 0.514212 0.422264
O O14 0.295620 0.250000 0.388702
O O15 0.302515 0.017564 0.312785
O O16 0.250000 0.000000 0.410543
O O17 0.704312 0.750000 0.762177
O O18 0.750000 0.000000 0.784527
#
# Coordination Sequence:
#
# PCOD9501918 Si02
#       6
#    16  16  16  16  16  16
#     4  11  24  39  56  81 108 136 176 224 271 319
#     4   9  18  32  52  79 111 146 180 217 264 315
#     4  10  19  35  58  82 109 143 182 220 264 317
#     4  11  23  40  58  78 105 140 180 221 269 323
#     4   9  18  33  53  77 105 136 171 214 265 318
#     4   9  17  31  51  78 107 136 173 216 263 316
#
# _framework density 17.654627000000001
#
# number of rings (size 3 to 8) (size 9 to 14) (size 15 to 20)
#    0.000    2.167    1.667    1.500    0.000    5.333 
#    0.000    3.333    0.000    0.500    0.000    3.500 
#    0.000    0.000    0.000    0.000    0.000    0.000 
#
# Total GULP energy -267930.233897 kJ/mol
# GULP energy per Si atom -5581.879873 kJ/mol
# Density = 1.761444 g / cm^3
# Si number density = 17.654627 Si / 1000 Ang^3
#
#
#
# Elastic Constant Matrix: (Units=GPa)
#
#
# Indices 1 2 3 4 5 6 
#
# 1 139.4528 32.8390 84.6200 0.0000 0.0000 0.0000
# 2 32.8390 14.3453 26.3585 0.0000 0.0000 0.0000
# 3 84.6200 26.3585 141.5493 0.0000 0.0000 0.0000
# 4 0.0000 0.0000 0.0000 25.9967 0.0000 0.0000
# 5 0.0000 0.0000 0.0000 0.0000 4.0748 0.0000
# 6 0.0000 0.0000 0.0000 0.0000 0.0000 26.9649
#
#
#
# Elastic Compliance Matrix: (Units=1/GPa)
#
#
# Indices 1 2 3 4 5 6 
#
# 1 0.017257 -0.031236 -0.004500 0.000000 0.000000 0.000000
# 2 -0.031236 0.162506 -0.011587 0.000000 0.000000 0.000000
# 3 -0.004500 -0.011587 0.011912 0.000000 0.000000 0.000000
# 4 0.000000 0.000000 0.000000 0.038466 0.000000 0.000000
# 5 0.000000 0.000000 0.000000 0.000000 0.245411 0.000000
# 6 0.000000 0.000000 0.000000 0.000000 0.000000 0.037085
#
#
# Mechanical properties :
#
#
# Convention : Reuss Voigt Hill
#
# Bulk Modulus (GPa) = 10.30627 64.77583 37.54105
# Shear Modulus (GPa) = 7.81704 21.50929 14.66316
#
# Velocity S-wave (km/s) = 2.10651 3.49426 2.88506
# Velocity P-wave (km/s) = 3.43029 7.28354 5.69284
#
# Compressibility (1/GPa) = 0.09702834
#
# Stress axis : x y z
#
# Youngs Moduli (GPa) = 57.94718 6.15361 83.94556
#
# Poissons Ratio (x) = 0.19222 0.37774
# Poissons Ratio (y) = 1.81006 0.97271
# Poissons Ratio (z) = 0.26075 0.07130
#
# Static dielectric constant tensor:
#      x y z
#    x 1.605760 0.000000 0.000000 
#    y 0.000000 1.596430 0.000000 
#    z 0.000000 0.000000 1.578070 
# 
# From -- ./inp_files/37128.got.cif
#   From: 2010.05.17/outbox.cif.g08.bks.cpg/sg67_19_cif.got.tgz:37128.got - 2010.06.03 18:28:57.
