data_PCOD9501219
_publ_section_title
;
Structure prediction by ZEFSAII (Michael W. Deem and Ramdas Pophale) SiO2 
 PCOD9501219
Probable space group: C M M A
;
_chemical_formula_sum "Si O2"
_cell_formula_units_Z 120
_cell_length_a 14.244675
_cell_length_b 30.822653
_cell_length_c 13.622201
_cell_angle_alpha 90.000000
_cell_angle_beta 90.000000
_cell_angle_gamma 90.000000
_cell_volume 5980.945517
_symmetry_space_group_name_H-M "C M M A"
_symmetry_group_IT_number 67
_symmetry_cell_setting 'orthorhombic'
loop_
_space_group_symop_operation_xyz
x,y,z
-x,1/2-y,z
x,-y,-z
-x,1/2+y,-z
-x,-y,-z
x,1/2+y,-z
-x,y,z
x,1/2-y,z
1/2+x,1/2+y,z
1/2-x,-y,z
1/2+x,1/2-y,-z
1/2-x,y,-z
1/2-x,1/2-y,-z
1/2+x,y,-z
1/2-x,1/2+y,z
1/2+x,-y,z
loop_
_atom_site_type_symbol
_atom_site_label
_atom_site_fract_x
_atom_site_fract_y
_atom_site_fract_z
Si Si1 0.108013 0.896539 0.959304
Si Si2 0.396034 0.702800 0.852008
Si Si3 0.891487 0.699758 0.687920
Si Si4 0.140626 0.510991 0.891985
Si Si5 0.109561 0.799069 0.450994
Si Si6 0.106135 0.576376 0.190896
Si Si7 0.750000 0.172866 0.000000
Si Si8 0.708648 0.355230 0.298897
O O1 0.125255 0.937745 0.888970
O O2 0.182042 0.859007 0.939092
O O3 0.000000 0.883559 0.950346
O O4 0.123904 0.909346 0.075829
O O5 0.500000 0.693757 0.890239
O O6 0.396364 0.750000 0.805686
O O7 0.319937 0.700597 0.936290
O O8 0.363349 0.668702 0.773864
O O9 0.869264 0.750000 0.718394
O O10 0.889990 0.699198 0.568987
O O11 0.811963 0.665055 0.717768
O O12 0.000000 0.690598 0.718343
O O13 0.250000 0.500000 0.895599
O O14 0.104418 0.476063 0.814719
O O15 0.100618 0.500000 0.000000
O O16 0.142833 0.750000 0.424086
O O17 0.172177 0.836841 0.403328
O O18 0.000000 0.803170 0.420107
O O19 0.184058 0.595754 0.265219
O O20 0.000000 0.590575 0.216632
#
# Coordination Sequence:
#
# PCOD9501219 Si02
#       8
#    16  16  16  16  16  16   8  16
#     4  10  19  33  53  74  98 132 173 217 272 336
#     4  11  24  39  54  73 101 140 186 234 280 324
#     4   9  19  35  53  76 110 152 194 232 274 330
#     4   9  17  30  51  75 101 135 169 207 268 338
#     4   9  17  30  51  81 114 147 186 229 275 331
#     4  10  19  31  48  76 108 134 168 220 276 328
#     4  12  21  36  55  74 100 138 180 233 275 322
#     4  12  20  31  54  80 109 145 185 231 276 322
#
# _framework density 20.063718000000001
#
# number of rings (size 3 to 8) (size 9 to 14) (size 15 to 20)
#    0.000    1.867    1.333    6.200    0.000    3.733 
#    0.000    1.333    0.000    3.200    0.000    0.000 
#    0.000    2.133    0.000    8.000    0.000    0.533 
#
# Total GULP energy -334605.343529 kJ/mol
# GULP energy per Si atom -5576.755725 kJ/mol
# Density = 2.001805 g / cm^3
# Si number density = 20.063718 Si / 1000 Ang^3
#
#
#
# Elastic Constant Matrix: (Units=GPa)
#
#
# Indices 1 2 3 4 5 6 
#
# 1 135.7421 31.5467 15.0736 0.0000 0.0000 0.0000
# 2 31.5467 90.5849 15.6659 0.0000 0.0000 0.0000
# 3 15.0736 15.6659 37.9426 0.0000 0.0000 0.0000
# 4 0.0000 0.0000 0.0000 32.1305 0.0000 0.0000
# 5 0.0000 0.0000 0.0000 0.0000 20.8297 0.0000
# 6 0.0000 0.0000 0.0000 0.0000 0.0000 22.3296
#
#
#
# Elastic Compliance Matrix: (Units=1/GPa)
#
#
# Indices 1 2 3 4 5 6 
#
# 1 0.008188 -0.002465 -0.002235 0.000000 0.000000 0.000000
# 2 -0.002465 0.012630 -0.004236 0.000000 0.000000 0.000000
# 3 -0.002235 -0.004236 0.028992 0.000000 0.000000 0.000000
# 4 0.000000 0.000000 0.000000 0.031123 0.000000 0.000000
# 5 0.000000 0.000000 0.000000 0.000000 0.048008 0.000000
# 6 0.000000 0.000000 0.000000 0.000000 0.000000 0.044784
#
#
# Mechanical properties :
#
#
# Convention : Reuss Voigt Hill
#
# Bulk Modulus (GPa) = 31.30937 43.20467 37.25702
# Shear Modulus (GPa) = 24.72265 28.52350 26.62308
#
# Velocity S-wave (km/s) = 3.51409 3.77456 3.64665
# Velocity P-wave (km/s) = 5.66603 6.37000 6.02830
#
# Compressibility (1/GPa) = 0.03193932
#
# Stress axis : x y z
#
# Youngs Moduli (GPa) = 122.13025 79.17460 34.49180
#
# Poissons Ratio (x) = 0.19516 0.07709
# Poissons Ratio (y) = 0.30105 0.14609
# Poissons Ratio (z) = 0.27298 0.33535
#
# Static dielectric constant tensor:
#      x y z
#    x 1.781580 0.000000 0.000000 
#    y 0.000000 1.778730 0.000000 
#    z 0.000000 0.000000 1.751290 
# 
# From -- ./inp_files/27921.got.cif
#   From: 2010.05.17/outbox.cif.g08.bks.cpg/sg67_14_cif.got.tgz:27921.got - 2010.06.03 18:28:57.
