data_PCOD9501684
_publ_section_title
;
Structure prediction by ZEFSAII (Michael W. Deem and Ramdas Pophale) SiO2 
 PCOD9501684
Probable space group: C M M A
;
_chemical_formula_sum "Si O2"
_cell_formula_units_Z 112
_cell_length_a 15.644571
_cell_length_b 26.746675
_cell_length_c 13.181989
_cell_angle_alpha 90.000000
_cell_angle_beta 90.000000
_cell_angle_gamma 90.000000
_cell_volume 5515.874852
_symmetry_space_group_name_H-M "C M M A"
_symmetry_group_IT_number 67
_symmetry_cell_setting 'orthorhombic'
loop_
_space_group_symop_operation_xyz
x,y,z
-x,1/2-y,z
x,-y,-z
-x,1/2+y,-z
-x,-y,-z
x,1/2+y,-z
-x,y,z
x,1/2-y,z
1/2+x,1/2+y,z
1/2-x,-y,z
1/2+x,1/2-y,-z
1/2-x,y,-z
1/2-x,1/2-y,-z
1/2+x,y,-z
1/2-x,1/2+y,z
1/2+x,-y,z
loop_
_atom_site_type_symbol
_atom_site_label
_atom_site_fract_x
_atom_site_fract_y
_atom_site_fract_z
Si Si1 0.847441 0.982336 0.607891
Si Si2 0.145586 0.308137 0.507955
Si Si3 0.900289 0.983992 0.175425
Si Si4 0.603544 0.624262 0.896687
Si Si5 0.646063 0.130601 0.676484
Si Si6 0.680321 0.310254 0.274396
Si Si7 0.400387 0.589960 0.109046
O O1 0.893654 0.005842 0.704848
O O2 0.842904 0.923043 0.623027
O O3 0.883694 0.000000 0.500000
O O4 0.750000 0.000000 0.612252
O O5 0.127089 0.250000 0.496507
O O6 0.250000 0.314224 0.500000
O O7 0.105469 0.336940 0.413687
O O8 0.125324 0.322803 0.623846
O O9 0.861943 0.034006 0.123058
O O10 0.000000 0.981965 0.146638
O O11 0.865706 0.929547 0.147703
O O12 0.500000 0.627404 0.890688
O O13 0.639794 0.668329 0.827664
O O14 0.632406 0.621758 0.014102
O O15 0.731349 0.160252 0.708610
O O16 0.603203 0.117895 0.783620
O O17 0.692235 0.250000 0.273303
O O18 0.500000 0.581613 0.085632
#
# Coordination Sequence:
#
# PCOD9501684 Si02
#       7
#    16  16  16  16  16  16  16
#     4  10  21  29  45  77 112 143 167 213 264 319
#     4   8  16  31  53  75  95 129 173 215 257 308
#     4   9  18  34  54  76 103 140 182 214 253 318
#     4  10  20  35  57  77 104 142 179 221 270 315
#     4  10  19  33  55  75 106 141 174 218 265 319
#     4  10  21  36  57  80 105 137 182 229 265 315
#     4   9  19  36  54  79 108 140 177 215 263 319
#
# _framework density 20.305029000000001
#
# number of rings (size 3 to 8) (size 9 to 14) (size 15 to 20)
#    0.000    2.571    0.000    2.571    8.000    2.857 
#    0.000    2.857    0.000    6.857    0.000    0.000 
#    0.000    0.000    0.000    0.000    0.000    0.000 
#
# Total GULP energy -312050.141763 kJ/mol
# GULP energy per Si atom -5572.323960 kJ/mol
# Density = 2.025881 g / cm^3
# Si number density = 20.305029 Si / 1000 Ang^3
#
#
#
# Elastic Constant Matrix: (Units=GPa)
#
#
# Indices 1 2 3 4 5 6 
#
# 1 22.8244 15.3311 11.1507 0.0000 0.0000 0.0000
# 2 15.3311 85.9070 72.6877 0.0000 0.0000 0.0000
# 3 11.1507 72.6877 149.5762 0.0000 0.0000 0.0000
# 4 0.0000 0.0000 0.0000 35.0564 0.0000 0.0000
# 5 0.0000 0.0000 0.0000 0.0000 11.2483 0.0000
# 6 0.0000 0.0000 0.0000 0.0000 0.0000 10.6700
#
#
#
# Elastic Compliance Matrix: (Units=1/GPa)
#
#
# Indices 1 2 3 4 5 6 
#
# 1 0.049873 -0.009773 0.001031 0.000000 0.000000 0.000000
# 2 -0.009773 0.021684 -0.009809 0.000000 0.000000 0.000000
# 3 0.001031 -0.009809 0.011375 0.000000 0.000000 0.000000
# 4 0.000000 0.000000 0.000000 0.028525 0.000000 0.000000
# 5 0.000000 0.000000 0.000000 0.000000 0.088902 0.000000
# 6 0.000000 0.000000 0.000000 0.000000 0.000000 0.093721
#
#
# Mechanical properties :
#
#
# Convention : Reuss Voigt Hill
#
# Bulk Modulus (GPa) = 21.81908 50.73852 36.27880
# Shear Modulus (GPa) = 14.43165 22.00414 18.21789
#
# Velocity S-wave (km/s) = 2.66887 3.29550 2.99860
# Velocity P-wave (km/s) = 4.50179 6.28672 5.46758
#
# Compressibility (1/GPa) = 0.04583144
#
# Stress axis : x y z
#
# Youngs Moduli (GPa) = 20.05077 46.11647 87.90861
#
# Poissons Ratio (x) = 0.45070 -0.09066
# Poissons Ratio (y) = 0.19596 0.86230
# Poissons Ratio (z) = -0.02068 0.45236
#
# Static dielectric constant tensor:
#      x y z
#    x 1.755220 0.000000 0.000000 
#    y 0.000000 1.632460 0.000000 
#    z 0.000000 0.000000 1.769720 
# 
# From -- ./inp_files/21216.got.cif
#   From: 2010.05.17/outbox.cif.g08.bks.cpg/sg67_11_cif.got.tgz:21216.got - 2010.06.03 18:28:57.
