data_PCOD9501574
_publ_section_title
;
Structure prediction by ZEFSAII (Michael W. Deem and Ramdas Pophale) SiO2 
 PCOD9501574
Probable space group: C M M A
;
_chemical_formula_sum "Si O2"
_cell_formula_units_Z 104
_cell_length_a 9.817852
_cell_length_b 27.032492
_cell_length_c 24.197027
_cell_angle_alpha 90.000000
_cell_angle_beta 90.000000
_cell_angle_gamma 90.000000
_cell_volume 6421.915299
_symmetry_space_group_name_H-M "C M M A"
_symmetry_group_IT_number 67
_symmetry_cell_setting 'orthorhombic'
loop_
_space_group_symop_operation_xyz
x,y,z
-x,1/2-y,z
x,-y,-z
-x,1/2+y,-z
-x,-y,-z
x,1/2+y,-z
-x,y,z
x,1/2-y,z
1/2+x,1/2+y,z
1/2-x,-y,z
1/2+x,1/2-y,-z
1/2-x,y,-z
1/2-x,1/2-y,-z
1/2+x,y,-z
1/2-x,1/2+y,z
1/2+x,-y,z
loop_
_atom_site_type_symbol
_atom_site_label
_atom_site_fract_x
_atom_site_fract_y
_atom_site_fract_z
Si Si1 0.158292 0.545633 0.227633
Si Si2 0.339930 0.191553 0.052502
Si Si3 0.159951 0.250000 0.554407
Si Si4 0.340299 0.546560 0.640563
Si Si5 0.838544 0.656136 0.366448
Si Si6 0.660688 0.348636 0.172461
Si Si7 0.156452 0.691866 0.733823
O O1 0.250000 0.500000 0.209589
O O2 0.183089 0.554146 0.293260
O O3 0.182146 0.595330 0.193131
O O4 0.000000 0.532466 0.222140
O O5 0.500000 0.186412 0.039395
O O6 0.314654 0.250000 0.063972
O O7 0.312032 0.161114 0.108151
O O8 0.250000 0.177059 0.000000
O O9 0.250000 0.250000 0.500000
O O10 0.185297 0.200484 0.590489
O O11 0.000000 0.250000 0.540072
O O12 0.500000 0.535195 0.633151
O O13 0.250000 0.500000 0.622711
O O14 0.311876 0.600046 0.613468
O O15 0.743036 0.666059 0.314157
O O16 0.000000 0.657818 0.350559
O O17 0.500000 0.336377 0.182435
O O18 0.761373 0.316477 0.209751
O O19 0.153457 0.750000 0.721305
O O20 0.000000 0.673965 0.737035
#
# Coordination Sequence:
#
# PCOD9501574 Si02
#       7
#    16  16   8  16  16  16  16
#     4   9  17  29  46  69  98 129 162 204 246 298
#     4   9  18  32  50  70  92 123 163 206 250 298
#     4  10  22  38  60  82 106 142 181 220 257 302
#     4   9  17  30  49  75 104 135 173 211 253 306
#     4  10  19  35  56  76 102 142 180 208 250 311
#     4  10  19  33  51  70  95 133 173 203 245 311
#     4  11  22  31  44  74 109 135 161 206 260 302
#
# _framework density 16.194545999999999
#
# number of rings (size 3 to 8) (size 9 to 14) (size 15 to 20)
#    0.000    2.308    2.308    0.923    0.000    4.000 
#    0.000    1.538    0.000    0.923    0.000    6.462 
#    0.000    0.000    0.000    0.000    0.000    0.000 
#
# Total GULP energy -289831.821713 kJ/mol
# GULP energy per Si atom -5573.688879 kJ/mol
# Density = 1.615769 g / cm^3
# Si number density = 16.194546 Si / 1000 Ang^3
#
#
#
# Elastic Constant Matrix: (Units=GPa)
#
#
# Indices 1 2 3 4 5 6 
#
# 1 63.0645 54.8496 42.3646 0.0000 0.0000 0.0000
# 2 54.8496 107.3604 29.7306 0.0000 0.0000 0.0000
# 3 42.3646 29.7306 52.0506 0.0000 0.0000 0.0000
# 4 0.0000 0.0000 0.0000 7.3103 0.0000 0.0000
# 5 0.0000 0.0000 0.0000 0.0000 25.8384 0.0000
# 6 0.0000 0.0000 0.0000 0.0000 0.0000 25.5767
#
#
#
# Elastic Compliance Matrix: (Units=1/GPa)
#
#
# Indices 1 2 3 4 5 6 
#
# 1 0.054981 -0.018647 -0.034099 0.000000 0.000000 0.000000
# 2 -0.018647 0.017388 0.005245 0.000000 0.000000 0.000000
# 3 -0.034099 0.005245 0.043970 0.000000 0.000000 0.000000
# 4 0.000000 0.000000 0.000000 0.136792 0.000000 0.000000
# 5 0.000000 0.000000 0.000000 0.000000 0.038702 0.000000
# 6 0.000000 0.000000 0.000000 0.000000 0.000000 0.039098
#
#
# Mechanical properties :
#
#
# Convention : Reuss Voigt Hill
#
# Bulk Modulus (GPa) = 46.86579 52.92945 49.89762
# Shear Modulus (GPa) = 11.54609 18.11380 14.82994
#
# Velocity S-wave (km/s) = 2.67303 3.34804 3.02940
# Velocity P-wave (km/s) = 6.20716 6.90654 6.56617
#
# Compressibility (1/GPa) = 0.02133752
#
# Stress axis : x y z
#
# Youngs Moduli (GPa) = 18.18804 57.50936 22.74270
#
# Poissons Ratio (x) = 1.07235 0.77551
# Poissons Ratio (y) = 0.33915 -0.11928
# Poissons Ratio (z) = 0.62020 -0.30162
#
# Static dielectric constant tensor:
#      x y z
#    x 1.544030 0.000000 0.000000 
#    y 0.000000 1.557360 0.000000 
#    z 0.000000 0.000000 1.517660 
# 
# From -- ./inp_files/40209.got.cif
#   From: 2010.05.17/outbox.cif.g08.bks.cpg/sg67_21_cif.got.tgz:40209.got - 2010.06.03 18:28:57.
