data_PCOD9501254
_publ_section_title
;
Structure prediction by ZEFSAII (Michael W. Deem and Ramdas Pophale) SiO2 
 PCOD9501254
Probable space group: C M M A
;
_chemical_formula_sum "Si O2"
_cell_formula_units_Z 84
_cell_length_a 31.785732
_cell_length_b 14.788930
_cell_length_c 8.238655
_cell_angle_alpha 90.000000
_cell_angle_beta 90.000000
_cell_angle_gamma 90.000000
_cell_volume 3872.801943
_symmetry_space_group_name_H-M "C M M A"
_symmetry_group_IT_number 67
_symmetry_cell_setting 'orthorhombic'
loop_
_space_group_symop_operation_xyz
x,y,z
-x,1/2-y,z
x,-y,-z
-x,1/2+y,-z
-x,-y,-z
x,1/2+y,-z
-x,y,z
x,1/2-y,z
1/2+x,1/2+y,z
1/2-x,-y,z
1/2+x,1/2-y,-z
1/2-x,y,-z
1/2-x,1/2-y,-z
1/2+x,y,-z
1/2-x,1/2+y,z
1/2+x,-y,z
loop_
_atom_site_type_symbol
_atom_site_label
_atom_site_fract_x
_atom_site_fract_y
_atom_site_fract_z
Si Si1 0.826266 0.096444 0.154601
Si Si2 0.046984 0.140568 0.346148
Si Si3 0.750000 0.500000 0.000000
Si Si4 0.453885 0.359204 0.035231
Si Si5 0.638071 0.104681 0.519505
Si Si6 0.366302 0.897199 0.833047
O O1 0.836397 0.142342 0.325981
O O2 0.851365 0.001125 0.167442
O O3 0.845089 0.143784 0.994523
O O4 0.779373 0.063905 0.111048
O O5 0.047441 0.250000 0.356577
O O6 0.051484 0.117562 0.154875
O O7 0.088352 0.108141 0.439047
O O8 0.000000 0.111000 0.399865
O O9 0.500000 0.390246 0.088658
O O10 0.452891 0.250000 0.044860
O O11 0.415990 0.395236 0.140620
O O12 0.644888 0.144621 0.340559
O O13 0.650912 0.000000 0.500000
#
# Coordination Sequence:
#
# PCOD9501254 Si02
#       6
#    16  16   4  16  16  16
#     4   9  18  34  49  74  99 120 153 200 245 306
#     4   9  18  32  48  68  99 138 175 212 246 279
#     4   8  16  32  58  72  96 130 152 188 254 306
#     4   9  17  30  48  69  95 132 176 211 238 275
#     4  10  19  31  50  72 102 131 165 203 247 293
#     4   9  17  30  48  68  95 129 157 196 242 285
#
# _framework density 21.689722
#
# number of rings (size 3 to 8) (size 9 to 14) (size 15 to 20)
#    0.000    3.048    1.905    1.143    0.000    1.905 
#    0.000   18.571    0.000    0.000    0.000   16.667 
#    0.000   19.810    0.000    0.000    0.000    0.000 
#
# Total GULP energy -234188.295188 kJ/mol
# GULP energy per Si atom -5575.911790 kJ/mol
# Density = 2.164036 g / cm^3
# Si number density = 21.689722 Si / 1000 Ang^3
#
#
#
# Elastic Constant Matrix: (Units=GPa)
#
#
# Indices 1 2 3 4 5 6 
#
# 1 123.1427 9.6495 66.3546 0.0000 0.0000 0.0000
# 2 9.6495 56.4174 10.4936 0.0000 0.0000 0.0000
# 3 66.3546 10.4936 196.2280 0.0000 0.0000 0.0000
# 4 0.0000 0.0000 0.0000 -10.5274 0.0000 0.0000
# 5 0.0000 0.0000 0.0000 0.0000 -12.9011 0.0000
# 6 0.0000 0.0000 0.0000 0.0000 0.0000 63.9685
#
#
#
# Elastic Compliance Matrix: (Units=1/GPa)
#
#
# Indices 1 2 3 4 5 6 
#
# 1 0.009996 -0.001092 -0.003322 0.000000 0.000000 0.000000
# 2 -0.001092 0.018022 -0.000595 0.000000 0.000000 0.000000
# 3 -0.003322 -0.000595 0.006251 0.000000 0.000000 0.000000
# 4 0.000000 0.000000 0.000000 -0.094990 0.000000 0.000000
# 5 0.000000 0.000000 0.000000 0.000000 -0.077513 0.000000
# 6 0.000000 0.000000 0.000000 0.000000 0.000000 0.015633
#
#
# Mechanical properties :
#
#
# Convention : Reuss Voigt Hill
#
# Bulk Modulus (GPa) = 41.23163 60.97594 51.10378
# Shear Modulus (GPa) = -47.84697 27.39403 -10.22647
#
# Velocity S-wave (km/s) = -4.70188 3.55772 -2.17374
# Velocity P-wave (km/s) = 3.22890 6.71196 4.16080
#
# Compressibility (1/GPa) = 0.02425323
#
# Stress axis : x y z
#
# Youngs Moduli (GPa) = 100.03850 55.48661 159.96975
#
# Poissons Ratio (x) = 0.06058 0.53139
# Poissons Ratio (y) = 0.10923 0.09511
# Poissons Ratio (z) = 0.33231 0.03299
#
# Static dielectric constant tensor:
#      x y z
#    x 1.768090 0.000000 0.000000 
#    y 0.000000 1.796850 0.000000 
#    z 0.000000 0.000000 1.900900 
# 
# From -- ./inp_files/13648.got.cif
#   From: 2010.05.17/outbox.cif.g08.bks.cpg/sg67_7_cif.got.tgz:13648.got - 2010.06.03 18:28:57.
