data_PCOD9501035
_publ_section_title
;
Structure prediction by ZEFSAII (Michael W. Deem and Ramdas Pophale) SiO2 
 PCOD9501035
Probable space group: C M M A
;
_chemical_formula_sum "Si O2"
_cell_formula_units_Z 72
_cell_length_a 9.047468
_cell_length_b 25.946958
_cell_length_c 20.103009
_cell_angle_alpha 90.000000
_cell_angle_beta 90.000000
_cell_angle_gamma 90.000000
_cell_volume 4719.267247
_symmetry_space_group_name_H-M "C M M A"
_symmetry_group_IT_number 67
_symmetry_cell_setting 'orthorhombic'
loop_
_space_group_symop_operation_xyz
x,y,z
-x,1/2-y,z
x,-y,-z
-x,1/2+y,-z
-x,-y,-z
x,1/2+y,-z
-x,y,z
x,1/2-y,z
1/2+x,1/2+y,z
1/2-x,-y,z
1/2+x,1/2-y,-z
1/2-x,y,-z
1/2-x,1/2-y,-z
1/2+x,y,-z
1/2-x,1/2+y,z
1/2+x,-y,z
loop_
_atom_site_type_symbol
_atom_site_label
_atom_site_fract_x
_atom_site_fract_y
_atom_site_fract_z
Si Si1 0.322249 0.250000 0.927766
Si Si2 0.676800 0.347954 0.837326
Si Si3 0.676211 0.688990 0.705030
Si Si4 0.329590 0.687281 0.432460
Si Si5 0.822455 0.945256 0.929130
O O1 0.500000 0.250000 0.935161
O O2 0.280389 0.199417 0.885633
O O3 0.250000 0.250000 0.000000
O O4 0.500000 0.344279 0.826461
O O5 0.758135 0.341115 0.767554
O O6 0.707836 0.401142 0.875263
O O7 0.500000 0.684325 0.702086
O O8 0.712301 0.750000 0.714265
O O9 0.746598 0.672094 0.635028
O O10 0.500000 0.671153 0.431214
O O11 0.326970 0.750000 0.433655
O O12 0.250000 0.669777 0.500000
O O13 0.000000 0.950338 0.936697
O O14 0.750000 0.000000 0.910794
O O15 0.750000 0.930534 0.000000
#
# Coordination Sequence:
#
# PCOD9501035 Si02
#       5
#     8  16  16  16  16
#     4  10  20  32  46  64  89 118 151 188 226 274
#     4  10  20  33  48  66  91 123 155 189 233 281
#     4  10  19  29  43  65  92 123 157 191 230 276
#     4   9  16  26  41  60  86 121 158 194 227 266
#     4  10  20  34  52  71  90 117 153 195 241 285
#
# _framework density 15.256606
#
# number of rings (size 3 to 8) (size 9 to 14) (size 15 to 20)
#    0.000    2.222    1.111    3.333    0.000    6.222 
#    0.000    0.000    0.000    0.000    0.000    0.000 
#    0.000    0.889    0.000    9.333    0.000    5.556 
#
# Total GULP energy -200812.397574 kJ/mol
# GULP energy per Si atom -5578.122155 kJ/mol
# Density = 1.522188 g / cm^3
# Si number density = 15.256606 Si / 1000 Ang^3
#
#
#
# Elastic Constant Matrix: (Units=GPa)
#
#
# Indices 1 2 3 4 5 6 
#
# 1 77.5645 45.3043 78.6238 0.0000 0.0000 0.0000
# 2 45.3043 59.6059 65.1444 0.0000 0.0000 0.0000
# 3 78.6238 65.1444 167.0123 0.0000 0.0000 0.0000
# 4 0.0000 0.0000 0.0000 14.8874 0.0000 0.0000
# 5 0.0000 0.0000 0.0000 0.0000 35.4810 0.0000
# 6 0.0000 0.0000 0.0000 0.0000 0.0000 17.1044
#
#
#
# Elastic Compliance Matrix: (Units=1/GPa)
#
#
# Indices 1 2 3 4 5 6 
#
# 1 0.029166 -0.012484 -0.008861 0.000000 0.000000 0.000000
# 2 -0.012484 0.034587 -0.007614 0.000000 0.000000 0.000000
# 3 -0.008861 -0.007614 0.013129 0.000000 0.000000 0.000000
# 4 0.000000 0.000000 0.000000 0.067171 0.000000 0.000000
# 5 0.000000 0.000000 0.000000 0.000000 0.028184 0.000000
# 6 0.000000 0.000000 0.000000 0.000000 0.000000 0.058464
#
#
# Mechanical properties :
#
#
# Convention : Reuss Voigt Hill
#
# Bulk Modulus (GPa) = 52.73038 75.81419 64.27229
# Shear Modulus (GPa) = 16.95260 21.16857 19.06058
#
# Velocity S-wave (km/s) = 3.33703 3.72896 3.53843
# Velocity P-wave (km/s) = 7.03456 8.26685 7.67547
#
# Compressibility (1/GPa) = 0.01896440
#
# Stress axis : x y z
#
# Youngs Moduli (GPa) = 34.28629 28.91286 76.16772
#
# Poissons Ratio (x) = 0.36094 0.67493
# Poissons Ratio (y) = 0.42802 0.57993
# Poissons Ratio (z) = 0.30381 0.22014
#
# Static dielectric constant tensor:
#      x y z
#    x 1.511050 0.000000 0.000000 
#    y 0.000000 1.488450 0.000000 
#    z 0.000000 0.000000 1.488840 
# 
# From -- ./inp_files/31934.got.cif
#   From: 2010.05.17/outbox.cif.g08.bks.cpg/sg67_16_cif.got.tgz:31934.got - 2010.06.03 18:28:57.
