data_PCOD9501719
_publ_section_title
;
Structure prediction by ZEFSAII (Michael W. Deem and Ramdas Pophale) SiO2 
 PCOD9501719
Probable space group: C M M A
;
_chemical_formula_sum "Si O2"
_cell_formula_units_Z 80
_cell_length_a 13.518768
_cell_length_b 21.154993
_cell_length_c 11.253052
_cell_angle_alpha 90.000000
_cell_angle_beta 90.000000
_cell_angle_gamma 90.000000
_cell_volume 3218.254067
_symmetry_space_group_name_H-M "C M M A"
_symmetry_group_IT_number 67
_symmetry_cell_setting 'orthorhombic'
loop_
_space_group_symop_operation_xyz
x,y,z
-x,1/2-y,z
x,-y,-z
-x,1/2+y,-z
-x,-y,-z
x,1/2+y,-z
-x,y,z
x,1/2-y,z
1/2+x,1/2+y,z
1/2-x,-y,z
1/2+x,1/2-y,-z
1/2-x,y,-z
1/2-x,1/2-y,-z
1/2+x,y,-z
1/2-x,1/2+y,z
1/2+x,-y,z
loop_
_atom_site_type_symbol
_atom_site_label
_atom_site_fract_x
_atom_site_fract_y
_atom_site_fract_z
Si Si1 0.182153 0.678365 0.813576
Si Si2 0.617842 0.641746 0.700383
Si Si3 0.851230 0.441801 0.070236
Si Si4 0.382223 0.008205 0.672467
Si Si5 0.118192 0.633627 0.556241
O O1 0.170890 0.750000 0.851073
O O2 0.300312 0.662731 0.796237
O O3 0.123367 0.630951 0.901697
O O4 0.141809 0.667932 0.679406
O O5 0.500000 0.654420 0.725697
O O6 0.630240 0.566564 0.679345
O O7 0.649018 0.665510 0.568103
O O8 0.842241 0.466187 0.203603
O O9 0.902185 0.500000 0.000000
O O10 0.750000 0.435668 0.000000
O O11 0.500000 0.016341 0.672461
O O12 0.347471 0.060061 0.575865
O O13 0.000000 0.630878 0.542680
#
# Coordination Sequence:
#
# PCOD9501719 Si02
#       5
#    16  16  16  16  16
#     4  11  24  39  55  80 115 152 190 234 284 339
#     4  10  19  33  56  85 118 155 190 227 274 331
#     4  10  20  37  59  80 105 138 187 241 290 339
#     4   9  18  34  57  86 116 143 182 240 294 336
#     4   9  19  35  57  85 116 151 190 231 277 333
#
# _framework density 24.858201000000001
#
# number of rings (size 3 to 8) (size 9 to 14) (size 15 to 20)
#    0.000    2.200    0.000    3.600    0.000    8.000 
#    0.000    7.000    0.000    0.600    0.000    8.400 
#    0.000    0.000    0.000    0.000    0.000    0.000 
#
# Total GULP energy -222948.774717 kJ/mol
# GULP energy per Si atom -5573.719368 kJ/mol
# Density = 2.480162 g / cm^3
# Si number density = 24.858201 Si / 1000 Ang^3
#
#
#
# Elastic Constant Matrix: (Units=GPa)
#
#
# Indices 1 2 3 4 5 6 
#
# 1 98.1098 17.9745 8.2699 0.0000 0.0000 0.0000
# 2 17.9745 158.9590 40.3395 0.0000 0.0000 0.0000
# 3 8.2699 40.3395 51.1772 0.0000 0.0000 0.0000
# 4 0.0000 0.0000 0.0000 13.3685 0.0000 0.0000
# 5 0.0000 0.0000 0.0000 0.0000 32.1411 0.0000
# 6 0.0000 0.0000 0.0000 0.0000 0.0000 20.3846
#
#
#
# Elastic Compliance Matrix: (Units=1/GPa)
#
#
# Indices 1 2 3 4 5 6 
#
# 1 0.010445 -0.000941 -0.000946 0.000000 0.000000 0.000000
# 2 -0.000941 0.007949 -0.006113 0.000000 0.000000 0.000000
# 3 -0.000946 -0.006113 0.024512 0.000000 0.000000 0.000000
# 4 0.000000 0.000000 0.000000 0.074803 0.000000 0.000000
# 5 0.000000 0.000000 0.000000 0.000000 0.031113 0.000000
# 6 0.000000 0.000000 0.000000 0.000000 0.000000 0.049057
#
#
# Mechanical properties :
#
#
# Convention : Reuss Voigt Hill
#
# Bulk Modulus (GPa) = 37.16891 49.04598 43.10745
# Shear Modulus (GPa) = 22.43695 29.28963 25.86329
#
# Velocity S-wave (km/s) = 3.00759 3.43632 3.22907
# Velocity P-wave (km/s) = 5.20054 5.95965 5.59299
#
# Compressibility (1/GPa) = 0.02690420
#
# Stress axis : x y z
#
# Youngs Moduli (GPa) = 95.74143 125.80596 40.79696
#
# Poissons Ratio (x) = 0.11838 0.03860
# Poissons Ratio (y) = 0.09009 0.24941
# Poissons Ratio (z) = 0.09058 0.76910
#
# Static dielectric constant tensor:
#      x y z
#    x 2.072370 0.000000 0.000000 
#    y 0.000000 2.014910 0.000000 
#    z 0.000000 0.000000 1.970430 
# 
# From -- ./inp_files/17922.got.cif
#   From: 2010.05.17/outbox.cif.g08.bks.cpg/sg67_9_cif.got.tgz:17922.got - 2010.06.03 18:28:57.
