data_PCOD9501158
_publ_section_title
;
Structure prediction by ZEFSAII (Michael W. Deem and Ramdas Pophale) SiO2 
 PCOD9501158
Probable space group: C M M A
;
_chemical_formula_sum "Si O2"
_cell_formula_units_Z 128
_cell_length_a 19.621615
_cell_length_b 20.267179
_cell_length_c 17.430719
_cell_angle_alpha 90.000000
_cell_angle_beta 90.000000
_cell_angle_gamma 90.000000
_cell_volume 6931.757404
_symmetry_space_group_name_H-M "C M M A"
_symmetry_group_IT_number 67
_symmetry_cell_setting 'orthorhombic'
loop_
_space_group_symop_operation_xyz
x,y,z
-x,1/2-y,z
x,-y,-z
-x,1/2+y,-z
-x,-y,-z
x,1/2+y,-z
-x,y,z
x,1/2-y,z
1/2+x,1/2+y,z
1/2-x,-y,z
1/2+x,1/2-y,-z
1/2-x,y,-z
1/2-x,1/2-y,-z
1/2+x,y,-z
1/2-x,1/2+y,z
1/2+x,-y,z
loop_
_atom_site_type_symbol
_atom_site_label
_atom_site_fract_x
_atom_site_fract_y
_atom_site_fract_z
Si Si1 0.183327 0.326011 0.868988
Si Si2 0.076784 0.991941 0.219712
Si Si3 0.076312 0.128103 0.304691
Si Si4 0.221538 0.827343 0.729137
Si Si5 0.576798 0.330211 0.519683
Si Si6 0.578236 0.844177 0.738288
Si Si7 0.175134 0.531585 0.077857
Si Si8 0.318605 0.323914 0.396332
O O1 0.196351 0.250000 0.895567
O O2 0.240734 0.348588 0.806732
O O3 0.114508 0.324642 0.817808
O O4 0.178366 0.388193 0.926070
O O5 0.084381 0.053082 0.276763
O O6 0.000000 0.995090 0.186975
O O7 0.082144 0.923381 0.264614
O O8 0.130622 0.988775 0.151226
O O9 0.141205 0.164144 0.269063
O O10 0.080517 0.139485 0.395702
O O11 0.000000 0.150567 0.281323
O O12 0.237891 0.750000 0.724757
O O13 0.256387 0.856318 0.651487
O O14 0.500000 0.344546 0.488408
O O15 0.581230 0.250000 0.525593
O O16 0.640141 0.353698 0.467767
O O17 0.500000 0.824304 0.734980
O O18 0.622993 0.818586 0.668585
O O19 0.250000 0.500000 0.086714
O O20 0.146247 0.500000 0.000000
O O21 0.296850 0.250000 0.420546
#
# Coordination Sequence:
#
# PCOD9501158 Si02
#       8
#    16  16  16  16  16  16  16  16
#     4   9  18  32  51  77 106 130 157 200 249 294
#     4   9  19  34  51  72  97 127 163 200 238 286
#     4  10  19  31  46  64  91 128 168 206 242 284
#     4   9  17  29  47  71  95 123 160 202 252 300
#     4   9  17  28  43  65  92 125 166 209 251 293
#     4   9  16  28  48  73  98 125 160 198 242 297
#     4  10  20  35  56  80 103 131 165 196 239 300
#     4   9  17  28  43  66  96 125 155 199 253 301
#
# _framework density 18.465736
#
# number of rings (size 3 to 8) (size 9 to 14) (size 15 to 20)
#    0.000    2.750    0.000    2.625    0.000    3.000 
#    0.000    3.750    0.000    4.500    0.000    5.250 
#    0.000    0.000    0.000    0.000    0.000    0.000 
#
# Total GULP energy -356278.701734 kJ/mol
# GULP energy per Si atom -5566.854715 kJ/mol
# Density = 1.842371 g / cm^3
# Si number density = 18.465736 Si / 1000 Ang^3
#
#
#
# Elastic Constant Matrix: (Units=GPa)
#
#
# Indices 1 2 3 4 5 6 
#
# 1 84.5194 12.6846 18.9772 0.0000 0.0000 0.0000
# 2 12.6846 58.0937 33.3483 0.0000 0.0000 0.0000
# 3 18.9772 33.3483 47.8978 0.0000 0.0000 0.0000
# 4 0.0000 0.0000 0.0000 22.9218 0.0000 0.0000
# 5 0.0000 0.0000 0.0000 0.0000 17.3376 0.0000
# 6 0.0000 0.0000 0.0000 0.0000 0.0000 15.3935
#
#
#
# Elastic Compliance Matrix: (Units=1/GPa)
#
#
# Indices 1 2 3 4 5 6 
#
# 1 0.012988 0.000197 -0.005283 0.000000 0.000000 0.000000
# 2 0.000197 0.028677 -0.020044 0.000000 0.000000 0.000000
# 3 -0.005283 -0.020044 0.036926 0.000000 0.000000 0.000000
# 4 0.000000 0.000000 0.000000 0.043627 0.000000 0.000000
# 5 0.000000 0.000000 0.000000 0.000000 0.057678 0.000000
# 6 0.000000 0.000000 0.000000 0.000000 0.000000 0.064962
#
#
# Mechanical properties :
#
#
# Convention : Reuss Voigt Hill
#
# Bulk Modulus (GPa) = 35.29690 35.61456 35.45573
# Shear Modulus (GPa) = 16.41703 19.49729 17.95716
#
# Velocity S-wave (km/s) = 2.98493 3.25293 3.12181
# Velocity P-wave (km/s) = 5.57100 5.78251 5.67774
#
# Compressibility (1/GPa) = 0.02833110
#
# Stress axis : x y z
#
# Youngs Moduli (GPa) = 76.99260 34.87162 27.08109
#
# Poissons Ratio (x) = -0.00686 0.14307
# Poissons Ratio (y) = -0.01514 0.54281
# Poissons Ratio (z) = 0.40674 0.69896
#
# Static dielectric constant tensor:
#      x y z
#    x 1.668980 0.000000 0.000000 
#    y 0.000000 1.655800 0.000000 
#    z 0.000000 0.000000 1.644070 
# 
# From -- ./inp_files/35248.got.cif
#   From: 2010.05.17/outbox.cif.g08.bks.cpg/sg67_18_cif.got.tgz:35248.got - 2010.06.03 18:28:57.
