data_PCOD9501390
_publ_section_title
;
Structure prediction by ZEFSAII (Michael W. Deem and Ramdas Pophale) SiO2 
 PCOD9501390
Probable space group: C M M A
;
_chemical_formula_sum "Si O2"
_cell_formula_units_Z 112
_cell_length_a 30.067607
_cell_length_b 13.163305
_cell_length_c 12.103495
_cell_angle_alpha 90.000000
_cell_angle_beta 90.000000
_cell_angle_gamma 90.000000
_cell_volume 4790.431170
_symmetry_space_group_name_H-M "C M M A"
_symmetry_group_IT_number 67
_symmetry_cell_setting 'orthorhombic'
loop_
_space_group_symop_operation_xyz
x,y,z
-x,1/2-y,z
x,-y,-z
-x,1/2+y,-z
-x,-y,-z
x,1/2+y,-z
-x,y,z
x,1/2-y,z
1/2+x,1/2+y,z
1/2-x,-y,z
1/2+x,1/2-y,-z
1/2-x,y,-z
1/2-x,1/2-y,-z
1/2+x,y,-z
1/2-x,1/2+y,z
1/2+x,-y,z
loop_
_atom_site_type_symbol
_atom_site_label
_atom_site_fract_x
_atom_site_fract_y
_atom_site_fract_z
Si Si1 0.787904 0.370860 0.915207
Si Si2 0.547995 0.866159 0.133692
Si Si3 0.080399 0.413562 0.368771
Si Si4 0.778210 0.866284 0.339724
Si Si5 0.947999 0.635763 0.388348
Si Si6 0.820401 0.431071 0.337314
Si Si7 0.144954 0.125788 0.095418
O O1 0.786665 0.250000 0.911607
O O2 0.778888 0.397017 0.790018
O O3 0.750000 0.401062 0.000000
O O4 0.832924 0.396687 0.977847
O O5 0.500000 0.914268 0.110536
O O6 0.546525 0.750000 0.092609
O O7 0.556514 0.863735 0.265094
O O8 0.594335 0.911129 0.093420
O O9 0.056290 0.379960 0.479888
O O10 0.077032 0.535362 0.345803
O O11 0.132679 0.389212 0.380873
O O12 0.792253 0.750000 0.356601
O O13 0.726052 0.877189 0.370617
O O14 0.811316 0.953914 0.380778
O O15 0.932249 0.750000 0.358858
O O16 0.000000 0.628069 0.357203
O O17 0.829130 0.416837 0.203668
O O18 0.145856 0.250000 0.110314
#
# Coordination Sequence:
#
# PCOD9501390 Si02
#       7
#    16  16  16  16  16  16  16
#     4   9  15  26  45  66  94 129 162 210 262 294
#     4   9  16  26  44  71 102 135 167 202 247 297
#     4  10  19  32  50  74 106 131 160 202 241 294
#     4  10  20  33  47  67  98 129 166 211 252 296
#     4  10  20  34  55  82 105 128 158 194 242 291
#     4  10  20  31  47  72  95 132 168 196 250 301
#     4   9  16  27  43  68  99 129 168 210 251 303
#
# _framework density 23.379943000000001
#
# number of rings (size 3 to 8) (size 9 to 14) (size 15 to 20)
#    0.000    2.429    1.429    2.571    0.000    4.000 
#    0.000    0.000    0.000    6.857    0.000   18.000 
#    0.000    9.143    0.000    0.000    0.000    0.000 
#
# Total GULP energy -312413.058429 kJ/mol
# GULP energy per Si atom -5578.804615 kJ/mol
# Density = 2.332673 g / cm^3
# Si number density = 23.379943 Si / 1000 Ang^3
#
#
#
# Elastic Constant Matrix: (Units=GPa)
#
#
# Indices 1 2 3 4 5 6 
#
# 1 131.9657 5.2079 2.7900 0.0000 0.0000 0.0000
# 2 5.2079 128.8477 -3.8361 0.0000 0.0000 0.0000
# 3 2.7900 -3.8361 31.1871 0.0000 0.0000 0.0000
# 4 0.0000 0.0000 0.0000 16.5629 0.0000 0.0000
# 5 0.0000 0.0000 0.0000 0.0000 33.6855 0.0000
# 6 0.0000 0.0000 0.0000 0.0000 0.0000 20.0442
#
#
#
# Elastic Compliance Matrix: (Units=1/GPa)
#
#
# Indices 1 2 3 4 5 6 
#
# 1 0.007606 -0.000329 -0.000721 0.000000 0.000000 0.000000
# 2 -0.000329 0.007804 0.000989 0.000000 0.000000 0.000000
# 3 -0.000721 0.000989 0.032251 0.000000 0.000000 0.000000
# 4 0.000000 0.000000 0.000000 0.060376 0.000000 0.000000
# 5 0.000000 0.000000 0.000000 0.000000 0.029686 0.000000
# 6 0.000000 0.000000 0.000000 0.000000 0.000000 0.049890
#
#
# Mechanical properties :
#
#
# Convention : Reuss Voigt Hill
#
# Bulk Modulus (GPa) = 21.03509 33.36934 27.20221
# Shear Modulus (GPa) = 24.56039 33.24777 28.90408
#
# Velocity S-wave (km/s) = 3.24464 3.77512 3.51989
# Velocity P-wave (km/s) = 4.80141 5.77110 5.30844
#
# Compressibility (1/GPa) = 0.04753961
#
# Stress axis : x y z
#
# Youngs Moduli (GPa) = 131.47603 128.14190 31.00709
#
# Poissons Ratio (x) = 0.04214 0.02235
# Poissons Ratio (y) = 0.04324 -0.03068
# Poissons Ratio (z) = 0.09478 -0.12677
#
# Static dielectric constant tensor:
#      x y z
#    x 1.892690 0.000000 0.000000 
#    y 0.000000 1.954500 0.000000 
#    z 0.000000 0.000000 2.090530 
# 
# From -- ./inp_files/31234.got.cif
#   From: 2010.05.17/outbox.cif.g08.bks.cpg/sg67_16_cif.got.tgz:31234.got - 2010.06.03 18:28:57.
