data_PCOD9501450
_publ_section_title
;
Structure prediction by ZEFSAII (Michael W. Deem and Ramdas Pophale) SiO2 
 PCOD9501450
Probable space group: C M M A
;
_chemical_formula_sum "Si O2"
_cell_formula_units_Z 104
_cell_length_a 23.456206
_cell_length_b 27.278582
_cell_length_c 7.572741
_cell_angle_alpha 90.000000
_cell_angle_beta 90.000000
_cell_angle_gamma 90.000000
_cell_volume 4845.433768
_symmetry_space_group_name_H-M "C M M A"
_symmetry_group_IT_number 67
_symmetry_cell_setting 'orthorhombic'
loop_
_space_group_symop_operation_xyz
x,y,z
-x,1/2-y,z
x,-y,-z
-x,1/2+y,-z
-x,-y,-z
x,1/2+y,-z
-x,y,z
x,1/2-y,z
1/2+x,1/2+y,z
1/2-x,-y,z
1/2+x,1/2-y,-z
1/2-x,y,-z
1/2-x,1/2-y,-z
1/2+x,y,-z
1/2-x,1/2+y,z
1/2+x,-y,z
loop_
_atom_site_type_symbol
_atom_site_label
_atom_site_fract_x
_atom_site_fract_y
_atom_site_fract_z
Si Si1 0.064933 0.305779 0.878087
Si Si2 0.250000 0.895365 0.500000
Si Si3 0.165437 0.672697 0.910910
Si Si4 0.225769 0.695429 0.279108
Si Si5 0.146083 0.421943 0.282113
Si Si6 0.568213 0.612682 0.602034
Si Si7 0.435665 0.492633 0.286706
O O1 0.067502 0.250000 0.816774
O O2 0.084574 0.340709 0.719211
O O3 0.000000 0.319528 0.916088
O O4 0.101687 0.310036 0.055392
O O5 0.215483 0.855145 0.382984
O O6 0.205120 0.927421 0.609683
O O7 0.205860 0.693802 0.758646
O O8 0.161482 0.614960 0.874793
O O9 0.195689 0.688589 0.091570
O O10 0.210690 0.750000 0.346871
O O11 0.103142 0.395154 0.421667
O O12 0.112925 0.470529 0.222186
O O13 0.500000 0.614269 0.563205
O O14 0.577280 0.564820 0.726363
O O15 0.436939 0.500000 0.500000
O O16 0.500000 0.503443 0.221492
#
# Coordination Sequence:
#
# PCOD9501450 Si02
#       7
#    16   8  16  16  16  16  16
#     4  10  20  34  51  74 107 142 172 209 264 319
#     4  10  21  32  51  80 104 134 177 226 271 322
#     4  10  20  32  50  76 106 139 171 210 264 319
#     4  10  19  35  55  73 100 140 187 228 260 305
#     4  10  19  32  51  78 108 135 170 216 267 318
#     4   9  18  35  58  79 101 137 184 224 256 303
#     4   8  15  31  55  78 100 133 179 224 260 298
#
# _framework density 21.463507
#
# number of rings (size 3 to 8) (size 9 to 14) (size 15 to 20)
#    0.000    2.462    0.000    4.385    0.000    1.231 
#    0.000    8.846    0.000    4.615    0.000   10.769 
#    0.000    0.000    0.000    0.000    0.000    0.000 
#
# Total GULP energy -289828.201484 kJ/mol
# GULP energy per Si atom -5573.619259 kJ/mol
# Density = 2.141465 g / cm^3
# Si number density = 21.463507 Si / 1000 Ang^3
#
#
#
# Elastic Constant Matrix: (Units=GPa)
#
#
# Indices 1 2 3 4 5 6 
#
# 1 81.2332 8.3201 10.5225 0.0000 0.0000 0.0000
# 2 8.3201 58.1160 4.7052 0.0000 0.0000 0.0000
# 3 10.5225 4.7052 25.8090 0.0000 0.0000 0.0000
# 4 0.0000 0.0000 0.0000 21.2872 0.0000 0.0000
# 5 0.0000 0.0000 0.0000 0.0000 18.0147 0.0000
# 6 0.0000 0.0000 0.0000 0.0000 0.0000 19.2844
#
#
#
# Elastic Compliance Matrix: (Units=1/GPa)
#
#
# Indices 1 2 3 4 5 6 
#
# 1 0.013119 -0.001467 -0.005081 0.000000 0.000000 0.000000
# 2 -0.001467 0.017629 -0.002616 0.000000 0.000000 0.000000
# 3 -0.005081 -0.002616 0.041295 0.000000 0.000000 0.000000
# 4 0.000000 0.000000 0.000000 0.046977 0.000000 0.000000
# 5 0.000000 0.000000 0.000000 0.000000 0.055510 0.000000
# 6 0.000000 0.000000 0.000000 0.000000 0.000000 0.051855
#
#
# Mechanical properties :
#
#
# Convention : Reuss Voigt Hill
#
# Bulk Modulus (GPa) = 18.61692 23.58376 21.10034
# Shear Modulus (GPa) = 19.03916 21.15796 20.09856
#
# Velocity S-wave (km/s) = 2.98157 3.14309 3.06340
# Velocity P-wave (km/s) = 4.53272 4.91770 4.72913
#
# Compressibility (1/GPa) = 0.05371456
#
# Stress axis : x y z
#
# Youngs Moduli (GPa) = 76.22733 56.72561 24.21616
#
# Poissons Ratio (x) = 0.08320 0.12305
# Poissons Ratio (y) = 0.11180 0.06335
# Poissons Ratio (z) = 0.38732 0.14839
#
# Static dielectric constant tensor:
#      x y z
#    x 1.854400 0.000000 0.000000 
#    y 0.000000 1.806200 0.000000 
#    z 0.000000 0.000000 1.798260 
# 
# From -- ./inp_files/12839.got.cif
#   From: 2010.05.17/outbox.cif.g08.bks.cpg/sg67_7_cif.got.tgz:12839.got - 2010.06.03 18:28:57.
