data_PCOD9501746
_publ_section_title
;
Structure prediction by ZEFSAII (Michael W. Deem and Ramdas Pophale) SiO2 
 PCOD9501746
Probable space group: C M M A
;
_chemical_formula_sum "Si O2"
_cell_formula_units_Z 68
_cell_length_a 28.498024
_cell_length_b 13.347719
_cell_length_c 9.287461
_cell_angle_alpha 90.000000
_cell_angle_beta 90.000000
_cell_angle_gamma 90.000000
_cell_volume 3532.798002
_symmetry_space_group_name_H-M "C M M A"
_symmetry_group_IT_number 67
_symmetry_cell_setting 'orthorhombic'
loop_
_space_group_symop_operation_xyz
x,y,z
-x,1/2-y,z
x,-y,-z
-x,1/2+y,-z
-x,-y,-z
x,1/2+y,-z
-x,y,z
x,1/2-y,z
1/2+x,1/2+y,z
1/2-x,-y,z
1/2+x,1/2-y,-z
1/2-x,y,-z
1/2-x,1/2-y,-z
1/2+x,y,-z
1/2-x,1/2+y,z
1/2+x,-y,z
loop_
_atom_site_type_symbol
_atom_site_label
_atom_site_fract_x
_atom_site_fract_y
_atom_site_fract_z
Si Si1 0.750000 0.500000 0.500000
Si Si2 0.169802 0.366211 0.384478
Si Si3 0.102057 0.046380 0.149961
Si Si4 0.500000 0.577274 0.132641
Si Si5 0.407945 0.365056 0.369266
Si Si6 0.500000 0.136120 0.564324
O O1 0.784198 0.567715 0.596076
O O2 0.182197 0.250000 0.380220
O O3 0.139610 0.394473 0.244302
O O4 0.136168 0.381705 0.524372
O O5 0.054693 0.112378 0.121632
O O6 0.089832 0.948466 0.246875
O O7 0.119205 0.000000 0.000000
O O8 0.500000 0.559146 0.304729
O O9 0.500000 0.500000 0.000000
O O10 0.405983 0.250000 0.314410
O O11 0.453803 0.372654 0.469261
O O12 0.500000 0.250000 0.627759
#
# Coordination Sequence:
#
# PCOD9501746 Si02
#       6
#     4  16  16   8  16   8
#     4  12  22  44  70  92 120 144 212 280 328 372
#     4  11  23  40  66  93 118 156 204 258 316 373
#     4  11  22  38  59  90 132 169 201 247 307 373
#     4  10  21  33  53  90 127 166 201 237 298 359
#     4  10  20  36  59  89 118 157 206 252 301 362
#     4  10  19  33  60  88 119 160 209 257 299 359
#
# _framework density 19.248200000000001
#
# number of rings (size 3 to 8) (size 9 to 14) (size 15 to 20)
#    0.000    1.412    4.706    1.059    0.000    1.882 
#    0.000    4.118    0.000    1.412    0.000    0.000 
#    0.000    0.000    0.000    0.000    0.000    0.000 
#
# Total GULP energy -189528.283416 kJ/mol
# GULP energy per Si atom -5574.361277 kJ/mol
# Density = 1.920439 g / cm^3
# Si number density = 19.248200 Si / 1000 Ang^3
#
#
#
# Elastic Constant Matrix: (Units=GPa)
#
#
# Indices 1 2 3 4 5 6 
#
# 1 131.3415 47.0055 28.1533 0.0000 0.0000 0.0000
# 2 47.0055 108.0926 37.4880 0.0000 0.0000 0.0000
# 3 28.1533 37.4880 92.8561 0.0000 0.0000 0.0000
# 4 0.0000 0.0000 0.0000 9.7265 0.0000 0.0000
# 5 0.0000 0.0000 0.0000 0.0000 15.2721 0.0000
# 6 0.0000 0.0000 0.0000 0.0000 0.0000 22.4223
#
#
#
# Elastic Compliance Matrix: (Units=1/GPa)
#
#
# Indices 1 2 3 4 5 6 
#
# 1 0.009162 -0.003513 -0.001360 0.000000 0.000000 0.000000
# 2 -0.003513 0.012104 -0.003822 0.000000 0.000000 0.000000
# 3 -0.001360 -0.003822 0.012725 0.000000 0.000000 0.000000
# 4 0.000000 0.000000 0.000000 0.102812 0.000000 0.000000
# 5 0.000000 0.000000 0.000000 0.000000 0.065479 0.000000
# 6 0.000000 0.000000 0.000000 0.000000 0.000000 0.044599
#
#
# Mechanical properties :
#
#
# Convention : Reuss Voigt Hill
#
# Bulk Modulus (GPa) = 60.23128 61.95375 61.09252
# Shear Modulus (GPa) = 18.53202 24.12707 21.32954
#
# Velocity S-wave (km/s) = 3.10626 3.54428 3.33247
# Velocity P-wave (km/s) = 6.65018 7.00042 6.82755
#
# Compressibility (1/GPa) = 0.01660267
#
# Stress axis : x y z
#
# Youngs Moduli (GPa) = 109.14174 82.61499 78.58827
#
# Poissons Ratio (x) = 0.29021 0.10686
# Poissons Ratio (y) = 0.38339 0.30034
# Poissons Ratio (z) = 0.14841 0.31573
#
# Static dielectric constant tensor:
#      x y z
#    x 1.676430 0.000000 0.000000 
#    y 0.000000 1.727550 0.000000 
#    z 0.000000 0.000000 1.644950 
# 
# From -- ./inp_files/13276.got.cif
#   From: 2010.05.17/outbox.cif.g08.bks.cpg/sg67_7_cif.got.tgz:13276.got - 2010.06.03 18:28:57.
