data_PCOD9501603
_publ_section_title
;
Structure prediction by ZEFSAII (Michael W. Deem and Ramdas Pophale) SiO2 
 PCOD9501603
Probable space group: C M M A
;
_chemical_formula_sum "Si O2"
_cell_formula_units_Z 96
_cell_length_a 19.231109
_cell_length_b 19.012602
_cell_length_c 14.858826
_cell_angle_alpha 90.000000
_cell_angle_beta 90.000000
_cell_angle_gamma 90.000000
_cell_volume 5432.883389
_symmetry_space_group_name_H-M "C M M A"
_symmetry_group_IT_number 67
_symmetry_cell_setting 'orthorhombic'
loop_
_space_group_symop_operation_xyz
x,y,z
-x,1/2-y,z
x,-y,-z
-x,1/2+y,-z
-x,-y,-z
x,1/2+y,-z
-x,y,z
x,1/2-y,z
1/2+x,1/2+y,z
1/2-x,-y,z
1/2+x,1/2-y,-z
1/2-x,y,-z
1/2-x,1/2-y,-z
1/2+x,y,-z
1/2-x,1/2+y,z
1/2+x,-y,z
loop_
_atom_site_type_symbol
_atom_site_label
_atom_site_fract_x
_atom_site_fract_y
_atom_site_fract_z
Si Si1 0.418132 0.535405 0.240087
Si Si2 0.821698 0.032127 0.900330
Si Si3 0.334307 0.828583 0.283027
Si Si4 0.680094 0.668464 0.796873
Si Si5 0.829956 0.831761 0.504571
Si Si6 0.916847 0.401808 0.648931
O O1 0.500000 0.545037 0.234625
O O2 0.387434 0.494604 0.154908
O O3 0.379069 0.608932 0.243392
O O4 0.403468 0.483371 0.324594
O O5 0.817818 0.115594 0.882036
O O6 0.750000 0.000000 0.860204
O O7 0.825640 0.000000 0.000000
O O8 0.353539 0.750000 0.251734
O O9 0.253221 0.838480 0.257177
O O10 0.346514 0.831616 0.390050
O O11 0.671275 0.750000 0.821099
O O12 0.619979 0.643051 0.728396
O O13 0.832174 0.750000 0.472077
O O14 0.750000 0.855907 0.500000
O O15 0.880453 0.877597 0.443021
O O16 0.000000 0.390875 0.646783
#
# Coordination Sequence:
#
# PCOD9501603 Si02
#       6
#    16  16  16  16  16  16
#     4  10  22  39  57  80 112 150 188 228 281 340
#     4  10  20  37  61  87 112 140 182 230 280 341
#     4  10  20  35  56  80 109 149 193 234 275 328
#     4  10  19  35  59  85 115 148 186 231 280 335
#     4  10  19  33  52  78 112 148 189 233 275 321
#     4  10  21  35  55  83 115 151 192 237 281 327
#
# _framework density 17.670175
#
# number of rings (size 3 to 8) (size 9 to 14) (size 15 to 20)
#    0.000    2.000    3.333    0.500    0.000    3.333 
#    0.000    6.667    0.000    0.000    0.000    0.000 
#    0.000    0.000    0.000    0.000    0.000    0.000 
#
# Total GULP energy -267579.901964 kJ/mol
# GULP energy per Si atom -5574.581291 kJ/mol
# Density = 1.762996 g / cm^3
# Si number density = 17.670175 Si / 1000 Ang^3
#
#
#
# Elastic Constant Matrix: (Units=GPa)
#
#
# Indices 1 2 3 4 5 6 
#
# 1 88.0153 60.7850 19.8329 0.0000 0.0000 0.0000
# 2 60.7850 140.9367 43.2108 0.0000 0.0000 0.0000
# 3 19.8329 43.2108 63.3702 0.0000 0.0000 0.0000
# 4 0.0000 0.0000 0.0000 103.4775 0.0000 0.0000
# 5 0.0000 0.0000 0.0000 0.0000 21.2129 0.0000
# 6 0.0000 0.0000 0.0000 0.0000 0.0000 14.7931
#
#
#
# Elastic Compliance Matrix: (Units=1/GPa)
#
#
# Indices 1 2 3 4 5 6 
#
# 1 0.016189 -0.006864 -0.000386 0.000000 0.000000 0.000000
# 2 -0.006864 0.011881 -0.005953 0.000000 0.000000 0.000000
# 3 -0.000386 -0.005953 0.019961 0.000000 0.000000 0.000000
# 4 0.000000 0.000000 0.000000 0.009664 0.000000 0.000000
# 5 0.000000 0.000000 0.000000 0.000000 0.047141 0.000000
# 6 0.000000 0.000000 0.000000 0.000000 0.000000 0.067599
#
#
# Mechanical properties :
#
#
# Convention : Reuss Voigt Hill
#
# Bulk Modulus (GPa) = 46.24542 59.99773 53.12157
# Shear Modulus (GPa) = 24.26610 39.12962 31.69786
#
# Velocity S-wave (km/s) = 3.70980 4.71089 4.24000
# Velocity P-wave (km/s) = 6.67671 7.97609 7.35515
#
# Compressibility (1/GPa) = 0.02162376
#
# Stress axis : x y z
#
# Youngs Moduli (GPa) = 61.77069 84.16891 50.09876
#
# Poissons Ratio (x) = 0.57771 0.01936
# Poissons Ratio (y) = 0.42397 0.29825
# Poissons Ratio (z) = 0.02387 0.50107
#
# Static dielectric constant tensor:
#      x y z
#    x 1.583460 0.000000 0.000000 
#    y 0.000000 1.622560 0.000000 
#    z 0.000000 0.000000 1.610150 
# 
# From -- ./inp_files/29311.got.cif
#   From: 2010.05.17/outbox.cif.g08.bks.cpg/sg67_15_cif.got.tgz:29311.got - 2010.06.03 18:28:57.
