data_PCOD9501549
_publ_section_title
;
Structure prediction by ZEFSAII (Michael W. Deem and Ramdas Pophale) SiO2 
 PCOD9501549
Probable space group: C M M A
;
_chemical_formula_sum "Si O2"
_cell_formula_units_Z 112
_cell_length_a 14.085464
_cell_length_b 14.665907
_cell_length_c 27.358602
_cell_angle_alpha 90.000000
_cell_angle_beta 90.000000
_cell_angle_gamma 90.000000
_cell_volume 5651.633441
_symmetry_space_group_name_H-M "C M M A"
_symmetry_group_IT_number 67
_symmetry_cell_setting 'orthorhombic'
loop_
_space_group_symop_operation_xyz
x,y,z
-x,1/2-y,z
x,-y,-z
-x,1/2+y,-z
-x,-y,-z
x,1/2+y,-z
-x,y,z
x,1/2-y,z
1/2+x,1/2+y,z
1/2-x,-y,z
1/2+x,1/2-y,-z
1/2-x,y,-z
1/2-x,1/2-y,-z
1/2+x,y,-z
1/2-x,1/2+y,z
1/2+x,-y,z
loop_
_atom_site_type_symbol
_atom_site_label
_atom_site_fract_x
_atom_site_fract_y
_atom_site_fract_z
Si Si1 0.273640 0.140418 0.730849
Si Si2 0.715209 0.146912 0.923347
Si Si3 0.894390 0.602101 0.019204
Si Si4 0.635242 0.354219 0.505353
Si Si5 0.608896 0.860407 0.171545
Si Si6 0.393489 0.015141 0.308530
Si Si7 0.364088 0.507243 0.578847
O O1 0.268085 0.250000 0.723585
O O2 0.317320 0.121591 0.784677
O O3 0.175650 0.087845 0.718286
O O4 0.349268 0.086018 0.697582
O O5 0.739681 0.250000 0.908822
O O6 0.814953 0.103141 0.938802
O O7 0.654289 0.105677 0.879244
O O8 0.650835 0.151079 0.972067
O O9 0.000000 0.635035 0.032280
O O10 0.901896 0.500000 0.000000
O O11 0.604183 0.250000 0.505887
O O12 0.750000 0.353390 0.500000
O O13 0.605941 0.413730 0.458583
O O14 0.607747 0.411684 0.553455
O O15 0.500000 0.893276 0.179136
O O16 0.601681 0.750000 0.168545
O O17 0.500000 0.019689 0.288992
O O18 0.395030 0.029772 0.366669
O O19 0.250000 0.500000 0.580565
#
# Coordination Sequence:
#
# PCOD9501549 Si02
#       7
#    16  16  16  16  16  16  16
#     4  10  22  42  64  86 117 156 200 253 309 367
#     4  10  19  32  55  83 108 142 191 243 288 339
#     4  10  20  34  49  74 116 158 189 226 280 343
#     4   8  15  27  50  79 112 153 196 237 286 345
#     4   9  18  35  60  87 112 143 189 243 297 351
#     4  11  23  40  61  91 123 156 201 251 309 367
#     4   9  16  32  51  79 116 152 193 243 291 349
#
# _framework density 19.817278999999999
#
# number of rings (size 3 to 8) (size 9 to 14) (size 15 to 20)
#    0.000    2.429    1.429    3.429    0.000    4.000 
#    5.143    2.143    0.000    3.429    0.000    0.000 
#    0.000    0.000    0.000    0.000    0.000    0.000 
#
# Total GULP energy -312069.421584 kJ/mol
# GULP energy per Si atom -5572.668243 kJ/mol
# Density = 1.977217 g / cm^3
# Si number density = 19.817279 Si / 1000 Ang^3
#
#
#
# Elastic Constant Matrix: (Units=GPa)
#
#
# Indices 1 2 3 4 5 6 
#
# 1 187.3369 43.5021 48.9019 0.0000 0.0000 0.0000
# 2 43.5021 116.1675 31.0310 0.0000 0.0000 0.0000
# 3 48.9019 31.0310 100.5953 0.0000 0.0000 0.0000
# 4 0.0000 0.0000 0.0000 18.6420 0.0000 0.0000
# 5 0.0000 0.0000 0.0000 0.0000 -470.0006 0.0000
# 6 0.0000 0.0000 0.0000 0.0000 0.0000 -4.0214
#
#
#
# Elastic Compliance Matrix: (Units=1/GPa)
#
#
# Indices 1 2 3 4 5 6 
#
# 1 0.006411 -0.001709 -0.002589 0.000000 0.000000 0.000000
# 2 -0.001709 0.009837 -0.002204 0.000000 0.000000 0.000000
# 3 -0.002589 -0.002204 0.011879 0.000000 0.000000 0.000000
# 4 0.000000 0.000000 0.000000 0.053642 0.000000 0.000000
# 5 0.000000 0.000000 0.000000 0.000000 -0.002128 0.000000
# 6 0.000000 0.000000 0.000000 0.000000 0.000000 -0.248667
#
#
# Mechanical properties :
#
#
# Convention : Reuss Voigt Hill
#
# Bulk Modulus (GPa) = 66.12386 72.32998 69.22692
# Shear Modulus (GPa) = -33.11688 -72.36504 -52.74096
#
# Velocity S-wave (km/s) = -4.09236 -6.04941 -5.16444
# Velocity P-wave (km/s) = 3.33307 3.49517 0.74393
#
# Compressibility (1/GPa) = 0.01512313
#
# Stress axis : x y z
#
# Youngs Moduli (GPa) = 155.98872 101.65812 84.18023
#
# Poissons Ratio (x) = 0.17374 0.21796
# Poissons Ratio (y) = 0.26659 0.18550
# Poissons Ratio (z) = 0.40389 0.22402
#
# Static dielectric constant tensor:
#      x y z
#    x 1.746590 0.000000 0.000000 
#    y 0.000000 1.727600 0.000000 
#    z 0.000000 0.000000 1.709160 
# 
# From -- ./inp_files/44372.got.cif
#   From: 2010.05.17/outbox.cif.g08.bks.cpg/sg67_23_cif.got.tgz:44372.got - 2010.06.03 18:28:57.
