data_PCOD9501898
_publ_section_title
;
Structure prediction by ZEFSAII (Michael W. Deem and Ramdas Pophale) SiO2 
 PCOD9501898
Probable space group: C M M A
;
_chemical_formula_sum "Si O2"
_cell_formula_units_Z 96
_cell_length_a 8.868625
_cell_length_b 29.445352
_cell_length_c 20.934387
_cell_angle_alpha 90.000000
_cell_angle_beta 90.000000
_cell_angle_gamma 90.000000
_cell_volume 5466.801318
_symmetry_space_group_name_H-M "C M M A"
_symmetry_group_IT_number 67
_symmetry_cell_setting 'orthorhombic'
loop_
_space_group_symop_operation_xyz
x,y,z
-x,1/2-y,z
x,-y,-z
-x,1/2+y,-z
-x,-y,-z
x,1/2+y,-z
-x,y,z
x,1/2-y,z
1/2+x,1/2+y,z
1/2-x,-y,z
1/2+x,1/2-y,-z
1/2-x,y,-z
1/2-x,1/2-y,-z
1/2+x,y,-z
1/2-x,1/2+y,z
1/2+x,-y,z
loop_
_atom_site_type_symbol
_atom_site_label
_atom_site_fract_x
_atom_site_fract_y
_atom_site_fract_z
Si Si1 0.318953 0.644214 0.187393
Si Si2 0.680774 0.303341 0.306975
Si Si3 0.319764 0.196912 0.069218
Si Si4 0.680354 0.641267 0.565198
Si Si5 0.319662 0.452580 0.761762
Si Si6 0.680663 0.048063 0.610679
O O1 0.500000 0.645447 0.183561
O O2 0.264763 0.673186 0.248250
O O3 0.248319 0.665600 0.124130
O O4 0.270513 0.592184 0.200422
O O5 0.500000 0.308029 0.297222
O O6 0.715696 0.250000 0.310258
O O7 0.719242 0.328496 0.373062
O O8 0.500000 0.192276 0.066935
O O9 0.284895 0.250000 0.083678
O O10 0.250000 0.186626 0.000000
O O11 0.500000 0.638798 0.560186
O O12 0.750000 0.660170 0.500000
O O13 0.747770 0.591136 0.576142
O O14 0.500000 0.455722 0.765785
O O15 0.250000 0.500000 0.783878
O O16 0.282451 0.446860 0.686442
O O17 0.500000 0.047746 0.603320
O O18 0.750000 0.000000 0.589521
#
# Coordination Sequence:
#
# PCOD9501898 Si02
#       6
#    16  16  16  16  16  16
#     4  11  21  35  57  87 117 147 183 226 274 325
#     4  10  22  39  57  79 107 141 184 230 275 327
#     4  10  21  37  57  84 118 155 192 229 272 323
#     4  11  23  38  56  77 105 142 182 228 281 334
#     4   9  19  33  53  81 112 143 179 222 270 324
#     4  10  19  35  56  80 109 139 177 223 275 332
#
# _framework density 17.560544
#
# number of rings (size 3 to 8) (size 9 to 14) (size 15 to 20)
#    0.000    1.833    1.667    2.500    0.000    6.667 
#    0.000    1.667    0.000    0.500    0.000    3.500 
#    0.000    0.000    0.000    0.000    0.000    0.000 
#
# Total GULP energy -268149.920269 kJ/mol
# GULP energy per Si atom -5586.456672 kJ/mol
# Density = 1.752058 g / cm^3
# Si number density = 17.560544 Si / 1000 Ang^3
#
#
#
# Elastic Constant Matrix: (Units=GPa)
#
#
# Indices 1 2 3 4 5 6 
#
# 1 47.2085 45.7627 50.4267 0.0000 0.0000 0.0000
# 2 45.7627 124.7760 73.8480 0.0000 0.0000 0.0000
# 3 50.4267 73.8480 118.2219 0.0000 0.0000 0.0000
# 4 0.0000 0.0000 0.0000 -2.9599 0.0000 0.0000
# 5 0.0000 0.0000 0.0000 0.0000 32.7045 0.0000
# 6 0.0000 0.0000 0.0000 0.0000 0.0000 26.0131
#
#
#
# Elastic Compliance Matrix: (Units=1/GPa)
#
#
# Indices 1 2 3 4 5 6 
#
# 1 0.043266 -0.007847 -0.013553 0.000000 0.000000 0.000000
# 2 -0.007847 0.014138 -0.005485 0.000000 0.000000 0.000000
# 3 -0.013553 -0.005485 0.017666 0.000000 0.000000 0.000000
# 4 0.000000 0.000000 0.000000 -0.337847 0.000000 0.000000
# 5 0.000000 0.000000 0.000000 0.000000 0.030577 0.000000
# 6 0.000000 0.000000 0.000000 0.000000 0.000000 0.038442
#
#
# Mechanical properties :
#
#
# Convention : Reuss Voigt Hill
#
# Bulk Modulus (GPa) = 46.94643 70.03122 58.48883
# Shear Modulus (GPa) = -37.62583 19.16280 -9.23152
#
# Velocity S-wave (km/s) = -4.63388 3.30698 -2.29529
# Velocity P-wave (km/s) = 1.35588 7.38566 5.13369
#
# Compressibility (1/GPa) = 0.02130087
#
# Stress axis : x y z
#
# Youngs Moduli (GPa) = 23.11258 70.73015 56.60681
#
# Poissons Ratio (x) = 0.55501 0.76722
# Poissons Ratio (y) = 0.18136 0.31046
# Poissons Ratio (z) = 0.31325 0.38792
#
# Static dielectric constant tensor:
#      x y z
#    x 1.583880 0.000000 0.000000 
#    y 0.000000 1.585780 0.000000 
#    z 0.000000 0.000000 1.582350 
# 
# From -- ./inp_files/37141.got.cif
#   From: 2010.05.17/outbox.cif.g08.bks.cpg/sg67_19_cif.got.tgz:37141.got - 2010.06.03 18:28:57.
