data_PCOD9501358
_publ_section_title
;
Structure prediction by ZEFSAII (Michael W. Deem and Ramdas Pophale) SiO2 
 PCOD9501358
Probable space group: C M M A
;
_chemical_formula_sum "Si O2"
_cell_formula_units_Z 96
_cell_length_a 19.404828
_cell_length_b 8.945806
_cell_length_c 32.437744
_cell_angle_alpha 90.000000
_cell_angle_beta 90.000000
_cell_angle_gamma 90.000000
_cell_volume 5630.927237
_symmetry_space_group_name_H-M "C M M A"
_symmetry_group_IT_number 67
_symmetry_cell_setting 'orthorhombic'
loop_
_space_group_symop_operation_xyz
x,y,z
-x,1/2-y,z
x,-y,-z
-x,1/2+y,-z
-x,-y,-z
x,1/2+y,-z
-x,y,z
x,1/2-y,z
1/2+x,1/2+y,z
1/2-x,-y,z
1/2+x,1/2-y,-z
1/2-x,y,-z
1/2-x,1/2-y,-z
1/2+x,y,-z
1/2-x,1/2+y,z
1/2+x,-y,z
loop_
_atom_site_type_symbol
_atom_site_label
_atom_site_fract_x
_atom_site_fract_y
_atom_site_fract_z
Si Si1 0.916089 0.422579 0.457883
Si Si2 0.825803 0.069342 0.208909
Si Si3 0.083972 0.577282 0.958130
Si Si4 0.420115 0.570658 0.627342
Si Si5 0.079299 0.432209 0.131933
Si Si6 0.825765 0.069622 0.705198
O O1 0.892062 0.500000 0.500000
O O2 0.896241 0.250000 0.457768
O O3 0.894361 0.500705 0.415483
O O4 0.000000 0.430727 0.458224
O O5 0.822005 0.250000 0.211784
O O6 0.873399 0.026894 0.170295
O O7 0.750000 0.000000 0.203044
O O8 0.852289 0.000924 0.251986
O O9 0.104302 0.750000 0.960141
O O10 0.104548 0.514897 0.913234
O O11 0.000000 0.571768 0.957770
O O12 0.107819 0.500000 0.000000
O O13 0.500000 0.524998 0.633608
O O14 0.419060 0.750000 0.623072
O O15 0.374239 0.531126 0.666696
O O16 0.078614 0.250000 0.129837
O O17 0.000000 0.479885 0.137961
O O18 0.821274 0.250000 0.708830
O O19 0.750000 0.000000 0.698768
#
# Coordination Sequence:
#
# PCOD9501358 Si02
#       6
#    16  16  16  16  16  16
#     4   9  16  26  43  68  97 127 157 189 226 270
#     4  10  19  32  50  68  89 119 154 189 226 273
#     4   8  13  23  40  62  88 115 144 179 220 266
#     4   9  18  32  49  70  96 124 154 190 232 273
#     4   8  15  28  46  68  92 119 151 187 227 269
#     4  10  20  34  51  69  92 123 156 190 230 276
#
# _framework density 17.048703
#
# number of rings (size 3 to 8) (size 9 to 14) (size 15 to 20)
#    0.000    3.000    0.000    3.500    0.000    4.000 
#    0.000    1.667    0.000    4.500    0.000    7.000 
#    0.000    0.000    0.000    0.000    0.000    0.000 
#
# Total GULP energy -267305.497455 kJ/mol
# GULP energy per Si atom -5568.864530 kJ/mol
# Density = 1.700990 g / cm^3
# Si number density = 17.048703 Si / 1000 Ang^3
#
#
#
# Elastic Constant Matrix: (Units=GPa)
#
#
# Indices 1 2 3 4 5 6 
#
# 1 33.7782 23.2226 68.8050 0.0000 0.0000 0.0000
# 2 23.2226 48.3404 66.5570 0.0000 0.0000 0.0000
# 3 68.8050 66.5570 226.2662 0.0000 0.0000 0.0000
# 4 0.0000 0.0000 0.0000 30.7988 0.0000 0.0000
# 5 0.0000 0.0000 0.0000 0.0000 -10.4331 0.0000
# 6 0.0000 0.0000 0.0000 0.0000 0.0000 12.5824
#
#
#
# Elastic Compliance Matrix: (Units=1/GPa)
#
#
# Indices 1 2 3 4 5 6 
#
# 1 0.079707 -0.008268 -0.021806 0.000000 0.000000 0.000000
# 2 -0.008268 0.035625 -0.007965 0.000000 0.000000 0.000000
# 3 -0.021806 -0.007965 0.013394 0.000000 0.000000 0.000000
# 4 0.000000 0.000000 0.000000 0.032469 0.000000 0.000000
# 5 0.000000 0.000000 0.000000 0.000000 -0.095849 0.000000
# 6 0.000000 0.000000 0.000000 0.000000 0.000000 0.079476
#
#
# Mechanical properties :
#
#
# Convention : Reuss Voigt Hill
#
# Bulk Modulus (GPa) = 18.99407 69.50599 44.25003
# Shear Modulus (GPa) = 20.96882 16.57629 18.77255
#
# Velocity S-wave (km/s) = 3.51085 3.12154 3.32190
# Velocity P-wave (km/s) = 5.25357 7.33823 6.38160
#
# Compressibility (1/GPa) = 0.05264801
#
# Stress axis : x y z
#
# Youngs Moduli (GPa) = 12.54592 28.07004 74.66296
#
# Poissons Ratio (x) = 0.23208 1.62810
# Poissons Ratio (y) = 0.10373 0.59470
# Poissons Ratio (z) = 0.27358 0.22358
#
# Static dielectric constant tensor:
#      x y z
#    x 1.559870 0.000000 0.000000 
#    y 0.000000 1.578980 0.000000 
#    z 0.000000 0.000000 1.594670 
# 
# From -- ./inp_files/44781.got.cif
#   From: 2010.05.17/outbox.cif.g08.bks.cpg/sg67_23_cif.got.tgz:44781.got - 2010.06.03 18:28:57.
