data_PCOD9501944
_publ_section_title
;
Structure prediction by ZEFSAII (Michael W. Deem and Ramdas Pophale) SiO2 
 PCOD9501944
Probable space group: C M M A
;
_chemical_formula_sum "Si O2"
_cell_formula_units_Z 80
_cell_length_a 24.237317
_cell_length_b 18.786605
_cell_length_c 9.974677
_cell_angle_alpha 90.000000
_cell_angle_beta 90.000000
_cell_angle_gamma 90.000000
_cell_volume 4541.838511
_symmetry_space_group_name_H-M "C M M A"
_symmetry_group_IT_number 67
_symmetry_cell_setting 'orthorhombic'
loop_
_space_group_symop_operation_xyz
x,y,z
-x,1/2-y,z
x,-y,-z
-x,1/2+y,-z
-x,-y,-z
x,1/2+y,-z
-x,y,z
x,1/2-y,z
1/2+x,1/2+y,z
1/2-x,-y,z
1/2+x,1/2-y,-z
1/2-x,y,-z
1/2-x,1/2-y,-z
1/2+x,y,-z
1/2-x,1/2+y,z
1/2+x,-y,z
loop_
_atom_site_type_symbol
_atom_site_label
_atom_site_fract_x
_atom_site_fract_y
_atom_site_fract_z
Si Si1 0.500000 0.986042 0.842793
Si Si2 0.000000 0.835426 0.302314
Si Si3 0.387311 0.887325 0.567436
Si Si4 0.775663 0.428125 0.149008
Si Si5 0.226537 0.669186 0.366879
Si Si6 0.613326 0.961851 0.285416
O O1 0.500000 0.900485 0.808601
O O2 0.553764 0.023724 0.779335
O O3 0.500000 0.000000 0.000000
O O4 0.945520 0.854384 0.388206
O O5 0.000000 0.750000 0.265359
O O6 0.338652 0.836175 0.615206
O O7 0.387208 0.906336 0.409424
O O8 0.374785 0.961427 0.645800
O O9 0.750000 0.500000 0.208363
O O10 0.751037 0.365421 0.235775
O O11 0.841016 0.437859 0.175725
O O12 0.750000 0.422553 0.000000
O O13 0.245419 0.750000 0.366249
O O14 0.250000 0.631444 0.500000
#
# Coordination Sequence:
#
# PCOD9501944 Si02
#       6
#     8   8  16  16  16  16
#     4  10  23  37  61  87 117 158 203 244 289 357
#     4  10  21  37  59  87 118 152 193 250 304 346
#     4  10  19  35  60  84 114 148 193 248 296 347
#     4  11  23  36  59  86 119 155 199 243 296 353
#     4  11  22  36  56  84 116 155 197 239 294 354
#     4  10  20  36  58  86 113 148 196 247 297 341
#
# _framework density 17.614011999999999
#
# number of rings (size 3 to 8) (size 9 to 14) (size 15 to 20)
#    0.000    1.600    4.000    1.200    2.800    3.200 
#    0.000    0.000    0.000    4.800    0.000    0.000 
#    0.000    0.000    0.000    0.000    0.000    0.000 
#
# Total GULP energy -222744.483535 kJ/mol
# GULP energy per Si atom -5568.612088 kJ/mol
# Density = 1.757392 g / cm^3
# Si number density = 17.614012 Si / 1000 Ang^3
#
#
#
# Elastic Constant Matrix: (Units=GPa)
#
#
# Indices 1 2 3 4 5 6 
#
# 1 131.1369 25.3579 52.8082 0.0000 0.0000 0.0000
# 2 25.3579 80.7717 41.9307 0.0000 0.0000 0.0000
# 3 52.8082 41.9307 101.7068 0.0000 0.0000 0.0000
# 4 0.0000 0.0000 0.0000 22.0570 0.0000 0.0000
# 5 0.0000 0.0000 0.0000 0.0000 24.9759 0.0000
# 6 0.0000 0.0000 0.0000 0.0000 0.0000 16.6447
#
#
#
# Elastic Compliance Matrix: (Units=1/GPa)
#
#
# Indices 1 2 3 4 5 6 
#
# 1 0.009660 -0.000546 -0.004791 0.000000 0.000000 0.000000
# 2 -0.000546 0.015783 -0.006223 0.000000 0.000000 0.000000
# 3 -0.004791 -0.006223 0.014885 0.000000 0.000000 0.000000
# 4 0.000000 0.000000 0.000000 0.045337 0.000000 0.000000
# 5 0.000000 0.000000 0.000000 0.000000 0.040039 0.000000
# 6 0.000000 0.000000 0.000000 0.000000 0.000000 0.060079
#
#
# Mechanical properties :
#
#
# Convention : Reuss Voigt Hill
#
# Bulk Modulus (GPa) = 58.11091 61.53433 59.82262
# Shear Modulus (GPa) = 23.29489 25.63676 24.46583
#
# Velocity S-wave (km/s) = 3.64059 3.81921 3.73097
# Velocity P-wave (km/s) = 7.12284 7.37965 7.25238
#
# Compressibility (1/GPa) = 0.01720847
#
# Stress axis : x y z
#
# Youngs Moduli (GPa) = 103.51519 63.36091 67.17999
#
# Poissons Ratio (x) = 0.03458 0.32185
# Poissons Ratio (y) = 0.05650 0.41808
# Poissons Ratio (z) = 0.49593 0.39432
#
# Static dielectric constant tensor:
#      x y z
#    x 1.629490 0.000000 0.000000 
#    y 0.000000 1.605370 0.000000 
#    z 0.000000 0.000000 1.687590 
# 
# From -- ./inp_files/13580.got.cif
#   From: 2010.05.17/outbox.cif.g08.bks.cpg/sg67_7_cif.got.tgz:13580.got - 2010.06.03 18:28:57.
