data_PCOD9501038
_publ_section_title
;
Structure prediction by ZEFSAII (Michael W. Deem and Ramdas Pophale) SiO2 
 PCOD9501038
Probable space group: C M M A
;
_chemical_formula_sum "Si O2"
_cell_formula_units_Z 120
_cell_length_a 27.534896
_cell_length_b 8.985685
_cell_length_c 29.656340
_cell_angle_alpha 90.000000
_cell_angle_beta 90.000000
_cell_angle_gamma 90.000000
_cell_volume 7337.568735
_symmetry_space_group_name_H-M "C M M A"
_symmetry_group_IT_number 67
_symmetry_cell_setting 'orthorhombic'
loop_
_space_group_symop_operation_xyz
x,y,z
-x,1/2-y,z
x,-y,-z
-x,1/2+y,-z
-x,-y,-z
x,1/2+y,-z
-x,y,z
x,1/2-y,z
1/2+x,1/2+y,z
1/2-x,-y,z
1/2+x,1/2-y,-z
1/2-x,y,-z
1/2-x,1/2-y,-z
1/2+x,y,-z
1/2-x,1/2+y,z
1/2+x,-y,z
loop_
_atom_site_type_symbol
_atom_site_label
_atom_site_fract_x
_atom_site_fract_y
_atom_site_fract_z
Si Si1 0.108463 0.429255 0.950199
Si Si2 0.557062 0.072156 0.639970
Si Si3 0.053582 0.924374 0.808287
Si Si4 0.150342 0.073884 0.134033
Si Si5 0.800341 0.428348 0.781594
Si Si6 0.897332 0.073349 0.726359
Si Si7 0.500000 0.428161 0.049221
Si Si8 0.559038 0.578872 0.545896
O O1 0.112375 0.250000 0.952598
O O2 0.146077 0.497051 0.914517
O O3 0.053452 0.468309 0.932793
O O4 0.113825 0.500000 0.000000
O O5 0.500000 0.031483 0.647450
O O6 0.559905 0.250000 0.639051
O O7 0.589100 0.007237 0.680228
O O8 0.572272 0.006447 0.591596
O O9 0.054657 0.750000 0.795021
O O10 0.097432 0.946026 0.842725
O O11 0.000000 0.957537 0.826833
O O12 0.064585 0.021790 0.764467
O O13 0.160234 0.250000 0.130382
O O14 0.186294 0.996359 0.169479
O O15 0.796927 0.250000 0.784786
O O16 0.750000 0.500000 0.766293
O O17 0.844724 0.465028 0.747692
O O18 0.899554 0.250000 0.720157
O O19 0.500000 0.250000 0.045845
O O20 0.500000 0.500000 0.000000
O O21 0.575842 0.500000 0.500000
O O22 0.500000 0.577973 0.544518
O O23 0.574804 0.750000 0.547478
#
# Coordination Sequence:
#
# PCOD9501038 Si02
#       8
#    16  16  16  16  16  16   8  16
#     4  10  19  32  48  69  97 129 163 198 234 273
#     4  10  19  29  43  65  96 135 173 207 243 285
#     4   9  18  31  45  64  93 128 161 192 227 273
#     4  10  20  33  51  74  98 126 159 194 234 280
#     4  10  21  38  58  77  97 121 153 195 243 294
#     4  10  20  32  47  70  96 122 156 197 241 289
#     4   8  16  28  42  62  90 126 162 194 226 262
#     4   9  16  26  40  59  87 126 172 216 252 286
#
# _framework density 16.354189999999999
#
# number of rings (size 3 to 8) (size 9 to 14) (size 15 to 20)
#    0.000    2.400    0.000    2.800    0.933    6.933 
#    0.000    0.000    0.000    0.400    0.000    2.800 
#    0.000    0.533    0.000    5.600    0.000    3.333 
#
# Total GULP energy -334482.731413 kJ/mol
# GULP energy per Si atom -5574.712190 kJ/mol
# Density = 1.631697 g / cm^3
# Si number density = 16.354190 Si / 1000 Ang^3
#
#
#
# Elastic Constant Matrix: (Units=GPa)
#
#
# Indices 1 2 3 4 5 6 
#
# 1 51.3143 25.2709 24.0949 0.0000 0.0000 0.0000
# 2 25.2709 55.8575 61.4018 0.0000 0.0000 0.0000
# 3 24.0949 61.4018 112.4839 0.0000 0.0000 0.0000
# 4 0.0000 0.0000 0.0000 30.7094 0.0000 0.0000
# 5 0.0000 0.0000 0.0000 0.0000 13.1361 0.0000
# 6 0.0000 0.0000 0.0000 0.0000 0.0000 20.3180
#
#
#
# Elastic Compliance Matrix: (Units=1/GPa)
#
#
# Indices 1 2 3 4 5 6 
#
# 1 0.025266 -0.013705 0.002069 0.000000 0.000000 0.000000
# 2 -0.013705 0.052197 -0.025557 0.000000 0.000000 0.000000
# 3 0.002069 -0.025557 0.022398 0.000000 0.000000 0.000000
# 4 0.000000 0.000000 0.000000 0.032563 0.000000 0.000000
# 5 0.000000 0.000000 0.000000 0.000000 0.076126 0.000000
# 6 0.000000 0.000000 0.000000 0.000000 0.000000 0.049217
#
#
# Mechanical properties :
#
#
# Convention : Reuss Voigt Hill
#
# Bulk Modulus (GPa) = 39.25538 49.02124 44.13831
# Shear Modulus (GPa) = 14.67802 20.09190 17.38496
#
# Velocity S-wave (km/s) = 2.99909 3.50887 3.26395
# Velocity P-wave (km/s) = 6.00401 6.81586 6.42278
#
# Compressibility (1/GPa) = 0.02547421
#
# Stress axis : x y z
#
# Youngs Moduli (GPa) = 39.57956 19.15812 44.64700
#
# Poissons Ratio (x) = 0.26257 -0.09238
# Poissons Ratio (y) = 0.54244 1.14105
# Poissons Ratio (z) = -0.08190 0.48963
#
# Static dielectric constant tensor:
#      x y z
#    x 1.559710 0.000000 0.000000 
#    y 0.000000 1.549210 0.000000 
#    z 0.000000 0.000000 1.535240 
# 
# From -- ./inp_files/45036.got.cif
#   From: 2010.05.17/outbox.cif.g08.bks.cpg/sg67_23_cif.got.tgz:45036.got - 2010.06.03 18:28:57.
