data_PCOD9501962
_publ_section_title
;
Structure prediction by ZEFSAII (Michael W. Deem and Ramdas Pophale) SiO2 
 PCOD9501962
Probable space group: C M M A
;
_chemical_formula_sum "Si O2"
_cell_formula_units_Z 88
_cell_length_a 29.520920
_cell_length_b 14.159104
_cell_length_c 11.840605
_cell_angle_alpha 90.000000
_cell_angle_beta 90.000000
_cell_angle_gamma 90.000000
_cell_volume 4949.251837
_symmetry_space_group_name_H-M "C M M A"
_symmetry_group_IT_number 67
_symmetry_cell_setting 'orthorhombic'
loop_
_space_group_symop_operation_xyz
x,y,z
-x,1/2-y,z
x,-y,-z
-x,1/2+y,-z
-x,-y,-z
x,1/2+y,-z
-x,y,z
x,1/2-y,z
1/2+x,1/2+y,z
1/2-x,-y,z
1/2+x,1/2-y,-z
1/2-x,y,-z
1/2-x,1/2-y,-z
1/2+x,y,-z
1/2-x,1/2+y,z
1/2+x,-y,z
loop_
_atom_site_type_symbol
_atom_site_label
_atom_site_fract_x
_atom_site_fract_y
_atom_site_fract_z
Si Si1 0.800369 0.043440 0.614411
Si Si2 0.606917 0.104845 0.978284
Si Si3 0.946448 0.250000 0.174338
Si Si4 0.636864 0.250000 0.161515
Si Si5 0.163176 0.750000 0.400835
Si Si6 0.755091 0.250000 0.865247
Si Si7 0.682514 0.400715 0.793724
Si Si8 0.371471 0.750000 0.350382
O O1 0.806267 0.155401 0.605260
O O2 0.822710 0.000000 0.500000
O O3 0.750000 0.000000 0.612201
O O4 0.816591 0.002738 0.734861
O O5 0.572760 0.162086 0.898254
O O6 0.654205 0.099971 0.908950
O O7 0.616974 0.161494 0.092758
O O8 0.590588 0.000000 0.000000
O O9 0.921114 0.250000 0.295130
O O10 0.000000 0.250000 0.183217
O O11 0.629104 0.250000 0.294804
O O12 0.691603 0.250000 0.156126
O O13 0.135404 0.750000 0.516875
O O14 0.729006 0.342879 0.816458
O O15 0.750000 0.250000 0.000000
O O16 0.655000 0.338359 0.703472
#
# Coordination Sequence:
#
# PCOD9501962 Si02
#       8
#    16  16   8   8   8   8  16   8
#     4  11  23  35  51  78 108 153 201 244 285 325
#     4  10  20  35  57  83 118 149 183 228 286 348
#     4   9  20  39  64  89 109 136 181 229 286 363
#     4  11  21  35  51  85 115 156 201 240 279 334
#     4  12  22  37  57  77 113 147 197 247 290 333
#     4  11  18  34  56  80 114 162 213 255 283 315
#     4  10  19  36  53  78 115 152 200 242 284 323
#     4   9  19  36  59  80 105 143 179 241 281 340
#
# _framework density 17.780466000000001
#
# number of rings (size 3 to 8) (size 9 to 14) (size 15 to 20)
#    0.000    1.636    3.636    3.273    0.000    2.545 
#    0.000    0.909    0.000    2.182    0.000   16.545 
#    0.000    0.000    0.000    0.000    0.000    0.000 
#
# Total GULP energy -245424.586293 kJ/mol
# GULP energy per Si atom -5577.831507 kJ/mol
# Density = 1.774000 g / cm^3
# Si number density = 17.780466 Si / 1000 Ang^3
#
#
#
# Elastic Constant Matrix: (Units=GPa)
#
#
# Indices 1 2 3 4 5 6 
#
# 1 87.0797 31.3350 28.0614 0.0000 0.0000 0.0000
# 2 31.3350 154.0495 45.7215 0.0000 0.0000 0.0000
# 3 28.0614 45.7215 136.3731 0.0000 0.0000 0.0000
# 4 0.0000 0.0000 0.0000 23.1764 0.0000 0.0000
# 5 0.0000 0.0000 0.0000 0.0000 9.9039 0.0000
# 6 0.0000 0.0000 0.0000 0.0000 0.0000 2.6839
#
#
#
# Elastic Compliance Matrix: (Units=1/GPa)
#
#
# Indices 1 2 3 4 5 6 
#
# 1 0.012847 -0.002031 -0.001963 0.000000 0.000000 0.000000
# 2 -0.002031 0.007530 -0.002107 0.000000 0.000000 0.000000
# 3 -0.001963 -0.002107 0.008443 0.000000 0.000000 0.000000
# 4 0.000000 0.000000 0.000000 0.043147 0.000000 0.000000
# 5 0.000000 0.000000 0.000000 0.000000 0.100971 0.000000
# 6 0.000000 0.000000 0.000000 0.000000 0.000000 0.372586
#
#
# Mechanical properties :
#
#
# Convention : Reuss Voigt Hill
#
# Bulk Modulus (GPa) = 60.16965 65.30423 62.73694
# Shear Modulus (GPa) = 8.87685 25.31181 17.09433
#
# Velocity S-wave (km/s) = 2.23681 3.77712 3.10403
# Velocity P-wave (km/s) = 6.37062 7.47195 6.94316
#
# Compressibility (1/GPa) = 0.01661967
#
# Stress axis : x y z
#
# Youngs Moduli (GPa) = 77.83966 132.80721 118.44175
#
# Poissons Ratio (x) = 0.26969 0.23246
# Poissons Ratio (y) = 0.15807 0.24951
# Poissons Ratio (z) = 0.15277 0.27977
#
# Static dielectric constant tensor:
#      x y z
#    x 1.606250 0.000000 0.000000 
#    y 0.000000 1.661220 0.000000 
#    z 0.000000 0.000000 1.664970 
# 
# From -- ./inp_files/18472.got.cif
#   From: 2010.05.17/outbox.cif.g08.bks.cpg/sg67_10_cif.got.tgz:18472.got - 2010.06.03 18:28:57.
