data_PCOD9501629
_publ_section_title
;
Structure prediction by ZEFSAII (Michael W. Deem and Ramdas Pophale) SiO2 
 PCOD9501629
Probable space group: C M M A
;
_chemical_formula_sum "Si O2"
_cell_formula_units_Z 116
_cell_length_a 9.246116
_cell_length_b 29.662081
_cell_length_c 21.305049
_cell_angle_alpha 90.000000
_cell_angle_beta 90.000000
_cell_angle_gamma 90.000000
_cell_volume 5843.102323
_symmetry_space_group_name_H-M "C M M A"
_symmetry_group_IT_number 67
_symmetry_cell_setting 'orthorhombic'
loop_
_space_group_symop_operation_xyz
x,y,z
-x,1/2-y,z
x,-y,-z
-x,1/2+y,-z
-x,-y,-z
x,1/2+y,-z
-x,y,z
x,1/2-y,z
1/2+x,1/2+y,z
1/2-x,-y,z
1/2+x,1/2-y,-z
1/2-x,y,-z
1/2-x,1/2-y,-z
1/2+x,y,-z
1/2-x,1/2+y,z
1/2+x,-y,z
loop_
_atom_site_type_symbol
_atom_site_label
_atom_site_fract_x
_atom_site_fract_y
_atom_site_fract_z
Si Si1 0.833024 0.823520 0.439280
Si Si2 0.665072 0.925966 0.602906
Si Si3 0.750000 0.500000 0.500000
Si Si4 0.672584 0.457072 0.932786
Si Si5 0.331197 0.899235 0.274897
Si Si6 0.828181 0.385877 0.851752
Si Si7 0.672174 0.197963 0.064927
Si Si8 0.662435 0.797942 0.321330
O O1 0.750000 0.807899 0.500000
O O2 0.809854 0.877392 0.429577
O O3 0.775499 0.800594 0.376977
O O4 0.000000 0.815439 0.447693
O O5 0.500000 0.926378 0.626767
O O6 0.772809 0.925191 0.662930
O O7 0.678515 0.965054 0.550282
O O8 0.500000 0.462210 0.937476
O O9 0.750000 0.500000 0.900735
O O10 0.722716 0.413284 0.896965
O O11 0.750000 0.454100 0.000000
O O12 0.500000 0.911396 0.262609
O O13 0.223271 0.902586 0.216418
O O14 0.326540 0.845110 0.286106
O O15 0.803707 0.334283 0.874922
O O16 0.000000 0.395039 0.860397
O O17 0.500000 0.196814 0.052853
O O18 0.715093 0.250000 0.076881
O O19 0.750000 0.183066 0.000000
O O20 0.500000 0.798290 0.348709
O O21 0.679385 0.750000 0.286538
#
# Coordination Sequence:
#
# PCOD9501629 Si02
#       8
#    16  16   4  16  16  16  16  16
#     4  10  19  33  53  78 109 141 173 217 273 332
#     4  10  22  39  60  87 116 147 184 231 288 353
#     4  12  22  40  68  98 116 140 186 238 294 372
#     4  11  22  39  63  92 124 157 201 252 304 360
#     4  10  22  40  60  83 117 156 196 245 298 353
#     4  11  22  38  61  88 122 165 210 255 308 367
#     4   9  19  35  56  87 127 169 213 262 311 361
#     4   9  19  36  56  78 106 143 187 233 280 335
#
# _framework density 19.852468999999999
#
# number of rings (size 3 to 8) (size 9 to 14) (size 15 to 20)
#    0.000    1.931    0.690    3.517    0.000    5.517 
#    1.241    0.000    0.000    0.000    0.000    0.000 
#    0.000    0.000    0.000    0.000    0.000    0.000 
#
# Total GULP energy -323057.336824 kJ/mol
# GULP energy per Si atom -5569.954083 kJ/mol
# Density = 1.980728 g / cm^3
# Si number density = 19.852469 Si / 1000 Ang^3
#
#
#
# Elastic Constant Matrix: (Units=GPa)
#
#
# Indices 1 2 3 4 5 6 
#
# 1 93.4853 26.1074 41.2486 0.0000 0.0000 0.0000
# 2 26.1074 70.5954 4.5625 0.0000 0.0000 0.0000
# 3 41.2486 4.5625 55.0503 0.0000 0.0000 0.0000
# 4 0.0000 0.0000 0.0000 55.2382 0.0000 0.0000
# 5 0.0000 0.0000 0.0000 0.0000 29.6731 0.0000
# 6 0.0000 0.0000 0.0000 0.0000 0.0000 14.7572
#
#
#
# Elastic Compliance Matrix: (Units=1/GPa)
#
#
# Indices 1 2 3 4 5 6 
#
# 1 0.018101 -0.005849 -0.013078 0.000000 0.000000 0.000000
# 2 -0.005849 0.016131 0.003045 0.000000 0.000000 0.000000
# 3 -0.013078 0.003045 0.027712 0.000000 0.000000 0.000000
# 4 0.000000 0.000000 0.000000 0.018103 0.000000 0.000000
# 5 0.000000 0.000000 0.000000 0.000000 0.033701 0.000000
# 6 0.000000 0.000000 0.000000 0.000000 0.000000 0.067764
#
#
# Mechanical properties :
#
#
# Convention : Reuss Voigt Hill
#
# Bulk Modulus (GPa) = 33.13278 40.32978 36.73128
# Shear Modulus (GPa) = 22.38800 29.74789 26.06794
#
# Velocity S-wave (km/s) = 3.36180 3.87518 3.62758
# Velocity P-wave (km/s) = 5.63867 6.35465 6.00733
#
# Compressibility (1/GPa) = 0.03018159
#
# Stress axis : x y z
#
# Youngs Moduli (GPa) = 55.24690 61.99107 36.08563
#
# Poissons Ratio (x) = 0.36257 0.47192
# Poissons Ratio (y) = 0.32312 -0.10990
# Poissons Ratio (z) = 0.72251 -0.18879
#
# Static dielectric constant tensor:
#      x y z
#    x 1.672470 0.000000 0.000000 
#    y 0.000000 1.799170 0.000000 
#    z 0.000000 0.000000 1.743130 
# 
# From -- ./inp_files/41241.got.cif
#   From: 2010.05.17/outbox.cif.g08.bks.cpg/sg67_21_cif.got.tgz:41241.got - 2010.06.03 18:28:57.
