data_PCOD9501704
_publ_section_title
;
Structure prediction by ZEFSAII (Michael W. Deem and Ramdas Pophale) SiO2 
 PCOD9501704
Probable space group: C M M A
;
_chemical_formula_sum "Si O2"
_cell_formula_units_Z 80
_cell_length_a 10.225752
_cell_length_b 17.457761
_cell_length_c 24.973088
_cell_angle_alpha 90.000000
_cell_angle_beta 90.000000
_cell_angle_gamma 90.000000
_cell_volume 4458.164065
_symmetry_space_group_name_H-M "C M M A"
_symmetry_group_IT_number 67
_symmetry_cell_setting 'orthorhombic'
loop_
_space_group_symop_operation_xyz
x,y,z
-x,1/2-y,z
x,-y,-z
-x,1/2+y,-z
-x,-y,-z
x,1/2+y,-z
-x,y,z
x,1/2-y,z
1/2+x,1/2+y,z
1/2-x,-y,z
1/2+x,1/2-y,-z
1/2-x,y,-z
1/2-x,1/2-y,-z
1/2+x,y,-z
1/2-x,1/2+y,z
1/2+x,-y,z
loop_
_atom_site_type_symbol
_atom_site_label
_atom_site_fract_x
_atom_site_fract_y
_atom_site_fract_z
Si Si1 0.219425 0.842376 0.623624
Si Si2 0.847697 0.069317 0.270430
Si Si3 0.150999 0.343575 0.046171
Si Si4 0.341474 0.662605 0.165056
Si Si5 0.000000 0.156424 0.583020
Si Si6 0.000000 0.343232 0.459962
O O1 0.217028 0.750000 0.625531
O O2 0.165732 0.874402 0.679084
O O3 0.367536 0.867939 0.612255
O O4 0.126696 0.866260 0.574290
O O5 0.805989 0.111533 0.215602
O O6 0.000000 0.046250 0.265438
O O7 0.750000 0.000000 0.279887
O O8 0.150443 0.250000 0.046682
O O9 0.195960 0.366505 0.105953
O O10 0.000000 0.367317 0.037203
O O11 0.250000 0.368830 0.000000
O O12 0.500000 0.665857 0.164043
O O13 0.294077 0.750000 0.171958
O O14 0.000000 0.130582 0.521178
O O15 0.000000 0.250000 0.582406
O O16 0.000000 0.250000 0.461857
#
# Coordination Sequence:
#
# PCOD9501704 Si02
#       6
#    16  16  16  16   8   8
#     4  10  19  33  56  81 104 133 169 208 251 301
#     4  11  23  37  54  73 100 136 175 217 258 304
#     4   8  13  23  43  72 103 129 156 197 248 297
#     4   8  15  30  53  77  99 130 173 212 246 295
#     4   9  18  30  51  83 113 131 154 207 262 299
#     4   9  16  30  53  83 107 129 166 205 248 301
#
# _framework density 17.944607000000001
#
# number of rings (size 3 to 8) (size 9 to 14) (size 15 to 20)
#    0.000    2.800    1.000    2.400    1.400    3.200 
#    0.000    1.000    0.000    5.400    0.000    4.200 
#    0.000    0.000    0.000    0.000    0.000    0.000 
#
# Total GULP energy -222917.098310 kJ/mol
# GULP energy per Si atom -5572.927458 kJ/mol
# Density = 1.790376 g / cm^3
# Si number density = 17.944607 Si / 1000 Ang^3
#
#
#
# Elastic Constant Matrix: (Units=GPa)
#
#
# Indices 1 2 3 4 5 6 
#
# 1 91.6457 15.5491 32.0242 0.0000 0.0000 0.0000
# 2 15.5491 13.7390 13.3462 0.0000 0.0000 0.0000
# 3 32.0242 13.3462 106.2845 0.0000 0.0000 0.0000
# 4 0.0000 0.0000 0.0000 -9.0215 0.0000 0.0000
# 5 0.0000 0.0000 0.0000 0.0000 29.5101 0.0000
# 6 0.0000 0.0000 0.0000 0.0000 0.0000 12.3485
#
#
#
# Elastic Compliance Matrix: (Units=1/GPa)
#
#
# Indices 1 2 3 4 5 6 
#
# 1 0.014088 -0.013463 -0.002554 0.000000 0.000000 0.000000
# 2 -0.013463 0.095763 -0.007968 0.000000 0.000000 0.000000
# 3 -0.002554 -0.007968 0.011179 0.000000 0.000000 0.000000
# 4 0.000000 0.000000 0.000000 -0.110847 0.000000 0.000000
# 5 0.000000 0.000000 0.000000 0.000000 0.033887 0.000000
# 6 0.000000 0.000000 0.000000 0.000000 0.000000 0.080982
#
#
# Mechanical properties :
#
#
# Convention : Reuss Voigt Hill
#
# Bulk Modulus (GPa) = 13.68770 37.05648 25.37209
# Shear Modulus (GPa) = 25.33225 16.61741 20.97483
#
# Velocity S-wave (km/s) = 3.76132 3.04639 3.42258
# Velocity P-wave (km/s) = 5.14857 5.75059 5.45789
#
# Compressibility (1/GPa) = 0.07305827
#
# Stress axis : x y z
#
# Youngs Moduli (GPa) = 70.98032 10.44244 89.45382
#
# Poissons Ratio (x) = 0.14059 0.22849
# Poissons Ratio (y) = 0.95563 0.71281
# Poissons Ratio (z) = 0.18131 0.08321
#
# Static dielectric constant tensor:
#      x y z
#    x 1.609410 0.000000 0.000000 
#    y 0.000000 1.605240 0.000000 
#    z 0.000000 0.000000 1.614780 
# 
# From -- ./inp_files/37769.got.cif
#   From: 2010.05.17/outbox.cif.g08.bks.cpg/sg67_19_cif.got.tgz:37769.got - 2010.06.03 18:28:57.
