data_PCOD9501917
_publ_section_title
;
Structure prediction by ZEFSAII (Michael W. Deem and Ramdas Pophale) SiO2 
 PCOD9501917
Probable space group: C M M A
;
_chemical_formula_sum "Si O2"
_cell_formula_units_Z 112
_cell_length_a 13.626046
_cell_length_b 24.616741
_cell_length_c 13.138373
_cell_angle_alpha 90.000000
_cell_angle_beta 90.000000
_cell_angle_gamma 90.000000
_cell_volume 4406.989284
_symmetry_space_group_name_H-M "C M M A"
_symmetry_group_IT_number 67
_symmetry_cell_setting 'orthorhombic'
loop_
_space_group_symop_operation_xyz
x,y,z
-x,1/2-y,z
x,-y,-z
-x,1/2+y,-z
-x,-y,-z
x,1/2+y,-z
-x,y,z
x,1/2-y,z
1/2+x,1/2+y,z
1/2-x,-y,z
1/2+x,1/2-y,-z
1/2-x,y,-z
1/2-x,1/2-y,-z
1/2+x,y,-z
1/2-x,1/2+y,z
1/2+x,-y,z
loop_
_atom_site_type_symbol
_atom_site_label
_atom_site_fract_x
_atom_site_fract_y
_atom_site_fract_z
Si Si1 0.149190 0.691095 0.203665
Si Si2 0.667196 0.071258 0.147421
Si Si3 0.606923 0.073666 0.930506
Si Si4 0.388701 0.143520 0.647359
Si Si5 0.134925 0.691042 0.868545
Si Si6 0.884514 0.160036 0.572853
Si Si7 0.284729 0.943268 0.639820
O O1 0.101662 0.750000 0.187090
O O2 0.118875 0.630308 0.173138
O O3 0.248337 0.693066 0.138715
O O4 0.164340 0.686275 0.326798
O O5 0.785433 0.067051 0.121822
O O6 0.659594 0.042433 0.255122
O O7 0.616793 0.051961 0.045183
O O8 0.500000 0.057886 0.885192
O O9 0.604068 0.139795 0.934031
O O10 0.500000 0.122835 0.631296
O O11 0.391424 0.178235 0.750659
O O12 0.362552 0.176221 0.543579
O O13 0.309531 0.095655 0.661320
O O14 0.101119 0.750000 0.901751
O O15 0.854104 0.096399 0.575357
O O16 0.000000 0.167983 0.590536
O O17 0.250000 0.000000 0.598735
#
# Coordination Sequence:
#
# PCOD9501917 Si02
#       7
#    16  16  16  16  16  16  16
#     4   9  18  35  57  83 119 159 195 235 284 343
#     4   9  20  37  57  86 115 146 198 241 290 353
#     4  10  19  35  58  81 117 156 187 236 291 341
#     4  11  22  38  60  87 120 155 196 245 296 349
#     4  10  20  35  59  90 121 158 202 240 282 345
#     4  10  22  38  58  87 121 156 197 242 290 353
#     4  11  23  42  65  85 112 152 194 248 307 361
#
# _framework density 25.414176000000001
#
# number of rings (size 3 to 8) (size 9 to 14) (size 15 to 20)
#    0.000    2.000    4.286    0.857    0.000    6.571 
#    0.000    8.571    0.000    0.857    0.000    0.000 
#    0.000    0.000    0.000    0.000    0.000    0.000 
#
# Total GULP energy -312234.901200 kJ/mol
# GULP energy per Si atom -5575.623236 kJ/mol
# Density = 2.535633 g / cm^3
# Si number density = 25.414176 Si / 1000 Ang^3
#
#
#
# Elastic Constant Matrix: (Units=GPa)
#
#
# Indices 1 2 3 4 5 6 
#
# 1 105.6734 3.3074 -9.5024 0.0000 0.0000 0.0000
# 2 3.3074 105.4203 13.6746 0.0000 0.0000 0.0000
# 3 -9.5024 13.6746 131.6103 0.0000 0.0000 0.0000
# 4 0.0000 0.0000 0.0000 -12.5844 0.0000 0.0000
# 5 0.0000 0.0000 0.0000 0.0000 33.8991 0.0000
# 6 0.0000 0.0000 0.0000 0.0000 0.0000 -55.4297
#
#
#
# Elastic Compliance Matrix: (Units=1/GPa)
#
#
# Indices 1 2 3 4 5 6 
#
# 1 0.009541 -0.000394 0.000730 0.000000 0.000000 0.000000
# 2 -0.000394 0.009632 -0.001029 0.000000 0.000000 0.000000
# 3 0.000730 -0.001029 0.007758 0.000000 0.000000 0.000000
# 4 0.000000 0.000000 0.000000 -0.079463 0.000000 0.000000
# 5 0.000000 0.000000 0.000000 0.000000 0.029499 0.000000
# 6 0.000000 0.000000 0.000000 0.000000 0.000000 -0.018041
#
#
# Mechanical properties :
#
#
# Convention : Reuss Voigt Hill
#
# Bulk Modulus (GPa) = 39.14842 39.74035 39.44439
# Shear Modulus (GPa) = -160.39545 15.52529 -72.43508
#
# Velocity S-wave (km/s) = -7.95296 2.47430 -5.34450
# Velocity P-wave (km/s) = 8.30031 4.88200 4.74664
#
# Compressibility (1/GPa) = 0.02554381
#
# Stress axis : x y z
#
# Youngs Moduli (GPa) = 104.80999 103.82376 128.90224
#
# Poissons Ratio (x) = 0.04091 -0.09407
# Poissons Ratio (y) = 0.04130 0.13267
# Poissons Ratio (z) = -0.07649 0.10686
#
# Static dielectric constant tensor:
#      x y z
#    x 2.173700 0.000000 0.000000 
#    y 0.000000 2.082340 0.000000 
#    z 0.000000 0.000000 2.008890 
# 
# From -- ./inp_files/27734.got.cif
#   From: 2010.05.17/outbox.cif.g08.bks.cpg/sg67_14_cif.got.tgz:27734.got - 2010.06.03 18:28:57.
