data_PCOD9501690
_publ_section_title
;
Structure prediction by ZEFSAII (Michael W. Deem and Ramdas Pophale) SiO2 
 PCOD9501690
Probable space group: C M M A
;
_chemical_formula_sum "Si O2"
_cell_formula_units_Z 72
_cell_length_a 9.299337
_cell_length_b 23.222038
_cell_length_c 18.259720
_cell_angle_alpha 90.000000
_cell_angle_beta 90.000000
_cell_angle_gamma 90.000000
_cell_volume 3943.178448
_symmetry_space_group_name_H-M "C M M A"
_symmetry_group_IT_number 67
_symmetry_cell_setting 'orthorhombic'
loop_
_space_group_symop_operation_xyz
x,y,z
-x,1/2-y,z
x,-y,-z
-x,1/2+y,-z
-x,-y,-z
x,1/2+y,-z
-x,y,z
x,1/2-y,z
1/2+x,1/2+y,z
1/2-x,-y,z
1/2+x,1/2-y,-z
1/2-x,y,-z
1/2-x,1/2-y,-z
1/2+x,y,-z
1/2-x,1/2+y,z
1/2+x,-y,z
loop_
_atom_site_type_symbol
_atom_site_label
_atom_site_fract_x
_atom_site_fract_y
_atom_site_fract_z
Si Si1 0.161591 0.412740 0.430216
Si Si2 0.673166 0.062445 0.926781
Si Si3 0.169817 0.182972 0.655710
Si Si4 0.750000 0.500000 0.690420
Si Si5 0.661830 0.102951 0.207863
O O1 0.250000 0.433714 0.500000
O O2 0.238531 0.355921 0.399033
O O3 0.162304 0.459311 0.364833
O O4 0.000000 0.400441 0.452871
O O5 0.500000 0.057275 0.933758
O O6 0.720847 0.097805 0.855541
O O7 0.750000 0.000000 0.917008
O O8 0.750000 0.086270 0.000000
O O9 0.207734 0.250000 0.653723
O O10 0.188752 0.155197 0.736269
O O11 0.000000 0.176891 0.638514
O O12 0.668587 0.544896 0.742724
O O13 0.500000 0.107493 0.177121
#
# Coordination Sequence:
#
# PCOD9501690 Si02
#       5
#    16  16  16   8  16
#     4  11  23  37  55  80 108 143 181 223 273 326
#     4  11  21  33  51  77 112 148 181 216 259 312
#     4   9  20  39  60  81 106 139 180 226 274 322
#     4  10  21  34  55  78 110 140 178 216 267 324
#     4  10  19  33  55  81 110 141 175 218 267 321
#
# _framework density 18.25938
#
# number of rings (size 3 to 8) (size 9 to 14) (size 15 to 20)
#    0.000    1.778    1.111    4.333    0.000    8.000 
#    0.000    0.000    0.000    0.667    0.000    0.000 
#    0.000    0.000    0.000    0.000    0.000    0.000 
#
# Total GULP energy -200874.273050 kJ/mol
# GULP energy per Si atom -5579.840918 kJ/mol
# Density = 1.821782 g / cm^3
# Si number density = 18.259380 Si / 1000 Ang^3
#
#
#
# Elastic Constant Matrix: (Units=GPa)
#
#
# Indices 1 2 3 4 5 6 
#
# 1 138.6065 32.8696 58.9978 0.0000 0.0000 0.0000
# 2 32.8696 95.9610 26.7583 0.0000 0.0000 0.0000
# 3 58.9978 26.7583 90.7457 0.0000 0.0000 0.0000
# 4 0.0000 0.0000 0.0000 10.0733 0.0000 0.0000
# 5 0.0000 0.0000 0.0000 0.0000 28.0086 0.0000
# 6 0.0000 0.0000 0.0000 0.0000 0.0000 7.5836
#
#
#
# Elastic Compliance Matrix: (Units=1/GPa)
#
#
# Indices 1 2 3 4 5 6 
#
# 1 0.010253 -0.001801 -0.006135 0.000000 0.000000 0.000000
# 2 -0.001801 0.011671 -0.002270 0.000000 0.000000 0.000000
# 3 -0.006135 -0.002270 0.015678 0.000000 0.000000 0.000000
# 4 0.000000 0.000000 0.000000 0.099273 0.000000 0.000000
# 5 0.000000 0.000000 0.000000 0.000000 0.035703 0.000000
# 6 0.000000 0.000000 0.000000 0.000000 0.000000 0.131863
#
#
# Mechanical properties :
#
#
# Convention : Reuss Voigt Hill
#
# Bulk Modulus (GPa) = 58.17703 62.50717 60.34210
# Shear Modulus (GPa) = 15.12475 22.91226 19.01851
#
# Velocity S-wave (km/s) = 2.88119 3.54619 3.23084
# Velocity P-wave (km/s) = 6.55736 7.14664 6.85833
#
# Compressibility (1/GPa) = 0.01718892
#
# Stress axis : x y z
#
# Youngs Moduli (GPa) = 97.53095 85.68261 63.78442
#
# Poissons Ratio (x) = 0.15434 0.39131
# Poissons Ratio (y) = 0.17569 0.14481
# Poissons Ratio (z) = 0.59834 0.19453
#
# Static dielectric constant tensor:
#      x y z
#    x 1.632650 0.000000 0.000000 
#    y 0.000000 1.608140 0.000000 
#    z 0.000000 0.000000 1.650590 
# 
# From -- ./inp_files/31949.got.cif
#   From: 2010.05.17/outbox.cif.g08.bks.cpg/sg67_16_cif.got.tgz:31949.got - 2010.06.03 18:28:57.
