data_PCOD9501320
_publ_section_title
;
Structure prediction by ZEFSAII (Michael W. Deem and Ramdas Pophale) SiO2 
 PCOD9501320
Probable space group: C M M A
;
_chemical_formula_sum "Si O2"
_cell_formula_units_Z 96
_cell_length_a 26.663066
_cell_length_b 26.479041
_cell_length_c 8.011006
_cell_angle_alpha 90.000000
_cell_angle_beta 90.000000
_cell_angle_gamma 90.000000
_cell_volume 5655.869715
_symmetry_space_group_name_H-M "C M M A"
_symmetry_group_IT_number 67
_symmetry_cell_setting 'orthorhombic'
loop_
_space_group_symop_operation_xyz
x,y,z
-x,1/2-y,z
x,-y,-z
-x,1/2+y,-z
-x,-y,-z
x,1/2+y,-z
-x,y,z
x,1/2-y,z
1/2+x,1/2+y,z
1/2-x,-y,z
1/2+x,1/2-y,-z
1/2-x,y,-z
1/2-x,1/2-y,-z
1/2+x,y,-z
1/2-x,1/2+y,z
1/2+x,-y,z
loop_
_atom_site_type_symbol
_atom_site_label
_atom_site_fract_x
_atom_site_fract_y
_atom_site_fract_z
Si Si1 0.231317 0.052416 0.811665
Si Si2 0.208635 0.135676 0.381706
Si Si3 0.856652 0.446000 0.590790
Si Si4 0.889550 0.689667 0.717502
Si Si5 0.440409 0.190218 0.066093
Si Si6 0.059812 0.368212 0.592510
O O1 0.258525 0.101606 0.741185
O O2 0.172414 0.052571 0.768243
O O3 0.250000 0.000000 0.727713
O O4 0.250000 0.050274 0.000000
O O5 0.250000 0.161733 0.500000
O O6 0.176672 0.094095 0.485618
O O7 0.168096 0.172391 0.300988
O O8 0.856886 0.500000 0.500000
O O9 0.911321 0.421383 0.599008
O O10 0.894639 0.750000 0.702098
O O11 0.920030 0.662885 0.567573
O O12 0.911035 0.674510 0.899040
O O13 0.500000 0.183263 0.036827
O O14 0.431674 0.250000 0.091876
O O15 0.427041 0.161114 0.235726
O O16 0.000000 0.372985 0.582793
#
# Coordination Sequence:
#
# PCOD9501320 Si02
#       6
#    16  16  16  16  16  16
#     4  10  19  31  54  80 100 134 175 220 266 315
#     4   9  19  33  51  76 105 137 174 220 267 321
#     4  10  19  34  53  76 107 141 178 222 268 320
#     4  10  20  34  55  78 106 143 180 222 272 325
#     4   9  18  33  54  78 103 136 183 231 268 311
#     4  10  21  35  54  80 109 144 182 224 271 321
#
# _framework density 16.973516
#
# number of rings (size 3 to 8) (size 9 to 14) (size 15 to 20)
#    0.000    2.333    1.667    1.000    2.333    2.333 
#    0.000    0.000    0.000    0.500    0.000    8.167 
#    0.000    0.000    0.000    0.000    0.000    0.000 
#
# Total GULP energy -267307.875788 kJ/mol
# GULP energy per Si atom -5568.914079 kJ/mol
# Density = 1.693488 g / cm^3
# Si number density = 16.973516 Si / 1000 Ang^3
#
#
#
# Elastic Constant Matrix: (Units=GPa)
#
#
# Indices 1 2 3 4 5 6 
#
# 1 96.2562 35.2604 50.0512 0.0000 0.0000 0.0000
# 2 35.2604 45.3308 30.4177 0.0000 0.0000 0.0000
# 3 50.0512 30.4177 103.9306 0.0000 0.0000 0.0000
# 4 0.0000 0.0000 0.0000 16.5738 0.0000 0.0000
# 5 0.0000 0.0000 0.0000 0.0000 23.4235 0.0000
# 6 0.0000 0.0000 0.0000 0.0000 0.0000 24.8121
#
#
#
# Elastic Compliance Matrix: (Units=1/GPa)
#
#
# Indices 1 2 3 4 5 6 
#
# 1 0.016532 -0.009354 -0.005224 0.000000 0.000000 0.000000
# 2 -0.009354 0.032744 -0.005079 0.000000 0.000000 0.000000
# 3 -0.005224 -0.005079 0.013624 0.000000 0.000000 0.000000
# 4 0.000000 0.000000 0.000000 0.060336 0.000000 0.000000
# 5 0.000000 0.000000 0.000000 0.000000 0.042692 0.000000
# 6 0.000000 0.000000 0.000000 0.000000 0.000000 0.040303
#
#
# Mechanical properties :
#
#
# Convention : Reuss Voigt Hill
#
# Bulk Modulus (GPa) = 42.39646 52.99736 47.69691
# Shear Modulus (GPa) = 19.73125 21.61443 20.67284
#
# Velocity S-wave (km/s) = 3.41320 3.57237 3.49370
# Velocity P-wave (km/s) = 6.36911 6.95033 6.66606
#
# Compressibility (1/GPa) = 0.02358688
#
# Stress axis : x y z
#
# Youngs Moduli (GPa) = 60.48982 30.54023 73.40082
#
# Poissons Ratio (x) = 0.28567 0.38343
# Poissons Ratio (y) = 0.56582 0.37277
# Poissons Ratio (z) = 0.31598 0.15510
#
# Static dielectric constant tensor:
#      x y z
#    x 1.577370 0.000000 0.000000 
#    y 0.000000 1.566010 0.000000 
#    z 0.000000 0.000000 1.610600 
# 
# From -- ./inp_files/12605.got.cif
#   From: 2010.05.17/outbox.cif.g08.bks.cpg/sg67_7_cif.got.tgz:12605.got - 2010.06.03 18:28:57.
