data_PCOD9501179
_publ_section_title
;
Structure prediction by ZEFSAII (Michael W. Deem and Ramdas Pophale) SiO2 
 PCOD9501179
Probable space group: C M M A
;
_chemical_formula_sum "Si O2"
_cell_formula_units_Z 96
_cell_length_a 28.238074
_cell_length_b 8.729606
_cell_length_c 24.360324
_cell_angle_alpha 90.000000
_cell_angle_beta 90.000000
_cell_angle_gamma 90.000000
_cell_volume 6004.996727
_symmetry_space_group_name_H-M "C M M A"
_symmetry_group_IT_number 67
_symmetry_cell_setting 'orthorhombic'
loop_
_space_group_symop_operation_xyz
x,y,z
-x,1/2-y,z
x,-y,-z
-x,1/2+y,-z
-x,-y,-z
x,1/2+y,-z
-x,y,z
x,1/2-y,z
1/2+x,1/2+y,z
1/2-x,-y,z
1/2+x,1/2-y,-z
1/2-x,y,-z
1/2-x,1/2-y,-z
1/2+x,y,-z
1/2-x,1/2+y,z
1/2+x,-y,z
loop_
_atom_site_type_symbol
_atom_site_label
_atom_site_fract_x
_atom_site_fract_y
_atom_site_fract_z
Si Si1 0.446118 0.565501 0.773968
Si Si2 0.555230 0.933449 0.440199
Si Si3 0.197294 0.934590 0.941312
Si Si4 0.641941 0.434140 0.832686
Si Si5 0.890944 0.066211 0.663294
Si Si6 0.697799 0.566203 0.277327
O O1 0.500000 0.512009 0.780865
O O2 0.445776 0.750000 0.776540
O O3 0.409099 0.502044 0.818101
O O4 0.425588 0.522082 0.714030
O O5 0.500000 0.974275 0.429242
O O6 0.558912 0.750000 0.441159
O O7 0.567310 0.000000 0.500000
O O8 0.587784 0.001488 0.392653
O O9 0.199719 0.750000 0.943803
O O10 0.163814 0.980715 0.890852
O O11 0.250000 0.000000 0.931660
O O12 0.181226 0.000000 0.000000
O O13 0.638652 0.250000 0.832059
O O14 0.677067 0.478821 0.782722
O O15 0.888597 0.250000 0.661120
O O16 0.839827 0.998975 0.679119
O O17 0.698807 0.750000 0.280263
O O18 0.750000 0.500000 0.284692
#
# Coordination Sequence:
#
# PCOD9501179 Si02
#       6
#    16  16  16  16  16  16
#     4   9  18  31  48  71  97 125 157 193 235 282
#     4  10  20  33  50  73 100 130 163 199 239 282
#     4  10  19  31  47  69  95 123 156 192 234 281
#     4   9  19  32  47  69  96 125 157 194 235 281
#     4  10  19  32  50  72  99 129 160 196 238 283
#     4  10  19  32  49  71  98 127 160 196 237 283
#
# _framework density 15.986685
#
# number of rings (size 3 to 8) (size 9 to 14) (size 15 to 20)
#    0.000    2.333    0.000    3.500    0.000    4.667 
#    0.000    0.000    0.000    1.000    0.000    3.500 
#    0.000    0.000    0.000    0.000    0.000    0.000 
#
# Total GULP energy -267817.463611 kJ/mol
# GULP energy per Si atom -5579.530492 kJ/mol
# Density = 1.595030 g / cm^3
# Si number density = 15.986685 Si / 1000 Ang^3
#
#
#
# Elastic Constant Matrix: (Units=GPa)
#
#
# Indices 1 2 3 4 5 6 
#
# 1 151.4178 45.2666 96.2679 0.0000 0.0000 0.0000
# 2 45.2666 45.5393 44.6229 0.0000 0.0000 0.0000
# 3 96.2679 44.6229 140.5181 0.0000 0.0000 0.0000
# 4 0.0000 0.0000 0.0000 27.2812 0.0000 0.0000
# 5 0.0000 0.0000 0.0000 0.0000 26.3096 0.0000
# 6 0.0000 0.0000 0.0000 0.0000 0.0000 28.5699
#
#
#
# Elastic Compliance Matrix: (Units=1/GPa)
#
#
# Indices 1 2 3 4 5 6 
#
# 1 0.012726 -0.005962 -0.006825 0.000000 0.000000 0.000000
# 2 -0.005962 0.034672 -0.006926 0.000000 0.000000 0.000000
# 3 -0.006825 -0.006926 0.013992 0.000000 0.000000 0.000000
# 4 0.000000 0.000000 0.000000 0.036655 0.000000 0.000000
# 5 0.000000 0.000000 0.000000 0.000000 0.038009 0.000000
# 6 0.000000 0.000000 0.000000 0.000000 0.000000 0.035002
#
#
# Mechanical properties :
#
#
# Convention : Reuss Voigt Hill
#
# Bulk Modulus (GPa) = 45.52999 78.86554 62.19777
# Shear Modulus (GPa) = 22.95660 26.52000 24.73830
#
# Velocity S-wave (km/s) = 3.79355 4.07735 3.93801
# Velocity P-wave (km/s) = 6.90867 8.46201 7.72448
#
# Compressibility (1/GPa) = 0.02196354
#
# Stress axis : x y z
#
# Youngs Moduli (GPa) = 78.58060 28.84189 71.47073
#
# Poissons Ratio (x) = 0.17195 0.48779
# Poissons Ratio (y) = 0.46849 0.49500
# Poissons Ratio (z) = 0.53632 0.19976
#
# Static dielectric constant tensor:
#      x y z
#    x 1.513270 0.000000 0.000000 
#    y 0.000000 1.537220 0.000000 
#    z 0.000000 0.000000 1.519890 
# 
# From -- ./inp_files/39876.got.cif
#   From: 2010.05.17/outbox.cif.g08.bks.cpg/sg67_20_cif.got.tgz:39876.got - 2010.06.03 18:28:57.
