data_PCOD9501600
_publ_section_title
;
Structure prediction by ZEFSAII (Michael W. Deem and Ramdas Pophale) SiO2 
 PCOD9501600
Probable space group: C M M A
;
_chemical_formula_sum "Si O2"
_cell_formula_units_Z 104
_cell_length_a 9.529570
_cell_length_b 26.618134
_cell_length_c 22.280868
_cell_angle_alpha 90.000000
_cell_angle_beta 90.000000
_cell_angle_gamma 90.000000
_cell_volume 5651.750967
_symmetry_space_group_name_H-M "C M M A"
_symmetry_group_IT_number 67
_symmetry_cell_setting 'orthorhombic'
loop_
_space_group_symop_operation_xyz
x,y,z
-x,1/2-y,z
x,-y,-z
-x,1/2+y,-z
-x,-y,-z
x,1/2+y,-z
-x,y,z
x,1/2-y,z
1/2+x,1/2+y,z
1/2-x,-y,z
1/2+x,1/2-y,-z
1/2-x,y,-z
1/2-x,1/2-y,-z
1/2+x,y,-z
1/2-x,1/2+y,z
1/2+x,-y,z
loop_
_atom_site_type_symbol
_atom_site_label
_atom_site_fract_x
_atom_site_fract_y
_atom_site_fract_z
Si Si1 0.336045 0.250000 0.061170
Si Si2 0.161239 0.695578 0.759373
Si Si3 0.665395 0.092314 0.830403
Si Si4 0.830631 0.136894 0.936110
Si Si5 0.668139 0.451437 0.281906
Si Si6 0.000000 0.309677 0.556677
Si Si7 0.500000 0.811212 0.414093
Si Si8 0.274537 0.150400 0.353316
O O1 0.500000 0.250000 0.045663
O O2 0.311036 0.305431 0.088379
O O3 0.250000 0.250000 0.000000
O O4 0.185958 0.750000 0.787560
O O5 0.165256 0.648425 0.802757
O O6 0.269786 0.686119 0.705513
O O7 0.000000 0.696056 0.735668
O O8 0.500000 0.077187 0.836786
O O9 0.753022 0.098194 0.891623
O O10 0.752546 0.060842 0.781089
O O11 0.000000 0.128516 0.941125
O O12 0.750000 0.134654 0.000000
O O13 0.500000 0.458683 0.274260
O O14 0.750000 0.500000 0.306233
O O15 0.693178 0.404179 0.326123
O O16 0.000000 0.318505 0.485828
O O17 0.873808 0.333182 0.593396
O O18 0.000000 0.250000 0.564801
O O19 0.500000 0.750000 0.403705
O O20 0.372605 0.839739 0.383796
#
# Coordination Sequence:
#
# PCOD9501600 Si02
#       8
#     8  16  16  16  16   8   8  16
#     4   8  16  28  44  68 102 154 206 244 279 336
#     4   9  17  30  50  76 110 154 195 239 290 347
#     4  10  21  35  56  87 117 148 196 245 301 364
#     4  10  19  33  52  76 115 161 206 251 300 357
#     4  11  24  43  68  91 114 151 200 260 319 367
#     4  11  22  36  57  93 133 169 207 244 290 350
#     4  11  22  36  61  91 129 177 209 238 284 356
#     4  11  21  37  59  88 123 160 209 253 301 359
#
# _framework density 18.401377
#
# number of rings (size 3 to 8) (size 9 to 14) (size 15 to 20)
#    0.000    1.846    1.538    3.231    3.231    1.846 
#    0.000    0.000    0.000    3.231    0.000    3.231 
#    0.000    0.000    0.000    0.000    0.000    0.000 
#
# Total GULP energy -289544.054695 kJ/mol
# GULP energy per Si atom -5568.154898 kJ/mol
# Density = 1.835950 g / cm^3
# Si number density = 18.401377 Si / 1000 Ang^3
#
#
#
# Elastic Constant Matrix: (Units=GPa)
#
#
# Indices 1 2 3 4 5 6 
#
# 1 140.9853 31.7338 41.1399 0.0000 0.0000 0.0000
# 2 31.7338 70.9271 17.6756 0.0000 0.0000 0.0000
# 3 41.1399 17.6756 73.2506 0.0000 0.0000 0.0000
# 4 0.0000 0.0000 0.0000 31.2663 0.0000 0.0000
# 5 0.0000 0.0000 0.0000 0.0000 3.7247 0.0000
# 6 0.0000 0.0000 0.0000 0.0000 0.0000 19.6459
#
#
#
# Elastic Compliance Matrix: (Units=1/GPa)
#
#
# Indices 1 2 3 4 5 6 
#
# 1 0.009030 -0.002954 -0.004359 0.000000 0.000000 0.000000
# 2 -0.002954 0.015967 -0.002194 0.000000 0.000000 0.000000
# 3 -0.004359 -0.002194 0.016629 0.000000 0.000000 0.000000
# 4 0.000000 0.000000 0.000000 0.031983 0.000000 0.000000
# 5 0.000000 0.000000 0.000000 0.000000 0.268478 0.000000
# 6 0.000000 0.000000 0.000000 0.000000 0.000000 0.050901
#
#
# Mechanical properties :
#
#
# Convention : Reuss Voigt Hill
#
# Bulk Modulus (GPa) = 44.22180 51.80685 48.01433
# Shear Modulus (GPa) = 11.91783 23.90164 17.90974
#
# Velocity S-wave (km/s) = 2.54768 3.60794 3.12313
# Velocity P-wave (km/s) = 5.72173 6.75065 6.25737
#
# Compressibility (1/GPa) = 0.02261328
#
# Stress axis : x y z
#
# Youngs Moduli (GPa) = 110.74643 62.62789 60.13556
#
# Poissons Ratio (x) = 0.18499 0.26210
# Poissons Ratio (y) = 0.32712 0.13194
# Poissons Ratio (z) = 0.48270 0.13741
#
# Static dielectric constant tensor:
#      x y z
#    x 1.607020 0.000000 0.000000 
#    y 0.000000 1.644210 0.000000 
#    z 0.000000 0.000000 1.716900 
# 
# From -- ./inp_files/41055.got.cif
#   From: 2010.05.17/outbox.cif.g08.bks.cpg/sg67_21_cif.got.tgz:41055.got - 2010.06.03 18:28:57.
