data_PCOD9501528
_publ_section_title
;
Structure prediction by ZEFSAII (Michael W. Deem and Ramdas Pophale) SiO2 
 PCOD9501528
Probable space group: C M M A
;
_chemical_formula_sum "Si O2"
_cell_formula_units_Z 88
_cell_length_a 8.024185
_cell_length_b 16.245339
_cell_length_c 32.342622
_cell_angle_alpha 90.000000
_cell_angle_beta 90.000000
_cell_angle_gamma 90.000000
_cell_volume 4216.042075
_symmetry_space_group_name_H-M "C M M A"
_symmetry_group_IT_number 67
_symmetry_cell_setting 'orthorhombic'
loop_
_space_group_symop_operation_xyz
x,y,z
-x,1/2-y,z
x,-y,-z
-x,1/2+y,-z
-x,-y,-z
x,1/2+y,-z
-x,y,z
x,1/2-y,z
1/2+x,1/2+y,z
1/2-x,-y,z
1/2+x,1/2-y,-z
1/2-x,y,-z
1/2-x,1/2-y,-z
1/2+x,y,-z
1/2-x,1/2+y,z
1/2+x,-y,z
loop_
_atom_site_type_symbol
_atom_site_label
_atom_site_fract_x
_atom_site_fract_y
_atom_site_fract_z
Si Si1 0.698339 0.903389 0.455954
Si Si2 0.190316 0.652784 0.720306
Si Si3 0.696857 0.596184 0.898700
Si Si4 0.298267 0.904596 0.367226
Si Si5 0.699640 0.405046 0.807920
Si Si6 0.297946 0.750000 0.952226
O O1 0.500000 0.900842 0.454907
O O2 0.750000 0.866217 0.500000
O O3 0.760110 0.868846 0.411661
O O4 0.750000 0.000000 0.456724
O O5 0.178219 0.750000 0.719352
O O6 0.268787 0.627029 0.676665
O O7 0.266843 0.629564 0.764479
O O8 0.000000 0.617621 0.720735
O O9 0.500000 0.594089 0.903660
O O10 0.750000 0.500000 0.903793
O O11 0.735855 0.626088 0.851955
O O12 0.764057 0.666042 0.929822
O O13 0.500000 0.893989 0.366360
O O14 0.250000 0.000000 0.368470
O O15 0.500000 0.394402 0.808513
O O16 0.750000 0.500000 0.807552
O O17 0.500000 0.750000 0.948999
O O18 0.250000 0.750000 0.000000
#
# Coordination Sequence:
#
# PCOD9501528 Si02
#       6
#    16  16  16  16  16   8
#     4   9  15  23  38  61  85 111 145 188 240 289
#     4   9  18  31  47  70  98 128 166 207 246 297
#     4  10  21  39  60  86 118 153 190 233 281 331
#     4   9  17  29  46  66  90 121 155 196 244 294
#     4  10  19  32  54  80 105 137 175 217 263 311
#     4  10  24  42  62  88 120 156 194 236 283 330
#
# _framework density 20.872658000000001
#
# number of rings (size 3 to 8) (size 9 to 14) (size 15 to 20)
#    0.000    2.545    0.000    3.818    1.273    2.545 
#    0.000    2.727    0.000    3.273    0.000    0.000 
#    0.000    0.000    0.000    0.000    0.000    4.909 
#
# Total GULP energy -244982.151460 kJ/mol
# GULP energy per Si atom -5567.776170 kJ/mol
# Density = 2.082515 g / cm^3
# Si number density = 20.872658 Si / 1000 Ang^3
#
#
#
# Elastic Constant Matrix: (Units=GPa)
#
#
# Indices 1 2 3 4 5 6 
#
# 1 25.0948 5.9067 9.0424 0.0000 0.0000 0.0000
# 2 5.9067 51.8903 81.1401 0.0000 0.0000 0.0000
# 3 9.0424 81.1401 247.6163 0.0000 0.0000 0.0000
# 4 0.0000 0.0000 0.0000 6.0652 0.0000 0.0000
# 5 0.0000 0.0000 0.0000 0.0000 -12.2234 0.0000
# 6 0.0000 0.0000 0.0000 0.0000 0.0000 11.5054
#
#
#
# Elastic Compliance Matrix: (Units=1/GPa)
#
#
# Indices 1 2 3 4 5 6 
#
# 1 0.040946 -0.004764 0.000066 0.000000 0.000000 0.000000
# 2 -0.004764 0.040077 -0.012959 0.000000 0.000000 0.000000
# 3 0.000066 -0.012959 0.008282 0.000000 0.000000 0.000000
# 4 0.000000 0.000000 0.000000 0.164874 0.000000 0.000000
# 5 0.000000 0.000000 0.000000 0.000000 -0.081810 0.000000
# 6 0.000000 0.000000 0.000000 0.000000 0.000000 0.086916
#
#
# Mechanical properties :
#
#
# Convention : Reuss Voigt Hill
#
# Bulk Modulus (GPa) = 18.52105 57.41998 37.97051
# Shear Modulus (GPa) = 15.99508 16.30360 16.14934
#
# Velocity S-wave (km/s) = 2.77125 2.79785 2.78458
# Velocity P-wave (km/s) = 4.37406 6.16495 5.34504
#
# Compressibility (1/GPa) = 0.05399263
#
# Stress axis : x y z
#
# Youngs Moduli (GPa) = 24.42213 24.95206 120.73721
#
# Poissons Ratio (x) = 0.11886 -0.00793
# Poissons Ratio (y) = 0.11634 1.56459
# Poissons Ratio (z) = -0.00160 0.32334
#
# Static dielectric constant tensor:
#      x y z
#    x 1.779470 0.000000 0.000000 
#    y 0.000000 1.734910 0.000000 
#    z 0.000000 0.000000 1.841110 
# 
# From -- ./inp_files/45231.got.cif
#   From: 2010.05.17/outbox.cif.g08.bks.cpg/sg67_23_cif.got.tgz:45231.got - 2010.06.03 18:28:57.
