data_PCOD9501168
_publ_section_title
;
Structure prediction by ZEFSAII (Michael W. Deem and Ramdas Pophale) SiO2 
 PCOD9501168
Probable space group: C M M A
;
_chemical_formula_sum "Si O2"
_cell_formula_units_Z 80
_cell_length_a 7.724604
_cell_length_b 19.549444
_cell_length_c 26.696508
_cell_angle_alpha 90.000000
_cell_angle_beta 90.000000
_cell_angle_gamma 90.000000
_cell_volume 4031.485413
_symmetry_space_group_name_H-M "C M M A"
_symmetry_group_IT_number 67
_symmetry_cell_setting 'orthorhombic'
loop_
_space_group_symop_operation_xyz
x,y,z
-x,1/2-y,z
x,-y,-z
-x,1/2+y,-z
-x,-y,-z
x,1/2+y,-z
-x,y,z
x,1/2-y,z
1/2+x,1/2+y,z
1/2-x,-y,z
1/2+x,1/2-y,-z
1/2-x,y,-z
1/2-x,1/2-y,-z
1/2+x,y,-z
1/2-x,1/2+y,z
1/2+x,-y,z
loop_
_atom_site_type_symbol
_atom_site_label
_atom_site_fract_x
_atom_site_fract_y
_atom_site_fract_z
Si Si1 0.208167 0.671986 0.556815
Si Si2 0.211317 0.329016 0.259272
Si Si3 0.704580 0.579806 0.055945
Si Si4 0.788404 0.328882 0.146529
Si Si5 0.291549 0.579870 0.351747
O O1 0.272597 0.750000 0.564519
O O2 0.250000 0.651372 0.500000
O O3 0.272798 0.619856 0.598907
O O4 0.000000 0.674506 0.560931
O O5 0.262356 0.250000 0.268937
O O6 0.266237 0.348338 0.202894
O O7 0.271737 0.380279 0.302273
O O8 0.000000 0.329489 0.259605
O O9 0.500000 0.584718 0.059637
O O10 0.750000 0.500000 0.059898
O O11 0.778025 0.623396 0.101969
O O12 0.750000 0.604045 0.000000
O O13 0.739257 0.250000 0.138122
O O14 0.000000 0.330862 0.146591
O O15 0.500000 0.585511 0.351641
O O16 0.250000 0.500000 0.351823
#
# Coordination Sequence:
#
# PCOD9501168 Si02
#       5
#    16  16  16  16  16
#     4   9  18  33  52  72  93 121 159 197 231 271
#     4   8  14  28  50  71  91 119 156 194 229 270
#     4  10  19  31  47  67  93 124 156 189 227 274
#     4   8  15  28  47  71  94 117 151 194 235 273
#     4  10  20  32  48  72  99 125 154 190 232 276
#
# _framework density 19.843803000000001
#
# number of rings (size 3 to 8) (size 9 to 14) (size 15 to 20)
#    0.000    3.000    0.000    3.000    0.000    4.800 
#    0.000    2.000    0.000    4.800    0.000    5.600 
#    0.000    0.000    0.000    0.000    0.000    0.000 
#
# Total GULP energy -223084.853988 kJ/mol
# GULP energy per Si atom -5577.121350 kJ/mol
# Density = 1.979864 g / cm^3
# Si number density = 19.843803 Si / 1000 Ang^3
#
#
#
# Elastic Constant Matrix: (Units=GPa)
#
#
# Indices 1 2 3 4 5 6 
#
# 1 31.2599 3.7455 9.0500 0.0000 0.0000 0.0000
# 2 3.7455 128.0642 146.8350 0.0000 0.0000 0.0000
# 3 9.0500 146.8350 231.4718 0.0000 0.0000 0.0000
# 4 0.0000 0.0000 0.0000 2.6586 0.0000 0.0000
# 5 0.0000 0.0000 0.0000 0.0000 7.2130 0.0000
# 6 0.0000 0.0000 0.0000 0.0000 0.0000 15.0177
#
#
#
# Elastic Compliance Matrix: (Units=1/GPa)
#
#
# Indices 1 2 3 4 5 6 
#
# 1 0.032476 0.001856 -0.002447 0.000000 0.000000 0.000000
# 2 0.001856 0.028744 -0.018306 0.000000 0.000000 0.000000
# 3 -0.002447 -0.018306 0.016029 0.000000 0.000000 0.000000
# 4 0.000000 0.000000 0.000000 0.376141 0.000000 0.000000
# 5 0.000000 0.000000 0.000000 0.000000 0.138638 0.000000
# 6 0.000000 0.000000 0.000000 0.000000 0.000000 0.066588
#
#
# Mechanical properties :
#
#
# Convention : Reuss Voigt Hill
#
# Bulk Modulus (GPa) = 25.34641 78.89522 52.12081
# Shear Modulus (GPa) = 7.04660 20.38888 13.71774
#
# Velocity S-wave (km/s) = 1.88646 3.20889 2.63208
# Velocity P-wave (km/s) = 4.18876 7.31941 5.96320
#
# Compressibility (1/GPa) = 0.03945332
#
# Stress axis : x y z
#
# Youngs Moduli (GPa) = 30.79204 34.79001 62.38866
#
# Poissons Ratio (x) = -0.06456 0.15266
# Poissons Ratio (y) = -0.05714 1.14211
# Poissons Ratio (z) = 0.07535 0.63688
#
# Static dielectric constant tensor:
#      x y z
#    x 1.766190 0.000000 0.000000 
#    y 0.000000 1.689510 0.000000 
#    z 0.000000 0.000000 1.715850 
# 
# From -- ./inp_files/43337.got.cif
#   From: 2010.05.17/outbox.cif.g08.bks.cpg/sg67_22_cif.got.tgz:43337.got - 2010.06.03 18:28:57.
