data_PCOD9501125
_publ_section_title
;
Structure prediction by ZEFSAII (Michael W. Deem and Ramdas Pophale) SiO2 
 PCOD9501125
Probable space group: C M M A
;
_chemical_formula_sum "Si O2"
_cell_formula_units_Z 104
_cell_length_a 27.432947
_cell_length_b 8.712847
_cell_length_c 24.690837
_cell_angle_alpha 90.000000
_cell_angle_beta 90.000000
_cell_angle_gamma 90.000000
_cell_volume 5901.580897
_symmetry_space_group_name_H-M "C M M A"
_symmetry_group_IT_number 67
_symmetry_cell_setting 'orthorhombic'
loop_
_space_group_symop_operation_xyz
x,y,z
-x,1/2-y,z
x,-y,-z
-x,1/2+y,-z
-x,-y,-z
x,1/2+y,-z
-x,y,z
x,1/2-y,z
1/2+x,1/2+y,z
1/2-x,-y,z
1/2+x,1/2-y,-z
1/2-x,y,-z
1/2-x,1/2-y,-z
1/2+x,y,-z
1/2-x,1/2+y,z
1/2+x,-y,z
loop_
_atom_site_type_symbol
_atom_site_label
_atom_site_fract_x
_atom_site_fract_y
_atom_site_fract_z
Si Si1 0.000000 0.563821 0.560344
Si Si2 0.057444 0.575155 0.274750
Si Si3 0.302329 0.432627 0.352604
Si Si4 0.556497 0.935322 0.941721
Si Si5 0.401733 0.929934 0.377238
Si Si6 0.698790 0.067768 0.768424
Si Si7 0.388769 0.432237 0.165622
O O1 0.000000 0.500000 0.500000
O O2 0.050345 0.514365 0.589928
O O3 0.000000 0.750000 0.560935
O O4 0.073280 0.750000 0.288926
O O5 0.083843 0.459188 0.314712
O O6 0.070386 0.551235 0.212266
O O7 0.000000 0.563906 0.282797
O O8 0.299569 0.250000 0.352203
O O9 0.250000 0.500000 0.370905
O O10 0.349956 0.487340 0.385572
O O11 0.309413 0.491894 0.290702
O O12 0.500000 0.981713 0.932343
O O13 0.557466 0.750000 0.943285
O O14 0.590254 0.984787 0.891830
O O15 0.571521 0.000000 0.000000
O O16 0.395427 0.750000 0.387607
O O17 0.701438 0.250000 0.761350
O O18 0.750000 0.000000 0.788045
O O19 0.657080 0.021076 0.810295
O O20 0.377322 0.250000 0.162127
#
# Coordination Sequence:
#
# PCOD9501125 Si02
#       7
#     8  16  16  16  16  16  16
#     4  10  24  42  62  86 118 156 197 236 277 326
#     4  10  19  30  48  76 108 144 180 217 269 331
#     4  11  21  35  55  82 113 151 189 229 278 337
#     4   9  18  33  52  73 101 137 177 221 263 315
#     4  11  21  36  55  82 116 150 185 233 280 323
#     4  11  21  33  50  74 106 141 176 218 267 325
#     4  10  19  32  50  74 105 139 178 220 269 324
#
# _framework density 17.622396999999999
#
# number of rings (size 3 to 8) (size 9 to 14) (size 15 to 20)
#    0.000    1.692    2.308    4.615    0.000    3.692 
#    0.000    0.000    0.000    3.692    0.000    6.462 
#    0.000    0.000    0.000    0.000    0.000    0.000 
#
# Total GULP energy -290181.671143 kJ/mol
# GULP energy per Si atom -5580.416753 kJ/mol
# Density = 1.758229 g / cm^3
# Si number density = 17.622397 Si / 1000 Ang^3
#
#
#
# Elastic Constant Matrix: (Units=GPa)
#
#
# Indices 1 2 3 4 5 6 
#
# 1 134.6303 51.2362 44.0112 0.0000 0.0000 0.0000
# 2 51.2362 78.4445 21.4249 0.0000 0.0000 0.0000
# 3 44.0112 21.4249 59.0719 0.0000 0.0000 0.0000
# 4 0.0000 0.0000 0.0000 21.2452 0.0000 0.0000
# 5 0.0000 0.0000 0.0000 0.0000 12.9096 0.0000
# 6 0.0000 0.0000 0.0000 0.0000 0.0000 24.9444
#
#
#
# Elastic Compliance Matrix: (Units=1/GPa)
#
#
# Indices 1 2 3 4 5 6 
#
# 1 0.011872 -0.005925 -0.006696 0.000000 0.000000 0.000000
# 2 -0.005925 0.017107 -0.001790 0.000000 0.000000 0.000000
# 3 -0.006696 -0.001790 0.022566 0.000000 0.000000 0.000000
# 4 0.000000 0.000000 0.000000 0.047069 0.000000 0.000000
# 5 0.000000 0.000000 0.000000 0.000000 0.077462 0.000000
# 6 0.000000 0.000000 0.000000 0.000000 0.000000 0.040089
#
#
# Mechanical properties :
#
#
# Convention : Reuss Voigt Hill
#
# Bulk Modulus (GPa) = 44.00862 56.16569 50.08715
# Shear Modulus (GPa) = 19.79718 22.18481 20.99100
#
# Velocity S-wave (km/s) = 3.35537 3.55195 3.45505
# Velocity P-wave (km/s) = 6.32761 6.98303 6.66338
#
# Compressibility (1/GPa) = 0.02272282
#
# Stress axis : x y z
#
# Youngs Moduli (GPa) = 84.23475 58.45630 44.31363
#
# Poissons Ratio (x) = 0.34636 0.29672
# Poissons Ratio (y) = 0.49911 0.07932
# Poissons Ratio (z) = 0.56402 0.10464
#
# Static dielectric constant tensor:
#      x y z
#    x 1.639320 0.000000 0.000000 
#    y 0.000000 1.631770 0.000000 
#    z 0.000000 0.000000 1.571750 
# 
# From -- ./inp_files/42764.got.cif
#   From: 2010.05.17/outbox.cif.g08.bks.cpg/sg67_22_cif.got.tgz:42764.got - 2010.06.03 18:28:57.
