data_PCOD9501533
_publ_section_title
;
Structure prediction by ZEFSAII (Michael W. Deem and Ramdas Pophale) SiO2 
 PCOD9501533
Probable space group: C M M A
;
_chemical_formula_sum "Si O2"
_cell_formula_units_Z 96
_cell_length_a 29.480767
_cell_length_b 8.820004
_cell_length_c 21.040881
_cell_angle_alpha 90.000000
_cell_angle_beta 90.000000
_cell_angle_gamma 90.000000
_cell_volume 5471.060037
_symmetry_space_group_name_H-M "C M M A"
_symmetry_group_IT_number 67
_symmetry_cell_setting 'orthorhombic'
loop_
_space_group_symop_operation_xyz
x,y,z
-x,1/2-y,z
x,-y,-z
-x,1/2+y,-z
-x,-y,-z
x,1/2+y,-z
-x,y,z
x,1/2-y,z
1/2+x,1/2+y,z
1/2-x,-y,z
1/2+x,1/2-y,-z
1/2-x,y,-z
1/2-x,1/2-y,-z
1/2+x,y,-z
1/2-x,1/2+y,z
1/2+x,-y,z
loop_
_atom_site_type_symbol
_atom_site_label
_atom_site_fract_x
_atom_site_fract_y
_atom_site_fract_z
Si Si1 0.702878 0.931842 0.381334
Si Si2 0.894710 0.431012 0.433223
Si Si3 0.606262 0.932345 0.814431
Si Si4 0.946971 0.067460 0.686440
Si Si5 0.447400 0.068736 0.931363
Si Si6 0.702887 0.432010 0.239764
O O1 0.706565 0.750000 0.377462
O O2 0.658063 0.972048 0.420633
O O3 0.750000 0.000000 0.406675
O O4 0.696722 0.999042 0.310362
O O5 0.909847 0.500000 0.500000
O O6 0.898044 0.250000 0.435099
O O7 0.923461 0.493515 0.374371
O O8 0.602529 0.750000 0.820286
O O9 0.578569 0.978123 0.751126
O O10 0.658856 0.969841 0.801772
O O11 0.584546 0.007566 0.875939
O O12 0.942962 0.250000 0.681001
O O13 0.000000 0.028516 0.689946
O O14 0.500000 0.025323 0.917731
O O15 0.445046 0.250000 0.934553
O O16 0.435611 0.000000 0.000000
O O17 0.706117 0.250000 0.245292
O O18 0.750000 0.500000 0.214664
#
# Coordination Sequence:
#
# PCOD9501533 Si02
#       6
#    16  16  16  16  16  16
#     4  10  20  34  54  79 106 138 175 221 274 328
#     4  11  24  39  56  77 105 141 181 227 278 332
#     4  10  20  35  58  85 114 148 183 223 272 324
#     4  10  21  38  59  81 107 141 181 226 275 327
#     4  10  21  36  56  84 118 154 189 227 271 321
#     4  10  19  32  54  82 112 145 179 221 270 322
#
# _framework density 17.546873999999999
#
# number of rings (size 3 to 8) (size 9 to 14) (size 15 to 20)
#    0.000    1.833    1.667    3.500    0.000    6.667 
#    0.000    1.667    0.000    0.500    0.000    3.500 
#    0.000    0.000    0.000    0.000    0.000    0.000 
#
# Total GULP energy -268106.958838 kJ/mol
# GULP energy per Si atom -5585.561642 kJ/mol
# Density = 1.750694 g / cm^3
# Si number density = 17.546874 Si / 1000 Ang^3
#
#
#
# Elastic Constant Matrix: (Units=GPa)
#
#
# Indices 1 2 3 4 5 6 
#
# 1 127.6541 47.7093 78.2260 0.0000 0.0000 0.0000
# 2 47.7093 41.2111 40.2864 0.0000 0.0000 0.0000
# 3 78.2260 40.2864 126.9140 0.0000 0.0000 0.0000
# 4 0.0000 0.0000 0.0000 21.2746 0.0000 0.0000
# 5 0.0000 0.0000 0.0000 0.0000 11.6866 0.0000
# 6 0.0000 0.0000 0.0000 0.0000 0.0000 27.1602
#
#
#
# Elastic Compliance Matrix: (Units=1/GPa)
#
#
# Indices 1 2 3 4 5 6 
#
# 1 0.016387 -0.013190 -0.005914 0.000000 0.000000 0.000000
# 2 -0.013190 0.045800 -0.006408 0.000000 0.000000 0.000000
# 3 -0.005914 -0.006408 0.013558 0.000000 0.000000 0.000000
# 4 0.000000 0.000000 0.000000 0.047004 0.000000 0.000000
# 5 0.000000 0.000000 0.000000 0.000000 0.085568 0.000000
# 6 0.000000 0.000000 0.000000 0.000000 0.000000 0.036819
#
#
# Mechanical properties :
#
#
# Convention : Reuss Voigt Hill
#
# Bulk Modulus (GPa) = 40.45079 69.80251 55.12665
# Shear Modulus (GPa) = 16.42572 20.66145 18.54358
#
# Velocity S-wave (km/s) = 3.06290 3.43520 3.25438
# Velocity P-wave (km/s) = 5.96754 7.45661 6.75324
#
# Compressibility (1/GPa) = 0.02472139
#
# Stress axis : x y z
#
# Youngs Moduli (GPa) = 61.02324 21.83419 73.75459
#
# Poissons Ratio (x) = 0.28800 0.43616
# Poissons Ratio (y) = 0.80491 0.47263
# Poissons Ratio (z) = 0.36087 0.13992
#
# Static dielectric constant tensor:
#      x y z
#    x 1.606550 0.000000 0.000000 
#    y 0.000000 1.587020 0.000000 
#    z 0.000000 0.000000 1.557720 
# 
# From -- ./inp_files/37126.got.cif
#   From: 2010.05.17/outbox.cif.g08.bks.cpg/sg67_19_cif.got.tgz:37126.got - 2010.06.03 18:28:57.
