data_PCOD9501394
_publ_section_title
;
Structure prediction by ZEFSAII (Michael W. Deem and Ramdas Pophale) SiO2 
 PCOD9501394
Probable space group: C M M A
;
_chemical_formula_sum "Si O2"
_cell_formula_units_Z 72
_cell_length_a 10.385009
_cell_length_b 26.748938
_cell_length_c 14.564080
_cell_angle_alpha 90.000000
_cell_angle_beta 90.000000
_cell_angle_gamma 90.000000
_cell_volume 4045.726100
_symmetry_space_group_name_H-M "C M M A"
_symmetry_group_IT_number 67
_symmetry_cell_setting 'orthorhombic'
loop_
_space_group_symop_operation_xyz
x,y,z
-x,1/2-y,z
x,-y,-z
-x,1/2+y,-z
-x,-y,-z
x,1/2+y,-z
-x,y,z
x,1/2-y,z
1/2+x,1/2+y,z
1/2-x,-y,z
1/2+x,1/2-y,-z
1/2-x,y,-z
1/2-x,1/2-y,-z
1/2+x,y,-z
1/2-x,1/2+y,z
1/2+x,-y,z
loop_
_atom_site_type_symbol
_atom_site_label
_atom_site_fract_x
_atom_site_fract_y
_atom_site_fract_z
Si Si1 0.655180 0.750000 0.413610
Si Si2 0.500000 0.942496 0.097673
Si Si3 0.346047 0.345255 0.714771
Si Si4 0.252990 0.559656 0.223593
Si Si5 0.000000 0.438124 0.891519
Si Si6 0.651833 0.810153 0.078735
O O1 0.500000 0.750000 0.434566
O O2 0.750000 0.750000 0.500000
O O3 0.682690 0.799706 0.353443
O O4 0.627674 0.931352 0.154590
O O5 0.500000 0.002294 0.094720
O O6 0.500000 0.920200 0.996062
O O7 0.500000 0.352896 0.710604
O O8 0.276748 0.398604 0.698678
O O9 0.313478 0.327777 0.818635
O O10 0.250000 0.500000 0.247968
O O11 0.125275 0.573042 0.167610
O O12 0.500000 0.821517 0.063421
O O13 0.660951 0.750000 0.078838
O O14 0.750000 0.829040 0.000000
#
# Coordination Sequence:
#
# PCOD9501394 Si02
#       6
#     8   8  16  16   8  16
#     4  10  22  44  71  92 110 136 177 232 293 354
#     4   9  16  30  46  67 105 156 206 237 274 316
#     4  10  19  37  61  81 110 151 189 225 277 344
#     4  10  19  32  50  75 108 151 194 233 278 325
#     4   9  18  28  44  71 107 150 202 253 268 294
#     4   9  17  31  50  75 108 149 189 224 266 321
#
# _framework density 17.796558999999998
#
# number of rings (size 3 to 8) (size 9 to 14) (size 15 to 20)
#    0.000    2.444    2.222    0.667    0.000    4.444 
#    4.000    0.000    0.000    0.667    0.000    3.111 
#    0.000    0.000    0.000    0.000    0.000    0.000 
#
# Total GULP energy -200578.433047 kJ/mol
# GULP energy per Si atom -5571.623140 kJ/mol
# Density = 1.775605 g / cm^3
# Si number density = 17.796559 Si / 1000 Ang^3
#
#
#
# Elastic Constant Matrix: (Units=GPa)
#
#
# Indices 1 2 3 4 5 6 
#
# 1 103.4680 42.3436 45.3831 0.0000 0.0000 0.0000
# 2 42.3436 139.5194 61.6600 0.0000 0.0000 0.0000
# 3 45.3831 61.6600 80.9887 0.0000 0.0000 0.0000
# 4 0.0000 0.0000 0.0000 8.9919 0.0000 0.0000
# 5 0.0000 0.0000 0.0000 0.0000 23.8732 0.0000
# 6 0.0000 0.0000 0.0000 0.0000 0.0000 27.2890
#
#
#
# Elastic Compliance Matrix: (Units=1/GPa)
#
#
# Indices 1 2 3 4 5 6 
#
# 1 0.012923 -0.001088 -0.006414 0.000000 0.000000 0.000000
# 2 -0.001088 0.010894 -0.007684 0.000000 0.000000 0.000000
# 3 -0.006414 -0.007684 0.021792 0.000000 0.000000 0.000000
# 4 0.000000 0.000000 0.000000 0.111211 0.000000 0.000000
# 5 0.000000 0.000000 0.000000 0.000000 0.041888 0.000000
# 6 0.000000 0.000000 0.000000 0.000000 0.000000 0.036645
#
#
# Mechanical properties :
#
#
# Convention : Reuss Voigt Hill
#
# Bulk Modulus (GPa) = 65.62796 69.19440 67.41118
# Shear Modulus (GPa) = 18.46365 23.67012 21.06689
#
# Velocity S-wave (km/s) = 3.22449 3.65093 3.44432
# Velocity P-wave (km/s) = 7.12881 7.53243 7.33340
#
# Compressibility (1/GPa) = 0.01523741
#
# Stress axis : x y z
#
# Youngs Moduli (GPa) = 77.38118 91.79717 45.88918
#
# Poissons Ratio (x) = 0.09985 0.29431
# Poissons Ratio (y) = 0.08417 0.35262
# Poissons Ratio (z) = 0.49628 0.70539
#
# Static dielectric constant tensor:
#      x y z
#    x -6.175290 0.000000 0.000000 
#    y 0.000000 1.694750 0.000000 
#    z 0.000000 0.000000 1.587860 
# 
# From -- ./inp_files/25334.got.cif
#   From: 2010.05.17/outbox.cif.g08.bks.cpg/sg67_13_cif.got.tgz:25334.got - 2010.06.03 18:28:57.
