data_PCOD9501095
_publ_section_title
;
Structure prediction by ZEFSAII (Michael W. Deem and Ramdas Pophale) SiO2 
 PCOD9501095
Probable space group: C M M A
;
_chemical_formula_sum "Si O2"
_cell_formula_units_Z 104
_cell_length_a 27.909638
_cell_length_b 7.769502
_cell_length_c 24.793961
_cell_angle_alpha 90.000000
_cell_angle_beta 90.000000
_cell_angle_gamma 90.000000
_cell_volume 5376.421388
_symmetry_space_group_name_H-M "C M M A"
_symmetry_group_IT_number 67
_symmetry_cell_setting 'orthorhombic'
loop_
_space_group_symop_operation_xyz
x,y,z
-x,1/2-y,z
x,-y,-z
-x,1/2+y,-z
-x,-y,-z
x,1/2+y,-z
-x,y,z
x,1/2-y,z
1/2+x,1/2+y,z
1/2-x,-y,z
1/2+x,1/2-y,-z
1/2-x,y,-z
1/2-x,1/2-y,-z
1/2+x,y,-z
1/2-x,1/2+y,z
1/2+x,-y,z
loop_
_atom_site_type_symbol
_atom_site_label
_atom_site_fract_x
_atom_site_fract_y
_atom_site_fract_z
Si Si1 0.000000 0.542666 0.937277
Si Si2 0.554666 0.042465 0.438734
Si Si3 0.405886 0.043898 0.873838
Si Si4 0.803006 0.546068 0.141817
Si Si5 0.388134 0.550864 0.661632
Si Si6 0.055347 0.543976 0.761838
Si Si7 0.303210 0.042709 0.264985
O O1 0.049457 0.479277 0.909563
O O2 0.000000 0.750000 0.931368
O O3 0.000000 0.500000 0.000000
O O4 0.500000 0.979135 0.430001
O O5 0.553246 0.250000 0.433548
O O6 0.591033 0.974563 0.393452
O O7 0.568303 0.000000 0.500000
O O8 0.410715 0.250000 0.871851
O O9 0.414061 0.979304 0.812620
O O10 0.351111 0.006643 0.889633
O O11 0.804180 0.750000 0.145533
O O12 0.750000 0.500000 0.120713
O O13 0.806768 0.473877 0.203403
O O14 0.375943 0.750000 0.650259
O O15 0.429857 0.542408 0.706312
O O16 0.343037 0.473654 0.693876
O O17 0.062270 0.750000 0.755727
O O18 0.000000 0.515231 0.775069
O O19 0.308870 0.250000 0.262106
O O20 0.250000 0.000000 0.284087
#
# Coordination Sequence:
#
# PCOD9501095 Si02
#       7
#     8  16  16  16  16  16  16
#     4  10  22  40  60  82 112 150 189 224 263 310
#     4   9  18  32  49  67  91 124 161 203 250 298
#     4  10  19  34  54  77 109 145 177 217 263 310
#     4  10  19  32  51  78 109 143 180 218 263 318
#     4  10  19  32  48  70  98 129 164 206 255 304
#     4  10  19  30  46  72 104 136 166 200 250 308
#     4   9  18  30  45  68  99 130 163 202 246 301
#
# _framework density 19.343723000000001
#
# number of rings (size 3 to 8) (size 9 to 14) (size 15 to 20)
#    0.000    2.308    2.308    0.923    0.000    3.385 
#    0.000    1.538    0.000    0.923    0.000    6.462 
#    0.000    0.000    0.000    0.000    0.000    0.000 
#
# Total GULP energy -289925.436536 kJ/mol
# GULP energy per Si atom -5575.489164 kJ/mol
# Density = 1.929970 g / cm^3
# Si number density = 19.343723 Si / 1000 Ang^3
#
#
#
# Elastic Constant Matrix: (Units=GPa)
#
#
# Indices 1 2 3 4 5 6 
#
# 1 135.6155 7.2301 41.5194 0.0000 0.0000 0.0000
# 2 7.2301 28.7342 0.3256 0.0000 0.0000 0.0000
# 3 41.5194 0.3256 65.0230 0.0000 0.0000 0.0000
# 4 0.0000 0.0000 0.0000 14.0122 0.0000 0.0000
# 5 0.0000 0.0000 0.0000 0.0000 14.3615 0.0000
# 6 0.0000 0.0000 0.0000 0.0000 0.0000 19.3977
#
#
#
# Elastic Compliance Matrix: (Units=1/GPa)
#
#
# Indices 1 2 3 4 5 6 
#
# 1 0.009312 -0.002276 -0.005935 0.000000 0.000000 0.000000
# 2 -0.002276 0.035360 0.001276 0.000000 0.000000 0.000000
# 3 -0.005935 0.001276 0.019162 0.000000 0.000000 0.000000
# 4 0.000000 0.000000 0.000000 0.071366 0.000000 0.000000
# 5 0.000000 0.000000 0.000000 0.000000 0.069631 0.000000
# 6 0.000000 0.000000 0.000000 0.000000 0.000000 0.051552
#
#
# Mechanical properties :
#
#
# Convention : Reuss Voigt Hill
#
# Bulk Modulus (GPa) = 20.01383 36.39144 28.20264
# Shear Modulus (GPa) = 17.42724 21.57414 19.50069
#
# Velocity S-wave (km/s) = 3.00480 3.34324 3.17853
# Velocity P-wave (km/s) = 4.73363 5.81007 5.29925
#
# Compressibility (1/GPa) = 0.04996544
#
# Stress axis : x y z
#
# Youngs Moduli (GPa) = 107.38763 28.28065 52.18581
#
# Poissons Ratio (x) = 0.06436 0.30971
# Poissons Ratio (y) = 0.24440 -0.06660
# Poissons Ratio (z) = 0.63731 -0.03609
#
# Static dielectric constant tensor:
#      x y z
#    x 1.719120 0.000000 0.000000 
#    y 0.000000 1.739400 0.000000 
#    z 0.000000 0.000000 1.660010 
# 
# From -- ./inp_files/40985.got.cif
#   From: 2010.05.17/outbox.cif.g08.bks.cpg/sg67_21_cif.got.tgz:40985.got - 2010.06.03 18:28:57.
