data_PCOD9501869
_publ_section_title
;
Structure prediction by ZEFSAII (Michael W. Deem and Ramdas Pophale) SiO2 
 PCOD9501869
Probable space group: C M M A
;
_chemical_formula_sum "Si O2"
_cell_formula_units_Z 84
_cell_length_a 17.967427
_cell_length_b 14.727746
_cell_length_c 17.167672
_cell_angle_alpha 90.000000
_cell_angle_beta 90.000000
_cell_angle_gamma 90.000000
_cell_volume 4542.904234
_symmetry_space_group_name_H-M "C M M A"
_symmetry_group_IT_number 67
_symmetry_cell_setting 'orthorhombic'
loop_
_space_group_symop_operation_xyz
x,y,z
-x,1/2-y,z
x,-y,-z
-x,1/2+y,-z
-x,-y,-z
x,1/2+y,-z
-x,y,z
x,1/2-y,z
1/2+x,1/2+y,z
1/2-x,-y,z
1/2+x,1/2-y,-z
1/2-x,y,-z
1/2-x,1/2-y,-z
1/2+x,y,-z
1/2-x,1/2+y,z
1/2+x,-y,z
loop_
_atom_site_type_symbol
_atom_site_label
_atom_site_fract_x
_atom_site_fract_y
_atom_site_fract_z
Si Si1 0.250000 0.250000 0.500000
Si Si2 0.915321 0.010989 0.865134
Si Si3 0.083044 0.644585 0.283612
Si Si4 0.311509 0.853887 0.934091
Si Si5 0.690703 0.645756 0.197769
Si Si6 0.237661 0.603763 0.363684
O O1 0.257633 0.328518 0.567886
O O2 0.915989 0.078241 0.790135
O O3 0.875009 0.071229 0.930741
O O4 0.000000 0.987409 0.884583
O O5 0.867323 0.924136 0.839588
O O6 0.092030 0.750000 0.258892
O O7 0.151565 0.620944 0.339318
O O8 0.000000 0.636731 0.319666
O O9 0.338724 0.750000 0.943579
O O10 0.265726 0.860551 0.853488
O O11 0.250000 0.870804 0.000000
O O12 0.664657 0.750000 0.193296
O O13 0.713379 0.621788 0.285807
O O14 0.250000 0.500000 0.386142
#
# Coordination Sequence:
#
# PCOD9501869 Si02
#       6
#     4  16  16  16  16  16
#     4  12  26  36  62  94 122 164 206 274 312 370
#     4  11  22  36  60  93 123 164 214 257 313 377
#     4  10  19  34  61  90 121 155 197 255 316 374
#     4  10  21  38  62  93 124 160 206 260 316 365
#     4  11  21  38  62  83 121 169 210 261 309 373
#     4  12  21  39  62  91 124 162 214 263 315 382
#
# _framework density 18.490373999999999
#
# number of rings (size 3 to 8) (size 9 to 14) (size 15 to 20)
#    0.000    1.143    5.714    1.429    0.000    3.048 
#    0.000    1.905    0.000    9.143    0.000    0.000 
#    0.000    0.000    0.000    0.000    0.000    0.000 
#
# Total GULP energy -234144.853786 kJ/mol
# GULP energy per Si atom -5574.877471 kJ/mol
# Density = 1.844829 g / cm^3
# Si number density = 18.490374 Si / 1000 Ang^3
#
#
#
# Elastic Constant Matrix: (Units=GPa)
#
#
# Indices 1 2 3 4 5 6 
#
# 1 113.7141 67.9559 10.4752 0.0000 0.0000 0.0000
# 2 67.9559 159.1025 23.4777 0.0000 0.0000 0.0000
# 3 10.4752 23.4777 67.5276 0.0000 0.0000 0.0000
# 4 0.0000 0.0000 0.0000 35.7175 0.0000 0.0000
# 5 0.0000 0.0000 0.0000 0.0000 0.1008 0.0000
# 6 0.0000 0.0000 0.0000 0.0000 0.0000 7.7267
#
#
#
# Elastic Compliance Matrix: (Units=1/GPa)
#
#
# Indices 1 2 3 4 5 6 
#
# 1 0.011808 -0.005031 -0.000082 0.000000 0.000000 0.000000
# 2 -0.005031 0.008769 -0.002268 0.000000 0.000000 0.000000
# 3 -0.000082 -0.002268 0.015610 0.000000 0.000000 0.000000
# 4 0.000000 0.000000 0.000000 0.027997 0.000000 0.000000
# 5 0.000000 0.000000 0.000000 0.000000 9.925312 0.000000
# 6 0.000000 0.000000 0.000000 0.000000 0.000000 0.129422
#
#
# Mechanical properties :
#
#
# Convention : Reuss Voigt Hill
#
# Bulk Modulus (GPa) = 46.67828 60.46239 53.57034
# Shear Modulus (GPa) = 0.49306 24.60469 12.54887
#
# Velocity S-wave (km/s) = 0.51695 3.65180 2.60796
# Velocity P-wave (km/s) = 5.06515 7.10994 6.17280
#
# Compressibility (1/GPa) = 0.02142324
#
# Stress axis : x y z
#
# Youngs Moduli (GPa) = 84.68566 114.03820 64.06077
#
# Poissons Ratio (x) = 0.57377 0.00528
# Poissons Ratio (y) = 0.42609 0.14531
# Poissons Ratio (z) = 0.00698 0.25867
#
# Static dielectric constant tensor:
#      x y z
#    x 1.648660 0.000000 0.000000 
#    y 0.000000 1.640710 0.000000 
#    z 0.000000 0.000000 1.641500 
# 
# From -- ./inp_files/29130.got.cif
#   From: 2010.05.17/outbox.cif.g08.bks.cpg/sg67_15_cif.got.tgz:29130.got - 2010.06.03 18:28:57.
