data_PCOD9501761
_publ_section_title
;
Structure prediction by ZEFSAII (Michael W. Deem and Ramdas Pophale) SiO2 
 PCOD9501761
Probable space group: C M M A
;
_chemical_formula_sum "Si O2"
_cell_formula_units_Z 116
_cell_length_a 25.182291
_cell_length_b 15.727317
_cell_length_c 15.362442
_cell_angle_alpha 90.000000
_cell_angle_beta 90.000000
_cell_angle_gamma 90.000000
_cell_volume 6084.293208
_symmetry_space_group_name_H-M "C M M A"
_symmetry_group_IT_number 67
_symmetry_cell_setting 'orthorhombic'
loop_
_space_group_symop_operation_xyz
x,y,z
-x,1/2-y,z
x,-y,-z
-x,1/2+y,-z
-x,-y,-z
x,1/2+y,-z
-x,y,z
x,1/2-y,z
1/2+x,1/2+y,z
1/2-x,-y,z
1/2+x,1/2-y,-z
1/2-x,y,-z
1/2-x,1/2-y,-z
1/2+x,y,-z
1/2-x,1/2+y,z
1/2+x,-y,z
loop_
_atom_site_type_symbol
_atom_site_label
_atom_site_fract_x
_atom_site_fract_y
_atom_site_fract_z
Si Si1 0.155775 0.850173 0.275870
Si Si2 0.940014 0.603210 0.174126
Si Si3 0.729081 0.906261 0.877574
Si Si4 0.682955 0.845251 0.245971
Si Si5 0.584765 0.408614 0.837094
Si Si6 0.500000 0.750000 0.170588
Si Si7 0.134270 0.151293 0.988874
Si Si8 0.740788 0.101112 0.402118
O O1 0.166222 0.750000 0.258613
O O2 0.094382 0.868268 0.257644
O O3 0.188047 0.904712 0.204070
O O4 0.182431 0.874820 0.366820
O O5 0.941039 0.500931 0.169929
O O6 0.906597 0.636640 0.091051
O O7 0.000000 0.635758 0.173098
O O8 0.778455 0.854793 0.837857
O O9 0.693226 0.871458 0.955550
O O10 0.750000 0.000000 0.894675
O O11 0.662905 0.750000 0.248982
O O12 0.631916 0.903630 0.233696
O O13 0.718170 0.862770 0.330885
O O14 0.546077 0.327104 0.830827
O O15 0.614034 0.403205 0.930524
O O16 0.132848 0.250000 0.013095
O O17 0.750000 0.132325 0.500000
O O18 0.750000 0.000000 0.401151
#
# Coordination Sequence:
#
# PCOD9501761 Si02
#       8
#    16  16  16  16  16   4  16  16
#     4  10  20  37  57  87 121 150 189 233 286 340
#     4  11  23  36  58  81 110 154 199 244 290 344
#     4  10  19  34  53  76 112 150 185 232 282 347
#     4  11  20  34  56  81 110 144 185 226 287 345
#     4  12  24  41  57  80 109 150 198 249 295 333
#     4  12  24  44  58  78 108 146 202 264 282 324
#     4  11  23  38  55  81 114 151 199 245 297 337
#     4  10  20  36  61  92 121 151 182 224 276 341
#
# _framework density 19.065484000000001
#
# number of rings (size 3 to 8) (size 9 to 14) (size 15 to 20)
#    0.000    1.241    2.069    8.276    0.966    3.310 
#    0.000    5.517    0.000    0.000    1.793    1.931 
#    0.000    0.000    0.000    0.000    0.000    0.000 
#
# Total GULP energy -323575.901782 kJ/mol
# GULP energy per Si atom -5578.894858 kJ/mol
# Density = 1.902209 g / cm^3
# Si number density = 19.065484 Si / 1000 Ang^3
#
#
#
# Elastic Constant Matrix: (Units=GPa)
#
#
# Indices 1 2 3 4 5 6 
#
# 1 122.0634 9.9110 42.2709 0.0000 0.0000 0.0000
# 2 9.9110 73.4638 13.5830 0.0000 0.0000 0.0000
# 3 42.2709 13.5830 98.6200 0.0000 0.0000 0.0000
# 4 0.0000 0.0000 0.0000 2.9179 0.0000 0.0000
# 5 0.0000 0.0000 0.0000 0.0000 12.2050 0.0000
# 6 0.0000 0.0000 0.0000 0.0000 0.0000 33.9973
#
#
#
# Elastic Compliance Matrix: (Units=1/GPa)
#
#
# Indices 1 2 3 4 5 6 
#
# 1 0.009642 -0.000551 -0.004057 0.000000 0.000000 0.000000
# 2 -0.000551 0.013999 -0.001692 0.000000 0.000000 0.000000
# 3 -0.004057 -0.001692 0.012112 0.000000 0.000000 0.000000
# 4 0.000000 0.000000 0.000000 0.342716 0.000000 0.000000
# 5 0.000000 0.000000 0.000000 0.000000 0.081934 0.000000
# 6 0.000000 0.000000 0.000000 0.000000 0.000000 0.029414
#
#
# Mechanical properties :
#
#
# Convention : Reuss Voigt Hill
#
# Bulk Modulus (GPa) = 43.18954 47.29744 45.24349
# Shear Modulus (GPa) = 9.80133 25.04952 17.42542
#
# Velocity S-wave (km/s) = 2.26981 3.62866 3.02649
# Velocity P-wave (km/s) = 5.43800 6.51291 5.99958
#
# Compressibility (1/GPa) = 0.02315375
#
# Stress axis : x y z
#
# Youngs Moduli (GPa) = 103.71149 71.43214 82.56333
#
# Poissons Ratio (x) = 0.03934 0.33496
# Poissons Ratio (y) = 0.05711 0.13970
# Poissons Ratio (z) = 0.42076 0.12087
#
# Static dielectric constant tensor:
#      x y z
#    x 1.688470 0.000000 0.000000 
#    y 0.000000 1.686220 0.000000 
#    z 0.000000 0.000000 1.668700 
# 
# From -- ./inp_files/35552.got.cif
#   From: 2010.05.17/outbox.cif.g08.bks.cpg/sg67_18_cif.got.tgz:35552.got - 2010.06.03 18:28:57.
