data_PCOD9501661
_publ_section_title
;
Structure prediction by ZEFSAII (Michael W. Deem and Ramdas Pophale) SiO2 
 PCOD9501661
Probable space group: C M M A
;
_chemical_formula_sum "Si O2"
_cell_formula_units_Z 80
_cell_length_a 14.065584
_cell_length_b 24.017083
_cell_length_c 11.106365
_cell_angle_alpha 90.000000
_cell_angle_beta 90.000000
_cell_angle_gamma 90.000000
_cell_volume 3751.888900
_symmetry_space_group_name_H-M "C M M A"
_symmetry_group_IT_number 67
_symmetry_cell_setting 'orthorhombic'
loop_
_space_group_symop_operation_xyz
x,y,z
-x,1/2-y,z
x,-y,-z
-x,1/2+y,-z
-x,-y,-z
x,1/2+y,-z
-x,y,z
x,1/2-y,z
1/2+x,1/2+y,z
1/2-x,-y,z
1/2+x,1/2-y,-z
1/2-x,y,-z
1/2-x,1/2-y,-z
1/2+x,y,-z
1/2-x,1/2+y,z
1/2+x,-y,z
loop_
_atom_site_type_symbol
_atom_site_label
_atom_site_fract_x
_atom_site_fract_y
_atom_site_fract_z
Si Si1 0.710300 0.815677 0.698670
Si Si2 0.114735 0.587745 0.430793
Si Si3 0.614162 0.476792 0.678723
Si Si4 0.359219 0.187832 0.041415
Si Si5 0.893213 0.372845 0.192227
O O1 0.709877 0.750000 0.671581
O O2 0.667569 0.855157 0.596747
O O3 0.643793 0.825158 0.817486
O O4 0.815610 0.834939 0.739979
O O5 0.149902 0.539551 0.337470
O O6 0.135866 0.560040 0.560028
O O7 0.000000 0.595236 0.423145
O O8 0.500000 0.483860 0.677816
O O9 0.637532 0.436888 0.789353
O O10 0.398512 0.250000 0.023851
O O11 0.250000 0.191163 0.000000
O O12 0.398933 0.144319 0.946862
O O13 0.000000 0.366151 0.244123
#
# Coordination Sequence:
#
# PCOD9501661 Si02
#       5
#    16  16  16  16  16
#     4  10  21  35  53  81 111 140 180 221 263 324
#     4   9  18  36  58  78 107 143 178 224 273 315
#     4   8  17  35  58  81 103 136 183 224 267 323
#     4   8  16  32  50  69  99 138 178 219 260 308
#     4  10  19  33  54  79 108 142 180 222 265 314
#
# _framework density 21.322593999999999
#
# number of rings (size 3 to 8) (size 9 to 14) (size 15 to 20)
#    0.000    3.000    0.000    3.000    0.000    4.400 
#    0.000    8.000    0.000   14.400    0.000    0.000 
#    0.000    0.000    0.000    0.000    0.000    0.000 
#
# Total GULP energy -223076.187634 kJ/mol
# GULP energy per Si atom -5576.904691 kJ/mol
# Density = 2.127406 g / cm^3
# Si number density = 21.322594 Si / 1000 Ang^3
#
#
#
# Elastic Constant Matrix: (Units=GPa)
#
#
# Indices 1 2 3 4 5 6 
#
# 1 97.8209 40.4533 14.9796 0.0000 0.0000 0.0000
# 2 40.4533 125.3567 24.3361 0.0000 0.0000 0.0000
# 3 14.9796 24.3361 28.8544 0.0000 0.0000 0.0000
# 4 0.0000 0.0000 0.0000 36.3006 0.0000 0.0000
# 5 0.0000 0.0000 0.0000 0.0000 17.1622 0.0000
# 6 0.0000 0.0000 0.0000 0.0000 0.0000 36.6929
#
#
#
# Elastic Compliance Matrix: (Units=1/GPa)
#
#
# Indices 1 2 3 4 5 6 
#
# 1 0.012097 -0.003210 -0.003573 0.000000 0.000000 0.000000
# 2 -0.003210 0.010391 -0.007097 0.000000 0.000000 0.000000
# 3 -0.003573 -0.007097 0.042498 0.000000 0.000000 0.000000
# 4 0.000000 0.000000 0.000000 0.027548 0.000000 0.000000
# 5 0.000000 0.000000 0.000000 0.000000 0.058268 0.000000
# 6 0.000000 0.000000 0.000000 0.000000 0.000000 0.027253
#
#
# Mechanical properties :
#
#
# Convention : Reuss Voigt Hill
#
# Bulk Modulus (GPa) = 26.86342 45.73000 36.29671
# Shear Modulus (GPa) = 22.91226 29.51533 26.21380
#
# Velocity S-wave (km/s) = 3.28159 3.72456 3.51007
# Velocity P-wave (km/s) = 5.19465 6.32374 5.78680
#
# Compressibility (1/GPa) = 0.03722534
#
# Stress axis : x y z
#
# Youngs Moduli (GPa) = 82.66181 96.23656 23.53079
#
# Poissons Ratio (x) = 0.30895 0.08407
# Poissons Ratio (y) = 0.26537 0.16700
# Poissons Ratio (z) = 0.29533 0.68302
#
# Static dielectric constant tensor:
#      x y z
#    x 1.843040 0.000000 0.000000 
#    y 0.000000 1.763710 0.000000 
#    z 0.000000 0.000000 1.814160 
# 
# From -- ./inp_files/17938.got.cif
#   From: 2010.05.17/outbox.cif.g08.bks.cpg/sg67_9_cif.got.tgz:17938.got - 2010.06.03 18:28:57.
