data_PCOD9501321
_publ_section_title
;
Structure prediction by ZEFSAII (Michael W. Deem and Ramdas Pophale) SiO2 
 PCOD9501321
Probable space group: C M M A
;
_chemical_formula_sum "Si O2"
_cell_formula_units_Z 68
_cell_length_a 16.930083
_cell_length_b 24.516228
_cell_length_c 8.724787
_cell_angle_alpha 90.000000
_cell_angle_beta 90.000000
_cell_angle_gamma 90.000000
_cell_volume 3621.325578
_symmetry_space_group_name_H-M "C M M A"
_symmetry_group_IT_number 67
_symmetry_cell_setting 'orthorhombic'
loop_
_space_group_symop_operation_xyz
x,y,z
-x,1/2-y,z
x,-y,-z
-x,1/2+y,-z
-x,-y,-z
x,1/2+y,-z
-x,y,z
x,1/2-y,z
1/2+x,1/2+y,z
1/2-x,-y,z
1/2+x,1/2-y,-z
1/2-x,y,-z
1/2-x,1/2-y,-z
1/2+x,y,-z
1/2-x,1/2+y,z
1/2+x,-y,z
loop_
_atom_site_type_symbol
_atom_site_label
_atom_site_fract_x
_atom_site_fract_y
_atom_site_fract_z
Si Si1 0.657096 0.690905 0.953491
Si Si2 0.654868 0.406619 0.830579
Si Si3 0.203270 0.149515 0.642468
Si Si4 0.250000 0.500000 0.000000
Si Si5 0.090172 0.937713 0.518715
O O1 0.622551 0.750000 0.997324
O O2 0.656475 0.683827 0.769720
O O3 0.750000 0.692796 0.000000
O O4 0.626053 0.637869 0.044551
O O5 0.728237 0.379565 0.740110
O O6 0.692296 0.460039 0.906744
O O7 0.594238 0.422233 0.697965
O O8 0.250000 0.177275 0.500000
O O9 0.145865 0.103950 0.571735
O O10 0.000000 0.934761 0.463313
O O11 0.118566 0.000000 0.500000
#
# Coordination Sequence:
#
# PCOD9501321 Si02
#       5
#    16  16  16   4  16
#     4   9  17  32  52  79 107 132 171 220 262 302
#     4  10  19  31  54  81 104 136 171 214 259 314
#     4   9  17  32  52  78 100 135 173 213 259 306
#     4  12  16  28  54  80 104 128 166 212 252 312
#     4  10  21  35  50  73 108 142 172 214 264 316
#
# _framework density 18.777653999999998
#
# number of rings (size 3 to 8) (size 9 to 14) (size 15 to 20)
#    0.000    2.353    3.529    1.412    0.000    3.765 
#    0.000    5.294    0.000    4.235    0.000    0.000 
#    0.000    0.000    0.000    0.000    0.000    0.000 
#
# Total GULP energy -189287.930017 kJ/mol
# GULP energy per Si atom -5567.292059 kJ/mol
# Density = 1.873492 g / cm^3
# Si number density = 18.777654 Si / 1000 Ang^3
#
#
#
# Elastic Constant Matrix: (Units=GPa)
#
#
# Indices 1 2 3 4 5 6 
#
# 1 25.8659 7.5054 6.2084 0.0000 0.0000 0.0000
# 2 7.5054 111.2327 56.9766 0.0000 0.0000 0.0000
# 3 6.2084 56.9766 115.6564 0.0000 0.0000 0.0000
# 4 0.0000 0.0000 0.0000 2.7316 0.0000 0.0000
# 5 0.0000 0.0000 0.0000 0.0000 11.9212 0.0000
# 6 0.0000 0.0000 0.0000 0.0000 0.0000 4.6548
#
#
#
# Elastic Compliance Matrix: (Units=1/GPa)
#
#
# Indices 1 2 3 4 5 6 
#
# 1 0.039534 -0.002114 -0.001081 0.000000 0.000000 0.000000
# 2 -0.002114 0.012137 -0.005866 0.000000 0.000000 0.000000
# 3 -0.001081 -0.005866 0.011594 0.000000 0.000000 0.000000
# 4 0.000000 0.000000 0.000000 0.366087 0.000000 0.000000
# 5 0.000000 0.000000 0.000000 0.000000 0.083884 0.000000
# 6 0.000000 0.000000 0.000000 0.000000 0.000000 0.214833
#
#
# Mechanical properties :
#
#
# Convention : Reuss Voigt Hill
#
# Bulk Modulus (GPa) = 22.15126 43.79286 32.97206
# Shear Modulus (GPa) = 6.56824 15.99916 11.28370
#
# Velocity S-wave (km/s) = 1.87230 2.92213 2.45401
# Velocity P-wave (km/s) = 4.06155 5.89555 5.06230
#
# Compressibility (1/GPa) = 0.04514417
#
# Stress axis : x y z
#
# Youngs Moduli (GPa) = 25.29482 82.38939 86.25098
#
# Poissons Ratio (x) = 0.17417 0.09322
# Poissons Ratio (y) = 0.05347 0.50594
# Poissons Ratio (z) = 0.02734 0.48329
#
# Static dielectric constant tensor:
#      x y z
#    x 1.630570 0.000000 0.000000 
#    y 0.000000 1.692190 0.000000 
#    z 0.000000 0.000000 1.699890 
# 
# From -- ./inp_files/9494.got.cif
#   From: 2010.05.17/outbox.cif.g08.bks.cpg/sg67_5_cif.got.tgz:9494.got - 2010.06.03 18:28:57.
