data_PCOD9501275
_publ_section_title
;
Structure prediction by ZEFSAII (Michael W. Deem and Ramdas Pophale) SiO2 
 PCOD9501275
Probable space group: C M M A
;
_chemical_formula_sum "Si O2"
_cell_formula_units_Z 112
_cell_length_a 17.707821
_cell_length_b 15.453232
_cell_length_c 20.515040
_cell_angle_alpha 90.000000
_cell_angle_beta 90.000000
_cell_angle_gamma 90.000000
_cell_volume 5613.798447
_symmetry_space_group_name_H-M "C M M A"
_symmetry_group_IT_number 67
_symmetry_cell_setting 'orthorhombic'
loop_
_space_group_symop_operation_xyz
x,y,z
-x,1/2-y,z
x,-y,-z
-x,1/2+y,-z
-x,-y,-z
x,1/2+y,-z
-x,y,z
x,1/2-y,z
1/2+x,1/2+y,z
1/2-x,-y,z
1/2+x,1/2-y,-z
1/2-x,y,-z
1/2-x,1/2-y,-z
1/2+x,y,-z
1/2-x,1/2+y,z
1/2+x,-y,z
loop_
_atom_site_type_symbol
_atom_site_label
_atom_site_fract_x
_atom_site_fract_y
_atom_site_fract_z
Si Si1 0.303246 0.415690 0.178213
Si Si2 0.086045 0.355499 0.299094
Si Si3 0.668944 0.144332 0.572124
Si Si4 0.351551 0.846769 0.160141
Si Si5 0.086671 0.644732 0.292410
Si Si6 0.345254 0.144736 0.429364
Si Si7 0.410931 0.499085 0.076710
O O1 0.250000 0.500000 0.188376
O O2 0.239106 0.347099 0.159300
O O3 0.352890 0.391635 0.240961
O O4 0.359874 0.433523 0.118476
O O5 0.087885 0.250000 0.301426
O O6 0.126677 0.387281 0.363978
O O7 0.125074 0.380360 0.231845
O O8 0.000000 0.383804 0.298027
O O9 0.666863 0.250000 0.572206
O O10 0.634090 0.116332 0.502785
O O11 0.757005 0.120735 0.577106
O O12 0.381181 0.750000 0.153138
O O13 0.387793 0.908746 0.107039
O O14 0.091198 0.750000 0.290035
O O15 0.108371 0.616924 0.366124
O O16 0.000000 0.620188 0.277312
O O17 0.348909 0.250000 0.429486
O O18 0.500000 0.482822 0.085974
O O19 0.394361 0.500000 0.000000
#
# Coordination Sequence:
#
# PCOD9501275 Si02
#       7
#    16  16  16  16  16  16  16
#     4  10  21  36  56  80 107 142 182 218 259 314
#     4   9  16  25  41  69 103 134 167 215 273 322
#     4   8  13  22  37  60  97 139 173 213 266 322
#     4  10  20  35  58  85 111 140 177 224 269 309
#     4  10  19  31  50  77 110 143 177 222 269 316
#     4   8  14  24  39  63  97 138 178 215 264 319
#     4  10  22  41  62  83 111 144 175 211 259 319
#
# _framework density 19.950839999999999
#
# number of rings (size 3 to 8) (size 9 to 14) (size 15 to 20)
#    0.000    2.714    0.000    3.000    0.000    6.286 
#    0.000    5.000    0.000    1.714    0.000   17.000 
#    0.000   24.000    0.000    0.000    0.000    0.000 
#
# Total GULP energy -312414.045928 kJ/mol
# GULP energy per Si atom -5578.822249 kJ/mol
# Density = 1.990543 g / cm^3
# Si number density = 19.950840 Si / 1000 Ang^3
#
#
#
# Elastic Constant Matrix: (Units=GPa)
#
#
# Indices 1 2 3 4 5 6 
#
# 1 99.9757 10.2133 83.3646 0.0000 0.0000 0.0000
# 2 10.2133 28.8851 25.2528 0.0000 0.0000 0.0000
# 3 83.3646 25.2528 183.1289 0.0000 0.0000 0.0000
# 4 0.0000 0.0000 0.0000 60.0316 0.0000 0.0000
# 5 0.0000 0.0000 0.0000 0.0000 44.9381 0.0000
# 6 0.0000 0.0000 0.0000 0.0000 0.0000 12.2844
#
#
#
# Elastic Compliance Matrix: (Units=1/GPa)
#
#
# Indices 1 2 3 4 5 6 
#
# 1 0.016139 0.000815 -0.007459 0.000000 0.000000 0.000000
# 2 0.000815 0.039407 -0.005805 0.000000 0.000000 0.000000
# 3 -0.007459 -0.005805 0.009657 0.000000 0.000000 0.000000
# 4 0.000000 0.000000 0.000000 0.016658 0.000000 0.000000
# 5 0.000000 0.000000 0.000000 0.000000 0.022253 0.000000
# 6 0.000000 0.000000 0.000000 0.000000 0.000000 0.081404
#
#
# Mechanical properties :
#
#
# Convention : Reuss Voigt Hill
#
# Bulk Modulus (GPa) = 24.81164 61.07235 42.94199
# Shear Modulus (GPa) = 22.33630 36.32808 29.33219
#
# Velocity S-wave (km/s) = 3.34962 4.27181 3.83851
# Velocity P-wave (km/s) = 5.23673 7.41680 6.41998
#
# Compressibility (1/GPa) = 0.04030367
#
# Stress axis : x y z
#
# Youngs Moduli (GPa) = 61.96135 25.37636 103.55471
#
# Poissons Ratio (x) = -0.02067 0.77244
# Poissons Ratio (y) = -0.05048 0.60112
# Poissons Ratio (z) = 0.46218 0.14731
#
# Static dielectric constant tensor:
#      x y z
#    x 1.683140 0.000000 0.000000 
#    y 0.000000 1.762720 0.000000 
#    z 0.000000 0.000000 1.677780 
# 
# From -- ./inp_files/39067.got.cif
#   From: 2010.05.17/outbox.cif.g08.bks.cpg/sg67_20_cif.got.tgz:39067.got - 2010.06.03 18:28:57.
