data_PCOD9501902
_publ_section_title
;
Structure prediction by ZEFSAII (Michael W. Deem and Ramdas Pophale) SiO2 
 PCOD9501902
Probable space group: C M M A
;
_chemical_formula_sum "Si O2"
_cell_formula_units_Z 56
_cell_length_a 13.670875
_cell_length_b 19.091359
_cell_length_c 11.464833
_cell_angle_alpha 90.000000
_cell_angle_beta 90.000000
_cell_angle_gamma 90.000000
_cell_volume 2992.270767
_symmetry_space_group_name_H-M "C M M A"
_symmetry_group_IT_number 67
_symmetry_cell_setting 'orthorhombic'
loop_
_space_group_symop_operation_xyz
x,y,z
-x,1/2-y,z
x,-y,-z
-x,1/2+y,-z
-x,-y,-z
x,1/2+y,-z
-x,y,z
x,1/2-y,z
1/2+x,1/2+y,z
1/2-x,-y,z
1/2+x,1/2-y,-z
1/2-x,y,-z
1/2-x,1/2-y,-z
1/2+x,y,-z
1/2-x,1/2+y,z
1/2+x,-y,z
loop_
_atom_site_type_symbol
_atom_site_label
_atom_site_fract_x
_atom_site_fract_y
_atom_site_fract_z
Si Si1 0.796143 0.900342 0.245143
Si Si2 0.888129 0.250000 0.757785
Si Si3 0.892063 0.250000 0.475883
Si Si4 0.889282 0.472840 0.131568
Si Si5 0.750000 0.628587 0.500000
O O1 0.831052 0.821785 0.214881
O O2 0.876389 0.956379 0.205652
O O3 0.786508 0.909774 0.385080
O O4 0.695471 0.921537 0.179339
O O5 0.895648 0.250000 0.616676
O O6 0.000000 0.250000 0.803352
O O7 0.832113 0.319280 0.447169
O O8 0.000000 0.250000 0.426821
O O9 0.000000 0.445000 0.139665
O O10 0.871506 0.500000 0.000000
#
# Coordination Sequence:
#
# PCOD9501902 Si02
#       5
#    16   8   8  16   8
#     4  10  19  35  56  81 110 141 174 218 267 316
#     4   9  17  31  55  84 110 140 176 212 259 318
#     4   8  15  29  46  69 111 153 170 193 251 323
#     4  10  22  40  57  73 101 146 190 223 265 318
#     4   9  18  29  48  82 112 134 170 212 260 322
#
# _framework density 18.714884999999999
#
# number of rings (size 3 to 8) (size 9 to 14) (size 15 to 20)
#    0.000    2.571    0.000    3.429    0.000    4.571 
#    0.000    5.000    0.000    3.429    0.000    2.000 
#    0.000    0.000    0.000    0.000    0.000    0.000 
#
# Total GULP energy -155970.152563 kJ/mol
# GULP energy per Si atom -5570.362592 kJ/mol
# Density = 1.867229 g / cm^3
# Si number density = 18.714885 Si / 1000 Ang^3
#
#
#
# Elastic Constant Matrix: (Units=GPa)
#
#
# Indices 1 2 3 4 5 6 
#
# 1 116.4877 37.2324 20.1741 0.0000 0.0000 0.0000
# 2 37.2324 104.6590 24.5039 0.0000 0.0000 0.0000
# 3 20.1741 24.5039 93.2205 0.0000 0.0000 0.0000
# 4 0.0000 0.0000 0.0000 -30.2852 0.0000 0.0000
# 5 0.0000 0.0000 0.0000 0.0000 18.9148 0.0000
# 6 0.0000 0.0000 0.0000 0.0000 0.0000 -10.6346
#
#
#
# Elastic Compliance Matrix: (Units=1/GPa)
#
#
# Indices 1 2 3 4 5 6 
#
# 1 0.009829 -0.003195 -0.001287 0.000000 0.000000 0.000000
# 2 -0.003195 0.011220 -0.002258 0.000000 0.000000 0.000000
# 3 -0.001287 -0.002258 0.011599 0.000000 0.000000 0.000000
# 4 0.000000 0.000000 0.000000 -0.033019 0.000000 0.000000
# 5 0.000000 0.000000 0.000000 0.000000 0.052869 0.000000
# 6 0.000000 0.000000 0.000000 0.000000 0.000000 -0.094033
#
#
# Mechanical properties :
#
#
# Convention : Reuss Voigt Hill
#
# Bulk Modulus (GPa) = 52.17087 53.13201 52.65144
# Shear Modulus (GPa) = -230.78441 11.09611 -109.84415
#
# Velocity S-wave (km/s) = -11.11682 2.43760 -7.66948
# Velocity P-wave (km/s) = 11.69791 6.03112 7.08755
#
# Compressibility (1/GPa) = 0.01916778
#
# Stress axis : x y z
#
# Youngs Moduli (GPa) = 101.74187 89.12522 86.21200
#
# Poissons Ratio (x) = 0.28477 0.11097
# Poissons Ratio (y) = 0.32509 0.19465
# Poissons Ratio (z) = 0.13096 0.20123
#
# Static dielectric constant tensor:
#      x y z
#    x 1.686650 0.000000 0.000000 
#    y 0.000000 1.677760 0.000000 
#    z 0.000000 0.000000 1.638830 
# 
# From -- ./inp_files/17424.got.cif
#   From: 2010.05.17/outbox.cif.g08.bks.cpg/sg67_9_cif.got.tgz:17424.got - 2010.06.03 18:28:57.
