data_PCOD9501244
_publ_section_title
;
Structure prediction by ZEFSAII (Michael W. Deem and Ramdas Pophale) SiO2 
 PCOD9501244
Probable space group: C M M A
;
_chemical_formula_sum "Si O2"
_cell_formula_units_Z 128
_cell_length_a 20.145968
_cell_length_b 17.564750
_cell_length_c 21.741788
_cell_angle_alpha 90.000000
_cell_angle_beta 90.000000
_cell_angle_gamma 90.000000
_cell_volume 7693.524999
_symmetry_space_group_name_H-M "C M M A"
_symmetry_group_IT_number 67
_symmetry_cell_setting 'orthorhombic'
loop_
_space_group_symop_operation_xyz
x,y,z
-x,1/2-y,z
x,-y,-z
-x,1/2+y,-z
-x,-y,-z
x,1/2+y,-z
-x,y,z
x,1/2-y,z
1/2+x,1/2+y,z
1/2-x,-y,z
1/2+x,1/2-y,-z
1/2-x,y,-z
1/2-x,1/2-y,-z
1/2+x,y,-z
1/2-x,1/2+y,z
1/2+x,-y,z
loop_
_atom_site_type_symbol
_atom_site_label
_atom_site_fract_x
_atom_site_fract_y
_atom_site_fract_z
Si Si1 0.927404 0.005196 0.141774
Si Si2 0.233455 0.336507 0.872132
Si Si3 0.643632 0.576177 0.966378
Si Si4 0.325714 0.338704 0.476281
Si Si5 0.187048 0.944708 0.229195
Si Si6 0.077140 0.563000 0.554657
Si Si7 0.323787 0.536481 0.628923
Si Si8 0.886180 0.837292 0.911220
O O1 0.923425 0.093947 0.122839
O O2 0.000000 0.987035 0.165490
O O3 0.911888 0.955439 0.080631
O O4 0.872099 0.982979 0.190967
O O5 0.211251 0.250000 0.879952
O O6 0.200320 0.387284 0.924847
O O7 0.209293 0.369113 0.806987
O O8 0.312149 0.339238 0.882350
O O9 0.668177 0.500000 0.000000
O O10 0.619448 0.635532 0.017758
O O11 0.336620 0.250000 0.462851
O O12 0.250000 0.348001 0.500000
O O13 0.378940 0.368546 0.526466
O O14 0.331522 0.392634 0.417014
O O15 0.169891 0.937553 0.300664
O O16 0.250000 0.000000 0.224876
O O17 0.075725 0.500000 0.500000
O O18 0.120060 0.524776 0.609290
O O19 0.000000 0.581080 0.569543
O O20 0.250000 0.500000 0.620395
O O21 0.910622 0.750000 0.906557
#
# Coordination Sequence:
#
# PCOD9501244 Si02
#       8
#    16  16  16  16  16  16  16  16
#     4  10  21  36  52  72 102 136 173 215 266 317
#     4  10  19  32  51  77 106 133 168 217 271 321
#     4   9  19  30  50  74 101 132 170 213 265 321
#     4  10  19  32  53  83 116 149 178 214 267 317
#     4  10  20  36  56  77  99 138 182 223 263 306
#     4   9  18  32  53  81 111 145 178 217 264 313
#     4  10  19  33  56  80 106 139 184 226 259 309
#     4  10  19  31  49  75 103 131 166 212 268 324
#
# _framework density 16.637366
#
# number of rings (size 3 to 8) (size 9 to 14) (size 15 to 20)
#    0.000    2.250    2.500    0.750    0.000    6.250 
#    0.000    0.000    0.000    9.750    0.000    7.000 
#    0.000    0.000    0.000    0.000    0.000    0.000 
#
# Total GULP energy -356738.992103 kJ/mol
# GULP energy per Si atom -5574.046752 kJ/mol
# Density = 1.659950 g / cm^3
# Si number density = 16.637366 Si / 1000 Ang^3
#
#
#
# Elastic Constant Matrix: (Units=GPa)
#
#
# Indices 1 2 3 4 5 6 
#
# 1 104.1321 34.8812 39.5411 0.0000 0.0000 0.0000
# 2 34.8812 95.2371 43.6718 0.0000 0.0000 0.0000
# 3 39.5411 43.6718 102.1322 0.0000 0.0000 0.0000
# 4 0.0000 0.0000 0.0000 16.7383 0.0000 0.0000
# 5 0.0000 0.0000 0.0000 0.0000 -2.1843 0.0000
# 6 0.0000 0.0000 0.0000 0.0000 0.0000 5.1951
#
#
#
# Elastic Compliance Matrix: (Units=1/GPa)
#
#
# Indices 1 2 3 4 5 6 
#
# 1 0.011820 -0.002775 -0.003390 0.000000 0.000000 0.000000
# 2 -0.002775 0.013713 -0.004789 0.000000 0.000000 0.000000
# 3 -0.003390 -0.004789 0.013151 0.000000 0.000000 0.000000
# 4 0.000000 0.000000 0.000000 0.059743 0.000000 0.000000
# 5 0.000000 0.000000 0.000000 0.000000 -0.457823 0.000000
# 6 0.000000 0.000000 0.000000 0.000000 0.000000 0.192488
#
#
# Mechanical properties :
#
#
# Convention : Reuss Voigt Hill
#
# Bulk Modulus (GPa) = 59.60701 59.74328 59.67515
# Shear Modulus (GPa) = -35.86571 16.17699 -9.84436
#
# Velocity S-wave (km/s) = -4.64802 3.12160 -2.43513
# Velocity P-wave (km/s) = 2.66448 6.99854 5.29524
#
# Compressibility (1/GPa) = 0.01677655
#
# Stress axis : x y z
#
# Youngs Moduli (GPa) = 84.60419 72.92609 76.03736
#
# Poissons Ratio (x) = 0.20235 0.25774
# Poissons Ratio (y) = 0.23475 0.36416
# Poissons Ratio (z) = 0.28678 0.34926
#
# Static dielectric constant tensor:
#      x y z
#    x 1.563680 0.000000 0.000000 
#    y 0.000000 1.553610 0.000000 
#    z 0.000000 0.000000 1.547350 
# 
# From -- ./inp_files/39422.got.cif
#   From: 2010.05.17/outbox.cif.g08.bks.cpg/sg67_20_cif.got.tgz:39422.got - 2010.06.03 18:28:57.
