data_PCOD9501745
_publ_section_title
;
Structure prediction by ZEFSAII (Michael W. Deem and Ramdas Pophale) SiO2 
 PCOD9501745
Probable space group: C M M A
;
_chemical_formula_sum "Si O2"
_cell_formula_units_Z 48
_cell_length_a 8.009300
_cell_length_b 20.813742
_cell_length_c 13.454448
_cell_angle_alpha 90.000000
_cell_angle_beta 90.000000
_cell_angle_gamma 90.000000
_cell_volume 2242.903623
_symmetry_space_group_name_H-M "C M M A"
_symmetry_group_IT_number 67
_symmetry_cell_setting 'orthorhombic'
loop_
_space_group_symop_operation_xyz
x,y,z
-x,1/2-y,z
x,-y,-z
-x,1/2+y,-z
-x,-y,-z
x,1/2+y,-z
-x,y,z
x,1/2-y,z
1/2+x,1/2+y,z
1/2-x,-y,z
1/2+x,1/2-y,-z
1/2-x,y,-z
1/2-x,1/2-y,-z
1/2+x,y,-z
1/2-x,1/2+y,z
1/2+x,-y,z
loop_
_atom_site_type_symbol
_atom_site_label
_atom_site_fract_x
_atom_site_fract_y
_atom_site_fract_z
Si Si1 0.199917 0.323937 0.112580
Si Si2 0.685640 0.601292 0.698198
Si Si3 0.000000 0.178255 0.552823
Si Si4 0.000000 0.554565 0.586089
O O1 0.256307 0.250000 0.130422
O O2 0.274690 0.371862 0.193439
O O3 0.000000 0.325411 0.121348
O O4 0.250000 0.340412 0.000000
O O5 0.500000 0.570109 0.697141
O O6 0.656461 0.662601 0.625281
O O7 0.834269 0.559976 0.652743
O O8 0.000000 0.250000 0.515322
O O9 0.000000 0.121974 0.473549
O O10 0.000000 0.500000 0.500000
#
# Coordination Sequence:
#
# PCOD9501745 Si02
#       4
#    16  16   8   8
#     4  10  19  33  59  96 142 187 229 284 353 431
#     4  10  23  40  61  96 133 178 226 290 343 413
#     4  10  24  42  65  96 135 178 227 288 361 427
#     4  12  26  46  67  94 132 184 241 294 352 423
#
# _framework density 21.400831
#
# number of rings (size 3 to 8) (size 9 to 14) (size 15 to 20)
#    1.000    0.667    1.667    3.000    0.000    8.667 
#    0.000    0.000    0.000    0.000    0.000    7.000 
#    0.000    0.000    0.000    0.000    0.000    0.000 
#
# Total GULP energy -134057.919319 kJ/mol
# GULP energy per Si atom -5585.746638 kJ/mol
# Density = 2.135212 g / cm^3
# Si number density = 21.400831 Si / 1000 Ang^3
#
#
#
# Elastic Constant Matrix: (Units=GPa)
#
#
# Indices 1 2 3 4 5 6 
#
# 1 166.2221 68.3674 86.4426 0.0000 0.0000 0.0000
# 2 68.3674 131.2398 71.9525 0.0000 0.0000 0.0000
# 3 86.4426 71.9525 158.0170 0.0000 0.0000 0.0000
# 4 0.0000 0.0000 0.0000 36.7945 0.0000 0.0000
# 5 0.0000 0.0000 0.0000 0.0000 34.8077 0.0000
# 6 0.0000 0.0000 0.0000 0.0000 0.0000 31.0966
#
#
#
# Elastic Compliance Matrix: (Units=1/GPa)
#
#
# Indices 1 2 3 4 5 6 
#
# 1 0.009059 -0.002668 -0.003741 0.000000 0.000000 0.000000
# 2 -0.002668 0.010941 -0.003522 0.000000 0.000000 0.000000
# 3 -0.003741 -0.003522 0.009978 0.000000 0.000000 0.000000
# 4 0.000000 0.000000 0.000000 0.027178 0.000000 0.000000
# 5 0.000000 0.000000 0.000000 0.000000 0.028729 0.000000
# 6 0.000000 0.000000 0.000000 0.000000 0.000000 0.032158
#
#
# Mechanical properties :
#
#
# Convention : Reuss Voigt Hill
#
# Bulk Modulus (GPa) = 98.85350 101.00042 99.92696
# Shear Modulus (GPa) = 35.39149 35.78752 35.58951
#
# Velocity S-wave (km/s) = 4.07104 4.09375 4.08241
# Velocity P-wave (km/s) = 8.26979 8.34519 8.30758
#
# Compressibility (1/GPa) = 0.01011598
#
# Stress axis : x y z
#
# Youngs Moduli (GPa) = 110.39028 91.40235 100.21554
#
# Poissons Ratio (x) = 0.24388 0.37486
# Poissons Ratio (y) = 0.29455 0.35297
# Poissons Ratio (z) = 0.41292 0.32193
#
# Static dielectric constant tensor:
#      x y z
#    x 1.819600 0.000000 0.000000 
#    y 0.000000 1.810970 0.000000 
#    z 0.000000 0.000000 1.753720 
# 
# From -- ./inp_files/24688.got.cif
#   From: 2010.05.17/outbox.cif.g08.bks.cpg/sg67_13_cif.got.tgz:24688.got - 2010.06.03 18:28:57.
