data_PCOD9501778
_publ_section_title
;
Structure prediction by ZEFSAII (Michael W. Deem and Ramdas Pophale) SiO2 
 PCOD9501778
Probable space group: C M M A
;
_chemical_formula_sum "Si O2"
_cell_formula_units_Z 88
_cell_length_a 30.540418
_cell_length_b 14.511726
_cell_length_c 10.400843
_cell_angle_alpha 90.000000
_cell_angle_beta 90.000000
_cell_angle_gamma 90.000000
_cell_volume 4609.593063
_symmetry_space_group_name_H-M "C M M A"
_symmetry_group_IT_number 67
_symmetry_cell_setting 'orthorhombic'
loop_
_space_group_symop_operation_xyz
x,y,z
-x,1/2-y,z
x,-y,-z
-x,1/2+y,-z
-x,-y,-z
x,1/2+y,-z
-x,y,z
x,1/2-y,z
1/2+x,1/2+y,z
1/2-x,-y,z
1/2+x,1/2-y,-z
1/2-x,y,-z
1/2-x,1/2-y,-z
1/2+x,y,-z
1/2-x,1/2+y,z
1/2+x,-y,z
loop_
_atom_site_type_symbol
_atom_site_label
_atom_site_fract_x
_atom_site_fract_y
_atom_site_fract_z
Si Si1 0.400175 0.640151 0.429037
Si Si2 0.048464 0.362138 0.673207
Si Si3 0.627640 0.140765 0.843548
Si Si4 0.375101 0.139815 0.132661
Si Si5 0.799600 0.994352 0.213467
Si Si6 0.325460 0.000000 0.500000
O O1 0.394204 0.750000 0.440728
O O2 0.438695 0.614169 0.526647
O O3 0.403622 0.618292 0.277621
O O4 0.357405 0.587062 0.478512
O O5 0.047625 0.250000 0.681539
O O6 0.087779 0.391922 0.766946
O O7 0.000000 0.395753 0.706975
O O8 0.636080 0.250000 0.838701
O O9 0.672267 0.084614 0.822259
O O10 0.610783 0.119625 0.986120
O O11 0.369798 0.250000 0.146336
O O12 0.329499 0.088586 0.160012
O O13 0.750000 0.000000 0.166184
O O14 0.799661 0.986347 0.368349
#
# Coordination Sequence:
#
# PCOD9501778 Si02
#       6
#    16  16  16  16  16   8
#     4   9  17  33  55  78 106 140 176 219 269 319
#     4   9  17  32  57  84 107 138 181 225 270 323
#     4   9  20  36  54  76 108 147 181 218 271 324
#     4  10  20  36  57  81 111 146 181 223 273 322
#     4  11  22  35  55  81 109 144 185 228 272 323
#     4  10  19  34  55  78 108 142 177 224 275 326
#
# _framework density 19.090622
#
# number of rings (size 3 to 8) (size 9 to 14) (size 15 to 20)
#    0.000    2.364    1.818    0.818    0.000    2.182 
#    0.000    3.182    0.000   13.091    0.000    0.000 
#    0.000    0.000    0.000    0.000    0.000    0.000 
#
# Total GULP energy -245323.322103 kJ/mol
# GULP energy per Si atom -5575.530048 kJ/mol
# Density = 1.904717 g / cm^3
# Si number density = 19.090622 Si / 1000 Ang^3
#
#
#
# Elastic Constant Matrix: (Units=GPa)
#
#
# Indices 1 2 3 4 5 6 
#
# 1 106.4294 18.9575 55.8732 0.0000 0.0000 0.0000
# 2 18.9575 58.7718 31.4134 0.0000 0.0000 0.0000
# 3 55.8732 31.4134 143.4377 0.0000 0.0000 0.0000
# 4 0.0000 0.0000 0.0000 19.0733 0.0000 0.0000
# 5 0.0000 0.0000 0.0000 0.0000 3.9731 0.0000
# 6 0.0000 0.0000 0.0000 0.0000 0.0000 19.7731
#
#
#
# Elastic Compliance Matrix: (Units=1/GPa)
#
#
# Indices 1 2 3 4 5 6 
#
# 1 0.011934 -0.001546 -0.004310 0.000000 0.000000 0.000000
# 2 -0.001546 0.019471 -0.003662 0.000000 0.000000 0.000000
# 3 -0.004310 -0.003662 0.009453 0.000000 0.000000 0.000000
# 4 0.000000 0.000000 0.000000 0.052429 0.000000 0.000000
# 5 0.000000 0.000000 0.000000 0.000000 0.251690 0.000000
# 6 0.000000 0.000000 0.000000 0.000000 0.000000 0.050574
#
#
# Mechanical properties :
#
#
# Convention : Reuss Voigt Hill
#
# Bulk Modulus (GPa) = 45.82603 57.90300 51.86452
# Shear Modulus (GPa) = 11.85226 22.05689 16.95457
#
# Velocity S-wave (km/s) = 2.49437 3.40277 2.98335
# Velocity P-wave (km/s) = 5.68792 6.77015 6.25249
#
# Compressibility (1/GPa) = 0.02182166
#
# Stress axis : x y z
#
# Youngs Moduli (GPa) = 83.79462 51.35857 105.79105
#
# Poissons Ratio (x) = 0.07938 0.45597
# Poissons Ratio (y) = 0.12952 0.38742
# Poissons Ratio (z) = 0.36116 0.18808
#
# Static dielectric constant tensor:
#      x y z
#    x 1.623700 0.000000 0.000000 
#    y 0.000000 1.682320 0.000000 
#    z 0.000000 0.000000 1.711350 
# 
# From -- ./inp_files/14645.got.cif
#   From: 2010.05.17/outbox.cif.g08.bks.cpg/sg67_8_cif.got.tgz:14645.got - 2010.06.03 18:28:57.
