data_PCOD9501890
_publ_section_title
;
Structure prediction by ZEFSAII (Michael W. Deem and Ramdas Pophale) SiO2 
 PCOD9501890
Probable space group: C M M A
;
_chemical_formula_sum "Si O2"
_cell_formula_units_Z 88
_cell_length_a 23.611894
_cell_length_b 10.300996
_cell_length_c 21.207847
_cell_angle_alpha 90.000000
_cell_angle_beta 90.000000
_cell_angle_gamma 90.000000
_cell_volume 5158.300338
_symmetry_space_group_name_H-M "C M M A"
_symmetry_group_IT_number 67
_symmetry_cell_setting 'orthorhombic'
loop_
_space_group_symop_operation_xyz
x,y,z
-x,1/2-y,z
x,-y,-z
-x,1/2+y,-z
-x,-y,-z
x,1/2+y,-z
-x,y,z
x,1/2-y,z
1/2+x,1/2+y,z
1/2-x,-y,z
1/2+x,1/2-y,-z
1/2-x,y,-z
1/2-x,1/2-y,-z
1/2+x,y,-z
1/2-x,1/2+y,z
1/2+x,-y,z
loop_
_atom_site_type_symbol
_atom_site_label
_atom_site_fract_x
_atom_site_fract_y
_atom_site_fract_z
Si Si1 0.000000 0.908451 0.760852
Si Si2 0.910531 0.900882 0.302269
Si Si3 0.700797 0.605396 0.922506
Si Si4 0.431556 0.898134 0.552614
Si Si5 0.900048 0.000000 0.000000
Si Si6 0.202582 0.104370 0.776768
Si Si7 0.000000 0.596359 0.910305
O O1 0.000000 0.750000 0.751305
O O2 0.000000 0.934539 0.836084
O O3 0.947851 0.986309 0.729423
O O4 0.931721 0.750000 0.293240
O O5 0.908697 0.922421 0.377262
O O6 0.849769 0.906073 0.269783
O O7 0.725142 0.750000 0.928841
O O8 0.750000 0.500000 0.934380
O O9 0.645246 0.593951 0.965802
O O10 0.683187 0.586332 0.849430
O O11 0.500000 0.907452 0.557726
O O12 0.417875 0.750000 0.534369
O O13 0.412610 0.000000 0.500000
O O14 0.943383 0.048299 0.053889
O O15 0.226436 0.250000 0.772665
O O16 0.250000 0.000000 0.762857
O O17 0.000000 0.750000 0.916325
#
# Coordination Sequence:
#
# PCOD9501890 Si02
#       7
#     8  16  16  16   8  16   8
#     4  11  22  34  51  79 108 135 169 216 267 308
#     4  10  19  35  56  77 105 142 178 211 252 308
#     4  10  21  36  55  79 101 128 168 216 265 309
#     4   9  17  30  49  75 107 139 171 209 250 294
#     4  11  21  36  56  72  97 139 178 208 252 321
#     4   9  19  35  55  77 102 132 171 216 260 305
#     4  10  23  38  50  72 107 139 170 214 264 312
#
# _framework density 17.059882999999999
#
# number of rings (size 3 to 8) (size 9 to 14) (size 15 to 20)
#    0.000    2.182    0.909    2.182    0.000    3.636 
#    0.000    8.182    0.000    0.545    0.000    3.818 
#    0.000    0.000    0.000    0.000    0.000    0.000 
#
# Total GULP energy -245132.291245 kJ/mol
# GULP energy per Si atom -5571.188437 kJ/mol
# Density = 1.702105 g / cm^3
# Si number density = 17.059883 Si / 1000 Ang^3
#
#
#
# Elastic Constant Matrix: (Units=GPa)
#
#
# Indices 1 2 3 4 5 6 
#
# 1 75.6158 60.0780 46.7724 0.0000 0.0000 0.0000
# 2 60.0780 131.6367 84.4675 0.0000 0.0000 0.0000
# 3 46.7724 84.4675 135.5936 0.0000 0.0000 0.0000
# 4 0.0000 0.0000 0.0000 14.1477 0.0000 0.0000
# 5 0.0000 0.0000 0.0000 0.0000 30.0234 0.0000
# 6 0.0000 0.0000 0.0000 0.0000 0.0000 22.6290
#
#
#
# Elastic Compliance Matrix: (Units=1/GPa)
#
#
# Indices 1 2 3 4 5 6 
#
# 1 0.021112 -0.008267 -0.002133 0.000000 0.000000 0.000000
# 2 -0.008267 0.015892 -0.007048 0.000000 0.000000 0.000000
# 3 -0.002133 -0.007048 0.012501 0.000000 0.000000 0.000000
# 4 0.000000 0.000000 0.000000 0.070683 0.000000 0.000000
# 5 0.000000 0.000000 0.000000 0.000000 0.033307 0.000000
# 6 0.000000 0.000000 0.000000 0.000000 0.000000 0.044191
#
#
# Mechanical properties :
#
#
# Convention : Reuss Voigt Hill
#
# Bulk Modulus (GPa) = 68.44707 80.60910 74.52809
# Shear Modulus (GPa) = 21.05676 23.46190 22.25933
#
# Velocity S-wave (km/s) = 3.51705 3.71248 3.61609
# Velocity P-wave (km/s) = 7.53005 8.10740 7.82405
#
# Compressibility (1/GPa) = 0.01460983
#
# Stress axis : x y z
#
# Youngs Moduli (GPa) = 47.36604 62.92294 79.99065
#
# Poissons Ratio (x) = 0.52018 0.17059
# Poissons Ratio (y) = 0.39157 0.56381
# Poissons Ratio (z) = 0.10102 0.44351
#
# Static dielectric constant tensor:
#      x y z
#    x 1.538450 0.000000 0.000000 
#    y 0.000000 1.596050 0.000000 
#    z 0.000000 0.000000 1.586390 
# 
# From -- ./inp_files/39639.got.cif
#   From: 2010.05.17/outbox.cif.g08.bks.cpg/sg67_20_cif.got.tgz:39639.got - 2010.06.03 18:28:57.
