data_PCOD9501981
_publ_section_title
;
Structure prediction by ZEFSAII (Michael W. Deem and Ramdas Pophale) SiO2 
 PCOD9501981
Probable space group: C M M A
;
_chemical_formula_sum "Si O2"
_cell_formula_units_Z 88
_cell_length_a 22.636596
_cell_length_b 16.196247
_cell_length_c 12.050124
_cell_angle_alpha 90.000000
_cell_angle_beta 90.000000
_cell_angle_gamma 90.000000
_cell_volume 4417.911658
_symmetry_space_group_name_H-M "C M M A"
_symmetry_group_IT_number 67
_symmetry_cell_setting 'orthorhombic'
loop_
_space_group_symop_operation_xyz
x,y,z
-x,1/2-y,z
x,-y,-z
-x,1/2+y,-z
-x,-y,-z
x,1/2+y,-z
-x,y,z
x,1/2-y,z
1/2+x,1/2+y,z
1/2-x,-y,z
1/2+x,1/2-y,-z
1/2-x,y,-z
1/2-x,1/2-y,-z
1/2+x,y,-z
1/2-x,1/2+y,z
1/2+x,-y,z
loop_
_atom_site_type_symbol
_atom_site_label
_atom_site_fract_x
_atom_site_fract_y
_atom_site_fract_z
Si Si1 0.150767 0.574668 0.086254
Si Si2 0.565970 0.006841 0.745491
Si Si3 0.809367 0.654330 0.569270
Si Si4 0.234987 0.155846 0.192191
Si Si5 0.611701 0.500000 0.500000
Si Si6 0.896897 0.841796 0.892033
O O1 0.117478 0.544045 0.195520
O O2 0.212467 0.612017 0.127436
O O3 0.162139 0.500000 0.000000
O O4 0.102416 0.628910 0.019104
O O5 0.500000 0.978736 0.774003
O O6 0.574948 0.096900 0.802499
O O7 0.574984 0.001953 0.613943
O O8 0.833617 0.750000 0.581470
O O9 0.750000 0.661448 0.500000
O O10 0.787656 0.622000 0.689747
O O11 0.849991 0.584749 0.512271
O O12 0.254860 0.250000 0.213209
O O13 0.174337 0.158400 0.124236
O O14 0.919538 0.750000 0.876592
#
# Coordination Sequence:
#
# PCOD9501981 Si02
#       6
#    16  16  16  16   8  16
#     4  10  22  36  58  90 127 162 198 243 304 366
#     4  11  25  42  61  86 118 160 215 265 301 354
#     4  10  21  36  59  92 127 160 196 245 307 380
#     4  10  19  36  59  91 127 154 193 243 298 373
#     4  12  22  42  66  86 118 167 213 258 318 360
#     4  10  21  39  63  91 123 159 200 247 305 372
#
# _framework density 19.918914000000001
#
# number of rings (size 3 to 8) (size 9 to 14) (size 15 to 20)
#    0.000    1.636    1.818    2.727    0.000   10.182 
#    0.000    0.909    0.000    5.455    0.000    0.000 
#    0.000    0.000    0.000    0.000    0.000    0.000 
#
# Total GULP energy -245322.534213 kJ/mol
# GULP energy per Si atom -5575.512141 kJ/mol
# Density = 1.987358 g / cm^3
# Si number density = 19.918914 Si / 1000 Ang^3
#
#
#
# Elastic Constant Matrix: (Units=GPa)
#
#
# Indices 1 2 3 4 5 6 
#
# 1 58.2005 20.6126 -1.4903 0.0000 0.0000 0.0000
# 2 20.6126 53.3124 25.5931 0.0000 0.0000 0.0000
# 3 -1.4903 25.5931 88.3036 0.0000 0.0000 0.0000
# 4 0.0000 0.0000 0.0000 31.3977 0.0000 0.0000
# 5 0.0000 0.0000 0.0000 0.0000 5.2645 0.0000
# 6 0.0000 0.0000 0.0000 0.0000 0.0000 -10.6869
#
#
#
# Elastic Compliance Matrix: (Units=1/GPa)
#
#
# Indices 1 2 3 4 5 6 
#
# 1 0.020608 -0.009449 0.003087 0.000000 0.000000 0.000000
# 2 -0.009449 0.026122 -0.007730 0.000000 0.000000 0.000000
# 3 0.003087 -0.007730 0.013617 0.000000 0.000000 0.000000
# 4 0.000000 0.000000 0.000000 0.031849 0.000000 0.000000
# 5 0.000000 0.000000 0.000000 0.000000 0.189951 0.000000
# 6 0.000000 0.000000 0.000000 0.000000 0.000000 -0.093572
#
#
# Mechanical properties :
#
#
# Convention : Reuss Voigt Hill
#
# Bulk Modulus (GPa) = 31.09437 32.13858 31.61648
# Shear Modulus (GPa) = 21.97978 15.53514 18.75746
#
# Velocity S-wave (km/s) = 3.32544 2.79573 3.07203
# Velocity P-wave (km/s) = 5.51263 5.15667 5.33762
#
# Compressibility (1/GPa) = 0.03216016
#
# Stress axis : x y z
#
# Youngs Moduli (GPa) = 48.52562 38.28204 73.43671
#
# Poissons Ratio (x) = 0.36174 -0.22666
# Poissons Ratio (y) = 0.45854 0.56770
# Poissons Ratio (z) = -0.14978 0.29594
#
# Static dielectric constant tensor:
#      x y z
#    x 1.663290 0.000000 0.000000 
#    y 0.000000 1.800970 0.000000 
#    z 0.000000 0.000000 1.817470 
# 
# From -- ./inp_files/20652.got.cif
#   From: 2010.05.17/outbox.cif.g08.bks.cpg/sg67_11_cif.got.tgz:20652.got - 2010.06.03 18:28:57.
