data_PCOD9501121
_publ_section_title
;
Structure prediction by ZEFSAII (Michael W. Deem and Ramdas Pophale) SiO2 
 PCOD9501121
Probable space group: C M M A
;
_chemical_formula_sum "Si O2"
_cell_formula_units_Z 72
_cell_length_a 26.015098
_cell_length_b 8.581149
_cell_length_c 17.396685
_cell_angle_alpha 90.000000
_cell_angle_beta 90.000000
_cell_angle_gamma 90.000000
_cell_volume 3883.626081
_symmetry_space_group_name_H-M "C M M A"
_symmetry_group_IT_number 67
_symmetry_cell_setting 'orthorhombic'
loop_
_space_group_symop_operation_xyz
x,y,z
-x,1/2-y,z
x,-y,-z
-x,1/2+y,-z
-x,-y,-z
x,1/2+y,-z
-x,y,z
x,1/2-y,z
1/2+x,1/2+y,z
1/2-x,-y,z
1/2+x,1/2-y,-z
1/2-x,y,-z
1/2-x,1/2-y,-z
1/2+x,y,-z
1/2-x,1/2+y,z
1/2+x,-y,z
loop_
_atom_site_type_symbol
_atom_site_label
_atom_site_fract_x
_atom_site_fract_y
_atom_site_fract_z
Si Si1 0.335123 0.434661 0.579567
Si Si2 0.443011 0.564067 0.624753
Si Si3 0.583820 0.061189 0.791105
Si Si4 0.803531 0.562911 0.748029
Si Si5 0.000000 0.937215 0.914260
O O1 0.313859 0.500000 0.500000
O O2 0.329977 0.250000 0.578775
O O3 0.395334 0.478961 0.585350
O O4 0.310981 0.494556 0.659611
O O5 0.500000 0.518381 0.597599
O O6 0.437167 0.750000 0.616098
O O7 0.438478 0.517842 0.714558
O O8 0.579989 0.250000 0.781365
O O9 0.644282 0.020501 0.792933
O O10 0.550027 0.015932 0.864418
O O11 0.801301 0.750000 0.745918
O O12 0.750000 0.500000 0.779172
O O13 0.000000 0.750000 0.917610
O O14 0.000000 0.000000 0.000000
#
# Coordination Sequence:
#
# PCOD9501121 Si02
#       5
#    16  16  16  16   8
#     4  10  21  35  49  68  97 133 174 219 267 316
#     4  10  19  30  48  73  99 131 172 215 258 309
#     4   9  18  34  54  76 105 141 173 206 252 305
#     4   9  19  34  53  76  99 131 176 217 260 308
#     4  10  20  34  56  84 115 142 167 204 250 302
#
# _framework density 18.539375
#
# number of rings (size 3 to 8) (size 9 to 14) (size 15 to 20)
#    0.000    2.444    1.111    2.667    0.000    7.556 
#    0.000    2.222    0.000    0.667    0.000    4.667 
#    0.000    0.000    0.000    0.000    0.000    0.000 
#
# Total GULP energy -200848.990941 kJ/mol
# GULP energy per Si atom -5579.138637 kJ/mol
# Density = 1.849718 g / cm^3
# Si number density = 18.539375 Si / 1000 Ang^3
#
#
#
# Elastic Constant Matrix: (Units=GPa)
#
#
# Indices 1 2 3 4 5 6 
#
# 1 136.7337 12.6584 38.1955 0.0000 0.0000 0.0000
# 2 12.6584 11.8338 10.4060 0.0000 0.0000 0.0000
# 3 38.1955 10.4060 102.2555 0.0000 0.0000 0.0000
# 4 0.0000 0.0000 0.0000 26.1156 0.0000 0.0000
# 5 0.0000 0.0000 0.0000 0.0000 -23.7638 0.0000
# 6 0.0000 0.0000 0.0000 0.0000 0.0000 23.7165
#
#
#
# Elastic Compliance Matrix: (Units=1/GPa)
#
#
# Indices 1 2 3 4 5 6 
#
# 1 0.008671 -0.007059 -0.002521 0.000000 0.000000 0.000000
# 2 -0.007059 0.098555 -0.007393 0.000000 0.000000 0.000000
# 3 -0.002521 -0.007393 0.011473 0.000000 0.000000 0.000000
# 4 0.000000 0.000000 0.000000 0.038291 0.000000 0.000000
# 5 0.000000 0.000000 0.000000 0.000000 -0.042081 0.000000
# 6 0.000000 0.000000 0.000000 0.000000 0.000000 0.042165
#
#
# Mechanical properties :
#
#
# Convention : Reuss Voigt Hill
#
# Bulk Modulus (GPa) = 11.79865 41.48251 26.64058
# Shear Modulus (GPa) = 22.80281 17.85119 20.32700
#
# Velocity S-wave (km/s) = 3.51089 3.10640 3.31482
# Velocity P-wave (km/s) = 4.77630 5.94056 5.38996
#
# Compressibility (1/GPa) = 0.08475543
#
# Stress axis : x y z
#
# Youngs Moduli (GPa) = 115.32597 10.14658 87.15924
#
# Poissons Ratio (x) = 0.07162 0.21969
# Poissons Ratio (y) = 0.81407 0.64435
# Poissons Ratio (z) = 0.29069 0.07501
#
# Static dielectric constant tensor:
#      x y z
#    x 1.668040 0.000000 0.000000 
#    y 0.000000 1.630640 0.000000 
#    z 0.000000 0.000000 1.629810 
# 
# From -- ./inp_files/25088.got.cif
#   From: 2010.05.17/outbox.cif.g08.bks.cpg/sg67_13_cif.got.tgz:25088.got - 2010.06.03 18:28:57.
