data_PCOD9501789
_publ_section_title
;
Structure prediction by ZEFSAII (Michael W. Deem and Ramdas Pophale) SiO2 
 PCOD9501789
Probable space group: C M M A
;
_chemical_formula_sum "Si O2"
_cell_formula_units_Z 48
_cell_length_a 16.109474
_cell_length_b 15.039028
_cell_length_c 8.953440
_cell_angle_alpha 90.000000
_cell_angle_beta 90.000000
_cell_angle_gamma 90.000000
_cell_volume 2169.157345
_symmetry_space_group_name_H-M "C M M A"
_symmetry_group_IT_number 67
_symmetry_cell_setting 'orthorhombic'
loop_
_space_group_symop_operation_xyz
x,y,z
-x,1/2-y,z
x,-y,-z
-x,1/2+y,-z
-x,-y,-z
x,1/2+y,-z
-x,y,z
x,1/2-y,z
1/2+x,1/2+y,z
1/2-x,-y,z
1/2+x,1/2-y,-z
1/2-x,y,-z
1/2-x,1/2-y,-z
1/2+x,y,-z
1/2-x,1/2+y,z
1/2+x,-y,z
loop_
_atom_site_type_symbol
_atom_site_label
_atom_site_fract_x
_atom_site_fract_y
_atom_site_fract_z
Si Si1 0.163288 0.357787 0.833023
Si Si2 0.500000 0.918178 0.381038
Si Si3 0.848278 0.358025 0.183626
Si Si4 0.000000 0.651129 0.318518
O O1 0.168035 0.250000 0.824856
O O2 0.254021 0.386316 0.777344
O O3 0.085241 0.390745 0.739029
O O4 0.146927 0.378698 0.006621
O O5 0.419215 0.905138 0.278641
O O6 0.500000 0.841745 0.505300
O O7 0.500000 0.000000 0.500000
O O8 0.856839 0.250000 0.199732
O O9 0.000000 0.750000 0.249906
#
# Coordination Sequence:
#
# PCOD9501789 Si02
#       4
#    16   8  16   8
#     4   8  16  32  61  90 106 130 186 248 293 335
#     4  12  25  36  48  76 120 162 189 218 274 356
#     4   9  17  35  60  84 107 142 191 245 291 331
#     4  10  19  34  55  82 111 142 179 232 294 352
#
# _framework density 22.128409999999999
#
# number of rings (size 3 to 8) (size 9 to 14) (size 15 to 20)
#    0.000    2.667    0.000    4.500    0.000    4.000 
#    0.000   11.667    0.000    4.000    0.000    0.000 
#    0.000    0.000    0.000    0.000    0.000    0.000 
#
# Total GULP energy -133860.704363 kJ/mol
# GULP energy per Si atom -5577.529348 kJ/mol
# Density = 2.207805 g / cm^3
# Si number density = 22.128410 Si / 1000 Ang^3
#
#
#
# Elastic Constant Matrix: (Units=GPa)
#
#
# Indices 1 2 3 4 5 6 
#
# 1 268.8083 40.5254 132.1518 0.0000 0.0000 0.0000
# 2 40.5254 96.3567 26.4015 0.0000 0.0000 0.0000
# 3 132.1518 26.4015 98.9483 0.0000 0.0000 0.0000
# 4 0.0000 0.0000 0.0000 20.8694 0.0000 0.0000
# 5 0.0000 0.0000 0.0000 0.0000 -28.6676 0.0000
# 6 0.0000 0.0000 0.0000 0.0000 0.0000 -31.1841
#
#
#
# Elastic Compliance Matrix: (Units=1/GPa)
#
#
# Indices 1 2 3 4 5 6 
#
# 1 0.010869 -0.000641 -0.014346 0.000000 0.000000 0.000000
# 2 -0.000641 0.011234 -0.002142 0.000000 0.000000 0.000000
# 3 -0.014346 -0.002142 0.029838 0.000000 0.000000 0.000000
# 4 0.000000 0.000000 0.000000 0.047917 0.000000 0.000000
# 5 0.000000 0.000000 0.000000 0.000000 -0.034883 0.000000
# 6 0.000000 0.000000 0.000000 0.000000 0.000000 -0.032068
#
#
# Mechanical properties :
#
#
# Convention : Reuss Voigt Hill
#
# Bulk Modulus (GPa) = 56.54642 95.80787 76.17715
# Shear Modulus (GPa) = 68.43647 9.87251 39.15449
#
# Velocity S-wave (km/s) = 5.56724 2.11451 4.21101
# Velocity P-wave (km/s) = 8.18136 7.02509 7.62517
#
# Compressibility (1/GPa) = 0.01768458
#
# Stress axis : x y z
#
# Youngs Moduli (GPa) = 92.00066 89.01201 33.51459
#
# Poissons Ratio (x) = 0.05703 0.48080
# Poissons Ratio (y) = 0.05894 0.07178
# Poissons Ratio (z) = 1.31984 0.19065
#
# Static dielectric constant tensor:
#      x y z
#    x 1.824940 0.000000 0.000000 
#    y 0.000000 2.007250 0.000000 
#    z 0.000000 0.000000 1.747380 
# 
# From -- ./inp_files/7402.got.cif
#   From: 2010.05.17/outbox.cif.g08.bks.cpg/sg67_4_cif.got.tgz:7402.got - 2010.06.03 18:28:57.
