data_PCOD9501547
_publ_section_title
;
Structure prediction by ZEFSAII (Michael W. Deem and Ramdas Pophale) SiO2 
 PCOD9501547
Probable space group: C M M A
;
_chemical_formula_sum "Si O2"
_cell_formula_units_Z 112
_cell_length_a 14.255211
_cell_length_b 14.378487
_cell_length_c 27.178252
_cell_angle_alpha 90.000000
_cell_angle_beta 90.000000
_cell_angle_gamma 90.000000
_cell_volume 5570.681904
_symmetry_space_group_name_H-M "C M M A"
_symmetry_group_IT_number 67
_symmetry_cell_setting 'orthorhombic'
loop_
_space_group_symop_operation_xyz
x,y,z
-x,1/2-y,z
x,-y,-z
-x,1/2+y,-z
-x,-y,-z
x,1/2+y,-z
-x,y,z
x,1/2-y,z
1/2+x,1/2+y,z
1/2-x,-y,z
1/2+x,1/2-y,-z
1/2-x,y,-z
1/2-x,1/2-y,-z
1/2+x,y,-z
1/2-x,1/2+y,z
1/2+x,-y,z
loop_
_atom_site_type_symbol
_atom_site_label
_atom_site_fract_x
_atom_site_fract_y
_atom_site_fract_z
Si Si1 0.289803 0.138926 0.726013
Si Si2 0.719450 0.145310 0.921881
Si Si3 0.895545 0.604686 0.017560
Si Si4 0.644500 0.352367 0.515425
Si Si5 0.607357 0.862145 0.170734
Si Si6 0.387305 0.038643 0.313749
Si Si7 0.394447 0.524714 0.577687
O O1 0.296197 0.250000 0.715060
O O2 0.330344 0.123136 0.780883
O O3 0.183262 0.101192 0.719120
O O4 0.355159 0.068817 0.694038
O O5 0.742983 0.250000 0.906319
O O6 0.818321 0.104424 0.939469
O O7 0.661055 0.100906 0.877449
O O8 0.653084 0.150673 0.969997
O O9 0.000000 0.640420 0.029221
O O10 0.904891 0.500000 0.000000
O O11 0.605232 0.250000 0.527236
O O12 0.750000 0.339516 0.500000
O O13 0.602296 0.402406 0.467161
O O14 0.649918 0.429773 0.557915
O O15 0.500000 0.897542 0.175473
O O16 0.599249 0.750000 0.164982
O O17 0.500000 0.050534 0.305276
O O18 0.360792 0.063502 0.370410
O O19 0.500000 0.494980 0.588416
#
# Coordination Sequence:
#
# PCOD9501547 Si02
#       7
#    16  16  16  16  16  16  16
#     4  10  22  40  64  88 117 156 200 253 309 367
#     4  10  19  32  55  82 107 143 193 241 287 340
#     4  10  20  34  49  74 116 156 188 227 280 343
#     4  10  21  34  55  84 114 151 194 233 280 341
#     4   9  18  35  59  86 113 144 189 243 297 351
#     4  10  23  41  61  91 123 156 201 251 309 367
#     4  10  21  37  56  78 115 154 187 238 289 342
#
# _framework density 20.105259
#
# number of rings (size 3 to 8) (size 9 to 14) (size 15 to 20)
#    0.000    2.143    0.000    4.286    4.000    5.143 
#    5.143    3.571    0.000    2.571    0.000    0.000 
#    0.000    0.000    0.000    0.000    0.000    0.000 
#
# Total GULP energy -311789.654240 kJ/mol
# GULP energy per Si atom -5567.672397 kJ/mol
# Density = 2.005950 g / cm^3
# Si number density = 20.105259 Si / 1000 Ang^3
#
#
#
# Elastic Constant Matrix: (Units=GPa)
#
#
# Indices 1 2 3 4 5 6 
#
# 1 170.0701 25.0454 57.0358 0.0000 0.0000 0.0000
# 2 25.0454 85.1144 9.1117 0.0000 0.0000 0.0000
# 3 57.0358 9.1117 85.7334 0.0000 0.0000 0.0000
# 4 0.0000 0.0000 0.0000 21.7735 0.0000 0.0000
# 5 0.0000 0.0000 0.0000 0.0000 24.5972 0.0000
# 6 0.0000 0.0000 0.0000 0.0000 0.0000 41.6961
#
#
#
# Elastic Compliance Matrix: (Units=1/GPa)
#
#
# Indices 1 2 3 4 5 6 
#
# 1 0.007822 -0.001765 -0.005016 0.000000 0.000000 0.000000
# 2 -0.001765 0.012282 -0.000131 0.000000 0.000000 0.000000
# 3 -0.005016 -0.000131 0.015015 0.000000 0.000000 0.000000
# 4 0.000000 0.000000 0.000000 0.045927 0.000000 0.000000
# 5 0.000000 0.000000 0.000000 0.000000 0.040655 0.000000
# 6 0.000000 0.000000 0.000000 0.000000 0.000000 0.023983
#
#
# Mechanical properties :
#
#
# Convention : Reuss Voigt Hill
#
# Bulk Modulus (GPa) = 46.95959 58.14487 52.55223
# Shear Modulus (GPa) = 30.01060 34.26169 32.13615
#
# Velocity S-wave (km/s) = 3.86771 4.13257 4.00233
# Velocity P-wave (km/s) = 6.58431 7.19402 6.89590
#
# Compressibility (1/GPa) = 0.02129490
#
# Stress axis : x y z
#
# Youngs Moduli (GPa) = 127.84321 81.41845 66.59932
#
# Poissons Ratio (x) = 0.14368 0.33408
# Poissons Ratio (y) = 0.22560 0.00875
# Poissons Ratio (z) = 0.64129 0.01070
#
# Static dielectric constant tensor:
#      x y z
#    x 1.778040 0.000000 0.000000 
#    y 0.000000 1.809530 0.000000 
#    z 0.000000 0.000000 1.805310 
# 
# From -- ./inp_files/44361.got.cif
#   From: 2010.05.17/outbox.cif.g08.bks.cpg/sg67_23_cif.got.tgz:44361.got - 2010.06.03 18:28:57.
