data_PCOD9501675
_publ_section_title
;
Structure prediction by ZEFSAII (Michael W. Deem and Ramdas Pophale) SiO2 
 PCOD9501675
Probable space group: C M M A
;
_chemical_formula_sum "Si O2"
_cell_formula_units_Z 96
_cell_length_a 29.611022
_cell_length_b 8.595075
_cell_length_c 21.148529
_cell_angle_alpha 90.000000
_cell_angle_beta 90.000000
_cell_angle_gamma 90.000000
_cell_volume 5382.490014
_symmetry_space_group_name_H-M "C M M A"
_symmetry_group_IT_number 67
_symmetry_cell_setting 'orthorhombic'
loop_
_space_group_symop_operation_xyz
x,y,z
-x,1/2-y,z
x,-y,-z
-x,1/2+y,-z
-x,-y,-z
x,1/2+y,-z
-x,y,z
x,1/2-y,z
1/2+x,1/2+y,z
1/2-x,-y,z
1/2+x,1/2-y,-z
1/2-x,y,-z
1/2-x,1/2-y,-z
1/2+x,y,-z
1/2-x,1/2+y,z
1/2+x,-y,z
loop_
_atom_site_type_symbol
_atom_site_label
_atom_site_fract_x
_atom_site_fract_y
_atom_site_fract_z
Si Si1 0.891267 0.563336 0.066497
Si Si2 0.393033 0.937733 0.686519
Si Si3 0.551904 0.563916 0.430659
Si Si4 0.448134 0.939670 0.810919
Si Si5 0.201643 0.564312 0.884468
Si Si6 0.297853 0.562908 0.741522
O O1 0.890260 0.750000 0.065503
O O2 0.921505 0.511931 0.126152
O O3 0.840762 0.500599 0.077376
O O4 0.908927 0.500000 0.000000
O O5 0.395238 0.750000 0.683827
O O6 0.421871 0.989249 0.747819
O O7 0.341023 0.980711 0.699558
O O8 0.414992 0.004197 0.623491
O O9 0.563606 0.500000 0.500000
O O10 0.500000 0.513350 0.416746
O O11 0.552695 0.750000 0.432378
O O12 0.500000 0.991455 0.810713
O O13 0.448037 0.750000 0.810750
O O14 0.202192 0.750000 0.885823
O O15 0.250000 0.500000 0.906960
O O16 0.196112 0.505676 0.812023
O O17 0.296256 0.750000 0.747079
O O18 0.250000 0.500000 0.717204
#
# Coordination Sequence:
#
# PCOD9501675 Si02
#       6
#    16  16  16  16  16  16
#     4  11  22  38  55  77 107 141 184 227 276 333
#     4  10  19  34  58  84 112 147 186 224 271 324
#     4  10  21  36  55  83 118 153 188 227 272 323
#     4   9  18  34  56  79 106 142 182 224 271 325
#     4  11  21  35  56  80 107 140 176 222 277 330
#     4  10  19  33  54  83 113 146 181 223 271 324
#
# _framework density 17.835612000000001
#
# number of rings (size 3 to 8) (size 9 to 14) (size 15 to 20)
#    0.000    1.833    1.667    4.500    0.000    3.667 
#    0.000    1.667    0.000    3.000    0.000    3.500 
#    0.000    0.000    0.000    0.000    0.000    0.000 
#
# Total GULP energy -268098.641840 kJ/mol
# GULP energy per Si atom -5585.388372 kJ/mol
# Density = 1.779502 g / cm^3
# Si number density = 17.835612 Si / 1000 Ang^3
#
#
#
# Elastic Constant Matrix: (Units=GPa)
#
#
# Indices 1 2 3 4 5 6 
#
# 1 136.0626 34.1834 80.9500 0.0000 0.0000 0.0000
# 2 34.1834 59.0872 30.9206 0.0000 0.0000 0.0000
# 3 80.9500 30.9206 125.8976 0.0000 0.0000 0.0000
# 4 0.0000 0.0000 0.0000 29.9218 0.0000 0.0000
# 5 0.0000 0.0000 0.0000 0.0000 8.8993 0.0000
# 6 0.0000 0.0000 0.0000 0.0000 0.0000 18.7249
#
#
#
# Elastic Compliance Matrix: (Units=1/GPa)
#
#
# Indices 1 2 3 4 5 6 
#
# 1 0.012494 -0.003470 -0.007181 0.000000 0.000000 0.000000
# 2 -0.003470 0.020384 -0.002775 0.000000 0.000000 0.000000
# 3 -0.007181 -0.002775 0.013242 0.000000 0.000000 0.000000
# 4 0.000000 0.000000 0.000000 0.033420 0.000000 0.000000
# 5 0.000000 0.000000 0.000000 0.000000 0.112369 0.000000
# 6 0.000000 0.000000 0.000000 0.000000 0.000000 0.053405
#
#
# Mechanical properties :
#
#
# Convention : Reuss Voigt Hill
#
# Bulk Modulus (GPa) = 51.90210 68.12837 60.01524
# Shear Modulus (GPa) = 17.94765 23.17541 20.56153
#
# Velocity S-wave (km/s) = 3.17564 3.60862 3.39903
# Velocity P-wave (km/s) = 6.52761 7.45947 7.00904
#
# Compressibility (1/GPa) = 0.01926704
#
# Stress axis : x y z
#
# Youngs Moduli (GPa) = 80.04089 49.05837 75.51873
#
# Poissons Ratio (x) = 0.17023 0.54229
# Poissons Ratio (y) = 0.27775 0.20957
# Poissons Ratio (z) = 0.57477 0.13614
#
# Static dielectric constant tensor:
#      x y z
#    x 1.612110 0.000000 0.000000 
#    y 0.000000 1.603310 0.000000 
#    z 0.000000 0.000000 1.587070 
# 
# From -- ./inp_files/37118.got.cif
#   From: 2010.05.17/outbox.cif.g08.bks.cpg/sg67_19_cif.got.tgz:37118.got - 2010.06.03 18:28:57.
