data_PCOD9501207
_publ_section_title
;
Structure prediction by ZEFSAII (Michael W. Deem and Ramdas Pophale) SiO2 
 PCOD9501207
Probable space group: C M M A
;
_chemical_formula_sum "Si O2"
_cell_formula_units_Z 96
_cell_length_a 8.835347
_cell_length_b 28.151206
_cell_length_c 24.377107
_cell_angle_alpha 90.000000
_cell_angle_beta 90.000000
_cell_angle_gamma 90.000000
_cell_volume 6063.212356
_symmetry_space_group_name_H-M "C M M A"
_symmetry_group_IT_number 67
_symmetry_cell_setting 'orthorhombic'
loop_
_space_group_symop_operation_xyz
x,y,z
-x,1/2-y,z
x,-y,-z
-x,1/2+y,-z
-x,-y,-z
x,1/2+y,-z
-x,y,z
x,1/2-y,z
1/2+x,1/2+y,z
1/2-x,-y,z
1/2+x,1/2-y,-z
1/2-x,y,-z
1/2-x,1/2-y,-z
1/2+x,y,-z
1/2-x,1/2+y,z
1/2+x,-y,z
loop_
_atom_site_type_symbol
_atom_site_label
_atom_site_fract_x
_atom_site_fract_y
_atom_site_fract_z
Si Si1 0.681098 0.804695 0.272069
Si Si2 0.181332 0.948731 0.224834
Si Si3 0.180833 0.305924 0.059071
Si Si4 0.818220 0.353421 0.834708
Si Si5 0.682037 0.947741 0.558368
Si Si6 0.317795 0.891141 0.667110
O O1 0.500000 0.808713 0.267536
O O2 0.719662 0.750000 0.283778
O O3 0.754569 0.820922 0.214542
O O4 0.741699 0.841425 0.317356
O O5 0.223661 0.907460 0.181765
O O6 0.226275 0.928184 0.284673
O O7 0.000000 0.952713 0.224580
O O8 0.250000 0.000000 0.214311
O O9 0.215553 0.250000 0.068886
O O10 0.250701 0.336300 0.108092
O O11 0.000000 0.311116 0.057836
O O12 0.250000 0.318579 0.000000
O O13 0.000000 0.349988 0.835325
O O14 0.500000 0.951306 0.554646
O O15 0.750000 0.932188 0.500000
O O16 0.721129 0.912778 0.608225
O O17 0.750000 0.000000 0.569607
O O18 0.500000 0.885567 0.670199
#
# Coordination Sequence:
#
# PCOD9501207 Si02
#       6
#    16  16  16  16  16  16
#     4  10  20  32  48  72  98 124 157 196 237 282
#     4   9  18  31  47  69  95 123 156 192 232 278
#     4  10  20  33  50  73  99 127 160 196 236 282
#     4  10  20  33  49  71  99 129 160 194 234 281
#     4  10  19  31  48  71  98 127 160 196 237 285
#     4   9  19  33  48  69  96 126 159 194 235 284
#
# _framework density 15.833190999999999
#
# number of rings (size 3 to 8) (size 9 to 14) (size 15 to 20)
#    0.000    2.333    0.000    4.500    0.000    9.000 
#    0.000    0.000    0.000    1.000    0.000    3.500 
#    0.000    0.000    0.000    0.000    0.000    0.000 
#
# Total GULP energy -267793.548545 kJ/mol
# GULP energy per Si atom -5579.032261 kJ/mol
# Density = 1.579715 g / cm^3
# Si number density = 15.833191 Si / 1000 Ang^3
#
#
#
# Elastic Constant Matrix: (Units=GPa)
#
#
# Indices 1 2 3 4 5 6 
#
# 1 50.2929 55.2717 57.2544 0.0000 0.0000 0.0000
# 2 55.2717 136.5641 96.7116 0.0000 0.0000 0.0000
# 3 57.2544 96.7116 150.9698 0.0000 0.0000 0.0000
# 4 0.0000 0.0000 0.0000 22.1937 0.0000 0.0000
# 5 0.0000 0.0000 0.0000 0.0000 27.2272 0.0000
# 6 0.0000 0.0000 0.0000 0.0000 0.0000 28.9888
#
#
#
# Elastic Compliance Matrix: (Units=1/GPa)
#
#
# Indices 1 2 3 4 5 6 
#
# 1 0.041762 -0.010408 -0.009171 0.000000 0.000000 0.000000
# 2 -0.010408 0.015997 -0.006300 0.000000 0.000000 0.000000
# 3 -0.009171 -0.006300 0.014138 0.000000 0.000000 0.000000
# 4 0.000000 0.000000 0.000000 0.045058 0.000000 0.000000
# 5 0.000000 0.000000 0.000000 0.000000 0.036728 0.000000
# 6 0.000000 0.000000 0.000000 0.000000 0.000000 0.034496
#
#
# Mechanical properties :
#
#
# Convention : Reuss Voigt Hill
#
# Bulk Modulus (GPa) = 49.65613 84.03357 66.84485
# Shear Modulus (GPa) = 20.27174 24.25454 22.26314
#
# Velocity S-wave (km/s) = 3.58205 3.91817 3.75388
# Velocity P-wave (km/s) = 6.96694 8.58248 7.81656
#
# Compressibility (1/GPa) = 0.02013850
#
# Stress axis : x y z
#
# Youngs Moduli (GPa) = 23.94541 62.51250 70.73224
#
# Poissons Ratio (x) = 0.65062 0.64866
# Poissons Ratio (y) = 0.24922 0.44565
# Poissons Ratio (z) = 0.21959 0.39386
#
# Static dielectric constant tensor:
#      x y z
#    x 1.531040 0.000000 0.000000 
#    y 0.000000 1.513240 0.000000 
#    z 0.000000 0.000000 1.512860 
# 
# From -- ./inp_files/40783.got.cif
#   From: 2010.05.17/outbox.cif.g08.bks.cpg/sg67_21_cif.got.tgz:40783.got - 2010.06.03 18:28:57.
