data_PCOD9501773
_publ_section_title
;
Structure prediction by ZEFSAII (Michael W. Deem and Ramdas Pophale) SiO2 
 PCOD9501773
Probable space group: C M M A
;
_chemical_formula_sum "Si O2"
_cell_formula_units_Z 72
_cell_length_a 8.031872
_cell_length_b 26.092567
_cell_length_c 17.299040
_cell_angle_alpha 90.000000
_cell_angle_beta 90.000000
_cell_angle_gamma 90.000000
_cell_volume 3625.397149
_symmetry_space_group_name_H-M "C M M A"
_symmetry_group_IT_number 67
_symmetry_cell_setting 'orthorhombic'
loop_
_space_group_symop_operation_xyz
x,y,z
-x,1/2-y,z
x,-y,-z
-x,1/2+y,-z
-x,-y,-z
x,1/2+y,-z
-x,y,z
x,1/2-y,z
1/2+x,1/2+y,z
1/2-x,-y,z
1/2+x,1/2-y,-z
1/2-x,y,-z
1/2-x,1/2-y,-z
1/2+x,y,-z
1/2-x,1/2+y,z
1/2+x,-y,z
loop_
_atom_site_type_symbol
_atom_site_label
_atom_site_fract_x
_atom_site_fract_y
_atom_site_fract_z
Si Si1 0.800033 0.250000 0.411258
Si Si2 0.302062 0.666110 0.290439
Si Si3 0.303133 0.694742 0.879939
Si Si4 0.200448 0.083916 0.918322
Si Si5 0.198887 0.555252 0.251771
O O1 0.750000 0.250000 0.500000
O O2 0.744360 0.199911 0.362987
O O3 0.000000 0.250000 0.409477
O O4 0.500000 0.673399 0.281147
O O5 0.217926 0.686863 0.212121
O O6 0.265969 0.605603 0.294630
O O7 0.500000 0.695732 0.897038
O O8 0.230252 0.750000 0.902345
O O9 0.232692 0.642612 0.915751
O O10 0.259540 0.059145 0.837970
O O11 0.000000 0.084891 0.915004
O O12 0.250000 0.060395 0.000000
O O13 0.250000 0.500000 0.283237
O O14 0.000000 0.558976 0.251315
#
# Coordination Sequence:
#
# PCOD9501773 Si02
#       5
#     8  16  16  16  16
#     4  10  22  36  56  88 121 148 175 206 253 310
#     4  10  19  34  54  81 112 140 176 220 259 309
#     4   9  17  30  48  69  97 137 180 220 265 320
#     4   9  19  32  45  67  99 134 177 223 273 323
#     4  10  21  37  56  79 103 138 183 226 272 321
#
# _framework density 19.859894000000001
#
# number of rings (size 3 to 8) (size 9 to 14) (size 15 to 20)
#    0.000    2.444    1.111    2.667    0.000    7.111 
#    0.000    2.222    0.000    0.667    0.000    4.667 
#    0.000    0.000    0.000    0.000    0.000    0.000 
#
# Total GULP energy -200848.696232 kJ/mol
# GULP energy per Si atom -5579.130451 kJ/mol
# Density = 1.981469 g / cm^3
# Si number density = 19.859894 Si / 1000 Ang^3
#
#
#
# Elastic Constant Matrix: (Units=GPa)
#
#
# Indices 1 2 3 4 5 6 
#
# 1 22.3815 1.6369 -4.0010 0.0000 0.0000 0.0000
# 2 1.6369 151.8995 39.4064 0.0000 0.0000 0.0000
# 3 -4.0010 39.4064 103.7205 0.0000 0.0000 0.0000
# 4 0.0000 0.0000 0.0000 15.5811 0.0000 0.0000
# 5 0.0000 0.0000 0.0000 0.0000 20.7777 0.0000
# 6 0.0000 0.0000 0.0000 0.0000 0.0000 5.9061
#
#
#
# Elastic Compliance Matrix: (Units=1/GPa)
#
#
# Indices 1 2 3 4 5 6 
#
# 1 0.045138 -0.001041 0.002137 0.000000 0.000000 0.000000
# 2 -0.001041 0.007327 -0.002824 0.000000 0.000000 0.000000
# 3 0.002137 -0.002824 0.010797 0.000000 0.000000 0.000000
# 4 0.000000 0.000000 0.000000 0.064180 0.000000 0.000000
# 5 0.000000 0.000000 0.000000 0.000000 0.048129 0.000000
# 6 0.000000 0.000000 0.000000 0.000000 0.000000 0.169316
#
#
# Mechanical properties :
#
#
# Convention : Reuss Voigt Hill
#
# Bulk Modulus (GPa) = 16.72089 39.12067 27.92078
# Shear Modulus (GPa) = 13.57671 24.51693 19.04682
#
# Velocity S-wave (km/s) = 2.61746 3.51735 3.10023
# Velocity P-wave (km/s) = 4.19196 6.01970 5.18697
#
# Compressibility (1/GPa) = 0.05980543
#
# Stress axis : x y z
#
# Youngs Moduli (GPa) = 22.15440 136.47948 92.62165
#
# Poissons Ratio (x) = 0.14203 -0.19789
# Poissons Ratio (y) = 0.02306 0.26156
# Poissons Ratio (z) = -0.04733 0.38541
#
# Static dielectric constant tensor:
#      x y z
#    x 1.697900 0.000000 0.000000 
#    y 0.000000 1.764130 0.000000 
#    z 0.000000 0.000000 1.677300 
# 
# From -- ./inp_files/25089.got.cif
#   From: 2010.05.17/outbox.cif.g08.bks.cpg/sg67_13_cif.got.tgz:25089.got - 2010.06.03 18:28:57.
