data_PCOD9501505
_publ_section_title
;
Structure prediction by ZEFSAII (Michael W. Deem and Ramdas Pophale) SiO2 
 PCOD9501505
Probable space group: C M M A
;
_chemical_formula_sum "Si O2"
_cell_formula_units_Z 128
_cell_length_a 15.013689
_cell_length_b 20.446765
_cell_length_c 20.540970
_cell_angle_alpha 90.000000
_cell_angle_beta 90.000000
_cell_angle_gamma 90.000000
_cell_volume 6305.695127
_symmetry_space_group_name_H-M "C M M A"
_symmetry_group_IT_number 67
_symmetry_cell_setting 'orthorhombic'
loop_
_space_group_symop_operation_xyz
x,y,z
-x,1/2-y,z
x,-y,-z
-x,1/2+y,-z
-x,-y,-z
x,1/2+y,-z
-x,y,z
x,1/2-y,z
1/2+x,1/2+y,z
1/2-x,-y,z
1/2+x,1/2-y,-z
1/2-x,y,-z
1/2-x,1/2-y,-z
1/2+x,y,-z
1/2-x,1/2+y,z
1/2+x,-y,z
loop_
_atom_site_type_symbol
_atom_site_label
_atom_site_fract_x
_atom_site_fract_y
_atom_site_fract_z
Si Si1 0.158185 0.824787 0.875353
Si Si2 0.356904 0.922337 0.231436
Si Si3 0.608798 0.406999 0.540517
Si Si4 0.603074 0.325950 0.013375
Si Si5 0.147378 0.566825 0.254534
Si Si6 0.606660 0.678423 0.346020
Si Si7 0.108049 0.451629 0.597668
Si Si8 0.865480 0.824740 0.156656
O O1 0.120906 0.750000 0.872898
O O2 0.113198 0.879082 0.830063
O O3 0.258432 0.820116 0.848769
O O4 0.157824 0.847865 0.950478
O O5 0.250290 0.931833 0.232476
O O6 0.376196 0.877490 0.293612
O O7 0.393055 0.995896 0.236699
O O8 0.500000 0.407357 0.539020
O O9 0.639356 0.346632 0.583977
O O10 0.637452 0.410415 0.465563
O O11 0.633796 0.473977 0.578299
O O12 0.500000 0.328458 0.993136
O O13 0.629926 0.250000 0.023138
O O14 0.609177 0.354115 0.085825
O O15 0.143619 0.570788 0.332752
O O16 0.107132 0.627664 0.215037
O O17 0.500000 0.683396 0.350353
O O18 0.642412 0.750000 0.327354
O O19 0.000000 0.450038 0.601728
O O20 0.898783 0.750000 0.163821
#
# Coordination Sequence:
#
# PCOD9501505 Si02
#       8
#    16  16  16  16  16  16  16  16
#     4   9  17  31  51  71  94 130 166 199 247 309
#     4  10  20  33  48  73 107 134 170 212 253 309
#     4   8  15  29  50  75  99 128 170 213 252 301
#     4   9  17  30  50  75  99 122 158 210 257 300
#     4  10  20  33  51  73 102 139 173 211 259 305
#     4  10  19  32  53  78 105 136 168 211 266 317
#     4   9  16  30  53  74  96 131 174 215 251 299
#     4   9  18  33  51  70  94 130 173 209 249 304
#
# _framework density 20.299111
#
# number of rings (size 3 to 8) (size 9 to 14) (size 15 to 20)
#    0.000    2.750    1.250    1.500    0.000    3.000 
#    0.000    3.125    0.000    5.250    0.000    0.000 
#    0.000    0.000    0.000    0.000    0.000    0.000 
#
# Total GULP energy -356619.695857 kJ/mol
# GULP energy per Si atom -5572.182748 kJ/mol
# Density = 2.025291 g / cm^3
# Si number density = 20.299111 Si / 1000 Ang^3
#
#
#
# Elastic Constant Matrix: (Units=GPa)
#
#
# Indices 1 2 3 4 5 6 
#
# 1 28.1415 12.4455 -1.9240 0.0000 0.0000 0.0000
# 2 12.4455 122.8905 82.2412 0.0000 0.0000 0.0000
# 3 -1.9240 82.2412 164.7716 0.0000 0.0000 0.0000
# 4 0.0000 0.0000 0.0000 41.1622 0.0000 0.0000
# 5 0.0000 0.0000 0.0000 0.0000 16.7288 0.0000
# 6 0.0000 0.0000 0.0000 0.0000 0.0000 7.7956
#
#
#
# Elastic Compliance Matrix: (Units=1/GPa)
#
#
# Indices 1 2 3 4 5 6 
#
# 1 0.038576 -0.006319 0.003604 0.000000 0.000000 0.000000
# 2 -0.006319 0.013254 -0.006689 0.000000 0.000000 0.000000
# 3 0.003604 -0.006689 0.009450 0.000000 0.000000 0.000000
# 4 0.000000 0.000000 0.000000 0.024294 0.000000 0.000000
# 5 0.000000 0.000000 0.000000 0.000000 0.059777 0.000000
# 6 0.000000 0.000000 0.000000 0.000000 0.000000 0.128277
#
#
# Mechanical properties :
#
#
# Convention : Reuss Voigt Hill
#
# Bulk Modulus (GPa) = 23.54493 55.70323 39.62408
# Shear Modulus (GPa) = 16.30833 28.00672 22.15752
#
# Velocity S-wave (km/s) = 2.83751 3.71846 3.30745
# Velocity P-wave (km/s) = 4.72858 6.77767 5.84364
#
# Compressibility (1/GPa) = 0.04247198
#
# Stress axis : x y z
#
# Youngs Moduli (GPa) = 25.92319 75.45074 105.82321
#
# Poissons Ratio (x) = 0.47675 -0.38141
# Poissons Ratio (y) = 0.16380 0.70785
# Poissons Ratio (z) = -0.09343 0.50469
#
# Static dielectric constant tensor:
#      x y z
#    x 1.794210 0.000000 0.000000 
#    y 0.000000 1.726040 0.000000 
#    z 0.000000 0.000000 1.739550 
# 
# From -- ./inp_files/39141.got.cif
#   From: 2010.05.17/outbox.cif.g08.bks.cpg/sg67_20_cif.got.tgz:39141.got - 2010.06.03 18:28:57.
