data_PCOD9501173
_publ_section_title
;
Structure prediction by ZEFSAII (Michael W. Deem and Ramdas Pophale) SiO2 
 PCOD9501173
Probable space group: C M M A
;
_chemical_formula_sum "Si O2"
_cell_formula_units_Z 88
_cell_length_a 9.659178
_cell_length_b 33.109866
_cell_length_c 18.504175
_cell_angle_alpha 90.000000
_cell_angle_beta 90.000000
_cell_angle_gamma 90.000000
_cell_volume 5917.895875
_symmetry_space_group_name_H-M "C M M A"
_symmetry_group_IT_number 67
_symmetry_cell_setting 'orthorhombic'
loop_
_space_group_symop_operation_xyz
x,y,z
-x,1/2-y,z
x,-y,-z
-x,1/2+y,-z
-x,-y,-z
x,1/2+y,-z
-x,y,z
x,1/2-y,z
1/2+x,1/2+y,z
1/2-x,-y,z
1/2+x,1/2-y,-z
1/2-x,y,-z
1/2-x,1/2-y,-z
1/2+x,y,-z
1/2-x,1/2+y,z
1/2+x,-y,z
loop_
_atom_site_type_symbol
_atom_site_label
_atom_site_fract_x
_atom_site_fract_y
_atom_site_fract_z
Si Si1 0.659357 0.578012 0.725250
Si Si2 0.335248 0.702758 0.072377
Si Si3 0.153097 0.443751 0.065460
Si Si4 0.334433 0.128969 0.832058
Si Si5 0.750000 0.000000 0.186095
Si Si6 0.668203 0.542365 0.570326
O O1 0.500000 0.589586 0.735354
O O2 0.756024 0.611082 0.763078
O O3 0.682837 0.534719 0.764921
O O4 0.685823 0.569938 0.640848
O O5 0.500000 0.697358 0.058720
O O6 0.311084 0.750000 0.088826
O O7 0.298096 0.673166 0.138342
O O8 0.250000 0.692722 0.000000
O O9 0.199127 0.402060 0.102696
O O10 0.152871 0.475882 0.130477
O O11 0.000000 0.438695 0.036040
O O12 0.250000 0.455129 0.000000
O O13 0.500000 0.126690 0.820301
O O14 0.500000 0.536730 0.559565
O O15 0.750000 0.500000 0.584152
O O16 0.750000 0.558684 0.500000
#
# Coordination Sequence:
#
# PCOD9501173 Si02
#       6
#    16  16  16  16   8  16
#     4  10  20  32  47  65  87 116 150 185 220 262
#     4   9  17  30  48  69  92 119 152 189 229 275
#     4  10  20  30  41  55  75 105 142 183 221 257
#     4   9  19  32  45  63  87 116 146 182 228 270
#     4  10  19  32  43  56  80 108 148 184 221 256
#     4  10  19  31  47  68  90 117 150 184 222 262
#
# _framework density 14.870151
#
# number of rings (size 3 to 8) (size 9 to 14) (size 15 to 20)
#    0.000    2.364    0.909    2.455    0.000    7.273 
#    0.000    0.000    0.000    0.000    0.000    0.000 
#    0.000    0.727    0.000    1.636    0.000    2.545 
#
# Total GULP energy -245057.451302 kJ/mol
# GULP energy per Si atom -5569.487530 kJ/mol
# Density = 1.483631 g / cm^3
# Si number density = 14.870151 Si / 1000 Ang^3
#
#
#
# Elastic Constant Matrix: (Units=GPa)
#
#
# Indices 1 2 3 4 5 6 
#
# 1 63.9650 32.6110 56.9915 0.0000 0.0000 0.0000
# 2 32.6110 69.8175 44.4346 0.0000 0.0000 0.0000
# 3 56.9915 44.4346 111.0227 0.0000 0.0000 0.0000
# 4 0.0000 0.0000 0.0000 19.7236 0.0000 0.0000
# 5 0.0000 0.0000 0.0000 0.0000 23.1857 0.0000
# 6 0.0000 0.0000 0.0000 0.0000 0.0000 1.6931
#
#
#
# Elastic Compliance Matrix: (Units=1/GPa)
#
#
# Indices 1 2 3 4 5 6 
#
# 1 0.030429 -0.005732 -0.013326 0.000000 0.000000 0.000000
# 2 -0.005732 0.020298 -0.005182 0.000000 0.000000 0.000000
# 3 -0.013326 -0.005182 0.017922 0.000000 0.000000 0.000000
# 4 0.000000 0.000000 0.000000 0.050701 0.000000 0.000000
# 5 0.000000 0.000000 0.000000 0.000000 0.043130 0.000000
# 6 0.000000 0.000000 0.000000 0.000000 0.000000 0.590627
#
#
# Mechanical properties :
#
#
# Convention : Reuss Voigt Hill
#
# Bulk Modulus (GPa) = 49.57907 56.98661 53.28284
# Shear Modulus (GPa) = 6.18575 16.30502 11.24539
#
# Velocity S-wave (km/s) = 2.04178 3.31493 2.75296
# Velocity P-wave (km/s) = 6.24277 7.28407 6.78343
#
# Compressibility (1/GPa) = 0.02016980
#
# Stress axis : x y z
#
# Youngs Moduli (GPa) = 32.86326 49.26571 55.79812
#
# Poissons Ratio (x) = 0.28238 0.74358
# Poissons Ratio (y) = 0.18837 0.28912
# Poissons Ratio (z) = 0.43794 0.25528
#
# Static dielectric constant tensor:
#      x y z
#    x 1.509690 0.000000 0.000000 
#    y 0.000000 1.503380 0.000000 
#    z 0.000000 0.000000 1.486490 
# 
# From -- ./inp_files/32365.got.cif
#   From: 2010.05.17/outbox.cif.g08.bks.cpg/sg67_17_cif.got.tgz:32365.got - 2010.06.03 18:28:57.
