data_PCOD9501625
_publ_section_title
;
Structure prediction by ZEFSAII (Michael W. Deem and Ramdas Pophale) SiO2 
 PCOD9501625
Probable space group: C M M A
;
_chemical_formula_sum "Si O2"
_cell_formula_units_Z 80
_cell_length_a 8.572838
_cell_length_b 27.686762
_cell_length_c 19.205104
_cell_angle_alpha 90.000000
_cell_angle_beta 90.000000
_cell_angle_gamma 90.000000
_cell_volume 4558.410663
_symmetry_space_group_name_H-M "C M M A"
_symmetry_group_IT_number 67
_symmetry_cell_setting 'orthorhombic'
loop_
_space_group_symop_operation_xyz
x,y,z
-x,1/2-y,z
x,-y,-z
-x,1/2+y,-z
-x,-y,-z
x,1/2+y,-z
-x,y,z
x,1/2-y,z
1/2+x,1/2+y,z
1/2-x,-y,z
1/2+x,1/2-y,-z
1/2-x,y,-z
1/2-x,1/2-y,-z
1/2+x,y,-z
1/2-x,1/2+y,z
1/2+x,-y,z
loop_
_atom_site_type_symbol
_atom_site_label
_atom_site_fract_x
_atom_site_fract_y
_atom_site_fract_z
Si Si1 0.312325 0.148291 0.780762
Si Si2 0.812212 0.694017 0.926113
Si Si3 0.686833 0.194725 0.357994
Si Si4 0.685545 0.099353 0.575652
Si Si5 0.685944 0.552730 0.714447
O O1 0.500000 0.151547 0.775231
O O2 0.263391 0.165178 0.857451
O O3 0.238746 0.181881 0.720693
O O4 0.258309 0.094280 0.763014
O O5 0.761276 0.750000 0.919045
O O6 0.000000 0.693507 0.928286
O O7 0.750000 0.675507 0.000000
O O8 0.500000 0.189088 0.363497
O O9 0.728060 0.250000 0.374676
O O10 0.767875 0.154623 0.406024
O O11 0.500000 0.094211 0.578394
O O12 0.750000 0.086681 0.500000
O O13 0.761796 0.067318 0.636361
O O14 0.500000 0.554038 0.718877
O O15 0.750000 0.500000 0.731421
#
# Coordination Sequence:
#
# PCOD9501625 Si02
#       5
#    16  16  16  16  16
#     4  10  19  33  53  77 105 137 173 214 259 304
#     4   9  18  31  49  76 110 145 178 210 247 295
#     4  10  20  33  50  74 103 137 176 214 254 303
#     4  11  22  37  55  76 103 134 169 211 259 308
#     4  11  22  38  58  80 103 130 168 211 259 310
#
# _framework density 17.549976000000001
#
# number of rings (size 3 to 8) (size 9 to 14) (size 15 to 20)
#    0.000    1.800    0.000    7.800    0.000    4.800 
#    0.000    4.000    0.000    0.600    0.000    4.200 
#    0.000    0.000    0.000    0.000    0.000    0.000 
#
# Total GULP energy -223432.839806 kJ/mol
# GULP energy per Si atom -5585.820995 kJ/mol
# Density = 1.751003 g / cm^3
# Si number density = 17.549976 Si / 1000 Ang^3
#
#
#
# Elastic Constant Matrix: (Units=GPa)
#
#
# Indices 1 2 3 4 5 6 
#
# 1 49.0392 -6.7548 -1.7613 0.0000 0.0000 0.0000
# 2 -6.7548 49.6669 4.2034 0.0000 0.0000 0.0000
# 3 -1.7613 4.2034 96.8515 0.0000 0.0000 0.0000
# 4 0.0000 0.0000 0.0000 4.1523 0.0000 0.0000
# 5 0.0000 0.0000 0.0000 0.0000 29.9940 0.0000
# 6 0.0000 0.0000 0.0000 0.0000 0.0000 22.9578
#
#
#
# Elastic Compliance Matrix: (Units=1/GPa)
#
#
# Indices 1 2 3 4 5 6 
#
# 1 0.020787 0.002805 0.000256 0.000000 0.000000 0.000000
# 2 0.002805 0.020587 -0.000842 0.000000 0.000000 0.000000
# 3 0.000256 -0.000842 0.010366 0.000000 0.000000 0.000000
# 4 0.000000 0.000000 0.000000 0.240829 0.000000 0.000000
# 5 0.000000 0.000000 0.000000 0.000000 0.033340 0.000000
# 6 0.000000 0.000000 0.000000 0.000000 0.000000 0.043558
#
#
# Mechanical properties :
#
#
# Convention : Reuss Voigt Hill
#
# Bulk Modulus (GPa) = 17.80015 20.77023 19.28519
# Shear Modulus (GPa) = 13.02912 24.74550 18.88731
#
# Velocity S-wave (km/s) = 2.72766 3.75907 3.28411
# Velocity P-wave (km/s) = 4.48160 5.54089 5.03916
#
# Compressibility (1/GPa) = 0.05617930
#
# Stress axis : x y z
#
# Youngs Moduli (GPa) = 48.10589 48.57437 96.46631
#
# Poissons Ratio (x) = -0.13627 -0.02472
# Poissons Ratio (y) = -0.13496 0.08127
# Poissons Ratio (z) = -0.01233 0.04092
#
# Static dielectric constant tensor:
#      x y z
#    x 1.589620 0.000000 0.000000 
#    y 0.000000 1.590190 0.000000 
#    z 0.000000 0.000000 1.582860 
# 
# From -- ./inp_files/32145.got.cif
#   From: 2010.05.17/outbox.cif.g08.bks.cpg/sg67_17_cif.got.tgz:32145.got - 2010.06.03 18:28:57.
