data_PCOD9501671
_publ_section_title
;
Structure prediction by ZEFSAII (Michael W. Deem and Ramdas Pophale) SiO2 
 PCOD9501671
Probable space group: C M M A
;
_chemical_formula_sum "Si O2"
_cell_formula_units_Z 80
_cell_length_a 28.449160
_cell_length_b 16.814469
_cell_length_c 9.028437
_cell_angle_alpha 90.000000
_cell_angle_beta 90.000000
_cell_angle_gamma 90.000000
_cell_volume 4318.820723
_symmetry_space_group_name_H-M "C M M A"
_symmetry_group_IT_number 67
_symmetry_cell_setting 'orthorhombic'
loop_
_space_group_symop_operation_xyz
x,y,z
-x,1/2-y,z
x,-y,-z
-x,1/2+y,-z
-x,-y,-z
x,1/2+y,-z
-x,y,z
x,1/2-y,z
1/2+x,1/2+y,z
1/2-x,-y,z
1/2+x,1/2-y,-z
1/2-x,y,-z
1/2-x,1/2-y,-z
1/2+x,y,-z
1/2-x,1/2+y,z
1/2+x,-y,z
loop_
_atom_site_type_symbol
_atom_site_label
_atom_site_fract_x
_atom_site_fract_y
_atom_site_fract_z
Si Si1 0.399949 0.840920 0.807334
Si Si2 0.305900 0.900980 0.659883
Si Si3 0.878882 0.921720 0.902189
Si Si4 0.198486 0.593871 0.680440
Si Si5 0.055254 0.990790 0.330372
O O1 0.410650 0.750000 0.778087
O O2 0.346898 0.862073 0.754600
O O3 0.433608 0.901525 0.721517
O O4 0.401725 0.862479 0.980550
O O5 0.252447 0.880889 0.704218
O O6 0.313696 0.879998 0.486818
O O7 0.306527 0.997202 0.674816
O O8 0.835906 0.883136 0.812737
O O9 0.915285 0.953579 0.779742
O O10 0.864429 0.000000 0.000000
O O11 0.000000 0.007922 0.321569
O O12 0.071250 0.000000 0.500000
#
# Coordination Sequence:
#
# PCOD9501671 Si02
#       5
#    16  16  16  16  16
#     4  11  23  37  53  84 125 153 179 225 291 345
#     4   9  17  31  54  80 108 145 191 237 273 319
#     4  10  19  33  54  81 112 147 187 226 275 332
#     4   9  16  31  55  80 104 143 199 239 266 315
#     4  10  21  40  66  88 105 137 194 244 276 327
#
# _framework density 18.523575000000001
#
# number of rings (size 3 to 8) (size 9 to 14) (size 15 to 20)
#    0.000    2.200    4.000    2.400    0.000    4.800 
#    0.000    8.000    0.000    1.200    0.000    0.000 
#    0.000    0.000    0.000    0.000    0.000    0.000 
#
# Total GULP energy -223133.715201 kJ/mol
# GULP energy per Si atom -5578.342880 kJ/mol
# Density = 1.848141 g / cm^3
# Si number density = 18.523575 Si / 1000 Ang^3
#
#
#
# Elastic Constant Matrix: (Units=GPa)
#
#
# Indices 1 2 3 4 5 6 
#
# 1 57.2276 -0.2207 47.0954 0.0000 0.0000 0.0000
# 2 -0.2207 25.5325 16.1906 0.0000 0.0000 0.0000
# 3 47.0954 16.1906 125.4519 0.0000 0.0000 0.0000
# 4 0.0000 0.0000 0.0000 5.4794 0.0000 0.0000
# 5 0.0000 0.0000 0.0000 0.0000 -56.6582 0.0000
# 6 0.0000 0.0000 0.0000 0.0000 0.0000 6.8559
#
#
#
# Elastic Compliance Matrix: (Units=1/GPa)
#
#
# Indices 1 2 3 4 5 6 
#
# 1 0.026416 0.007098 -0.010833 0.000000 0.000000 0.000000
# 2 0.007098 0.044564 -0.008416 0.000000 0.000000 0.000000
# 3 -0.010833 -0.008416 0.013124 0.000000 0.000000 0.000000
# 4 0.000000 0.000000 0.000000 0.182503 0.000000 0.000000
# 5 0.000000 0.000000 0.000000 0.000000 -0.017650 0.000000
# 6 0.000000 0.000000 0.000000 0.000000 0.000000 0.145860
#
#
# Mechanical properties :
#
#
# Convention : Reuss Voigt Hill
#
# Bulk Modulus (GPa) = 16.72182 37.14917 26.93549
# Shear Modulus (GPa) = 11.38815 0.81186 6.10001
#
# Velocity S-wave (km/s) = 2.48219 0.66275 1.81666
# Velocity P-wave (km/s) = 4.15475 4.54800 4.35581
#
# Compressibility (1/GPa) = 0.05980211
#
# Stress axis : x y z
#
# Youngs Moduli (GPa) = 37.85535 22.43974 76.19608
#
# Poissons Ratio (x) = -0.15927 0.82542
# Poissons Ratio (y) = -0.26868 0.64125
# Poissons Ratio (z) = 0.41008 0.18885
#
# Static dielectric constant tensor:
#      x y z
#    x 1.645500 0.000000 0.000000 
#    y 0.000000 1.634490 0.000000 
#    z 0.000000 0.000000 1.649020 
# 
# From -- ./inp_files/9912.got.cif
#   From: 2010.05.17/outbox.cif.g08.bks.cpg/sg67_5_cif.got.tgz:9912.got - 2010.06.03 18:28:57.
