data_PCOD9501933
_publ_section_title
;
Structure prediction by ZEFSAII (Michael W. Deem and Ramdas Pophale) SiO2 
 PCOD9501933
Probable space group: C M M A
;
_chemical_formula_sum "Si O2"
_cell_formula_units_Z 80
_cell_length_a 24.499441
_cell_length_b 8.447709
_cell_length_c 20.955933
_cell_angle_alpha 90.000000
_cell_angle_beta 90.000000
_cell_angle_gamma 90.000000
_cell_volume 4337.126824
_symmetry_space_group_name_H-M "C M M A"
_symmetry_group_IT_number 67
_symmetry_cell_setting 'orthorhombic'
loop_
_space_group_symop_operation_xyz
x,y,z
-x,1/2-y,z
x,-y,-z
-x,1/2+y,-z
-x,-y,-z
x,1/2+y,-z
-x,y,z
x,1/2-y,z
1/2+x,1/2+y,z
1/2-x,-y,z
1/2+x,1/2-y,-z
1/2-x,y,-z
1/2-x,1/2-y,-z
1/2+x,y,-z
1/2-x,1/2+y,z
1/2+x,-y,z
loop_
_atom_site_type_symbol
_atom_site_label
_atom_site_fract_x
_atom_site_fract_y
_atom_site_fract_z
Si Si1 0.810249 0.061906 0.428720
Si Si2 0.881897 0.558398 0.313866
Si Si3 0.500000 0.556955 0.880065
Si Si4 0.617352 0.058804 0.069547
Si Si5 0.500000 0.556921 0.731519
Si Si6 0.311659 0.058804 0.190603
O O1 0.808432 0.250000 0.430179
O O2 0.821605 0.000000 0.500000
O O3 0.750000 0.000000 0.410059
O O4 0.854260 0.004087 0.377789
O O5 0.881404 0.750000 0.315582
O O6 0.944171 0.506226 0.302277
O O7 0.845882 0.508034 0.252746
O O8 0.500000 0.750000 0.880433
O O9 0.444345 0.504726 0.913983
O O10 0.500000 0.508521 0.805836
O O11 0.617132 0.250000 0.069598
O O12 0.657289 0.006078 0.126390
O O13 0.633804 0.000000 0.000000
O O14 0.500000 0.750000 0.731946
O O15 0.311623 0.250000 0.190505
O O16 0.250000 0.000000 0.193145
#
# Coordination Sequence:
#
# PCOD9501933 Si02
#       6
#    16  16   8  16   8  16
#     4  11  22  38  60  87 118 151 186 226 270 320
#     4  10  19  35  59  86 112 144 185 228 275 327
#     4   9  15  31  56  79 103 135 178 224 272 326
#     4  10  20  34  53  77 104 137 178 225 275 329
#     4   9  16  31  59  85 108 143 185 226 271 330
#     4  10  21  35  53  76 105 141 182 225 273 329
#
# _framework density 18.445391999999998
#
# number of rings (size 3 to 8) (size 9 to 14) (size 15 to 20)
#    0.000    2.000    2.000    3.300    0.000    3.600 
#    0.000    3.000    0.000    1.200    0.000    0.000 
#    0.000    0.000    0.000    0.000    0.000    0.000 
#
# Total GULP energy -223380.218870 kJ/mol
# GULP energy per Si atom -5584.505472 kJ/mol
# Density = 1.840341 g / cm^3
# Si number density = 18.445392 Si / 1000 Ang^3
#
#
#
# Elastic Constant Matrix: (Units=GPa)
#
#
# Indices 1 2 3 4 5 6 
#
# 1 159.5594 26.3569 84.2992 0.0000 0.0000 0.0000
# 2 26.3569 27.8781 24.2448 0.0000 0.0000 0.0000
# 3 84.2992 24.2448 121.2836 0.0000 0.0000 0.0000
# 4 0.0000 0.0000 0.0000 23.3726 0.0000 0.0000
# 5 0.0000 0.0000 0.0000 0.0000 32.6614 0.0000
# 6 0.0000 0.0000 0.0000 0.0000 0.0000 20.9002
#
#
#
# Elastic Compliance Matrix: (Units=1/GPa)
#
#
# Indices 1 2 3 4 5 6 
#
# 1 0.010305 -0.004253 -0.006312 0.000000 0.000000 0.000000
# 2 -0.004253 0.045174 -0.006074 0.000000 0.000000 0.000000
# 3 -0.006312 -0.006074 0.013847 0.000000 0.000000 0.000000
# 4 0.000000 0.000000 0.000000 0.042785 0.000000 0.000000
# 5 0.000000 0.000000 0.000000 0.000000 0.030617 0.000000
# 6 0.000000 0.000000 0.000000 0.000000 0.000000 0.047847
#
#
# Mechanical properties :
#
#
# Convention : Reuss Voigt Hill
#
# Bulk Modulus (GPa) = 27.74190 64.28033 46.01111
# Shear Modulus (GPa) = 21.19824 26.97483 24.08654
#
# Velocity S-wave (km/s) = 3.39373 3.82830 3.61755
# Velocity P-wave (km/s) = 5.51626 7.38010 6.51518
#
# Compressibility (1/GPa) = 0.03604656
#
# Stress axis : x y z
#
# Youngs Moduli (GPa) = 97.04359 22.13664 72.21917
#
# Poissons Ratio (x) = 0.09414 0.45586
# Poissons Ratio (y) = 0.41271 0.43869
# Poissons Ratio (z) = 0.61256 0.13447
#
# Static dielectric constant tensor:
#      x y z
#    x 1.621050 0.000000 0.000000 
#    y 0.000000 1.641660 0.000000 
#    z 0.000000 0.000000 1.612320 
# 
# From -- ./inp_files/39508.got.cif
#   From: 2010.05.17/outbox.cif.g08.bks.cpg/sg67_20_cif.got.tgz:39508.got - 2010.06.03 18:28:57.
