data_PCOD9501469
_publ_section_title
;
Structure prediction by ZEFSAII (Michael W. Deem and Ramdas Pophale) SiO2 
 PCOD9501469
Probable space group: C M M A
;
_chemical_formula_sum "Si O2"
_cell_formula_units_Z 96
_cell_length_a 14.180699
_cell_length_b 14.301363
_cell_length_c 21.757838
_cell_angle_alpha 90.000000
_cell_angle_beta 90.000000
_cell_angle_gamma 90.000000
_cell_volume 4412.561869
_symmetry_space_group_name_H-M "C M M A"
_symmetry_group_IT_number 67
_symmetry_cell_setting 'orthorhombic'
loop_
_space_group_symop_operation_xyz
x,y,z
-x,1/2-y,z
x,-y,-z
-x,1/2+y,-z
-x,-y,-z
x,1/2+y,-z
-x,y,z
x,1/2-y,z
1/2+x,1/2+y,z
1/2-x,-y,z
1/2+x,1/2-y,-z
1/2-x,y,-z
1/2-x,1/2-y,-z
1/2+x,y,-z
1/2-x,1/2+y,z
1/2+x,-y,z
loop_
_atom_site_type_symbol
_atom_site_label
_atom_site_fract_x
_atom_site_fract_y
_atom_site_fract_z
Si Si1 0.893168 0.351611 0.372964
Si Si2 0.612029 0.007613 0.133880
Si Si3 0.614231 0.146198 0.240443
Si Si4 0.140047 0.352795 0.514085
Si Si5 0.244477 0.860074 0.073280
Si Si6 0.887236 0.951198 0.359867
O O1 0.847605 0.250000 0.363579
O O2 0.901740 0.366456 0.446591
O O3 0.846011 0.445387 0.348803
O O4 0.000000 0.346189 0.348403
O O5 0.500000 0.988056 0.131687
O O6 0.638057 0.054681 0.199714
O O7 0.644260 0.094327 0.091171
O O8 0.675810 0.920667 0.110040
O O9 0.500000 0.150896 0.236984
O O10 0.649146 0.250000 0.221256
O O11 0.643343 0.124628 0.310261
O O12 0.110012 0.250000 0.536022
O O13 0.250000 0.352398 0.500000
O O14 0.124855 0.422565 0.569536
O O15 0.251746 0.750000 0.086877
O O16 0.250000 0.872614 0.000000
O O17 0.000000 0.959699 0.351250
#
# Coordination Sequence:
#
# PCOD9501469 Si02
#       6
#    16  16  16  16  16  16
#     4   9  18  32  48  66  90 122 161 206 261 326
#     4  10  20  37  61  88 122 163 204 250 303 354
#     4   9  18  33  55  82 107 136 183 238 288 345
#     4  10  20  32  46  67  96 126 159 209 275 341
#     4  10  22  39  60  91 128 163 204 250 294 351
#     4  10  19  32  52  75  98 131 177 227 279 338
#
# _framework density 21.756067999999999
#
# number of rings (size 3 to 8) (size 9 to 14) (size 15 to 20)
#    0.000    2.333    0.000    3.000    0.000    7.000 
#    0.000    5.833    0.000    5.000    0.000    0.000 
#    0.000    0.000    0.000    0.000    0.000    0.000 
#
# Total GULP energy -267516.538935 kJ/mol
# GULP energy per Si atom -5573.261228 kJ/mol
# Density = 2.170655 g / cm^3
# Si number density = 21.756068 Si / 1000 Ang^3
#
#
#
# Elastic Constant Matrix: (Units=GPa)
#
#
# Indices 1 2 3 4 5 6 
#
# 1 78.2437 22.4567 1.8008 0.0000 0.0000 0.0000
# 2 22.4567 173.8716 30.5329 0.0000 0.0000 0.0000
# 3 1.8008 30.5329 35.2677 0.0000 0.0000 0.0000
# 4 0.0000 0.0000 0.0000 20.9537 0.0000 0.0000
# 5 0.0000 0.0000 0.0000 0.0000 26.6843 0.0000
# 6 0.0000 0.0000 0.0000 0.0000 0.0000 19.0843
#
#
#
# Elastic Compliance Matrix: (Units=1/GPa)
#
#
# Indices 1 2 3 4 5 6 
#
# 1 0.013300 -0.001885 0.000953 0.000000 0.000000 0.000000
# 2 -0.001885 0.007050 -0.006007 0.000000 0.000000 0.000000
# 3 0.000953 -0.006007 0.033506 0.000000 0.000000 0.000000
# 4 0.000000 0.000000 0.000000 0.047724 0.000000 0.000000
# 5 0.000000 0.000000 0.000000 0.000000 0.037475 0.000000
# 6 0.000000 0.000000 0.000000 0.000000 0.000000 0.052399
#
#
# Mechanical properties :
#
#
# Convention : Reuss Voigt Hill
#
# Bulk Modulus (GPa) = 25.01405 44.10708 34.56056
# Shear Modulus (GPa) = 22.86670 28.85064 25.85867
#
# Velocity S-wave (km/s) = 3.24551 3.64551 3.45131
# Velocity P-wave (km/s) = 5.05637 6.16743 5.63933
#
# Compressibility (1/GPa) = 0.03997753
#
# Stress axis : x y z
#
# Youngs Moduli (GPa) = 75.18972 141.84986 29.84499
#
# Poissons Ratio (x) = 0.26740 -0.02844
# Poissons Ratio (y) = 0.14174 0.17928
# Poissons Ratio (z) = -0.07165 0.85209
#
# Static dielectric constant tensor:
#      x y z
#    x 1.827370 0.000000 0.000000 
#    y 0.000000 1.862810 0.000000 
#    z 0.000000 0.000000 1.826060 
# 
# From -- ./inp_files/38415.got.cif
#   From: 2010.05.17/outbox.cif.g08.bks.cpg/sg67_20_cif.got.tgz:38415.got - 2010.06.03 18:28:57.
