data_PCOD9501641
_publ_section_title
;
Structure prediction by ZEFSAII (Michael W. Deem and Ramdas Pophale) SiO2 
 PCOD9501641
Probable space group: C M M A
;
_chemical_formula_sum "Si O2"
_cell_formula_units_Z 120
_cell_length_a 14.868799
_cell_length_b 28.408613
_cell_length_c 15.998196
_cell_angle_alpha 90.000000
_cell_angle_beta 90.000000
_cell_angle_gamma 90.000000
_cell_volume 6757.669292
_symmetry_space_group_name_H-M "C M M A"
_symmetry_group_IT_number 67
_symmetry_cell_setting 'orthorhombic'
loop_
_space_group_symop_operation_xyz
x,y,z
-x,1/2-y,z
x,-y,-z
-x,1/2+y,-z
-x,-y,-z
x,1/2+y,-z
-x,y,z
x,1/2-y,z
1/2+x,1/2+y,z
1/2-x,-y,z
1/2+x,1/2-y,-z
1/2-x,y,-z
1/2-x,1/2-y,-z
1/2+x,y,-z
1/2-x,1/2+y,z
1/2+x,-y,z
loop_
_atom_site_type_symbol
_atom_site_label
_atom_site_fract_x
_atom_site_fract_y
_atom_site_fract_z
Si Si1 0.596826 0.694879 0.391499
Si Si2 0.198959 0.194659 0.224031
Si Si3 0.602270 0.935871 0.268173
Si Si4 0.107766 0.457023 0.777883
Si Si5 0.895830 0.872221 0.897326
Si Si6 0.750000 0.146452 0.500000
Si Si7 0.109869 0.448226 0.967661
Si Si8 0.277278 0.386693 0.327679
O O1 0.500000 0.672880 0.408847
O O2 0.593145 0.750000 0.409964
O O3 0.618439 0.691546 0.292651
O O4 0.676382 0.675066 0.447591
O O5 0.222643 0.250000 0.215330
O O6 0.165513 0.170115 0.138488
O O7 0.271467 0.161397 0.272057
O O8 0.500000 0.934284 0.301562
O O9 0.601884 0.908843 0.179808
O O10 0.677810 0.910242 0.322463
O O11 0.627974 0.989512 0.248416
O O12 0.139510 0.445611 0.871846
O O13 0.154310 0.421374 0.715975
O O14 0.000000 0.452572 0.777332
O O15 0.000000 0.856925 0.912303
O O16 0.862861 0.903759 0.975465
O O17 0.700956 0.119665 0.424786
O O18 0.000000 0.448077 0.970571
O O19 0.137553 0.500000 0.000000
#
# Coordination Sequence:
#
# PCOD9501641 Si02
#       8
#    16  16  16  16  16   8  16  16
#     4   9  17  31  53  78 101 127 168 224 277 320
#     4   9  18  32  50  74 105 139 173 216 268 313
#     4   9  17  32  53  75 100 132 167 213 270 314
#     4  10  19  33  54  76 105 138 171 218 269 314
#     4   9  15  25  47  77 105 132 162 203 259 318
#     4  10  21  34  49  72 102 140 170 218 266 322
#     4   9  15  27  49  77 106 134 166 210 263 310
#     4  10  21  35  53  74 102 135 180 215 263 323
#
# _framework density 17.757601999999999
#
# number of rings (size 3 to 8) (size 9 to 14) (size 15 to 20)
#    0.000    2.667    1.333    1.000    0.000    5.067 
#    0.000    4.000    0.000    3.600    0.000    1.867 
#    0.000    0.000    0.000    0.000    0.000    0.000 
#
# Total GULP energy -334252.977338 kJ/mol
# GULP energy per Si atom -5570.882956 kJ/mol
# Density = 1.771719 g / cm^3
# Si number density = 17.757602 Si / 1000 Ang^3
#
#
#
# Elastic Constant Matrix: (Units=GPa)
#
#
# Indices 1 2 3 4 5 6 
#
# 1 15.6502 12.9653 3.5780 0.0000 0.0000 0.0000
# 2 12.9653 115.1270 41.7982 0.0000 0.0000 0.0000
# 3 3.5780 41.7982 78.7099 0.0000 0.0000 0.0000
# 4 0.0000 0.0000 0.0000 22.7485 0.0000 0.0000
# 5 0.0000 0.0000 0.0000 0.0000 19.6001 0.0000
# 6 0.0000 0.0000 0.0000 0.0000 0.0000 11.4749
#
#
#
# Elastic Compliance Matrix: (Units=1/GPa)
#
#
# Indices 1 2 3 4 5 6 
#
# 1 0.070572 -0.008403 0.001254 0.000000 0.000000 0.000000
# 2 -0.008403 0.011761 -0.005864 0.000000 0.000000 0.000000
# 3 0.001254 -0.005864 0.015762 0.000000 0.000000 0.000000
# 4 0.000000 0.000000 0.000000 0.043959 0.000000 0.000000
# 5 0.000000 0.000000 0.000000 0.000000 0.051020 0.000000
# 6 0.000000 0.000000 0.000000 0.000000 0.000000 0.087147
#
#
# Mechanical properties :
#
#
# Convention : Reuss Voigt Hill
#
# Bulk Modulus (GPa) = 13.87546 36.24112 25.05829
# Shear Modulus (GPa) = 15.13921 20.84109 17.99015
#
# Velocity S-wave (km/s) = 2.92301 3.42956 3.18637
# Velocity P-wave (km/s) = 4.38438 6.01129 5.26110
#
# Compressibility (1/GPa) = 0.07206971
#
# Stress axis : x y z
#
# Youngs Moduli (GPa) = 14.17001 85.02491 63.44476
#
# Poissons Ratio (x) = 0.71446 -0.07957
# Poissons Ratio (y) = 0.11907 0.37202
# Poissons Ratio (z) = -0.01777 0.49856
#
# Static dielectric constant tensor:
#      x y z
#    x 1.657970 0.000000 0.000000 
#    y 0.000000 1.629450 0.000000 
#    z 0.000000 0.000000 1.601750 
# 
# From -- ./inp_files/27934.got.cif
#   From: 2010.05.17/outbox.cif.g08.bks.cpg/sg67_14_cif.got.tgz:27934.got - 2010.06.03 18:28:57.
