data_PCOD9501618
_publ_section_title
;
Structure prediction by ZEFSAII (Michael W. Deem and Ramdas Pophale) SiO2 
 PCOD9501618
Probable space group: C M M A
;
_chemical_formula_sum "Si O2"
_cell_formula_units_Z 112
_cell_length_a 13.536559
_cell_length_b 26.135788
_cell_length_c 14.532028
_cell_angle_alpha 90.000000
_cell_angle_beta 90.000000
_cell_angle_gamma 90.000000
_cell_volume 5141.266368
_symmetry_space_group_name_H-M "C M M A"
_symmetry_group_IT_number 67
_symmetry_cell_setting 'orthorhombic'
loop_
_space_group_symop_operation_xyz
x,y,z
-x,1/2-y,z
x,-y,-z
-x,1/2+y,-z
-x,-y,-z
x,1/2+y,-z
-x,y,z
x,1/2-y,z
1/2+x,1/2+y,z
1/2-x,-y,z
1/2+x,1/2-y,-z
1/2-x,y,-z
1/2-x,1/2-y,-z
1/2+x,y,-z
1/2-x,1/2+y,z
1/2+x,-y,z
loop_
_atom_site_type_symbol
_atom_site_label
_atom_site_fract_x
_atom_site_fract_y
_atom_site_fract_z
Si Si1 0.109508 0.631369 0.664100
Si Si2 0.116786 0.077066 0.153078
Si Si3 0.827924 0.621886 0.350474
Si Si4 0.117084 0.307070 0.817372
Si Si5 0.619083 0.392031 0.046539
Si Si6 0.118386 0.533388 0.217730
Si Si7 0.132577 0.942224 0.512377
O O1 0.125670 0.621887 0.772216
O O2 0.219181 0.646032 0.627917
O O3 0.102323 0.576997 0.612135
O O4 0.000000 0.656140 0.650771
O O5 0.000000 0.067609 0.140057
O O6 0.152103 0.024195 0.197908
O O7 0.157747 0.092470 0.053869
O O8 0.872463 0.661267 0.277286
O O9 0.826911 0.567556 0.294577
O O10 0.888894 0.603909 0.440154
O O11 0.159636 0.250000 0.811712
O O12 0.157149 0.341235 0.901685
O O13 0.000000 0.302788 0.832533
O O14 0.500000 0.384784 0.035140
O O15 0.629621 0.436937 0.121152
O O16 0.000000 0.534255 0.241289
O O17 0.250000 0.944825 0.500000
O O18 0.098330 0.000000 0.500000
#
# Coordination Sequence:
#
# PCOD9501618 Si02
#       7
#    16  16  16  16  16  16  16
#     4  10  21  33  47  70 103 145 187 220 254 310
#     4   9  16  27  44  68 103 145 179 207 249 309
#     4  10  19  33  53  76 108 144 176 222 278 320
#     4   9  18  34  58  86 108 129 170 228 283 330
#     4   8  14  26  46  72 103 136 167 207 263 321
#     4   9  16  26  44  72 103 136 175 216 260 317
#     4   9  18  32  50  74 105 142 181 219 264 318
#
# _framework density 21.784517000000001
#
# number of rings (size 3 to 8) (size 9 to 14) (size 15 to 20)
#    0.000    2.857    0.000    2.571    0.000    4.857 
#    0.000    2.857    0.000    9.429    0.000    2.000 
#    0.000    0.000    0.000    0.000    0.000    0.000 
#
# Total GULP energy -311879.183012 kJ/mol
# GULP energy per Si atom -5569.271125 kJ/mol
# Density = 2.173493 g / cm^3
# Si number density = 21.784517 Si / 1000 Ang^3
#
#
#
# Elastic Constant Matrix: (Units=GPa)
#
#
# Indices 1 2 3 4 5 6 
#
# 1 106.1412 -4.2339 4.7369 0.0000 0.0000 0.0000
# 2 -4.2339 72.7052 18.8586 0.0000 0.0000 0.0000
# 3 4.7369 18.8586 105.5395 0.0000 0.0000 0.0000
# 4 0.0000 0.0000 0.0000 9.4865 0.0000 0.0000
# 5 0.0000 0.0000 0.0000 0.0000 49.2648 0.0000
# 6 0.0000 0.0000 0.0000 0.0000 0.0000 10.4466
#
#
#
# Elastic Compliance Matrix: (Units=1/GPa)
#
#
# Indices 1 2 3 4 5 6 
#
# 1 0.009474 0.000694 -0.000549 0.000000 0.000000 0.000000
# 2 0.000694 0.014474 -0.002617 0.000000 0.000000 0.000000
# 3 -0.000549 -0.002617 0.009967 0.000000 0.000000 0.000000
# 4 0.000000 0.000000 0.000000 0.105413 0.000000 0.000000
# 5 0.000000 0.000000 0.000000 0.000000 0.020298 0.000000
# 6 0.000000 0.000000 0.000000 0.000000 0.000000 0.095725
#
#
# Mechanical properties :
#
#
# Convention : Reuss Voigt Hill
#
# Bulk Modulus (GPa) = 34.51889 35.90099 35.20994
# Shear Modulus (GPa) = 18.52175 31.50785 25.01480
#
# Velocity S-wave (km/s) = 2.91903 3.80721 3.39231
# Velocity P-wave (km/s) = 5.21929 5.98684 5.61619
#
# Compressibility (1/GPa) = 0.02896965
#
# Stress axis : x y z
#
# Youngs Moduli (GPa) = 105.55637 69.09172 100.32633
#
# Poissons Ratio (x) = -0.04796 0.05510
# Poissons Ratio (y) = -0.07327 0.26259
# Poissons Ratio (z) = 0.05798 0.18084
#
# Static dielectric constant tensor:
#      x y z
#    x 1.947950 0.000000 0.000000 
#    y 0.000000 1.761040 0.000000 
#    z 0.000000 0.000000 1.826020 
# 
# From -- ./inp_files/27850.got.cif
#   From: 2010.05.17/outbox.cif.g08.bks.cpg/sg67_14_cif.got.tgz:27850.got - 2010.06.03 18:28:57.
