data_PCOD9501674
_publ_section_title
;
Structure prediction by ZEFSAII (Michael W. Deem and Ramdas Pophale) SiO2 
 PCOD9501674
Probable space group: C M M A
;
_chemical_formula_sum "Si O2"
_cell_formula_units_Z 104
_cell_length_a 8.688773
_cell_length_b 27.568428
_cell_length_c 23.936680
_cell_angle_alpha 90.000000
_cell_angle_beta 90.000000
_cell_angle_gamma 90.000000
_cell_volume 5733.692101
_symmetry_space_group_name_H-M "C M M A"
_symmetry_group_IT_number 67
_symmetry_cell_setting 'orthorhombic'
loop_
_space_group_symop_operation_xyz
x,y,z
-x,1/2-y,z
x,-y,-z
-x,1/2+y,-z
-x,-y,-z
x,1/2+y,-z
-x,y,z
x,1/2-y,z
1/2+x,1/2+y,z
1/2-x,-y,z
1/2+x,1/2-y,-z
1/2-x,y,-z
1/2-x,1/2-y,-z
1/2+x,y,-z
1/2-x,1/2+y,z
1/2+x,-y,z
loop_
_atom_site_type_symbol
_atom_site_label
_atom_site_fract_x
_atom_site_fract_y
_atom_site_fract_z
Si Si1 0.684447 0.950054 0.562165
Si Si2 0.684527 0.947511 0.131996
Si Si3 0.814775 0.052634 0.262799
Si Si4 0.174504 0.191904 0.559125
Si Si5 0.685374 0.142974 0.063084
Si Si6 0.314778 0.250000 0.062841
Si Si7 0.183107 0.372031 0.354825
O O1 0.500000 0.949629 0.562702
O O2 0.750000 0.946969 0.500000
O O3 0.761024 0.908113 0.597075
O O4 0.750000 0.000000 0.586233
O O5 0.500000 0.948450 0.127217
O O6 0.725946 0.941550 0.197563
O O7 0.750097 0.902088 0.097931
O O8 0.750000 0.000000 0.113630
O O9 0.763142 0.099446 0.298962
O O10 0.000000 0.050032 0.267481
O O11 0.750000 0.000000 0.280906
O O12 0.173219 0.250000 0.556430
O O13 0.250000 0.175395 0.500000
O O14 0.251164 0.177024 0.618068
O O15 0.000000 0.173221 0.559307
O O16 0.500000 0.140365 0.061640
O O17 0.730381 0.196913 0.086471
O O18 0.750000 0.140054 0.000000
O O19 0.500000 0.250000 0.060763
O O20 0.250000 0.250000 0.000000
O O21 0.000000 0.367741 0.351515
#
# Coordination Sequence:
#
# PCOD9501674 Si02
#       7
#    16  16  16  16  16   8  16
#     4  11  21  33  47  68  99 131 161 198 244 297
#     4  10  20  36  55  78 108 143 183 227 272 324
#     4   9  20  36  55  77 103 136 175 215 258 309
#     4  10  21  37  56  78 103 132 169 213 263 317
#     4  10  19  33  54  82 112 146 182 224 272 324
#     4   8  16  30  50  76 108 140 176 214 257 310
#     4  11  21  34  53  76 100 130 167 208 254 307
#
# _framework density 18.138400000000001
#
# number of rings (size 3 to 8) (size 9 to 14) (size 15 to 20)
#    0.000    2.000    0.000    4.615    0.000    4.923 
#    0.000    1.538    1.692    0.000    0.000    0.000 
#    0.000    0.000    0.000    0.000    0.000    0.000 
#
# Total GULP energy -289746.248733 kJ/mol
# GULP energy per Si atom -5572.043245 kJ/mol
# Density = 1.809712 g / cm^3
# Si number density = 18.138400 Si / 1000 Ang^3
#
#
#
# Elastic Constant Matrix: (Units=GPa)
#
#
# Indices 1 2 3 4 5 6 
#
# 1 50.5816 33.9294 25.7941 0.0000 0.0000 0.0000
# 2 33.9294 121.2980 53.8331 0.0000 0.0000 0.0000
# 3 25.7941 53.8331 75.3199 0.0000 0.0000 0.0000
# 4 0.0000 0.0000 0.0000 39.0495 0.0000 0.0000
# 5 0.0000 0.0000 0.0000 0.0000 17.5707 0.0000
# 6 0.0000 0.0000 0.0000 0.0000 0.0000 27.4511
#
#
#
# Elastic Compliance Matrix: (Units=1/GPa)
#
#
# Indices 1 2 3 4 5 6 
#
# 1 0.025740 -0.004815 -0.005373 0.000000 0.000000 0.000000
# 2 -0.004815 0.012975 -0.007624 0.000000 0.000000 0.000000
# 3 -0.005373 -0.007624 0.020566 0.000000 0.000000 0.000000
# 4 0.000000 0.000000 0.000000 0.025609 0.000000 0.000000
# 5 0.000000 0.000000 0.000000 0.000000 0.056913 0.000000
# 6 0.000000 0.000000 0.000000 0.000000 0.000000 0.036428
#
#
# Mechanical properties :
#
#
# Convention : Reuss Voigt Hill
#
# Bulk Modulus (GPa) = 42.27415 52.70142 47.48779
# Shear Modulus (GPa) = 22.54868 25.72379 24.13623
#
# Velocity S-wave (km/s) = 3.52965 3.76998 3.65179
# Velocity P-wave (km/s) = 6.32205 6.93315 6.63464
#
# Compressibility (1/GPa) = 0.02365512
#
# Stress axis : x y z
#
# Youngs Moduli (GPa) = 38.84972 77.07203 48.62332
#
# Poissons Ratio (x) = 0.37112 0.26127
# Poissons Ratio (y) = 0.18707 0.37073
# Poissons Ratio (z) = 0.20875 0.58763
#
# Static dielectric constant tensor:
#      x y z
#    x 1.609820 0.000000 0.000000 
#    y 0.000000 1.607120 0.000000 
#    z 0.000000 0.000000 1.606690 
# 
# From -- ./inp_files/41019.got.cif
#   From: 2010.05.17/outbox.cif.g08.bks.cpg/sg67_21_cif.got.tgz:41019.got - 2010.06.03 18:28:57.
