data_PCOD9501947
_publ_section_title
;
Structure prediction by ZEFSAII (Michael W. Deem and Ramdas Pophale) SiO2 
 PCOD9501947
Probable space group: C M M A
;
_chemical_formula_sum "Si O2"
_cell_formula_units_Z 44
_cell_length_a 5.428375
_cell_length_b 29.953636
_cell_length_c 11.586392
_cell_angle_alpha 90.000000
_cell_angle_beta 90.000000
_cell_angle_gamma 90.000000
_cell_volume 1883.942343
_symmetry_space_group_name_H-M "C M M A"
_symmetry_group_IT_number 67
_symmetry_cell_setting 'orthorhombic'
loop_
_space_group_symop_operation_xyz
x,y,z
-x,1/2-y,z
x,-y,-z
-x,1/2+y,-z
-x,-y,-z
x,1/2+y,-z
-x,y,z
x,1/2-y,z
1/2+x,1/2+y,z
1/2-x,-y,z
1/2+x,1/2-y,-z
1/2-x,y,-z
1/2-x,1/2-y,-z
1/2+x,y,-z
1/2-x,1/2+y,z
1/2+x,-y,z
loop_
_atom_site_type_symbol
_atom_site_label
_atom_site_fract_x
_atom_site_fract_y
_atom_site_fract_z
Si Si1 0.000000 0.100190 0.575344
Si Si2 0.500000 0.652062 0.136038
Si Si3 0.500000 0.202618 0.425030
Si Si4 0.500000 0.750000 0.077488
Si Si5 0.500000 0.528300 0.782512
Si Si6 0.000000 0.384738 0.876913
O O1 0.250000 0.094526 0.500000
O O2 0.000000 0.151853 0.618152
O O3 0.000000 0.062660 0.674555
O O4 0.500000 0.704872 0.151056
O O5 0.745003 0.629403 0.180728
O O6 0.500000 0.641644 0.998397
O O7 0.500000 0.250000 0.354225
O O8 0.250000 0.204502 0.500000
O O9 0.250000 0.750000 0.000000
O O10 0.750000 0.500000 0.780982
O O11 0.500000 0.562256 0.891243
#
# Coordination Sequence:
#
# PCOD9501947 Si02
#       6
#     8   8   8   4   8   8
#     4  10  21  38  62  87 110 148 192 243 301 358
#     4  10  19  35  60  87 118 161 190 236 278 353
#     4   8  14  27  51  80 104 133 168 210 268 342
#     4  12  16  30  58  96 120 154 202 228 286 338
#     4  12  26  42  59  83 115 156 198 256 310 342
#     4  10  20  37  56  82 115 155 191 237 297 337
#
# _framework density 23.355277999999998
#
# number of rings (size 3 to 8) (size 9 to 14) (size 15 to 20)
#    0.000    1.818    3.636    2.182    0.000    2.182 
#    0.000   10.909    6.000    0.000    4.727    0.000 
#    0.000    0.000    0.000    0.000    0.000    0.000 
#
# Total GULP energy -122790.359958 kJ/mol
# GULP energy per Si atom -5581.379998 kJ/mol
# Density = 2.330212 g / cm^3
# Si number density = 23.355278 Si / 1000 Ang^3
#
#
#
# Elastic Constant Matrix: (Units=GPa)
#
#
# Indices 1 2 3 4 5 6 
#
# 1 262.0704 81.1872 17.9788 0.0000 0.0000 0.0000
# 2 81.1872 207.3960 9.2639 0.0000 0.0000 0.0000
# 3 17.9788 9.2639 28.3180 0.0000 0.0000 0.0000
# 4 0.0000 0.0000 0.0000 12.7548 0.0000 0.0000
# 5 0.0000 0.0000 0.0000 0.0000 30.6783 0.0000
# 6 0.0000 0.0000 0.0000 0.0000 0.0000 54.6268
#
#
#
# Elastic Compliance Matrix: (Units=1/GPa)
#
#
# Indices 1 2 3 4 5 6 
#
# 1 0.004486 -0.001653 -0.002307 0.000000 0.000000 0.000000
# 2 -0.001653 0.005502 -0.000751 0.000000 0.000000 0.000000
# 3 -0.002307 -0.000751 0.037024 0.000000 0.000000 0.000000
# 4 0.000000 0.000000 0.000000 0.078402 0.000000 0.000000
# 5 0.000000 0.000000 0.000000 0.000000 0.032596 0.000000
# 6 0.000000 0.000000 0.000000 0.000000 0.000000 0.018306
#
#
# Mechanical properties :
#
#
# Convention : Reuss Voigt Hill
#
# Bulk Modulus (GPa) = 26.60267 79.40491 53.00379
# Shear Modulus (GPa) = 25.21832 45.56895 35.39364
#
# Velocity S-wave (km/s) = 3.28955 4.42194 3.89709
# Velocity P-wave (km/s) = 5.08364 7.75525 6.55695
#
# Compressibility (1/GPa) = 0.03759021
#
# Stress axis : x y z
#
# Youngs Moduli (GPa) = 222.90685 181.74100 27.00969
#
# Poissons Ratio (x) = 0.30043 0.06232
# Poissons Ratio (y) = 0.36849 0.02027
# Poissons Ratio (z) = 0.51434 0.13640
#
# Static dielectric constant tensor:
#      x y z
#    x 2.024360 0.000000 0.000000 
#    y 0.000000 1.902610 0.000000 
#    z 0.000000 0.000000 2.068410 
# 
# From -- ./inp_files/24158.got.cif
#   From: 2010.05.17/outbox.cif.g08.bks.cpg/sg67_13_cif.got.tgz:24158.got - 2010.06.03 18:28:57.
