data_PCOD9501273
_publ_section_title
;
Structure prediction by ZEFSAII (Michael W. Deem and Ramdas Pophale) SiO2 
 PCOD9501273
Probable space group: C M M A
;
_chemical_formula_sum "Si O2"
_cell_formula_units_Z 112
_cell_length_a 30.814826
_cell_length_b 13.596140
_cell_length_c 11.815535
_cell_angle_alpha 90.000000
_cell_angle_beta 90.000000
_cell_angle_gamma 90.000000
_cell_volume 4950.268308
_symmetry_space_group_name_H-M "C M M A"
_symmetry_group_IT_number 67
_symmetry_cell_setting 'orthorhombic'
loop_
_space_group_symop_operation_xyz
x,y,z
-x,1/2-y,z
x,-y,-z
-x,1/2+y,-z
-x,-y,-z
x,1/2+y,-z
-x,y,z
x,1/2-y,z
1/2+x,1/2+y,z
1/2-x,-y,z
1/2+x,1/2-y,-z
1/2-x,y,-z
1/2-x,1/2-y,-z
1/2+x,y,-z
1/2-x,1/2+y,z
1/2+x,-y,z
loop_
_atom_site_type_symbol
_atom_site_label
_atom_site_fract_x
_atom_site_fract_y
_atom_site_fract_z
Si Si1 0.548596 0.937441 0.849786
Si Si2 0.224335 0.132291 0.257084
Si Si3 0.816067 0.865495 0.968424
Si Si4 0.452179 0.964807 0.370932
Si Si5 0.178905 0.368213 0.772217
Si Si6 0.914863 0.640366 0.937689
Si Si7 0.857408 0.533111 0.629797
O O1 0.500000 0.910733 0.885887
O O2 0.549379 0.942380 0.715024
O O3 0.579691 0.871525 0.926113
O O4 0.558666 0.050878 0.884451
O O5 0.221337 0.250000 0.257475
O O6 0.274162 0.109247 0.285121
O O7 0.184894 0.093619 0.332662
O O8 0.216745 0.099358 0.126909
O O9 0.806488 0.750000 0.982914
O O10 0.818330 0.901409 0.096604
O O11 0.864040 0.874666 0.915183
O O12 0.500000 0.917070 0.349140
O O13 0.404690 0.915489 0.353714
O O14 0.452479 0.000000 0.500000
O O15 0.171382 0.250000 0.766898
O O16 0.144675 0.435177 0.707359
O O17 0.927934 0.750000 0.903646
O O18 0.853876 0.500000 0.500000
#
# Coordination Sequence:
#
# PCOD9501273 Si02
#       7
#    16  16  16  16  16  16  16
#     4  10  20  33  51  76 104 136 176 218 268 330
#     4  10  21  37  57  82 114 149 184 226 273 320
#     4   9  18  33  54  79 106 141 183 221 263 316
#     4   9  19  38  62  82 104 141 185 232 283 324
#     4  10  21  37  57  82 114 149 184 226 273 320
#     4  10  19  31  50  77 109 141 174 215 264 321
#     4  11  23  38  58  83 110 143 187 230 270 329
#
# _framework density 22.625036999999999
#
# number of rings (size 3 to 8) (size 9 to 14) (size 15 to 20)
#    0.000    2.143    0.000    3.429    0.000    6.286 
#    0.000    2.857    0.000    5.143    0.000   12.000 
#    0.000    0.000    0.000    0.000    0.000    0.000 
#
# Total GULP energy -312477.541010 kJ/mol
# GULP energy per Si atom -5579.956089 kJ/mol
# Density = 2.257354 g / cm^3
# Si number density = 22.625037 Si / 1000 Ang^3
#
#
#
# Elastic Constant Matrix: (Units=GPa)
#
#
# Indices 1 2 3 4 5 6 
#
# 1 133.3071 27.3200 23.5239 0.0000 0.0000 0.0000
# 2 27.3200 70.6089 -6.3855 0.0000 0.0000 0.0000
# 3 23.5239 -6.3855 95.1919 0.0000 0.0000 0.0000
# 4 0.0000 0.0000 0.0000 16.9572 0.0000 0.0000
# 5 0.0000 0.0000 0.0000 0.0000 33.1591 0.0000
# 6 0.0000 0.0000 0.0000 0.0000 0.0000 13.1536
#
#
#
# Elastic Compliance Matrix: (Units=1/GPa)
#
#
# Indices 1 2 3 4 5 6 
#
# 1 0.008651 -0.003562 -0.002377 0.000000 0.000000 0.000000
# 2 -0.003562 0.015716 0.001935 0.000000 0.000000 0.000000
# 3 -0.002377 0.001935 0.011222 0.000000 0.000000 0.000000
# 4 0.000000 0.000000 0.000000 0.058972 0.000000 0.000000
# 5 0.000000 0.000000 0.000000 0.000000 0.030158 0.000000
# 6 0.000000 0.000000 0.000000 0.000000 0.000000 0.076025
#
#
# Mechanical properties :
#
#
# Convention : Reuss Voigt Hill
#
# Bulk Modulus (GPa) = 36.25813 43.11385 39.68599
# Shear Modulus (GPa) = 22.94149 29.63061 26.28605
#
# Velocity S-wave (km/s) = 3.18777 3.62282 3.41223
# Velocity P-wave (km/s) = 5.44147 6.04954 5.75354
#
# Compressibility (1/GPa) = 0.02758002
#
# Stress axis : x y z
#
# Youngs Moduli (GPa) = 115.59468 63.63047 89.10894
#
# Poissons Ratio (x) = 0.22666 0.21179
# Poissons Ratio (y) = 0.41177 -0.17238
# Poissons Ratio (z) = 0.27474 -0.12309
#
# Static dielectric constant tensor:
#      x y z
#    x 1.870210 0.000000 0.000000 
#    y 0.000000 1.860300 0.000000 
#    z 0.000000 0.000000 1.878450 
# 
# From -- ./inp_files/23861.got.cif
#   From: 2010.05.17/outbox.cif.g08.bks.cpg/sg67_12_cif.got.tgz:23861.got - 2010.06.03 18:28:57.
