data_PCOD9501099
_publ_section_title
;
Structure prediction by ZEFSAII (Michael W. Deem and Ramdas Pophale) SiO2 
 PCOD9501099
Probable space group: C M M A
;
_chemical_formula_sum "Si O2"
_cell_formula_units_Z 120
_cell_length_a 9.251967
_cell_length_b 27.427931
_cell_length_c 30.150389
_cell_angle_alpha 90.000000
_cell_angle_beta 90.000000
_cell_angle_gamma 90.000000
_cell_volume 7651.032435
_symmetry_space_group_name_H-M "C M M A"
_symmetry_group_IT_number 67
_symmetry_cell_setting 'orthorhombic'
loop_
_space_group_symop_operation_xyz
x,y,z
-x,1/2-y,z
x,-y,-z
-x,1/2+y,-z
-x,-y,-z
x,1/2+y,-z
-x,y,z
x,1/2-y,z
1/2+x,1/2+y,z
1/2-x,-y,z
1/2+x,1/2-y,-z
1/2-x,y,-z
1/2-x,1/2-y,-z
1/2+x,y,-z
1/2-x,1/2+y,z
1/2+x,-y,z
loop_
_atom_site_type_symbol
_atom_site_label
_atom_site_fract_x
_atom_site_fract_y
_atom_site_fract_z
Si Si1 0.666885 0.309528 0.133595
Si Si2 0.833055 0.309396 0.044458
Si Si3 0.174244 0.750000 0.452818
Si Si4 0.336798 0.807899 0.220501
Si Si5 0.166511 0.452083 0.302385
Si Si6 0.333284 0.950793 0.410338
Si Si7 0.828055 0.853194 0.299133
Si Si8 0.827195 0.649312 0.403845
O O1 0.500000 0.324919 0.133396
O O2 0.666902 0.250000 0.134001
O O3 0.750035 0.324564 0.089011
O O4 0.749540 0.326637 0.177735
O O5 0.833022 0.250000 0.044316
O O6 0.000000 0.324903 0.044530
O O7 0.750000 0.324966 0.000000
O O8 0.250000 0.750000 0.500000
O O9 0.213639 0.800214 0.427656
O O10 0.000000 0.750000 0.456962
O O11 0.500000 0.827766 0.223067
O O12 0.347710 0.750000 0.214402
O O13 0.249904 0.817167 0.265514
O O14 0.250000 0.500000 0.287261
O O15 0.165290 0.452889 0.356400
O O16 0.258392 0.405437 0.288802
O O17 0.000000 0.450089 0.287999
O O18 0.500000 0.950865 0.425417
O O19 0.254388 0.899408 0.420614
O O20 0.250000 0.000000 0.425320
O O21 0.798919 0.844028 0.351227
O O22 0.000000 0.852708 0.292918
O O23 0.000000 0.641548 0.408922
#
# Coordination Sequence:
#
# PCOD9501099 Si02
#       8
#    16  16   8  16  16  16  16  16
#     4   9  16  26  38  51  69  98 137 177 219 267
#     4   9  15  22  33  49  68  91 124 171 222 267
#     4  10  22  40  58  76  98 128 160 194 233 278
#     4  10  20  31  41  56  82 115 148 185 225 264
#     4   9  16  27  43  64  92 119 146 178 215 258
#     4   9  16  27  47  74 102 127 153 184 225 270
#     4  10  19  30  47  68  90 117 150 184 220 262
#     4   9  19  34  52  73  98 125 156 191 230 273
#
# _framework density 15.684158999999999
#
# number of rings (size 3 to 8) (size 9 to 14) (size 15 to 20)
#    0.000    2.667    0.000    2.400    0.933    8.267 
#    0.000    0.000    0.000    0.400    0.000    2.800 
#    0.000    0.000    0.000    0.000    0.000    0.667 
#
# Total GULP energy -334238.948875 kJ/mol
# GULP energy per Si atom -5570.649148 kJ/mol
# Density = 1.564846 g / cm^3
# Si number density = 15.684159 Si / 1000 Ang^3
#
#
#
# Elastic Constant Matrix: (Units=GPa)
#
#
# Indices 1 2 3 4 5 6 
#
# 1 128.2718 48.2368 57.2791 0.0000 0.0000 0.0000
# 2 48.2368 68.6034 38.5764 0.0000 0.0000 0.0000
# 3 57.2791 38.5764 61.9531 0.0000 0.0000 0.0000
# 4 0.0000 0.0000 0.0000 -2.5141 0.0000 0.0000
# 5 0.0000 0.0000 0.0000 0.0000 18.2197 0.0000
# 6 0.0000 0.0000 0.0000 0.0000 0.0000 22.6363
#
#
#
# Elastic Compliance Matrix: (Units=1/GPa)
#
#
# Indices 1 2 3 4 5 6 
#
# 1 0.013933 -0.003929 -0.010436 0.000000 0.000000 0.000000
# 2 -0.003929 0.023538 -0.011024 0.000000 0.000000 0.000000
# 3 -0.010436 -0.011024 0.032654 0.000000 0.000000 0.000000
# 4 0.000000 0.000000 0.000000 -0.397759 0.000000 0.000000
# 5 0.000000 0.000000 0.000000 0.000000 0.054886 0.000000
# 6 0.000000 0.000000 0.000000 0.000000 0.000000 0.044177
#
#
# Mechanical properties :
#
#
# Convention : Reuss Voigt Hill
#
# Bulk Modulus (GPa) = 51.68461 60.77921 56.23191
# Shear Modulus (GPa) = -29.18110 15.31744 -6.93183
#
# Velocity S-wave (km/s) = -4.31808 3.12848 -2.10457
# Velocity P-wave (km/s) = 2.85723 7.20319 5.47950
#
# Compressibility (1/GPa) = 0.01934812
#
# Stress axis : x y z
#
# Youngs Moduli (GPa) = 71.76952 42.48475 30.62384
#
# Poissons Ratio (x) = 0.16691 0.31959
# Poissons Ratio (y) = 0.28196 0.33760
# Poissons Ratio (z) = 0.74899 0.46835
#
# Static dielectric constant tensor:
#      x y z
#    x 1.533030 0.000000 0.000000 
#    y 0.000000 1.536230 0.000000 
#    z 0.000000 0.000000 1.510860 
# 
# From -- ./inp_files/43945.got.cif
#   From: 2010.05.17/outbox.cif.g08.bks.cpg/sg67_22_cif.got.tgz:43945.got - 2010.06.03 18:28:57.
