data_PCOD9501277
_publ_section_title
;
Structure prediction by ZEFSAII (Michael W. Deem and Ramdas Pophale) SiO2 
 PCOD9501277
Probable space group: C M M A
;
_chemical_formula_sum "Si O2"
_cell_formula_units_Z 88
_cell_length_a 25.769016
_cell_length_b 24.485606
_cell_length_c 7.080998
_cell_angle_alpha 90.000000
_cell_angle_beta 90.000000
_cell_angle_gamma 90.000000
_cell_volume 4467.897115
_symmetry_space_group_name_H-M "C M M A"
_symmetry_group_IT_number 67
_symmetry_cell_setting 'orthorhombic'
loop_
_space_group_symop_operation_xyz
x,y,z
-x,1/2-y,z
x,-y,-z
-x,1/2+y,-z
-x,-y,-z
x,1/2+y,-z
-x,y,z
x,1/2-y,z
1/2+x,1/2+y,z
1/2-x,-y,z
1/2+x,1/2-y,-z
1/2-x,y,-z
1/2-x,1/2-y,-z
1/2+x,y,-z
1/2-x,1/2+y,z
1/2+x,-y,z
loop_
_atom_site_type_symbol
_atom_site_label
_atom_site_fract_x
_atom_site_fract_y
_atom_site_fract_z
Si Si1 0.807943 0.331953 0.067195
Si Si2 0.651449 0.049539 0.881021
Si Si3 0.393478 0.812674 0.755873
Si Si4 0.306221 0.311099 0.513139
Si Si5 0.890916 0.000000 0.500000
Si Si6 0.059207 0.574910 0.174914
O O1 0.852585 0.312772 0.927319
O O2 0.750000 0.318749 0.000000
O O3 0.814485 0.396712 0.096270
O O4 0.817603 0.306993 0.269374
O O5 0.640860 0.033147 0.662965
O O6 0.597876 0.061274 0.999823
O O7 0.675627 0.000000 0.000000
O O8 0.411313 0.750000 0.721794
O O9 0.356021 0.834673 0.588805
O O10 0.434963 0.859961 0.789979
O O11 0.300011 0.250000 0.427557
O O12 0.250000 0.339312 0.500000
O O13 0.922989 0.041514 0.636800
O O14 0.000000 0.561057 0.130561
#
# Coordination Sequence:
#
# PCOD9501277 Si02
#       6
#    16  16  16  16   8  16
#     4  11  20  33  55  76 107 145 183 220 272 322
#     4   9  21  37  54  78 108 137 178 226 275 331
#     4  10  21  36  53  79 114 148 182 223 272 327
#     4  10  19  31  50  78 106 135 179 223 259 310
#     4  10  19  38  62  81 106 142 181 234 285 324
#     4  10  21  36  57  84 109 140 184 229 276 331
#
# _framework density 19.696066999999999
#
# number of rings (size 3 to 8) (size 9 to 14) (size 15 to 20)
#    0.000    2.000    1.818    1.909    0.000    5.455 
#    0.000    0.000    0.000    1.091    0.000    5.091 
#    0.000    0.000    0.000    0.000    0.000    0.000 
#
# Total GULP energy -245167.921383 kJ/mol
# GULP energy per Si atom -5571.998213 kJ/mol
# Density = 1.965124 g / cm^3
# Si number density = 19.696067 Si / 1000 Ang^3
#
#
#
# Elastic Constant Matrix: (Units=GPa)
#
#
# Indices 1 2 3 4 5 6 
#
# 1 36.6853 0.9348 13.3929 0.0000 0.0000 0.0000
# 2 0.9348 106.5361 3.3539 0.0000 0.0000 0.0000
# 3 13.3929 3.3539 128.6330 0.0000 0.0000 0.0000
# 4 0.0000 0.0000 0.0000 23.0638 0.0000 0.0000
# 5 0.0000 0.0000 0.0000 0.0000 13.3859 0.0000
# 6 0.0000 0.0000 0.0000 0.0000 0.0000 7.2290
#
#
#
# Elastic Compliance Matrix: (Units=1/GPa)
#
#
# Indices 1 2 3 4 5 6 
#
# 1 0.028339 -0.000156 -0.002946 0.000000 0.000000 0.000000
# 2 -0.000156 0.009395 -0.000229 0.000000 0.000000 0.000000
# 3 -0.002946 -0.000229 0.008087 0.000000 0.000000 0.000000
# 4 0.000000 0.000000 0.000000 0.043358 0.000000 0.000000
# 5 0.000000 0.000000 0.000000 0.000000 0.074706 0.000000
# 6 0.000000 0.000000 0.000000 0.000000 0.000000 0.138332
#
#
# Mechanical properties :
#
#
# Convention : Reuss Voigt Hill
#
# Bulk Modulus (GPa) = 25.53745 34.13530 29.83637
# Shear Modulus (GPa) = 15.53127 25.68059 20.60593
#
# Velocity S-wave (km/s) = 2.81115 3.61479 3.23800
# Velocity P-wave (km/s) = 4.85084 5.89839 5.40008
#
# Compressibility (1/GPa) = 0.03915818
#
# Stress axis : x y z
#
# Youngs Moduli (GPa) = 35.28765 106.43897 123.65838
#
# Poissons Ratio (x) = 0.01659 0.36435
# Poissons Ratio (y) = 0.00550 0.02828
# Poissons Ratio (z) = 0.10397 0.02435
#
# Static dielectric constant tensor:
#      x y z
#    x 1.657440 0.000000 0.000000 
#    y 0.000000 1.552060 0.000000 
#    z 0.000000 0.000000 1.670210 
# 
# From -- ./inp_files/4292.got.cif
#   From: 2010.05.17/outbox.cif.g08.bks.cpg/sg67_3_cif.got.tgz:4292.got - 2010.06.03 18:28:57.
