data_PCOD9501591
_publ_section_title
;
Structure prediction by ZEFSAII (Michael W. Deem and Ramdas Pophale) SiO2 
 PCOD9501591
Probable space group: C M M A
;
_chemical_formula_sum "Si O2"
_cell_formula_units_Z 96
_cell_length_a 18.837846
_cell_length_b 18.300239
_cell_length_c 17.103548
_cell_angle_alpha 90.000000
_cell_angle_beta 90.000000
_cell_angle_gamma 90.000000
_cell_volume 5896.227264
_symmetry_space_group_name_H-M "C M M A"
_symmetry_group_IT_number 67
_symmetry_cell_setting 'orthorhombic'
loop_
_space_group_symop_operation_xyz
x,y,z
-x,1/2-y,z
x,-y,-z
-x,1/2+y,-z
-x,-y,-z
x,1/2+y,-z
-x,y,z
x,1/2-y,z
1/2+x,1/2+y,z
1/2-x,-y,z
1/2+x,1/2-y,-z
1/2-x,y,-z
1/2-x,1/2-y,-z
1/2+x,y,-z
1/2-x,1/2+y,z
1/2+x,-y,z
loop_
_atom_site_type_symbol
_atom_site_label
_atom_site_fract_x
_atom_site_fract_y
_atom_site_fract_z
Si Si1 0.291013 0.664095 0.764626
Si Si2 0.581134 0.415557 0.831427
Si Si3 0.083589 0.959904 0.577931
Si Si4 0.356747 0.663979 0.319108
Si Si5 0.080015 0.439693 0.730520
Si Si6 0.273357 0.084495 0.912776
O O1 0.304010 0.750000 0.769293
O O2 0.225097 0.651847 0.705540
O O3 0.360028 0.620138 0.739359
O O4 0.265202 0.632981 0.847757
O O5 0.500000 0.403427 0.857157
O O6 0.598823 0.363614 0.756944
O O7 0.587073 0.497629 0.796705
O O8 0.642553 0.407208 0.895722
O O9 0.122071 0.887004 0.608264
O O10 0.000000 0.942467 0.566433
O O11 0.110279 0.000000 0.500000
O O12 0.088365 0.017025 0.649241
O O13 0.368559 0.750000 0.332257
O O14 0.000000 0.409971 0.734405
O O15 0.250000 0.000000 0.900691
O O16 0.250000 0.104720 0.000000
#
# Coordination Sequence:
#
# PCOD9501591 Si02
#       6
#    16  16  16  16  16  16
#     4  10  20  34  52  74  99 131 170 209 249 298
#     4   9  17  30  51  76 100 128 168 211 248 291
#     4   9  18  32  51  76 103 132 167 204 249 302
#     4   9  18  31  51  77 103 131 167 210 254 295
#     4   9  17  32  52  72  97 131 171 210 244 291
#     4  10  19  33  52  74 101 132 166 201 251 307
#
# _framework density 16.281597999999999
#
# number of rings (size 3 to 8) (size 9 to 14) (size 15 to 20)
#    0.000    2.667    1.667    1.500    0.000    2.000 
#    0.000    5.000    0.000    5.000    0.000    0.000 
#    0.000    0.000    0.000    0.000    0.000    0.000 
#
# Total GULP energy -267511.093419 kJ/mol
# GULP energy per Si atom -5573.147780 kJ/mol
# Density = 1.624454 g / cm^3
# Si number density = 16.281598 Si / 1000 Ang^3
#
#
#
# Elastic Constant Matrix: (Units=GPa)
#
#
# Indices 1 2 3 4 5 6 
#
# 1 127.4305 70.6934 51.1209 0.0000 0.0000 0.0000
# 2 70.6934 107.1776 44.2923 0.0000 0.0000 0.0000
# 3 51.1209 44.2923 85.9242 0.0000 0.0000 0.0000
# 4 0.0000 0.0000 0.0000 19.3095 0.0000 0.0000
# 5 0.0000 0.0000 0.0000 0.0000 18.9444 0.0000
# 6 0.0000 0.0000 0.0000 0.0000 0.0000 20.7988
#
#
#
# Elastic Compliance Matrix: (Units=1/GPa)
#
#
# Indices 1 2 3 4 5 6 
#
# 1 0.013568 -0.007133 -0.004395 0.000000 0.000000 0.000000
# 2 -0.007133 0.015606 -0.003801 0.000000 0.000000 0.000000
# 3 -0.004395 -0.003801 0.016212 0.000000 0.000000 0.000000
# 4 0.000000 0.000000 0.000000 0.051788 0.000000 0.000000
# 5 0.000000 0.000000 0.000000 0.000000 0.052786 0.000000
# 6 0.000000 0.000000 0.000000 0.000000 0.000000 0.048080
#
#
# Mechanical properties :
#
#
# Convention : Reuss Voigt Hill
#
# Bulk Modulus (GPa) = 67.89756 72.52726 70.21241
# Shear Modulus (GPa) = 21.40353 22.10559 21.75456
#
# Velocity S-wave (km/s) = 3.62965 3.68870 3.65930
# Velocity P-wave (km/s) = 7.70444 7.92365 7.81481
#
# Compressibility (1/GPa) = 0.01472807
#
# Stress axis : x y z
#
# Youngs Moduli (GPa) = 73.70520 64.07934 61.68096
#
# Poissons Ratio (x) = 0.45705 0.27111
# Poissons Ratio (y) = 0.52571 0.23444
# Poissons Ratio (z) = 0.32396 0.24356
#
# Static dielectric constant tensor:
#      x y z
#    x 1.555130 0.000000 0.000000 
#    y 0.000000 1.526670 0.000000 
#    z 0.000000 0.000000 1.533520 
# 
# From -- ./inp_files/34226.got.cif
#   From: 2010.05.17/outbox.cif.g08.bks.cpg/sg67_18_cif.got.tgz:34226.got - 2010.06.03 18:28:57.
