data_PCOD9501737
_publ_section_title
;
Structure prediction by ZEFSAII (Michael W. Deem and Ramdas Pophale) SiO2 
 PCOD9501737
Probable space group: C M M A
;
_chemical_formula_sum "Si O2"
_cell_formula_units_Z 80
_cell_length_a 20.173711
_cell_length_b 25.080889
_cell_length_c 8.320912
_cell_angle_alpha 90.000000
_cell_angle_beta 90.000000
_cell_angle_gamma 90.000000
_cell_volume 4210.170173
_symmetry_space_group_name_H-M "C M M A"
_symmetry_group_IT_number 67
_symmetry_cell_setting 'orthorhombic'
loop_
_space_group_symop_operation_xyz
x,y,z
-x,1/2-y,z
x,-y,-z
-x,1/2+y,-z
-x,-y,-z
x,1/2+y,-z
-x,y,z
x,1/2-y,z
1/2+x,1/2+y,z
1/2-x,-y,z
1/2+x,1/2-y,-z
1/2-x,y,-z
1/2-x,1/2-y,-z
1/2+x,y,-z
1/2-x,1/2+y,z
1/2+x,-y,z
loop_
_atom_site_type_symbol
_atom_site_label
_atom_site_fract_x
_atom_site_fract_y
_atom_site_fract_z
Si Si1 0.000000 0.913929 0.083891
Si Si2 0.700791 0.750000 0.283353
Si Si3 0.857321 0.250000 0.624393
Si Si4 0.231511 0.361906 0.306694
Si Si5 0.500000 0.969834 0.246158
Si Si6 0.120402 0.633642 0.265925
Si Si7 0.133189 0.944869 0.565247
O O1 0.066128 0.883420 0.137970
O O2 0.000000 0.970778 0.175013
O O3 0.000000 0.927654 0.897816
O O4 0.780217 0.750000 0.319366
O O5 0.650801 0.750000 0.433354
O O6 0.695680 0.811073 0.223846
O O7 0.889011 0.195343 0.684641
O O8 0.250000 0.349381 0.500000
O O9 0.301735 0.372058 0.222348
O O10 0.183942 0.412357 0.322770
O O11 0.433832 0.961159 0.346736
O O12 0.114299 0.594988 0.420298
O O13 0.163769 0.000000 0.500000
#
# Coordination Sequence:
#
# PCOD9501737 Si02
#       7
#     8   8   8  16   8  16  16
#     4  11  23  41  52  68 105 155 192 213 260 320
#     4   9  10  26  46  80 117 132 160 208 286 328
#     4   9  14  27  52  84 111 135 172 221 276 322
#     4   9  16  27  52  85 113 132 162 224 280 320
#     4  11  24  39  53  69 106 153 182 219 263 327
#     4  10  19  33  58  83 110 140 180 225 271 328
#     4  11  19  33  55  86 108 135 177 227 276 324
#
# _framework density 19.001608000000001
#
# number of rings (size 3 to 8) (size 9 to 14) (size 15 to 20)
#    0.000    2.000    8.000    0.900    0.000    4.000 
#    0.000    1.000    0.000    7.800    0.000    4.200 
#    0.000    0.000    0.000    0.000    0.000    0.000 
#
# Total GULP energy -222778.887871 kJ/mol
# GULP energy per Si atom -5569.472197 kJ/mol
# Density = 1.895836 g / cm^3
# Si number density = 19.001608 Si / 1000 Ang^3
#
#
#
# Elastic Constant Matrix: (Units=GPa)
#
#
# Indices 1 2 3 4 5 6 
#
# 1 87.5020 45.9941 19.7946 0.0000 0.0000 0.0000
# 2 45.9941 140.7379 26.6999 0.0000 0.0000 0.0000
# 3 19.7946 26.6999 20.6711 0.0000 0.0000 0.0000
# 4 0.0000 0.0000 0.0000 18.4006 0.0000 0.0000
# 5 0.0000 0.0000 0.0000 0.0000 -7.2271 0.0000
# 6 0.0000 0.0000 0.0000 0.0000 0.0000 47.5110
#
#
#
# Elastic Compliance Matrix: (Units=1/GPa)
#
#
# Indices 1 2 3 4 5 6 
#
# 1 0.015475 -0.002975 -0.010976 0.000000 0.000000 0.000000
# 2 -0.002975 0.009984 -0.010046 0.000000 0.000000 0.000000
# 3 -0.010976 -0.010046 0.071864 0.000000 0.000000 0.000000
# 4 0.000000 0.000000 0.000000 0.054346 0.000000 0.000000
# 5 0.000000 0.000000 0.000000 0.000000 -0.138367 0.000000
# 6 0.000000 0.000000 0.000000 0.000000 0.000000 0.021048
#
#
# Mechanical properties :
#
#
# Convention : Reuss Voigt Hill
#
# Bulk Modulus (GPa) = 20.27277 48.20980 34.24128
# Shear Modulus (GPa) = 50.61417 22.16508 36.38963
#
# Velocity S-wave (km/s) = 5.16668 3.41909 4.38091
# Velocity P-wave (km/s) = 6.80330 6.40417 6.60675
#
# Compressibility (1/GPa) = 0.04932724
#
# Stress axis : x y z
#
# Youngs Moduli (GPa) = 64.61998 100.16406 13.91521
#
# Poissons Ratio (x) = 0.29799 0.15274
# Poissons Ratio (y) = 0.19225 0.13980
# Poissons Ratio (z) = 0.70928 1.00630
#
# Static dielectric constant tensor:
#      x y z
#    x 1.652350 0.000000 0.000000 
#    y 0.000000 1.722890 0.000000 
#    z 0.000000 0.000000 1.676060 
# 
# From -- ./inp_files/11201.got.cif
#   From: 2010.05.17/outbox.cif.g08.bks.cpg/sg67_6_cif.got.tgz:11201.got - 2010.06.03 18:28:57.
