data_PCOD9501946
_publ_section_title
;
Structure prediction by ZEFSAII (Michael W. Deem and Ramdas Pophale) SiO2 
 PCOD9501946
Probable space group: C M M A
;
_chemical_formula_sum "Si O2"
_cell_formula_units_Z 56
_cell_length_a 24.853847
_cell_length_b 5.330730
_cell_length_c 17.249403
_cell_angle_alpha 90.000000
_cell_angle_beta 90.000000
_cell_angle_gamma 90.000000
_cell_volume 2285.358704
_symmetry_space_group_name_H-M "C M M A"
_symmetry_group_IT_number 67
_symmetry_cell_setting 'orthorhombic'
loop_
_space_group_symop_operation_xyz
x,y,z
-x,1/2-y,z
x,-y,-z
-x,1/2+y,-z
-x,-y,-z
x,1/2+y,-z
-x,y,z
x,1/2-y,z
1/2+x,1/2+y,z
1/2-x,-y,z
1/2+x,1/2-y,-z
1/2-x,y,-z
1/2-x,1/2-y,-z
1/2+x,y,-z
1/2-x,1/2+y,z
1/2+x,-y,z
loop_
_atom_site_type_symbol
_atom_site_label
_atom_site_fract_x
_atom_site_fract_y
_atom_site_fract_z
Si Si1 0.000000 0.250000 0.821375
Si Si2 0.942194 0.750000 0.446759
Si Si3 0.266851 0.250000 0.678830
Si Si4 0.674496 0.750000 0.551465
Si Si5 0.000000 0.250000 0.283765
Si Si6 0.382578 0.250000 0.170743
Si Si7 0.117662 0.250000 0.278499
Si Si8 0.774117 0.750000 0.087445
O O1 0.000000 0.500686 0.768900
O O2 0.942928 0.250000 0.863887
O O3 0.942532 0.500000 0.500000
O O4 0.884035 0.750000 0.405768
O O5 0.000000 0.750000 0.403022
O O6 0.250000 0.500000 0.721012
O O7 0.226033 0.250000 0.606315
O O8 0.330465 0.250000 0.666176
O O9 0.676475 0.500000 0.500000
O O10 0.940514 0.250000 0.321752
O O11 0.378220 0.500663 0.224487
O O12 0.337389 0.250000 0.104545
O O13 0.750000 0.500000 0.121696
O O14 0.750000 0.750000 0.000000
#
# Coordination Sequence:
#
# PCOD9501946 Si02
#       8
#     4   8   8   8   4   8   8   8
#     4   8  16  30  54  88 111 141 192 250 288 346
#     4   8  14  27  51  80 104 131 171 217 265 324
#     4  12  26  40  57  84 124 147 190 240 288 346
#     4  10  21  38  60  83 110 150 189 228 287 349
#     4   8  16  34  58  82 111 145 194 232 296 358
#     4  10  19  35  60  87 117 153 196 238 300 350
#     4  10  21  37  60  88 116 152 190 246 295 353
#     4  10  21  35  53  80 120 163 202 238 280 341
#
# _framework density 24.503813000000001
#
# number of rings (size 3 to 8) (size 9 to 14) (size 15 to 20)
#    0.000    2.286    0.000    2.571    0.000    5.143 
#    0.000    0.000    3.143    3.429    0.000    1.000 
#    0.000    0.000    0.000    0.000    0.000    0.000 
#
# Total GULP energy -156557.232298 kJ/mol
# GULP energy per Si atom -5591.329725 kJ/mol
# Density = 2.444804 g / cm^3
# Si number density = 24.503813 Si / 1000 Ang^3
#
#
#
# Elastic Constant Matrix: (Units=GPa)
#
#
# Indices 1 2 3 4 5 6 
#
# 1 336.7822 35.1128 74.5228 0.0000 0.0000 0.0000
# 2 35.1128 227.0694 32.8185 0.0000 0.0000 0.0000
# 3 74.5228 32.8185 100.6036 0.0000 0.0000 0.0000
# 4 0.0000 0.0000 0.0000 34.8601 0.0000 0.0000
# 5 0.0000 0.0000 0.0000 0.0000 85.0443 0.0000
# 6 0.0000 0.0000 0.0000 0.0000 0.0000 42.8059
#
#
#
# Elastic Compliance Matrix: (Units=1/GPa)
#
#
# Indices 1 2 3 4 5 6 
#
# 1 0.003558 -0.000178 -0.002578 0.000000 0.000000 0.000000
# 2 -0.000178 0.004631 -0.001379 0.000000 0.000000 0.000000
# 3 -0.002578 -0.001379 0.012299 0.000000 0.000000 0.000000
# 4 0.000000 0.000000 0.000000 0.028686 0.000000 0.000000
# 5 0.000000 0.000000 0.000000 0.000000 0.011759 0.000000
# 6 0.000000 0.000000 0.000000 0.000000 0.000000 0.023361
#
#
# Mechanical properties :
#
#
# Convention : Reuss Voigt Hill
#
# Bulk Modulus (GPa) = 81.83735 105.48484 93.66109
# Shear Modulus (GPa) = 51.74035 67.34213 59.54124
#
# Velocity S-wave (km/s) = 4.60012 5.24804 4.93473
# Velocity P-wave (km/s) = 7.85398 8.93669 8.41277
#
# Compressibility (1/GPa) = 0.01221936
#
# Stress axis : x y z
#
# Youngs Moduli (GPa) = 281.03957 215.94913 81.30476
#
# Poissons Ratio (x) = 0.03836 0.20959
# Poissons Ratio (y) = 0.04993 0.11212
# Poissons Ratio (z) = 0.72447 0.29780
#
# Static dielectric constant tensor:
#      x y z
#    x 2.019840 0.000000 0.000000 
#    y 0.000000 2.214960 0.000000 
#    z 0.000000 0.000000 1.439490 
# 
# From -- ./inp_files/35703.got.cif
#   From: 2010.05.17/outbox.cif.g08.bks.cpg/sg67_18_cif.got.tgz:35703.got - 2010.06.03 18:28:57.
