data_PCOD9501502
_publ_section_title
;
Structure prediction by ZEFSAII (Michael W. Deem and Ramdas Pophale) SiO2 
 PCOD9501502
Probable space group: C M M A
;
_chemical_formula_sum "Si O2"
_cell_formula_units_Z 80
_cell_length_a 29.720006
_cell_length_b 14.586463
_cell_length_c 7.973508
_cell_angle_alpha 90.000000
_cell_angle_beta 90.000000
_cell_angle_gamma 90.000000
_cell_volume 3456.593602
_symmetry_space_group_name_H-M "C M M A"
_symmetry_group_IT_number 67
_symmetry_cell_setting 'orthorhombic'
loop_
_space_group_symop_operation_xyz
x,y,z
-x,1/2-y,z
x,-y,-z
-x,1/2+y,-z
-x,-y,-z
x,1/2+y,-z
-x,y,z
x,1/2-y,z
1/2+x,1/2+y,z
1/2-x,-y,z
1/2+x,1/2-y,-z
1/2-x,y,-z
1/2-x,1/2-y,-z
1/2+x,y,-z
1/2-x,1/2+y,z
1/2+x,-y,z
loop_
_atom_site_type_symbol
_atom_site_label
_atom_site_fract_x
_atom_site_fract_y
_atom_site_fract_z
Si Si1 0.352101 0.637174 0.389669
Si Si2 0.700778 0.362120 0.937258
Si Si3 0.450537 0.899031 0.920946
Si Si4 0.639783 0.860211 0.756990
Si Si5 0.450129 0.647132 0.294391
O O1 0.353051 0.750000 0.383673
O O2 0.317892 0.608117 0.243827
O O3 0.341093 0.608579 0.578855
O O4 0.403321 0.604338 0.354579
O O5 0.700851 0.250000 0.933163
O O6 0.750000 0.390020 0.000000
O O7 0.666282 0.393370 0.080403
O O8 0.500000 0.880678 0.850844
O O9 0.412111 0.883736 0.786931
O O10 0.444562 0.843577 0.093220
O O11 0.448927 0.000000 0.000000
O O12 0.643259 0.750000 0.757312
O O13 0.500000 0.604420 0.322939
O O14 0.451716 0.750000 0.366642
#
# Coordination Sequence:
#
# PCOD9501502 Si02
#       5
#    16  16  16  16  16
#     4   9  17  29  48  77 106 133 171 212 254 310
#     4   9  17  30  49  75 107 135 163 210 265 306
#     4  10  20  33  50  74 105 138 174 215 260 312
#     4  10  19  32  53  77 102 136 176 215 258 311
#     4   9  16  29  50  72  99 134 167 205 253 305
#
# _framework density 23.144172999999999
#
# number of rings (size 3 to 8) (size 9 to 14) (size 15 to 20)
#    0.000    2.600    2.000    0.600    0.000    2.800 
#    0.000    7.000    0.000    4.200    0.000    0.000 
#    6.000    0.000    0.000    0.000    0.000    0.000 
#
# Total GULP energy -223288.344693 kJ/mol
# GULP energy per Si atom -5582.208617 kJ/mol
# Density = 2.309150 g / cm^3
# Si number density = 23.144173 Si / 1000 Ang^3
#
#
#
# Elastic Constant Matrix: (Units=GPa)
#
#
# Indices 1 2 3 4 5 6 
#
# 1 112.9908 -17.0061 68.8734 0.0000 0.0000 0.0000
# 2 -17.0061 43.8563 0.4636 0.0000 0.0000 0.0000
# 3 68.8734 0.4636 160.0881 0.0000 0.0000 0.0000
# 4 0.0000 0.0000 0.0000 10.3759 0.0000 0.0000
# 5 0.0000 0.0000 0.0000 0.0000 -3.7853 0.0000
# 6 0.0000 0.0000 0.0000 0.0000 0.0000 22.1663
#
#
#
# Elastic Compliance Matrix: (Units=1/GPa)
#
#
# Indices 1 2 3 4 5 6 
#
# 1 0.013053 0.005121 -0.005631 0.000000 0.000000 0.000000
# 2 0.005121 0.024812 -0.002275 0.000000 0.000000 0.000000
# 3 -0.005631 -0.002275 0.008676 0.000000 0.000000 0.000000
# 4 0.000000 0.000000 0.000000 0.096378 0.000000 0.000000
# 5 0.000000 0.000000 0.000000 0.000000 -0.264177 0.000000
# 6 0.000000 0.000000 0.000000 0.000000 0.000000 0.045114
#
#
# Mechanical properties :
#
#
# Convention : Reuss Voigt Hill
#
# Bulk Modulus (GPa) = 24.40734 46.84410 35.62572
# Shear Modulus (GPa) = -87.84336 23.39165 -32.22586
#
# Velocity S-wave (km/s) = -6.16743 3.18259 -3.73553
# Velocity P-wave (km/s) = 6.33622 5.81285 1.78304
#
# Compressibility (1/GPa) = 0.04097129
#
# Stress axis : x y z
#
# Youngs Moduli (GPa) = 76.60981 40.30369 115.26654
#
# Poissons Ratio (x) = -0.20640 0.64902
# Poissons Ratio (y) = -0.39233 0.26224
# Poissons Ratio (z) = 0.43136 0.09169
#
# Static dielectric constant tensor:
#      x y z
#    x 1.918290 0.000000 0.000000 
#    y 0.000000 1.730500 0.000000 
#    z 0.000000 0.000000 1.841750 
# 
# From -- ./inp_files/9952.got.cif
#   From: 2010.05.17/outbox.cif.g08.bks.cpg/sg67_5_cif.got.tgz:9952.got - 2010.06.03 18:28:57.
