data_PCOD9501812
_publ_section_title
;
Structure prediction by ZEFSAII (Michael W. Deem and Ramdas Pophale) SiO2 
 PCOD9501812
Probable space group: C M M A
;
_chemical_formula_sum "Si O2"
_cell_formula_units_Z 104
_cell_length_a 8.894031
_cell_length_b 30.460383
_cell_length_c 20.889281
_cell_angle_alpha 90.000000
_cell_angle_beta 90.000000
_cell_angle_gamma 90.000000
_cell_volume 5659.231901
_symmetry_space_group_name_H-M "C M M A"
_symmetry_group_IT_number 67
_symmetry_cell_setting 'orthorhombic'
loop_
_space_group_symop_operation_xyz
x,y,z
-x,1/2-y,z
x,-y,-z
-x,1/2+y,-z
-x,-y,-z
x,1/2+y,-z
-x,y,z
x,1/2-y,z
1/2+x,1/2+y,z
1/2-x,-y,z
1/2+x,1/2-y,-z
1/2-x,y,-z
1/2-x,1/2-y,-z
1/2+x,y,-z
1/2-x,1/2+y,z
1/2+x,-y,z
loop_
_atom_site_type_symbol
_atom_site_label
_atom_site_fract_x
_atom_site_fract_y
_atom_site_fract_z
Si Si1 0.330878 0.544835 0.413208
Si Si2 0.181057 0.153384 0.929567
Si Si3 0.679392 0.750000 0.930217
Si Si4 0.817433 0.644780 0.567110
Si Si5 0.180731 0.370344 0.794509
Si Si6 0.670088 0.455760 0.740693
Si Si7 0.317692 0.198250 0.312892
O O1 0.500000 0.544077 0.439365
O O2 0.250000 0.500000 0.432848
O O3 0.267174 0.593358 0.427576
O O4 0.337100 0.542689 0.336199
O O5 0.220764 0.202644 0.904195
O O6 0.231935 0.125669 0.868504
O O7 0.000000 0.150622 0.936853
O O8 0.250000 0.146088 0.000000
O O9 0.500000 0.750000 0.934142
O O10 0.750000 0.750000 0.000000
O O11 0.750000 0.661628 0.500000
O O12 0.755511 0.672872 0.626866
O O13 0.000000 0.645834 0.567477
O O14 0.236904 0.413176 0.758742
O O15 0.226881 0.328105 0.751876
O O16 0.000000 0.368796 0.796735
O O17 0.500000 0.452729 0.765081
O O18 0.750000 0.500000 0.763555
O O19 0.500000 0.195607 0.318457
O O20 0.277706 0.250000 0.310919
#
# Coordination Sequence:
#
# PCOD9501812 Si02
#       7
#    16  16   8  16  16  16  16
#     4   9  19  34  54  80 111 142 175 217 269 327
#     4   9  18  31  49  75 109 147 186 225 271 324
#     4   8  14  26  44  66  98 138 177 216 257 308
#     4  11  23  40  59  82 111 146 186 229 277 330
#     4  10  20  34  56  84 113 146 184 229 276 326
#     4  10  19  34  56  83 112 143 180 223 275 331
#     4  10  22  39  59  83 110 144 188 233 277 324
#
# _framework density 18.377053
#
# number of rings (size 3 to 8) (size 9 to 14) (size 15 to 20)
#    0.000    2.308    1.538    0.923    1.077    3.385 
#    0.000    1.538    0.000    0.462    0.000    3.231 
#    0.000    0.000    0.000    0.000    0.000    0.000 
#
# Total GULP energy -289587.044054 kJ/mol
# GULP energy per Si atom -5568.981616 kJ/mol
# Density = 1.833523 g / cm^3
# Si number density = 18.377053 Si / 1000 Ang^3
#
#
#
# Elastic Constant Matrix: (Units=GPa)
#
#
# Indices 1 2 3 4 5 6 
#
# 1 20.3465 24.5633 35.8624 0.0000 0.0000 0.0000
# 2 24.5633 112.5485 49.7101 0.0000 0.0000 0.0000
# 3 35.8624 49.7101 118.7094 0.0000 0.0000 0.0000
# 4 0.0000 0.0000 0.0000 -13.9548 0.0000 0.0000
# 5 0.0000 0.0000 0.0000 0.0000 7.2033 0.0000
# 6 0.0000 0.0000 0.0000 0.0000 0.0000 25.3877
#
#
#
# Elastic Compliance Matrix: (Units=1/GPa)
#
#
# Indices 1 2 3 4 5 6 
#
# 1 0.117384 -0.012215 -0.030347 0.000000 0.000000 0.000000
# 2 -0.012215 0.012172 -0.001407 0.000000 0.000000 0.000000
# 3 -0.030347 -0.001407 0.018181 0.000000 0.000000 0.000000
# 4 0.000000 0.000000 0.000000 -0.071660 0.000000 0.000000
# 5 0.000000 0.000000 0.000000 0.000000 0.138824 0.000000
# 6 0.000000 0.000000 0.000000 0.000000 0.000000 0.039389
#
#
# Mechanical properties :
#
#
# Convention : Reuss Voigt Hill
#
# Bulk Modulus (GPa) = 16.72260 52.43068 34.57664
# Shear Modulus (GPa) = 13.80595 13.15847 13.48221
#
# Velocity S-wave (km/s) = 2.74389 2.67877 2.71152
# Velocity P-wave (km/s) = 4.37699 6.17739 5.35342
#
# Compressibility (1/GPa) = 0.05979932
#
# Stress axis : x y z
#
# Youngs Moduli (GPa) = 8.51904 82.15283 55.00240
#
# Poissons Ratio (x) = 1.00351 1.66915
# Poissons Ratio (y) = 0.10406 0.07739
# Poissons Ratio (z) = 0.25853 0.11559
#
# Static dielectric constant tensor:
#      x y z
#    x 1.638810 0.000000 0.000000 
#    y 0.000000 1.655340 0.000000 
#    z 0.000000 0.000000 1.628560 
# 
# From -- ./inp_files/37305.got.cif
#   From: 2010.05.17/outbox.cif.g08.bks.cpg/sg67_19_cif.got.tgz:37305.got - 2010.06.03 18:28:57.
