data_PCOD9501726
_publ_section_title
;
Structure prediction by ZEFSAII (Michael W. Deem and Ramdas Pophale) SiO2 
 PCOD9501726
Probable space group: C M M A
;
_chemical_formula_sum "Si O2"
_cell_formula_units_Z 112
_cell_length_a 14.683433
_cell_length_b 29.606752
_cell_length_c 12.236670
_cell_angle_alpha 90.000000
_cell_angle_beta 90.000000
_cell_angle_gamma 90.000000
_cell_volume 5319.632368
_symmetry_space_group_name_H-M "C M M A"
_symmetry_group_IT_number 67
_symmetry_cell_setting 'orthorhombic'
loop_
_space_group_symop_operation_xyz
x,y,z
-x,1/2-y,z
x,-y,-z
-x,1/2+y,-z
-x,-y,-z
x,1/2+y,-z
-x,y,z
x,1/2-y,z
1/2+x,1/2+y,z
1/2-x,-y,z
1/2+x,1/2-y,-z
1/2-x,y,-z
1/2-x,1/2-y,-z
1/2+x,y,-z
1/2-x,1/2+y,z
1/2+x,-y,z
loop_
_atom_site_type_symbol
_atom_site_label
_atom_site_fract_x
_atom_site_fract_y
_atom_site_fract_z
Si Si1 0.896635 0.883229 0.625689
Si Si2 0.352188 0.046815 0.455078
Si Si3 0.389239 0.882575 0.957587
Si Si4 0.110306 0.063181 0.163064
Si Si5 0.737306 0.199442 0.630193
Si Si6 0.106948 0.302917 0.804180
Si Si7 0.889511 0.536409 0.202744
O O1 0.892631 0.907872 0.508376
O O2 0.870043 0.920916 0.714581
O O3 0.832946 0.840819 0.645516
O O4 0.000000 0.869548 0.647348
O O5 0.250000 0.047477 0.500000
O O6 0.355686 0.044437 0.325243
O O7 0.394904 0.000000 0.500000
O O8 0.500000 0.880631 0.964122
O O9 0.361975 0.835280 0.903178
O O10 0.364046 0.922161 0.873603
O O11 0.355927 0.900248 0.075130
O O12 0.000000 0.061843 0.151088
O O13 0.141383 0.011556 0.153355
O O14 0.706213 0.250000 0.664094
O O15 0.750000 0.200821 0.500000
O O16 0.829268 0.189885 0.698486
O O17 0.113033 0.250000 0.833450
O O18 0.000000 0.312735 0.779716
O O19 0.000000 0.535143 0.208394
#
# Coordination Sequence:
#
# PCOD9501726 Si02
#       7
#    16  16  16  16  16  16  16
#     4  11  23  38  61  87 121 163 203 248 301 365
#     4  11  23  37  55  82 120 162 201 251 301 358
#     4   9  18  32  57  89 118 154 199 248 304 358
#     4   9  18  35  55  83 121 158 198 245 296 354
#     4  10  23  42  62  87 122 159 199 254 310 363
#     4   9  19  38  64  92 121 156 203 257 311 369
#     4  10  19  33  57  85 117 156 203 248 296 363
#
# _framework density 21.054086000000002
#
# number of rings (size 3 to 8) (size 9 to 14) (size 15 to 20)
#    0.000    2.143    1.429    1.286    4.000    3.143 
#    0.000    2.857    0.000    4.286    0.000    0.000 
#    0.000    0.000    0.000    0.000    0.000    0.000 
#
# Total GULP energy -312747.087387 kJ/mol
# GULP energy per Si atom -5584.769418 kJ/mol
# Density = 2.100617 g / cm^3
# Si number density = 21.054086 Si / 1000 Ang^3
#
#
#
# Elastic Constant Matrix: (Units=GPa)
#
#
# Indices 1 2 3 4 5 6 
#
# 1 71.8196 52.0939 11.0655 0.0000 0.0000 0.0000
# 2 52.0939 116.1521 29.9736 0.0000 0.0000 0.0000
# 3 11.0655 29.9736 91.5423 0.0000 0.0000 0.0000
# 4 0.0000 0.0000 0.0000 142.2310 0.0000 0.0000
# 5 0.0000 0.0000 0.0000 0.0000 19.1858 0.0000
# 6 0.0000 0.0000 0.0000 0.0000 0.0000 56.7924
#
#
#
# Elastic Compliance Matrix: (Units=1/GPa)
#
#
# Indices 1 2 3 4 5 6 
#
# 1 0.020666 -0.009420 0.000586 0.000000 0.000000 0.000000
# 2 -0.009420 0.013698 -0.003346 0.000000 0.000000 0.000000
# 3 0.000586 -0.003346 0.011949 0.000000 0.000000 0.000000
# 4 0.000000 0.000000 0.000000 0.007031 0.000000 0.000000
# 5 0.000000 0.000000 0.000000 0.000000 0.052122 0.000000
# 6 0.000000 0.000000 0.000000 0.000000 0.000000 0.017608
#
#
# Mechanical properties :
#
#
# Convention : Reuss Voigt Hill
#
# Bulk Modulus (GPa) = 45.55285 51.75333 48.65309
# Shear Modulus (GPa) = 32.30994 56.06724 44.18859
#
# Velocity S-wave (km/s) = 3.92167 5.16603 4.58625
# Velocity P-wave (km/s) = 6.49531 7.76005 7.15568
#
# Compressibility (1/GPa) = 0.02195252
#
# Stress axis : x y z
#
# Youngs Moduli (GPa) = 48.38819 73.00444 83.69075
#
# Poissons Ratio (x) = 0.68770 -0.04907
# Poissons Ratio (y) = 0.45582 0.28006
# Poissons Ratio (z) = -0.02837 0.24430
#
# Static dielectric constant tensor:
#      x y z
#    x 1.817290 0.000000 0.000000 
#    y 0.000000 1.764700 0.000000 
#    z 0.000000 0.000000 1.732970 
# 
# From -- ./inp_files/18562.got.cif
#   From: 2010.05.17/outbox.cif.g08.bks.cpg/sg67_10_cif.got.tgz:18562.got - 2010.06.03 18:28:57.
