data_PCOD9501648
_publ_section_title
;
Structure prediction by ZEFSAII (Michael W. Deem and Ramdas Pophale) SiO2 
 PCOD9501648
Probable space group: C M M A
;
_chemical_formula_sum "Si O2"
_cell_formula_units_Z 112
_cell_length_a 13.514261
_cell_length_b 27.708525
_cell_length_c 14.547808
_cell_angle_alpha 90.000000
_cell_angle_beta 90.000000
_cell_angle_gamma 90.000000
_cell_volume 5447.575657
_symmetry_space_group_name_H-M "C M M A"
_symmetry_group_IT_number 67
_symmetry_cell_setting 'orthorhombic'
loop_
_space_group_symop_operation_xyz
x,y,z
-x,1/2-y,z
x,-y,-z
-x,1/2+y,-z
-x,-y,-z
x,1/2+y,-z
-x,y,z
x,1/2-y,z
1/2+x,1/2+y,z
1/2-x,-y,z
1/2+x,1/2-y,-z
1/2-x,y,-z
1/2-x,1/2-y,-z
1/2+x,y,-z
1/2-x,1/2+y,z
1/2+x,-y,z
loop_
_atom_site_type_symbol
_atom_site_label
_atom_site_fract_x
_atom_site_fract_y
_atom_site_fract_z
Si Si1 0.830645 0.900151 0.600052
Si Si2 0.116007 0.353623 0.980285
Si Si3 0.386810 0.479262 0.732640
Si Si4 0.382098 0.567737 0.597802
Si Si5 0.772474 0.193658 0.140027
Si Si6 0.880716 0.456611 0.067694
Si Si7 0.114967 0.805047 0.671790
O O1 0.880050 0.927817 0.683887
O O2 0.712435 0.898091 0.618275
O O3 0.864528 0.932702 0.512635
O O4 0.867943 0.845619 0.595052
O O5 0.180373 0.338956 0.891868
O O6 0.000000 0.353005 0.960709
O O7 0.145957 0.316453 0.061074
O O8 0.144790 0.405575 0.022369
O O9 0.500000 0.493176 0.750154
O O10 0.355452 0.520680 0.659729
O O11 0.339749 0.469746 0.831928
O O12 0.500000 0.578772 0.612057
O O13 0.744748 0.250000 0.138022
O O14 0.818531 0.182960 0.239304
O O15 0.000000 0.453725 0.076555
O O16 0.857941 0.500000 0.000000
O O17 0.136368 0.750000 0.642800
O O18 0.000000 0.806934 0.699782
#
# Coordination Sequence:
#
# PCOD9501648 Si02
#       7
#    16  16  16  16  16  16  16
#     4  11  21  37  62  89 117 149 194 243 294 361
#     4  10  19  33  54  77 107 151 199 245 295 350
#     4  10  19  33  57  87 120 156 196 244 295 350
#     4  10  22  38  58  88 122 153 186 235 300 362
#     4  10  21  35  52  80 113 144 191 250 302 352
#     4   9  19  35  54  79 112 152 196 238 280 333
#     4  10  21  38  61  87 115 150 195 250 307 361
#
# _framework density 20.559605000000001
#
# number of rings (size 3 to 8) (size 9 to 14) (size 15 to 20)
#    0.000    2.000    0.000    4.286    0.000    6.286 
#    0.000    7.857    0.000    2.143    0.000    0.000 
#    0.000    0.000    0.000    0.000    0.000    0.000 
#
# Total GULP energy -311972.475481 kJ/mol
# GULP energy per Si atom -5570.937062 kJ/mol
# Density = 2.051281 g / cm^3
# Si number density = 20.559605 Si / 1000 Ang^3
#
#
#
# Elastic Constant Matrix: (Units=GPa)
#
#
# Indices 1 2 3 4 5 6 
#
# 1 126.1917 36.5380 8.3148 0.0000 0.0000 0.0000
# 2 36.5380 105.8570 66.0415 0.0000 0.0000 0.0000
# 3 8.3148 66.0415 79.7273 0.0000 0.0000 0.0000
# 4 0.0000 0.0000 0.0000 21.3243 0.0000 0.0000
# 5 0.0000 0.0000 0.0000 0.0000 19.7968 0.0000
# 6 0.0000 0.0000 0.0000 0.0000 0.0000 57.4747
#
#
#
# Elastic Compliance Matrix: (Units=1/GPa)
#
#
# Indices 1 2 3 4 5 6 
#
# 1 0.009247 -0.005360 0.003476 0.000000 0.000000 0.000000
# 2 -0.005360 0.022657 -0.018208 0.000000 0.000000 0.000000
# 3 0.003476 -0.018208 0.027263 0.000000 0.000000 0.000000
# 4 0.000000 0.000000 0.000000 0.046895 0.000000 0.000000
# 5 0.000000 0.000000 0.000000 0.000000 0.050513 0.000000
# 6 0.000000 0.000000 0.000000 0.000000 0.000000 0.017399
#
#
# Mechanical properties :
#
#
# Convention : Reuss Voigt Hill
#
# Bulk Modulus (GPa) = 52.68365 59.28497 55.98431
# Shear Modulus (GPa) = 22.67704 33.11128 27.89416
#
# Velocity S-wave (km/s) = 3.32473 4.01746 3.68740
# Velocity P-wave (km/s) = 6.35759 7.10058 6.73933
#
# Compressibility (1/GPa) = 0.01898122
#
# Stress axis : x y z
#
# Youngs Moduli (GPa) = 108.13748 44.13708 36.67962
#
# Poissons Ratio (x) = 0.23659 -0.12749
# Poissons Ratio (y) = 0.57965 0.66788
# Poissons Ratio (z) = -0.37586 0.80367
#
# Static dielectric constant tensor:
#      x y z
#    x 1.787970 0.000000 0.000000 
#    y 0.000000 1.744000 0.000000 
#    z 0.000000 0.000000 1.753340 
# 
# From -- ./inp_files/27507.got.cif
#   From: 2010.05.17/outbox.cif.g08.bks.cpg/sg67_14_cif.got.tgz:27507.got - 2010.06.03 18:28:57.
