data_PCOD9501566
_publ_section_title
;
Structure prediction by ZEFSAII (Michael W. Deem and Ramdas Pophale) SiO2 
 PCOD9501566
Probable space group: C M M A
;
_chemical_formula_sum "Si O2"
_cell_formula_units_Z 88
_cell_length_a 25.482107
_cell_length_b 9.049196
_cell_length_c 25.695094
_cell_angle_alpha 90.000000
_cell_angle_beta 90.000000
_cell_angle_gamma 90.000000
_cell_volume 5925.098038
_symmetry_space_group_name_H-M "C M M A"
_symmetry_group_IT_number 67
_symmetry_cell_setting 'orthorhombic'
loop_
_space_group_symop_operation_xyz
x,y,z
-x,1/2-y,z
x,-y,-z
-x,1/2+y,-z
-x,-y,-z
x,1/2+y,-z
-x,y,z
x,1/2-y,z
1/2+x,1/2+y,z
1/2-x,-y,z
1/2+x,1/2-y,-z
1/2-x,y,-z
1/2-x,1/2-y,-z
1/2+x,y,-z
1/2-x,1/2+y,z
1/2+x,-y,z
loop_
_atom_site_type_symbol
_atom_site_label
_atom_site_fract_x
_atom_site_fract_y
_atom_site_fract_z
Si Si1 0.436037 0.420355 0.552958
Si Si2 0.563877 0.579425 0.658666
Si Si3 0.692955 0.571836 0.944987
Si Si4 0.395674 0.928135 0.122292
Si Si5 0.561569 0.426789 0.765207
Si Si6 0.000000 0.073396 0.056351
O O1 0.418857 0.500000 0.500000
O O2 0.500000 0.425048 0.553040
O O3 0.420380 0.250000 0.552597
O O4 0.418494 0.498544 0.606077
O O5 0.500000 0.572528 0.658562
O O6 0.579187 0.750000 0.657514
O O7 0.580535 0.503437 0.712430
O O8 0.696080 0.750000 0.948882
O O9 0.750000 0.500000 0.934978
O O10 0.652279 0.518143 0.901659
O O11 0.675203 0.500000 0.000000
O O12 0.386961 0.750000 0.118049
O O13 0.407174 0.963683 0.182501
O O14 0.448046 0.964094 0.089259
O O15 0.500000 0.465571 0.773390
O O16 0.563575 0.250000 0.758221
O O17 0.000000 0.250000 0.049762
O O18 0.000000 0.000000 0.000000
#
# Coordination Sequence:
#
# PCOD9501566 Si02
#       6
#    16  16  16  16  16   8
#     4   9  15  22  32  46  65  92 129 173 218 259
#     4   9  16  24  34  50  73 101 135 176 215 253
#     4  11  22  37  55  73  91 114 144 181 223 268
#     4  10  19  33  50  69  93 119 148 181 219 264
#     4   9  16  28  44  60  82 114 146 176 212 257
#     4  10  20  32  46  66  92 120 145 174 215 262
#
# _framework density 14.852074999999999
#
# number of rings (size 3 to 8) (size 9 to 14) (size 15 to 20)
#    0.000    2.364    0.909    3.818    0.000    7.273 
#    0.000    0.000    0.000    0.000    0.000    0.000 
#    0.000    0.000    0.000    0.000    0.000    0.909 
#
# Total GULP energy -245272.807343 kJ/mol
# GULP energy per Si atom -5574.381985 kJ/mol
# Density = 1.481827 g / cm^3
# Si number density = 14.852075 Si / 1000 Ang^3
#
#
#
# Elastic Constant Matrix: (Units=GPa)
#
#
# Indices 1 2 3 4 5 6 
#
# 1 29.2774 31.6301 40.1067 0.0000 0.0000 0.0000
# 2 31.6301 96.6016 86.9176 0.0000 0.0000 0.0000
# 3 40.1067 86.9176 171.1554 0.0000 0.0000 0.0000
# 4 0.0000 0.0000 0.0000 30.1990 0.0000 0.0000
# 5 0.0000 0.0000 0.0000 0.0000 8.8072 0.0000
# 6 0.0000 0.0000 0.0000 0.0000 0.0000 14.0325
#
#
#
# Elastic Compliance Matrix: (Units=1/GPa)
#
#
# Indices 1 2 3 4 5 6 
#
# 1 0.057269 -0.012295 -0.007176 0.000000 0.000000 0.000000
# 2 -0.012295 0.021701 -0.008139 0.000000 0.000000 0.000000
# 3 -0.007176 -0.008139 0.011658 0.000000 0.000000 0.000000
# 4 0.000000 0.000000 0.000000 0.033114 0.000000 0.000000
# 5 0.000000 0.000000 0.000000 0.000000 0.113543 0.000000
# 6 0.000000 0.000000 0.000000 0.000000 0.000000 0.071263
#
#
# Mechanical properties :
#
#
# Convention : Reuss Voigt Hill
#
# Bulk Modulus (GPa) = 28.24284 68.26037 48.25160
# Shear Modulus (GPa) = 13.31307 19.83307 16.57307
#
# Velocity S-wave (km/s) = 2.99720 3.65824 3.34410
# Velocity P-wave (km/s) = 5.57091 7.99397 6.88980
#
# Compressibility (1/GPa) = 0.03540721
#
# Stress axis : x y z
#
# Youngs Moduli (GPa) = 17.46136 46.08136 85.78092
#
# Poissons Ratio (x) = 0.56656 0.61559
# Poissons Ratio (y) = 0.21468 0.69819
# Poissons Ratio (z) = 0.12531 0.37507
#
# Static dielectric constant tensor:
#      x y z
#    x 1.466550 0.000000 0.000000 
#    y 0.000000 1.497850 0.000000 
#    z 0.000000 0.000000 1.494580 
# 
# From -- ./inp_files/44597.got.cif
#   From: 2010.05.17/outbox.cif.g08.bks.cpg/sg67_23_cif.got.tgz:44597.got - 2010.06.03 18:28:57.
