data_PCOD9501691
_publ_section_title
;
Structure prediction by ZEFSAII (Michael W. Deem and Ramdas Pophale) SiO2 
 PCOD9501691
Probable space group: C M M A
;
_chemical_formula_sum "Si O2"
_cell_formula_units_Z 112
_cell_length_a 14.472457
_cell_length_b 27.790549
_cell_length_c 12.310175
_cell_angle_alpha 90.000000
_cell_angle_beta 90.000000
_cell_angle_gamma 90.000000
_cell_volume 4951.121922
_symmetry_space_group_name_H-M "C M M A"
_symmetry_group_IT_number 67
_symmetry_cell_setting 'orthorhombic'
loop_
_space_group_symop_operation_xyz
x,y,z
-x,1/2-y,z
x,-y,-z
-x,1/2+y,-z
-x,-y,-z
x,1/2+y,-z
-x,y,z
x,1/2-y,z
1/2+x,1/2+y,z
1/2-x,-y,z
1/2+x,1/2-y,-z
1/2-x,y,-z
1/2-x,1/2-y,-z
1/2+x,y,-z
1/2-x,1/2+y,z
1/2+x,-y,z
loop_
_atom_site_type_symbol
_atom_site_label
_atom_site_fract_x
_atom_site_fract_y
_atom_site_fract_z
Si Si1 0.389922 0.350541 0.345528
Si Si2 0.390633 0.063203 0.671094
Si Si3 0.897501 0.878701 0.887744
Si Si4 0.111818 0.541657 0.301521
Si Si5 0.231474 0.695518 0.785205
Si Si6 0.111524 0.665144 0.585367
Si Si7 0.148089 0.548282 0.050213
O O1 0.500000 0.347253 0.325319
O O2 0.366595 0.407449 0.356218
O O3 0.327806 0.327691 0.252234
O O4 0.369534 0.324274 0.459812
O O5 0.500000 0.061157 0.648109
O O6 0.379571 0.079435 0.797152
O O7 0.357761 0.109635 0.605919
O O8 0.355172 0.009515 0.651236
O O9 0.820782 0.838623 0.870289
O O10 0.000000 0.859412 0.862839
O O11 0.897675 0.903912 0.003733
O O12 0.147635 0.545080 0.178593
O O13 0.000000 0.538846 0.296523
O O14 0.242180 0.750000 0.821984
O O15 0.165950 0.693737 0.677331
O O16 0.000000 0.668604 0.600810
O O17 0.104396 0.500000 0.000000
O O18 0.250000 0.550475 0.000000
#
# Coordination Sequence:
#
# PCOD9501691 Si02
#       7
#    16  16  16  16  16  16  16
#     4  10  22  38  56  82 117 155 197 245 299 363
#     4   8  15  29  51  80 114 153 190 229 278 341
#     4  10  20  36  58  87 123 155 192 245 299 347
#     4  10  19  33  55  81 114 155 197 233 280 352
#     4  11  23  40  62  85 111 147 199 258 310 354
#     4   9  19  36  57  85 119 152 190 240 298 356
#     4  11  21  32  53  87 125 161 195 234 279 344
#
# _framework density 22.621134999999999
#
# number of rings (size 3 to 8) (size 9 to 14) (size 15 to 20)
#    0.000    2.143    1.429    3.000    0.000    3.714 
#    0.000    4.286    0.000    7.286    0.000    4.000 
#    0.000    0.000    0.000    0.000    0.000    0.000 
#
# Total GULP energy -312937.435203 kJ/mol
# GULP energy per Si atom -5588.168486 kJ/mol
# Density = 2.256965 g / cm^3
# Si number density = 22.621135 Si / 1000 Ang^3
#
#
#
# Elastic Constant Matrix: (Units=GPa)
#
#
# Indices 1 2 3 4 5 6 
#
# 1 74.1683 28.9445 -10.3685 0.0000 0.0000 0.0000
# 2 28.9445 101.7448 0.0166 0.0000 0.0000 0.0000
# 3 -10.3685 0.0166 30.7908 0.0000 0.0000 0.0000
# 4 0.0000 0.0000 0.0000 1.3099 0.0000 0.0000
# 5 0.0000 0.0000 0.0000 0.0000 17.6593 0.0000
# 6 0.0000 0.0000 0.0000 0.0000 0.0000 17.7952
#
#
#
# Elastic Compliance Matrix: (Units=1/GPa)
#
#
# Indices 1 2 3 4 5 6 
#
# 1 0.016016 -0.004557 0.005396 0.000000 0.000000 0.000000
# 2 -0.004557 0.011125 -0.001541 0.000000 0.000000 0.000000
# 3 0.005396 -0.001541 0.034295 0.000000 0.000000 0.000000
# 4 0.000000 0.000000 0.000000 0.763434 0.000000 0.000000
# 5 0.000000 0.000000 0.000000 0.000000 0.056628 0.000000
# 6 0.000000 0.000000 0.000000 0.000000 0.000000 0.056195
#
#
# Mechanical properties :
#
#
# Convention : Reuss Voigt Hill
#
# Bulk Modulus (GPa) = 16.65788 27.09880 21.87834
# Shear Modulus (GPa) = 5.21318 19.89360 12.55339
#
# Velocity S-wave (km/s) = 1.51973 2.96873 2.35827
# Velocity P-wave (km/s) = 3.23408 4.87407 4.13617
#
# Compressibility (1/GPa) = 0.06003164
#
# Stress axis : x y z
#
# Youngs Moduli (GPa) = 62.43942 89.88639 29.15877
#
# Poissons Ratio (x) = 0.40961 -0.15733
# Poissons Ratio (y) = 0.28454 0.04492
# Poissons Ratio (z) = -0.33689 0.13847
#
# Static dielectric constant tensor:
#      x y z
#    x 1.894110 0.000000 0.000000 
#    y 0.000000 1.869230 0.000000 
#    z 0.000000 0.000000 1.830580 
# 
# From -- ./inp_files/27741.got.cif
#   From: 2010.05.17/outbox.cif.g08.bks.cpg/sg67_14_cif.got.tgz:27741.got - 2010.06.03 18:28:57.
