data_PCOD9501348
_publ_section_title
;
Structure prediction by ZEFSAII (Michael W. Deem and Ramdas Pophale) SiO2 
 PCOD9501348
Probable space group: C M M A
;
_chemical_formula_sum "Si O2"
_cell_formula_units_Z 96
_cell_length_a 8.574029
_cell_length_b 28.222112
_cell_length_c 24.542339
_cell_angle_alpha 90.000000
_cell_angle_beta 90.000000
_cell_angle_gamma 90.000000
_cell_volume 5938.686638
_symmetry_space_group_name_H-M "C M M A"
_symmetry_group_IT_number 67
_symmetry_cell_setting 'orthorhombic'
loop_
_space_group_symop_operation_xyz
x,y,z
-x,1/2-y,z
x,-y,-z
-x,1/2+y,-z
-x,-y,-z
x,1/2+y,-z
-x,y,z
x,1/2-y,z
1/2+x,1/2+y,z
1/2-x,-y,z
1/2+x,1/2-y,-z
1/2-x,y,-z
1/2-x,1/2-y,-z
1/2+x,y,-z
1/2-x,1/2+y,z
1/2+x,-y,z
loop_
_atom_site_type_symbol
_atom_site_label
_atom_site_fract_x
_atom_site_fract_y
_atom_site_fract_z
Si Si1 0.188351 0.694867 0.941089
Si Si2 0.689350 0.855519 0.167812
Si Si3 0.312540 0.052116 0.769628
Si Si4 0.685747 0.604835 0.663560
Si Si5 0.188691 0.695732 0.721038
Si Si6 0.313867 0.552832 0.440385
O O1 0.234288 0.750000 0.932910
O O2 0.244826 0.663650 0.890204
O O3 0.000000 0.693454 0.942040
O O4 0.250000 0.679494 0.000000
O O5 0.500000 0.855206 0.165892
O O6 0.736724 0.908244 0.186083
O O7 0.733103 0.820930 0.217798
O O8 0.500000 0.051525 0.767249
O O9 0.249836 0.070904 0.711668
O O10 0.250000 0.000000 0.781215
O O11 0.500000 0.601641 0.662026
O O12 0.738681 0.657598 0.680219
O O13 0.755957 0.587608 0.606664
O O14 0.233982 0.750000 0.711416
O O15 0.000000 0.692372 0.717593
O O16 0.500000 0.551129 0.441784
O O17 0.250000 0.500000 0.428452
O O18 0.250000 0.566196 0.500000
#
# Coordination Sequence:
#
# PCOD9501348 Si02
#       6
#    16  16  16  16  16  16
#     4   9  16  27  44  66  91 119 151 188 231 279
#     4   8  15  28  47  68  91 122 157 191 231 283
#     4  10  19  32  49  70  94 122 157 196 239 284
#     4  11  21  33  49  72 101 131 161 194 235 281
#     4   9  17  31  51  73  96 125 161 199 239 283
#     4  11  21  35  53  75 101 129 162 198 239 283
#
# _framework density 16.165189999999999
#
# number of rings (size 3 to 8) (size 9 to 14) (size 15 to 20)
#    0.000    2.333    0.000    6.000    0.000    2.333 
#    0.000    4.167    0.000    5.000    0.000    3.500 
#    0.000    0.000    0.000    0.000    0.000    0.000 
#
# Total GULP energy -267765.238435 kJ/mol
# GULP energy per Si atom -5578.442467 kJ/mol
# Density = 1.612840 g / cm^3
# Si number density = 16.165190 Si / 1000 Ang^3
#
#
#
# Elastic Constant Matrix: (Units=GPa)
#
#
# Indices 1 2 3 4 5 6 
#
# 1 74.9091 43.5280 44.4065 0.0000 0.0000 0.0000
# 2 43.5280 128.6242 92.8619 0.0000 0.0000 0.0000
# 3 44.4065 92.8619 149.2180 0.0000 0.0000 0.0000
# 4 0.0000 0.0000 0.0000 20.5571 0.0000 0.0000
# 5 0.0000 0.0000 0.0000 0.0000 23.7002 0.0000
# 6 0.0000 0.0000 0.0000 0.0000 0.0000 23.7035
#
#
#
# Elastic Compliance Matrix: (Units=1/GPa)
#
#
# Indices 1 2 3 4 5 6 
#
# 1 0.017203 -0.003860 -0.002718 0.000000 0.000000 0.000000
# 2 -0.003860 0.014984 -0.008176 0.000000 0.000000 0.000000
# 3 -0.002718 -0.008176 0.012598 0.000000 0.000000 0.000000
# 4 0.000000 0.000000 0.000000 0.048645 0.000000 0.000000
# 5 0.000000 0.000000 0.000000 0.000000 0.042194 0.000000
# 6 0.000000 0.000000 0.000000 0.000000 0.000000 0.042188
#
#
# Mechanical properties :
#
#
# Convention : Reuss Voigt Hill
#
# Bulk Modulus (GPa) = 65.45090 79.37157 72.41124
# Shear Modulus (GPa) = 23.53921 25.05581 24.29751
#
# Velocity S-wave (km/s) = 3.82011 3.94126 3.88116
# Velocity P-wave (km/s) = 7.74819 8.36171 8.06079
#
# Compressibility (1/GPa) = 0.01527863
#
# Stress axis : x y z
#
# Youngs Moduli (GPa) = 58.12811 66.73989 79.37507
#
# Poissons Ratio (x) = 0.25761 0.21571
# Poissons Ratio (y) = 0.22437 0.64897
# Poissons Ratio (z) = 0.15797 0.54566
#
# Static dielectric constant tensor:
#      x y z
#    x 1.549260 0.000000 0.000000 
#    y 0.000000 1.533140 0.000000 
#    z 0.000000 0.000000 1.527320 
# 
# From -- ./inp_files/40929.got.cif
#   From: 2010.05.17/outbox.cif.g08.bks.cpg/sg67_21_cif.got.tgz:40929.got - 2010.06.03 18:28:57.
