data_PCOD9501821
_publ_section_title
;
Structure prediction by ZEFSAII (Michael W. Deem and Ramdas Pophale) SiO2 
 PCOD9501821
Probable space group: C M M A
;
_chemical_formula_sum "Si O2"
_cell_formula_units_Z 96
_cell_length_a 17.350237
_cell_length_b 25.977318
_cell_length_c 12.150644
_cell_angle_alpha 90.000000
_cell_angle_beta 90.000000
_cell_angle_gamma 90.000000
_cell_volume 5476.448640
_symmetry_space_group_name_H-M "C M M A"
_symmetry_group_IT_number 67
_symmetry_cell_setting 'orthorhombic'
loop_
_space_group_symop_operation_xyz
x,y,z
-x,1/2-y,z
x,-y,-z
-x,1/2+y,-z
-x,-y,-z
x,1/2+y,-z
-x,y,z
x,1/2-y,z
1/2+x,1/2+y,z
1/2-x,-y,z
1/2+x,1/2-y,-z
1/2-x,y,-z
1/2-x,1/2-y,-z
1/2+x,y,-z
1/2-x,1/2+y,z
1/2+x,-y,z
loop_
_atom_site_type_symbol
_atom_site_label
_atom_site_fract_x
_atom_site_fract_y
_atom_site_fract_z
Si Si1 0.691129 0.594084 0.756388
Si Si2 0.087522 0.055949 0.946397
Si Si3 0.733928 0.191049 0.869506
Si Si4 0.591685 0.059594 0.413876
Si Si5 0.649962 0.553176 0.344452
Si Si6 0.086647 0.372160 0.159097
O O1 0.654463 0.563081 0.858037
O O2 0.718268 0.648353 0.803993
O O3 0.622214 0.601560 0.670412
O O4 0.762723 0.564510 0.696908
O O5 0.000000 0.061456 0.899557
O O6 0.096502 0.096697 0.044897
O O7 0.092263 0.000000 0.000000
O O8 0.749417 0.250000 0.839029
O O9 0.646870 0.173995 0.842881
O O10 0.750000 0.185661 0.000000
O O11 0.500000 0.056915 0.429253
O O12 0.633872 0.069552 0.529740
O O13 0.620953 0.005966 0.356730
O O14 0.601963 0.586828 0.257069
O O15 0.000000 0.353443 0.167009
#
# Coordination Sequence:
#
# PCOD9501821 Si02
#       6
#    16  16  16  16  16  16
#     4  11  21  35  56  82 109 145 188 230 274 330
#     4  10  20  33  51  81 119 151 178 216 272 334
#     4  10  21  39  57  78 108 141 183 236 286 326
#     4  11  21  36  56  80 116 152 186 222 266 321
#     4  10  21  35  54  83 115 149 187 223 265 319
#     4  10  19  34  57  82 110 144 185 226 271 330
#
# _framework density 17.529606999999999
#
# number of rings (size 3 to 8) (size 9 to 14) (size 15 to 20)
#    0.000    1.667    1.667    4.500    0.000    4.333 
#    0.000    1.667    0.000   10.000    0.000    0.000 
#    0.000    0.000    0.000    0.000    0.000    0.000 
#
# Total GULP energy -267671.111953 kJ/mol
# GULP energy per Si atom -5576.481499 kJ/mol
# Density = 1.748971 g / cm^3
# Si number density = 17.529607 Si / 1000 Ang^3
#
#
#
# Elastic Constant Matrix: (Units=GPa)
#
#
# Indices 1 2 3 4 5 6 
#
# 1 101.3638 65.4675 60.4844 0.0000 0.0000 0.0000
# 2 65.4675 56.6240 47.3518 0.0000 0.0000 0.0000
# 3 60.4844 47.3518 101.2980 0.0000 0.0000 0.0000
# 4 0.0000 0.0000 0.0000 19.1610 0.0000 0.0000
# 5 0.0000 0.0000 0.0000 0.0000 19.9244 0.0000
# 6 0.0000 0.0000 0.0000 0.0000 0.0000 10.4061
#
#
#
# Elastic Compliance Matrix: (Units=1/GPa)
#
#
# Indices 1 2 3 4 5 6 
#
# 1 0.039780 -0.042900 -0.003699 0.000000 0.000000 0.000000
# 2 -0.042900 0.075258 -0.009564 0.000000 0.000000 0.000000
# 3 -0.003699 -0.009564 0.016551 0.000000 0.000000 0.000000
# 4 0.000000 0.000000 0.000000 0.052189 0.000000 0.000000
# 5 0.000000 0.000000 0.000000 0.000000 0.050190 0.000000
# 6 0.000000 0.000000 0.000000 0.000000 0.000000 0.096098
#
#
# Mechanical properties :
#
#
# Convention : Reuss Voigt Hill
#
# Bulk Modulus (GPa) = 51.91115 67.32147 59.61631
# Shear Modulus (GPa) = 11.14047 15.63044 13.38545
#
# Velocity S-wave (km/s) = 2.52369 2.98931 2.76631
# Velocity P-wave (km/s) = 6.17817 7.09947 6.65478
#
# Compressibility (1/GPa) = 0.01926368
#
# Stress axis : x y z
#
# Youngs Moduli (GPa) = 25.13813 13.28757 60.41797
#
# Poissons Ratio (x) = 0.57003 0.22349
# Poissons Ratio (y) = 1.07842 0.57786
# Poissons Ratio (z) = 0.09299 0.12709
#
# Static dielectric constant tensor:
#      x y z
#    x 1.635500 0.000000 0.000000 
#    y 0.000000 1.580630 0.000000 
#    z 0.000000 0.000000 1.624680 
# 
# From -- ./inp_files/19833.got.cif
#   From: 2010.05.17/outbox.cif.g08.bks.cpg/sg67_10_cif.got.tgz:19833.got - 2010.06.03 18:28:57.
