data_PCOD9501089
_publ_section_title
;
Structure prediction by ZEFSAII (Michael W. Deem and Ramdas Pophale) SiO2 
 PCOD9501089
Probable space group: C M M A
;
_chemical_formula_sum "Si O2"
_cell_formula_units_Z 80
_cell_length_a 28.199756
_cell_length_b 8.586544
_cell_length_c 19.329857
_cell_angle_alpha 90.000000
_cell_angle_beta 90.000000
_cell_angle_gamma 90.000000
_cell_volume 4680.501529
_symmetry_space_group_name_H-M "C M M A"
_symmetry_group_IT_number 67
_symmetry_cell_setting 'orthorhombic'
loop_
_space_group_symop_operation_xyz
x,y,z
-x,1/2-y,z
x,-y,-z
-x,1/2+y,-z
-x,-y,-z
x,1/2+y,-z
-x,y,z
x,1/2-y,z
1/2+x,1/2+y,z
1/2-x,-y,z
1/2+x,1/2-y,-z
1/2-x,y,-z
1/2-x,1/2-y,-z
1/2+x,y,-z
1/2-x,1/2+y,z
1/2+x,-y,z
loop_
_atom_site_type_symbol
_atom_site_label
_atom_site_fract_x
_atom_site_fract_y
_atom_site_fract_z
Si Si1 0.698065 0.435571 0.352142
Si Si2 0.851216 0.938677 0.783874
Si Si3 0.947058 0.439360 0.286787
Si Si4 0.196633 0.563226 0.926349
Si Si5 0.893965 0.436582 0.425359
O O1 0.698294 0.250000 0.354574
O O2 0.750000 0.500000 0.368529
O O3 0.682493 0.492083 0.275538
O O4 0.657648 0.500531 0.403155
O O5 0.848545 0.750000 0.778461
O O6 0.904884 0.986949 0.764843
O O7 0.834270 0.983927 0.860069
O O8 0.948209 0.250000 0.285243
O O9 0.929651 0.483995 0.363719
O O10 0.000000 0.496085 0.271690
O O11 0.198428 0.750000 0.929314
O O12 0.250000 0.500000 0.917069
O O13 0.178885 0.500000 0.000000
O O14 0.907714 0.500000 0.500000
O O15 0.892203 0.250000 0.426778
#
# Coordination Sequence:
#
# PCOD9501089 Si02
#       5
#    16  16  16  16  16
#     4  11  21  33  50  71  96 128 163 198 239 286
#     4   9  18  32  50  73  99 127 162 201 240 284
#     4   8  15  30  52  74  95 122 158 200 243 286
#     4  10  19  30  46  70 100 132 163 196 234 280
#     4  10  20  34  50  71  98 126 160 199 241 289
#
# _framework density 17.092186000000002
#
# number of rings (size 3 to 8) (size 9 to 14) (size 15 to 20)
#    0.000    2.400    0.000    5.400    0.000    4.000 
#    0.000    2.000    0.000   15.000    0.000    0.000 
#    0.000    0.000    0.000    0.000    0.000    0.800 
#
# Total GULP energy -223155.181020 kJ/mol
# GULP energy per Si atom -5578.879525 kJ/mol
# Density = 1.705328 g / cm^3
# Si number density = 17.092186 Si / 1000 Ang^3
#
#
#
# Elastic Constant Matrix: (Units=GPa)
#
#
# Indices 1 2 3 4 5 6 
#
# 1 75.6241 12.3372 26.2578 0.0000 0.0000 0.0000
# 2 12.3372 45.8442 21.8683 0.0000 0.0000 0.0000
# 3 26.2578 21.8683 111.3833 0.0000 0.0000 0.0000
# 4 0.0000 0.0000 0.0000 25.8751 0.0000 0.0000
# 5 0.0000 0.0000 0.0000 0.0000 -0.8497 0.0000
# 6 0.0000 0.0000 0.0000 0.0000 0.0000 12.0847
#
#
#
# Elastic Compliance Matrix: (Units=1/GPa)
#
#
# Indices 1 2 3 4 5 6 
#
# 1 0.014664 -0.002535 -0.002959 0.000000 0.000000 0.000000
# 2 -0.002535 0.024505 -0.004214 0.000000 0.000000 0.000000
# 3 -0.002959 -0.004214 0.010503 0.000000 0.000000 0.000000
# 4 0.000000 0.000000 0.000000 0.038647 0.000000 0.000000
# 5 0.000000 0.000000 0.000000 0.000000 -1.176832 0.000000
# 6 0.000000 0.000000 0.000000 0.000000 0.000000 0.082749
#
#
# Mechanical properties :
#
#
# Convention : Reuss Voigt Hill
#
# Bulk Modulus (GPa) = 33.05023 39.30869 36.17946
# Shear Modulus (GPa) = -5.12157 18.91458 6.89651
#
# Velocity S-wave (km/s) = -1.73290 3.33020 2.01088
# Velocity P-wave (km/s) = 3.92103 6.15101 5.15798
#
# Compressibility (1/GPa) = 0.03025698
#
# Stress axis : x y z
#
# Youngs Moduli (GPa) = 68.19268 40.80784 95.21145
#
# Poissons Ratio (x) = 0.10343 0.28177
# Poissons Ratio (y) = 0.17285 0.40119
# Poissons Ratio (z) = 0.20181 0.17195
#
# Static dielectric constant tensor:
#      x y z
#    x 1.570580 0.000000 0.000000 
#    y 0.000000 1.576300 0.000000 
#    z 0.000000 0.000000 1.572890 
# 
# From -- ./inp_files/32124.got.cif
#   From: 2010.05.17/outbox.cif.g08.bks.cpg/sg67_17_cif.got.tgz:32124.got - 2010.06.03 18:28:57.
