data_PCOD9501105
_publ_section_title
;
Structure prediction by ZEFSAII (Michael W. Deem and Ramdas Pophale) SiO2 
 PCOD9501105
Probable space group: C M M A
;
_chemical_formula_sum "Si O2"
_cell_formula_units_Z 64
_cell_length_a 24.297082
_cell_length_b 10.630664
_cell_length_c 14.225777
_cell_angle_alpha 90.000000
_cell_angle_beta 90.000000
_cell_angle_gamma 90.000000
_cell_volume 3674.434479
_symmetry_space_group_name_H-M "C M M A"
_symmetry_group_IT_number 67
_symmetry_cell_setting 'orthorhombic'
loop_
_space_group_symop_operation_xyz
x,y,z
-x,1/2-y,z
x,-y,-z
-x,1/2+y,-z
-x,-y,-z
x,1/2+y,-z
-x,y,z
x,1/2-y,z
1/2+x,1/2+y,z
1/2-x,-y,z
1/2+x,1/2-y,-z
1/2-x,y,-z
1/2-x,1/2-y,-z
1/2+x,y,-z
1/2-x,1/2+y,z
1/2+x,-y,z
loop_
_atom_site_type_symbol
_atom_site_label
_atom_site_fract_x
_atom_site_fract_y
_atom_site_fract_z
Si Si1 0.000000 0.393871 0.921397
Si Si2 0.939681 0.885823 0.613530
Si Si3 0.415395 0.392001 0.245010
Si Si4 0.206157 0.395551 0.689500
Si Si5 0.153796 0.500000 0.500000
O O1 0.053182 0.407162 0.853236
O O2 0.000000 0.250000 0.958314
O O3 0.000000 0.500000 0.000000
O O4 0.935364 0.750000 0.662325
O O5 0.000000 0.888919 0.567121
O O6 0.935875 0.001131 0.684702
O O7 0.888624 0.899732 0.543913
O O8 0.428543 0.250000 0.279056
O O9 0.349222 0.401597 0.247713
O O10 0.225659 0.250000 0.688698
O O11 0.250000 0.500000 0.720573
O O12 0.188098 0.437232 0.583817
#
# Coordination Sequence:
#
# PCOD9501105 Si02
#       5
#     8  16  16  16   8
#     4  10  20  36  60  87 112 133 158 199 254 319
#     4  10  19  30  47  72 102 137 179 223 260 304
#     4   9  19  36  55  76 105 140 170 203 259 321
#     4  10  21  35  52  72  99 139 183 222 258 298
#     4  10  20  32  46  68 102 141 183 224 266 302
#
# _framework density 17.417646000000001
#
# number of rings (size 3 to 8) (size 9 to 14) (size 15 to 20)
#    0.000    2.250    1.250    1.500    0.000    8.000 
#    0.000    0.000    0.000    0.750    0.000    5.250 
#    0.000    0.000    0.000    0.000    0.000    0.000 
#
# Total GULP energy -178292.964172 kJ/mol
# GULP energy per Si atom -5571.655130 kJ/mol
# Density = 1.737800 g / cm^3
# Si number density = 17.417646 Si / 1000 Ang^3
#
#
#
# Elastic Constant Matrix: (Units=GPa)
#
#
# Indices 1 2 3 4 5 6 
#
# 1 90.1488 63.7947 24.3095 0.0000 0.0000 0.0000
# 2 63.7947 162.7514 48.2418 0.0000 0.0000 0.0000
# 3 24.3095 48.2418 49.9919 0.0000 0.0000 0.0000
# 4 0.0000 0.0000 0.0000 26.7700 0.0000 0.0000
# 5 0.0000 0.0000 0.0000 0.0000 520.3175 0.0000
# 6 0.0000 0.0000 0.0000 0.0000 0.0000 26.1290
#
#
#
# Elastic Compliance Matrix: (Units=1/GPa)
#
#
# Indices 1 2 3 4 5 6 
#
# 1 0.015546 -0.005396 -0.002352 0.000000 0.000000 0.000000
# 2 -0.005396 0.010479 -0.007488 0.000000 0.000000 0.000000
# 3 -0.002352 -0.007488 0.028373 0.000000 0.000000 0.000000
# 4 0.000000 0.000000 0.000000 0.037355 0.000000 0.000000
# 5 0.000000 0.000000 0.000000 0.000000 0.001922 0.000000
# 6 0.000000 0.000000 0.000000 0.000000 0.000000 0.038272
#
#
# Mechanical properties :
#
#
# Convention : Reuss Voigt Hill
#
# Bulk Modulus (GPa) = 41.79758 63.95379 52.87568
# Shear Modulus (GPa) = 29.34358 125.74638 77.54498
#
# Velocity S-wave (km/s) = 4.10897 8.50597 6.67964
# Velocity P-wave (km/s) = 6.82355 11.54410 9.48228
#
# Compressibility (1/GPa) = 0.02392483
#
# Stress axis : x y z
#
# Youngs Moduli (GPa) = 64.32583 95.42665 35.24476
#
# Poissons Ratio (x) = 0.51497 0.08289
# Poissons Ratio (y) = 0.34713 0.26392
# Poissons Ratio (z) = 0.15129 0.71458
#
# Static dielectric constant tensor:
#      x y z
#    x 1.636180 0.000000 0.000000 
#    y 0.000000 1.617740 0.000000 
#    z 0.000000 0.000000 1.557280 
# 
# From -- ./inp_files/25005.got.cif
#   From: 2010.05.17/outbox.cif.g08.bks.cpg/sg67_13_cif.got.tgz:25005.got - 2010.06.03 18:28:57.
