data_PCOD9501369
_publ_section_title
;
Structure prediction by ZEFSAII (Michael W. Deem and Ramdas Pophale) SiO2 
 PCOD9501369
Probable space group: C M M A
;
_chemical_formula_sum "Si O2"
_cell_formula_units_Z 80
_cell_length_a 8.392648
_cell_length_b 19.590787
_cell_length_c 26.413817
_cell_angle_alpha 90.000000
_cell_angle_beta 90.000000
_cell_angle_gamma 90.000000
_cell_volume 4342.922266
_symmetry_space_group_name_H-M "C M M A"
_symmetry_group_IT_number 67
_symmetry_cell_setting 'orthorhombic'
loop_
_space_group_symop_operation_xyz
x,y,z
-x,1/2-y,z
x,-y,-z
-x,1/2+y,-z
-x,-y,-z
x,1/2+y,-z
-x,y,z
x,1/2-y,z
1/2+x,1/2+y,z
1/2-x,-y,z
1/2+x,1/2-y,-z
1/2-x,y,-z
1/2-x,1/2-y,-z
1/2+x,y,-z
1/2-x,1/2+y,z
1/2+x,-y,z
loop_
_atom_site_type_symbol
_atom_site_label
_atom_site_fract_x
_atom_site_fract_y
_atom_site_fract_z
Si Si1 0.809525 0.422608 0.851790
Si Si2 0.691194 0.922483 0.445407
Si Si3 0.807578 0.671781 0.056264
Si Si4 0.805830 0.171767 0.353652
Si Si5 0.692519 0.328896 0.761057
O O1 0.750000 0.500000 0.851109
O O2 0.750562 0.380498 0.900969
O O3 0.757602 0.380540 0.802397
O O4 0.000000 0.423679 0.853708
O O5 0.500000 0.922402 0.445781
O O6 0.750000 0.896542 0.500000
O O7 0.749201 0.877574 0.398206
O O8 0.750000 0.000000 0.440079
O O9 0.755538 0.750000 0.067186
O O10 0.000000 0.671485 0.056384
O O11 0.750000 0.653960 0.000000
O O12 0.757569 0.250000 0.363003
O O13 0.756861 0.153251 0.296421
O O14 0.000000 0.170542 0.353858
O O15 0.500000 0.330574 0.762486
O O16 0.741020 0.250000 0.771131
#
# Coordination Sequence:
#
# PCOD9501369 Si02
#       5
#    16  16  16  16  16
#     4  11  23  37  53  77 110 142 175 216 261 306
#     4  10  19  32  50  71  99 133 168 206 249 299
#     4   9  19  36  57  79 103 134 172 213 257 306
#     4   8  16  32  53  76 101 130 165 207 254 301
#     4   9  18  35  58  80 103 135 174 212 256 313
#
# _framework density 18.420777000000001
#
# number of rings (size 3 to 8) (size 9 to 14) (size 15 to 20)
#    0.000    2.600    0.000    3.600    0.000    4.400 
#    0.000    8.000    0.000    4.200    0.000    0.000 
#    0.000    0.000    0.000    0.000    0.000    0.000 
#
# Total GULP energy -223156.525690 kJ/mol
# GULP energy per Si atom -5578.913142 kJ/mol
# Density = 1.837885 g / cm^3
# Si number density = 18.420777 Si / 1000 Ang^3
#
#
#
# Elastic Constant Matrix: (Units=GPa)
#
#
# Indices 1 2 3 4 5 6 
#
# 1 23.2369 24.9730 27.3559 0.0000 0.0000 0.0000
# 2 24.9730 133.2541 136.2320 0.0000 0.0000 0.0000
# 3 27.3559 136.2320 195.1835 0.0000 0.0000 0.0000
# 4 0.0000 0.0000 0.0000 22.0150 0.0000 0.0000
# 5 0.0000 0.0000 0.0000 0.0000 22.0033 0.0000
# 6 0.0000 0.0000 0.0000 0.0000 0.0000 12.2180
#
#
#
# Elastic Compliance Matrix: (Units=1/GPa)
#
#
# Indices 1 2 3 4 5 6 
#
# 1 0.054062 -0.008328 -0.001765 0.000000 0.000000 0.000000
# 2 -0.008328 0.027482 -0.018015 0.000000 0.000000 0.000000
# 3 -0.001765 -0.018015 0.017944 0.000000 0.000000 0.000000
# 4 0.000000 0.000000 0.000000 0.045424 0.000000 0.000000
# 5 0.000000 0.000000 0.000000 0.000000 0.045448 0.000000
# 6 0.000000 0.000000 0.000000 0.000000 0.000000 0.081846
#
#
# Mechanical properties :
#
#
# Convention : Reuss Voigt Hill
#
# Bulk Modulus (GPa) = 23.10797 80.97736 52.04267
# Shear Modulus (GPa) = 14.58381 22.12150 18.35266
#
# Velocity S-wave (km/s) = 2.81678 3.46916 3.15985
# Velocity P-wave (km/s) = 4.81152 7.75255 6.45185
#
# Compressibility (1/GPa) = 0.04327512
#
# Stress axis : x y z
#
# Youngs Moduli (GPa) = 18.49716 36.38692 55.72773
#
# Poissons Ratio (x) = 0.30302 0.09834
# Poissons Ratio (y) = 0.15404 1.00392
# Poissons Ratio (z) = 0.03264 0.65550
#
# Static dielectric constant tensor:
#      x y z
#    x 1.633550 0.000000 0.000000 
#    y 0.000000 1.613650 0.000000 
#    z 0.000000 0.000000 1.631320 
# 
# From -- ./inp_files/43267.got.cif
#   From: 2010.05.17/outbox.cif.g08.bks.cpg/sg67_22_cif.got.tgz:43267.got - 2010.06.03 18:28:57.
