data_PCOD9501197
_publ_section_title
;
Structure prediction by ZEFSAII (Michael W. Deem and Ramdas Pophale) SiO2 
 PCOD9501197
Probable space group: C M M A
;
_chemical_formula_sum "Si O2"
_cell_formula_units_Z 80
_cell_length_a 25.066445
_cell_length_b 14.513823
_cell_length_c 10.935578
_cell_angle_alpha 90.000000
_cell_angle_beta 90.000000
_cell_angle_gamma 90.000000
_cell_volume 3978.472041
_symmetry_space_group_name_H-M "C M M A"
_symmetry_group_IT_number 67
_symmetry_cell_setting 'orthorhombic'
loop_
_space_group_symop_operation_xyz
x,y,z
-x,1/2-y,z
x,-y,-z
-x,1/2+y,-z
-x,-y,-z
x,1/2+y,-z
-x,y,z
x,1/2-y,z
1/2+x,1/2+y,z
1/2-x,-y,z
1/2+x,1/2-y,-z
1/2-x,y,-z
1/2-x,1/2-y,-z
1/2+x,y,-z
1/2-x,1/2+y,z
1/2+x,-y,z
loop_
_atom_site_type_symbol
_atom_site_label
_atom_site_fract_x
_atom_site_fract_y
_atom_site_fract_z
Si Si1 0.270195 0.394821 0.627665
Si Si2 0.000000 0.856894 0.023738
Si Si3 0.884371 0.637960 0.019265
Si Si4 0.616860 0.138166 0.732768
Si Si5 0.773971 0.896987 0.122907
Si Si6 0.000000 0.142832 0.273046
O O1 0.250000 0.500000 0.625354
O O2 0.250000 0.353981 0.500000
O O3 0.333532 0.392544 0.650797
O O4 0.244156 0.353286 0.750272
O O5 0.057140 0.896850 0.059972
O O6 0.000000 0.750000 0.063326
O O7 0.000000 0.856223 0.875598
O O8 0.884782 0.750000 0.024252
O O9 0.836947 0.602261 0.102806
O O10 0.874780 0.613601 0.876390
O O11 0.615516 0.250000 0.729947
O O12 0.558026 0.103768 0.692455
O O13 0.750000 0.000000 0.124796
O O14 0.750000 0.852628 0.000000
O O15 0.000000 0.250000 0.312701
#
# Coordination Sequence:
#
# PCOD9501197 Si02
#       6
#    16   8  16  16  16   8
#     4  10  21  35  49  66  96 134 164 195 241 287
#     4   7  12  24  42  69 100 125 150 190 237 282
#     4   9  16  27  48  75 100 125 157 194 238 285
#     4   9  16  28  49  75  99 123 158 200 237 281
#     4  10  19  31  48  69  95 128 157 197 236 279
#     4   7  12  24  44  71  97 121 153 196 239 274
#
# _framework density 20.108222000000001
#
# number of rings (size 3 to 8) (size 9 to 14) (size 15 to 20)
#    0.000    3.000    2.000    2.400    0.000    1.600 
#    0.000    0.000    0.000   10.800    0.000    4.200 
#    0.000    0.000    0.000    0.000    0.000    0.000 
#
# Total GULP energy -222925.254783 kJ/mol
# GULP energy per Si atom -5573.131370 kJ/mol
# Density = 2.006245 g / cm^3
# Si number density = 20.108222 Si / 1000 Ang^3
#
#
#
# Elastic Constant Matrix: (Units=GPa)
#
#
# Indices 1 2 3 4 5 6 
#
# 1 246.0397 18.2817 66.3236 0.0000 0.0000 0.0000
# 2 18.2817 68.5674 4.2045 0.0000 0.0000 0.0000
# 3 66.3236 4.2045 125.1354 0.0000 0.0000 0.0000
# 4 0.0000 0.0000 0.0000 -4.3593 0.0000 0.0000
# 5 0.0000 0.0000 0.0000 0.0000 14.4893 0.0000
# 6 0.0000 0.0000 0.0000 0.0000 0.0000 28.8350
#
#
#
# Elastic Compliance Matrix: (Units=1/GPa)
#
#
# Indices 1 2 3 4 5 6 
#
# 1 0.004828 -0.001133 -0.002521 0.000000 0.000000 0.000000
# 2 -0.001133 0.014880 0.000100 0.000000 0.000000 0.000000
# 3 -0.002521 0.000100 0.009324 0.000000 0.000000 0.000000
# 4 0.000000 0.000000 0.000000 -0.229393 0.000000 0.000000
# 5 0.000000 0.000000 0.000000 0.000000 0.069017 0.000000
# 6 0.000000 0.000000 0.000000 0.000000 0.000000 0.034680
#
#
# Mechanical properties :
#
#
# Convention : Reuss Voigt Hill
#
# Bulk Modulus (GPa) = 45.60841 68.59579 57.10210
# Shear Modulus (GPa) = -60.79058 31.18851 -14.80104
#
# Velocity S-wave (km/s) = -5.50430 3.94259 -2.71600
# Velocity P-wave (km/s) = 4.20306 7.41031 4.31549
#
# Compressibility (1/GPa) = 0.02192578
#
# Stress axis : x y z
#
# Youngs Moduli (GPa) = 207.12102 67.20415 107.24913
#
# Poissons Ratio (x) = 0.07612 0.27036
# Poissons Ratio (y) = 0.23461 -0.01077
# Poissons Ratio (z) = 0.52213 -0.00675
#
# Static dielectric constant tensor:
#      x y z
#    x 1.775010 0.000000 0.000000 
#    y 0.000000 1.630790 0.000000 
#    z 0.000000 0.000000 1.732890 
# 
# From -- ./inp_files/21861.got.cif
#   From: 2010.05.17/outbox.cif.g08.bks.cpg/sg67_11_cif.got.tgz:21861.got - 2010.06.03 18:28:57.
