data_PCOD9501548
_publ_section_title
;
Structure prediction by ZEFSAII (Michael W. Deem and Ramdas Pophale) SiO2 
 PCOD9501548
Probable space group: C M M A
;
_chemical_formula_sum "Si O2"
_cell_formula_units_Z 80
_cell_length_a 19.092201
_cell_length_b 14.710902
_cell_length_c 12.719332
_cell_angle_alpha 90.000000
_cell_angle_beta 90.000000
_cell_angle_gamma 90.000000
_cell_volume 3572.396076
_symmetry_space_group_name_H-M "C M M A"
_symmetry_group_IT_number 67
_symmetry_cell_setting 'orthorhombic'
loop_
_space_group_symop_operation_xyz
x,y,z
-x,1/2-y,z
x,-y,-z
-x,1/2+y,-z
-x,-y,-z
x,1/2+y,-z
-x,y,z
x,1/2-y,z
1/2+x,1/2+y,z
1/2-x,-y,z
1/2+x,1/2-y,-z
1/2-x,y,-z
1/2-x,1/2-y,-z
1/2+x,y,-z
1/2-x,1/2+y,z
1/2+x,-y,z
loop_
_atom_site_type_symbol
_atom_site_label
_atom_site_fract_x
_atom_site_fract_y
_atom_site_fract_z
Si Si1 0.079314 0.138989 0.470445
Si Si2 0.176859 0.138722 0.662592
Si Si3 0.674187 0.604366 0.033428
Si Si4 0.922311 0.644437 0.151853
Si Si5 0.668068 0.359998 0.721969
O O1 0.079056 0.250000 0.472081
O O2 0.134830 0.110369 0.559021
O O3 0.106797 0.109871 0.356222
O O4 0.000000 0.109849 0.492914
O O5 0.178811 0.250000 0.661758
O O6 0.132915 0.106292 0.764122
O O7 0.257081 0.109877 0.674815
O O8 0.662925 0.612753 0.156980
O O9 0.676103 0.500000 0.000000
O O10 0.750000 0.644250 0.000000
O O11 0.611898 0.643376 0.962967
O O12 0.929346 0.750000 0.182454
O O13 0.000000 0.602972 0.154570
O O14 0.667978 0.250000 0.721384
#
# Coordination Sequence:
#
# PCOD9501548 Si02
#       5
#    16  16  16  16  16
#     4   9  17  29  48  80 118 146 173 219 278 334
#     4   9  16  29  51  80 112 142 177 221 271 329
#     4  11  23  38  55  77 109 149 193 234 279 331
#     4  10  20  34  56  84 110 142 185 232 282 332
#     4  10  19  32  55  82 110 146 187 229 277 330
#
# _framework density 22.393934000000002
#
# number of rings (size 3 to 8) (size 9 to 14) (size 15 to 20)
#    0.000    2.200    2.000    1.800    0.000    6.800 
#    0.000    2.000    0.000    1.200    0.000    2.800 
#    0.000    0.000    0.000    0.000    0.000    0.000 
#
# Total GULP energy -223535.325896 kJ/mol
# GULP energy per Si atom -5588.383147 kJ/mol
# Density = 2.234296 g / cm^3
# Si number density = 22.393934 Si / 1000 Ang^3
#
#
#
# Elastic Constant Matrix: (Units=GPa)
#
#
# Indices 1 2 3 4 5 6 
#
# 1 36.0028 -12.1741 -1.8692 0.0000 0.0000 0.0000
# 2 -12.1741 52.2337 -8.6339 0.0000 0.0000 0.0000
# 3 -1.8692 -8.6339 124.6456 0.0000 0.0000 0.0000
# 4 0.0000 0.0000 0.0000 10.8126 0.0000 0.0000
# 5 0.0000 0.0000 0.0000 0.0000 62.6323 0.0000
# 6 0.0000 0.0000 0.0000 0.0000 0.0000 -4.4939
#
#
#
# Elastic Compliance Matrix: (Units=1/GPa)
#
#
# Indices 1 2 3 4 5 6 
#
# 1 0.030264 0.007211 0.000953 0.000000 0.000000 0.000000
# 2 0.007211 0.021085 0.001569 0.000000 0.000000 0.000000
# 3 0.000953 0.001569 0.008146 0.000000 0.000000 0.000000
# 4 0.000000 0.000000 0.000000 0.092484 0.000000 0.000000
# 5 0.000000 0.000000 0.000000 0.000000 0.015966 0.000000
# 6 0.000000 0.000000 0.000000 0.000000 0.000000 -0.222521
#
#
# Mechanical properties :
#
#
# Convention : Reuss Voigt Hill
#
# Bulk Modulus (GPa) = 12.66465 18.61420 15.63942
# Shear Modulus (GPa) = -104.77145 29.49414 -37.63865
#
# Velocity S-wave (km/s) = -6.84742 3.63307 -4.10415
# Velocity P-wave (km/s) = 7.53980 5.09206 3.93189
#
# Compressibility (1/GPa) = 0.07895995
#
# Stress axis : x y z
#
# Youngs Moduli (GPa) = 33.04310 47.42774 122.76421
#
# Poissons Ratio (x) = -0.34201 -0.11703
# Poissons Ratio (y) = -0.23828 -0.19257
# Poissons Ratio (z) = -0.03150 -0.07440
#
# Static dielectric constant tensor:
#      x y z
#    x 1.819780 0.000000 0.000000 
#    y 0.000000 1.814930 0.000000 
#    z 0.000000 0.000000 1.778570 
# 
# From -- ./inp_files/17927.got.cif
#   From: 2010.05.17/outbox.cif.g08.bks.cpg/sg67_9_cif.got.tgz:17927.got - 2010.06.03 18:28:57.
