data_PCOD9501595
_publ_section_title
;
Structure prediction by ZEFSAII (Michael W. Deem and Ramdas Pophale) SiO2 
 PCOD9501595
Probable space group: C M M A
;
_chemical_formula_sum "Si O2"
_cell_formula_units_Z 96
_cell_length_a 14.904758
_cell_length_b 18.298026
_cell_length_c 17.184512
_cell_angle_alpha 90.000000
_cell_angle_beta 90.000000
_cell_angle_gamma 90.000000
_cell_volume 4686.691564
_symmetry_space_group_name_H-M "C M M A"
_symmetry_group_IT_number 67
_symmetry_cell_setting 'orthorhombic'
loop_
_space_group_symop_operation_xyz
x,y,z
-x,1/2-y,z
x,-y,-z
-x,1/2+y,-z
-x,-y,-z
x,1/2+y,-z
-x,y,z
x,1/2-y,z
1/2+x,1/2+y,z
1/2-x,-y,z
1/2+x,1/2-y,-z
1/2-x,y,-z
1/2-x,1/2-y,-z
1/2+x,y,-z
1/2-x,1/2+y,z
1/2+x,-y,z
loop_
_atom_site_type_symbol
_atom_site_label
_atom_site_fract_x
_atom_site_fract_y
_atom_site_fract_z
Si Si1 0.608928 0.666318 0.348294
Si Si2 0.601738 0.113685 0.326644
Si Si3 0.391346 0.169193 0.161898
Si Si4 0.354510 0.020023 0.083685
Si Si5 0.609674 0.584685 0.506610
Si Si6 0.148324 0.469757 0.248293
O O1 0.500000 0.665831 0.345122
O O2 0.639091 0.750000 0.340334
O O3 0.634608 0.631294 0.431408
O O4 0.642262 0.610681 0.282352
O O5 0.500000 0.141944 0.332908
O O6 0.641241 0.151530 0.249854
O O7 0.643545 0.118376 0.411855
O O8 0.599514 0.027516 0.304871
O O9 0.500000 0.166559 0.164335
O O10 0.362923 0.250000 0.138605
O O11 0.362231 0.105195 0.104601
O O12 0.250000 0.000000 0.079861
O O13 0.389501 0.978846 0.161014
O O14 0.394474 0.000000 0.000000
O O15 0.637996 0.500000 0.500000
O O16 0.500000 0.584001 0.510718
O O17 0.250000 0.500000 0.247344
#
# Coordination Sequence:
#
# PCOD9501595 Si02
#       6
#    16  16  16  16  16  16
#     4  10  20  34  53  78 108 139 174 217 258 300
#     4   9  16  29  51  73  97 135 181 217 249 297
#     4   9  18  32  52  80 110 135 165 216 271 305
#     4   9  19  37  57  78 101 133 178 212 248 312
#     4   9  15  26  48  76 102 136 180 219 251 291
#     4  10  19  33  52  75 101 135 173 207 257 312
#
# _framework density 20.483532
#
# number of rings (size 3 to 8) (size 9 to 14) (size 15 to 20)
#    0.000    2.667    1.667    0.500    0.000    1.667 
#    0.000   15.000    0.000    3.000    0.000    0.000 
#    0.000    0.000    0.000    0.000    0.000    0.000 
#
# Total GULP energy -267778.086531 kJ/mol
# GULP energy per Si atom -5578.710136 kJ/mol
# Density = 2.043691 g / cm^3
# Si number density = 20.483532 Si / 1000 Ang^3
#
#
#
# Elastic Constant Matrix: (Units=GPa)
#
#
# Indices 1 2 3 4 5 6 
#
# 1 55.5827 14.0330 8.6536 0.0000 0.0000 0.0000
# 2 14.0330 185.7762 94.7904 0.0000 0.0000 0.0000
# 3 8.6536 94.7904 172.1599 0.0000 0.0000 0.0000
# 4 0.0000 0.0000 0.0000 8.2335 0.0000 0.0000
# 5 0.0000 0.0000 0.0000 0.0000 4.2024 0.0000
# 6 0.0000 0.0000 0.0000 0.0000 0.0000 -5.9803
#
#
#
# Elastic Compliance Matrix: (Units=1/GPa)
#
#
# Indices 1 2 3 4 5 6 
#
# 1 0.018347 -0.001273 -0.000221 0.000000 0.000000 0.000000
# 2 -0.001273 0.007574 -0.004106 0.000000 0.000000 0.000000
# 3 -0.000221 -0.004106 0.008081 0.000000 0.000000 0.000000
# 4 0.000000 0.000000 0.000000 0.121455 0.000000 0.000000
# 5 0.000000 0.000000 0.000000 0.000000 0.237962 0.000000
# 6 0.000000 0.000000 0.000000 0.000000 0.000000 -0.167216
#
#
# Mechanical properties :
#
#
# Convention : Reuss Voigt Hill
#
# Bulk Modulus (GPa) = 43.85845 72.05253 57.95549
# Shear Modulus (GPa) = 20.40778 21.02723 20.71750
#
# Velocity S-wave (km/s) = 3.15985 3.20745 3.18374
# Velocity P-wave (km/s) = 5.89669 6.99780 6.47071
#
# Compressibility (1/GPa) = 0.02280063
#
# Stress axis : x y z
#
# Youngs Moduli (GPa) = 54.50465 132.02741 123.75321
#
# Poissons Ratio (x) = 0.16806 0.02739
# Poissons Ratio (y) = 0.06938 0.50817
# Poissons Ratio (z) = 0.01206 0.54215
#
# Static dielectric constant tensor:
#      x y z
#    x 1.832630 0.000000 0.000000 
#    y 0.000000 1.705900 0.000000 
#    z 0.000000 0.000000 1.758930 
# 
# From -- ./inp_files/34214.got.cif
#   From: 2010.05.17/outbox.cif.g08.bks.cpg/sg67_18_cif.got.tgz:34214.got - 2010.06.03 18:28:57.
