data_PCOD9501370
_publ_section_title
;
Structure prediction by ZEFSAII (Michael W. Deem and Ramdas Pophale) SiO2 
 PCOD9501370
Probable space group: C M M A
;
_chemical_formula_sum "Si O2"
_cell_formula_units_Z 88
_cell_length_a 31.440714
_cell_length_b 8.827894
_cell_length_c 17.819147
_cell_angle_alpha 90.000000
_cell_angle_beta 90.000000
_cell_angle_gamma 90.000000
_cell_volume 4945.798522
_symmetry_space_group_name_H-M "C M M A"
_symmetry_group_IT_number 67
_symmetry_cell_setting 'orthorhombic'
loop_
_space_group_symop_operation_xyz
x,y,z
-x,1/2-y,z
x,-y,-z
-x,1/2+y,-z
-x,-y,-z
x,1/2+y,-z
-x,y,z
x,1/2-y,z
1/2+x,1/2+y,z
1/2-x,-y,z
1/2+x,1/2-y,-z
1/2-x,y,-z
1/2-x,1/2-y,-z
1/2+x,y,-z
1/2-x,1/2+y,z
1/2+x,-y,z
loop_
_atom_site_type_symbol
_atom_site_label
_atom_site_fract_x
_atom_site_fract_y
_atom_site_fract_z
Si Si1 0.205379 0.932002 0.239054
Si Si2 0.411416 0.929203 0.153379
Si Si3 0.000000 0.068766 0.081259
Si Si4 0.677348 0.428479 0.920039
Si Si5 0.382853 0.428986 0.306277
Si Si6 0.548042 0.931427 0.416788
O O1 0.206650 0.750000 0.235347
O O2 0.166557 0.976343 0.294617
O O3 0.250000 0.000000 0.264614
O O4 0.196744 0.994803 0.154640
O O5 0.412015 0.750000 0.174825
O O6 0.456917 0.974699 0.122513
O O7 0.373546 0.945561 0.093131
O O8 0.401259 0.030127 0.224827
O O9 0.000000 0.250000 0.075993
O O10 0.000000 0.000000 0.000000
O O11 0.687676 0.250000 0.919589
O O12 0.689638 0.500000 0.000000
O O13 0.383849 0.250000 0.320519
O O14 0.413351 0.509464 0.365971
O O15 0.500000 0.972233 0.388313
O O16 0.549931 0.750000 0.420476
O O17 0.551672 0.000000 0.500000
#
# Coordination Sequence:
#
# PCOD9501370 Si02
#       6
#    16  16   8  16  16  16
#     4  10  21  37  56  79 106 138 179 226 275 328
#     4   9  19  33  48  69  99 137 179 222 268 319
#     4  10  20  32  46  66  95 132 177 224 268 314
#     4  10  19  32  50  71  99 135 176 226 280 331
#     4  10  21  36  56  82 111 142 178 220 267 319
#     4  10  21  37  59  87 119 152 183 217 258 309
#
# _framework density 17.792881000000001
#
# number of rings (size 3 to 8) (size 9 to 14) (size 15 to 20)
#    0.000    2.182    0.000    2.727    1.273    5.091 
#    0.000    1.818    0.000    0.545    0.000    3.818 
#    0.000    0.000    0.000    0.000    0.000    0.000 
#
# Total GULP energy -245448.148952 kJ/mol
# GULP energy per Si atom -5578.367022 kJ/mol
# Density = 1.775238 g / cm^3
# Si number density = 17.792881 Si / 1000 Ang^3
#
#
#
# Elastic Constant Matrix: (Units=GPa)
#
#
# Indices 1 2 3 4 5 6 
#
# 1 157.3387 51.4546 53.3350 0.0000 0.0000 0.0000
# 2 51.4546 58.3027 35.1357 0.0000 0.0000 0.0000
# 3 53.3350 35.1357 66.3027 0.0000 0.0000 0.0000
# 4 0.0000 0.0000 0.0000 33.8027 0.0000 0.0000
# 5 0.0000 0.0000 0.0000 0.0000 13.2323 0.0000
# 6 0.0000 0.0000 0.0000 0.0000 0.0000 26.1134
#
#
#
# Elastic Compliance Matrix: (Units=1/GPa)
#
#
# Indices 1 2 3 4 5 6 
#
# 1 0.009913 -0.005793 -0.004904 0.000000 0.000000 0.000000
# 2 -0.005793 0.028585 -0.010488 0.000000 0.000000 0.000000
# 3 -0.004904 -0.010488 0.024585 0.000000 0.000000 0.000000
# 4 0.000000 0.000000 0.000000 0.029583 0.000000 0.000000
# 5 0.000000 0.000000 0.000000 0.000000 0.075573 0.000000
# 6 0.000000 0.000000 0.000000 0.000000 0.000000 0.038295
#
#
# Mechanical properties :
#
#
# Convention : Reuss Voigt Hill
#
# Bulk Modulus (GPa) = 48.27963 62.42163 55.35063
# Shear Modulus (GPa) = 19.54595 24.09759 21.82177
#
# Velocity S-wave (km/s) = 3.31800 3.68413 3.50585
# Velocity P-wave (km/s) = 6.47086 7.29764 6.89665
#
# Compressibility (1/GPa) = 0.02071267
#
# Stress axis : x y z
#
# Youngs Moduli (GPa) = 100.88244 34.98359 40.67497
#
# Poissons Ratio (x) = 0.20265 0.19947
# Poissons Ratio (y) = 0.58440 0.42660
# Poissons Ratio (z) = 0.49473 0.36691
#
# Static dielectric constant tensor:
#      x y z
#    x 1.649290 0.000000 0.000000 
#    y 0.000000 1.601360 0.000000 
#    z 0.000000 0.000000 1.564250 
# 
# From -- ./inp_files/32379.got.cif
#   From: 2010.05.17/outbox.cif.g08.bks.cpg/sg67_17_cif.got.tgz:32379.got - 2010.06.03 18:28:57.
