data_PCOD9501538
_publ_section_title
;
Structure prediction by ZEFSAII (Michael W. Deem and Ramdas Pophale) SiO2 
 PCOD9501538
Probable space group: C M M A
;
_chemical_formula_sum "Si O2"
_cell_formula_units_Z 96
_cell_length_a 14.652208
_cell_length_b 10.961070
_cell_length_c 28.010624
_cell_angle_alpha 90.000000
_cell_angle_beta 90.000000
_cell_angle_gamma 90.000000
_cell_volume 4498.614827
_symmetry_space_group_name_H-M "C M M A"
_symmetry_group_IT_number 67
_symmetry_cell_setting 'orthorhombic'
loop_
_space_group_symop_operation_xyz
x,y,z
-x,1/2-y,z
x,-y,-z
-x,1/2+y,-z
-x,-y,-z
x,1/2+y,-z
-x,y,z
x,1/2-y,z
1/2+x,1/2+y,z
1/2-x,-y,z
1/2+x,1/2-y,-z
1/2-x,y,-z
1/2-x,1/2-y,-z
1/2+x,y,-z
1/2-x,1/2+y,z
1/2+x,-y,z
loop_
_atom_site_type_symbol
_atom_site_label
_atom_site_fract_x
_atom_site_fract_y
_atom_site_fract_z
Si Si1 0.651762 0.615380 0.690433
Si Si2 0.351796 0.882508 0.357482
Si Si3 0.610582 0.386585 0.532786
Si Si4 0.107876 0.611649 0.203140
Si Si5 0.861912 0.750000 0.053955
Si Si6 0.858350 0.998415 0.104141
Si Si7 0.639126 0.250000 0.942834
O O1 0.609531 0.750000 0.685220
O O2 0.603730 0.501673 0.665399
O O3 0.751153 0.622667 0.665881
O O4 0.657842 0.590162 0.746882
O O5 0.394725 0.750000 0.348169
O O6 0.348239 0.897462 0.414378
O O7 0.638286 0.500000 0.500000
O O8 0.500000 0.391824 0.537877
O O9 0.632578 0.250000 0.513891
O O10 0.131934 0.750000 0.186764
O O11 0.126716 0.519075 0.160479
O O12 0.000000 0.609549 0.213499
O O13 0.893900 0.875243 0.078785
O O14 0.750721 0.750000 0.057734
O O15 0.886672 0.750000 0.998355
O O16 0.750000 0.000000 0.095628
O O17 0.892354 0.126029 0.082959
#
# Coordination Sequence:
#
# PCOD9501538 Si02
#       7
#    16  16  16  16   8  16   8
#     4   9  19  35  54  76 100 141 189 232 275 324
#     4   9  18  34  54  80 111 144 176 232 280 325
#     4   9  18  33  54  81 115 153 187 219 266 328
#     4  10  21  38  58  78 108 148 191 233 279 342
#     4   9  16  32  53  79 115 149 183 219 277 333
#     4  10  19  32  54  84 109 145 183 229 283 330
#     4   9  18  30  51  85 115 141 181 233 271 331
#
# _framework density 21.339901999999999
#
# number of rings (size 3 to 8) (size 9 to 14) (size 15 to 20)
#    0.000    2.667    0.833    0.500    2.333    3.333 
#    1.500    2.083    0.000   12.000    0.000    0.000 
#    0.000    0.000    0.000    0.000    0.000    0.000 
#
# Total GULP energy -267790.969681 kJ/mol
# GULP energy per Si atom -5578.978535 kJ/mol
# Density = 2.129133 g / cm^3
# Si number density = 21.339902 Si / 1000 Ang^3
#
#
#
# Elastic Constant Matrix: (Units=GPa)
#
#
# Indices 1 2 3 4 5 6 
#
# 1 76.6426 21.4131 19.8982 0.0000 0.0000 0.0000
# 2 21.4131 230.9352 118.7721 0.0000 0.0000 0.0000
# 3 19.8982 118.7721 147.6107 0.0000 0.0000 0.0000
# 4 0.0000 0.0000 0.0000 36.2204 0.0000 0.0000
# 5 0.0000 0.0000 0.0000 0.0000 108.3858 0.0000
# 6 0.0000 0.0000 0.0000 0.0000 0.0000 -9.4391
#
#
#
# Elastic Compliance Matrix: (Units=1/GPa)
#
#
# Indices 1 2 3 4 5 6 
#
# 1 0.013560 -0.000541 -0.001393 0.000000 0.000000 0.000000
# 2 -0.000541 0.007409 -0.005888 0.000000 0.000000 0.000000
# 3 -0.001393 -0.005888 0.011700 0.000000 0.000000 0.000000
# 4 0.000000 0.000000 0.000000 0.027609 0.000000 0.000000
# 5 0.000000 0.000000 0.000000 0.000000 0.009226 0.000000
# 6 0.000000 0.000000 0.000000 0.000000 0.000000 -0.105943
#
#
# Mechanical properties :
#
#
# Convention : Reuss Voigt Hill
#
# Bulk Modulus (GPa) = 58.73644 86.15062 72.44353
# Shear Modulus (GPa) = -330.71455 46.70711 -142.00372
#
# Velocity S-wave (km/s) = -12.46239 4.68345 -8.16629
# Velocity P-wave (km/s) = 13.39767 8.34893 7.40922
#
# Compressibility (1/GPa) = 0.01702520
#
# Stress axis : x y z
#
# Youngs Moduli (GPa) = 73.74472 134.97292 85.46766
#
# Poissons Ratio (x) = 0.07304 0.11901
# Poissons Ratio (y) = 0.03991 0.50327
# Poissons Ratio (z) = 0.10269 0.79478
#
# Static dielectric constant tensor:
#      x y z
#    x 1.781680 0.000000 0.000000 
#    y 0.000000 1.836240 0.000000 
#    z 0.000000 0.000000 1.721260 
# 
# From -- ./inp_files/42174.got.cif
#   From: 2010.05.17/outbox.cif.g08.bks.cpg/sg67_22_cif.got.tgz:42174.got - 2010.06.03 18:28:57.
