data_PCOD9501270
_publ_section_title
;
Structure prediction by ZEFSAII (Michael W. Deem and Ramdas Pophale) SiO2 
 PCOD9501270
Probable space group: C M M A
;
_chemical_formula_sum "Si O2"
_cell_formula_units_Z 116
_cell_length_a 31.592836
_cell_length_b 15.457492
_cell_length_c 13.009249
_cell_angle_alpha 90.000000
_cell_angle_beta 90.000000
_cell_angle_gamma 90.000000
_cell_volume 6353.014839
_symmetry_space_group_name_H-M "C M M A"
_symmetry_group_IT_number 67
_symmetry_cell_setting 'orthorhombic'
loop_
_space_group_symop_operation_xyz
x,y,z
-x,1/2-y,z
x,-y,-z
-x,1/2+y,-z
-x,-y,-z
x,1/2+y,-z
-x,y,z
x,1/2-y,z
1/2+x,1/2+y,z
1/2-x,-y,z
1/2+x,1/2-y,-z
1/2-x,y,-z
1/2-x,1/2-y,-z
1/2+x,y,-z
1/2-x,1/2+y,z
1/2+x,-y,z
loop_
_atom_site_type_symbol
_atom_site_label
_atom_site_fract_x
_atom_site_fract_y
_atom_site_fract_z
Si Si1 0.670231 0.646317 0.769562
Si Si2 0.000000 0.250000 0.148722
Si Si3 0.085990 0.649840 0.109209
Si Si4 0.843392 0.352339 0.227597
Si Si5 0.048397 0.044984 0.728375
Si Si6 0.571096 0.105776 0.885791
Si Si7 0.756514 0.354955 0.116315
Si Si8 0.133613 0.993773 0.379631
O O1 0.668766 0.750000 0.747343
O O2 0.633747 0.629027 0.854829
O O3 0.715728 0.623346 0.815586
O O4 0.658455 0.585516 0.674219
O O5 0.036768 0.324143 0.145326
O O6 0.083968 0.750000 0.079310
O O7 0.057959 0.633614 0.210730
O O8 0.071442 0.598964 0.008684
O O9 0.840561 0.250000 0.255911
O O10 0.882250 0.364532 0.149090
O O11 0.800164 0.380238 0.170867
O O12 0.853378 0.417547 0.321298
O O13 0.000000 0.038385 0.694522
O O14 0.058974 0.977449 0.819388
O O15 0.083942 0.026119 0.643383
O O16 0.757902 0.250000 0.110460
O O17 0.750000 0.387154 0.000000
O O18 0.141538 0.000000 0.500000
#
# Coordination Sequence:
#
# PCOD9501270 Si02
#       8
#    16   4  16  16  16  16  16  16
#     4   9  19  37  57  80 109 143 178 217 262 315
#     4  12  20  28  50  76 106 154 180 204 248 324
#     4  10  19  31  50  76 111 147 174 205 254 319
#     4  10  20  36  56  82 111 141 176 222 264 313
#     4  10  22  35  52  75 102 135 178 226 268 316
#     4  11  20  32  49  77 113 145 177 207 257 316
#     4   9  17  32  59  88 117 148 177 205 251 313
#     4  10  23  41  58  76 101 137 182 232 281 318
#
# _framework density 18.259046999999999
#
# number of rings (size 3 to 8) (size 9 to 14) (size 15 to 20)
#    0.000    2.069    2.069    1.241    0.966    4.414 
#    0.000    4.138    0.000    2.483    0.000    3.862 
#    0.000    0.000    0.000    0.000    0.000    0.000 
#
# Total GULP energy -322993.369881 kJ/mol
# GULP energy per Si atom -5568.851205 kJ/mol
# Density = 1.821749 g / cm^3
# Si number density = 18.259047 Si / 1000 Ang^3
#
#
#
# Elastic Constant Matrix: (Units=GPa)
#
#
# Indices 1 2 3 4 5 6 
#
# 1 137.7309 21.1042 25.5641 0.0000 0.0000 0.0000
# 2 21.1042 45.4643 23.6254 0.0000 0.0000 0.0000
# 3 25.5641 23.6254 83.1391 0.0000 0.0000 0.0000
# 4 0.0000 0.0000 0.0000 15.2107 0.0000 0.0000
# 5 0.0000 0.0000 0.0000 0.0000 -112.6209 0.0000
# 6 0.0000 0.0000 0.0000 0.0000 0.0000 19.9725
#
#
#
# Elastic Compliance Matrix: (Units=1/GPa)
#
#
# Indices 1 2 3 4 5 6 
#
# 1 0.008005 -0.002859 -0.001649 0.000000 0.000000 0.000000
# 2 -0.002859 0.026827 -0.006744 0.000000 0.000000 0.000000
# 3 -0.001649 -0.006744 0.014452 0.000000 0.000000 0.000000
# 4 0.000000 0.000000 0.000000 0.065743 0.000000 0.000000
# 5 0.000000 0.000000 0.000000 0.000000 -0.008879 0.000000
# 6 0.000000 0.000000 0.000000 0.000000 0.000000 0.050069
#
#
# Mechanical properties :
#
#
# Convention : Reuss Voigt Hill
#
# Bulk Modulus (GPa) = 37.34260 45.21353 41.27806
# Shear Modulus (GPa) = 26.64585 -2.41817 12.11384
#
# Velocity S-wave (km/s) = 3.82425 -1.15206 2.57853
# Velocity P-wave (km/s) = 6.32423 4.80066 5.61437
#
# Compressibility (1/GPa) = 0.02677907
#
# Stress axis : x y z
#
# Youngs Moduli (GPa) = 124.92746 37.27593 69.19666
#
# Poissons Ratio (x) = 0.10657 0.11410
# Poissons Ratio (y) = 0.35715 0.46668
# Poissons Ratio (z) = 0.20600 0.25140
#
# Static dielectric constant tensor:
#      x y z
#    x 1.628960 0.000000 0.000000 
#    y 0.000000 1.790040 0.000000 
#    z 0.000000 0.000000 1.569680 
# 
# From -- ./inp_files/23949.got.cif
#   From: 2010.05.17/outbox.cif.g08.bks.cpg/sg67_12_cif.got.tgz:23949.got - 2010.06.03 18:28:57.
