data_PCOD9501687
_publ_section_title
;
Structure prediction by ZEFSAII (Michael W. Deem and Ramdas Pophale) SiO2 
 PCOD9501687
Probable space group: C M M A
;
_chemical_formula_sum "Si O2"
_cell_formula_units_Z 112
_cell_length_a 27.939890
_cell_length_b 13.818756
_cell_length_c 13.996050
_cell_angle_alpha 90.000000
_cell_angle_beta 90.000000
_cell_angle_gamma 90.000000
_cell_volume 5403.798243
_symmetry_space_group_name_H-M "C M M A"
_symmetry_group_IT_number 67
_symmetry_cell_setting 'orthorhombic'
loop_
_space_group_symop_operation_xyz
x,y,z
-x,1/2-y,z
x,-y,-z
-x,1/2+y,-z
-x,-y,-z
x,1/2+y,-z
-x,y,z
x,1/2-y,z
1/2+x,1/2+y,z
1/2-x,-y,z
1/2+x,1/2-y,-z
1/2-x,y,-z
1/2-x,1/2-y,-z
1/2+x,y,-z
1/2-x,1/2+y,z
1/2+x,-y,z
loop_
_atom_site_type_symbol
_atom_site_label
_atom_site_fract_x
_atom_site_fract_y
_atom_site_fract_z
Si Si1 0.304177 0.981889 0.359268
Si Si2 0.611907 0.365966 0.561391
Si Si3 0.614143 0.634339 0.646721
Si Si4 0.195823 0.481889 0.140732
Si Si5 0.611907 0.134034 0.938609
Si Si6 0.885857 0.134339 0.853279
Si Si7 0.054844 0.131593 0.250000
O O1 0.335453 0.910506 0.424002
O O2 0.250000 0.000000 0.388998
O O3 0.334916 0.080383 0.355050
O O4 0.303064 0.942753 0.250000
O O5 0.614291 0.250000 0.566344
O O6 0.591744 0.391804 0.456336
O O7 0.581746 0.399586 0.653334
O O8 0.619860 0.750000 0.645704
O O9 0.591084 0.609623 0.750000
O O10 0.250000 0.500000 0.111002
O O11 0.164547 0.410506 0.075998
O O12 0.165084 0.580383 0.144950
O O13 0.614291 0.250000 0.933656
O O14 0.581746 0.100414 0.846666
O O15 0.591744 0.108196 0.043664
O O16 0.880140 0.250000 0.854296
O O17 0.055255 0.250000 0.250000
O O18 0.000000 0.100420 0.250000
#
# Coordination Sequence:
#
# PCOD9501687 Si02
#       7
#    16  16  16  16  16  16  16
#     4  10  20  33  51  77 110 146 181 219 262 314
#     4  10  19  33  55  80 107 139 176 223 270 315
#     4   9  19  34  50  72 103 145 185 213 251 308
#     4  10  20  33  51  77 110 146 181 219 262 314
#     4  10  19  33  55  80 107 139 176 223 270 315
#     4   9  19  34  50  72 103 145 185 213 251 308
#     4   9  18  34  57  84 107 129 168 223 282 328
#
# _framework density 20.726163
#
# number of rings (size 3 to 8) (size 9 to 14) (size 15 to 20)
#    0.000    2.429    1.429    0.857    0.000    3.429 
#    0.000    5.714    0.000    4.286    0.000    6.000 
#    0.000    0.000    0.000    0.000    0.000    0.000 
#
# Total GULP energy -312168.357941 kJ/mol
# GULP energy per Si atom -5574.434963 kJ/mol
# Density = 2.067899 g / cm^3
# Si number density = 20.726163 Si / 1000 Ang^3
#
#
#
# Elastic Constant Matrix: (Units=GPa)
#
#
# Indices 1 2 3 4 5 6 
#
# 1 67.5335 0.6388 54.0180 0.0000 0.0000 0.0000
# 2 0.6388 56.2518 35.5898 0.0000 0.0000 0.0000
# 3 54.0180 35.5898 245.2916 0.0000 0.0000 0.0000
# 4 0.0000 0.0000 0.0000 32.5575 0.0000 0.0000
# 5 0.0000 0.0000 0.0000 0.0000 -0.5065 0.0000
# 6 0.0000 0.0000 0.0000 0.0000 0.0000 11.1907
#
#
#
# Elastic Compliance Matrix: (Units=1/GPa)
#
#
# Indices 1 2 3 4 5 6 
#
# 1 0.018307 0.002580 -0.004406 0.000000 0.000000 0.000000
# 2 0.002580 0.019938 -0.003461 0.000000 0.000000 0.000000
# 3 -0.004406 -0.003461 0.005549 0.000000 0.000000 0.000000
# 4 0.000000 0.000000 0.000000 0.030715 0.000000 0.000000
# 5 0.000000 0.000000 0.000000 0.000000 -1.974229 0.000000
# 6 0.000000 0.000000 0.000000 0.000000 0.000000 0.089360
#
#
# Mechanical properties :
#
#
# Convention : Reuss Voigt Hill
#
# Bulk Modulus (GPa) = 30.10256 61.06335 45.58295
# Shear Modulus (GPa) = -2.79531 27.23702 12.22086
#
# Velocity S-wave (km/s) = -1.16259 3.62904 2.43087
# Velocity P-wave (km/s) = 3.57118 6.86191 5.46988
#
# Compressibility (1/GPa) = 0.03321976
#
# Stress axis : x y z
#
# Youngs Moduli (GPa) = 54.62329 50.15656 180.20643
#
# Poissons Ratio (x) = -0.12939 0.79397
# Poissons Ratio (y) = -0.14091 0.62367
# Poissons Ratio (z) = 0.24066 0.17359
#
# Static dielectric constant tensor:
#      x y z
#    x 1.672070 0.000000 0.000000 
#    y 0.000000 1.741640 0.000000 
#    z 0.000000 0.000000 1.869660 
# 
# From -- ./inp_files/30171.got.cif
#   From: 2010.05.17/outbox.cif.g08.bks.cpg/sg67_16_cif.got.tgz:30171.got - 2010.06.03 18:28:57.
