data_PCOD9501086
_publ_section_title
;
Structure prediction by ZEFSAII (Michael W. Deem and Ramdas Pophale) SiO2 
 PCOD9501086
Probable space group: C M M A
;
_chemical_formula_sum "Si O2"
_cell_formula_units_Z 96
_cell_length_a 16.459009
_cell_length_b 22.114974
_cell_length_c 13.983407
_cell_angle_alpha 90.000000
_cell_angle_beta 90.000000
_cell_angle_gamma 90.000000
_cell_volume 5089.828090
_symmetry_space_group_name_H-M "C M M A"
_symmetry_group_IT_number 67
_symmetry_cell_setting 'orthorhombic'
loop_
_space_group_symop_operation_xyz
x,y,z
-x,1/2-y,z
x,-y,-z
-x,1/2+y,-z
-x,-y,-z
x,1/2+y,-z
-x,y,z
x,1/2-y,z
1/2+x,1/2+y,z
1/2-x,-y,z
1/2+x,1/2-y,-z
1/2-x,y,-z
1/2-x,1/2-y,-z
1/2+x,y,-z
1/2-x,1/2+y,z
1/2+x,-y,z
loop_
_atom_site_type_symbol
_atom_site_label
_atom_site_fract_x
_atom_site_fract_y
_atom_site_fract_z
Si Si1 0.591971 0.983543 0.705280
Si Si2 0.150676 0.642996 0.321263
Si Si3 0.596443 0.314885 0.518724
Si Si4 0.598560 0.182959 0.114938
Si Si5 0.901283 0.951537 0.077201
Si Si6 0.800020 0.920395 0.599007
O O1 0.500000 0.008314 0.700434
O O2 0.591664 0.914863 0.668210
O O3 0.617645 0.975567 0.816127
O O4 0.655545 0.022194 0.644434
O O5 0.137024 0.682751 0.414345
O O6 0.130882 0.676068 0.223193
O O7 0.238611 0.611738 0.327459
O O8 0.500000 0.318959 0.508409
O O9 0.616538 0.250000 0.564382
O O10 0.631710 0.371310 0.574608
O O11 0.500000 0.181853 0.117901
O O12 0.622148 0.250000 0.077211
O O13 0.624359 0.119031 0.066092
O O14 0.000000 0.950763 0.071787
O O15 0.871014 0.000000 0.000000
O O16 0.750000 0.931209 0.500000
#
# Coordination Sequence:
#
# PCOD9501086 Si02
#       6
#    16  16  16  16  16  16
#     4  10  19  33  52  72  97 130 168 208 255 304
#     4  10  19  30  46  69  97 127 161 204 251 298
#     4  10  20  33  48  66  91 126 169 210 246 292
#     4   9  16  27  47  75 103 129 159 199 248 302
#     4   8  15  29  51  78 103 127 161 209 260 307
#     4  10  22  34  47  68  98 132 167 206 249 300
#
# _framework density 18.861148
#
# number of rings (size 3 to 8) (size 9 to 14) (size 15 to 20)
#    0.000    2.500    0.000    4.000    0.000    9.667 
#    0.000    4.167    0.000    9.000    0.000    5.833 
#    0.000    0.000    0.000    0.000    0.000    0.000 
#
# Total GULP energy -267508.349628 kJ/mol
# GULP energy per Si atom -5573.090617 kJ/mol
# Density = 1.881822 g / cm^3
# Si number density = 18.861148 Si / 1000 Ang^3
#
#
#
# Elastic Constant Matrix: (Units=GPa)
#
#
# Indices 1 2 3 4 5 6 
#
# 1 45.5357 25.7962 7.3482 0.0000 0.0000 0.0000
# 2 25.7962 155.4434 46.5843 0.0000 0.0000 0.0000
# 3 7.3482 46.5843 39.0439 0.0000 0.0000 0.0000
# 4 0.0000 0.0000 0.0000 24.2602 0.0000 0.0000
# 5 0.0000 0.0000 0.0000 0.0000 7.9831 0.0000
# 6 0.0000 0.0000 0.0000 0.0000 0.0000 10.7779
#
#
#
# Elastic Compliance Matrix: (Units=1/GPa)
#
#
# Indices 1 2 3 4 5 6 
#
# 1 0.024243 -0.004134 0.000370 0.000000 0.000000 0.000000
# 2 -0.004134 0.010719 -0.012011 0.000000 0.000000 0.000000
# 3 0.000370 -0.012011 0.039873 0.000000 0.000000 0.000000
# 4 0.000000 0.000000 0.000000 0.041220 0.000000 0.000000
# 5 0.000000 0.000000 0.000000 0.000000 0.125265 0.000000
# 6 0.000000 0.000000 0.000000 0.000000 0.000000 0.092783
#
#
# Mechanical properties :
#
#
# Convention : Reuss Voigt Hill
#
# Bulk Modulus (GPa) = 23.10281 44.38670 33.74475
# Shear Modulus (GPa) = 13.15510 19.29052 16.22281
#
# Velocity S-wave (km/s) = 2.64383 3.20154 2.93596
# Velocity P-wave (km/s) = 4.64707 6.10336 5.42431
#
# Compressibility (1/GPa) = 0.04328478
#
# Stress axis : x y z
#
# Youngs Moduli (GPa) = 41.24898 93.29463 25.07961
#
# Poissons Ratio (x) = 0.38568 -0.00927
# Poissons Ratio (y) = 0.17052 0.30123
# Poissons Ratio (z) = -0.01525 1.12054
#
# Static dielectric constant tensor:
#      x y z
#    x 1.654650 0.000000 0.000000 
#    y 0.000000 1.711320 0.000000 
#    z 0.000000 0.000000 1.646610 
# 
# From -- ./inp_files/27196.got.cif
#   From: 2010.05.17/outbox.cif.g08.bks.cpg/sg67_14_cif.got.tgz:27196.got - 2010.06.03 18:28:57.
