data_PCOD9501517
_publ_section_title
;
Structure prediction by ZEFSAII (Michael W. Deem and Ramdas Pophale) SiO2 
 PCOD9501517
Probable space group: C M M A
;
_chemical_formula_sum "Si O2"
_cell_formula_units_Z 112
_cell_length_a 24.278950
_cell_length_b 17.184241
_cell_length_c 15.186115
_cell_angle_alpha 90.000000
_cell_angle_beta 90.000000
_cell_angle_gamma 90.000000
_cell_volume 6335.879951
_symmetry_space_group_name_H-M "C M M A"
_symmetry_group_IT_number 67
_symmetry_cell_setting 'orthorhombic'
loop_
_space_group_symop_operation_xyz
x,y,z
-x,1/2-y,z
x,-y,-z
-x,1/2+y,-z
-x,-y,-z
x,1/2+y,-z
-x,y,z
x,1/2-y,z
1/2+x,1/2+y,z
1/2-x,-y,z
1/2+x,1/2-y,-z
1/2-x,y,-z
1/2-x,1/2-y,-z
1/2+x,y,-z
1/2-x,1/2+y,z
1/2+x,-y,z
loop_
_atom_site_type_symbol
_atom_site_label
_atom_site_fract_x
_atom_site_fract_y
_atom_site_fract_z
Si Si1 0.134558 0.838878 0.183059
Si Si2 0.658204 0.341177 0.659725
Si Si3 0.332793 0.340775 0.456888
Si Si4 0.563105 0.045901 0.724679
Si Si5 0.436422 0.375575 0.351441
Si Si6 0.231333 0.089252 0.705774
Si Si7 0.064087 0.542568 0.092412
O O1 0.148671 0.750000 0.163012
O O2 0.089962 0.840110 0.262869
O O3 0.186765 0.885524 0.221471
O O4 0.105271 0.885859 0.105419
O O5 0.645024 0.250000 0.661277
O O6 0.672278 0.362800 0.558385
O O7 0.608038 0.392384 0.695015
O O8 0.713772 0.359463 0.712534
O O9 0.316270 0.250000 0.445610
O O10 0.396584 0.349637 0.429384
O O11 0.298281 0.391382 0.387545
O O12 0.500000 0.074463 0.719483
O O13 0.567237 0.968628 0.664010
O O14 0.573050 0.014740 0.824103
O O15 0.500000 0.354412 0.362434
O O16 0.250000 0.000000 0.710692
O O17 0.000000 0.568098 0.098961
O O18 0.071640 0.500000 0.000000
#
# Coordination Sequence:
#
# PCOD9501517 Si02
#       7
#    16  16  16  16  16  16  16
#     4  10  19  32  53  82 111 136 171 218 265 316
#     4  11  22  35  51  70 100 141 179 218 263 310
#     4  10  21  33  46  71 104 136 176 223 264 306
#     4   9  19  35  53  75 100 131 174 215 259 319
#     4   9  17  30  49  72 102 138 172 212 261 311
#     4  11  21  34  54  76 100 135 178 223 268 314
#     4   9  18  35  59  84 111 140 168 205 257 316
#
# _framework density 17.677104
#
# number of rings (size 3 to 8) (size 9 to 14) (size 15 to 20)
#    0.000    2.143    0.000    6.857    0.000    6.857 
#    0.000    3.571    0.000    6.429    0.000    5.000 
#    0.000    0.000    0.000    0.000    0.000    0.000 
#
# Total GULP energy -312578.041714 kJ/mol
# GULP energy per Si atom -5581.750745 kJ/mol
# Density = 1.763687 g / cm^3
# Si number density = 17.677104 Si / 1000 Ang^3
#
#
#
# Elastic Constant Matrix: (Units=GPa)
#
#
# Indices 1 2 3 4 5 6 
#
# 1 108.7864 59.0796 29.3714 0.0000 0.0000 0.0000
# 2 59.0796 101.1866 39.5799 0.0000 0.0000 0.0000
# 3 29.3714 39.5799 51.2367 0.0000 0.0000 0.0000
# 4 0.0000 0.0000 0.0000 13.0916 0.0000 0.0000
# 5 0.0000 0.0000 0.0000 0.0000 21.7942 0.0000
# 6 0.0000 0.0000 0.0000 0.0000 0.0000 0.6201
#
#
#
# Elastic Compliance Matrix: (Units=1/GPa)
#
#
# Indices 1 2 3 4 5 6 
#
# 1 0.013662 -0.007041 -0.002393 0.000000 0.000000 0.000000
# 2 -0.007041 0.017791 -0.009707 0.000000 0.000000 0.000000
# 3 -0.002393 -0.009707 0.028387 0.000000 0.000000 0.000000
# 4 0.000000 0.000000 0.000000 0.076385 0.000000 0.000000
# 5 0.000000 0.000000 0.000000 0.000000 0.045884 0.000000
# 6 0.000000 0.000000 0.000000 0.000000 0.000000 1.612729
#
#
# Mechanical properties :
#
#
# Convention : Reuss Voigt Hill
#
# Bulk Modulus (GPa) = 46.38438 57.47463 51.92950
# Shear Modulus (GPa) = 2.71694 15.97975 9.34835
#
# Velocity S-wave (km/s) = 1.24110 3.00989 2.30215
# Velocity P-wave (km/s) = 5.32452 6.68307 6.04210
#
# Compressibility (1/GPa) = 0.02155898
#
# Stress axis : x y z
#
# Youngs Moduli (GPa) = 73.19501 56.20941 35.22697
#
# Poissons Ratio (x) = 0.39577 0.08429
# Poissons Ratio (y) = 0.51536 0.34194
# Poissons Ratio (z) = 0.17514 0.54562
#
# Static dielectric constant tensor:
#      x y z
#    x 1.614060 0.000000 0.000000 
#    y 0.000000 1.610700 0.000000 
#    z 0.000000 0.000000 1.584230 
# 
# From -- ./inp_files/30192.got.cif
#   From: 2010.05.17/outbox.cif.g08.bks.cpg/sg67_16_cif.got.tgz:30192.got - 2010.06.03 18:28:57.
