data_PCOD9501797
_publ_section_title
;
Structure prediction by ZEFSAII (Michael W. Deem and Ramdas Pophale) SiO2 
 PCOD9501797
Probable space group: C M M A
;
_chemical_formula_sum "Si O2"
_cell_formula_units_Z 96
_cell_length_a 17.099185
_cell_length_b 18.693433
_cell_length_c 14.637197
_cell_angle_alpha 90.000000
_cell_angle_beta 90.000000
_cell_angle_gamma 90.000000
_cell_volume 4678.669791
_symmetry_space_group_name_H-M "C M M A"
_symmetry_group_IT_number 67
_symmetry_cell_setting 'orthorhombic'
loop_
_space_group_symop_operation_xyz
x,y,z
-x,1/2-y,z
x,-y,-z
-x,1/2+y,-z
-x,-y,-z
x,1/2+y,-z
-x,y,z
x,1/2-y,z
1/2+x,1/2+y,z
1/2-x,-y,z
1/2+x,1/2-y,-z
1/2-x,y,-z
1/2-x,1/2-y,-z
1/2+x,y,-z
1/2-x,1/2+y,z
1/2+x,-y,z
loop_
_atom_site_type_symbol
_atom_site_label
_atom_site_fract_x
_atom_site_fract_y
_atom_site_fract_z
Si Si1 0.814962 0.828925 0.195256
Si Si2 0.410402 0.036062 0.709444
Si Si3 0.191136 0.936008 0.880931
Si Si4 0.163072 0.083374 0.469987
Si Si5 0.086286 0.628687 0.358185
Si Si6 0.407760 0.834554 0.985446
O O1 0.784062 0.750000 0.176698
O O2 0.746992 0.883928 0.176233
O O3 0.849870 0.833917 0.295830
O O4 0.883438 0.842127 0.120709
O O5 0.500000 0.061594 0.709714
O O6 0.373677 0.036683 0.809723
O O7 0.359611 0.081487 0.636261
O O8 0.410974 0.954222 0.674588
O O9 0.147678 0.889146 0.958537
O O10 0.250000 0.000000 0.907640
O O11 0.250000 0.105608 0.500000
O O12 0.105019 0.127279 0.534632
O O13 0.156833 0.000000 0.500000
O O14 0.000000 0.657254 0.340331
O O15 0.500000 0.849704 0.998774
O O16 0.394530 0.750000 0.009785
#
# Coordination Sequence:
#
# PCOD9501797 Si02
#       6
#    16  16  16  16  16  16
#     4  11  23  40  62  87 119 160 204 251 305 370
#     4  10  20  35  56  87 122 157 196 242 302 361
#     4  12  23  39  61  90 124 160 198 259 313 365
#     4   9  17  29  54  83 119 154 190 240 294 356
#     4  10  19  34  55  85 118 154 197 243 293 352
#     4  10  23  44  66  87 116 162 214 257 307 376
#
# _framework density 20.518653
#
# number of rings (size 3 to 8) (size 9 to 14) (size 15 to 20)
#    0.000    1.667    1.667    3.500    2.333    5.667 
#    0.000    0.833    0.000    5.500    0.000    0.000 
#    0.000    0.000    0.000    0.000    0.000    0.000 
#
# Total GULP energy -267945.707347 kJ/mol
# GULP energy per Si atom -5582.202236 kJ/mol
# Density = 2.047195 g / cm^3
# Si number density = 20.518653 Si / 1000 Ang^3
#
#
#
# Elastic Constant Matrix: (Units=GPa)
#
#
# Indices 1 2 3 4 5 6 
#
# 1 84.8261 30.5952 9.8068 0.0000 0.0000 0.0000
# 2 30.5952 56.6890 15.1885 0.0000 0.0000 0.0000
# 3 9.8068 15.1885 83.5977 0.0000 0.0000 0.0000
# 4 0.0000 0.0000 0.0000 -7.5066 0.0000 0.0000
# 5 0.0000 0.0000 0.0000 0.0000 19.5310 0.0000
# 6 0.0000 0.0000 0.0000 0.0000 0.0000 15.9941
#
#
#
# Elastic Compliance Matrix: (Units=1/GPa)
#
#
# Indices 1 2 3 4 5 6 
#
# 1 0.014645 -0.007825 -0.000296 0.000000 0.000000 0.000000
# 2 -0.007825 0.022723 -0.003211 0.000000 0.000000 0.000000
# 3 -0.000296 -0.003211 0.012580 0.000000 0.000000 0.000000
# 4 0.000000 0.000000 0.000000 -0.133215 0.000000 0.000000
# 5 0.000000 0.000000 0.000000 0.000000 0.051201 0.000000
# 6 0.000000 0.000000 0.000000 0.000000 0.000000 0.062523
#
#
# Mechanical properties :
#
#
# Convention : Reuss Voigt Hill
#
# Bulk Modulus (GPa) = 36.64964 37.36598 37.00781
# Shear Modulus (GPa) = 80.36544 16.90518 48.63531
#
# Velocity S-wave (km/s) = 6.26515 2.87347 4.87385
# Velocity P-wave (km/s) = 8.38072 5.40919 7.05322
#
# Compressibility (1/GPa) = 0.02728540
#
# Stress axis : x y z
#
# Youngs Moduli (GPa) = 68.28122 44.00761 79.49041
#
# Poissons Ratio (x) = 0.34435 0.02356
# Poissons Ratio (y) = 0.53428 0.25521
# Poissons Ratio (z) = 0.02024 0.14129
#
# Static dielectric constant tensor:
#      x y z
#    x 1.727270 0.000000 0.000000 
#    y 0.000000 1.734790 0.000000 
#    z 0.000000 0.000000 1.724300 
# 
# From -- ./inp_files/27231.got.cif
#   From: 2010.05.17/outbox.cif.g08.bks.cpg/sg67_14_cif.got.tgz:27231.got - 2010.06.03 18:28:57.
