data_PCOD9501948
_publ_section_title
;
Structure prediction by ZEFSAII (Michael W. Deem and Ramdas Pophale) SiO2 
 PCOD9501948
Probable space group: C M M A
;
_chemical_formula_sum "Si O2"
_cell_formula_units_Z 88
_cell_length_a 26.025407
_cell_length_b 14.294224
_cell_length_c 11.207293
_cell_angle_alpha 90.000000
_cell_angle_beta 90.000000
_cell_angle_gamma 90.000000
_cell_volume 4169.258661
_symmetry_space_group_name_H-M "C M M A"
_symmetry_group_IT_number 67
_symmetry_cell_setting 'orthorhombic'
loop_
_space_group_symop_operation_xyz
x,y,z
-x,1/2-y,z
x,-y,-z
-x,1/2+y,-z
-x,-y,-z
x,1/2+y,-z
-x,y,z
x,1/2-y,z
1/2+x,1/2+y,z
1/2-x,-y,z
1/2+x,1/2-y,-z
1/2-x,y,-z
1/2-x,1/2-y,-z
1/2+x,y,-z
1/2-x,1/2+y,z
1/2+x,-y,z
loop_
_atom_site_type_symbol
_atom_site_label
_atom_site_fract_x
_atom_site_fract_y
_atom_site_fract_z
Si Si1 0.364205 0.000000 0.000000
Si Si2 0.896282 0.361816 0.666887
Si Si3 0.561162 0.354222 0.585899
Si Si4 0.285489 0.858637 0.883622
Si Si5 0.777286 0.637561 0.377274
Si Si6 0.061158 0.022236 0.192374
O O1 0.329125 0.067020 0.081441
O O2 0.403488 0.944107 0.084487
O O3 0.898610 0.250000 0.683887
O O4 0.926547 0.386486 0.546437
O O5 0.837273 0.388804 0.638030
O O6 0.923202 0.416362 0.774189
O O7 0.500000 0.348550 0.596560
O O8 0.583704 0.250000 0.599348
O O9 0.578200 0.420446 0.691200
O O10 0.303979 0.750000 0.869864
O O11 0.257335 0.883857 0.757858
O O12 0.250000 0.859950 0.000000
O O13 0.775564 0.750000 0.387237
O O14 0.750000 0.603343 0.500000
O O15 0.000000 0.030888 0.171948
#
# Coordination Sequence:
#
# PCOD9501948 Si02
#       6
#     8  16  16  16  16  16
#     4  12  24  40  62  86 124 166 216 256 308 372
#     4  10  19  35  60  89 121 156 199 253 317 379
#     4   9  19  36  58  84 115 153 198 249 307 368
#     4  10  22  42  66  90 122 165 209 257 318 383
#     4   9  18  35  61  91 120 151 195 256 317 373
#     4  11  23  38  58  86 123 166 212 259 304 363
#
# _framework density 21.106869
#
# number of rings (size 3 to 8) (size 9 to 14) (size 15 to 20)
#    0.000    2.000    1.818    1.636    0.000    4.727 
#    0.000    3.636    0.000    3.273    0.000    0.000 
#    0.000    0.000    0.000    0.000    0.000    0.000 
#
# Total GULP energy -245285.057643 kJ/mol
# GULP energy per Si atom -5574.660401 kJ/mol
# Density = 2.105883 g / cm^3
# Si number density = 21.106869 Si / 1000 Ang^3
#
#
#
# Elastic Constant Matrix: (Units=GPa)
#
#
# Indices 1 2 3 4 5 6 
#
# 1 43.5281 13.4052 34.6518 0.0000 0.0000 0.0000
# 2 13.4052 49.1238 15.7806 0.0000 0.0000 0.0000
# 3 34.6518 15.7806 129.0144 0.0000 0.0000 0.0000
# 4 0.0000 0.0000 0.0000 -7.8835 0.0000 0.0000
# 5 0.0000 0.0000 0.0000 0.0000 48.6819 0.0000
# 6 0.0000 0.0000 0.0000 0.0000 0.0000 2.3537
#
#
#
# Elastic Compliance Matrix: (Units=1/GPa)
#
#
# Indices 1 2 3 4 5 6 
#
# 1 0.030826 -0.005987 -0.007547 0.000000 0.000000 0.000000
# 2 -0.005987 0.022352 -0.001126 0.000000 0.000000 0.000000
# 3 -0.007547 -0.001126 0.009916 0.000000 0.000000 0.000000
# 4 0.000000 0.000000 0.000000 -0.126847 0.000000 0.000000
# 5 0.000000 0.000000 0.000000 0.000000 0.020542 0.000000
# 6 0.000000 0.000000 0.000000 0.000000 0.000000 0.424865
#
#
# Mechanical properties :
#
#
# Convention : Reuss Voigt Hill
#
# Bulk Modulus (GPa) = 29.60948 38.81573 34.21260
# Shear Modulus (GPa) = 11.84183 19.15233 15.49708
#
# Velocity S-wave (km/s) = 2.37120 3.01557 2.71259
# Velocity P-wave (km/s) = 4.64280 5.52765 5.10444
#
# Compressibility (1/GPa) = 0.03377297
#
# Stress axis : x y z
#
# Youngs Moduli (GPa) = 32.44055 44.73810 100.84878
#
# Poissons Ratio (x) = 0.26787 0.76111
# Poissons Ratio (y) = 0.19424 0.11354
# Poissons Ratio (z) = 0.24483 0.05037
#
# Static dielectric constant tensor:
#      x y z
#    x 1.765010 0.000000 0.000000 
#    y 0.000000 1.813610 0.000000 
#    z 0.000000 0.000000 1.716760 
# 
# From -- ./inp_files/21761.got.cif
#   From: 2010.05.17/outbox.cif.g08.bks.cpg/sg67_11_cif.got.tgz:21761.got - 2010.06.03 18:28:57.
