data_PCOD9501082
_publ_section_title
;
Structure prediction by ZEFSAII (Michael W. Deem and Ramdas Pophale) SiO2 
 PCOD9501082
Probable space group: C M M A
;
_chemical_formula_sum "Si O2"
_cell_formula_units_Z 64
_cell_length_a 13.136660
_cell_length_b 19.955149
_cell_length_c 11.416626
_cell_angle_alpha 90.000000
_cell_angle_beta 90.000000
_cell_angle_gamma 90.000000
_cell_volume 2992.800094
_symmetry_space_group_name_H-M "C M M A"
_symmetry_group_IT_number 67
_symmetry_cell_setting 'orthorhombic'
loop_
_space_group_symop_operation_xyz
x,y,z
-x,1/2-y,z
x,-y,-z
-x,1/2+y,-z
-x,-y,-z
x,1/2+y,-z
-x,y,z
x,1/2-y,z
1/2+x,1/2+y,z
1/2-x,-y,z
1/2+x,1/2-y,-z
1/2-x,y,-z
1/2-x,1/2-y,-z
1/2+x,y,-z
1/2-x,1/2+y,z
1/2+x,-y,z
loop_
_atom_site_type_symbol
_atom_site_label
_atom_site_fract_x
_atom_site_fract_y
_atom_site_fract_z
Si Si1 0.879658 0.057280 0.098094
Si Si2 0.622913 0.250000 0.468147
Si Si3 0.750000 0.000000 0.306551
Si Si4 0.615851 0.385772 0.322191
Si Si5 0.876527 0.172972 0.928646
O O1 0.000000 0.058439 0.116155
O O2 0.827315 0.037166 0.218032
O O3 0.849843 0.128688 0.041882
O O4 0.860001 0.000000 0.000000
O O5 0.500000 0.250000 0.526670
O O6 0.750000 0.250000 0.500000
O O7 0.617357 0.317887 0.394804
O O8 0.812408 0.943216 0.372280
O O9 0.500000 0.410625 0.314872
O O10 0.649845 0.366310 0.190341
O O11 0.841790 0.250000 0.926818
O O12 0.000000 0.175275 0.926885
#
# Coordination Sequence:
#
# PCOD9501082 Si02
#       5
#    16   8   8  16  16
#     4  10  19  30  45  70 112 161 206 246 286 332
#     4  10  22  46  76 101 120 152 196 253 324 394
#     4  12  21  32  51  84 118 162 209 240 294 343
#     4  10  20  36  60  87 117 154 201 252 308 375
#     4   9  16  29  48  72 107 154 206 252 292 341
#
# _framework density 21.384657000000001
#
# number of rings (size 3 to 8) (size 9 to 14) (size 15 to 20)
#    0.000    2.000    3.750    1.125    0.000    0.000 
#    2.250    4.375    0.000    3.000    0.000    0.000 
#    0.000    0.000    0.000    0.000    0.000    0.000 
#
# Total GULP energy -178315.145870 kJ/mol
# GULP energy per Si atom -5572.348308 kJ/mol
# Density = 2.133598 g / cm^3
# Si number density = 21.384657 Si / 1000 Ang^3
#
#
#
# Elastic Constant Matrix: (Units=GPa)
#
#
# Indices 1 2 3 4 5 6 
#
# 1 144.2868 32.6635 19.5917 0.0000 0.0000 0.0000
# 2 32.6635 146.3777 7.9586 0.0000 0.0000 0.0000
# 3 19.5917 7.9586 16.3348 0.0000 0.0000 0.0000
# 4 0.0000 0.0000 0.0000 2.6640 0.0000 0.0000
# 5 0.0000 0.0000 0.0000 0.0000 19.7603 0.0000
# 6 0.0000 0.0000 0.0000 0.0000 0.0000 35.0122
#
#
#
# Elastic Compliance Matrix: (Units=1/GPa)
#
#
# Indices 1 2 3 4 5 6 
#
# 1 0.008544 -0.001386 -0.009572 0.000000 0.000000 0.000000
# 2 -0.001386 0.007242 -0.001866 0.000000 0.000000 0.000000
# 3 -0.009572 -0.001866 0.073609 0.000000 0.000000 0.000000
# 4 0.000000 0.000000 0.000000 0.375372 0.000000 0.000000
# 5 0.000000 0.000000 0.000000 0.000000 0.050606 0.000000
# 6 0.000000 0.000000 0.000000 0.000000 0.000000 0.028562
#
#
# Mechanical properties :
#
#
# Convention : Reuss Voigt Hill
#
# Bulk Modulus (GPa) = 15.68713 47.49188 31.58951
# Shear Modulus (GPa) = 8.46261 27.93967 18.20114
#
# Velocity S-wave (km/s) = 1.99146 3.61852 2.92058
# Velocity P-wave (km/s) = 3.55521 6.30197 5.11636
#
# Compressibility (1/GPa) = 0.06374651
#
# Stress axis : x y z
#
# Youngs Moduli (GPa) = 117.03829 138.07557 13.58524
#
# Poissons Ratio (x) = 0.19139 0.13004
# Poissons Ratio (y) = 0.16223 0.02535
# Poissons Ratio (z) = 1.12035 0.25766
#
# Static dielectric constant tensor:
#      x y z
#    x 1.907430 0.000000 0.000000 
#    y 0.000000 1.770410 0.000000 
#    z 0.000000 0.000000 1.743530 
# 
# From -- ./inp_files/17548.got.cif
#   From: 2010.05.17/outbox.cif.g08.bks.cpg/sg67_9_cif.got.tgz:17548.got - 2010.06.03 18:28:57.
