data_PCOD9501699
_publ_section_title
;
Structure prediction by ZEFSAII (Michael W. Deem and Ramdas Pophale) SiO2 
 PCOD9501699
Probable space group: C M M A
;
_chemical_formula_sum "Si O2"
_cell_formula_units_Z 100
_cell_length_a 7.757848
_cell_length_b 32.828011
_cell_length_c 19.764156
_cell_angle_alpha 90.000000
_cell_angle_beta 90.000000
_cell_angle_gamma 90.000000
_cell_volume 5033.430885
_symmetry_space_group_name_H-M "C M M A"
_symmetry_group_IT_number 67
_symmetry_cell_setting 'orthorhombic'
loop_
_space_group_symop_operation_xyz
x,y,z
-x,1/2-y,z
x,-y,-z
-x,1/2+y,-z
-x,-y,-z
x,1/2+y,-z
-x,y,z
x,1/2-y,z
1/2+x,1/2+y,z
1/2-x,-y,z
1/2+x,1/2-y,-z
1/2-x,y,-z
1/2-x,1/2-y,-z
1/2+x,y,-z
1/2-x,1/2+y,z
1/2+x,-y,z
loop_
_atom_site_type_symbol
_atom_site_label
_atom_site_fract_x
_atom_site_fract_y
_atom_site_fract_z
Si Si1 0.792330 0.794728 0.079133
Si Si2 0.202114 0.543831 0.800745
Si Si3 0.706544 0.627834 0.421861
Si Si4 0.199866 0.681242 0.299173
Si Si5 0.000000 0.250000 0.286465
Si Si6 0.207210 0.544895 0.647170
Si Si7 0.204508 0.131176 0.831181
O O1 0.728125 0.750000 0.102981
O O2 0.723331 0.833232 0.120553
O O3 0.000000 0.794030 0.085919
O O4 0.750000 0.798337 0.000000
O O5 0.250000 0.500000 0.830725
O O6 0.278670 0.546798 0.724394
O O7 0.242061 0.584736 0.841287
O O8 0.000000 0.542992 0.791612
O O9 0.500000 0.630031 0.413315
O O10 0.750000 0.633553 0.500000
O O11 0.786798 0.662006 0.373526
O O12 0.768170 0.583383 0.396077
O O13 0.345830 0.714844 0.288901
O O14 0.240873 0.645370 0.245305
O O15 0.000000 0.694495 0.286193
O O16 0.250000 0.500000 0.619940
O O17 0.000000 0.547794 0.649420
O O18 0.000000 0.131785 0.840167
#
# Coordination Sequence:
#
# PCOD9501699 Si02
#       7
#    16  16  16  16   4  16  16
#     4   9  19  37  57  86 124 161 198 242 295 361
#     4  10  19  33  55  84 119 156 198 245 296 353
#     4  11  22  40  61  85 118 158 202 254 306 369
#     4  11  24  43  66  92 120 158 199 252 313 360
#     4  12  26  44  66  90 128 146 202 260 304 378
#     4   9  19  33  53  80 117 152 192 245 298 359
#     4  10  21  36  60  89 123 160 201 247 299 357
#
# _framework density 19.867163999999999
#
# number of rings (size 3 to 8) (size 9 to 14) (size 15 to 20)
#    0.000    1.920    2.400    1.200    2.240    2.880 
#    0.000    2.000    0.000    0.480    0.000    3.360 
#    0.000    0.000    0.000    0.000    0.000    0.000 
#
# Total GULP energy -278473.256887 kJ/mol
# GULP energy per Si atom -5569.465138 kJ/mol
# Density = 1.982195 g / cm^3
# Si number density = 19.867164 Si / 1000 Ang^3
#
#
#
# Elastic Constant Matrix: (Units=GPa)
#
#
# Indices 1 2 3 4 5 6 
#
# 1 75.3657 36.0248 -1.6730 0.0000 0.0000 0.0000
# 2 36.0248 173.4167 41.0546 0.0000 0.0000 0.0000
# 3 -1.6730 41.0546 48.5168 0.0000 0.0000 0.0000
# 4 0.0000 0.0000 0.0000 94.6197 0.0000 0.0000
# 5 0.0000 0.0000 0.0000 0.0000 14.5984 0.0000
# 6 0.0000 0.0000 0.0000 0.0000 0.0000 33.4344
#
#
#
# Elastic Compliance Matrix: (Units=1/GPa)
#
#
# Indices 1 2 3 4 5 6 
#
# 1 0.015337 -0.004141 0.004033 0.000000 0.000000 0.000000
# 2 -0.004141 0.008329 -0.007191 0.000000 0.000000 0.000000
# 3 0.004033 -0.007191 0.026835 0.000000 0.000000 0.000000
# 4 0.000000 0.000000 0.000000 0.010569 0.000000 0.000000
# 5 0.000000 0.000000 0.000000 0.000000 0.068501 0.000000
# 6 0.000000 0.000000 0.000000 0.000000 0.000000 0.029909
#
#
# Mechanical properties :
#
#
# Convention : Reuss Voigt Hill
#
# Bulk Modulus (GPa) = 27.85187 49.79023 38.82105
# Shear Modulus (GPa) = 26.87506 43.32335 35.09921
#
# Velocity S-wave (km/s) = 3.68195 4.67481 4.20777
# Velocity P-wave (km/s) = 5.66790 7.36576 6.57189
#
# Compressibility (1/GPa) = 0.03590424
#
# Stress axis : x y z
#
# Youngs Moduli (GPa) = 65.19969 120.06252 37.26445
#
# Poissons Ratio (x) = 0.49717 -0.15028
# Poissons Ratio (y) = 0.26998 0.26796
# Poissons Ratio (z) = -0.26294 0.86334
#
# Static dielectric constant tensor:
#      x y z
#    x 1.737470 0.000000 0.000000 
#    y 0.000000 1.667400 0.000000 
#    z 0.000000 0.000000 1.693540 
# 
# From -- ./inp_files/37484.got.cif
#   From: 2010.05.17/outbox.cif.g08.bks.cpg/sg67_19_cif.got.tgz:37484.got - 2010.06.03 18:28:57.
