data_PCOD9501964
_publ_section_title
;
Structure prediction by ZEFSAII (Michael W. Deem and Ramdas Pophale) SiO2 
 PCOD9501964
Probable space group: C M M A
;
_chemical_formula_sum "Si O2"
_cell_formula_units_Z 104
_cell_length_a 9.282855
_cell_length_b 21.846578
_cell_length_c 28.134802
_cell_angle_alpha 90.000000
_cell_angle_beta 90.000000
_cell_angle_gamma 90.000000
_cell_volume 5705.698902
_symmetry_space_group_name_H-M "C M M A"
_symmetry_group_IT_number 67
_symmetry_cell_setting 'orthorhombic'
loop_
_space_group_symop_operation_xyz
x,y,z
-x,1/2-y,z
x,-y,-z
-x,1/2+y,-z
-x,-y,-z
x,1/2+y,-z
-x,y,z
x,1/2-y,z
1/2+x,1/2+y,z
1/2-x,-y,z
1/2+x,1/2-y,-z
1/2-x,y,-z
1/2-x,1/2-y,-z
1/2+x,y,-z
1/2-x,1/2+y,z
1/2+x,-y,z
loop_
_atom_site_type_symbol
_atom_site_label
_atom_site_fract_x
_atom_site_fract_y
_atom_site_fract_z
Si Si1 0.665408 0.323689 0.046370
Si Si2 0.250000 0.500000 0.616968
Si Si3 0.656453 0.407896 0.306139
Si Si4 0.673943 0.322477 0.853961
Si Si5 0.827145 0.818430 0.633955
Si Si6 0.671379 0.936812 0.803422
Si Si7 0.163231 0.395965 0.452116
O O1 0.500000 0.346423 0.050302
O O2 0.655270 0.250000 0.041128
O O3 0.759374 0.333370 0.093614
O O4 0.750000 0.347307 0.000000
O O5 0.342346 0.540352 0.653274
O O6 0.165484 0.544840 0.581900
O O7 0.500000 0.377185 0.306077
O O8 0.776071 0.361002 0.323462
O O9 0.681154 0.433983 0.253958
O O10 0.500000 0.329340 0.853511
O O11 0.704349 0.250000 0.841538
O O12 0.750247 0.375107 0.822383
O O13 0.777304 0.750000 0.641402
O O14 0.774480 0.844345 0.583217
O O15 0.000000 0.820134 0.631701
O O16 0.500000 0.937038 0.815807
O O17 0.750000 0.000000 0.819262
O O18 0.250000 0.405742 0.500000
O O19 0.000000 0.380502 0.464967
#
# Coordination Sequence:
#
# PCOD9501964 Si02
#       7
#    16   8  16  16  16  16  16
#     4   9  16  28  50  81 116 154 197 246 297 346
#     4  10  19  36  56  76 104 132 169 212 264 318
#     4  10  21  36  57  82 104 133 175 222 270 320
#     4  10  21  37  57  84 119 158 200 245 294 347
#     4   9  20  38  56  75 103 139 175 212 260 319
#     4  11  23  39  59  84 115 152 194 239 291 350
#     4  10  21  34  52  76 103 134 168 209 257 313
#
# _framework density 18.227391000000001
#
# number of rings (size 3 to 8) (size 9 to 14) (size 15 to 20)
#    0.000    2.154    0.769    2.077    0.000    9.538 
#    0.000    3.077    0.000    0.462    0.000    3.231 
#    0.000    0.000    0.000    0.000    0.000    0.000 
#
# Total GULP energy -289642.441715 kJ/mol
# GULP energy per Si atom -5570.046956 kJ/mol
# Density = 1.818590 g / cm^3
# Si number density = 18.227391 Si / 1000 Ang^3
#
#
#
# Elastic Constant Matrix: (Units=GPa)
#
#
# Indices 1 2 3 4 5 6 
#
# 1 101.2230 47.6507 46.7879 0.0000 0.0000 0.0000
# 2 47.6507 88.5971 17.3529 0.0000 0.0000 0.0000
# 3 46.7879 17.3529 49.1470 0.0000 0.0000 0.0000
# 4 0.0000 0.0000 0.0000 9.6116 0.0000 0.0000
# 5 0.0000 0.0000 0.0000 0.0000 13.3135 0.0000
# 6 0.0000 0.0000 0.0000 0.0000 0.0000 18.6187
#
#
#
# Elastic Compliance Matrix: (Units=1/GPa)
#
#
# Indices 1 2 3 4 5 6 
#
# 1 0.022257 -0.008402 -0.018222 0.000000 0.000000 0.000000
# 2 -0.008402 0.015297 0.002597 0.000000 0.000000 0.000000
# 3 -0.018222 0.002597 0.036778 0.000000 0.000000 0.000000
# 4 0.000000 0.000000 0.000000 0.104041 0.000000 0.000000
# 5 0.000000 0.000000 0.000000 0.000000 0.075111 0.000000
# 6 0.000000 0.000000 0.000000 0.000000 0.000000 0.053709
#
#
# Mechanical properties :
#
#
# Convention : Reuss Voigt Hill
#
# Bulk Modulus (GPa) = 38.05389 51.39445 44.72417
# Shear Modulus (GPa) = 13.73604 16.78715 15.26159
#
# Velocity S-wave (km/s) = 2.74814 3.03807 2.89673
# Velocity P-wave (km/s) = 5.56708 6.36898 5.98148
#
# Compressibility (1/GPa) = 0.02627852
#
# Stress axis : x y z
#
# Youngs Moduli (GPa) = 44.92963 65.37219 27.19037
#
# Poissons Ratio (x) = 0.54923 0.49547
# Poissons Ratio (y) = 0.37748 -0.07062
# Poissons Ratio (z) = 0.81872 -0.16979
#
# Static dielectric constant tensor:
#      x y z
#    x 1.648020 0.000000 0.000000 
#    y 0.000000 1.644540 0.000000 
#    z 0.000000 0.000000 1.607690 
# 
# From -- ./inp_files/43603.got.cif
#   From: 2010.05.17/outbox.cif.g08.bks.cpg/sg67_22_cif.got.tgz:43603.got - 2010.06.03 18:28:57.
