data_PCOD9501628
_publ_section_title
;
Structure prediction by ZEFSAII (Michael W. Deem and Ramdas Pophale) SiO2 
 PCOD9501628
Probable space group: C M M A
;
_chemical_formula_sum "Si O2"
_cell_formula_units_Z 104
_cell_length_a 25.166870
_cell_length_b 8.573817
_cell_length_c 28.267352
_cell_angle_alpha 90.000000
_cell_angle_beta 90.000000
_cell_angle_gamma 90.000000
_cell_volume 6099.420042
_symmetry_space_group_name_H-M "C M M A"
_symmetry_group_IT_number 67
_symmetry_cell_setting 'orthorhombic'
loop_
_space_group_symop_operation_xyz
x,y,z
-x,1/2-y,z
x,-y,-z
-x,1/2+y,-z
-x,-y,-z
x,1/2+y,-z
-x,y,z
x,1/2-y,z
1/2+x,1/2+y,z
1/2-x,-y,z
1/2+x,1/2-y,-z
1/2-x,y,-z
1/2-x,1/2-y,-z
1/2+x,y,-z
1/2-x,1/2+y,z
1/2+x,-y,z
loop_
_atom_site_type_symbol
_atom_site_label
_atom_site_fract_x
_atom_site_fract_y
_atom_site_fract_z
Si Si1 0.915118 0.562333 0.369318
Si Si2 0.500000 0.936741 0.552723
Si Si3 0.500000 0.565563 0.296860
Si Si4 0.894888 0.563663 0.854475
Si Si5 0.809659 0.437700 0.329867
Si Si6 0.000000 0.933663 0.193636
Si Si7 0.308910 0.561952 0.221491
Si Si8 0.438474 0.563531 0.948078
O O1 0.918158 0.750000 0.364441
O O2 0.854606 0.507095 0.364116
O O3 0.947671 0.517887 0.416820
O O4 0.948796 0.481462 0.327613
O O5 0.500000 0.750000 0.550596
O O6 0.500000 0.000000 0.500000
O O7 0.500000 0.750000 0.286713
O O8 0.500000 0.468100 0.249064
O O9 0.892026 0.750000 0.857383
O O10 0.847820 0.507199 0.820032
O O11 0.899760 0.496637 0.907182
O O12 0.948540 0.511842 0.828744
O O13 0.809679 0.250000 0.332767
O O14 0.750000 0.500000 0.338791
O O15 0.824117 0.483966 0.275372
O O16 0.000000 0.750000 0.183292
O O17 0.308762 0.750000 0.220969
O O18 0.250000 0.500000 0.213320
O O19 0.500000 0.513631 0.937808
O O20 0.437836 0.750000 0.948659
O O21 0.425165 0.500000 0.000000
#
# Coordination Sequence:
#
# PCOD9501628 Si02
#       8
#    16   8   8  16  16   8  16  16
#     4  10  20  35  53  78 108 140 178 222 266 314
#     4   9  20  36  56  81 110 141 178 221 269 322
#     4  11  21  33  49  72 103 140 176 213 259 314
#     4  11  21  34  52  75 104 134 167 210 257 310
#     4  10  19  33  53  78 108 144 184 222 261 310
#     4  12  23  33  47  73 105 139 171 206 257 310
#     4   9  20  35  52  75 103 138 177 212 251 299
#     4  10  20  34  52  74 100 130 167 207 257 315
#
# _framework density 17.050801
#
# number of rings (size 3 to 8) (size 9 to 14) (size 15 to 20)
#    0.000    1.846    0.769    4.615    0.000    5.538 
#    0.000    0.000    0.000    0.923    0.000    6.462 
#    0.000    0.000    0.000    0.000    0.000    0.000 
#
# Total GULP energy -290239.500325 kJ/mol
# GULP energy per Si atom -5581.528852 kJ/mol
# Density = 1.701199 g / cm^3
# Si number density = 17.050801 Si / 1000 Ang^3
#
#
#
# Elastic Constant Matrix: (Units=GPa)
#
#
# Indices 1 2 3 4 5 6 
#
# 1 109.0587 21.6650 64.9107 0.0000 0.0000 0.0000
# 2 21.6650 37.3252 17.7303 0.0000 0.0000 0.0000
# 3 64.9107 17.7303 118.5634 0.0000 0.0000 0.0000
# 4 0.0000 0.0000 0.0000 29.0552 0.0000 0.0000
# 5 0.0000 0.0000 0.0000 0.0000 -10.1957 0.0000
# 6 0.0000 0.0000 0.0000 0.0000 0.0000 28.0558
#
#
#
# Elastic Compliance Matrix: (Units=1/GPa)
#
#
# Indices 1 2 3 4 5 6 
#
# 1 0.014410 -0.004970 -0.007146 0.000000 0.000000 0.000000
# 2 -0.004970 0.030554 -0.001848 0.000000 0.000000 0.000000
# 3 -0.007146 -0.001848 0.012623 0.000000 0.000000 0.000000
# 4 0.000000 0.000000 0.000000 0.034417 0.000000 0.000000
# 5 0.000000 0.000000 0.000000 0.000000 -0.098080 0.000000
# 6 0.000000 0.000000 0.000000 0.000000 0.000000 0.035643
#
#
# Mechanical properties :
#
#
# Convention : Reuss Voigt Hill
#
# Bulk Modulus (GPa) = 33.71641 52.61768 43.16705
# Shear Modulus (GPa) = 74.20504 20.09249 47.14876
#
# Velocity S-wave (km/s) = 6.60412 3.43649 5.26422
# Velocity P-wave (km/s) = 8.83004 6.83171 7.89436
#
# Compressibility (1/GPa) = 0.02965915
#
# Stress axis : x y z
#
# Youngs Moduli (GPa) = 69.39759 32.72882 79.22112
#
# Poissons Ratio (x) = 0.16265 0.56610
# Poissons Ratio (y) = 0.34487 0.14643
# Poissons Ratio (z) = 0.49590 0.06050
#
# Static dielectric constant tensor:
#      x y z
#    x 1.569080 0.000000 0.000000 
#    y 0.000000 1.573270 0.000000 
#    z 0.000000 0.000000 1.584270 
# 
# From -- ./inp_files/44853.got.cif
#   From: 2010.05.17/outbox.cif.g08.bks.cpg/sg67_23_cif.got.tgz:44853.got - 2010.06.03 18:28:57.
