data_PCOD9501154
_publ_section_title
;
Structure prediction by ZEFSAII (Michael W. Deem and Ramdas Pophale) SiO2 
 PCOD9501154
Probable space group: C M M A
;
_chemical_formula_sum "Si O2"
_cell_formula_units_Z 96
_cell_length_a 14.385828
_cell_length_b 30.877042
_cell_length_c 10.897501
_cell_angle_alpha 90.000000
_cell_angle_beta 90.000000
_cell_angle_gamma 90.000000
_cell_volume 4840.580752
_symmetry_space_group_name_H-M "C M M A"
_symmetry_group_IT_number 67
_symmetry_cell_setting 'orthorhombic'
loop_
_space_group_symop_operation_xyz
x,y,z
-x,1/2-y,z
x,-y,-z
-x,1/2+y,-z
-x,-y,-z
x,1/2+y,-z
-x,y,z
x,1/2-y,z
1/2+x,1/2+y,z
1/2-x,-y,z
1/2+x,1/2-y,-z
1/2-x,y,-z
1/2-x,1/2-y,-z
1/2+x,y,-z
1/2-x,1/2+y,z
1/2+x,-y,z
loop_
_atom_site_type_symbol
_atom_site_label
_atom_site_fract_x
_atom_site_fract_y
_atom_site_fract_z
Si Si1 0.646308 0.480429 0.376931
Si Si2 0.389350 0.703334 0.231592
Si Si3 0.610383 0.703874 0.528364
Si Si4 0.387277 0.108471 0.765596
Si Si5 0.644246 0.483338 0.872240
Si Si6 0.612850 0.109968 0.477542
O O1 0.601757 0.500000 0.500000
O O2 0.750000 0.500000 0.375073
O O3 0.602120 0.495389 0.250204
O O4 0.647749 0.429283 0.395773
O O5 0.500000 0.703749 0.203881
O O6 0.350695 0.750000 0.188640
O O7 0.382931 0.703166 0.380280
O O8 0.353277 0.656145 0.192197
O O9 0.500000 0.704431 0.556683
O O10 0.650476 0.750000 0.572694
O O11 0.647397 0.657117 0.567521
O O12 0.500000 0.109183 0.767970
O O13 0.356846 0.068034 0.847727
O O14 0.362136 0.102582 0.621095
O O15 0.750000 0.500000 0.874698
O O16 0.603063 0.500000 0.000000
O O17 0.500000 0.110371 0.473288
#
# Coordination Sequence:
#
# PCOD9501154 Si02
#       6
#    16  16  16  16  16  16
#     4  10  19  31  46  64  85 115 154 183 219 259
#     4   7  10  18  34  59  90 116 137 170 217 261
#     4   7  10  18  33  57  90 119 140 167 210 261
#     4   9  16  26  43  68  94 117 145 183 222 259
#     4  10  21  35  47  61  85 120 156 187 223 266
#     4   9  16  25  42  69  94 117 146 182 219 258
#
# _framework density 19.832332000000001
#
# number of rings (size 3 to 8) (size 9 to 14) (size 15 to 20)
#    0.000    3.333    1.667    3.000    0.000    1.333 
#    0.000    0.000    0.000    0.000    0.000   10.500 
#    0.000    5.333    0.000    0.000    0.000    0.333 
#
# Total GULP energy -267271.098932 kJ/mol
# GULP energy per Si atom -5568.147894 kJ/mol
# Density = 1.978719 g / cm^3
# Si number density = 19.832332 Si / 1000 Ang^3
#
#
#
# Elastic Constant Matrix: (Units=GPa)
#
#
# Indices 1 2 3 4 5 6 
#
# 1 63.0378 14.3592 2.7861 0.0000 0.0000 0.0000
# 2 14.3592 259.7857 55.2136 0.0000 0.0000 0.0000
# 3 2.7861 55.2136 99.4866 0.0000 0.0000 0.0000
# 4 0.0000 0.0000 0.0000 8.8391 0.0000 0.0000
# 5 0.0000 0.0000 0.0000 0.0000 -6.7691 0.0000
# 6 0.0000 0.0000 0.0000 0.0000 0.0000 29.2493
#
#
#
# Elastic Compliance Matrix: (Units=1/GPa)
#
#
# Indices 1 2 3 4 5 6 
#
# 1 0.016066 -0.000898 0.000049 0.000000 0.000000 0.000000
# 2 -0.000898 0.004414 -0.002425 0.000000 0.000000 0.000000
# 3 0.000049 -0.002425 0.011396 0.000000 0.000000 0.000000
# 4 0.000000 0.000000 0.000000 0.113134 0.000000 0.000000
# 5 0.000000 0.000000 0.000000 0.000000 -0.147729 0.000000
# 6 0.000000 0.000000 0.000000 0.000000 0.000000 0.034189
#
#
# Mechanical properties :
#
#
# Convention : Reuss Voigt Hill
#
# Bulk Modulus (GPa) = 39.48299 63.00311 51.24305
# Shear Modulus (GPa) = 107.61717 29.59393 68.60555
#
# Velocity S-wave (km/s) = 7.37437 3.86710 5.88794
# Velocity P-wave (km/s) = 9.61561 7.19556 8.49224
#
# Compressibility (1/GPa) = 0.02532737
#
# Stress axis : x y z
#
# Youngs Moduli (GPa) = 62.24328 226.53543 87.75065
#
# Poissons Ratio (x) = 0.20351 -0.00427
# Poissons Ratio (y) = 0.05592 0.21277
# Poissons Ratio (z) = -0.00303 0.54929
#
# Static dielectric constant tensor:
#      x y z
#    x 1.649260 0.000000 0.000000 
#    y 0.000000 1.789880 0.000000 
#    z 0.000000 0.000000 1.704650 
# 
# From -- ./inp_files/21176.got.cif
#   From: 2010.05.17/outbox.cif.g08.bks.cpg/sg67_11_cif.got.tgz:21176.got - 2010.06.03 18:28:57.
