data_PCOD9501562
_publ_section_title
;
Structure prediction by ZEFSAII (Michael W. Deem and Ramdas Pophale) SiO2 
 PCOD9501562
Probable space group: C M M A
;
_chemical_formula_sum "Si O2"
_cell_formula_units_Z 96
_cell_length_a 27.976277
_cell_length_b 16.165485
_cell_length_c 13.549557
_cell_angle_alpha 90.000000
_cell_angle_beta 90.000000
_cell_angle_gamma 90.000000
_cell_volume 6127.788321
_symmetry_space_group_name_H-M "C M M A"
_symmetry_group_IT_number 67
_symmetry_cell_setting 'orthorhombic'
loop_
_space_group_symop_operation_xyz
x,y,z
-x,1/2-y,z
x,-y,-z
-x,1/2+y,-z
-x,-y,-z
x,1/2+y,-z
-x,y,z
x,1/2-y,z
1/2+x,1/2+y,z
1/2-x,-y,z
1/2+x,1/2-y,-z
1/2-x,y,-z
1/2-x,1/2-y,-z
1/2+x,y,-z
1/2-x,1/2+y,z
1/2+x,-y,z
loop_
_atom_site_type_symbol
_atom_site_label
_atom_site_fract_x
_atom_site_fract_y
_atom_site_fract_z
Si Si1 0.304146 0.493066 0.380346
Si Si2 0.392633 0.097682 0.632593
Si Si3 0.870385 0.156144 0.589415
Si Si4 0.057647 0.750000 0.979952
Si Si5 0.558050 0.250000 0.744949
Si Si6 0.943476 0.935294 0.297204
Si Si7 0.441857 0.075378 0.068762
O O1 0.302888 0.500000 0.500000
O O2 0.250000 0.500000 0.344144
O O3 0.339671 0.563846 0.339453
O O4 0.330156 0.405073 0.366992
O O5 0.386093 0.127573 0.520172
O O6 0.416902 0.169902 0.696159
O O7 0.425347 0.016263 0.644366
O O8 0.854040 0.250000 0.585854
O O9 0.916685 0.142657 0.656756
O O10 0.066415 0.750000 0.862613
O O11 0.000000 0.750000 0.991342
O O12 0.074981 0.835035 0.030261
O O13 0.500000 0.250000 0.728572
O O14 0.929749 0.941995 0.182267
O O15 0.000000 0.928269 0.304548
O O16 0.500000 0.076463 0.063347
O O17 0.425338 0.000000 0.000000
#
# Coordination Sequence:
#
# PCOD9501562 Si02
#       7
#    16  16  16   8   8  16  16
#     4   8  16  33  52  68  92 125 159 203 254 289
#     4  10  19  33  47  68 100 130 166 203 230 286
#     4  10  20  33  46  70 103 129 163 203 233 282
#     4   9  18  30  45  65  93 125 162 211 250 279
#     4  11  20  30  47  70 101 137 168 197 239 288
#     4  10  20  31  47  65  95 138 170 195 237 283
#     4   9  17  30  46  65  88 120 166 211 249 285
#
# _framework density 15.666338
#
# number of rings (size 3 to 8) (size 9 to 14) (size 15 to 20)
#    0.000    2.500    0.833    3.000    1.167    5.000 
#    1.500    1.667    0.000    0.000    0.000    0.000 
#    0.000   48.000    0.000    0.000    0.000    0.000 
#
# Total GULP energy -267270.901365 kJ/mol
# GULP energy per Si atom -5568.143778 kJ/mol
# Density = 1.563068 g / cm^3
# Si number density = 15.666338 Si / 1000 Ang^3
#
#
#
# Elastic Constant Matrix: (Units=GPa)
#
#
# Indices 1 2 3 4 5 6 
#
# 1 91.0247 32.1911 25.7709 0.0000 0.0000 0.0000
# 2 32.1911 109.5311 28.7631 0.0000 0.0000 0.0000
# 3 25.7709 28.7631 26.3357 0.0000 0.0000 0.0000
# 4 0.0000 0.0000 0.0000 19.4626 0.0000 0.0000
# 5 0.0000 0.0000 0.0000 0.0000 -1.5494 0.0000
# 6 0.0000 0.0000 0.0000 0.0000 0.0000 9.1690
#
#
#
# Elastic Compliance Matrix: (Units=1/GPa)
#
#
# Indices 1 2 3 4 5 6 
#
# 1 0.015245 -0.000789 -0.014056 0.000000 0.000000 0.000000
# 2 -0.000789 0.012842 -0.013253 0.000000 0.000000 0.000000
# 3 -0.014056 -0.013253 0.066200 0.000000 0.000000 0.000000
# 4 0.000000 0.000000 0.000000 0.051381 0.000000 0.000000
# 5 0.000000 0.000000 0.000000 0.000000 -0.645393 0.000000
# 6 0.000000 0.000000 0.000000 0.000000 0.000000 0.109063
#
#
# Mechanical properties :
#
#
# Convention : Reuss Voigt Hill
#
# Bulk Modulus (GPa) = 26.25324 44.48240 35.36782
# Shear Modulus (GPa) = -15.53916 14.76086 -0.38915
#
# Velocity S-wave (km/s) = -3.15283 3.07286 -0.49894
# Velocity P-wave (km/s) = 1.88157 6.40665 4.72152
#
# Compressibility (1/GPa) = 0.03809054
#
# Stress axis : x y z
#
# Youngs Moduli (GPa) = 65.59708 77.86828 15.10563
#
# Poissons Ratio (x) = 0.06147 0.21232
# Poissons Ratio (y) = 0.05178 0.20020
# Poissons Ratio (z) = 0.92200 1.03202
#
# Static dielectric constant tensor:
#      x y z
#    x 1.513880 0.000000 0.000000 
#    y 0.000000 1.543830 0.000000 
#    z 0.000000 0.000000 1.515580 
# 
# From -- ./inp_files/18494.got.cif
#   From: 2010.05.17/outbox.cif.g08.bks.cpg/sg67_10_cif.got.tgz:18494.got - 2010.06.03 18:28:57.
