data_PCOD9501978
_publ_section_title
;
Structure prediction by ZEFSAII (Michael W. Deem and Ramdas Pophale) SiO2 
 PCOD9501978
Probable space group: C M M A
;
_chemical_formula_sum "Si O2"
_cell_formula_units_Z 72
_cell_length_a 8.852309
_cell_length_b 25.682722
_cell_length_c 16.942026
_cell_angle_alpha 90.000000
_cell_angle_beta 90.000000
_cell_angle_gamma 90.000000
_cell_volume 3851.793179
_symmetry_space_group_name_H-M "C M M A"
_symmetry_group_IT_number 67
_symmetry_cell_setting 'orthorhombic'
loop_
_space_group_symop_operation_xyz
x,y,z
-x,1/2-y,z
x,-y,-z
-x,1/2+y,-z
-x,-y,-z
x,1/2+y,-z
-x,y,z
x,1/2-y,z
1/2+x,1/2+y,z
1/2-x,-y,z
1/2+x,1/2-y,-z
1/2-x,y,-z
1/2-x,1/2-y,-z
1/2+x,y,-z
1/2-x,1/2+y,z
1/2+x,-y,z
loop_
_atom_site_type_symbol
_atom_site_label
_atom_site_fract_x
_atom_site_fract_y
_atom_site_fract_z
Si Si1 0.177767 0.338654 0.305373
Si Si2 0.177229 0.191402 0.122211
Si Si3 0.178234 0.084840 0.920209
Si Si4 0.319449 0.750000 0.587054
Si Si5 0.681902 0.554206 0.744461
O O1 0.189798 0.314628 0.217091
O O2 0.260137 0.300391 0.365508
O O3 0.252367 0.395574 0.300055
O O4 0.000000 0.342342 0.324140
O O5 0.220993 0.250000 0.099779
O O6 0.276459 0.145637 0.086277
O O7 0.000000 0.183226 0.102169
O O8 0.229849 0.060798 0.836810
O O9 0.000000 0.079231 0.925012
O O10 0.250000 0.063274 0.000000
O O11 0.500000 0.750000 0.584067
O O12 0.250000 0.750000 0.500000
O O13 0.500000 0.554225 0.741138
O O14 0.750000 0.500000 0.715119
#
# Coordination Sequence:
#
# PCOD9501978 Si02
#       5
#    16  16  16   8  16
#     4  10  19  36  59  85 116 149 186 231 279 330
#     4   9  17  31  51  73 100 138 181 224 276 335
#     4  10  21  34  48  70 101 138 184 235 289 340
#     4  12  24  38  60  92 127 158 187 222 268 328
#     4  10  21  37  57  83 109 145 193 239 286 337
#
# _framework density 18.692592000000001
#
# number of rings (size 3 to 8) (size 9 to 14) (size 15 to 20)
#    0.000    2.000    1.111    3.000    0.000    4.889 
#    0.000    2.222    0.000    0.667    0.000    4.667 
#    0.000    0.000    0.000    0.000    0.000    0.000 
#
# Total GULP energy -201114.656890 kJ/mol
# GULP energy per Si atom -5586.518247 kJ/mol
# Density = 1.865005 g / cm^3
# Si number density = 18.692592 Si / 1000 Ang^3
#
#
#
# Elastic Constant Matrix: (Units=GPa)
#
#
# Indices 1 2 3 4 5 6 
#
# 1 88.4328 48.9423 48.8401 0.0000 0.0000 0.0000
# 2 48.9423 147.0830 39.9548 0.0000 0.0000 0.0000
# 3 48.8401 39.9548 87.3629 0.0000 0.0000 0.0000
# 4 0.0000 0.0000 0.0000 50.1067 0.0000 0.0000
# 5 0.0000 0.0000 0.0000 0.0000 27.3517 0.0000
# 6 0.0000 0.0000 0.0000 0.0000 0.0000 26.5290
#
#
#
# Elastic Compliance Matrix: (Units=1/GPa)
#
#
# Indices 1 2 3 4 5 6 
#
# 1 0.017975 -0.003713 -0.008351 0.000000 0.000000 0.000000
# 2 -0.003713 0.008530 -0.001826 0.000000 0.000000 0.000000
# 3 -0.008351 -0.001826 0.016950 0.000000 0.000000 0.000000
# 4 0.000000 0.000000 0.000000 0.019957 0.000000 0.000000
# 5 0.000000 0.000000 0.000000 0.000000 0.036561 0.000000
# 6 0.000000 0.000000 0.000000 0.000000 0.000000 0.037695
#
#
# Mechanical properties :
#
#
# Convention : Reuss Voigt Hill
#
# Bulk Modulus (GPa) = 63.78908 66.48368 65.13638
# Shear Modulus (GPa) = 29.29600 33.14024 31.21812
#
# Velocity S-wave (km/s) = 3.96315 4.21516 4.09109
# Velocity P-wave (km/s) = 7.42573 7.70287 7.56557
#
# Compressibility (1/GPa) = 0.01567666
#
# Stress axis : x y z
#
# Youngs Moduli (GPa) = 55.63342 117.23018 58.99714
#
# Poissons Ratio (x) = 0.43524 0.49267
# Poissons Ratio (y) = 0.20655 0.10771
# Poissons Ratio (z) = 0.46458 0.21402
#
# Static dielectric constant tensor:
#      x y z
#    x 1.621810 0.000000 0.000000 
#    y 0.000000 1.640240 0.000000 
#    z 0.000000 0.000000 1.645310 
# 
# From -- ./inp_files/25069.got.cif
#   From: 2010.05.17/outbox.cif.g08.bks.cpg/sg67_13_cif.got.tgz:25069.got - 2010.06.03 18:28:57.
