data_PCOD9501524
_publ_section_title
;
Structure prediction by ZEFSAII (Michael W. Deem and Ramdas Pophale) SiO2 
 PCOD9501524
Probable space group: C M M A
;
_chemical_formula_sum "Si O2"
_cell_formula_units_Z 96
_cell_length_a 14.034088
_cell_length_b 20.232710
_cell_length_c 15.493290
_cell_angle_alpha 90.000000
_cell_angle_beta 90.000000
_cell_angle_gamma 90.000000
_cell_volume 4399.283017
_symmetry_space_group_name_H-M "C M M A"
_symmetry_group_IT_number 67
_symmetry_cell_setting 'orthorhombic'
loop_
_space_group_symop_operation_xyz
x,y,z
-x,1/2-y,z
x,-y,-z
-x,1/2+y,-z
-x,-y,-z
x,1/2+y,-z
-x,y,z
x,1/2-y,z
1/2+x,1/2+y,z
1/2-x,-y,z
1/2+x,1/2-y,-z
1/2-x,y,-z
1/2-x,1/2-y,-z
1/2+x,y,-z
1/2-x,1/2+y,z
1/2+x,-y,z
loop_
_atom_site_type_symbol
_atom_site_label
_atom_site_fract_x
_atom_site_fract_y
_atom_site_fract_z
Si Si1 0.113307 0.750000 0.350941
Si Si2 0.884561 0.326700 0.951358
Si Si3 0.614896 0.944170 0.068480
Si Si4 0.389787 0.359824 0.684294
Si Si5 0.387919 0.999200 0.255311
Si Si6 0.799933 0.637573 0.233294
Si Si7 0.615072 0.750000 0.454356
O O1 0.146032 0.812877 0.296850
O O2 0.153155 0.750000 0.448477
O O3 0.000000 0.750000 0.355173
O O4 0.860540 0.250000 0.963674
O O5 0.839413 0.353446 0.862821
O O6 0.000000 0.331347 0.942197
O O7 0.855519 0.373661 0.030609
O O8 0.500000 0.943027 0.070370
O O9 0.642180 0.966636 0.163722
O O10 0.643430 0.000000 0.000000
O O11 0.500000 0.345364 0.708910
O O12 0.383572 0.439450 0.675851
O O13 0.310879 0.343637 0.755881
O O14 0.363834 0.315482 0.601810
O O15 0.500000 0.018815 0.248322
O O16 0.325176 0.064023 0.266339
O O17 0.500000 0.750000 0.461472
#
# Coordination Sequence:
#
# PCOD9501524 Si02
#       7
#     8  16  16  16  16  16   8
#     4  11  23  39  68 105 129 150 191 255 326 383
#     4  10  19  32  53  88 132 162 195 252 318 378
#     4   9  16  30  54  83 120 167 204 242 306 376
#     4  10  23  42  61  82 118 170 218 255 293 363
#     4  10  20  37  61  89 123 163 210 257 310 372
#     4  12  21  34  62  96 128 159 202 255 318 373
#     4   9  21  45  67  87 123 166 204 247 308 377
#
# _framework density 21.821736000000001
#
# number of rings (size 3 to 8) (size 9 to 14) (size 15 to 20)
#    0.000    1.833    2.500    2.500    0.000    1.333 
#    1.500    1.667    0.000    7.000    0.000    0.000 
#    0.000    0.000    0.000    0.000    0.000    0.000 
#
# Total GULP energy -268328.275509 kJ/mol
# GULP energy per Si atom -5590.172406 kJ/mol
# Density = 2.177207 g / cm^3
# Si number density = 21.821736 Si / 1000 Ang^3
#
#
#
# Elastic Constant Matrix: (Units=GPa)
#
#
# Indices 1 2 3 4 5 6 
#
# 1 124.3974 23.1415 30.2462 0.0000 0.0000 0.0000
# 2 23.1415 160.3178 65.0916 0.0000 0.0000 0.0000
# 3 30.2462 65.0916 101.5632 0.0000 0.0000 0.0000
# 4 0.0000 0.0000 0.0000 -6.1933 0.0000 0.0000
# 5 0.0000 0.0000 0.0000 0.0000 29.3308 0.0000
# 6 0.0000 0.0000 0.0000 0.0000 0.0000 11.0879
#
#
#
# Elastic Compliance Matrix: (Units=1/GPa)
#
#
# Indices 1 2 3 4 5 6 
#
# 1 0.008675 -0.000275 -0.002407 0.000000 0.000000 0.000000
# 2 -0.000275 0.008440 -0.005328 0.000000 0.000000 0.000000
# 3 -0.002407 -0.005328 0.013977 0.000000 0.000000 0.000000
# 4 0.000000 0.000000 0.000000 -0.161464 0.000000 0.000000
# 5 0.000000 0.000000 0.000000 0.000000 0.034094 0.000000
# 6 0.000000 0.000000 0.000000 0.000000 0.000000 0.090188
#
#
# Mechanical properties :
#
#
# Convention : Reuss Voigt Hill
#
# Bulk Modulus (GPa) = 66.34176 69.24856 67.79516
# Shear Modulus (GPa) = 334.33337 24.69834 179.51586
#
# Velocity S-wave (km/s) = 12.39128 3.36791 9.07983
# Velocity P-wave (km/s) = 15.33599 6.85028 11.87685
#
# Compressibility (1/GPa) = 0.01507346
#
# Stress axis : x y z
#
# Youngs Moduli (GPa) = 115.27086 118.47842 71.54375
#
# Poissons Ratio (x) = 0.03256 0.17224
# Poissons Ratio (y) = 0.03168 0.38115
# Poissons Ratio (z) = 0.27751 0.63120
#
# Static dielectric constant tensor:
#      x y z
#    x 1.866780 0.000000 0.000000 
#    y 0.000000 1.797000 0.000000 
#    z 0.000000 0.000000 1.754270 
# 
# From -- ./inp_files/27281.got.cif
#   From: 2010.05.17/outbox.cif.g08.bks.cpg/sg67_14_cif.got.tgz:27281.got - 2010.06.03 18:28:57.
