data_PCOD9501001
_publ_section_title
;
Structure prediction by ZEFSAII (Michael W. Deem and Ramdas Pophale) SiO2 
 PCOD9501001
Probable space group: C M M A
;
_chemical_formula_sum "Si O2"
_cell_formula_units_Z 88
_cell_length_a 26.092824
_cell_length_b 21.214868
_cell_length_c 7.083608
_cell_angle_alpha 90.000000
_cell_angle_beta 90.000000
_cell_angle_gamma 90.000000
_cell_volume 3921.172413
_symmetry_space_group_name_H-M "C M M A"
_symmetry_group_IT_number 67
_symmetry_cell_setting 'orthorhombic'
loop_
_space_group_symop_operation_xyz
x,y,z
-x,1/2-y,z
x,-y,-z
-x,1/2+y,-z
-x,-y,-z
x,1/2+y,-z
-x,y,z
x,1/2-y,z
1/2+x,1/2+y,z
1/2-x,-y,z
1/2+x,1/2-y,-z
1/2-x,y,-z
1/2-x,1/2-y,-z
1/2+x,y,-z
1/2-x,1/2+y,z
1/2+x,-y,z
loop_
_atom_site_type_symbol
_atom_site_label
_atom_site_fract_x
_atom_site_fract_y
_atom_site_fract_z
Si Si1 0.116432 0.250000 0.023390
Si Si2 0.337236 0.943283 0.377610
Si Si3 0.057935 0.878390 0.024798
Si Si4 0.406672 0.750000 0.470189
Si Si5 0.693680 0.250000 0.267467
Si Si6 0.250000 0.648702 0.500000
Si Si7 0.055287 0.613429 0.569668
Si Si8 0.120216 0.500000 0.000000
O O1 0.089115 0.186302 0.947497
O O2 0.173970 0.250000 0.945667
O O3 0.111546 0.250000 0.250055
O O4 0.296249 0.888816 0.402915
O O5 0.392009 0.922906 0.468100
O O6 0.316234 0.000000 0.500000
O O7 0.347415 0.966950 0.165387
O O8 0.000000 0.873251 0.096985
O O9 0.054490 0.884497 0.797584
O O10 0.085595 0.943132 0.085859
O O11 0.357766 0.750000 0.604494
O O12 0.437959 0.685527 0.496888
O O13 0.725505 0.190343 0.334675
O O14 0.000000 0.587284 0.508515
#
# Coordination Sequence:
#
# PCOD9501001 Si02
#       8
#     8  16  16   8   8   8  16   8
#     4  10  22  37  67  95 130 170 219 275 328 394
#     4  11  24  44  66  93 130 170 218 267 328 388
#     4   9  18  36  63  98 135 175 215 264 326 394
#     4  10  18  39  64  91 133 161 206 267 323 392
#     4  11  24  44  70  92 122 170 217 279 337 386
#     4  11  25  48  70  90 129 171 216 292 338 377
#     4   9  18  35  64  96 130 166 206 258 322 390
#     4  10  23  40  69  96 134 176 219 269 324 408
#
# _framework density 22.442269
#
# number of rings (size 3 to 8) (size 9 to 14) (size 15 to 20)
#    0.000    2.000    1.818    1.091    2.545    3.273 
#    0.000    9.091    0.000    0.000    0.000    0.000 
#    0.000    0.000    0.000    0.000    0.000    0.000 
#
# Total GULP energy -245904.459975 kJ/mol
# GULP energy per Si atom -5588.737727 kJ/mol
# Density = 2.239119 g / cm^3
# Si number density = 22.442269 Si / 1000 Ang^3
#
#
#
# Elastic Constant Matrix: (Units=GPa)
#
#
# Indices 1 2 3 4 5 6 
#
# 1 115.8055 42.8540 9.0874 0.0000 0.0000 0.0000
# 2 42.8540 114.5687 -0.1325 0.0000 0.0000 0.0000
# 3 9.0874 -0.1325 59.7952 0.0000 0.0000 0.0000
# 4 0.0000 0.0000 0.0000 13.6938 0.0000 0.0000
# 5 0.0000 0.0000 0.0000 0.0000 24.8581 0.0000
# 6 0.0000 0.0000 0.0000 0.0000 0.0000 -16.5417
#
#
#
# Elastic Compliance Matrix: (Units=1/GPa)
#
#
# Indices 1 2 3 4 5 6 
#
# 1 0.010165 -0.003804 -0.001553 0.000000 0.000000 0.000000
# 2 -0.003804 0.010152 0.000601 0.000000 0.000000 0.000000
# 3 -0.001553 0.000601 0.016961 0.000000 0.000000 0.000000
# 4 0.000000 0.000000 0.000000 0.073026 0.000000 0.000000
# 5 0.000000 0.000000 0.000000 0.000000 0.040228 0.000000
# 6 0.000000 0.000000 0.000000 0.000000 0.000000 -0.060453
#
#
# Mechanical properties :
#
#
# Convention : Reuss Voigt Hill
#
# Bulk Modulus (GPa) = 36.01689 43.75413 39.88551
# Shear Modulus (GPa) = 45.93628 20.29274 33.11451
#
# Velocity S-wave (km/s) = 4.52914 3.01029 3.84545
# Velocity P-wave (km/s) = 6.59047 5.62326 6.12598
#
# Compressibility (1/GPa) = 0.02776475
#
# Stress axis : x y z
#
# Youngs Moduli (GPa) = 98.37993 98.50376 58.95833
#
# Poissons Ratio (x) = 0.37469 0.09157
# Poissons Ratio (y) = 0.37422 -0.03541
# Poissons Ratio (z) = 0.15281 -0.05916
#
# Static dielectric constant tensor:
#      x y z
#    x 1.822830 0.000000 0.000000 
#    y 0.000000 1.810940 0.000000 
#    z 0.000000 0.000000 1.896330 
# 
# From -- ./inp_files/12528.got.cif
#   From: 2010.05.17/outbox.cif.g08.bks.cpg/sg67_7_cif.got.tgz:12528.got - 2010.06.03 18:28:57.
