data_PCOD9501897
_publ_section_title
;
Structure prediction by ZEFSAII (Michael W. Deem and Ramdas Pophale) SiO2 
 PCOD9501897
Probable space group: C M M A
;
_chemical_formula_sum "Si O2"
_cell_formula_units_Z 116
_cell_length_a 8.968301
_cell_length_b 29.765905
_cell_length_c 26.145968
_cell_angle_alpha 90.000000
_cell_angle_beta 90.000000
_cell_angle_gamma 90.000000
_cell_volume 6979.655584
_symmetry_space_group_name_H-M "C M M A"
_symmetry_group_IT_number 67
_symmetry_cell_setting 'orthorhombic'
loop_
_space_group_symop_operation_xyz
x,y,z
-x,1/2-y,z
x,-y,-z
-x,1/2+y,-z
-x,-y,-z
x,1/2+y,-z
-x,y,z
x,1/2-y,z
1/2+x,1/2+y,z
1/2-x,-y,z
1/2+x,1/2-y,-z
1/2-x,y,-z
1/2-x,1/2-y,-z
1/2+x,y,-z
1/2-x,1/2+y,z
1/2+x,-y,z
loop_
_atom_site_type_symbol
_atom_site_label
_atom_site_fract_x
_atom_site_fract_y
_atom_site_fract_z
Si Si1 0.680384 0.854821 0.148897
Si Si2 0.178020 0.137334 0.657741
Si Si3 0.820935 0.803044 0.745911
Si Si4 0.677677 0.196879 0.054203
Si Si5 0.677535 0.952950 0.299874
Si Si6 0.176697 0.546417 0.822496
Si Si7 0.500000 0.250000 0.547116
Si Si8 0.335256 0.343069 0.551309
O O1 0.500000 0.853576 0.144746
O O2 0.718519 0.828763 0.201558
O O3 0.752612 0.830448 0.100814
O O4 0.728702 0.906829 0.152971
O O5 0.240098 0.173716 0.698325
O O6 0.243836 0.089367 0.674618
O O7 0.239553 0.148057 0.601580
O O8 0.000000 0.136982 0.658770
O O9 0.787809 0.750000 0.749648
O O10 0.000000 0.807895 0.738635
O O11 0.500000 0.190882 0.052134
O O12 0.708723 0.250000 0.061957
O O13 0.750000 0.183881 0.000000
O O14 0.500000 0.952370 0.308914
O O15 0.701326 0.949257 0.238561
O O16 0.750000 0.000000 0.316426
O O17 0.250000 0.500000 0.840144
O O18 0.000000 0.543032 0.830519
O O19 0.373106 0.290108 0.548186
O O20 0.500000 0.365130 0.555490
O O21 0.250000 0.356890 0.500000
#
# Coordination Sequence:
#
# PCOD9501897 Si02
#       8
#    16  16  16  16  16  16   4  16
#     4  10  19  35  56  79 108 145 182 223 276 330
#     4  12  24  36  53  80 114 149 186 228 275 328
#     4  10  21  36  53  74 108 151 187 221 274 334
#     4  10  21  36  55  80 108 142 185 231 272 320
#     4  10  19  36  58  82 110 143 184 229 276 330
#     4   9  18  32  53  79 109 141 180 222 270 326
#     4   8  22  36  62  80 106 142 194 232 284 322
#     4  10  21  38  57  80 106 143 184 235 277 328
#
# _framework density 16.619730000000001
#
# number of rings (size 3 to 8) (size 9 to 14) (size 15 to 20)
#    0.414    1.517    1.379    3.103    0.966    3.310 
#    0.000    0.000    0.000    0.828    0.000    5.793 
#    0.000    0.000    0.000    0.000    0.000    0.000 
#
# Total GULP energy -323020.149259 kJ/mol
# GULP energy per Si atom -5569.312918 kJ/mol
# Density = 1.658190 g / cm^3
# Si number density = 16.619730 Si / 1000 Ang^3
#
#
#
# Elastic Constant Matrix: (Units=GPa)
#
#
# Indices 1 2 3 4 5 6 
#
# 1 73.5181 58.0978 64.8854 0.0000 0.0000 0.0000
# 2 58.0978 120.3589 72.4438 0.0000 0.0000 0.0000
# 3 64.8854 72.4438 129.9235 0.0000 0.0000 0.0000
# 4 0.0000 0.0000 0.0000 9.3730 0.0000 0.0000
# 5 0.0000 0.0000 0.0000 0.0000 22.9976 0.0000
# 6 0.0000 0.0000 0.0000 0.0000 0.0000 29.6767
#
#
#
# Elastic Compliance Matrix: (Units=1/GPa)
#
#
# Indices 1 2 3 4 5 6 
#
# 1 0.028485 -0.007808 -0.009872 0.000000 0.000000 0.000000
# 2 -0.007808 0.014646 -0.004267 0.000000 0.000000 0.000000
# 3 -0.009872 -0.004267 0.015006 0.000000 0.000000 0.000000
# 4 0.000000 0.000000 0.000000 0.106689 0.000000 0.000000
# 5 0.000000 0.000000 0.000000 0.000000 0.043483 0.000000
# 6 0.000000 0.000000 0.000000 0.000000 0.000000 0.033696
#
#
# Mechanical properties :
#
#
# Convention : Reuss Voigt Hill
#
# Bulk Modulus (GPa) = 70.20923 79.40605 74.80764
# Shear Modulus (GPa) = 17.20297 20.96771 19.08534
#
# Velocity S-wave (km/s) = 3.22078 3.55578 3.39241
# Velocity P-wave (km/s) = 7.49449 8.04611 7.77520
#
# Compressibility (1/GPa) = 0.01424314
#
# Stress axis : x y z
#
# Youngs Moduli (GPa) = 35.10568 68.27990 66.63831
#
# Poissons Ratio (x) = 0.53312 0.65788
# Poissons Ratio (y) = 0.27410 0.28434
# Poissons Ratio (z) = 0.34658 0.29134
#
# Static dielectric constant tensor:
#      x y z
#    x 1.563880 0.000000 0.000000 
#    y 0.000000 1.550920 0.000000 
#    z 0.000000 0.000000 1.534080 
# 
# From -- ./inp_files/41206.got.cif
#   From: 2010.05.17/outbox.cif.g08.bks.cpg/sg67_21_cif.got.tgz:41206.got - 2010.06.03 18:28:57.
