data_PCOD9501160
_publ_section_title
;
Structure prediction by ZEFSAII (Michael W. Deem and Ramdas Pophale) SiO2 
 PCOD9501160
Probable space group: C M M A
;
_chemical_formula_sum "Si O2"
_cell_formula_units_Z 80
_cell_length_a 28.197689
_cell_length_b 27.704947
_cell_length_c 5.336170
_cell_angle_alpha 90.000000
_cell_angle_beta 90.000000
_cell_angle_gamma 90.000000
_cell_volume 4168.698604
_symmetry_space_group_name_H-M "C M M A"
_symmetry_group_IT_number 67
_symmetry_cell_setting 'orthorhombic'
loop_
_space_group_symop_operation_xyz
x,y,z
-x,1/2-y,z
x,-y,-z
-x,1/2+y,-z
-x,-y,-z
x,1/2+y,-z
-x,y,z
x,1/2-y,z
1/2+x,1/2+y,z
1/2-x,-y,z
1/2+x,1/2-y,-z
1/2-x,y,-z
1/2-x,1/2-y,-z
1/2+x,y,-z
1/2-x,1/2+y,z
1/2+x,-y,z
loop_
_atom_site_type_symbol
_atom_site_label
_atom_site_fract_x
_atom_site_fract_y
_atom_site_fract_z
Si Si1 0.945118 0.191110 0.101071
Si Si2 0.296066 0.193374 0.656996
Si Si3 0.692030 0.056166 0.497834
Si Si4 0.895353 0.307868 0.603385
Si Si5 0.694122 0.392474 0.995106
O O1 0.942019 0.250000 0.107922
O O2 0.926434 0.173806 0.369718
O O3 0.000000 0.179016 0.058802
O O4 0.912617 0.173383 0.871433
O O5 0.290411 0.250000 0.713914
O O6 0.250000 0.176345 0.500000
O O7 0.341060 0.186673 0.477285
O O8 0.305397 0.163500 0.910095
O O9 0.750000 0.057925 0.500000
O O10 0.673921 0.080560 0.751979
O O11 0.678994 0.000000 0.500000
O O12 0.675339 0.086120 0.254430
O O13 0.903168 0.250000 0.615739
O O14 0.750000 0.405115 0.000000
#
# Coordination Sequence:
#
# PCOD9501160 Si02
#       5
#    16  16  16  16  16
#     4   9  16  28  46  65  83 105 145 207 267 310
#     4  10  21  35  48  65  98 144 187 219 239 268
#     4   9  17  30  48  67  85 106 144 205 265 305
#     4   9  18  30  44  63  86 118 162 205 248 294
#     4  10  19  31  46  65  87 118 162 204 246 290
#
# _framework density 19.190642
#
# number of rings (size 3 to 8) (size 9 to 14) (size 15 to 20)
#    0.000    2.600    0.000    3.000    0.000    8.400 
#    0.000    7.000    0.000    0.600    0.000    0.000 
#    0.000    0.000    0.000    0.000    0.000   70.000 
#
# Total GULP energy -223223.395099 kJ/mol
# GULP energy per Si atom -5580.584877 kJ/mol
# Density = 1.914696 g / cm^3
# Si number density = 19.190642 Si / 1000 Ang^3
#
#
#
# Elastic Constant Matrix: (Units=GPa)
#
#
# Indices 1 2 3 4 5 6 
#
# 1 56.6837 -7.6893 25.4245 0.0000 0.0000 0.0000
# 2 -7.6893 97.4492 53.5454 0.0000 0.0000 0.0000
# 3 25.4245 53.5454 149.7270 0.0000 0.0000 0.0000
# 4 0.0000 0.0000 0.0000 20.9050 0.0000 0.0000
# 5 0.0000 0.0000 0.0000 0.0000 19.4576 0.0000
# 6 0.0000 0.0000 0.0000 0.0000 0.0000 0.0307
#
#
#
# Elastic Compliance Matrix: (Units=1/GPa)
#
#
# Indices 1 2 3 4 5 6 
#
# 1 0.020504 0.004395 -0.005053 0.000000 0.000000 0.000000
# 2 0.004395 0.013713 -0.005650 0.000000 0.000000 0.000000
# 3 -0.005053 -0.005650 0.009558 0.000000 0.000000 0.000000
# 4 0.000000 0.000000 0.000000 0.047836 0.000000 0.000000
# 5 0.000000 0.000000 0.000000 0.000000 0.051394 0.000000
# 6 0.000000 0.000000 0.000000 0.000000 0.000000 32.568785
#
#
# Mechanical properties :
#
#
# Convention : Reuss Voigt Hill
#
# Bulk Modulus (GPa) = 32.09549 49.60237 40.84893
# Shear Modulus (GPa) = 0.15274 23.58393 11.86834
#
# Velocity S-wave (km/s) = 0.28243 3.50941 2.48955
# Velocity P-wave (km/s) = 4.10697 6.50573 5.44021
#
# Compressibility (1/GPa) = 0.03115702
#
# Stress axis : x y z
#
# Youngs Moduli (GPa) = 48.76979 72.92243 104.62884
#
# Poissons Ratio (x) = -0.32046 0.52873
# Poissons Ratio (y) = -0.21432 0.59119
# Poissons Ratio (z) = 0.24645 0.41204
#
# Static dielectric constant tensor:
#      x y z
#    x 1.683920 0.000000 0.000000 
#    y 0.000000 1.697270 0.000000 
#    z 0.000000 0.000000 1.729960 
# 
# From -- ./inp_files/4248.got.cif
#   From: 2010.05.17/outbox.cif.g08.bks.cpg/sg67_3_cif.got.tgz:4248.got - 2010.06.03 18:28:57.
