data_PCOD9501724
_publ_section_title
;
Structure prediction by ZEFSAII (Michael W. Deem and Ramdas Pophale) SiO2 
 PCOD9501724
Probable space group: C M M A
;
_chemical_formula_sum "Si O2"
_cell_formula_units_Z 96
_cell_length_a 8.503474
_cell_length_b 29.704969
_cell_length_c 21.232386
_cell_angle_alpha 90.000000
_cell_angle_beta 90.000000
_cell_angle_gamma 90.000000
_cell_volume 5363.203705
_symmetry_space_group_name_H-M "C M M A"
_symmetry_group_IT_number 67
_symmetry_cell_setting 'orthorhombic'
loop_
_space_group_symop_operation_xyz
x,y,z
-x,1/2-y,z
x,-y,-z
-x,1/2+y,-z
-x,-y,-z
x,1/2+y,-z
-x,y,z
x,1/2-y,z
1/2+x,1/2+y,z
1/2-x,-y,z
1/2+x,1/2-y,-z
1/2-x,y,-z
1/2-x,1/2-y,-z
1/2+x,y,-z
1/2-x,1/2+y,z
1/2+x,-y,z
loop_
_atom_site_type_symbol
_atom_site_label
_atom_site_fract_x
_atom_site_fract_y
_atom_site_fract_z
Si Si1 0.191118 0.700380 0.240267
Si Si2 0.310848 0.050848 0.689275
Si Si3 0.188813 0.949494 0.068890
Si Si4 0.190555 0.605830 0.190430
Si Si5 0.812821 0.106092 0.433474
Si Si6 0.689582 0.699712 0.611812
O O1 0.245593 0.750000 0.219558
O O2 0.245142 0.657129 0.201469
O O3 0.232206 0.694875 0.314096
O O4 0.000000 0.700791 0.238040
O O5 0.500000 0.050890 0.690336
O O6 0.249222 0.076315 0.751031
O O7 0.256195 0.077634 0.626824
O O8 0.250000 0.000000 0.688305
O O9 0.240761 0.916542 0.124846
O O10 0.000000 0.950789 0.067409
O O11 0.250000 0.000000 0.081535
O O12 0.250000 0.936007 0.000000
O O13 0.000000 0.605613 0.191582
O O14 0.750000 0.088729 0.500000
O O15 0.760479 0.157759 0.424461
O O16 0.000000 0.104286 0.434245
O O17 0.500000 0.697662 0.607581
O O18 0.739119 0.750000 0.591313
#
# Coordination Sequence:
#
# PCOD9501724 Si02
#       6
#    16  16  16  16  16  16
#     4   8  14  27  51  81 108 135 170 211 255 306
#     4  11  24  39  56  79 104 134 173 218 268 316
#     4  10  20  33  51  77 108 144 179 215 260 308
#     4  10  19  33  57  84 109 139 176 217 261 308
#     4  11  24  39  55  76 103 138 176 217 267 319
#     4   9  17  32  56  81 105 136 172 213 263 314
#
# _framework density 17.899749
#
# number of rings (size 3 to 8) (size 9 to 14) (size 15 to 20)
#    0.000    2.167    1.667    3.500    0.000    5.667 
#    0.000    1.667    0.000    1.000    0.000    0.000 
#    0.000    0.000    0.000    0.000    0.000    0.667 
#
# Total GULP energy -267902.950419 kJ/mol
# GULP energy per Si atom -5581.311467 kJ/mol
# Density = 1.785901 g / cm^3
# Si number density = 17.899749 Si / 1000 Ang^3
#
#
#
# Elastic Constant Matrix: (Units=GPa)
#
#
# Indices 1 2 3 4 5 6 
#
# 1 18.0233 16.1544 21.8500 0.0000 0.0000 0.0000
# 2 16.1544 135.6019 84.0395 0.0000 0.0000 0.0000
# 3 21.8500 84.0395 133.5857 0.0000 0.0000 0.0000
# 4 0.0000 0.0000 0.0000 365.2305 0.0000 0.0000
# 5 0.0000 0.0000 0.0000 0.0000 16.7179 0.0000
# 6 0.0000 0.0000 0.0000 0.0000 0.0000 14.0243
#
#
#
# Elastic Compliance Matrix: (Units=1/GPa)
#
#
# Indices 1 2 3 4 5 6 
#
# 1 0.069544 -0.002024 -0.010101 0.000000 0.000000 0.000000
# 2 -0.002024 0.012146 -0.007310 0.000000 0.000000 0.000000
# 3 -0.010101 -0.007310 0.013737 0.000000 0.000000 0.000000
# 4 0.000000 0.000000 0.000000 0.002738 0.000000 0.000000
# 5 0.000000 0.000000 0.000000 0.000000 0.059816 0.000000
# 6 0.000000 0.000000 0.000000 0.000000 0.000000 0.071305
#
#
# Mechanical properties :
#
#
# Convention : Reuss Voigt Hill
#
# Bulk Modulus (GPa) = 17.68178 59.03320 38.35749
# Shear Modulus (GPa) = 17.42100 90.20569 53.81335
#
# Velocity S-wave (km/s) = 3.12309 7.10664 5.48899
# Velocity P-wave (km/s) = 4.78587 10.01951 7.85160
#
# Compressibility (1/GPa) = 0.05655538
#
# Stress axis : x y z
#
# Youngs Moduli (GPa) = 14.37931 82.33070 72.79669
#
# Poissons Ratio (x) = 0.16668 0.73535
# Poissons Ratio (y) = 0.02911 0.53215
# Poissons Ratio (z) = 0.14525 0.60184
#
# Static dielectric constant tensor:
#      x y z
#    x 1.610240 0.000000 0.000000 
#    y 0.000000 1.614480 0.000000 
#    z 0.000000 0.000000 1.603270 
# 
# From -- ./inp_files/37158.got.cif
#   From: 2010.05.17/outbox.cif.g08.bks.cpg/sg67_19_cif.got.tgz:37158.got - 2010.06.03 18:28:57.
