data_PCOD9501827
_publ_section_title
;
Structure prediction by ZEFSAII (Michael W. Deem and Ramdas Pophale) SiO2 
 PCOD9501827
Probable space group: C M M A
;
_chemical_formula_sum "Si O2"
_cell_formula_units_Z 80
_cell_length_a 26.512890
_cell_length_b 14.435621
_cell_length_c 9.115624
_cell_angle_alpha 90.000000
_cell_angle_beta 90.000000
_cell_angle_gamma 90.000000
_cell_volume 3488.823062
_symmetry_space_group_name_H-M "C M M A"
_symmetry_group_IT_number 67
_symmetry_cell_setting 'orthorhombic'
loop_
_space_group_symop_operation_xyz
x,y,z
-x,1/2-y,z
x,-y,-z
-x,1/2+y,-z
-x,-y,-z
x,1/2+y,-z
-x,y,z
x,1/2-y,z
1/2+x,1/2+y,z
1/2-x,-y,z
1/2+x,1/2-y,-z
1/2-x,y,-z
1/2-x,1/2-y,-z
1/2+x,y,-z
1/2-x,1/2+y,z
1/2+x,-y,z
loop_
_atom_site_type_symbol
_atom_site_label
_atom_site_fract_x
_atom_site_fract_y
_atom_site_fract_z
Si Si1 0.000000 0.136161 0.393531
Si Si2 0.000000 0.362891 0.058303
Si Si3 0.404066 0.355940 0.424830
Si Si4 0.299544 0.137642 0.907761
Si Si5 0.800702 0.101501 0.430750
Si Si6 0.896217 0.863264 0.097040
O O1 0.950126 0.105778 0.480391
O O2 0.000000 0.250000 0.386345
O O3 0.000000 0.103868 0.225803
O O4 0.000000 0.250000 0.061129
O O5 0.949278 0.390147 0.974334
O O6 0.419451 0.250000 0.393996
O O7 0.352994 0.354257 0.518025
O O8 0.393863 0.398294 0.264644
O O9 0.300579 0.250000 0.892977
O O10 0.297316 0.099253 0.743857
O O11 0.250000 0.113363 0.000000
O O12 0.349091 0.108472 0.997246
O O13 0.750000 0.144997 0.500000
O O14 0.803173 0.000000 0.500000
O O15 0.893697 0.750000 0.098849
#
# Coordination Sequence:
#
# PCOD9501827 Si02
#       6
#     8   8  16  16  16  16
#     4   9  17  29  52  85 114 143 180 230 288 339
#     4   9  15  25  43  73 112 143 171 216 277 337
#     4  10  19  34  57  84 113 146 188 236 287 343
#     4  10  20  36  60  87 111 141 188 243 294 342
#     4  11  24  40  55  79 114 152 192 233 286 348
#     4   9  17  29  49  79 110 139 175 223 276 330
#
# _framework density 22.930368999999999
#
# number of rings (size 3 to 8) (size 9 to 14) (size 15 to 20)
#    0.000    2.200    0.000    3.600    0.000    8.800 
#    0.000    7.500    0.000    0.000    0.000    4.200 
#    0.000    0.000    0.000    0.000    0.000    0.000 
#
# Total GULP energy -223757.919581 kJ/mol
# GULP energy per Si atom -5593.947990 kJ/mol
# Density = 2.287818 g / cm^3
# Si number density = 22.930369 Si / 1000 Ang^3
#
#
#
# Elastic Constant Matrix: (Units=GPa)
#
#
# Indices 1 2 3 4 5 6 
#
# 1 218.4018 -4.6218 122.4753 0.0000 0.0000 0.0000
# 2 -4.6218 70.5033 8.8463 0.0000 0.0000 0.0000
# 3 122.4753 8.8463 259.8484 0.0000 0.0000 0.0000
# 4 0.0000 0.0000 0.0000 12.2802 0.0000 0.0000
# 5 0.0000 0.0000 0.0000 0.0000 42.9507 0.0000
# 6 0.0000 0.0000 0.0000 0.0000 0.0000 -8.0277
#
#
#
# Elastic Compliance Matrix: (Units=1/GPa)
#
#
# Indices 1 2 3 4 5 6 
#
# 1 0.006267 0.000785 -0.002980 0.000000 0.000000 0.000000
# 2 0.000785 0.014343 -0.000858 0.000000 0.000000 0.000000
# 3 -0.002980 -0.000858 0.005282 0.000000 0.000000 0.000000
# 4 0.000000 0.000000 0.000000 0.081432 0.000000 0.000000
# 5 0.000000 0.000000 0.000000 0.000000 0.023283 0.000000
# 6 0.000000 0.000000 0.000000 0.000000 0.000000 -0.124569
#
#
# Mechanical properties :
#
#
# Convention : Reuss Voigt Hill
#
# Bulk Modulus (GPa) = 50.54519 89.12813 69.83666
# Shear Modulus (GPa) = 266.81459 37.57756 152.19607
#
# Velocity S-wave (km/s) = 10.79867 4.05256 8.15581
# Velocity P-wave (km/s) = 13.32563 7.80071 10.91841
#
# Compressibility (1/GPa) = 0.01978428
#
# Stress axis : x y z
#
# Youngs Moduli (GPa) = 159.57403 69.72114 189.30841
#
# Poissons Ratio (x) = -0.05472 0.56422
# Poissons Ratio (y) = -0.12523 0.16246
# Poissons Ratio (z) = 0.47560 0.05983
#
# Static dielectric constant tensor:
#      x y z
#    x 1.815610 0.000000 0.000000 
#    y 0.000000 1.982410 0.000000 
#    z 0.000000 0.000000 1.790060 
# 
# From -- ./inp_files/9990.got.cif
#   From: 2010.05.17/outbox.cif.g08.bks.cpg/sg67_5_cif.got.tgz:9990.got - 2010.06.03 18:28:57.
