data_PCOD9501665
_publ_section_title
;
Structure prediction by ZEFSAII (Michael W. Deem and Ramdas Pophale) SiO2 
 PCOD9501665
Probable space group: C M M A
;
_chemical_formula_sum "Si O2"
_cell_formula_units_Z 104
_cell_length_a 9.437206
_cell_length_b 27.867240
_cell_length_c 21.046439
_cell_angle_alpha 90.000000
_cell_angle_beta 90.000000
_cell_angle_gamma 90.000000
_cell_volume 5534.979516
_symmetry_space_group_name_H-M "C M M A"
_symmetry_group_IT_number 67
_symmetry_cell_setting 'orthorhombic'
loop_
_space_group_symop_operation_xyz
x,y,z
-x,1/2-y,z
x,-y,-z
-x,1/2+y,-z
-x,-y,-z
x,1/2+y,-z
-x,y,z
x,1/2-y,z
1/2+x,1/2+y,z
1/2-x,-y,z
1/2+x,1/2-y,-z
1/2-x,y,-z
1/2-x,1/2-y,-z
1/2+x,y,-z
1/2-x,1/2+y,z
1/2+x,-y,z
loop_
_atom_site_type_symbol
_atom_site_label
_atom_site_fract_x
_atom_site_fract_y
_atom_site_fract_z
Si Si1 0.172187 0.750000 0.567134
Si Si2 0.332890 0.893473 0.060173
Si Si3 0.842435 0.193573 0.756751
Si Si4 0.170512 0.950384 0.666304
Si Si5 0.339657 0.305733 0.091034
Si Si6 0.831035 0.548432 0.815308
Si Si7 0.830475 0.845588 0.646455
O O1 0.250000 0.750000 0.500000
O O2 0.212669 0.700289 0.603521
O O3 0.000000 0.750000 0.561137
O O4 0.500000 0.898729 0.051810
O O5 0.282991 0.838542 0.063976
O O6 0.292147 0.914748 0.129047
O O7 0.250000 0.915464 0.000000
O O8 0.832753 0.250000 0.741140
O O9 0.830247 0.190485 0.832388
O O10 0.726598 0.166305 0.716484
O O11 0.000000 0.176402 0.738558
O O12 0.201656 0.940873 0.741452
O O13 0.212995 0.900672 0.630872
O O14 0.000000 0.956978 0.659907
O O15 0.250000 0.000000 0.648750
O O16 0.500000 0.321927 0.073203
O O17 0.326103 0.250000 0.074286
O O18 0.750000 0.500000 0.830939
O O19 0.000000 0.541803 0.818318
O O20 0.000000 0.845909 0.647193
#
# Coordination Sequence:
#
# PCOD9501665 Si02
#       7
#     8  16  16  16  16  16  16
#     4  10  22  38  56  82 116 156 195 230 269 308
#     4  11  23  37  52  71  95 128 173 220 267 322
#     4   9  17  29  48  77 108 135 168 213 268 325
#     4   9  18  33  54  81 111 139 173 220 271 328
#     4   9  19  35  52  72 100 132 167 211 262 319
#     4   9  19  35  54  76 102 131 165 208 262 320
#     4  10  19  33  54  80 112 148 186 226 268 317
#
# _framework density 18.789591000000001
#
# number of rings (size 3 to 8) (size 9 to 14) (size 15 to 20)
#    0.000    2.462    0.769    2.308    0.000    5.231 
#    0.000    6.154    0.000    0.462    0.000    3.231 
#    0.000    0.000    0.000    0.000    0.000    0.000 
#
# Total GULP energy -289722.669831 kJ/mol
# GULP energy per Si atom -5571.589804 kJ/mol
# Density = 1.874683 g / cm^3
# Si number density = 18.789591 Si / 1000 Ang^3
#
#
#
# Elastic Constant Matrix: (Units=GPa)
#
#
# Indices 1 2 3 4 5 6 
#
# 1 14.9613 34.4311 15.6557 0.0000 0.0000 0.0000
# 2 34.4311 129.2387 37.1925 0.0000 0.0000 0.0000
# 3 15.6557 37.1925 36.1380 0.0000 0.0000 0.0000
# 4 0.0000 0.0000 0.0000 14.7033 0.0000 0.0000
# 5 0.0000 0.0000 0.0000 0.0000 24.4183 0.0000
# 6 0.0000 0.0000 0.0000 0.0000 0.0000 26.7985
#
#
#
# Elastic Compliance Matrix: (Units=1/GPa)
#
#
# Indices 1 2 3 4 5 6 
#
# 1 0.222729 -0.044855 -0.050327 0.000000 0.000000 0.000000
# 2 -0.044855 0.020027 -0.001179 0.000000 0.000000 0.000000
# 3 -0.050327 -0.001179 0.050688 0.000000 0.000000 0.000000
# 4 0.000000 0.000000 0.000000 0.068012 0.000000 0.000000
# 5 0.000000 0.000000 0.000000 0.000000 0.040953 0.000000
# 6 0.000000 0.000000 0.000000 0.000000 0.000000 0.037316
#
#
# Mechanical properties :
#
#
# Convention : Reuss Voigt Hill
#
# Bulk Modulus (GPa) = 9.92836 39.43296 24.68066
# Shear Modulus (GPa) = 7.50728 19.38795 13.44762
#
# Velocity S-wave (km/s) = 2.00103 3.21572 2.67815
# Velocity P-wave (km/s) = 3.26102 5.90084 4.76730
#
# Compressibility (1/GPa) = 0.10072152
#
# Stress axis : x y z
#
# Youngs Moduli (GPa) = 4.48977 49.93255 19.72853
#
# Poissons Ratio (x) = 2.23973 0.99287
# Poissons Ratio (y) = 0.20139 0.02327
# Poissons Ratio (z) = 0.22596 0.05888
#
# Static dielectric constant tensor:
#      x y z
#    x 1.639880 0.000000 0.000000 
#    y 0.000000 1.688040 0.000000 
#    z 0.000000 0.000000 1.656610 
# 
# From -- ./inp_files/37319.got.cif
#   From: 2010.05.17/outbox.cif.g08.bks.cpg/sg67_19_cif.got.tgz:37319.got - 2010.06.03 18:28:57.
