data_PCOD9501117
_publ_section_title
;
Structure prediction by ZEFSAII (Michael W. Deem and Ramdas Pophale) SiO2 
 PCOD9501117
Probable space group: C M M A
;
_chemical_formula_sum "Si O2"
_cell_formula_units_Z 80
_cell_length_a 18.636032
_cell_length_b 14.225846
_cell_length_c 13.362914
_cell_angle_alpha 90.000000
_cell_angle_beta 90.000000
_cell_angle_gamma 90.000000
_cell_volume 3542.686513
_symmetry_space_group_name_H-M "C M M A"
_symmetry_group_IT_number 67
_symmetry_cell_setting 'orthorhombic'
loop_
_space_group_symop_operation_xyz
x,y,z
-x,1/2-y,z
x,-y,-z
-x,1/2+y,-z
-x,-y,-z
x,1/2+y,-z
-x,y,z
x,1/2-y,z
1/2+x,1/2+y,z
1/2-x,-y,z
1/2+x,1/2-y,-z
1/2-x,y,-z
1/2-x,1/2-y,-z
1/2+x,y,-z
1/2-x,1/2+y,z
1/2+x,-y,z
loop_
_atom_site_type_symbol
_atom_site_label
_atom_site_fract_x
_atom_site_fract_y
_atom_site_fract_z
Si Si1 0.119227 0.852788 0.686840
Si Si2 0.621605 0.502242 0.158506
Si Si3 0.789485 0.854415 0.264074
Si Si4 0.168869 0.888925 0.480441
Si Si5 0.080863 0.141166 0.002384
O O1 0.094892 0.750000 0.723558
O O2 0.205433 0.860938 0.707769
O O3 0.115333 0.854177 0.566361
O O4 0.089121 0.942254 0.746038
O O5 0.687727 0.439415 0.194536
O O6 0.632659 0.587232 0.079635
O O7 0.578933 0.422989 0.096721
O O8 0.801174 0.750000 0.222331
O O9 0.838642 0.865668 0.364058
O O10 0.250000 0.853266 0.500000
O O11 0.170609 0.000000 0.500000
O O12 0.099223 0.250000 0.986008
O O13 0.000000 0.137807 0.045737
#
# Coordination Sequence:
#
# PCOD9501117 Si02
#       5
#    16  16  16  16  16
#     4  10  19  30  47  75 113 152 182 205 233 277
#     4  11  19  33  56  80 101 127 166 215 259 304
#     4  10  19  30  47  75 113 152 182 205 233 277
#     4   9  15  27  45  68 105 153 189 211 230 263
#     4  10  23  43  62  77  92 115 157 216 280 334
#
# _framework density 22.581734000000001
#
# number of rings (size 3 to 8) (size 9 to 14) (size 15 to 20)
#    0.000    2.000    2.000    3.600    0.000    2.400 
#    0.000    8.000    0.000   14.400    0.000   11.200 
#    0.000   25.600    0.000    0.000    0.000    0.000 
#
# Total GULP energy -222863.009525 kJ/mol
# GULP energy per Si atom -5571.575238 kJ/mol
# Density = 2.253034 g / cm^3
# Si number density = 22.581734 Si / 1000 Ang^3
#
#
#
# Elastic Constant Matrix: (Units=GPa)
#
#
# Indices 1 2 3 4 5 6 
#
# 1 27.5608 25.2107 29.8888 0.0000 0.0000 0.0000
# 2 25.2107 210.7254 49.2414 0.0000 0.0000 0.0000
# 3 29.8888 49.2414 89.2548 0.0000 0.0000 0.0000
# 4 0.0000 0.0000 0.0000 25.4620 0.0000 0.0000
# 5 0.0000 0.0000 0.0000 0.0000 -9.7866 0.0000
# 6 0.0000 0.0000 0.0000 0.0000 0.0000 -0.3331
#
#
#
# Elastic Compliance Matrix: (Units=1/GPa)
#
#
# Indices 1 2 3 4 5 6 
#
# 1 0.058352 -0.002772 -0.018011 0.000000 0.000000 0.000000
# 2 -0.002772 0.005580 -0.002150 0.000000 0.000000 0.000000
# 3 -0.018011 -0.002150 0.018421 0.000000 0.000000 0.000000
# 4 0.000000 0.000000 0.000000 0.039274 0.000000 0.000000
# 5 0.000000 0.000000 0.000000 0.000000 -0.102180 0.000000
# 6 0.000000 0.000000 0.000000 0.000000 0.000000 -3.001994
#
#
# Mechanical properties :
#
#
# Convention : Reuss Voigt Hill
#
# Bulk Modulus (GPa) = 27.40746 59.58031 43.49389
# Shear Modulus (GPa) = -1.70968 17.94846 8.11939
#
# Velocity S-wave (km/s) = -0.87106 2.82232 1.89825
# Velocity P-wave (km/s) = 3.33941 6.08787 4.90988
#
# Compressibility (1/GPa) = 0.03648642
#
# Stress axis : x y z
#
# Youngs Moduli (GPa) = 17.13752 179.22585 54.28533
#
# Poissons Ratio (x) = 0.49688 0.97772
# Poissons Ratio (y) = 0.04751 0.11670
# Poissons Ratio (z) = 0.30866 0.38530
#
# Static dielectric constant tensor:
#      x y z
#    x 1.841390 0.000000 0.000000 
#    y 0.000000 1.851100 0.000000 
#    z 0.000000 0.000000 1.931460 
# 
# From -- ./inp_files/21630.got.cif
#   From: 2010.05.17/outbox.cif.g08.bks.cpg/sg67_11_cif.got.tgz:21630.got - 2010.06.03 18:28:57.
