data_PCOD9501508
_publ_section_title
;
Structure prediction by ZEFSAII (Michael W. Deem and Ramdas Pophale) SiO2 
 PCOD9501508
Probable space group: C M M A
;
_chemical_formula_sum "Si O2"
_cell_formula_units_Z 104
_cell_length_a 10.555006
_cell_length_b 27.129879
_cell_length_c 21.399708
_cell_angle_alpha 90.000000
_cell_angle_beta 90.000000
_cell_angle_gamma 90.000000
_cell_volume 6127.935546
_symmetry_space_group_name_H-M "C M M A"
_symmetry_group_IT_number 67
_symmetry_cell_setting 'orthorhombic'
loop_
_space_group_symop_operation_xyz
x,y,z
-x,1/2-y,z
x,-y,-z
-x,1/2+y,-z
-x,-y,-z
x,1/2+y,-z
-x,y,z
x,1/2-y,z
1/2+x,1/2+y,z
1/2-x,-y,z
1/2+x,1/2-y,-z
1/2-x,y,-z
1/2-x,1/2-y,-z
1/2+x,y,-z
1/2-x,1/2+y,z
1/2+x,-y,z
loop_
_atom_site_type_symbol
_atom_site_label
_atom_site_fract_x
_atom_site_fract_y
_atom_site_fract_z
Si Si1 0.355487 0.958436 0.255990
Si Si2 0.644291 0.458151 0.598641
Si Si3 0.644903 0.309159 0.267697
Si Si4 0.144765 0.357261 0.183772
Si Si5 0.750000 0.382639 0.500000
Si Si6 0.850288 0.305034 0.594895
Si Si7 0.355223 0.307502 0.947463
O O1 0.500000 0.977828 0.250317
O O2 0.342412 0.941285 0.328769
O O3 0.342100 0.913358 0.207805
O O4 0.250000 0.000000 0.245648
O O5 0.500000 0.476926 0.591471
O O6 0.750000 0.500000 0.588891
O O7 0.670068 0.416436 0.547290
O O8 0.500000 0.327596 0.258446
O O9 0.639254 0.250000 0.266071
O O10 0.744808 0.328012 0.218250
O O11 0.695078 0.322169 0.336977
O O12 0.157733 0.344555 0.110664
O O13 0.000000 0.341928 0.201004
O O14 0.828304 0.345704 0.543340
O O15 0.798935 0.250000 0.580113
O O16 0.000000 0.299774 0.603225
O O17 0.500000 0.311844 0.971664
O O18 0.340639 0.250000 0.926150
O O19 0.250000 0.316353 0.000000
#
# Coordination Sequence:
#
# PCOD9501508 Si02
#       7
#    16  16  16  16   8  16  16
#     4   9  19  36  54  73  98 126 160 206 256 303
#     4  10  22  37  52  72  97 124 158 203 255 308
#     4   9  18  32  49  71 100 132 166 205 249 299
#     4  10  19  32  53  79 104 131 167 210 252 291
#     4  12  20  30  52  72  92 124 168 208 250 300
#     4   9  19  34  48  66  96 131 166 205 250 302
#     4   9  18  32  50  75 109 144 171 197 233 278
#
# _framework density 16.971458999999999
#
# number of rings (size 3 to 8) (size 9 to 14) (size 15 to 20)
#    0.000    2.462    0.000    3.231    0.000    4.000 
#    0.000    5.385    0.000    2.308    0.000    3.231 
#    0.000    0.000    0.000    0.000    0.000    0.000 
#
# Total GULP energy -289625.165931 kJ/mol
# GULP energy per Si atom -5569.714729 kJ/mol
# Density = 1.693283 g / cm^3
# Si number density = 16.971459 Si / 1000 Ang^3
#
#
#
# Elastic Constant Matrix: (Units=GPa)
#
#
# Indices 1 2 3 4 5 6 
#
# 1 100.8121 55.0261 67.0700 0.0000 0.0000 0.0000
# 2 55.0261 57.3976 48.6961 0.0000 0.0000 0.0000
# 3 67.0700 48.6961 94.3964 0.0000 0.0000 0.0000
# 4 0.0000 0.0000 0.0000 25.9944 0.0000 0.0000
# 5 0.0000 0.0000 0.0000 0.0000 21.4678 0.0000
# 6 0.0000 0.0000 0.0000 0.0000 0.0000 20.2665
#
#
#
# Elastic Compliance Matrix: (Units=1/GPa)
#
#
# Indices 1 2 3 4 5 6 
#
# 1 0.024857 -0.015731 -0.009546 0.000000 0.000000 0.000000
# 2 -0.015731 0.040938 -0.009941 0.000000 0.000000 0.000000
# 3 -0.009546 -0.009941 0.022505 0.000000 0.000000 0.000000
# 4 0.000000 0.000000 0.000000 0.038470 0.000000 0.000000
# 5 0.000000 0.000000 0.000000 0.000000 0.046581 0.000000
# 6 0.000000 0.000000 0.000000 0.000000 0.000000 0.049343
#
#
# Mechanical properties :
#
#
# Convention : Reuss Voigt Hill
#
# Bulk Modulus (GPa) = 55.98353 66.02118 61.00236
# Shear Modulus (GPa) = 16.71774 18.99997 17.85886
#
# Velocity S-wave (km/s) = 3.14196 3.34956 3.24742
# Velocity P-wave (km/s) = 6.79860 7.34474 7.07694
#
# Compressibility (1/GPa) = 0.01786240
#
# Stress axis : x y z
#
# Youngs Moduli (GPa) = 40.23047 24.42746 44.43537
#
# Poissons Ratio (x) = 0.38427 0.42418
# Poissons Ratio (y) = 0.63286 0.44175
# Poissons Ratio (z) = 0.38404 0.24284
#
# Static dielectric constant tensor:
#      x y z
#    x 1.583270 0.000000 0.000000 
#    y 0.000000 1.573330 0.000000 
#    z 0.000000 0.000000 1.588980 
# 
# From -- ./inp_files/37300.got.cif
#   From: 2010.05.17/outbox.cif.g08.bks.cpg/sg67_19_cif.got.tgz:37300.got - 2010.06.03 18:28:57.
