data_PCOD9501495
_publ_section_title
;
Structure prediction by ZEFSAII (Michael W. Deem and Ramdas Pophale) SiO2 
 PCOD9501495
Probable space group: C M M A
;
_chemical_formula_sum "Si O2"
_cell_formula_units_Z 84
_cell_length_a 15.021160
_cell_length_b 21.901075
_cell_length_c 13.232948
_cell_angle_alpha 90.000000
_cell_angle_beta 90.000000
_cell_angle_gamma 90.000000
_cell_volume 4353.369301
_symmetry_space_group_name_H-M "C M M A"
_symmetry_group_IT_number 67
_symmetry_cell_setting 'orthorhombic'
loop_
_space_group_symop_operation_xyz
x,y,z
-x,1/2-y,z
x,-y,-z
-x,1/2+y,-z
-x,-y,-z
x,1/2+y,-z
-x,y,z
x,1/2-y,z
1/2+x,1/2+y,z
1/2-x,-y,z
1/2+x,1/2-y,-z
1/2-x,y,-z
1/2-x,1/2-y,-z
1/2+x,y,-z
1/2-x,1/2+y,z
1/2+x,-y,z
loop_
_atom_site_type_symbol
_atom_site_label
_atom_site_fract_x
_atom_site_fract_y
_atom_site_fract_z
Si Si1 0.606165 0.680964 0.141660
Si Si2 0.901708 0.409051 0.548259
Si Si3 0.750000 0.000000 0.500000
Si Si4 0.846914 0.319145 0.707856
Si Si5 0.603819 0.676167 0.925906
Si Si6 0.852725 0.820706 0.637061
O O1 0.500000 0.686133 0.127289
O O2 0.645108 0.750000 0.150850
O O3 0.618404 0.654127 0.252856
O O4 0.636991 0.652767 0.035262
O O5 0.819732 0.456197 0.557791
O O6 0.903276 0.367219 0.646969
O O7 0.882266 0.364371 0.452931
O O8 0.000000 0.436087 0.534785
O O9 0.883299 0.250000 0.706086
O O10 0.840148 0.337396 0.825611
O O11 0.753470 0.318100 0.648846
O O12 0.500000 0.658515 0.908071
O O13 0.604690 0.750000 0.937051
O O14 0.884771 0.750000 0.623544
#
# Coordination Sequence:
#
# PCOD9501495 Si02
#       6
#    16  16   4  16  16  16
#     4   8  14  25  42  69 108 149 183 212 250 313
#     4  12  24  40  62  81 105 144 180 226 283 325
#     4  12  26  48  58  78 106 132 190 242 268 328
#     4  10  19  32  52  82 118 147 177 221 269 324
#     4   8  14  25  42  69 108 149 183 212 250 313
#     4  10  19  32  52  82 118 147 177 221 269 324
#
# _framework density 19.295400000000001
#
# number of rings (size 3 to 8) (size 9 to 14) (size 15 to 20)
#    0.000    2.286    1.905    3.143    0.000    5.333 
#    0.000    3.810    0.000    0.000    0.000    2.667 
#    0.000    6.095    0.000    0.000    0.000    0.000 
#
# Total GULP energy -233910.364966 kJ/mol
# GULP energy per Si atom -5569.294404 kJ/mol
# Density = 1.925148 g / cm^3
# Si number density = 19.295400 Si / 1000 Ang^3
#
#
#
# Elastic Constant Matrix: (Units=GPa)
#
#
# Indices 1 2 3 4 5 6 
#
# 1 80.7684 22.8934 7.5771 0.0000 0.0000 0.0000
# 2 22.8934 52.4486 35.2071 0.0000 0.0000 0.0000
# 3 7.5771 35.2071 124.4969 0.0000 0.0000 0.0000
# 4 0.0000 0.0000 0.0000 -1.7471 0.0000 0.0000
# 5 0.0000 0.0000 0.0000 0.0000 26.4064 0.0000
# 6 0.0000 0.0000 0.0000 0.0000 0.0000 3.0642
#
#
#
# Elastic Compliance Matrix: (Units=1/GPa)
#
#
# Indices 1 2 3 4 5 6 
#
# 1 0.014250 -0.006959 0.001101 0.000000 0.000000 0.000000
# 2 -0.006959 0.026932 -0.007193 0.000000 0.000000 0.000000
# 3 0.001101 -0.007193 0.009999 0.000000 0.000000 0.000000
# 4 0.000000 0.000000 0.000000 -0.572371 0.000000 0.000000
# 5 0.000000 0.000000 0.000000 0.000000 0.037870 0.000000
# 6 0.000000 0.000000 0.000000 0.000000 0.000000 0.326349
#
#
# Mechanical properties :
#
#
# Convention : Reuss Voigt Hill
#
# Bulk Modulus (GPa) = 39.87286 43.22989 41.55138
# Shear Modulus (GPa) = -40.81351 18.34711 -11.23320
#
# Velocity S-wave (km/s) = -4.60411 3.08694 -2.41544
# Velocity P-wave (km/s) = 2.74855 5.92946 3.71510
#
# Compressibility (1/GPa) = 0.02507972
#
# Stress axis : x y z
#
# Youngs Moduli (GPa) = 70.17388 37.13043 100.00589
#
# Poissons Ratio (x) = 0.25839 -0.11007
# Poissons Ratio (y) = 0.48834 0.71932
# Poissons Ratio (z) = -0.07724 0.26707
#
# Static dielectric constant tensor:
#      x y z
#    x 1.760760 0.000000 0.000000 
#    y 0.000000 1.656370 0.000000 
#    z 0.000000 0.000000 1.725430 
# 
# From -- ./inp_files/19363.got.cif
#   From: 2010.05.17/outbox.cif.g08.bks.cpg/sg67_10_cif.got.tgz:19363.got - 2010.06.03 18:28:57.
