data_PCOD9501519
_publ_section_title
;
Structure prediction by ZEFSAII (Michael W. Deem and Ramdas Pophale) SiO2 
 PCOD9501519
Probable space group: C M M A
;
_chemical_formula_sum "Si O2"
_cell_formula_units_Z 96
_cell_length_a 29.281567
_cell_length_b 8.693072
_cell_length_c 21.160582
_cell_angle_alpha 90.000000
_cell_angle_beta 90.000000
_cell_angle_gamma 90.000000
_cell_volume 5386.357804
_symmetry_space_group_name_H-M "C M M A"
_symmetry_group_IT_number 67
_symmetry_cell_setting 'orthorhombic'
loop_
_space_group_symop_operation_xyz
x,y,z
-x,1/2-y,z
x,-y,-z
-x,1/2+y,-z
-x,-y,-z
x,1/2+y,-z
-x,y,z
x,1/2-y,z
1/2+x,1/2+y,z
1/2-x,-y,z
1/2+x,1/2-y,-z
1/2-x,y,-z
1/2-x,1/2-y,-z
1/2+x,y,-z
1/2-x,1/2+y,z
1/2+x,-y,z
loop_
_atom_site_type_symbol
_atom_site_label
_atom_site_fract_x
_atom_site_fract_y
_atom_site_fract_z
Si Si1 0.446067 0.566955 0.815687
Si Si2 0.797660 0.565571 0.745636
Si Si3 0.447035 0.435324 0.567972
Si Si4 0.392477 0.067026 0.934620
Si Si5 0.701395 0.566149 0.887519
Si Si6 0.395299 0.435423 0.693639
O O1 0.500000 0.534614 0.814493
O O2 0.439261 0.750000 0.821753
O O3 0.422196 0.485289 0.874843
O O4 0.423003 0.509134 0.751277
O O5 0.794441 0.750000 0.753447
O O6 0.750000 0.500000 0.720061
O O7 0.804062 0.490857 0.814915
O O8 0.841916 0.529471 0.703865
O O9 0.432844 0.500000 0.500000
O O10 0.500000 0.481566 0.578960
O O11 0.445805 0.250000 0.565206
O O12 0.415989 0.485550 0.626648
O O13 0.390102 0.250000 0.937373
O O14 0.341799 0.998880 0.924653
O O15 0.411490 0.000000 0.000000
O O16 0.702025 0.750000 0.889485
O O17 0.750000 0.500000 0.910019
O O18 0.400317 0.250000 0.698057
#
# Coordination Sequence:
#
# PCOD9501519 Si02
#       6
#    16  16  16  16  16  16
#     4  11  24  40  59  85 113 143 185 234 282 335
#     4  10  19  32  53  82 112 146 184 228 278 332
#     4   9  18  33  53  80 114 150 187 229 278 333
#     4  12  25  42  61  82 110 147 188 232 285 339
#     4  11  21  36  58  84 114 146 183 229 281 337
#     4  10  20  35  58  84 113 149 189 229 278 335
#
# _framework density 17.822803
#
# number of rings (size 3 to 8) (size 9 to 14) (size 15 to 20)
#    0.000    1.500    1.667    5.500    0.000    4.000 
#    0.000    3.333    0.000    0.500    0.000    3.500 
#    0.000    0.000    0.000    0.000    0.000    0.000 
#
# Total GULP energy -268248.946376 kJ/mol
# GULP energy per Si atom -5588.519716 kJ/mol
# Density = 1.778224 g / cm^3
# Si number density = 17.822803 Si / 1000 Ang^3
#
#
#
# Elastic Constant Matrix: (Units=GPa)
#
#
# Indices 1 2 3 4 5 6 
#
# 1 103.0286 65.4349 70.2770 0.0000 0.0000 0.0000
# 2 65.4349 92.9126 51.6032 0.0000 0.0000 0.0000
# 3 70.2770 51.6032 136.5071 0.0000 0.0000 0.0000
# 4 0.0000 0.0000 0.0000 28.4606 0.0000 0.0000
# 5 0.0000 0.0000 0.0000 0.0000 -18.0652 0.0000
# 6 0.0000 0.0000 0.0000 0.0000 0.0000 24.3142
#
#
#
# Elastic Compliance Matrix: (Units=1/GPa)
#
#
# Indices 1 2 3 4 5 6 
#
# 1 0.021613 -0.011444 -0.006801 0.000000 0.000000 0.000000
# 2 -0.011444 0.019683 -0.001549 0.000000 0.000000 0.000000
# 3 -0.006801 -0.001549 0.011412 0.000000 0.000000 0.000000
# 4 0.000000 0.000000 0.000000 0.035136 0.000000 0.000000
# 5 0.000000 0.000000 0.000000 0.000000 -0.055355 0.000000
# 6 0.000000 0.000000 0.000000 0.000000 0.000000 0.041128
#
#
# Mechanical properties :
#
#
# Convention : Reuss Voigt Hill
#
# Bulk Modulus (GPa) = 76.21597 78.56429 77.39013
# Shear Modulus (GPa) = 42.52436 16.61748 29.57092
#
# Velocity S-wave (km/s) = 4.88992 3.05679 4.07770
# Velocity P-wave (km/s) = 8.64510 7.52563 8.10472
#
# Compressibility (1/GPa) = 0.01312061
#
# Stress axis : x y z
#
# Youngs Moduli (GPa) = 46.26743 50.80560 87.62457
#
# Poissons Ratio (x) = 0.58144 0.59592
# Poissons Ratio (y) = 0.52950 0.13571
# Poissons Ratio (z) = 0.31466 0.07869
#
# Static dielectric constant tensor:
#      x y z
#    x 1.614050 0.000000 0.000000 
#    y 0.000000 1.598560 0.000000 
#    z 0.000000 0.000000 1.589810 
# 
# From -- ./inp_files/39891.got.cif
#   From: 2010.05.17/outbox.cif.g08.bks.cpg/sg67_20_cif.got.tgz:39891.got - 2010.06.03 18:28:57.
