data_PCOD9501646
_publ_section_title
;
Structure prediction by ZEFSAII (Michael W. Deem and Ramdas Pophale) SiO2 
 PCOD9501646
Probable space group: C M M A
;
_chemical_formula_sum "Si O2"
_cell_formula_units_Z 112
_cell_length_a 13.973327
_cell_length_b 30.120746
_cell_length_c 13.723720
_cell_angle_alpha 90.000000
_cell_angle_beta 90.000000
_cell_angle_gamma 90.000000
_cell_volume 5776.135797
_symmetry_space_group_name_H-M "C M M A"
_symmetry_group_IT_number 67
_symmetry_cell_setting 'orthorhombic'
loop_
_space_group_symop_operation_xyz
x,y,z
-x,1/2-y,z
x,-y,-z
-x,1/2+y,-z
-x,-y,-z
x,1/2+y,-z
-x,y,z
x,1/2-y,z
1/2+x,1/2+y,z
1/2-x,-y,z
1/2+x,1/2-y,-z
1/2-x,y,-z
1/2-x,1/2-y,-z
1/2+x,y,-z
1/2-x,1/2+y,z
1/2+x,-y,z
loop_
_atom_site_type_symbol
_atom_site_label
_atom_site_fract_x
_atom_site_fract_y
_atom_site_fract_z
Si Si1 0.116754 0.955311 0.558783
Si Si2 0.271956 0.202021 0.884065
Si Si3 0.390030 0.618015 0.584420
Si Si4 0.114897 0.531107 0.778800
Si Si5 0.217476 0.607005 0.889099
Si Si6 0.113271 0.300841 0.717080
Si Si7 0.108724 0.569597 0.217076
O O1 0.147529 0.909199 0.508253
O O2 0.150808 0.957845 0.669978
O O3 0.000000 0.955129 0.558933
O O4 0.143697 0.000000 0.500000
O O5 0.317674 0.250000 0.861340
O O6 0.325889 0.155590 0.868172
O O7 0.177581 0.199147 0.815110
O O8 0.250000 0.202320 0.000000
O O9 0.500000 0.630001 0.560547
O O10 0.351507 0.662341 0.638241
O O11 0.392135 0.580248 0.668465
O O12 0.151460 0.567177 0.854168
O O13 0.140949 0.480528 0.802847
O O14 0.000000 0.531667 0.775439
O O15 0.316165 0.602097 0.830354
O O16 0.250000 0.603005 0.000000
O O17 0.118304 0.250000 0.679212
O O18 0.000000 0.310514 0.737996
O O19 0.000000 0.575786 0.181660
#
# Coordination Sequence:
#
# PCOD9501646 Si02
#       7
#    16  16  16  16  16  16  16
#     4   9  15  28  52  77 101 135 173 213 260 305
#     4   9  18  33  52  72  96 130 170 218 275 316
#     4   9  15  26  48  76 103 131 162 204 263 312
#     4  10  21  36  54  77 108 144 183 220 254 303
#     4  11  23  37  54  76 106 141 178 221 266 318
#     4   9  16  27  48  77 104 130 166 214 268 326
#     4  10  19  33  54  77 105 139 175 214 260 314
#
# _framework density 19.390125000000001
#
# number of rings (size 3 to 8) (size 9 to 14) (size 15 to 20)
#    0.000    2.429    2.857    0.429    0.000    1.714 
#    0.000    4.286    0.000    2.143    0.000    4.000 
#    0.000    0.000    0.000    0.000    0.000    0.000 
#
# Total GULP energy -311929.745743 kJ/mol
# GULP energy per Si atom -5570.174031 kJ/mol
# Density = 1.934599 g / cm^3
# Si number density = 19.390125 Si / 1000 Ang^3
#
#
#
# Elastic Constant Matrix: (Units=GPa)
#
#
# Indices 1 2 3 4 5 6 
#
# 1 24.8177 4.0000 -3.4689 0.0000 0.0000 0.0000
# 2 4.0000 172.4901 33.6158 0.0000 0.0000 0.0000
# 3 -3.4689 33.6158 53.1893 0.0000 0.0000 0.0000
# 4 0.0000 0.0000 0.0000 26.8795 0.0000 0.0000
# 5 0.0000 0.0000 0.0000 0.0000 18.2331 0.0000
# 6 0.0000 0.0000 0.0000 0.0000 0.0000 8.3766
#
#
#
# Elastic Compliance Matrix: (Units=1/GPa)
#
#
# Indices 1 2 3 4 5 6 
#
# 1 0.041088 -0.001682 0.003743 0.000000 0.000000 0.000000
# 2 -0.001682 0.006681 -0.004332 0.000000 0.000000 0.000000
# 3 0.003743 -0.004332 0.021783 0.000000 0.000000 0.000000
# 4 0.000000 0.000000 0.000000 0.037203 0.000000 0.000000
# 5 0.000000 0.000000 0.000000 0.000000 0.054845 0.000000
# 6 0.000000 0.000000 0.000000 0.000000 0.000000 0.119380
#
#
# Mechanical properties :
#
#
# Convention : Reuss Voigt Hill
#
# Bulk Modulus (GPa) = 15.38253 35.42122 25.40188
# Shear Modulus (GPa) = 16.27647 25.12120 20.69884
#
# Velocity S-wave (km/s) = 2.90042 3.60330 3.27080
# Velocity P-wave (km/s) = 4.37801 5.96817 5.23383
#
# Compressibility (1/GPa) = 0.06500880
#
# Stress axis : x y z
#
# Youngs Moduli (GPa) = 24.33796 149.68554 45.90811
#
# Poissons Ratio (x) = 0.25181 -0.17183
# Poissons Ratio (y) = 0.04094 0.19887
# Poissons Ratio (z) = -0.09109 0.64843
#
# Static dielectric constant tensor:
#      x y z
#    x 1.699430 0.000000 0.000000 
#    y 0.000000 1.729720 0.000000 
#    z 0.000000 0.000000 1.813390 
# 
# From -- ./inp_files/27681.got.cif
#   From: 2010.05.17/outbox.cif.g08.bks.cpg/sg67_14_cif.got.tgz:27681.got - 2010.06.03 18:28:57.
