data_PCOD9501128
_publ_section_title
;
Structure prediction by ZEFSAII (Michael W. Deem and Ramdas Pophale) SiO2 
 PCOD9501128
Probable space group: C M M A
;
_chemical_formula_sum "Si O2"
_cell_formula_units_Z 120
_cell_length_a 8.728181
_cell_length_b 28.190343
_cell_length_c 26.204426
_cell_angle_alpha 90.000000
_cell_angle_beta 90.000000
_cell_angle_gamma 90.000000
_cell_volume 6447.609922
_symmetry_space_group_name_H-M "C M M A"
_symmetry_group_IT_number 67
_symmetry_cell_setting 'orthorhombic'
loop_
_space_group_symop_operation_xyz
x,y,z
-x,1/2-y,z
x,-y,-z
-x,1/2+y,-z
-x,-y,-z
x,1/2+y,-z
-x,y,z
x,1/2-y,z
1/2+x,1/2+y,z
1/2-x,-y,z
1/2+x,1/2-y,-z
1/2-x,y,-z
1/2-x,1/2-y,-z
1/2+x,y,-z
1/2-x,1/2+y,z
1/2+x,-y,z
loop_
_atom_site_type_symbol
_atom_site_label
_atom_site_fract_x
_atom_site_fract_y
_atom_site_fract_z
Si Si1 0.176870 0.804480 0.829940
Si Si2 0.814710 0.654998 0.619042
Si Si3 0.316013 0.948512 0.243889
Si Si4 0.318188 0.552745 0.051993
Si Si5 0.814757 0.750000 0.556772
Si Si6 0.324335 0.694791 0.720400
Si Si7 0.316082 0.448675 0.636138
Si Si8 0.321868 0.896310 0.851236
O O1 0.196141 0.750000 0.845562
O O2 0.219346 0.807318 0.770157
O O3 0.289860 0.840647 0.856803
O O4 0.000000 0.818474 0.837492
O O5 0.767669 0.700294 0.584332
O O6 0.745303 0.665522 0.674399
O O7 0.770373 0.600106 0.606890
O O8 0.000000 0.655935 0.621754
O O9 0.500000 0.947478 0.239791
O O10 0.275284 0.941608 0.303651
O O11 0.244054 0.912190 0.203761
O O12 0.250000 0.000000 0.229429
O O13 0.500000 0.550669 0.047994
O O14 0.250000 0.500000 0.054913
O O15 0.267416 0.578299 0.103404
O O16 0.250000 0.574866 0.000000
O O17 0.750000 0.750000 0.500000
O O18 0.000000 0.750000 0.556188
O O19 0.500000 0.680839 0.732471
O O20 0.326814 0.750000 0.704287
O O21 0.500000 0.452269 0.633536
O O22 0.250000 0.500000 0.620027
O O23 0.500000 0.908076 0.853678
#
# Coordination Sequence:
#
# PCOD9501128 Si02
#       8
#    16  16  16  16   8  16  16  16
#     4  10  21  36  53  74 105 145 184 222 264 316
#     4  10  19  34  55  78 105 143 182 221 271 329
#     4  10  19  32  49  74 109 146 182 220 262 314
#     4  11  22  39  60  83 109 136 172 218 272 328
#     4  10  22  38  58  82 110 140 178 228 283 332
#     4  10  19  30  48  78 111 142 178 220 264 316
#     4   9  19  33  51  75 106 141 181 219 260 316
#     4  12  23  35  53  78 107 141 181 224 273 324
#
# _framework density 18.611547999999999
#
# number of rings (size 3 to 8) (size 9 to 14) (size 15 to 20)
#    0.000    1.733    0.667    5.200    0.000    4.000 
#    0.000    0.000    0.000    0.800    0.000    2.800 
#    0.000    0.000    0.000    0.000    0.000    0.000 
#
# Total GULP energy -334806.820576 kJ/mol
# GULP energy per Si atom -5580.113676 kJ/mol
# Density = 1.856919 g / cm^3
# Si number density = 18.611548 Si / 1000 Ang^3
#
#
#
# Elastic Constant Matrix: (Units=GPa)
#
#
# Indices 1 2 3 4 5 6 
#
# 1 66.7013 27.2446 11.6354 0.0000 0.0000 0.0000
# 2 27.2446 122.6288 33.0476 0.0000 0.0000 0.0000
# 3 11.6354 33.0476 29.1853 0.0000 0.0000 0.0000
# 4 0.0000 0.0000 0.0000 11.5648 0.0000 0.0000
# 5 0.0000 0.0000 0.0000 0.0000 23.9818 0.0000
# 6 0.0000 0.0000 0.0000 0.0000 0.0000 27.3222
#
#
#
# Elastic Compliance Matrix: (Units=1/GPa)
#
#
# Indices 1 2 3 4 5 6 
#
# 1 0.016739 -0.002764 -0.003544 0.000000 0.000000 0.000000
# 2 -0.002764 0.012192 -0.012704 0.000000 0.000000 0.000000
# 3 -0.003544 -0.012704 0.050062 0.000000 0.000000 0.000000
# 4 0.000000 0.000000 0.000000 0.086469 0.000000 0.000000
# 5 0.000000 0.000000 0.000000 0.000000 0.041698 0.000000
# 6 0.000000 0.000000 0.000000 0.000000 0.000000 0.036600
#
#
# Mechanical properties :
#
#
# Convention : Reuss Voigt Hill
#
# Bulk Modulus (GPa) = 24.40803 40.26341 32.33572
# Shear Modulus (GPa) = 16.92381 22.34627 19.63504
#
# Velocity S-wave (km/s) = 3.01876 3.46882 3.25159
# Velocity P-wave (km/s) = 5.02926 6.14200 5.61327
#
# Compressibility (1/GPa) = 0.04097013
#
# Stress axis : x y z
#
# Youngs Moduli (GPa) = 59.73943 82.01826 19.97527
#
# Poissons Ratio (x) = 0.22670 0.07079
# Poissons Ratio (y) = 0.16512 0.25377
# Poissons Ratio (z) = 0.21170 1.04196
#
# Static dielectric constant tensor:
#      x y z
#    x 1.630710 0.000000 0.000000 
#    y 0.000000 1.714060 0.000000 
#    z 0.000000 0.000000 1.626180 
# 
# From -- ./inp_files/43899.got.cif
#   From: 2010.05.17/outbox.cif.g08.bks.cpg/sg67_22_cif.got.tgz:43899.got - 2010.06.03 18:28:57.
