data_PCOD9501832
_publ_section_title
;
Structure prediction by ZEFSAII (Michael W. Deem and Ramdas Pophale) SiO2 
 PCOD9501832
Probable space group: C M M A
;
_chemical_formula_sum "Si O2"
_cell_formula_units_Z 112
_cell_length_a 22.879861
_cell_length_b 14.950539
_cell_length_c 14.902267
_cell_angle_alpha 90.000000
_cell_angle_beta 90.000000
_cell_angle_gamma 90.000000
_cell_volume 5097.562652
_symmetry_space_group_name_H-M "C M M A"
_symmetry_group_IT_number 67
_symmetry_cell_setting 'orthorhombic'
loop_
_space_group_symop_operation_xyz
x,y,z
-x,1/2-y,z
x,-y,-z
-x,1/2+y,-z
-x,-y,-z
x,1/2+y,-z
-x,y,z
x,1/2-y,z
1/2+x,1/2+y,z
1/2-x,-y,z
1/2+x,1/2-y,-z
1/2-x,y,-z
1/2-x,1/2-y,-z
1/2+x,y,-z
1/2-x,1/2+y,z
1/2+x,-y,z
loop_
_atom_site_type_symbol
_atom_site_label
_atom_site_fract_x
_atom_site_fract_y
_atom_site_fract_z
Si Si1 0.634237 0.356239 0.623540
Si Si2 0.069797 0.154329 0.861917
Si Si3 0.253918 0.143226 0.862265
Si Si4 0.264200 0.858005 0.658979
Si Si5 0.847213 0.599491 0.998559
Si Si6 0.932833 0.008984 0.720036
Si Si7 0.889636 0.356484 0.579983
O O1 0.631037 0.250000 0.647650
O O2 0.702772 0.380373 0.612966
O O3 0.604795 0.422499 0.694511
O O4 0.604900 0.368514 0.526493
O O5 0.085167 0.250000 0.817044
O O6 0.100975 0.154779 0.957700
O O7 0.089534 0.070013 0.802697
O O8 0.000000 0.149586 0.869100
O O9 0.246020 0.250000 0.864105
O O10 0.242256 0.111039 0.761868
O O11 0.205923 0.104519 0.929758
O O12 0.317564 0.124520 0.904508
O O13 0.266505 0.750000 0.660611
O O14 0.323966 0.884458 0.611216
O O15 0.869854 0.500000 0.000000
O O16 0.930386 0.078974 0.637208
O O17 0.000000 0.983322 0.737253
O O18 0.897646 0.250000 0.597841
#
# Coordination Sequence:
#
# PCOD9501832 Si02
#       7
#    16  16  16  16  16  16  16
#     4  10  22  39  60  87 124 166 204 251 312 375
#     4  10  22  42  66  89 116 157 208 263 317 365
#     4  10  19  34  57  85 120 160 197 240 295 355
#     4   9  19  36  60  88 122 161 205 250 301 367
#     4  11  22  35  56  87 124 153 191 243 301 368
#     4  11  24  40  61  89 121 157 211 266 305 363
#     4  10  20  37  61  90 124 162 203 254 314 366
#
# _framework density 21.971284000000001
#
# number of rings (size 3 to 8) (size 9 to 14) (size 15 to 20)
#    0.000    1.857    0.000    4.714    2.000    6.000 
#    2.571    2.857    0.000    0.000    0.000    0.000 
#    0.000    0.000    0.000    0.000    0.000    0.000 
#
# Total GULP energy -312839.489674 kJ/mol
# GULP energy per Si atom -5586.419458 kJ/mol
# Density = 2.192128 g / cm^3
# Si number density = 21.971284 Si / 1000 Ang^3
#
#
#
# Elastic Constant Matrix: (Units=GPa)
#
#
# Indices 1 2 3 4 5 6 
#
# 1 50.7521 24.3020 12.9386 0.0000 0.0000 0.0000
# 2 24.3020 99.9025 25.6076 0.0000 0.0000 0.0000
# 3 12.9386 25.6076 59.2302 0.0000 0.0000 0.0000
# 4 0.0000 0.0000 0.0000 48.5874 0.0000 0.0000
# 5 0.0000 0.0000 0.0000 0.0000 27.0559 0.0000
# 6 0.0000 0.0000 0.0000 0.0000 0.0000 27.2553
#
#
#
# Elastic Compliance Matrix: (Units=1/GPa)
#
#
# Indices 1 2 3 4 5 6 
#
# 1 0.022735 -0.004788 -0.002896 0.000000 0.000000 0.000000
# 2 -0.004788 0.012266 -0.004257 0.000000 0.000000 0.000000
# 3 -0.002896 -0.004257 0.019356 0.000000 0.000000 0.000000
# 4 0.000000 0.000000 0.000000 0.020581 0.000000 0.000000
# 5 0.000000 0.000000 0.000000 0.000000 0.036961 0.000000
# 6 0.000000 0.000000 0.000000 0.000000 0.000000 0.036690
#
#
# Mechanical properties :
#
#
# Convention : Reuss Voigt Hill
#
# Bulk Modulus (GPa) = 32.81463 37.28681 35.05072
# Shear Modulus (GPa) = 27.37783 30.38214 28.87998
#
# Velocity S-wave (km/s) = 3.53381 3.72265 3.62946
# Velocity P-wave (km/s) = 5.62299 5.95693 5.79237
#
# Compressibility (1/GPa) = 0.03047422
#
# Stress axis : x y z
#
# Youngs Moduli (GPa) = 43.98571 81.52846 51.66233
#
# Poissons Ratio (x) = 0.39036 0.14963
# Poissons Ratio (y) = 0.21060 0.21993
# Poissons Ratio (z) = 0.12739 0.34707
#
# Static dielectric constant tensor:
#      x y z
#    x 1.739140 0.000000 0.000000 
#    y 0.000000 1.811060 0.000000 
#    z 0.000000 0.000000 1.815240 
# 
# From -- ./inp_files/27564.got.cif
#   From: 2010.05.17/outbox.cif.g08.bks.cpg/sg67_14_cif.got.tgz:27564.got - 2010.06.03 18:28:57.
