data_PCOD9501257
_publ_section_title
;
Structure prediction by ZEFSAII (Michael W. Deem and Ramdas Pophale) SiO2 
 PCOD9501257
Probable space group: C M M A
;
_chemical_formula_sum "Si O2"
_cell_formula_units_Z 120
_cell_length_a 20.816925
_cell_length_b 28.974659
_cell_length_c 12.354264
_cell_angle_alpha 90.000000
_cell_angle_beta 90.000000
_cell_angle_gamma 90.000000
_cell_volume 7451.638684
_symmetry_space_group_name_H-M "C M M A"
_symmetry_group_IT_number 67
_symmetry_cell_setting 'orthorhombic'
loop_
_space_group_symop_operation_xyz
x,y,z
-x,1/2-y,z
x,-y,-z
-x,1/2+y,-z
-x,-y,-z
x,1/2+y,-z
-x,y,z
x,1/2-y,z
1/2+x,1/2+y,z
1/2-x,-y,z
1/2+x,1/2-y,-z
1/2-x,y,-z
1/2-x,1/2-y,-z
1/2+x,y,-z
1/2-x,1/2+y,z
1/2+x,-y,z
loop_
_atom_site_type_symbol
_atom_site_label
_atom_site_fract_x
_atom_site_fract_y
_atom_site_fract_z
Si Si1 0.076261 0.196510 0.471400
Si Si2 0.654703 0.303817 0.906637
Si Si3 0.250000 0.914721 0.500000
Si Si4 0.076880 0.865014 0.741776
Si Si5 0.872429 0.951293 0.617047
Si Si6 0.649819 0.637957 0.649018
Si Si7 0.195026 0.196595 0.849580
Si Si8 0.925740 0.950628 0.379908
O O1 0.093838 0.250000 0.457712
O O2 0.088565 0.168224 0.361738
O O3 0.114167 0.173129 0.568853
O O4 0.000000 0.193704 0.492985
O O5 0.634885 0.250000 0.889160
O O6 0.609874 0.339503 0.843015
O O7 0.728260 0.308123 0.865643
O O8 0.660367 0.311945 0.035412
O O9 0.198982 0.943685 0.570343
O O10 0.290912 0.883493 0.581993
O O11 0.108395 0.913755 0.706680
O O12 0.000000 0.870088 0.756039
O O13 0.916884 0.943623 0.509959
O O14 0.885754 0.003778 0.650219
O O15 0.671703 0.663182 0.756426
O O16 0.602773 0.595139 0.672486
O O17 0.182656 0.250000 0.820186
O O18 0.000000 0.957867 0.355720
#
# Coordination Sequence:
#
# PCOD9501257 Si02
#       8
#    16  16   8  16  16  16  16  16
#     4  10  20  32  46  70 105 139 165 201 255 309
#     4   9  19  36  55  74  98 135 179 221 261 307
#     4  10  20  31  47  78 108 134 167 212 255 308
#     4  11  19  32  52  76 105 134 171 218 263 305
#     4  10  19  31  50  73 104 136 169 207 256 308
#     4  11  20  32  50  75 105 135 170 206 254 315
#     4   9  19  36  55  73 100 137 176 215 261 312
#     4  10  19  32  50  72 101 137 172 203 248 314
#
# _framework density 16.103840000000002
#
# number of rings (size 3 to 8) (size 9 to 14) (size 15 to 20)
#    0.000    2.000    2.667    4.400    0.000    5.067 
#    0.000    2.000    0.000    2.400    0.000    3.733 
#    0.000    0.000    0.000    0.000    0.000    0.000 
#
# Total GULP energy -334742.687010 kJ/mol
# GULP energy per Si atom -5579.044783 kJ/mol
# Density = 1.606719 g / cm^3
# Si number density = 16.103840 Si / 1000 Ang^3
#
#
#
# Elastic Constant Matrix: (Units=GPa)
#
#
# Indices 1 2 3 4 5 6 
#
# 1 47.9806 20.9340 18.9750 0.0000 0.0000 0.0000
# 2 20.9340 62.6093 21.4033 0.0000 0.0000 0.0000
# 3 18.9750 21.4033 43.8105 0.0000 0.0000 0.0000
# 4 0.0000 0.0000 0.0000 21.5727 0.0000 0.0000
# 5 0.0000 0.0000 0.0000 0.0000 18.7470 0.0000
# 6 0.0000 0.0000 0.0000 0.0000 0.0000 16.0923
#
#
#
# Elastic Compliance Matrix: (Units=1/GPa)
#
#
# Indices 1 2 3 4 5 6 
#
# 1 0.026915 -0.006020 -0.008717 0.000000 0.000000 0.000000
# 2 -0.006020 0.020521 -0.007418 0.000000 0.000000 0.000000
# 3 -0.008717 -0.007418 0.030225 0.000000 0.000000 0.000000
# 4 0.000000 0.000000 0.000000 0.046355 0.000000 0.000000
# 5 0.000000 0.000000 0.000000 0.000000 0.053342 0.000000
# 6 0.000000 0.000000 0.000000 0.000000 0.000000 0.062142
#
#
# Mechanical properties :
#
#
# Convention : Reuss Voigt Hill
#
# Bulk Modulus (GPa) = 29.98281 30.78052 30.38167
# Shear Modulus (GPa) = 16.95347 17.48828 17.22087
#
# Velocity S-wave (km/s) = 3.24815 3.29898 3.27366
# Velocity P-wave (km/s) = 5.72067 5.80227 5.76161
#
# Compressibility (1/GPa) = 0.03335244
#
# Stress axis : x y z
#
# Youngs Moduli (GPa) = 37.15371 48.73139 33.08529
#
# Poissons Ratio (x) = 0.29334 0.28839
# Poissons Ratio (y) = 0.22365 0.24543
# Poissons Ratio (z) = 0.32385 0.36149
#
# Static dielectric constant tensor:
#      x y z
#    x 1.547440 0.000000 0.000000 
#    y 0.000000 1.547600 0.000000 
#    z 0.000000 0.000000 1.505290 
# 
# From -- ./inp_files/21295.got.cif
#   From: 2010.05.17/outbox.cif.g08.bks.cpg/sg67_11_cif.got.tgz:21295.got - 2010.06.03 18:28:57.
