data_PCOD9501401
_publ_section_title
;
Structure prediction by ZEFSAII (Michael W. Deem and Ramdas Pophale) SiO2 
 PCOD9501401
Probable space group: C M M A
;
_chemical_formula_sum "Si O2"
_cell_formula_units_Z 112
_cell_length_a 24.527554
_cell_length_b 14.810801
_cell_length_c 16.353973
_cell_angle_alpha 90.000000
_cell_angle_beta 90.000000
_cell_angle_gamma 90.000000
_cell_volume 5940.952276
_symmetry_space_group_name_H-M "C M M A"
_symmetry_group_IT_number 67
_symmetry_cell_setting 'orthorhombic'
loop_
_space_group_symop_operation_xyz
x,y,z
-x,1/2-y,z
x,-y,-z
-x,1/2+y,-z
-x,-y,-z
x,1/2+y,-z
-x,y,z
x,1/2-y,z
1/2+x,1/2+y,z
1/2-x,-y,z
1/2+x,1/2-y,-z
1/2-x,y,-z
1/2-x,1/2-y,-z
1/2+x,y,-z
1/2-x,1/2+y,z
1/2+x,-y,z
loop_
_atom_site_type_symbol
_atom_site_label
_atom_site_fract_x
_atom_site_fract_y
_atom_site_fract_z
Si Si1 0.665254 0.860029 0.032816
Si Si2 0.563087 0.010800 0.596686
Si Si3 0.653915 0.851695 0.851759
Si Si4 0.439874 0.140525 0.869941
Si Si5 0.875899 0.144522 0.293378
Si Si6 0.937032 0.642302 0.271701
Si Si7 0.231922 0.399085 0.193841
O O1 0.671682 0.750000 0.033376
O O2 0.605592 0.885846 0.065207
O O3 0.707185 0.891850 0.102104
O O4 0.668242 0.893742 0.939852
O O5 0.500000 0.041273 0.611256
O O6 0.606431 0.081176 0.632790
O O7 0.569789 0.000000 0.500000
O O8 0.569538 0.917287 0.646840
O O9 0.634561 0.750000 0.870315
O O10 0.606290 0.891967 0.795977
O O11 0.710878 0.847486 0.804138
O O12 0.500000 0.103989 0.883926
O O13 0.442010 0.250000 0.873570
O O14 0.417129 0.119223 0.780363
O O15 0.882945 0.250000 0.312710
O O16 0.815708 0.131495 0.255000
O O17 0.927619 0.750000 0.285862
O O18 0.000000 0.632442 0.244112
O O19 0.250000 0.500000 0.211941
#
# Coordination Sequence:
#
# PCOD9501401 Si02
#       7
#    16  16  16  16  16  16  16
#     4   9  18  30  45  71 105 139 182 232 273 319
#     4  10  21  37  59  87 115 143 177 220 275 337
#     4  10  19  32  51  72 100 141 185 228 274 326
#     4   8  14  26  45  70 103 141 176 214 265 320
#     4  10  20  35  56  83 113 144 183 230 279 333
#     4   9  19  36  56  79 109 145 185 228 276 337
#     4  11  21  33  51  74 104 143 185 231 278 326
#
# _framework density 18.852197
#
# number of rings (size 3 to 8) (size 9 to 14) (size 15 to 20)
#    0.000    2.429    0.000    3.857    0.000    4.286 
#    0.000    4.286    0.000    3.857    0.000   14.000 
#    0.000    0.000    0.000    0.000    0.000    0.000 
#
# Total GULP energy -312316.682621 kJ/mol
# GULP energy per Si atom -5577.083618 kJ/mol
# Density = 1.880929 g / cm^3
# Si number density = 18.852197 Si / 1000 Ang^3
#
#
#
# Elastic Constant Matrix: (Units=GPa)
#
#
# Indices 1 2 3 4 5 6 
#
# 1 127.6846 20.7837 54.8278 0.0000 0.0000 0.0000
# 2 20.7837 64.4960 24.3893 0.0000 0.0000 0.0000
# 3 54.8278 24.3893 91.3711 0.0000 0.0000 0.0000
# 4 0.0000 0.0000 0.0000 21.4009 0.0000 0.0000
# 5 0.0000 0.0000 0.0000 0.0000 12.9441 0.0000
# 6 0.0000 0.0000 0.0000 0.0000 0.0000 23.7103
#
#
#
# Elastic Compliance Matrix: (Units=1/GPa)
#
#
# Indices 1 2 3 4 5 6 
#
# 1 0.010623 -0.001126 -0.006074 0.000000 0.000000 0.000000
# 2 -0.001126 0.017365 -0.003959 0.000000 0.000000 0.000000
# 3 -0.006074 -0.003959 0.015646 0.000000 0.000000 0.000000
# 4 0.000000 0.000000 0.000000 0.046727 0.000000 0.000000
# 5 0.000000 0.000000 0.000000 0.000000 0.077255 0.000000
# 6 0.000000 0.000000 0.000000 0.000000 0.000000 0.042176
#
#
# Mechanical properties :
#
#
# Convention : Reuss Voigt Hill
#
# Bulk Modulus (GPa) = 46.91529 53.72815 50.32172
# Shear Modulus (GPa) = 20.90161 23.84781 22.37471
#
# Velocity S-wave (km/s) = 3.33334 3.56053 3.44880
# Velocity P-wave (km/s) = 6.30514 6.74275 6.52761
#
# Compressibility (1/GPa) = 0.02131501
#
# Stress axis : x y z
#
# Youngs Moduli (GPa) = 94.13286 57.58702 63.91471
#
# Poissons Ratio (x) = 0.06487 0.38821
# Poissons Ratio (y) = 0.10604 0.25305
# Poissons Ratio (z) = 0.57175 0.22800
#
# Static dielectric constant tensor:
#      x y z
#    x 1.662910 0.000000 0.000000 
#    y 0.000000 1.817030 0.000000 
#    z 0.000000 0.000000 1.634290 
# 
# From -- ./inp_files/30178.got.cif
#   From: 2010.05.17/outbox.cif.g08.bks.cpg/sg67_16_cif.got.tgz:30178.got - 2010.06.03 18:28:57.
