data_PCOD9501047
_publ_section_title
;
Structure prediction by ZEFSAII (Michael W. Deem and Ramdas Pophale) SiO2 
 PCOD9501047
Probable space group: C M M A
;
_chemical_formula_sum "Si O2"
_cell_formula_units_Z 80
_cell_length_a 26.274055
_cell_length_b 35.096754
_cell_length_c 5.023786
_cell_angle_alpha 90.000000
_cell_angle_beta 90.000000
_cell_angle_gamma 90.000000
_cell_volume 4632.604105
_symmetry_space_group_name_H-M "C M M A"
_symmetry_group_IT_number 67
_symmetry_cell_setting 'orthorhombic'
loop_
_space_group_symop_operation_xyz
x,y,z
-x,1/2-y,z
x,-y,-z
-x,1/2+y,-z
-x,-y,-z
x,1/2+y,-z
-x,y,z
x,1/2-y,z
1/2+x,1/2+y,z
1/2-x,-y,z
1/2+x,1/2-y,-z
1/2-x,y,-z
1/2-x,1/2-y,-z
1/2+x,y,-z
1/2-x,1/2+y,z
1/2+x,-y,z
loop_
_atom_site_type_symbol
_atom_site_label
_atom_site_fract_x
_atom_site_fract_y
_atom_site_fract_z
Si Si1 0.057295 0.527711 0.752871
Si Si2 0.141933 0.074920 0.534963
Si Si3 0.311246 0.842985 0.475515
Si Si4 0.306008 0.544922 0.045696
Si Si5 0.311191 0.207243 0.023163
O O1 0.054967 0.500000 0.500000
O O2 0.091050 0.561858 0.624925
O O3 0.000000 0.540515 0.825368
O O4 0.074867 0.500000 0.000000
O O5 0.156400 0.119056 0.517303
O O6 0.152837 0.062374 0.839059
O O7 0.182047 0.052368 0.352151
O O8 0.250000 0.851294 0.500000
O O9 0.322749 0.810606 0.692281
O O10 0.324657 0.824078 0.195199
O O11 0.304808 0.500000 0.000000
O O12 0.250000 0.561915 0.000000
O O13 0.331688 0.250000 0.984347
O O14 0.250000 0.210264 0.000000
#
# Coordination Sequence:
#
# PCOD9501047 Si02
#       5
#    16  16  16  16  16
#     4  10  21  37  55  73  94 126 171 219 263 303
#     4  12  21  33  50  70  98 127 162 207 255 293
#     4  10  19  29  44  68  96 125 156 193 238 287
#     4  11  22  33  46  66  95 133 169 196 231 290
#     4   9  17  30  46  64  91 127 161 190 225 278
#
# _framework density 17.268903999999999
#
# number of rings (size 3 to 8) (size 9 to 14) (size 15 to 20)
#    0.000    1.600    0.000    7.200    0.000    5.600 
#    0.000    0.000    0.000    0.000    0.000    0.000 
#    0.000    4.800    0.000    0.000    0.000    0.000 
#
# Total GULP energy -222779.160689 kJ/mol
# GULP energy per Si atom -5569.479017 kJ/mol
# Density = 1.722960 g / cm^3
# Si number density = 17.268904 Si / 1000 Ang^3
#
#
#
# Elastic Constant Matrix: (Units=GPa)
#
#
# Indices 1 2 3 4 5 6 
#
# 1 63.7523 18.6618 -3.7764 0.0000 0.0000 0.0000
# 2 18.6618 88.0899 -9.3891 0.0000 0.0000 0.0000
# 3 -3.7764 -9.3891 55.4243 0.0000 0.0000 0.0000
# 4 0.0000 0.0000 0.0000 476.3924 0.0000 0.0000
# 5 0.0000 0.0000 0.0000 0.0000 15.1127 0.0000
# 6 0.0000 0.0000 0.0000 0.0000 0.0000 11.7763
#
#
#
# Elastic Compliance Matrix: (Units=1/GPa)
#
#
# Indices 1 2 3 4 5 6 
#
# 1 0.016739 -0.003488 0.000550 0.000000 0.000000 0.000000
# 2 -0.003488 0.012287 0.001844 0.000000 0.000000 0.000000
# 3 0.000550 0.001844 0.018392 0.000000 0.000000 0.000000
# 4 0.000000 0.000000 0.000000 0.002099 0.000000 0.000000
# 5 0.000000 0.000000 0.000000 0.000000 0.066170 0.000000
# 6 0.000000 0.000000 0.000000 0.000000 0.000000 0.084916
#
#
# Mechanical properties :
#
#
# Convention : Reuss Voigt Hill
#
# Bulk Modulus (GPa) = 22.10867 24.25102 23.17985
# Shear Modulus (GPa) = 22.94957 114.10762 68.52859
#
# Velocity S-wave (km/s) = 3.64944 8.13759 6.30630
# Velocity P-wave (km/s) = 5.53066 10.11768 8.15340
#
# Compressibility (1/GPa) = 0.04523112
#
# Stress axis : x y z
#
# Youngs Moduli (GPa) = 59.74010 81.38408 54.37010
#
# Poissons Ratio (x) = 0.28384 -0.02989
# Poissons Ratio (y) = 0.20835 -0.10025
# Poissons Ratio (z) = -0.03284 -0.15006
#
# Static dielectric constant tensor:
#      x y z
#    x 1.655270 0.000000 0.000000 
#    y 0.000000 1.582860 0.000000 
#    z 0.000000 0.000000 1.611610 
# 
# From -- ./inp_files/4251.got.cif
#   From: 2010.05.17/outbox.cif.g08.bks.cpg/sg67_3_cif.got.tgz:4251.got - 2010.06.03 18:28:57.
