data_PCOD9501824
_publ_section_title
;
Structure prediction by ZEFSAII (Michael W. Deem and Ramdas Pophale) SiO2 
 PCOD9501824
Probable space group: C M M A
;
_chemical_formula_sum "Si O2"
_cell_formula_units_Z 96
_cell_length_a 21.959418
_cell_length_b 18.069777
_cell_length_c 13.232583
_cell_angle_alpha 90.000000
_cell_angle_beta 90.000000
_cell_angle_gamma 90.000000
_cell_volume 5250.712572
_symmetry_space_group_name_H-M "C M M A"
_symmetry_group_IT_number 67
_symmetry_cell_setting 'orthorhombic'
loop_
_space_group_symop_operation_xyz
x,y,z
-x,1/2-y,z
x,-y,-z
-x,1/2+y,-z
-x,-y,-z
x,1/2+y,-z
-x,y,z
x,1/2-y,z
1/2+x,1/2+y,z
1/2-x,-y,z
1/2+x,1/2-y,-z
1/2-x,y,-z
1/2-x,1/2-y,-z
1/2+x,y,-z
1/2-x,1/2+y,z
1/2+x,-y,z
loop_
_atom_site_type_symbol
_atom_site_label
_atom_site_fract_x
_atom_site_fract_y
_atom_site_fract_z
Si Si1 0.263322 0.664397 0.608191
Si Si2 0.068103 0.527935 0.260138
Si Si3 0.906928 0.834367 0.395818
Si Si4 0.174339 0.834078 0.776825
Si Si5 0.569192 0.624563 0.371245
Si Si6 0.178858 0.481027 0.116990
O O1 0.240510 0.750000 0.601500
O O2 0.250000 0.628137 0.500000
O O3 0.334650 0.665389 0.622405
O O4 0.227371 0.634545 0.703361
O O5 0.067834 0.605451 0.318809
O O6 0.074977 0.462271 0.343198
O O7 0.126269 0.519711 0.185785
O O8 0.000000 0.517267 0.213393
O O9 0.928682 0.750000 0.382771
O O10 0.917373 0.858213 0.512049
O O11 0.187049 0.750000 0.809287
O O12 0.115578 0.835759 0.704223
O O13 0.168657 0.893443 0.864817
O O14 0.500000 0.647193 0.350819
O O15 0.250000 0.500000 0.141418
O O16 0.169670 0.500000 0.000000
#
# Coordination Sequence:
#
# PCOD9501824 Si02
#       6
#    16  16  16  16  16  16
#     4   9  16  28  47  76 111 143 176 219 273 324
#     4  10  22  38  55  78 110 147 186 229 283 344
#     4  11  20  31  51  78 112 152 189 224 265 324
#     4  10  19  34  57  83 110 141 181 230 275 322
#     4  10  20  33  50  74 110 151 184 219 266 325
#     4  10  22  42  63  82 107 141 185 237 286 336
#
# _framework density 18.283232999999999
#
# number of rings (size 3 to 8) (size 9 to 14) (size 15 to 20)
#    0.000    2.000    1.667    2.500    0.000    4.000 
#    0.000    2.500    0.000    0.000    0.000    0.000 
#    0.000    0.000    0.000    0.000    0.000    0.000 
#
# Total GULP energy -267549.800359 kJ/mol
# GULP energy per Si atom -5573.954174 kJ/mol
# Density = 1.824162 g / cm^3
# Si number density = 18.283233 Si / 1000 Ang^3
#
#
#
# Elastic Constant Matrix: (Units=GPa)
#
#
# Indices 1 2 3 4 5 6 
#
# 1 127.8525 38.8431 45.1861 0.0000 0.0000 0.0000
# 2 38.8431 105.2952 59.8463 0.0000 0.0000 0.0000
# 3 45.1861 59.8463 94.6271 0.0000 0.0000 0.0000
# 4 0.0000 0.0000 0.0000 18.3482 0.0000 0.0000
# 5 0.0000 0.0000 0.0000 0.0000 6.4753 0.0000
# 6 0.0000 0.0000 0.0000 0.0000 0.0000 91.0077
#
#
#
# Elastic Compliance Matrix: (Units=1/GPa)
#
#
# Indices 1 2 3 4 5 6 
#
# 1 0.009550 -0.001454 -0.003641 0.000000 0.000000 0.000000
# 2 -0.001454 0.015048 -0.008823 0.000000 0.000000 0.000000
# 3 -0.003641 -0.008823 0.017886 0.000000 0.000000 0.000000
# 4 0.000000 0.000000 0.000000 0.054501 0.000000 0.000000
# 5 0.000000 0.000000 0.000000 0.000000 0.154433 0.000000
# 6 0.000000 0.000000 0.000000 0.000000 0.000000 0.010988
#
#
# Mechanical properties :
#
#
# Convention : Reuss Voigt Hill
#
# Bulk Modulus (GPa) = 68.26182 68.39176 68.32679
# Shear Modulus (GPa) = 16.94199 35.42619 26.18409
#
# Velocity S-wave (km/s) = 3.04738 4.40663 3.78846
# Velocity P-wave (km/s) = 7.05683 7.96111 7.52257
#
# Compressibility (1/GPa) = 0.01464948
#
# Stress axis : x y z
#
# Youngs Moduli (GPa) = 104.71286 66.45422 55.90830
#
# Poissons Ratio (x) = 0.09659 0.20356
# Poissons Ratio (y) = 0.15220 0.49327
# Poissons Ratio (z) = 0.38126 0.58632
#
# Static dielectric constant tensor:
#      x y z
#    x 1.659190 0.000000 0.000000 
#    y 0.000000 1.651340 0.000000 
#    z 0.000000 0.000000 1.612350 
# 
# From -- ./inp_files/19679.got.cif
#   From: 2010.05.17/outbox.cif.g08.bks.cpg/sg67_10_cif.got.tgz:19679.got - 2010.06.03 18:28:57.
