data_PCOD9501191
_publ_section_title
;
Structure prediction by ZEFSAII (Michael W. Deem and Ramdas Pophale) SiO2 
 PCOD9501191
Probable space group: C M M A
;
_chemical_formula_sum "Si O2"
_cell_formula_units_Z 88
_cell_length_a 27.179695
_cell_length_b 35.046927
_cell_length_c 5.258371
_cell_angle_alpha 90.000000
_cell_angle_beta 90.000000
_cell_angle_gamma 90.000000
_cell_volume 5008.939049
_symmetry_space_group_name_H-M "C M M A"
_symmetry_group_IT_number 67
_symmetry_cell_setting 'orthorhombic'
loop_
_space_group_symop_operation_xyz
x,y,z
-x,1/2-y,z
x,-y,-z
-x,1/2+y,-z
-x,-y,-z
x,1/2+y,-z
-x,y,z
x,1/2-y,z
1/2+x,1/2+y,z
1/2-x,-y,z
1/2+x,1/2-y,-z
1/2-x,y,-z
1/2-x,1/2-y,-z
1/2+x,y,-z
1/2-x,1/2+y,z
1/2+x,-y,z
loop_
_atom_site_type_symbol
_atom_site_label
_atom_site_fract_x
_atom_site_fract_y
_atom_site_fract_z
Si Si1 0.691323 0.824299 0.991041
Si Si2 0.190027 0.044093 0.497374
Si Si3 0.883438 0.795904 0.645517
Si Si4 0.943614 0.203760 0.841164
Si Si5 0.715286 0.750000 0.749433
Si Si6 0.810033 0.089551 0.991962
O O1 0.668563 0.812522 0.261822
O O2 0.683578 0.788538 0.797458
O O3 0.673024 0.867045 0.942750
O O4 0.750000 0.827912 0.000000
O O5 0.250000 0.043870 0.500000
O O6 0.174081 0.064089 0.755973
O O7 0.174348 0.000000 0.500000
O O8 0.174641 0.069399 0.254851
O O9 0.877634 0.750000 0.630308
O O10 0.917944 0.804467 0.890791
O O11 0.911625 0.810345 0.397230
O O12 0.944761 0.250000 0.819328
O O13 0.000000 0.190550 0.831973
O O14 0.750000 0.750000 0.500000
O O15 0.750000 0.750000 0.000000
O O16 0.750000 0.089925 0.000000
#
# Coordination Sequence:
#
# PCOD9501191 Si02
#       6
#    16  16  16  16   8  16
#     4  10  21  35  46  66  96 130 169 202 232 271
#     4   9  16  28  44  62  80 105 146 193 236 278
#     4  10  19  31  48  67  87 119 157 195 240 280
#     4   9  18  32  49  67  85 106 146 203 252 291
#     4  10  22  34  46  58  81 128 171 206 232 252
#     4   9  18  28  43  61  85 115 148 191 233 271
#
# _framework density 17.56859
#
# number of rings (size 3 to 8) (size 9 to 14) (size 15 to 20)
#    0.000    2.545    0.909    1.091    0.000   13.818 
#    0.000    0.000    0.000    0.000    0.000    0.000 
#    0.000    0.000    0.000    0.000    0.000   63.636 
#
# Total GULP energy -245332.514271 kJ/mol
# GULP energy per Si atom -5575.738961 kJ/mol
# Density = 1.752860 g / cm^3
# Si number density = 17.568590 Si / 1000 Ang^3
#
#
#
# Elastic Constant Matrix: (Units=GPa)
#
#
# Indices 1 2 3 4 5 6 
#
# 1 62.2979 0.4167 17.9180 0.0000 0.0000 0.0000
# 2 0.4167 135.4272 54.4138 0.0000 0.0000 0.0000
# 3 17.9180 54.4138 123.5710 0.0000 0.0000 0.0000
# 4 0.0000 0.0000 0.0000 15.3676 0.0000 0.0000
# 5 0.0000 0.0000 0.0000 0.0000 16.4847 0.0000
# 6 0.0000 0.0000 0.0000 0.0000 0.0000 -1.9623
#
#
#
# Elastic Compliance Matrix: (Units=1/GPa)
#
#
# Indices 1 2 3 4 5 6 
#
# 1 0.016892 0.001133 -0.002948 0.000000 0.000000 0.000000
# 2 0.001133 0.009047 -0.004148 0.000000 0.000000 0.000000
# 3 -0.002948 -0.004148 0.010347 0.000000 0.000000 0.000000
# 4 0.000000 0.000000 0.000000 0.065072 0.000000 0.000000
# 5 0.000000 0.000000 0.000000 0.000000 0.060662 0.000000
# 6 0.000000 0.000000 0.000000 0.000000 0.000000 -0.509593
#
#
# Mechanical properties :
#
#
# Convention : Reuss Voigt Hill
#
# Bulk Modulus (GPa) = 41.05307 51.86592 46.45949
# Shear Modulus (GPa) = -15.26597 22.54782 3.64092
#
# Velocity S-wave (km/s) = -2.95097 3.58637 1.44115
# Velocity P-wave (km/s) = 3.43614 6.83633 5.41029
#
# Compressibility (1/GPa) = 0.02435871
#
# Stress axis : x y z
#
# Youngs Moduli (GPa) = 59.19874 110.53083 96.65003
#
# Poissons Ratio (x) = -0.12518 0.28494
# Poissons Ratio (y) = -0.06705 0.40092
# Poissons Ratio (z) = 0.17453 0.45850
#
# Static dielectric constant tensor:
#      x y z
#    x 1.645760 0.000000 0.000000 
#    y 0.000000 1.617910 0.000000 
#    z 0.000000 0.000000 1.683530 
# 
# From -- ./inp_files/4272.got.cif
#   From: 2010.05.17/outbox.cif.g08.bks.cpg/sg67_3_cif.got.tgz:4272.got - 2010.06.03 18:28:57.
