data_PCOD9501892
_publ_section_title
;
Structure prediction by ZEFSAII (Michael W. Deem and Ramdas Pophale) SiO2 
 PCOD9501892
Probable space group: C M M A
;
_chemical_formula_sum "Si O2"
_cell_formula_units_Z 80
_cell_length_a 18.089991
_cell_length_b 35.489594
_cell_length_c 5.542467
_cell_angle_alpha 90.000000
_cell_angle_beta 90.000000
_cell_angle_gamma 90.000000
_cell_volume 3558.299486
_symmetry_space_group_name_H-M "C M M A"
_symmetry_group_IT_number 67
_symmetry_cell_setting 'orthorhombic'
loop_
_space_group_symop_operation_xyz
x,y,z
-x,1/2-y,z
x,-y,-z
-x,1/2+y,-z
-x,-y,-z
x,1/2+y,-z
-x,y,z
x,1/2-y,z
1/2+x,1/2+y,z
1/2-x,-y,z
1/2+x,1/2-y,-z
1/2-x,y,-z
1/2-x,1/2-y,-z
1/2+x,y,-z
1/2-x,1/2+y,z
1/2+x,-y,z
loop_
_atom_site_type_symbol
_atom_site_label
_atom_site_fract_x
_atom_site_fract_y
_atom_site_fract_z
Si Si1 0.000000 0.419808 0.899248
Si Si2 0.665827 0.514933 0.251001
Si Si3 0.500000 0.580698 0.400888
Si Si4 0.203005 0.707561 0.251198
Si Si5 0.163180 0.897515 0.639673
Si Si6 0.647794 0.130019 0.139540
O O1 0.071661 0.392871 0.892891
O O2 0.000000 0.441744 0.649314
O O3 0.000000 0.441562 0.150525
O O4 0.631388 0.500000 0.500000
O O5 0.750000 0.500000 0.250047
O O6 0.671894 0.559729 0.271367
O O7 0.632798 0.500000 0.000000
O O8 0.573651 0.605768 0.397194
O O9 0.171881 0.750000 0.270374
O O10 0.250000 0.701487 0.500000
O O11 0.145956 0.673152 0.224721
O O12 0.250000 0.706944 0.000000
O O13 0.189339 0.891006 0.363422
O O14 0.181255 0.871604 0.869172
#
# Coordination Sequence:
#
# PCOD9501892 Si02
#       6
#     8  16   8  16  16  16
#     4   8  16  30  53  77 112 130 167 228 269 296
#     4  10  21  38  50  68 104 143 164 210 280 310
#     4   8  16  30  52  77 101 132 167 220 269 302
#     4  10  21  38  54  77 116 149 175 218 267 309
#     4  10  19  35  56  78 104 135 180 220 259 319
#     4  10  19  35  56  85 103 140 183 220 260 314
#
# _framework density 22.482648000000001
#
# number of rings (size 3 to 8) (size 9 to 14) (size 15 to 20)
#    0.000    2.400    0.000    2.400    0.000    0.000 
#   21.600    1.500    0.000    0.000    0.000   12.600 
#    0.000    0.000    0.000    0.000    0.000    0.000 
#
# Total GULP energy -222985.796859 kJ/mol
# GULP energy per Si atom -5574.644921 kJ/mol
# Density = 2.243148 g / cm^3
# Si number density = 22.482648 Si / 1000 Ang^3
#
#
#
# Elastic Constant Matrix: (Units=GPa)
#
#
# Indices 1 2 3 4 5 6 
#
# 1 44.0352 2.9485 15.9210 0.0000 0.0000 0.0000
# 2 2.9485 129.2161 29.0975 0.0000 0.0000 0.0000
# 3 15.9210 29.0975 264.6051 0.0000 0.0000 0.0000
# 4 0.0000 0.0000 0.0000 40.7540 0.0000 0.0000
# 5 0.0000 0.0000 0.0000 0.0000 23.5855 0.0000
# 6 0.0000 0.0000 0.0000 0.0000 0.0000 159.7301
#
#
#
# Elastic Compliance Matrix: (Units=1/GPa)
#
#
# Indices 1 2 3 4 5 6 
#
# 1 0.023220 -0.000221 -0.001373 0.000000 0.000000 0.000000
# 2 -0.000221 0.007938 -0.000860 0.000000 0.000000 0.000000
# 3 -0.001373 -0.000860 0.003956 0.000000 0.000000 0.000000
# 4 0.000000 0.000000 0.000000 0.024537 0.000000 0.000000
# 5 0.000000 0.000000 0.000000 0.000000 0.042399 0.000000
# 6 0.000000 0.000000 0.000000 0.000000 0.000000 0.006261
#
#
# Mechanical properties :
#
#
# Convention : Reuss Voigt Hill
#
# Bulk Modulus (GPa) = 33.10394 59.31003 46.20698
# Shear Modulus (GPa) = 40.55588 70.80654 55.68121
#
# Velocity S-wave (km/s) = 4.25181 5.61803 4.98197
# Velocity P-wave (km/s) = 6.23378 8.27772 7.32737
#
# Compressibility (1/GPa) = 0.03020789
#
# Stress axis : x y z
#
# Youngs Moduli (GPa) = 43.06585 125.98306 252.75850
#
# Poissons Ratio (x) = 0.02780 0.34701
# Poissons Ratio (y) = 0.00950 0.21727
# Poissons Ratio (z) = 0.05912 0.10829
#
# Static dielectric constant tensor:
#      x y z
#    x 1.971450 0.000000 0.000000 
#    y 0.000000 1.772480 0.000000 
#    z 0.000000 0.000000 2.073680 
# 
# From -- ./inp_files/3578.got.cif
#   From: 2010.05.17/outbox.cif.g08.bks.cpg/sg67_2_cif.got.tgz:3578.got - 2010.06.03 18:28:57.
