data_PCOD9501139
_publ_section_title
;
Structure prediction by ZEFSAII (Michael W. Deem and Ramdas Pophale) SiO2 
 PCOD9501139
Probable space group: C M M A
;
_chemical_formula_sum "Si O2"
_cell_formula_units_Z 104
_cell_length_a 27.814563
_cell_length_b 8.702863
_cell_length_c 21.497043
_cell_angle_alpha 90.000000
_cell_angle_beta 90.000000
_cell_angle_gamma 90.000000
_cell_volume 5203.710331
_symmetry_space_group_name_H-M "C M M A"
_symmetry_group_IT_number 67
_symmetry_cell_setting 'orthorhombic'
loop_
_space_group_symop_operation_xyz
x,y,z
-x,1/2-y,z
x,-y,-z
-x,1/2+y,-z
-x,-y,-z
x,1/2+y,-z
-x,y,z
x,1/2-y,z
1/2+x,1/2+y,z
1/2-x,-y,z
1/2+x,1/2-y,-z
1/2-x,y,-z
1/2-x,1/2-y,-z
1/2+x,y,-z
1/2-x,1/2+y,z
1/2+x,-y,z
loop_
_atom_site_type_symbol
_atom_site_label
_atom_site_fract_x
_atom_site_fract_y
_atom_site_fract_z
Si Si1 0.302306 0.565185 0.826147
Si Si2 0.302141 0.933494 0.681999
Si Si3 0.500000 0.564379 0.930745
Si Si4 0.593777 0.935857 0.850919
Si Si5 0.444203 0.426707 0.407655
Si Si6 0.056467 0.075266 0.275435
Si Si7 0.148595 0.926307 0.563244
O O1 0.298549 0.750000 0.827317
O O2 0.250000 0.500000 0.844528
O O3 0.311645 0.518588 0.753663
O O4 0.350405 0.521711 0.864728
O O5 0.302487 0.750000 0.680896
O O6 0.250000 0.000000 0.666939
O O7 0.335668 0.993891 0.627198
O O8 0.500000 0.750000 0.931969
O O9 0.450405 0.516937 0.895743
O O10 0.500000 0.500000 0.000000
O O11 0.592142 0.750000 0.846402
O O12 0.582524 0.008027 0.784088
O O13 0.500000 0.446292 0.424470
O O14 0.429702 0.250000 0.420119
O O15 0.439925 0.463196 0.334169
O O16 0.408746 0.547979 0.438428
O O17 0.072465 0.250000 0.290927
O O18 0.000000 0.082817 0.259968
O O19 0.161782 0.750000 0.565641
O O20 0.168846 0.000000 0.500000
#
# Coordination Sequence:
#
# PCOD9501139 Si02
#       7
#    16  16   8  16  16  16  16
#     4   9  19  34  56  85 116 146 183 229 285 345
#     4  10  20  37  59  84 113 143 178 224 281 343
#     4  10  22  38  58  84 120 162 205 244 285 332
#     4  10  19  34  56  82 114 156 196 236 284 342
#     4  10  21  37  56  77 105 142 181 226 281 342
#     4  10  19  30  49  81 114 142 178 227 282 341
#     4  12  25  40  57  77 103 138 184 235 287 346
#
# _framework density 19.98574
#
# number of rings (size 3 to 8) (size 9 to 14) (size 15 to 20)
#    0.000    1.846    0.769    3.692    0.000    5.231 
#    0.000    1.538    0.000    0.462    0.000    3.231 
#    0.000    0.000    0.000    0.000    0.000    0.000 
#
# Total GULP energy -290191.460318 kJ/mol
# GULP energy per Si atom -5580.605006 kJ/mol
# Density = 1.994025 g / cm^3
# Si number density = 19.985740 Si / 1000 Ang^3
#
#
#
# Elastic Constant Matrix: (Units=GPa)
#
#
# Indices 1 2 3 4 5 6 
#
# 1 136.2164 23.7002 44.8654 0.0000 0.0000 0.0000
# 2 23.7002 40.3888 6.3023 0.0000 0.0000 0.0000
# 3 44.8654 6.3023 36.4965 0.0000 0.0000 0.0000
# 4 0.0000 0.0000 0.0000 23.9150 0.0000 0.0000
# 5 0.0000 0.0000 0.0000 0.0000 12.6812 0.0000
# 6 0.0000 0.0000 0.0000 0.0000 0.0000 29.9421
#
#
#
# Elastic Compliance Matrix: (Units=1/GPa)
#
#
# Indices 1 2 3 4 5 6 
#
# 1 0.013407 -0.005442 -0.015542 0.000000 0.000000 0.000000
# 2 -0.005442 0.027654 0.001915 0.000000 0.000000 0.000000
# 3 -0.015542 0.001915 0.046175 0.000000 0.000000 0.000000
# 4 0.000000 0.000000 0.000000 0.041815 0.000000 0.000000
# 5 0.000000 0.000000 0.000000 0.000000 0.078857 0.000000
# 6 0.000000 0.000000 0.000000 0.000000 0.000000 0.033398
#
#
# Mechanical properties :
#
#
# Convention : Reuss Voigt Hill
#
# Bulk Modulus (GPa) = 20.36759 40.31526 30.34143
# Shear Modulus (GPa) = 16.90281 22.52325 19.71303
#
# Velocity S-wave (km/s) = 2.91132 3.36067 3.14404
# Velocity P-wave (km/s) = 4.63834 5.93925 5.32864
#
# Compressibility (1/GPa) = 0.04909761
#
# Stress axis : x y z
#
# Youngs Moduli (GPa) = 74.58765 36.16114 21.65693
#
# Poissons Ratio (x) = 0.19679 0.33658
# Poissons Ratio (y) = 0.40592 -0.04147
# Poissons Ratio (z) = 1.15921 -0.06924
#
# Static dielectric constant tensor:
#      x y z
#    x 1.734190 0.000000 0.000000 
#    y 0.000000 1.687960 0.000000 
#    z 0.000000 0.000000 1.689630 
# 
# From -- ./inp_files/37313.got.cif
#   From: 2010.05.17/outbox.cif.g08.bks.cpg/sg67_19_cif.got.tgz:37313.got - 2010.06.03 18:28:57.
