data_PCOD9501324
_publ_section_title
;
Structure prediction by ZEFSAII (Michael W. Deem and Ramdas Pophale) SiO2 
 PCOD9501324
Probable space group: C M M A
;
_chemical_formula_sum "Si O2"
_cell_formula_units_Z 96
_cell_length_a 31.109607
_cell_length_b 14.621206
_cell_length_c 10.497767
_cell_angle_alpha 90.000000
_cell_angle_beta 90.000000
_cell_angle_gamma 90.000000
_cell_volume 4775.014009
_symmetry_space_group_name_H-M "C M M A"
_symmetry_group_IT_number 67
_symmetry_cell_setting 'orthorhombic'
loop_
_space_group_symop_operation_xyz
x,y,z
-x,1/2-y,z
x,-y,-z
-x,1/2+y,-z
-x,-y,-z
x,1/2+y,-z
-x,y,z
x,1/2-y,z
1/2+x,1/2+y,z
1/2-x,-y,z
1/2+x,1/2-y,-z
1/2-x,y,-z
1/2-x,1/2-y,-z
1/2+x,y,-z
1/2-x,1/2+y,z
1/2+x,-y,z
loop_
_atom_site_type_symbol
_atom_site_label
_atom_site_fract_x
_atom_site_fract_y
_atom_site_fract_z
Si Si1 0.452196 0.455280 0.860856
Si Si2 0.635204 0.857104 0.513988
Si Si3 0.546676 0.077432 0.389962
Si Si4 0.633422 0.639669 0.222457
Si Si5 0.722435 0.361370 0.376123
Si Si6 0.274091 0.361924 0.871995
O O1 0.500000 0.411391 0.848776
O O2 0.450229 0.530204 0.747853
O O3 0.411151 0.391808 0.839023
O O4 0.449812 0.500000 0.000000
O O5 0.644718 0.750000 0.498454
O O6 0.589251 0.866851 0.579590
O O7 0.634586 0.894216 0.369616
O O8 0.674093 0.894620 0.599094
O O9 0.500000 0.125101 0.397866
O O10 0.546320 0.000000 0.500000
O O11 0.634016 0.750000 0.224383
O O12 0.676523 0.608656 0.149177
O O13 0.722304 0.250000 0.368606
O O14 0.750000 0.385905 0.500000
O O15 0.745926 0.391880 0.248825
O O16 0.275014 0.250000 0.872873
O O17 0.250000 0.390733 0.000000
#
# Coordination Sequence:
#
# PCOD9501324 Si02
#       6
#    16  16  16  16  16  16
#     4  10  22  40  59  79 108 149 184 214 271 342
#     4  10  19  31  55  87 111 139 184 235 273 305
#     4  10  20  36  56  78 107 143 180 219 271 332
#     4  10  19  33  57  86 110 137 182 234 273 310
#     4   9  15  27  47  72 105 140 174 215 264 316
#     4   9  17  29  48  77 110 143 177 216 266 323
#
# _framework density 20.104652000000002
#
# number of rings (size 3 to 8) (size 9 to 14) (size 15 to 20)
#    0.000    2.333    3.333    0.000    0.000    2.000 
#    0.000    4.167    0.000    9.000    0.000    0.000 
#    0.000    0.000    0.000    0.000    0.000    0.000 
#
# Total GULP energy -267805.480136 kJ/mol
# GULP energy per Si atom -5579.280836 kJ/mol
# Density = 2.005889 g / cm^3
# Si number density = 20.104652 Si / 1000 Ang^3
#
#
#
# Elastic Constant Matrix: (Units=GPa)
#
#
# Indices 1 2 3 4 5 6 
#
# 1 226.3274 24.2549 82.6420 0.0000 0.0000 0.0000
# 2 24.2549 30.7601 12.2264 0.0000 0.0000 0.0000
# 3 82.6420 12.2264 156.9572 0.0000 0.0000 0.0000
# 4 0.0000 0.0000 0.0000 4.8332 0.0000 0.0000
# 5 0.0000 0.0000 0.0000 0.0000 30.7596 0.0000
# 6 0.0000 0.0000 0.0000 0.0000 0.0000 82.3729
#
#
#
# Elastic Compliance Matrix: (Units=1/GPa)
#
#
# Indices 1 2 3 4 5 6 
#
# 1 0.005808 -0.003472 -0.002788 0.000000 0.000000 0.000000
# 2 -0.003472 0.035624 -0.000947 0.000000 0.000000 0.000000
# 3 -0.002788 -0.000947 0.007913 0.000000 0.000000 0.000000
# 4 0.000000 0.000000 0.000000 0.206901 0.000000 0.000000
# 5 0.000000 0.000000 0.000000 0.000000 0.032510 0.000000
# 6 0.000000 0.000000 0.000000 0.000000 0.000000 0.012140
#
#
# Mechanical properties :
#
#
# Convention : Reuss Voigt Hill
#
# Bulk Modulus (GPa) = 28.62743 72.47681 50.55212
# Shear Modulus (GPa) = 15.29272 43.25459 29.27365
#
# Velocity S-wave (km/s) = 2.76099 4.64343 3.81998
# Velocity P-wave (km/s) = 4.94310 8.05460 6.68247
#
# Compressibility (1/GPa) = 0.03493153
#
# Stress axis : x y z
#
# Youngs Moduli (GPa) = 172.16415 28.07125 126.37780
#
# Poissons Ratio (x) = 0.09746 0.35232
# Poissons Ratio (y) = 0.59774 0.11967
# Poissons Ratio (z) = 0.47996 0.02658
#
# Static dielectric constant tensor:
#      x y z
#    x 1.723920 0.000000 0.000000 
#    y 0.000000 1.739350 0.000000 
#    z 0.000000 0.000000 1.690440 
# 
# From -- ./inp_files/11460.got.cif
#   From: 2010.05.17/outbox.cif.g08.bks.cpg/sg67_6_cif.got.tgz:11460.got - 2010.06.03 18:28:57.
