data_PCOD9501446
_publ_section_title
;
Structure prediction by ZEFSAII (Michael W. Deem and Ramdas Pophale) SiO2 
 PCOD9501446
Probable space group: C M M A
;
_chemical_formula_sum "Si O2"
_cell_formula_units_Z 116
_cell_length_a 7.765942
_cell_length_b 32.946498
_cell_length_c 22.742525
_cell_angle_alpha 90.000000
_cell_angle_beta 90.000000
_cell_angle_gamma 90.000000
_cell_volume 5818.915923
_symmetry_space_group_name_H-M "C M M A"
_symmetry_group_IT_number 67
_symmetry_cell_setting 'orthorhombic'
loop_
_space_group_symop_operation_xyz
x,y,z
-x,1/2-y,z
x,-y,-z
-x,1/2+y,-z
-x,-y,-z
x,1/2+y,-z
-x,y,z
x,1/2-y,z
1/2+x,1/2+y,z
1/2-x,-y,z
1/2+x,1/2-y,-z
1/2-x,y,-z
1/2-x,1/2-y,-z
1/2+x,y,-z
1/2-x,1/2+y,z
1/2+x,-y,z
loop_
_atom_site_type_symbol
_atom_site_label
_atom_site_fract_x
_atom_site_fract_y
_atom_site_fract_z
Si Si1 0.293448 0.954931 0.401635
Si Si2 0.205486 0.955385 0.734354
Si Si3 0.207105 0.134497 0.434568
Si Si4 0.500000 0.750000 0.831141
Si Si5 0.708549 0.296246 0.655841
Si Si6 0.796245 0.453534 0.932287
Si Si7 0.699066 0.894662 0.832536
Si Si8 0.302350 0.308574 0.793669
O O1 0.500000 0.953299 0.403038
O O2 0.236140 0.953954 0.333420
O O3 0.228178 0.912292 0.428365
O O4 0.250000 0.000000 0.425773
O O5 0.293084 0.922653 0.775022
O O6 0.000000 0.949117 0.735407
O O7 0.250000 0.000000 0.757294
O O8 0.250000 0.148857 0.500000
O O9 0.270730 0.167362 0.386536
O O10 0.000000 0.132697 0.427820
O O11 0.654052 0.784449 0.827034
O O12 0.500000 0.295546 0.650579
O O13 0.769292 0.250000 0.642478
O O14 0.745587 0.305598 0.724194
O O15 0.750000 0.500000 0.918327
O O16 0.724717 0.421159 0.886064
O O17 0.000000 0.451123 0.927151
O O18 0.750000 0.445542 0.000000
O O19 0.500000 0.884558 0.845275
O O20 0.797686 0.854140 0.816872
O O21 0.500000 0.293930 0.798910
#
# Coordination Sequence:
#
# PCOD9501446 Si02
#       8
#    16  16  16   4  16  16  16  16
#     4   9  19  35  53  71  99 135 178 226 279 337
#     4  10  19  32  51  77 108 149 187 230 290 350
#     4  10  21  37  52  74 103 135 178 230 278 338
#     4  12  22  40  60  94 128 142 198 242 290 366
#     4   9  18  36  60  80 107 144 181 219 281 351
#     4  10  21  36  56  81 120 165 211 254 292 337
#     4  11  22  35  53  86 122 153 199 248 286 344
#     4  11  22  39  63  89 122 159 188 238 303 353
#
# _framework density 19.934985000000001
#
# number of rings (size 3 to 8) (size 9 to 14) (size 15 to 20)
#    0.000    1.931    1.379    3.103    0.000    7.172 
#    1.241    1.379    0.000    0.000    0.000    0.483 
#    0.000    0.000    0.000    0.000    0.000    0.000 
#
# Total GULP energy -323135.054361 kJ/mol
# GULP energy per Si atom -5571.294041 kJ/mol
# Density = 1.988961 g / cm^3
# Si number density = 19.934985 Si / 1000 Ang^3
#
#
#
# Elastic Constant Matrix: (Units=GPa)
#
#
# Indices 1 2 3 4 5 6 
#
# 1 60.4507 19.3494 2.6692 0.0000 0.0000 0.0000
# 2 19.3494 157.4083 50.4157 0.0000 0.0000 0.0000
# 3 2.6692 50.4157 54.2822 0.0000 0.0000 0.0000
# 4 0.0000 0.0000 0.0000 27.4167 0.0000 0.0000
# 5 0.0000 0.0000 0.0000 0.0000 33.1797 0.0000
# 6 0.0000 0.0000 0.0000 0.0000 0.0000 1.7204
#
#
#
# Elastic Compliance Matrix: (Units=1/GPa)
#
#
# Indices 1 2 3 4 5 6 
#
# 1 0.017317 -0.002642 0.001602 0.000000 0.000000 0.000000
# 2 -0.002642 0.009446 -0.008643 0.000000 0.000000 0.000000
# 3 0.001602 -0.008643 0.026371 0.000000 0.000000 0.000000
# 4 0.000000 0.000000 0.000000 0.036474 0.000000 0.000000
# 5 0.000000 0.000000 0.000000 0.000000 0.030139 0.000000
# 6 0.000000 0.000000 0.000000 0.000000 0.000000 0.581258
#
#
# Mechanical properties :
#
#
# Convention : Reuss Voigt Hill
#
# Bulk Modulus (GPa) = 29.61351 46.33442 37.97396
# Shear Modulus (GPa) = 6.83408 25.77716 16.30562
#
# Velocity S-wave (km/s) = 1.85354 3.59982 2.86307
# Velocity P-wave (km/s) = 4.41227 6.36957 5.47903
#
# Compressibility (1/GPa) = 0.03376837
#
# Stress axis : x y z
#
# Youngs Moduli (GPa) = 57.74574 105.86542 37.92046
#
# Poissons Ratio (x) = 0.27968 -0.06075
# Poissons Ratio (y) = 0.15256 0.32775
# Poissons Ratio (z) = -0.09252 0.91502
#
# Static dielectric constant tensor:
#      x y z
#    x 1.732340 0.000000 0.000000 
#    y 0.000000 1.777930 0.000000 
#    z 0.000000 0.000000 1.726540 
# 
# From -- ./inp_files/41249.got.cif
#   From: 2010.05.17/outbox.cif.g08.bks.cpg/sg67_21_cif.got.tgz:41249.got - 2010.06.03 18:28:57.
