data_PCOD9501272
_publ_section_title
;
Structure prediction by ZEFSAII (Michael W. Deem and Ramdas Pophale) SiO2 
 PCOD9501272
Probable space group: C M M A
;
_chemical_formula_sum "Si O2"
_cell_formula_units_Z 112
_cell_length_a 24.451255
_cell_length_b 20.628758
_cell_length_c 12.151526
_cell_angle_alpha 90.000000
_cell_angle_beta 90.000000
_cell_angle_gamma 90.000000
_cell_volume 6129.217833
_symmetry_space_group_name_H-M "C M M A"
_symmetry_group_IT_number 67
_symmetry_cell_setting 'orthorhombic'
loop_
_space_group_symop_operation_xyz
x,y,z
-x,1/2-y,z
x,-y,-z
-x,1/2+y,-z
-x,-y,-z
x,1/2+y,-z
-x,y,z
x,1/2-y,z
1/2+x,1/2+y,z
1/2-x,-y,z
1/2+x,1/2-y,-z
1/2-x,y,-z
1/2-x,1/2-y,-z
1/2+x,y,-z
1/2-x,1/2+y,z
1/2+x,-y,z
loop_
_atom_site_type_symbol
_atom_site_label
_atom_site_fract_x
_atom_site_fract_y
_atom_site_fract_z
Si Si1 0.063478 0.630466 0.741751
Si Si2 0.157447 0.677850 0.133377
Si Si3 0.433660 0.425411 0.506765
Si Si4 0.249887 0.424937 0.133335
Si Si5 0.158910 0.178561 0.126065
Si Si6 0.434209 0.623257 0.731612
Si Si7 0.063983 0.001660 0.879014
O O1 0.081817 0.609738 0.619587
O O2 0.104966 0.678005 0.800310
O O3 0.066423 0.566375 0.818090
O O4 0.000000 0.651577 0.738034
O O5 0.181901 0.750000 0.145217
O O6 0.198546 0.619911 0.165864
O O7 0.102648 0.674549 0.205289
O O8 0.145015 0.669258 0.003233
O O9 0.414051 0.500000 0.500000
O O10 0.500000 0.429245 0.509805
O O11 0.419788 0.386924 0.396017
O O12 0.250000 0.500000 0.172031
O O13 0.197091 0.381289 0.162265
O O14 0.250000 0.427233 0.000000
O O15 0.185476 0.250000 0.134318
O O16 0.500000 0.633476 0.739383
O O17 0.418072 0.557174 0.795993
O O18 0.000000 0.017538 0.895975
O O19 0.090892 0.000000 0.000000
#
# Coordination Sequence:
#
# PCOD9501272 Si02
#       7
#    16  16  16  16  16  16  16
#     4  10  19  31  50  77 108 144 184 222 266 318
#     4  10  21  36  54  78 112 148 177 215 271 330
#     4   9  16  30  49  72 105 146 187 229 271 313
#     4   9  19  35  57  82 105 136 181 225 264 318
#     4  10  21  36  54  78 112 148 177 215 271 330
#     4  10  19  31  50  77 108 144 184 222 266 318
#     4   9  16  25  41  70 106 136 166 213 263 305
#
# _framework density 18.273130999999999
#
# number of rings (size 3 to 8) (size 9 to 14) (size 15 to 20)
#    0.000    2.429    1.429    1.286    2.000    4.000 
#    0.000    2.143    0.000    3.429    0.000    4.000 
#    0.000    0.000    0.000    0.000    0.000    0.000 
#
# Total GULP energy -311945.800680 kJ/mol
# GULP energy per Si atom -5570.460726 kJ/mol
# Density = 1.823154 g / cm^3
# Si number density = 18.273131 Si / 1000 Ang^3
#
#
#
# Elastic Constant Matrix: (Units=GPa)
#
#
# Indices 1 2 3 4 5 6 
#
# 1 76.7225 44.4368 37.7245 0.0000 0.0000 0.0000
# 2 44.4368 107.6081 30.9584 0.0000 0.0000 0.0000
# 3 37.7245 30.9584 107.2326 0.0000 0.0000 0.0000
# 4 0.0000 0.0000 0.0000 14.5626 0.0000 0.0000
# 5 0.0000 0.0000 0.0000 0.0000 4.4060 0.0000
# 6 0.0000 0.0000 0.0000 0.0000 0.0000 17.9774
#
#
#
# Elastic Compliance Matrix: (Units=1/GPa)
#
#
# Indices 1 2 3 4 5 6 
#
# 1 0.019214 -0.006532 -0.004874 0.000000 0.000000 0.000000
# 2 -0.006532 0.012356 -0.001269 0.000000 0.000000 0.000000
# 3 -0.004874 -0.001269 0.011406 0.000000 0.000000 0.000000
# 4 0.000000 0.000000 0.000000 0.068669 0.000000 0.000000
# 5 0.000000 0.000000 0.000000 0.000000 0.226965 0.000000
# 6 0.000000 0.000000 0.000000 0.000000 0.000000 0.055625
#
#
# Mechanical properties :
#
#
# Convention : Reuss Voigt Hill
#
# Bulk Modulus (GPa) = 56.73411 57.53365 57.13388
# Shear Modulus (GPa) = 11.75201 19.28544 15.51873
#
# Velocity S-wave (km/s) = 2.53875 3.25221 2.91738
# Velocity P-wave (km/s) = 6.30150 6.75694 6.53319
#
# Compressibility (1/GPa) = 0.01762608
#
# Stress axis : x y z
#
# Youngs Moduli (GPa) = 52.04629 80.93520 87.67002
#
# Poissons Ratio (x) = 0.52869 0.42726
# Poissons Ratio (y) = 0.33998 0.11126
# Poissons Ratio (z) = 0.25365 0.10271
#
# Static dielectric constant tensor:
#      x y z
#    x 1.661640 0.000000 0.000000 
#    y 0.000000 1.664690 0.000000 
#    z 0.000000 0.000000 1.609510 
# 
# From -- ./inp_files/23134.got.cif
#   From: 2010.05.17/outbox.cif.g08.bks.cpg/sg67_12_cif.got.tgz:23134.got - 2010.06.03 18:28:57.
