data_PCOD9501668
_publ_section_title
;
Structure prediction by ZEFSAII (Michael W. Deem and Ramdas Pophale) SiO2 
 PCOD9501668
Probable space group: C M M A
;
_chemical_formula_sum "Si O2"
_cell_formula_units_Z 80
_cell_length_a 9.754444
_cell_length_b 18.349697
_cell_length_c 24.604043
_cell_angle_alpha 90.000000
_cell_angle_beta 90.000000
_cell_angle_gamma 90.000000
_cell_volume 4403.904519
_symmetry_space_group_name_H-M "C M M A"
_symmetry_group_IT_number 67
_symmetry_cell_setting 'orthorhombic'
loop_
_space_group_symop_operation_xyz
x,y,z
-x,1/2-y,z
x,-y,-z
-x,1/2+y,-z
-x,-y,-z
x,1/2+y,-z
-x,y,z
x,1/2-y,z
1/2+x,1/2+y,z
1/2-x,-y,z
1/2+x,1/2-y,-z
1/2-x,y,-z
1/2-x,1/2-y,-z
1/2+x,y,-z
1/2-x,1/2+y,z
1/2+x,-y,z
loop_
_atom_site_type_symbol
_atom_site_label
_atom_site_fract_x
_atom_site_fract_y
_atom_site_fract_z
Si Si1 0.346000 0.068140 0.233989
Si Si2 0.500000 0.338425 0.040173
Si Si3 0.285594 0.162403 0.130774
Si Si4 0.666276 0.576193 0.642094
Si Si5 0.662078 0.162142 0.553467
Si Si6 0.000000 0.338799 0.083795
O O1 0.500000 0.039459 0.235557
O O2 0.333672 0.126376 0.186206
O O3 0.318440 0.098242 0.294504
O O4 0.250000 0.000000 0.222962
O O5 0.500000 0.250000 0.036600
O O6 0.627913 0.359230 0.077561
O O7 0.500000 0.365338 0.978518
O O8 0.295288 0.250000 0.135358
O O9 0.132518 0.139479 0.116980
O O10 0.500000 0.570831 0.630685
O O11 0.750000 0.500000 0.636393
O O12 0.748863 0.630737 0.603194
O O13 0.500000 0.138659 0.552538
O O14 0.660495 0.250000 0.555682
O O15 0.750000 0.140432 0.500000
O O16 0.000000 0.250000 0.080999
#
# Coordination Sequence:
#
# PCOD9501668 Si02
#       6
#    16   8  16  16  16   8
#     4  10  22  38  57  78 107 147 183 224 278 329
#     4   9  16  30  53  77 107 137 174 223 272 327
#     4  10  19  33  54  81 107 136 180 226 272 326
#     4  10  21  38  59  83 111 147 193 236 278 330
#     4  10  21  38  60  88 121 154 187 226 276 327
#     4   9  18  30  49  81 109 137 172 221 278 323
#
# _framework density 18.165699
#
# number of rings (size 3 to 8) (size 9 to 14) (size 15 to 20)
#    0.000    2.200    1.000    1.800    1.400    5.600 
#    0.000    4.000    0.000    3.600    0.000    0.000 
#    0.000    0.000    0.000    0.000    0.000    0.000 
#
# Total GULP energy -222857.803848 kJ/mol
# GULP energy per Si atom -5571.445096 kJ/mol
# Density = 1.812435 g / cm^3
# Si number density = 18.165699 Si / 1000 Ang^3
#
#
#
# Elastic Constant Matrix: (Units=GPa)
#
#
# Indices 1 2 3 4 5 6 
#
# 1 130.7498 18.4663 42.6870 0.0000 0.0000 0.0000
# 2 18.4663 13.8527 28.7595 0.0000 0.0000 0.0000
# 3 42.6870 28.7595 96.9920 0.0000 0.0000 0.0000
# 4 0.0000 0.0000 0.0000 51.5891 0.0000 0.0000
# 5 0.0000 0.0000 0.0000 0.0000 22.7078 0.0000
# 6 0.0000 0.0000 0.0000 0.0000 0.0000 19.6331
#
#
#
# Elastic Compliance Matrix: (Units=1/GPa)
#
#
# Indices 1 2 3 4 5 6 
#
# 1 0.009467 -0.010328 -0.001104 0.000000 0.000000 0.000000
# 2 -0.010328 0.199056 -0.054477 0.000000 0.000000 0.000000
# 3 -0.001104 -0.054477 0.026949 0.000000 0.000000 0.000000
# 4 0.000000 0.000000 0.000000 0.019384 0.000000 0.000000
# 5 0.000000 0.000000 0.000000 0.000000 0.044038 0.000000
# 6 0.000000 0.000000 0.000000 0.000000 0.000000 0.050934
#
#
# Mechanical properties :
#
#
# Convention : Reuss Voigt Hill
#
# Bulk Modulus (GPa) = 9.64754 46.82444 28.23599
# Shear Modulus (GPa) = 9.68619 28.89811 19.29215
#
# Velocity S-wave (km/s) = 2.31165 3.99282 3.26238
# Velocity P-wave (km/s) = 3.52808 6.86215 5.45602
#
# Compressibility (1/GPa) = 0.10365338
#
# Stress axis : x y z
#
# Youngs Moduli (GPa) = 105.62594 5.02372 37.10644
#
# Poissons Ratio (x) = 0.05188 0.04098
# Poissons Ratio (y) = 1.09087 2.02146
# Poissons Ratio (z) = 0.11665 0.27368
#
# Static dielectric constant tensor:
#      x y z
#    x 1.344460 0.000000 0.000000 
#    y 0.000000 1.601890 0.000000 
#    z 0.000000 0.000000 1.612010 
# 
# From -- ./inp_files/40576.got.cif
#   From: 2010.05.17/outbox.cif.g08.bks.cpg/sg67_21_cif.got.tgz:40576.got - 2010.06.03 18:28:57.
