data_PCOD9501177
_publ_section_title
;
Structure prediction by ZEFSAII (Michael W. Deem and Ramdas Pophale) SiO2 
 PCOD9501177
Probable space group: C M M A
;
_chemical_formula_sum "Si O2"
_cell_formula_units_Z 120
_cell_length_a 9.086663
_cell_length_b 27.331793
_cell_length_c 29.817336
_cell_angle_alpha 90.000000
_cell_angle_beta 90.000000
_cell_angle_gamma 90.000000
_cell_volume 7405.278286
_symmetry_space_group_name_H-M "C M M A"
_symmetry_group_IT_number 67
_symmetry_cell_setting 'orthorhombic'
loop_
_space_group_symop_operation_xyz
x,y,z
-x,1/2-y,z
x,-y,-z
-x,1/2+y,-z
-x,-y,-z
x,1/2+y,-z
-x,y,z
x,1/2-y,z
1/2+x,1/2+y,z
1/2-x,-y,z
1/2+x,1/2-y,-z
1/2-x,y,-z
1/2-x,1/2-y,-z
1/2+x,y,-z
1/2-x,1/2+y,z
1/2+x,-y,z
loop_
_atom_site_type_symbol
_atom_site_label
_atom_site_fract_x
_atom_site_fract_y
_atom_site_fract_z
Si Si1 0.669378 0.309477 0.454713
Si Si2 0.676440 0.448526 0.115881
Si Si3 0.675692 0.307971 0.638324
Si Si4 0.676005 0.550168 0.777927
Si Si5 0.821897 0.750000 0.951346
Si Si6 0.667451 0.306419 0.802957
Si Si7 0.174990 0.353164 0.724152
Si Si8 0.823929 0.650280 0.899129
O O1 0.500000 0.325574 0.453358
O O2 0.668982 0.250000 0.456120
O O3 0.750000 0.326273 0.500000
O O4 0.754985 0.322648 0.409401
O O5 0.500000 0.450868 0.111295
O O6 0.750000 0.500000 0.101738
O O7 0.712286 0.442798 0.169289
O O8 0.740840 0.400500 0.091424
O O9 0.500000 0.312911 0.637136
O O10 0.709145 0.250000 0.645658
O O11 0.744462 0.338926 0.678556
O O12 0.500000 0.546083 0.775569
O O13 0.750000 0.500000 0.763161
O O14 0.720698 0.595303 0.746623
O O15 0.779863 0.699268 0.926260
O O16 0.000000 0.750000 0.953617
O O17 0.750000 0.750000 0.000000
O O18 0.500000 0.318515 0.788205
O O19 0.667677 0.250000 0.816838
O O20 0.777268 0.314959 0.762405
O O21 0.703651 0.337108 0.846934
O O22 0.000000 0.352957 0.717503
O O23 0.000000 0.643649 0.904751
#
# Coordination Sequence:
#
# PCOD9501177 Si02
#       8
#    16  16  16  16   8  16  16  16
#     4   9  16  27  44  64  86 116 155 201 249 293
#     4  10  19  33  52  78 107 136 172 213 257 304
#     4  10  20  32  44  62  90 127 168 203 239 290
#     4   9  19  32  46  66  93 124 161 202 242 288
#     4  10  22  40  60  84 112 142 176 214 261 310
#     4  10  19  31  47  68  95 131 169 201 236 285
#     4  11  21  32  44  65  96 128 162 202 245 290
#     4  10  19  34  55  78 105 137 172 211 252 302
#
# _framework density 16.204657000000001
#
# number of rings (size 3 to 8) (size 9 to 14) (size 15 to 20)
#    0.000    2.133    2.000    2.000    0.000    6.400 
#    0.000    0.000    0.000    0.400    0.000    2.800 
#    0.000    0.533    0.000    5.600    0.000    3.333 
#
# Total GULP energy -334528.725321 kJ/mol
# GULP energy per Si atom -5575.478755 kJ/mol
# Density = 1.616777 g / cm^3
# Si number density = 16.204657 Si / 1000 Ang^3
#
#
#
# Elastic Constant Matrix: (Units=GPa)
#
#
# Indices 1 2 3 4 5 6 
#
# 1 43.6534 39.0652 35.7213 0.0000 0.0000 0.0000
# 2 39.0652 108.2023 36.6346 0.0000 0.0000 0.0000
# 3 35.7213 36.6346 61.9199 0.0000 0.0000 0.0000
# 4 0.0000 0.0000 0.0000 8.5238 0.0000 0.0000
# 5 0.0000 0.0000 0.0000 0.0000 25.9353 0.0000
# 6 0.0000 0.0000 0.0000 0.0000 0.0000 25.9214
#
#
#
# Elastic Compliance Matrix: (Units=1/GPa)
#
#
# Indices 1 2 3 4 5 6 
#
# 1 0.051733 -0.010720 -0.023502 0.000000 0.000000 0.000000
# 2 -0.010720 0.013779 -0.001967 0.000000 0.000000 0.000000
# 3 -0.023502 -0.001967 0.030872 0.000000 0.000000 0.000000
# 4 0.000000 0.000000 0.000000 0.117318 0.000000 0.000000
# 5 0.000000 0.000000 0.000000 0.000000 0.038557 0.000000
# 6 0.000000 0.000000 0.000000 0.000000 0.000000 0.038578
#
#
# Mechanical properties :
#
#
# Convention : Reuss Voigt Hill
#
# Bulk Modulus (GPa) = 41.65956 48.51309 45.08632
# Shear Modulus (GPa) = 13.46921 18.89974 16.18447
#
# Velocity S-wave (km/s) = 2.88617 3.41884 3.16374
# Velocity P-wave (km/s) = 6.07214 6.75184 6.42099
#
# Compressibility (1/GPa) = 0.02400410
#
# Stress axis : x y z
#
# Youngs Moduli (GPa) = 19.33019 72.57649 32.39199
#
# Poissons Ratio (x) = 0.77805 0.76126
# Poissons Ratio (y) = 0.20723 0.06373
# Poissons Ratio (z) = 0.45429 0.14279
#
# Static dielectric constant tensor:
#      x y z
#    x 1.549060 0.000000 0.000000 
#    y 0.000000 1.554360 0.000000 
#    z 0.000000 0.000000 1.523140 
# 
# From -- ./inp_files/43920.got.cif
#   From: 2010.05.17/outbox.cif.g08.bks.cpg/sg67_22_cif.got.tgz:43920.got - 2010.06.03 18:28:57.
