data_PCOD9501004
_publ_section_title
;
Structure prediction by ZEFSAII (Michael W. Deem and Ramdas Pophale) SiO2 
 PCOD9501004
Probable space group: C M M A
;
_chemical_formula_sum "Si O2"
_cell_formula_units_Z 104
_cell_length_a 26.441268
_cell_length_b 8.756219
_cell_length_c 28.426495
_cell_angle_alpha 90.000000
_cell_angle_beta 90.000000
_cell_angle_gamma 90.000000
_cell_volume 6581.459413
_symmetry_space_group_name_H-M "C M M A"
_symmetry_group_IT_number 67
_symmetry_cell_setting 'orthorhombic'
loop_
_space_group_symop_operation_xyz
x,y,z
-x,1/2-y,z
x,-y,-z
-x,1/2+y,-z
-x,-y,-z
x,1/2+y,-z
-x,y,z
x,1/2-y,z
1/2+x,1/2+y,z
1/2-x,-y,z
1/2+x,1/2-y,-z
1/2-x,y,-z
1/2-x,1/2-y,-z
1/2+x,y,-z
1/2-x,1/2+y,z
1/2+x,-y,z
loop_
_atom_site_type_symbol
_atom_site_label
_atom_site_fract_x
_atom_site_fract_y
_atom_site_fract_z
Si Si1 0.695065 0.565523 0.350229
Si Si2 0.000000 0.933334 0.552379
Si Si3 0.192822 0.433233 0.952413
Si Si4 0.159074 0.072912 0.245726
Si Si5 0.943822 0.924067 0.706054
Si Si6 0.805894 0.431495 0.850376
Si Si7 0.091545 0.070597 0.613254
O O1 0.694765 0.750000 0.352401
O O2 0.750000 0.500000 0.363775
O O3 0.684520 0.521015 0.295174
O O4 0.647806 0.502268 0.380940
O O5 0.000000 0.750000 0.552658
O O6 0.000000 0.000000 0.500000
O O7 0.051115 0.992777 0.578258
O O8 0.195254 0.250000 0.956281
O O9 0.250000 0.500000 0.951254
O O10 0.170131 0.475049 0.901176
O O11 0.168748 0.500000 0.000000
O O12 0.173981 0.250000 0.239383
O O13 0.099572 0.063546 0.255894
O O14 0.170404 0.985275 0.198284
O O15 0.939344 0.750000 0.685888
O O16 0.000000 0.941985 0.724637
O O17 0.932956 0.041024 0.664468
O O18 0.802715 0.250000 0.850100
O O19 0.750000 0.500000 0.850214
O O20 0.095657 0.250000 0.602931
#
# Coordination Sequence:
#
# PCOD9501004 Si02
#       7
#    16   8  16  16  16  16  16
#     4  10  20  34  51  74 103 138 175 212 247 288
#     4  12  24  40  60  84 112 138 168 212 257 298
#     4   9  16  25  37  53  72 100 139 180 225 272
#     4   9  18  29  43  65  91 123 160 193 234 282
#     4   9  17  31  50  69  94 127 159 196 239 282
#     4  10  19  28  39  56  82 115 148 186 228 272
#     4  11  21  34  54  81 107 136 171 206 249 300
#
# _framework density 15.801966999999999
#
# number of rings (size 3 to 8) (size 9 to 14) (size 15 to 20)
#    0.000    2.154    0.769    5.308    0.000    6.154 
#    0.000    0.000    0.000    0.462    0.000    3.231 
#    0.000    0.615    0.000    1.385    0.000    2.462 
#
# Total GULP energy -289563.523943 kJ/mol
# GULP energy per Si atom -5568.529307 kJ/mol
# Density = 1.576600 g / cm^3
# Si number density = 15.801967 Si / 1000 Ang^3
#
#
#
# Elastic Constant Matrix: (Units=GPa)
#
#
# Indices 1 2 3 4 5 6 
#
# 1 102.8539 40.3288 43.5804 0.0000 0.0000 0.0000
# 2 40.3288 86.1060 51.1587 0.0000 0.0000 0.0000
# 3 43.5804 51.1587 104.8925 0.0000 0.0000 0.0000
# 4 0.0000 0.0000 0.0000 32.4131 0.0000 0.0000
# 5 0.0000 0.0000 0.0000 0.0000 17.0192 0.0000
# 6 0.0000 0.0000 0.0000 0.0000 0.0000 20.6016
#
#
#
# Elastic Compliance Matrix: (Units=1/GPa)
#
#
# Indices 1 2 3 4 5 6 
#
# 1 0.012691 -0.003958 -0.003342 0.000000 0.000000 0.000000
# 2 -0.003958 0.017586 -0.006933 0.000000 0.000000 0.000000
# 3 -0.003342 -0.006933 0.014304 0.000000 0.000000 0.000000
# 4 0.000000 0.000000 0.000000 0.030852 0.000000 0.000000
# 5 0.000000 0.000000 0.000000 0.000000 0.058757 0.000000
# 6 0.000000 0.000000 0.000000 0.000000 0.000000 0.048540
#
#
# Mechanical properties :
#
#
# Convention : Reuss Voigt Hill
#
# Bulk Modulus (GPa) = 62.05669 62.66534 62.36102
# Shear Modulus (GPa) = 23.08754 24.59241 23.83997
#
# Velocity S-wave (km/s) = 3.82652 3.94926 3.88838
# Velocity P-wave (km/s) = 7.67332 7.78064 7.72716
#
# Compressibility (1/GPa) = 0.01611430
#
# Stress axis : x y z
#
# Youngs Moduli (GPa) = 78.79842 56.86186 69.91290
#
# Poissons Ratio (x) = 0.22506 0.23366
# Poissons Ratio (y) = 0.31189 0.48470
# Poissons Ratio (z) = 0.26336 0.39422
#
# Static dielectric constant tensor:
#      x y z
#    x 1.530010 0.000000 0.000000 
#    y 0.000000 1.593410 0.000000 
#    z 0.000000 0.000000 1.553540 
# 
# From -- ./inp_files/44837.got.cif
#   From: 2010.05.17/outbox.cif.g08.bks.cpg/sg67_23_cif.got.tgz:44837.got - 2010.06.03 18:28:57.
