data_PCOD9501258
_publ_section_title
;
Structure prediction by ZEFSAII (Michael W. Deem and Ramdas Pophale) SiO2 
 PCOD9501258
Probable space group: C M M A
;
_chemical_formula_sum "Si O2"
_cell_formula_units_Z 88
_cell_length_a 8.205640
_cell_length_b 16.712397
_cell_length_c 31.315108
_cell_angle_alpha 90.000000
_cell_angle_beta 90.000000
_cell_angle_gamma 90.000000
_cell_volume 4294.425936
_symmetry_space_group_name_H-M "C M M A"
_symmetry_group_IT_number 67
_symmetry_cell_setting 'orthorhombic'
loop_
_space_group_symop_operation_xyz
x,y,z
-x,1/2-y,z
x,-y,-z
-x,1/2+y,-z
-x,-y,-z
x,1/2+y,-z
-x,y,z
x,1/2-y,z
1/2+x,1/2+y,z
1/2-x,-y,z
1/2+x,1/2-y,-z
1/2-x,y,-z
1/2-x,1/2-y,-z
1/2+x,y,-z
1/2-x,1/2+y,z
1/2+x,-y,z
loop_
_atom_site_type_symbol
_atom_site_label
_atom_site_fract_x
_atom_site_fract_y
_atom_site_fract_z
Si Si1 0.194665 0.592311 0.725200
Si Si2 0.198750 0.841127 0.815295
Si Si3 0.803019 0.750000 0.951066
Si Si4 0.305538 0.408640 0.365015
Si Si5 0.696592 0.587742 0.097146
Si Si6 0.303699 0.342093 0.455150
O O1 0.250000 0.500000 0.727151
O O2 0.255956 0.634473 0.768209
O O3 0.249644 0.628858 0.679871
O O4 0.000000 0.594073 0.725437
O O5 0.245403 0.750000 0.825183
O O6 0.252291 0.898174 0.853809
O O7 0.000000 0.843435 0.814587
O O8 0.747650 0.666840 0.928767
O O9 0.000000 0.750000 0.948129
O O10 0.750000 0.750000 0.000000
O O11 0.500000 0.403855 0.365836
O O12 0.250000 0.500000 0.362997
O O13 0.242497 0.376369 0.410275
O O14 0.500000 0.588745 0.096515
O O15 0.750000 0.500000 0.081727
O O16 0.500000 0.344049 0.454437
O O17 0.248771 0.250000 0.456082
O O18 0.250000 0.380747 0.500000
#
# Coordination Sequence:
#
# PCOD9501258 Si02
#       6
#    16  16   8  16  16  16
#     4  10  19  31  50  74 101 134 171 212 258 310
#     4   9  17  32  54  79 108 142 183 226 269 325
#     4  10  22  40  62  86 118 158 196 240 291 344
#     4  10  20  34  51  71 100 133 166 207 255 310
#     4  10  20  37  61  86 115 154 195 237 290 343
#     4   9  19  35  53  72  94 124 161 203 253 306
#
# _framework density 20.491681
#
# number of rings (size 3 to 8) (size 9 to 14) (size 15 to 20)
#    0.000    2.364    0.909    2.727    0.000    3.636 
#    0.000    4.545    0.000    3.818    0.000    0.000 
#    0.000    0.000    0.000    0.000    0.000    0.000 
#
# Total GULP energy -245341.530974 kJ/mol
# GULP energy per Si atom -5575.943886 kJ/mol
# Density = 2.044504 g / cm^3
# Si number density = 20.491681 Si / 1000 Ang^3
#
#
#
# Elastic Constant Matrix: (Units=GPa)
#
#
# Indices 1 2 3 4 5 6 
#
# 1 19.2290 6.1573 15.4576 0.0000 0.0000 0.0000
# 2 6.1573 101.5850 65.8867 0.0000 0.0000 0.0000
# 3 15.4576 65.8867 169.1253 0.0000 0.0000 0.0000
# 4 0.0000 0.0000 0.0000 22.0318 0.0000 0.0000
# 5 0.0000 0.0000 0.0000 0.0000 21.5437 0.0000
# 6 0.0000 0.0000 0.0000 0.0000 0.0000 17.4479
#
#
#
# Elastic Compliance Matrix: (Units=1/GPa)
#
#
# Indices 1 2 3 4 5 6 
#
# 1 0.056129 -0.000100 -0.005091 0.000000 0.000000 0.000000
# 2 -0.000100 0.013172 -0.005122 0.000000 0.000000 0.000000
# 3 -0.005091 -0.005122 0.008374 0.000000 0.000000 0.000000
# 4 0.000000 0.000000 0.000000 0.045389 0.000000 0.000000
# 5 0.000000 0.000000 0.000000 0.000000 0.046417 0.000000
# 6 0.000000 0.000000 0.000000 0.000000 0.000000 0.057314
#
#
# Mechanical properties :
#
#
# Convention : Reuss Voigt Hill
#
# Bulk Modulus (GPa) = 17.52906 51.66028 34.59467
# Shear Modulus (GPa) = 18.76605 25.70052 22.23329
#
# Velocity S-wave (km/s) = 3.02948 3.54530 3.29749
# Velocity P-wave (km/s) = 4.56178 6.48259 5.60508
#
# Compressibility (1/GPa) = 0.05704812
#
# Stress axis : x y z
#
# Youngs Moduli (GPa) = 17.81599 75.91630 119.42205
#
# Poissons Ratio (x) = 0.00760 0.60799
# Poissons Ratio (y) = 0.00178 0.61174
# Poissons Ratio (z) = 0.09070 0.38888
#
# Static dielectric constant tensor:
#      x y z
#    x 1.717920 0.000000 0.000000 
#    y 0.000000 1.725200 0.000000 
#    z 0.000000 0.000000 1.784720 
# 
# From -- ./inp_files/45222.got.cif
#   From: 2010.05.17/outbox.cif.g08.bks.cpg/sg67_23_cif.got.tgz:45222.got - 2010.06.03 18:28:57.
