data_PCOD9501280
_publ_section_title
;
Structure prediction by ZEFSAII (Michael W. Deem and Ramdas Pophale) SiO2 
 PCOD9501280
Probable space group: C M M A
;
_chemical_formula_sum "Si O2"
_cell_formula_units_Z 80
_cell_length_a 25.012169
_cell_length_b 33.767359
_cell_length_c 5.320790
_cell_angle_alpha 90.000000
_cell_angle_beta 90.000000
_cell_angle_gamma 90.000000
_cell_volume 4493.912045
_symmetry_space_group_name_H-M "C M M A"
_symmetry_group_IT_number 67
_symmetry_cell_setting 'orthorhombic'
loop_
_space_group_symop_operation_xyz
x,y,z
-x,1/2-y,z
x,-y,-z
-x,1/2+y,-z
-x,-y,-z
x,1/2+y,-z
-x,y,z
x,1/2-y,z
1/2+x,1/2+y,z
1/2-x,-y,z
1/2+x,1/2-y,-z
1/2-x,y,-z
1/2-x,1/2-y,-z
1/2+x,y,-z
1/2-x,1/2+y,z
1/2+x,-y,z
loop_
_atom_site_type_symbol
_atom_site_label
_atom_site_fract_x
_atom_site_fract_y
_atom_site_fract_z
Si Si1 0.893046 0.571848 0.656892
Si Si2 0.273379 0.545599 0.251161
Si Si3 0.562771 0.960445 0.860249
Si Si4 0.564902 0.843901 0.472651
Si Si5 0.935624 0.705058 0.031518
O O1 0.836161 0.553111 0.733250
O O2 0.911833 0.547427 0.410297
O O3 0.900328 0.616606 0.561730
O O4 0.927199 0.570755 0.916037
O O5 0.250000 0.500000 0.251175
O O6 0.250000 0.564665 0.500000
O O7 0.250000 0.563859 0.000000
O O8 0.500000 0.964385 0.813888
O O9 0.582524 0.000000 0.000000
O O10 0.500000 0.853186 0.478762
O O11 0.579685 0.821547 0.729716
O O12 0.575379 0.815818 0.233712
O O13 0.914603 0.750000 0.044005
O O14 0.000000 0.707660 0.047140
#
# Coordination Sequence:
#
# PCOD9501280 Si02
#       5
#    16  16  16  16  16
#     4  12  23  37  59  78 111 147 187 241 288 328
#     4  10  23  39  58  79  98 133 188 243 296 339
#     4  11  24  37  53  79 110 147 188 224 272 340
#     4  10  19  31  50  78 112 147 181 218 270 328
#     4   9  17  30  49  75 111 151 183 211 251 319
#
# _framework density 17.801860000000001
#
# number of rings (size 3 to 8) (size 9 to 14) (size 15 to 20)
#    0.000    1.600    0.000    5.400    8.400    5.600 
#    0.000    0.000    0.000    0.000    0.000    0.000 
#    0.000   16.000    0.000    0.000    0.000    0.000 
#
# Total GULP energy -222874.856654 kJ/mol
# GULP energy per Si atom -5571.871416 kJ/mol
# Density = 1.776134 g / cm^3
# Si number density = 17.801860 Si / 1000 Ang^3
#
#
#
# Elastic Constant Matrix: (Units=GPa)
#
#
# Indices 1 2 3 4 5 6 
#
# 1 72.0086 33.0242 39.6391 0.0000 0.0000 0.0000
# 2 33.0242 71.1216 10.5044 0.0000 0.0000 0.0000
# 3 39.6391 10.5044 143.4703 0.0000 0.0000 0.0000
# 4 0.0000 0.0000 0.0000 17.4433 0.0000 0.0000
# 5 0.0000 0.0000 0.0000 0.0000 22.3482 0.0000
# 6 0.0000 0.0000 0.0000 0.0000 0.0000 41.1642
#
#
#
# Elastic Compliance Matrix: (Units=1/GPa)
#
#
# Indices 1 2 3 4 5 6 
#
# 1 0.020764 -0.008890 -0.005086 0.000000 0.000000 0.000000
# 2 -0.008890 0.018021 0.001137 0.000000 0.000000 0.000000
# 3 -0.005086 0.001137 0.008292 0.000000 0.000000 0.000000
# 4 0.000000 0.000000 0.000000 0.057329 0.000000 0.000000
# 5 0.000000 0.000000 0.000000 0.000000 0.044746 0.000000
# 6 0.000000 0.000000 0.000000 0.000000 0.000000 0.024293
#
#
# Mechanical properties :
#
#
# Convention : Reuss Voigt Hill
#
# Bulk Modulus (GPa) = 46.73340 50.32620 48.52980
# Shear Modulus (GPa) = 24.24167 29.75331 26.99749
#
# Velocity S-wave (km/s) = 3.69419 4.09266 3.89852
# Velocity P-wave (km/s) = 6.67121 7.11792 6.89818
#
# Compressibility (1/GPa) = 0.02139797
#
# Stress axis : x y z
#
# Youngs Moduli (GPa) = 48.15978 55.49196 120.59758
#
# Poissons Ratio (x) = 0.49334 0.61336
# Poissons Ratio (y) = 0.42816 -0.13711
# Poissons Ratio (z) = 0.24494 -0.06309
#
# Static dielectric constant tensor:
#      x y z
#    x 1.636400 0.000000 0.000000 
#    y 0.000000 1.646150 0.000000 
#    z 0.000000 0.000000 1.685150 
# 
# From -- ./inp_files/3541.got.cif
#   From: 2010.05.17/outbox.cif.g08.bks.cpg/sg67_2_cif.got.tgz:3541.got - 2010.06.03 18:28:57.
