data_PCOD9501217
_publ_section_title
;
Structure prediction by ZEFSAII (Michael W. Deem and Ramdas Pophale) SiO2 
 PCOD9501217
Probable space group: C M M A
;
_chemical_formula_sum "Si O2"
_cell_formula_units_Z 104
_cell_length_a 8.748589
_cell_length_b 28.232710
_cell_length_c 24.129414
_cell_angle_alpha 90.000000
_cell_angle_beta 90.000000
_cell_angle_gamma 90.000000
_cell_volume 5959.877817
_symmetry_space_group_name_H-M "C M M A"
_symmetry_group_IT_number 67
_symmetry_cell_setting 'orthorhombic'
loop_
_space_group_symop_operation_xyz
x,y,z
-x,1/2-y,z
x,-y,-z
-x,1/2+y,-z
-x,-y,-z
x,1/2+y,-z
-x,y,z
x,1/2-y,z
1/2+x,1/2+y,z
1/2-x,-y,z
1/2+x,1/2-y,-z
1/2-x,y,-z
1/2-x,1/2-y,-z
1/2+x,y,-z
1/2-x,1/2+y,z
1/2+x,-y,z
loop_
_atom_site_type_symbol
_atom_site_label
_atom_site_fract_x
_atom_site_fract_y
_atom_site_fract_z
Si Si1 0.325930 0.048185 0.753210
Si Si2 0.816567 0.750000 0.561492
Si Si3 0.674598 0.126589 0.849179
Si Si4 0.317114 0.146487 0.561636
Si Si5 0.185653 0.050861 0.062146
Si Si6 0.315691 0.804783 0.762266
Si Si7 0.818951 0.117874 0.671055
O O1 0.500000 0.040634 0.734629
O O2 0.328774 0.085703 0.802675
O O3 0.225602 0.071535 0.705286
O O4 0.250000 0.000000 0.772234
O O5 0.750000 0.750000 0.500000
O O6 0.768059 0.699174 0.583545
O O7 0.000000 0.750000 0.560109
O O8 0.500000 0.141811 0.860447
O O9 0.733624 0.097108 0.902256
O O10 0.762050 0.169582 0.819078
O O11 0.500000 0.144786 0.557450
O O12 0.250000 0.139131 0.500000
O O13 0.257101 0.114462 0.610930
O O14 0.000000 0.048636 0.062642
O O15 0.250000 0.000000 0.083393
O O16 0.250000 0.055428 0.000000
O O17 0.500000 0.805054 0.761517
O O18 0.264060 0.750000 0.757911
O O19 0.264413 0.837895 0.710270
O O20 0.000000 0.122578 0.664607
#
# Coordination Sequence:
#
# PCOD9501217 Si02
#       7
#    16   8  16  16  16  16  16
#     4  10  19  33  52  74 100 128 162 203 247 294
#     4   8  16  28  42  62  88 118 154 190 229 276
#     4   9  19  33  50  74 102 133 168 205 246 295
#     4  10  19  32  48  69  96 128 164 202 245 294
#     4  10  19  31  48  74 106 137 170 205 248 297
#     4   9  19  34  51  73 100 131 167 207 250 295
#     4  10  20  33  50  73 100 130 163 201 247 296
#
# _framework density 17.450021
#
# number of rings (size 3 to 8) (size 9 to 14) (size 15 to 20)
#    0.000    2.462    0.000    2.769    1.077    3.385 
#    0.000    0.000    0.000    0.923    0.000    3.231 
#    0.000    0.000    0.000    0.000    0.000    0.000 
#
# Total GULP energy -289524.231585 kJ/mol
# GULP energy per Si atom -5567.773684 kJ/mol
# Density = 1.741030 g / cm^3
# Si number density = 17.450021 Si / 1000 Ang^3
#
#
#
# Elastic Constant Matrix: (Units=GPa)
#
#
# Indices 1 2 3 4 5 6 
#
# 1 37.8136 17.6025 20.7482 0.0000 0.0000 0.0000
# 2 17.6025 49.4022 11.2203 0.0000 0.0000 0.0000
# 3 20.7482 11.2203 79.5420 0.0000 0.0000 0.0000
# 4 0.0000 0.0000 0.0000 -47.8616 0.0000 0.0000
# 5 0.0000 0.0000 0.0000 0.0000 24.4124 0.0000
# 6 0.0000 0.0000 0.0000 0.0000 0.0000 24.3711
#
#
#
# Elastic Compliance Matrix: (Units=1/GPa)
#
#
# Indices 1 2 3 4 5 6 
#
# 1 0.035845 -0.011001 -0.007798 0.000000 0.000000 0.000000
# 2 -0.011001 0.024288 -0.000557 0.000000 0.000000 0.000000
# 3 -0.007798 -0.000557 0.014685 0.000000 0.000000 0.000000
# 4 0.000000 0.000000 0.000000 -0.020894 0.000000 0.000000
# 5 0.000000 0.000000 0.000000 0.000000 0.040963 0.000000
# 6 0.000000 0.000000 0.000000 0.000000 0.000000 0.041032
#
#
# Mechanical properties :
#
#
# Convention : Reuss Voigt Hill
#
# Bulk Modulus (GPa) = 27.69576 29.54440 28.62008
# Shear Modulus (GPa) = 26.78570 7.99682 17.39126
#
# Velocity S-wave (km/s) = 3.92215 2.14305 3.16037
# Velocity P-wave (km/s) = 6.03465 4.80533 5.45473
#
# Compressibility (1/GPa) = 0.03610661
#
# Stress axis : x y z
#
# Youngs Moduli (GPa) = 27.89759 41.17239 68.09833
#
# Poissons Ratio (x) = 0.45293 0.53105
# Poissons Ratio (y) = 0.30690 0.03790
# Poissons Ratio (z) = 0.21755 0.02292
#
# Static dielectric constant tensor:
#      x y z
#    x 1.601840 0.000000 0.000000 
#    y 0.000000 1.552460 0.000000 
#    z 0.000000 0.000000 1.585720 
# 
# From -- ./inp_files/39950.got.cif
#   From: 2010.05.17/outbox.cif.g08.bks.cpg/sg67_20_cif.got.tgz:39950.got - 2010.06.03 18:28:57.
