data_PCOD9501938
_publ_section_title
;
Structure prediction by ZEFSAII (Michael W. Deem and Ramdas Pophale) SiO2 
 PCOD9501938
Probable space group: C M M A
;
_chemical_formula_sum "Si O2"
_cell_formula_units_Z 64
_cell_length_a 14.127159
_cell_length_b 16.784888
_cell_length_c 12.812297
_cell_angle_alpha 90.000000
_cell_angle_beta 90.000000
_cell_angle_gamma 90.000000
_cell_volume 3038.087503
_symmetry_space_group_name_H-M "C M M A"
_symmetry_group_IT_number 67
_symmetry_cell_setting 'orthorhombic'
loop_
_space_group_symop_operation_xyz
x,y,z
-x,1/2-y,z
x,-y,-z
-x,1/2+y,-z
-x,-y,-z
x,1/2+y,-z
-x,y,z
x,1/2-y,z
1/2+x,1/2+y,z
1/2-x,-y,z
1/2+x,1/2-y,-z
1/2-x,y,-z
1/2-x,1/2-y,-z
1/2+x,y,-z
1/2-x,1/2+y,z
1/2+x,-y,z
loop_
_atom_site_type_symbol
_atom_site_label
_atom_site_fract_x
_atom_site_fract_y
_atom_site_fract_z
Si Si1 0.214345 0.099787 0.117352
Si Si2 0.353634 0.250000 0.552709
Si Si3 0.611330 0.056888 0.218257
Si Si4 0.140032 0.416089 0.537070
Si Si5 0.112198 0.750000 0.798668
O O1 0.315490 0.119189 0.169629
O O2 0.147247 0.173889 0.137314
O O3 0.157679 0.026150 0.173890
O O4 0.250000 0.084102 0.000000
O O5 0.250000 0.250000 0.500000
O O6 0.396939 0.333355 0.511396
O O7 0.349696 0.250000 0.678591
O O8 0.500000 0.060110 0.192449
O O9 0.626070 0.074506 0.339941
O O10 0.099386 0.500000 0.500000
O O11 0.250000 0.416916 0.500000
O O12 0.000000 0.750000 0.788230
#
# Coordination Sequence:
#
# PCOD9501938 Si02
#       5
#    16   8  16  16   8
#     4  11  24  44  67  94 131 172 224 290 351 413
#     4  10  20  37  62  93 137 181 224 280 340 408
#     4  11  23  40  66  96 128 172 225 282 346 415
#     4  10  19  35  59  89 131 177 224 280 339 407
#     4  12  25  43  69  99 135 183 234 282 344 420
#
# _framework density 21.065885000000002
#
# number of rings (size 3 to 8) (size 9 to 14) (size 15 to 20)
#    0.000    1.250    0.000   10.125    0.000    4.500 
#    0.000    1.875    0.000    0.000    0.000    0.000 
#    0.000    0.000    0.000    0.000    0.000    0.000 
#
# Total GULP energy -178162.725627 kJ/mol
# GULP energy per Si atom -5567.585176 kJ/mol
# Density = 2.101794 g / cm^3
# Si number density = 21.065885 Si / 1000 Ang^3
#
#
#
# Elastic Constant Matrix: (Units=GPa)
#
#
# Indices 1 2 3 4 5 6 
#
# 1 174.4967 -1.7456 -2.2843 0.0000 0.0000 0.0000
# 2 -1.7456 133.3999 6.8316 0.0000 0.0000 0.0000
# 3 -2.2843 6.8316 101.0936 0.0000 0.0000 0.0000
# 4 0.0000 0.0000 0.0000 23.2208 0.0000 0.0000
# 5 0.0000 0.0000 0.0000 0.0000 -24.0095 0.0000
# 6 0.0000 0.0000 0.0000 0.0000 0.0000 4.7801
#
#
#
# Elastic Compliance Matrix: (Units=1/GPa)
#
#
# Indices 1 2 3 4 5 6 
#
# 1 0.005733 0.000069 0.000125 0.000000 0.000000 0.000000
# 2 0.000069 0.007523 -0.000507 0.000000 0.000000 0.000000
# 3 0.000125 -0.000507 0.009929 0.000000 0.000000 0.000000
# 4 0.000000 0.000000 0.000000 0.043065 0.000000 0.000000
# 5 0.000000 0.000000 0.000000 0.000000 -0.041650 0.000000
# 6 0.000000 0.000000 0.000000 0.000000 0.000000 0.209201
#
#
# Mechanical properties :
#
#
# Convention : Reuss Voigt Hill
#
# Bulk Modulus (GPa) = 44.32921 46.06594 45.19758
# Shear Modulus (GPa) = 20.66574 27.87752 24.27163
#
# Velocity S-wave (km/s) = 3.13550 3.64173 3.39806
# Velocity P-wave (km/s) = 5.84784 6.29269 6.07434
#
# Compressibility (1/GPa) = 0.02255849
#
# Stress axis : x y z
#
# Youngs Moduli (GPa) = 174.42605 132.92372 100.71608
#
# Poissons Ratio (x) = -0.00912 -0.01258
# Poissons Ratio (y) = -0.01197 0.05105
# Poissons Ratio (z) = -0.02179 0.06737
#
# Static dielectric constant tensor:
#      x y z
#    x 1.760290 0.000000 0.000000 
#    y 0.000000 1.796720 0.000000 
#    z 0.000000 0.000000 126.002440 
# 
# From -- ./inp_files/17524.got.cif
#   From: 2010.05.17/outbox.cif.g08.bks.cpg/sg67_9_cif.got.tgz:17524.got - 2010.06.03 18:28:57.
