data_PCOD9501239
_publ_section_title
;
Structure prediction by ZEFSAII (Michael W. Deem and Ramdas Pophale) SiO2 
 PCOD9501239
Probable space group: C M M A
;
_chemical_formula_sum "Si O2"
_cell_formula_units_Z 88
_cell_length_a 21.984617
_cell_length_b 8.113270
_cell_length_c 24.084851
_cell_angle_alpha 90.000000
_cell_angle_beta 90.000000
_cell_angle_gamma 90.000000
_cell_volume 4295.945835
_symmetry_space_group_name_H-M "C M M A"
_symmetry_group_IT_number 67
_symmetry_cell_setting 'orthorhombic'
loop_
_space_group_symop_operation_xyz
x,y,z
-x,1/2-y,z
x,-y,-z
-x,1/2+y,-z
-x,-y,-z
x,1/2+y,-z
-x,y,z
x,1/2-y,z
1/2+x,1/2+y,z
1/2-x,-y,z
1/2+x,1/2-y,-z
1/2-x,y,-z
1/2-x,1/2-y,-z
1/2+x,y,-z
1/2-x,1/2+y,z
1/2+x,-y,z
loop_
_atom_site_type_symbol
_atom_site_label
_atom_site_fract_x
_atom_site_fract_y
_atom_site_fract_z
Si Si1 0.367348 0.947151 0.436352
Si Si2 0.183028 0.053104 0.935927
Si Si3 0.433074 0.048882 0.263856
Si Si4 0.000000 0.448449 0.435471
Si Si5 0.567401 0.549228 0.866212
Si Si6 0.314828 0.055424 0.326846
O O1 0.367746 0.750000 0.435492
O O2 0.434308 0.009909 0.415904
O O3 0.357537 0.000000 0.500000
O O4 0.320176 0.010667 0.391604
O O5 0.181656 0.250000 0.934009
O O6 0.125398 0.989230 0.900886
O O7 0.250000 0.000000 0.915530
O O8 0.177573 0.000000 0.000000
O O9 0.500000 0.992694 0.284097
O O10 0.433362 0.250000 0.267039
O O11 0.427557 0.006099 0.198799
O O12 0.374438 0.984460 0.296410
O O13 0.000000 0.500000 0.500000
O O14 0.000000 0.250000 0.430860
O O15 0.500000 0.495499 0.885962
O O16 0.567774 0.750000 0.868720
O O17 0.317517 0.250000 0.321275
O O18 0.250000 0.000000 0.304009
#
# Coordination Sequence:
#
# PCOD9501239 Si02
#       6
#    16  16  16   8  16  16
#     4  10  20  36  56  80 109 140 174 213 260 314
#     4  10  19  31  49  74 106 144 181 219 262 310
#     4   8  16  33  56  80 104 134 175 220 263 313
#     4   8  16  30  50  76 104 132 162 202 247 296
#     4   8  15  30  52  77 104 135 175 220 266 314
#     4  11  23  37  55  80 109 140 175 216 264 316
#
# _framework density 20.484428999999999
#
# number of rings (size 3 to 8) (size 9 to 14) (size 15 to 20)
#    0.000    2.727    0.000    3.273    1.273    2.182 
#    0.000    1.818    0.000    4.909    0.000   10.182 
#    0.000    0.000    0.000    0.000    0.000    0.000 
#
# Total GULP energy -245358.567601 kJ/mol
# GULP energy per Si atom -5576.331082 kJ/mol
# Density = 2.043781 g / cm^3
# Si number density = 20.484429 Si / 1000 Ang^3
#
#
#
# Elastic Constant Matrix: (Units=GPa)
#
#
# Indices 1 2 3 4 5 6 
#
# 1 214.6430 18.0180 84.5783 0.0000 0.0000 0.0000
# 2 18.0180 26.1851 1.2736 0.0000 0.0000 0.0000
# 3 84.5783 1.2736 61.8743 0.0000 0.0000 0.0000
# 4 0.0000 0.0000 0.0000 7.9064 0.0000 0.0000
# 5 0.0000 0.0000 0.0000 0.0000 30.3511 0.0000
# 6 0.0000 0.0000 0.0000 0.0000 0.0000 22.1423
#
#
#
# Elastic Compliance Matrix: (Units=1/GPa)
#
#
# Indices 1 2 3 4 5 6 
#
# 1 0.011248 -0.006999 -0.015232 0.000000 0.000000 0.000000
# 2 -0.006999 0.042583 0.008691 0.000000 0.000000 0.000000
# 3 -0.015232 0.008691 0.036804 0.000000 0.000000 0.000000
# 4 0.000000 0.000000 0.000000 0.126480 0.000000 0.000000
# 5 0.000000 0.000000 0.000000 0.000000 0.032948 0.000000
# 6 0.000000 0.000000 0.000000 0.000000 0.000000 0.045163
#
#
# Mechanical properties :
#
#
# Convention : Reuss Voigt Hill
#
# Bulk Modulus (GPa) = 15.73436 56.71580 36.22508
# Shear Modulus (GPa) = 14.55641 25.33543 19.94592
#
# Velocity S-wave (km/s) = 2.66862 3.52065 3.12382
# Velocity P-wave (km/s) = 4.14646 6.65387 5.54379
#
# Compressibility (1/GPa) = 0.06355519
#
# Stress axis : x y z
#
# Youngs Moduli (GPa) = 88.90148 23.48349 27.17107
#
# Poissons Ratio (x) = 0.16436 0.41386
# Poissons Ratio (y) = 0.62224 -0.23614
# Poissons Ratio (z) = 1.35413 -0.20409
#
# Static dielectric constant tensor:
#      x y z
#    x 1.795130 0.000000 0.000000 
#    y 0.000000 1.714670 0.000000 
#    z 0.000000 0.000000 1.698280 
# 
# From -- ./inp_files/42369.got.cif
#   From: 2010.05.17/outbox.cif.g08.bks.cpg/sg67_22_cif.got.tgz:42369.got - 2010.06.03 18:28:57.
