data_PCOD9501712
_publ_section_title
;
Structure prediction by ZEFSAII (Michael W. Deem and Ramdas Pophale) SiO2 
 PCOD9501712
Probable space group: C M M A
;
_chemical_formula_sum "Si O2"
_cell_formula_units_Z 72
_cell_length_a 16.418073
_cell_length_b 14.471888
_cell_length_c 14.918761
_cell_angle_alpha 90.000000
_cell_angle_beta 90.000000
_cell_angle_gamma 90.000000
_cell_volume 3544.705276
_symmetry_space_group_name_H-M "C M M A"
_symmetry_group_IT_number 67
_symmetry_cell_setting 'orthorhombic'
loop_
_space_group_symop_operation_xyz
x,y,z
-x,1/2-y,z
x,-y,-z
-x,1/2+y,-z
-x,-y,-z
x,1/2+y,-z
-x,y,z
x,1/2-y,z
1/2+x,1/2+y,z
1/2-x,-y,z
1/2+x,1/2-y,-z
1/2-x,y,-z
1/2-x,1/2-y,-z
1/2+x,y,-z
1/2-x,1/2+y,z
1/2+x,-y,z
loop_
_atom_site_type_symbol
_atom_site_label
_atom_site_fract_x
_atom_site_fract_y
_atom_site_fract_z
Si Si1 0.166033 0.451509 0.133537
Si Si2 0.500000 0.750000 0.923595
Si Si3 0.500000 0.954582 0.855629
Si Si4 0.500000 0.957790 0.342896
Si Si5 0.822194 0.750000 0.570646
Si Si6 0.161932 0.250000 0.048228
Si Si7 0.500000 0.750000 0.401766
Si Si8 0.172772 0.552978 0.650887
O O1 0.250000 0.500000 0.102163
O O2 0.159640 0.345117 0.104341
O O3 0.168520 0.456947 0.241782
O O4 0.084123 0.505169 0.104332
O O5 0.500000 0.844330 0.866131
O O6 0.582603 0.750000 0.983514
O O7 0.500000 0.992936 0.753628
O O8 0.500000 0.844237 0.341863
O O9 0.586197 0.981475 0.386711
O O10 0.750000 0.750000 0.500000
O O11 0.814825 0.840776 0.629547
O O12 0.917221 0.750000 0.540340
O O13 0.250000 0.250000 0.000000
O O14 0.250000 0.500000 0.614467
#
# Coordination Sequence:
#
# PCOD9501712 Si02
#       8
#    16   4   8   8   8   8   4  16
#     4  10  21  38  59  79 105 143 189 237 279 331
#     4  12  26  38  51  80 117 148 184 236 296 352
#     4  10  21  37  56  78 107 144 184 231 287 330
#     4   8  16  33  58  81 104 138 180 228 267 310
#     4  10  19  33  56  83 114 145 173 218 272 326
#     4  12  25  37  54  79 108 145 185 229 287 343
#     4   8  16  34  59  86 111 140 190 230 262 324
#     4   9  18  34  56  81 105 136 182 226 267 316
#
# _framework density 20.311985
#
# number of rings (size 3 to 8) (size 9 to 14) (size 15 to 20)
#    0.000    2.222    0.000    2.667    0.000    7.111 
#    0.000    8.889    0.000    4.000    0.000    1.556 
#    0.000    0.000    0.000    0.000    0.000    0.000 
#
# Total GULP energy -200726.878341 kJ/mol
# GULP energy per Si atom -5575.746621 kJ/mol
# Density = 2.026575 g / cm^3
# Si number density = 20.311985 Si / 1000 Ang^3
#
#
#
# Elastic Constant Matrix: (Units=GPa)
#
#
# Indices 1 2 3 4 5 6 
#
# 1 229.5831 95.0084 35.1961 0.0000 0.0000 0.0000
# 2 95.0084 115.1300 4.1586 0.0000 0.0000 0.0000
# 3 35.1961 4.1586 48.9653 0.0000 0.0000 0.0000
# 4 0.0000 0.0000 0.0000 129.0713 0.0000 0.0000
# 5 0.0000 0.0000 0.0000 0.0000 -11.1410 0.0000
# 6 0.0000 0.0000 0.0000 0.0000 0.0000 38.8639
#
#
#
# Elastic Compliance Matrix: (Units=1/GPa)
#
#
# Indices 1 2 3 4 5 6 
#
# 1 0.007662 -0.006143 -0.004986 0.000000 0.000000 0.000000
# 2 -0.006143 0.013638 0.003257 0.000000 0.000000 0.000000
# 3 -0.004986 0.003257 0.023730 0.000000 0.000000 0.000000
# 4 0.000000 0.000000 0.000000 0.007748 0.000000 0.000000
# 5 0.000000 0.000000 0.000000 0.000000 -0.089759 0.000000
# 6 0.000000 0.000000 0.000000 0.000000 0.000000 0.025731
#
#
# Mechanical properties :
#
#
# Convention : Reuss Voigt Hill
#
# Bulk Modulus (GPa) = 34.14542 73.60050 53.87296
# Shear Modulus (GPa) = 350.76919 48.64653 199.70786
#
# Velocity S-wave (km/s) = 13.15544 4.89915 9.92641
# Velocity P-wave (km/s) = 15.73535 8.26534 12.56816
#
# Compressibility (1/GPa) = 0.02928651
#
# Stress axis : x y z
#
# Youngs Moduli (GPa) = 130.51040 73.32707 42.14114
#
# Poissons Ratio (x) = 0.45045 0.21011
# Poissons Ratio (y) = 0.80172 -0.13727
# Poissons Ratio (z) = 0.65071 -0.23885
#
# Static dielectric constant tensor:
#      x y z
#    x 1.799750 0.000000 0.000000 
#    y 0.000000 1.678860 0.000000 
#    z 0.000000 0.000000 1.707940 
# 
# From -- ./inp_files/28340.got.cif
#   From: 2010.05.17/outbox.cif.g08.bks.cpg/sg67_15_cif.got.tgz:28340.got - 2010.06.03 18:28:57.
