data_PCOD9501991
_publ_section_title
;
Structure prediction by ZEFSAII (Michael W. Deem and Ramdas Pophale) SiO2 
 PCOD9501991
Probable space group: C M M A
;
_chemical_formula_sum "Si O2"
_cell_formula_units_Z 88
_cell_length_a 10.282924
_cell_length_b 21.097950
_cell_length_c 22.723656
_cell_angle_alpha 90.000000
_cell_angle_beta 90.000000
_cell_angle_gamma 90.000000
_cell_volume 4929.865729
_symmetry_space_group_name_H-M "C M M A"
_symmetry_group_IT_number 67
_symmetry_cell_setting 'orthorhombic'
loop_
_space_group_symop_operation_xyz
x,y,z
-x,1/2-y,z
x,-y,-z
-x,1/2+y,-z
-x,-y,-z
x,1/2+y,-z
-x,y,z
x,1/2-y,z
1/2+x,1/2+y,z
1/2-x,-y,z
1/2+x,1/2-y,-z
1/2-x,y,-z
1/2-x,1/2-y,-z
1/2+x,y,-z
1/2-x,1/2+y,z
1/2+x,-y,z
loop_
_atom_site_type_symbol
_atom_site_label
_atom_site_fract_x
_atom_site_fract_y
_atom_site_fract_z
Si Si1 0.253037 0.576829 0.844568
Si Si2 0.000000 0.597294 0.364891
Si Si3 0.142767 0.750000 0.550057
Si Si4 0.231889 0.117810 0.429631
Si Si5 0.000000 0.446552 0.365962
Si Si6 0.000000 0.580528 0.234847
Si Si7 0.157385 0.823580 0.057619
Si Si8 0.000000 0.072178 0.232860
O O1 0.250000 0.500000 0.858393
O O2 0.371711 0.593239 0.801718
O O3 0.281416 0.622643 0.899732
O O4 0.124323 0.590375 0.806243
O O5 0.871495 0.616860 0.399451
O O6 0.000000 0.521625 0.360232
O O7 0.000000 0.616504 0.296703
O O8 0.250000 0.750000 0.500000
O O9 0.165340 0.814632 0.583586
O O10 0.000000 0.750000 0.523061
O O11 0.250000 0.109284 0.500000
O O12 0.130152 0.069179 0.402236
O O13 0.000000 0.410782 0.302450
O O14 0.000000 0.504080 0.238855
O O15 0.165877 0.750000 0.079836
O O16 0.000000 0.835379 0.047933
O O17 0.250000 0.825659 0.000000
#
# Coordination Sequence:
#
# PCOD9501991 Si02
#       8
#    16   8   8  16   8   8  16   8
#     4  10  19  36  61  88 116 155 204 250 285 338
#     4  11  23  35  59  89 115 153 189 237 300 366
#     4  10  22  40  62  78 102 146 192 232 283 352
#     4  11  23  37  59  83 114 151 194 244 296 357
#     4  11  21  39  57  83 123 155 187 239 302 362
#     4   9  18  37  57  81 115 152 202 236 284 346
#     4  10  22  40  62  88 124 163 196 235 291 351
#     4   9  20  33  59  85 111 158 196 236 292 348
#
# _framework density 17.850384999999999
#
# number of rings (size 3 to 8) (size 9 to 14) (size 15 to 20)
#    0.000    1.818    1.818    2.182    5.091    5.455 
#    0.000    0.909   12.000    0.000    0.000    0.000 
#    0.000    0.000    0.000    0.000    0.000    0.000 
#
# Total GULP energy -244965.374591 kJ/mol
# GULP energy per Si atom -5567.394877 kJ/mol
# Density = 1.780976 g / cm^3
# Si number density = 17.850385 Si / 1000 Ang^3
#
#
#
# Elastic Constant Matrix: (Units=GPa)
#
#
# Indices 1 2 3 4 5 6 
#
# 1 164.8626 25.7688 65.5818 0.0000 0.0000 0.0000
# 2 25.7688 51.4906 40.3339 0.0000 0.0000 0.0000
# 3 65.5818 40.3339 122.1997 0.0000 0.0000 0.0000
# 4 0.0000 0.0000 0.0000 -68.0095 0.0000 0.0000
# 5 0.0000 0.0000 0.0000 0.0000 -27.9049 0.0000
# 6 0.0000 0.0000 0.0000 0.0000 0.0000 26.2987
#
#
#
# Elastic Compliance Matrix: (Units=1/GPa)
#
#
# Indices 1 2 3 4 5 6 
#
# 1 0.007739 -0.000836 -0.003877 0.000000 0.000000 0.000000
# 2 -0.000836 0.026284 -0.008227 0.000000 0.000000 0.000000
# 3 -0.003877 -0.008227 0.012980 0.000000 0.000000 0.000000
# 4 0.000000 0.000000 0.000000 -0.014704 0.000000 0.000000
# 5 0.000000 0.000000 0.000000 0.000000 -0.035836 0.000000
# 6 0.000000 0.000000 0.000000 0.000000 0.000000 0.038025
#
#
# Mechanical properties :
#
#
# Convention : Reuss Voigt Hill
#
# Bulk Modulus (GPa) = 47.34362 66.88021 57.11191
# Shear Modulus (GPa) = 74.17635 -0.13191 37.02222
#
# Velocity S-wave (km/s) = 6.45327 -0.27214 4.55909
# Velocity P-wave (km/s) = 9.06125 6.11962 7.73162
#
# Compressibility (1/GPa) = 0.02112217
#
# Stress axis : x y z
#
# Youngs Moduli (GPa) = 129.22118 38.04668 77.04400
#
# Poissons Ratio (x) = 0.03179 0.29873
# Poissons Ratio (y) = 0.10798 0.63383
# Poissons Ratio (z) = 0.50104 0.31300
#
# Static dielectric constant tensor:
#      x y z
#    x 1.588130 0.000000 0.000000 
#    y 0.000000 1.654000 0.000000 
#    z 0.000000 0.000000 1.625660 
# 
# From -- ./inp_files/40748.got.cif
#   From: 2010.05.17/outbox.cif.g08.bks.cpg/sg67_21_cif.got.tgz:40748.got - 2010.06.03 18:28:57.
