data_PCOD9501164
_publ_section_title
;
Structure prediction by ZEFSAII (Michael W. Deem and Ramdas Pophale) SiO2 
 PCOD9501164
Probable space group: C M M A
;
_chemical_formula_sum "Si O2"
_cell_formula_units_Z 96
_cell_length_a 8.750802
_cell_length_b 28.142944
_cell_length_c 24.938083
_cell_angle_alpha 90.000000
_cell_angle_beta 90.000000
_cell_angle_gamma 90.000000
_cell_volume 6141.584760
_symmetry_space_group_name_H-M "C M M A"
_symmetry_group_IT_number 67
_symmetry_cell_setting 'orthorhombic'
loop_
_space_group_symop_operation_xyz
x,y,z
-x,1/2-y,z
x,-y,-z
-x,1/2+y,-z
-x,-y,-z
x,1/2+y,-z
-x,y,z
x,1/2-y,z
1/2+x,1/2+y,z
1/2-x,-y,z
1/2+x,1/2-y,-z
1/2-x,y,-z
1/2-x,1/2-y,-z
1/2+x,y,-z
1/2-x,1/2+y,z
1/2+x,-y,z
loop_
_atom_site_type_symbol
_atom_site_label
_atom_site_fract_x
_atom_site_fract_y
_atom_site_fract_z
Si Si1 0.684155 0.303885 0.334586
Si Si2 0.182873 0.053512 0.054020
Si Si3 0.815601 0.053148 0.172288
Si Si4 0.316997 0.357003 0.443271
Si Si5 0.816782 0.447885 0.387557
Si Si6 0.316168 0.606398 0.278648
O O1 0.500000 0.304819 0.331701
O O2 0.736298 0.250000 0.325725
O O3 0.726678 0.322367 0.394138
O O4 0.749197 0.342454 0.293485
O O5 0.223345 0.073107 0.112999
O O6 0.000000 0.051337 0.049314
O O7 0.250000 0.000000 0.055333
O O8 0.250000 0.076512 0.000000
O O9 0.763623 0.085025 0.222088
O O10 0.000000 0.049651 0.174546
O O11 0.750000 0.000000 0.177407
O O12 0.500000 0.359278 0.445971
O O13 0.250000 0.341497 0.500000
O O14 0.251270 0.408718 0.427703
O O15 0.750000 0.500000 0.396424
O O16 0.775561 0.429036 0.327723
O O17 0.000000 0.448655 0.392079
O O18 0.500000 0.609761 0.277770
#
# Coordination Sequence:
#
# PCOD9501164 Si02
#       6
#    16  16  16  16  16  16
#     4   9  19  35  52  69  89 112 137 170 215 262
#     4   9  15  23  35  52  79 115 152 186 215 245
#     4   9  17  27  40  61  89 120 152 184 216 250
#     4  10  20  34  50  68  90 113 140 174 210 251
#     4  10  19  31  47  66  89 117 147 177 211 251
#     4   9  18  31  46  66  90 114 144 180 215 256
#
# _framework density 15.631145
#
# number of rings (size 3 to 8) (size 9 to 14) (size 15 to 20)
#    0.000    2.667    0.000    2.500    0.000    3.667 
#    0.000    1.667    0.000    0.000    0.000    0.000 
#    0.000    0.667    0.000    1.500    0.000    3.000 
#
# Total GULP energy -267487.796511 kJ/mol
# GULP energy per Si atom -5572.662427 kJ/mol
# Density = 1.559557 g / cm^3
# Si number density = 15.631145 Si / 1000 Ang^3
#
#
#
# Elastic Constant Matrix: (Units=GPa)
#
#
# Indices 1 2 3 4 5 6 
#
# 1 25.2010 13.5840 24.2385 0.0000 0.0000 0.0000
# 2 13.5840 77.1389 34.1772 0.0000 0.0000 0.0000
# 3 24.2385 34.1772 124.9665 0.0000 0.0000 0.0000
# 4 0.0000 0.0000 0.0000 11.2943 0.0000 0.0000
# 5 0.0000 0.0000 0.0000 0.0000 17.1064 0.0000
# 6 0.0000 0.0000 0.0000 0.0000 0.0000 20.0132
#
#
#
# Elastic Compliance Matrix: (Units=1/GPa)
#
#
# Indices 1 2 3 4 5 6 
#
# 1 0.050540 -0.005185 -0.008385 0.000000 0.000000 0.000000
# 2 -0.005185 0.015283 -0.003174 0.000000 0.000000 0.000000
# 3 -0.008385 -0.003174 0.010497 0.000000 0.000000 0.000000
# 4 0.000000 0.000000 0.000000 0.088540 0.000000 0.000000
# 5 0.000000 0.000000 0.000000 0.000000 0.058458 0.000000
# 6 0.000000 0.000000 0.000000 0.000000 0.000000 0.049967
#
#
# Mechanical properties :
#
#
# Convention : Reuss Voigt Hill
#
# Bulk Modulus (GPa) = 23.34698 41.25620 32.30159
# Shear Modulus (GPa) = 15.57392 20.03658 17.80525
#
# Velocity S-wave (km/s) = 3.15991 3.58416 3.37870
# Velocity P-wave (km/s) = 5.31808 6.60145 5.99421
#
# Compressibility (1/GPa) = 0.04283209
#
# Stress axis : x y z
#
# Youngs Moduli (GPa) = 19.78616 65.43207 95.26960
#
# Poissons Ratio (x) = 0.33927 0.79881
# Poissons Ratio (y) = 0.10259 0.30239
# Poissons Ratio (z) = 0.16590 0.20769
#
# Static dielectric constant tensor:
#      x y z
#    x 1.526130 0.000000 0.000000 
#    y 0.000000 1.484690 0.000000 
#    z 0.000000 0.000000 1.560440 
# 
# From -- ./inp_files/40778.got.cif
#   From: 2010.05.17/outbox.cif.g08.bks.cpg/sg67_21_cif.got.tgz:40778.got - 2010.06.03 18:28:57.
