data_PCOD9501334
_publ_section_title
;
Structure prediction by ZEFSAII (Michael W. Deem and Ramdas Pophale) SiO2 
 PCOD9501334
Probable space group: C M M A
;
_chemical_formula_sum "Si O2"
_cell_formula_units_Z 112
_cell_length_a 14.768735
_cell_length_b 19.084687
_cell_length_c 18.042629
_cell_angle_alpha 90.000000
_cell_angle_beta 90.000000
_cell_angle_gamma 90.000000
_cell_volume 5085.435596
_symmetry_space_group_name_H-M "C M M A"
_symmetry_group_IT_number 67
_symmetry_cell_setting 'orthorhombic'
loop_
_space_group_symop_operation_xyz
x,y,z
-x,1/2-y,z
x,-y,-z
-x,1/2+y,-z
-x,-y,-z
x,1/2+y,-z
-x,y,z
x,1/2-y,z
1/2+x,1/2+y,z
1/2-x,-y,z
1/2+x,1/2-y,-z
1/2-x,y,-z
1/2-x,1/2-y,-z
1/2+x,y,-z
1/2-x,1/2+y,z
1/2+x,-y,z
loop_
_atom_site_type_symbol
_atom_site_label
_atom_site_fract_x
_atom_site_fract_y
_atom_site_fract_z
Si Si1 0.639827 0.419603 0.506950
Si Si2 0.861873 0.579280 0.227692
Si Si3 0.107803 0.172257 0.915917
Si Si4 0.362442 0.669943 0.635093
Si Si5 0.609645 0.428038 0.958362
Si Si6 0.353181 0.423634 0.785063
Si Si7 0.141733 0.330463 0.350025
O O1 0.609528 0.500000 0.500000
O O2 0.750000 0.421142 0.500000
O O3 0.610945 0.371564 0.438408
O O4 0.613376 0.382325 0.583664
O O5 0.880005 0.617715 0.150582
O O6 0.895406 0.627773 0.293644
O O7 0.753400 0.574017 0.232485
O O8 0.894983 0.499712 0.232155
O O9 0.145515 0.250000 0.900647
O O10 0.000000 0.179118 0.924648
O O11 0.141544 0.136051 0.990724
O O12 0.392389 0.750000 0.633798
O O13 0.252062 0.671241 0.642312
O O14 0.500000 0.430244 0.957675
O O15 0.638291 0.416910 0.873626
O O16 0.638992 0.500000 0.000000
O O17 0.386285 0.363276 0.729306
O O18 0.111490 0.250000 0.358656
#
# Coordination Sequence:
#
# PCOD9501334 Si02
#       7
#    16  16  16  16  16  16  16
#     4   9  15  24  40  63  93 133 174 211 252 304
#     4  10  19  32  48  75 106 134 169 215 263 315
#     4  10  21  37  56  77 102 133 172 219 266 315
#     4   9  16  26  42  64  96 134 170 209 256 308
#     4  10  20  37  57  75  99 134 177 217 258 313
#     4  10  20  32  50  75 103 137 170 213 264 317
#     4   9  17  28  42  65  99 135 172 212 258 310
#
# _framework density 22.023679999999999
#
# number of rings (size 3 to 8) (size 9 to 14) (size 15 to 20)
#    0.000    2.429    1.429    1.714    0.000    6.857 
#    0.000    0.714    0.000    0.000    0.000    1.000 
#    0.000    5.714    0.000    0.000    0.000    0.000 
#
# Total GULP energy -312732.426937 kJ/mol
# GULP energy per Si atom -5584.507624 kJ/mol
# Density = 2.197355 g / cm^3
# Si number density = 22.023680 Si / 1000 Ang^3
#
#
#
# Elastic Constant Matrix: (Units=GPa)
#
#
# Indices 1 2 3 4 5 6 
#
# 1 69.0217 9.6965 -0.9698 0.0000 0.0000 0.0000
# 2 9.6965 207.8892 102.5898 0.0000 0.0000 0.0000
# 3 -0.9698 102.5898 178.8650 0.0000 0.0000 0.0000
# 4 0.0000 0.0000 0.0000 53.8590 0.0000 0.0000
# 5 0.0000 0.0000 0.0000 0.0000 50.4255 0.0000
# 6 0.0000 0.0000 0.0000 0.0000 0.0000 1.5365
#
#
#
# Elastic Compliance Matrix: (Units=1/GPa)
#
#
# Indices 1 2 3 4 5 6 
#
# 1 0.014639 -0.001007 0.000657 0.000000 0.000000 0.000000
# 2 -0.001007 0.006779 -0.003893 0.000000 0.000000 0.000000
# 3 0.000657 -0.003893 0.007827 0.000000 0.000000 0.000000
# 4 0.000000 0.000000 0.000000 0.018567 0.000000 0.000000
# 5 0.000000 0.000000 0.000000 0.000000 0.019831 0.000000
# 6 0.000000 0.000000 0.000000 0.000000 0.000000 0.650841
#
#
# Mechanical properties :
#
#
# Convention : Reuss Voigt Hill
#
# Bulk Modulus (GPa) = 48.17403 75.37876 61.77640
# Shear Modulus (GPa) = 6.81301 44.12815 25.47058
#
# Velocity S-wave (km/s) = 1.76074 4.48109 3.40444
# Velocity P-wave (km/s) = 5.10439 7.81499 6.60034
#
# Compressibility (1/GPa) = 0.02075807
#
# Stress axis : x y z
#
# Youngs Moduli (GPa) = 68.31114 147.52470 127.75565
#
# Poissons Ratio (x) = 0.14856 -0.08393
# Poissons Ratio (y) = 0.06879 0.49740
# Poissons Ratio (z) = -0.04488 0.57437
#
# Static dielectric constant tensor:
#      x y z
#    x 1.863190 0.000000 0.000000 
#    y 0.000000 1.784790 0.000000 
#    z 0.000000 0.000000 1.765020 
# 
# From -- ./inp_files/35142.got.cif
#   From: 2010.05.17/outbox.cif.g08.bks.cpg/sg67_18_cif.got.tgz:35142.got - 2010.06.03 18:28:57.
