data_PCOD9501466
_publ_section_title
;
Structure prediction by ZEFSAII (Michael W. Deem and Ramdas Pophale) SiO2 
 PCOD9501466
Probable space group: C M M A
;
_chemical_formula_sum "Si O2"
_cell_formula_units_Z 80
_cell_length_a 18.817889
_cell_length_b 8.475814
_cell_length_c 26.440781
_cell_angle_alpha 90.000000
_cell_angle_beta 90.000000
_cell_angle_gamma 90.000000
_cell_volume 4217.223318
_symmetry_space_group_name_H-M "C M M A"
_symmetry_group_IT_number 67
_symmetry_cell_setting 'orthorhombic'
loop_
_space_group_symop_operation_xyz
x,y,z
-x,1/2-y,z
x,-y,-z
-x,1/2+y,-z
-x,-y,-z
x,1/2+y,-z
-x,y,z
x,1/2-y,z
1/2+x,1/2+y,z
1/2-x,-y,z
1/2+x,1/2-y,-z
1/2-x,y,-z
1/2-x,1/2-y,-z
1/2+x,y,-z
1/2-x,1/2+y,z
1/2+x,-y,z
loop_
_atom_site_type_symbol
_atom_site_label
_atom_site_fract_x
_atom_site_fract_y
_atom_site_fract_z
Si Si1 0.581642 0.942650 0.652723
Si Si2 0.169806 0.560640 0.445027
Si Si3 0.169585 0.440838 0.751279
Si Si4 0.829674 0.062187 0.055542
Si Si5 0.082038 0.059118 0.850198
O O1 0.500000 0.994692 0.655835
O O2 0.581210 0.750000 0.653079
O O3 0.619524 0.991937 0.600773
O O4 0.627354 0.993438 0.701195
O O5 0.146255 0.500000 0.500000
O O6 0.171404 0.750000 0.446072
O O7 0.250000 0.500000 0.436591
O O8 0.170371 0.250000 0.751107
O O9 0.250000 0.500000 0.751290
O O10 0.127590 0.492438 0.801528
O O11 0.827680 0.250000 0.054396
O O12 0.750000 0.000000 0.066135
O O13 0.882110 0.003546 0.098942
O O14 0.850238 0.000000 0.000000
O O15 0.083529 0.250000 0.851402
O O16 0.000000 0.009758 0.845719
#
# Coordination Sequence:
#
# PCOD9501466 Si02
#       5
#    16  16  16  16  16
#     4   9  18  33  53  77 104 136 175 217 263 315
#     4  10  19  32  52  75 102 136 174 217 261 310
#     4  10  20  35  57  81 106 139 178 220 264 316
#     4  11  22  38  60  84 112 146 185 227 270 318
#     4  10  21  37  57  82 112 145 181 222 270 323
#
# _framework density 18.969826999999999
#
# number of rings (size 3 to 8) (size 9 to 14) (size 15 to 20)
#    0.000    2.000    0.000    5.400    0.000    6.000 
#    0.000    1.000    0.000    6.000    0.000    0.000 
#    0.000    0.000    0.000    0.000    0.000    0.000 
#
# Total GULP energy -223468.984800 kJ/mol
# GULP energy per Si atom -5586.724620 kJ/mol
# Density = 1.892665 g / cm^3
# Si number density = 18.969827 Si / 1000 Ang^3
#
#
#
# Elastic Constant Matrix: (Units=GPa)
#
#
# Indices 1 2 3 4 5 6 
#
# 1 181.4325 32.4970 146.4747 0.0000 0.0000 0.0000
# 2 32.4970 35.0999 35.1638 0.0000 0.0000 0.0000
# 3 146.4747 35.1638 192.6316 0.0000 0.0000 0.0000
# 4 0.0000 0.0000 0.0000 22.8856 0.0000 0.0000
# 5 0.0000 0.0000 0.0000 0.0000 43.5284 0.0000
# 6 0.0000 0.0000 0.0000 0.0000 0.0000 24.8449
#
#
#
# Elastic Compliance Matrix: (Units=1/GPa)
#
#
# Indices 1 2 3 4 5 6 
#
# 1 0.014514 -0.002914 -0.010504 0.000000 0.000000 0.000000
# 2 -0.002914 0.035452 -0.004255 0.000000 0.000000 0.000000
# 3 -0.010504 -0.004255 0.013955 0.000000 0.000000 0.000000
# 4 0.000000 0.000000 0.000000 0.043696 0.000000 0.000000
# 5 0.000000 0.000000 0.000000 0.000000 0.022974 0.000000
# 6 0.000000 0.000000 0.000000 0.000000 0.000000 0.040250
#
#
# Mechanical properties :
#
#
# Convention : Reuss Voigt Hill
#
# Bulk Modulus (GPa) = 34.99832 93.04832 64.02332
# Shear Modulus (GPa) = 23.17901 31.25366 27.21633
#
# Velocity S-wave (km/s) = 3.49934 4.06340 3.79188
# Velocity P-wave (km/s) = 5.90057 8.43636 7.27973
#
# Compressibility (1/GPa) = 0.02857280
#
# Stress axis : x y z
#
# Youngs Moduli (GPa) = 68.89864 28.20755 71.65664
#
# Poissons Ratio (x) = 0.08220 0.75271
# Poissons Ratio (y) = 0.20079 0.30493
# Poissons Ratio (z) = 0.72373 0.12004
#
# Static dielectric constant tensor:
#      x y z
#    x 1.624840 0.000000 0.000000 
#    y 0.000000 1.657340 0.000000 
#    z 0.000000 0.000000 1.643490 
# 
# From -- ./inp_files/43320.got.cif
#   From: 2010.05.17/outbox.cif.g08.bks.cpg/sg67_22_cif.got.tgz:43320.got - 2010.06.03 18:28:57.
