data_PCOD9501593
_publ_section_title
;
Structure prediction by ZEFSAII (Michael W. Deem and Ramdas Pophale) SiO2 
 PCOD9501593
Probable space group: C M M A
;
_chemical_formula_sum "Si O2"
_cell_formula_units_Z 72
_cell_length_a 15.792372
_cell_length_b 8.515898
_cell_length_c 28.959952
_cell_angle_alpha 90.000000
_cell_angle_beta 90.000000
_cell_angle_gamma 90.000000
_cell_volume 3894.714740
_symmetry_space_group_name_H-M "C M M A"
_symmetry_group_IT_number 67
_symmetry_cell_setting 'orthorhombic'
loop_
_space_group_symop_operation_xyz
x,y,z
-x,1/2-y,z
x,-y,-z
-x,1/2+y,-z
-x,-y,-z
x,1/2+y,-z
-x,y,z
x,1/2-y,z
1/2+x,1/2+y,z
1/2-x,-y,z
1/2+x,1/2-y,-z
1/2-x,y,-z
1/2-x,1/2-y,-z
1/2+x,y,-z
1/2-x,1/2+y,z
1/2+x,-y,z
loop_
_atom_site_type_symbol
_atom_site_label
_atom_site_fract_x
_atom_site_fract_y
_atom_site_fract_z
Si Si1 0.500000 0.941533 0.114523
Si Si2 0.500000 0.063120 0.448010
Si Si3 0.842385 0.560719 0.717737
Si Si4 0.343170 0.938558 0.389032
Si Si5 0.000000 0.557807 0.779473
Si Si6 0.842981 0.061314 0.051630
O O1 0.500000 0.750000 0.114838
O O2 0.500000 0.994162 0.167503
O O3 0.583712 0.990456 0.086626
O O4 0.500000 0.250000 0.448638
O O5 0.500000 0.000000 0.500000
O O6 0.417016 0.003260 0.421124
O O7 0.841110 0.750000 0.718363
O O8 0.750000 0.500000 0.731388
O O9 0.858289 0.512703 0.664477
O O10 0.916750 0.507007 0.751519
O O11 0.343659 0.750000 0.390886
O O12 0.250000 0.000000 0.402176
O O13 0.000000 0.750000 0.779457
O O14 0.841007 0.250000 0.050318
O O15 0.750000 0.000000 0.064882
O O16 0.861161 0.000000 0.000000
#
# Coordination Sequence:
#
# PCOD9501593 Si02
#       6
#     8   8  16  16   8  16
#     4   9  19  32  49  73 103 136 171 207 253 309
#     4  12  25  40  58  83 113 148 183 223 272 324
#     4   9  18  33  56  80 105 137 175 215 258 305
#     4  10  20  37  59  85 112 143 183 226 268 317
#     4   9  17  32  51  74 105 142 173 204 253 313
#     4  10  19  33  52  74  97 128 168 213 258 306
#
# _framework density 18.48659
#
# number of rings (size 3 to 8) (size 9 to 14) (size 15 to 20)
#    0.000    2.222    0.000    4.000    0.000    4.000 
#    0.000    4.444    0.000    4.000    0.000    0.000 
#    0.000    0.000    0.000    0.000    0.000    0.000 
#
# Total GULP energy -201020.265340 kJ/mol
# GULP energy per Si atom -5583.896259 kJ/mol
# Density = 1.844451 g / cm^3
# Si number density = 18.486590 Si / 1000 Ang^3
#
#
#
# Elastic Constant Matrix: (Units=GPa)
#
#
# Indices 1 2 3 4 5 6 
#
# 1 208.4549 43.4668 150.4370 0.0000 0.0000 0.0000
# 2 43.4668 50.1229 34.9612 0.0000 0.0000 0.0000
# 3 150.4370 34.9612 146.7451 0.0000 0.0000 0.0000
# 4 0.0000 0.0000 0.0000 17.3636 0.0000 0.0000
# 5 0.0000 0.0000 0.0000 0.0000 -25.2705 0.0000
# 6 0.0000 0.0000 0.0000 0.0000 0.0000 27.7238
#
#
#
# Elastic Compliance Matrix: (Units=1/GPa)
#
#
# Indices 1 2 3 4 5 6 
#
# 1 0.018925 -0.003453 -0.018578 0.000000 0.000000 0.000000
# 2 -0.003453 0.024557 -0.002311 0.000000 0.000000 0.000000
# 3 -0.018578 -0.002311 0.026410 0.000000 0.000000 0.000000
# 4 0.000000 0.000000 0.000000 0.057592 0.000000 0.000000
# 5 0.000000 0.000000 0.000000 0.000000 -0.039572 0.000000
# 6 0.000000 0.000000 0.000000 0.000000 0.000000 0.036070
#
#
# Mechanical properties :
#
#
# Convention : Reuss Voigt Hill
#
# Bulk Modulus (GPa) = 47.15042 95.89476 71.52259
# Shear Modulus (GPa) = 27.81872 15.72724 21.77298
#
# Velocity S-wave (km/s) = 3.88339 2.91990 3.43559
# Velocity P-wave (km/s) = 6.75782 7.95946 7.38313
#
# Compressibility (1/GPa) = 0.02120872
#
# Stress axis : x y z
#
# Youngs Moduli (GPa) = 52.84152 40.72127 37.86390
#
# Poissons Ratio (x) = 0.14062 0.70343
# Poissons Ratio (y) = 0.18247 0.08749
# Poissons Ratio (z) = 0.98169 0.09409
#
# Static dielectric constant tensor:
#      x y z
#    x 1.614600 0.000000 0.000000 
#    y 0.000000 1.628280 0.000000 
#    z 0.000000 0.000000 1.619290 
# 
# From -- ./inp_files/43141.got.cif
#   From: 2010.05.17/outbox.cif.g08.bks.cpg/sg67_22_cif.got.tgz:43141.got - 2010.06.03 18:28:57.
