data_PCOD9501612
_publ_section_title
;
Structure prediction by ZEFSAII (Michael W. Deem and Ramdas Pophale) SiO2 
 PCOD9501612
Probable space group: C M M A
;
_chemical_formula_sum "Si O2"
_cell_formula_units_Z 100
_cell_length_a 25.369225
_cell_length_b 9.232262
_cell_length_c 19.956345
_cell_angle_alpha 90.000000
_cell_angle_beta 90.000000
_cell_angle_gamma 90.000000
_cell_volume 4674.081968
_symmetry_space_group_name_H-M "C M M A"
_symmetry_group_IT_number 67
_symmetry_cell_setting 'orthorhombic'
loop_
_space_group_symop_operation_xyz
x,y,z
-x,1/2-y,z
x,-y,-z
-x,1/2+y,-z
-x,-y,-z
x,1/2+y,-z
-x,y,z
x,1/2-y,z
1/2+x,1/2+y,z
1/2-x,-y,z
1/2+x,1/2-y,-z
1/2-x,y,-z
1/2-x,1/2-y,-z
1/2+x,y,-z
1/2-x,1/2+y,z
1/2+x,-y,z
loop_
_atom_site_type_symbol
_atom_site_label
_atom_site_fract_x
_atom_site_fract_y
_atom_site_fract_z
Si Si1 0.091330 0.088130 0.438212
Si Si2 0.339647 0.085799 0.248606
Si Si3 0.697058 0.579720 0.604266
Si Si4 0.802958 0.579522 0.099040
Si Si5 0.056759 0.421460 0.216563
Si Si6 0.000000 0.250000 0.372473
Si Si7 0.411074 0.921463 0.063640
O O1 0.107575 0.250000 0.461359
O O2 0.047060 0.124898 0.382810
O O3 0.066841 0.000000 0.500000
O O4 0.143455 0.000258 0.417996
O O5 0.360217 0.250000 0.247735
O O6 0.305572 0.068516 0.314773
O O7 0.307952 0.066466 0.179823
O O8 0.390613 0.984951 0.247544
O O9 0.697433 0.750000 0.586687
O O10 0.750000 0.500000 0.580568
O O11 0.803366 0.750000 0.081635
O O12 0.750000 0.500000 0.077365
O O13 0.854177 0.496996 0.072260
O O14 0.093597 0.750000 0.948564
O O15 0.061619 0.440134 0.135873
O O16 0.000000 0.481828 0.237921
O O17 0.444560 0.750000 0.230763
O O18 0.436790 0.000000 0.000000
#
# Coordination Sequence:
#
# PCOD9501612 Si02
#       7
#    16  16  16  16  16   4  16
#     4  10  21  40  65  95 124 164 209 254 306 358
#     4   9  20  37  56  80 112 147 189 231 284 344
#     4  11  23  40  61  91 129 166 206 255 306 364
#     4  10  19  33  53  76 101 135 175 219 272 330
#     4   9  19  36  56  78 106 141 182 232 283 341
#     4   8  22  40  70  90 130 164 214 254 304 360
#     4  10  20  34  51  73 102 134 173 220 274 336
#
# _framework density 21.394573999999999
#
# number of rings (size 3 to 8) (size 9 to 14) (size 15 to 20)
#    0.480    1.760    0.000    2.640    0.000    3.840 
#    1.440    3.200    0.000    0.000    0.000    0.000 
#    0.000    0.000    0.000    0.000    0.000    0.000 
#
# Total GULP energy -278588.757552 kJ/mol
# GULP energy per Si atom -5571.775151 kJ/mol
# Density = 2.134588 g / cm^3
# Si number density = 21.394574 Si / 1000 Ang^3
#
#
#
# Elastic Constant Matrix: (Units=GPa)
#
#
# Indices 1 2 3 4 5 6 
#
# 1 142.4114 69.9557 -5.2978 0.0000 0.0000 0.0000
# 2 69.9557 125.4425 23.1649 0.0000 0.0000 0.0000
# 3 -5.2978 23.1649 55.3726 0.0000 0.0000 0.0000
# 4 0.0000 0.0000 0.0000 28.6658 0.0000 0.0000
# 5 0.0000 0.0000 0.0000 0.0000 -16.5792 0.0000
# 6 0.0000 0.0000 0.0000 0.0000 0.0000 27.7077
#
#
#
# Elastic Compliance Matrix: (Units=1/GPa)
#
#
# Indices 1 2 3 4 5 6 
#
# 1 0.010319 -0.006434 0.003679 0.000000 0.000000 0.000000
# 2 -0.006434 0.012651 -0.005908 0.000000 0.000000 0.000000
# 3 0.003679 -0.005908 0.020883 0.000000 0.000000 0.000000
# 4 0.000000 0.000000 0.000000 0.034885 0.000000 0.000000
# 5 0.000000 0.000000 0.000000 0.000000 -0.060317 0.000000
# 6 0.000000 0.000000 0.000000 0.000000 0.000000 0.036091
#
#
# Mechanical properties :
#
#
# Convention : Reuss Voigt Hill
#
# Bulk Modulus (GPa) = 37.69753 55.43025 46.56389
# Shear Modulus (GPa) = 61.97201 23.65245 42.81223
#
# Velocity S-wave (km/s) = 5.38787 3.32857 4.47820
# Velocity P-wave (km/s) = 7.50759 6.38258 6.96782
#
# Compressibility (1/GPa) = 0.02652694
#
# Stress axis : x y z
#
# Youngs Moduli (GPa) = 96.90470 79.04521 47.88566
#
# Poissons Ratio (x) = 0.50860 -0.17617
# Poissons Ratio (y) = 0.62351 0.28291
# Poissons Ratio (z) = -0.35652 0.46701
#
# Static dielectric constant tensor:
#      x y z
#    x 1.755490 0.000000 0.000000 
#    y 0.000000 1.733440 0.000000 
#    z 0.000000 0.000000 1.886310 
# 
# From -- ./inp_files/39961.got.cif
#   From: 2010.05.17/outbox.cif.g08.bks.cpg/sg67_20_cif.got.tgz:39961.got - 2010.06.03 18:28:57.
