data_PCOD9501874
_publ_section_title
;
Structure prediction by ZEFSAII (Michael W. Deem and Ramdas Pophale) SiO2 
 PCOD9501874
Probable space group: C M M A
;
_chemical_formula_sum "Si O2"
_cell_formula_units_Z 80
_cell_length_a 18.171819
_cell_length_b 25.087190
_cell_length_c 9.627564
_cell_angle_alpha 90.000000
_cell_angle_beta 90.000000
_cell_angle_gamma 90.000000
_cell_volume 4389.012682
_symmetry_space_group_name_H-M "C M M A"
_symmetry_group_IT_number 67
_symmetry_cell_setting 'orthorhombic'
loop_
_space_group_symop_operation_xyz
x,y,z
-x,1/2-y,z
x,-y,-z
-x,1/2+y,-z
-x,-y,-z
x,1/2+y,-z
-x,y,z
x,1/2-y,z
1/2+x,1/2+y,z
1/2-x,-y,z
1/2+x,1/2-y,-z
1/2-x,y,-z
1/2-x,1/2-y,-z
1/2+x,y,-z
1/2-x,1/2+y,z
1/2+x,-y,z
loop_
_atom_site_type_symbol
_atom_site_label
_atom_site_fract_x
_atom_site_fract_y
_atom_site_fract_z
Si Si1 0.770671 0.812335 0.837340
Si Si2 0.192907 0.905898 0.314590
Si Si3 0.917879 0.877051 0.814498
Si Si4 0.084688 0.447550 0.915896
Si Si5 0.651941 0.054941 0.586739
O O1 0.764588 0.750000 0.805724
O O2 0.717037 0.849878 0.748738
O O3 0.852259 0.834696 0.805370
O O4 0.750000 0.819916 0.000000
O O5 0.139613 0.935470 0.208052
O O6 0.267339 0.940072 0.342747
O O7 0.154186 0.901512 0.463454
O O8 0.903185 0.925648 0.705826
O O9 0.000000 0.855968 0.791222
O O10 0.913790 0.901037 0.969538
O O11 0.000000 0.454404 0.868335
O O12 0.107166 0.500000 0.000000
O O13 0.640239 0.000000 0.500000
#
# Coordination Sequence:
#
# PCOD9501874 Si02
#       5
#    16  16  16  16  16
#     4  10  20  37  59  82 107 141 189 244 295 329
#     4  10  19  35  53  79 109 145 192 232 273 334
#     4  10  21  37  56  84 114 146 187 228 281 342
#     4  10  20  33  52  80 113 146 182 228 281 335
#     4  10  21  35  53  83 118 152 184 219 271 338
#
# _framework density 18.227333999999999
#
# number of rings (size 3 to 8) (size 9 to 14) (size 15 to 20)
#    0.000    2.000    2.000    2.400    0.000    3.200 
#    0.000   10.000    0.000    2.400    0.000    0.000 
#    0.000    0.000    0.000    0.000    0.000    0.000 
#
# Total GULP energy -223101.737032 kJ/mol
# GULP energy per Si atom -5577.543426 kJ/mol
# Density = 1.818585 g / cm^3
# Si number density = 18.227334 Si / 1000 Ang^3
#
#
#
# Elastic Constant Matrix: (Units=GPa)
#
#
# Indices 1 2 3 4 5 6 
#
# 1 85.7111 24.2990 57.0665 0.0000 0.0000 0.0000
# 2 24.2990 94.1945 38.6457 0.0000 0.0000 0.0000
# 3 57.0665 38.6457 108.5417 0.0000 0.0000 0.0000
# 4 0.0000 0.0000 0.0000 28.1179 0.0000 0.0000
# 5 0.0000 0.0000 0.0000 0.0000 7.4290 0.0000
# 6 0.0000 0.0000 0.0000 0.0000 0.0000 18.0186
#
#
#
# Elastic Compliance Matrix: (Units=1/GPa)
#
#
# Indices 1 2 3 4 5 6 
#
# 1 0.018014 -0.000892 -0.009154 0.000000 0.000000 0.000000
# 2 -0.000892 0.012477 -0.003973 0.000000 0.000000 0.000000
# 3 -0.009154 -0.003973 0.015440 0.000000 0.000000 0.000000
# 4 0.000000 0.000000 0.000000 0.035565 0.000000 0.000000
# 5 0.000000 0.000000 0.000000 0.000000 0.134608 0.000000
# 6 0.000000 0.000000 0.000000 0.000000 0.000000 0.055498
#
#
# Mechanical properties :
#
#
# Convention : Reuss Voigt Hill
#
# Bulk Modulus (GPa) = 55.88518 58.71885 57.30202
# Shear Modulus (GPa) = 16.36101 21.94215 19.15158
#
# Velocity S-wave (km/s) = 2.99926 3.47335 3.24498
# Velocity P-wave (km/s) = 6.53611 6.95487 6.74874
#
# Compressibility (1/GPa) = 0.01789383
#
# Stress axis : x y z
#
# Youngs Moduli (GPa) = 55.51097 80.15040 64.76499
#
# Poissons Ratio (x) = 0.07146 0.59284
# Poissons Ratio (y) = 0.04949 0.25734
# Poissons Ratio (z) = 0.50814 0.31847
#
# Static dielectric constant tensor:
#      x y z
#    x 1.642780 0.000000 0.000000 
#    y 0.000000 1.627980 0.000000 
#    z 0.000000 0.000000 1.638660 
# 
# From -- ./inp_files/9938.got.cif
#   From: 2010.05.17/outbox.cif.g08.bks.cpg/sg67_5_cif.got.tgz:9938.got - 2010.06.03 18:28:57.
