data_PCOD9501705
_publ_section_title
;
Structure prediction by ZEFSAII (Michael W. Deem and Ramdas Pophale) SiO2 
 PCOD9501705
Probable space group: C M M A
;
_chemical_formula_sum "Si O2"
_cell_formula_units_Z 96
_cell_length_a 22.484088
_cell_length_b 23.102152
_cell_length_c 9.753113
_cell_angle_alpha 90.000000
_cell_angle_beta 90.000000
_cell_angle_gamma 90.000000
_cell_volume 5066.067469
_symmetry_space_group_name_H-M "C M M A"
_symmetry_group_IT_number 67
_symmetry_cell_setting 'orthorhombic'
loop_
_space_group_symop_operation_xyz
x,y,z
-x,1/2-y,z
x,-y,-z
-x,1/2+y,-z
-x,-y,-z
x,1/2+y,-z
-x,y,z
x,1/2-y,z
1/2+x,1/2+y,z
1/2-x,-y,z
1/2+x,1/2-y,-z
1/2-x,y,-z
1/2-x,1/2-y,-z
1/2+x,y,-z
1/2-x,1/2+y,z
1/2+x,-y,z
loop_
_atom_site_type_symbol
_atom_site_label
_atom_site_fract_x
_atom_site_fract_y
_atom_site_fract_z
Si Si1 0.567569 0.595043 0.318212
Si Si2 0.254632 0.184232 0.834437
Si Si3 0.928014 0.185724 0.537296
Si Si4 0.571819 0.516607 0.841021
Si Si5 0.112391 0.317836 0.115855
Si Si6 0.630143 0.859586 0.805645
O O1 0.500000 0.581137 0.359148
O O2 0.593787 0.632755 0.442300
O O3 0.592802 0.535334 0.258739
O O4 0.567507 0.639746 0.191029
O O5 0.243811 0.250000 0.785575
O O6 0.323429 0.169231 0.813295
O O7 0.201263 0.144432 0.783111
O O8 0.250000 0.185435 0.000000
O O9 0.911065 0.250000 0.485357
O O10 0.902689 0.176273 0.688166
O O11 0.000000 0.183865 0.539116
O O12 0.500000 0.523462 0.827450
O O13 0.604593 0.575890 0.806523
O O14 0.583186 0.500000 0.000000
O O15 0.099357 0.250000 0.132088
O O16 0.117285 0.332424 0.955318
#
# Coordination Sequence:
#
# PCOD9501705 Si02
#       6
#    16  16  16  16  16  16
#     4  10  21  37  54  74 111 150 179 224 278 328
#     4   8  16  31  51  78 109 137 173 227 278 321
#     4  10  21  35  52  81 115 143 180 230 283 340
#     4  10  20  35  54  79 109 141 186 232 266 317
#     4  10  19  33  56  81 106 141 186 229 274 330
#     4  11  19  33  56  78 107 143 180 228 277 323
#
# _framework density 18.949608000000001
#
# number of rings (size 3 to 8) (size 9 to 14) (size 15 to 20)
#    0.000    2.167    1.667    3.500    0.000    2.333 
#    0.000    4.167    0.000    3.000    0.000    2.333 
#    0.000    0.000    0.000    0.000    0.000    0.000 
#
# Total GULP energy -267537.595912 kJ/mol
# GULP energy per Si atom -5573.699915 kJ/mol
# Density = 1.890648 g / cm^3
# Si number density = 18.949608 Si / 1000 Ang^3
#
#
#
# Elastic Constant Matrix: (Units=GPa)
#
#
# Indices 1 2 3 4 5 6 
#
# 1 36.3826 34.4592 9.7347 0.0000 0.0000 0.0000
# 2 34.4592 130.1571 23.7135 0.0000 0.0000 0.0000
# 3 9.7347 23.7135 59.1705 0.0000 0.0000 0.0000
# 4 0.0000 0.0000 0.0000 26.1974 0.0000 0.0000
# 5 0.0000 0.0000 0.0000 0.0000 16.5203 0.0000
# 6 0.0000 0.0000 0.0000 0.0000 0.0000 -4.7968
#
#
#
# Elastic Compliance Matrix: (Units=1/GPa)
#
#
# Indices 1 2 3 4 5 6 
#
# 1 0.036980 -0.009366 -0.002330 0.000000 0.000000 0.000000
# 2 -0.009366 0.010660 -0.002731 0.000000 0.000000 0.000000
# 3 -0.002330 -0.002731 0.018378 0.000000 0.000000 0.000000
# 4 0.000000 0.000000 0.000000 0.038172 0.000000 0.000000
# 5 0.000000 0.000000 0.000000 0.000000 0.060532 0.000000
# 6 0.000000 0.000000 0.000000 0.000000 0.000000 -0.208471
#
#
# Mechanical properties :
#
#
# Convention : Reuss Voigt Hill
#
# Bulk Modulus (GPa) = 26.90833 40.16944 33.53889
# Shear Modulus (GPa) = -1995.10558 18.10436 -988.50061
#
# Velocity S-wave (km/s) = -32.48282 3.09430 -22.86437
# Velocity P-wave (km/s) = 37.31774 5.83184 26.06342
#
# Compressibility (1/GPa) = 0.03716321
#
# Stress axis : x y z
#
# Youngs Moduli (GPa) = 27.04166 93.80604 54.41184
#
# Poissons Ratio (x) = 0.87858 0.12680
# Poissons Ratio (y) = 0.25327 0.14862
# Poissons Ratio (z) = 0.06302 0.25622
#
# Static dielectric constant tensor:
#      x y z
#    x 1.701130 0.000000 0.000000 
#    y 0.000000 1.659860 0.000000 
#    z 0.000000 0.000000 1.667030 
# 
# From -- ./inp_files/13900.got.cif
#   From: 2010.05.17/outbox.cif.g08.bks.cpg/sg67_7_cif.got.tgz:13900.got - 2010.06.03 18:28:57.
