data_PCOD9501721
_publ_section_title
;
Structure prediction by ZEFSAII (Michael W. Deem and Ramdas Pophale) SiO2 
 PCOD9501721
Probable space group: C M M A
;
_chemical_formula_sum "Si O2"
_cell_formula_units_Z 96
_cell_length_a 20.884429
_cell_length_b 13.434144
_cell_length_c 15.025496
_cell_angle_alpha 90.000000
_cell_angle_beta 90.000000
_cell_angle_gamma 90.000000
_cell_volume 4215.619669
_symmetry_space_group_name_H-M "C M M A"
_symmetry_group_IT_number 67
_symmetry_cell_setting 'orthorhombic'
loop_
_space_group_symop_operation_xyz
x,y,z
-x,1/2-y,z
x,-y,-z
-x,1/2+y,-z
-x,-y,-z
x,1/2+y,-z
-x,y,z
x,1/2-y,z
1/2+x,1/2+y,z
1/2-x,-y,z
1/2+x,1/2-y,-z
1/2-x,y,-z
1/2-x,1/2-y,-z
1/2+x,y,-z
1/2-x,1/2+y,z
1/2+x,-y,z
loop_
_atom_site_type_symbol
_atom_site_label
_atom_site_fract_x
_atom_site_fract_y
_atom_site_fract_z
Si Si1 0.929123 0.919978 0.904707
Si Si2 0.865800 0.134517 0.268918
Si Si3 0.378625 0.866236 0.916539
Si Si4 0.926446 0.628901 0.548566
Si Si5 0.307714 0.869898 0.568436
Si Si6 0.725436 0.629454 0.768322
O O1 0.916240 0.873937 0.809528
O O2 0.000000 0.892714 0.936935
O O3 0.924041 0.039623 0.894170
O O4 0.877345 0.880043 0.976275
O O5 0.852715 0.250000 0.289318
O O6 0.894972 0.092709 0.359231
O O7 0.798803 0.093267 0.231423
O O8 0.396789 0.750000 0.898868
O O9 0.316492 0.889685 0.856335
O O10 0.927889 0.750000 0.551625
O O11 0.876567 0.602805 0.471311
O O12 0.000000 0.597903 0.539001
O O13 0.305072 0.750000 0.570079
O O14 0.250000 0.897698 0.500000
O O15 0.300028 0.902194 0.670625
O O16 0.725868 0.750000 0.766150
#
# Coordination Sequence:
#
# PCOD9501721 Si02
#       6
#    16  16  16  16  16  16
#     4  11  24  40  61  88 117 159 205 246 308 373
#     4  10  19  33  56  87 123 159 201 254 304 362
#     4  10  22  41  63  88 118 152 198 253 303 364
#     4   9  16  26  45  79 121 162 203 251 306 361
#     4   9  14  26  50  81 118 159 204 251 298 361
#     4   9  18  33  56  88 120 158 204 251 312 366
#
# _framework density 22.772451
#
# number of rings (size 3 to 8) (size 9 to 14) (size 15 to 20)
#    0.000    2.333    1.667    2.000    0.000    4.333 
#    0.000    5.833    0.000    7.000    0.000    2.333 
#    0.000    0.000    0.000    0.000    0.000    1.000 
#
# Total GULP energy -267793.742382 kJ/mol
# GULP energy per Si atom -5579.036300 kJ/mol
# Density = 2.272062 g / cm^3
# Si number density = 22.772451 Si / 1000 Ang^3
#
#
#
# Elastic Constant Matrix: (Units=GPa)
#
#
# Indices 1 2 3 4 5 6 
#
# 1 151.2162 26.4561 70.2176 0.0000 0.0000 0.0000
# 2 26.4561 97.3407 34.3626 0.0000 0.0000 0.0000
# 3 70.2176 34.3626 119.7911 0.0000 0.0000 0.0000
# 4 0.0000 0.0000 0.0000 25.8717 0.0000 0.0000
# 5 0.0000 0.0000 0.0000 0.0000 34.6645 0.0000
# 6 0.0000 0.0000 0.0000 0.0000 0.0000 4.4579
#
#
#
# Elastic Compliance Matrix: (Units=1/GPa)
#
#
# Indices 1 2 3 4 5 6 
#
# 1 0.009124 -0.000659 -0.005159 0.000000 0.000000 0.000000
# 2 -0.000659 0.011478 -0.002907 0.000000 0.000000 0.000000
# 3 -0.005159 -0.002907 0.012206 0.000000 0.000000 0.000000
# 4 0.000000 0.000000 0.000000 0.038652 0.000000 0.000000
# 5 0.000000 0.000000 0.000000 0.000000 0.028848 0.000000
# 6 0.000000 0.000000 0.000000 0.000000 0.000000 0.224321
#
#
# Mechanical properties :
#
#
# Convention : Reuss Voigt Hill
#
# Bulk Modulus (GPa) = 65.10713 70.04674 67.57694
# Shear Modulus (GPa) = 14.40101 28.81960 21.61030
#
# Velocity S-wave (km/s) = 2.51746 3.56131 3.08387
# Velocity P-wave (km/s) = 6.09118 6.90918 6.51304
#
# Compressibility (1/GPa) = 0.01535930
#
# Stress axis : x y z
#
# Youngs Moduli (GPa) = 109.60134 87.12144 81.92804
#
# Poissons Ratio (x) = 0.05737 0.42269
# Poissons Ratio (y) = 0.07217 0.23813
# Poissons Ratio (z) = 0.56546 0.25323
#
# Static dielectric constant tensor:
#      x y z
#    x 1.832180 0.000000 0.000000 
#    y 0.000000 1.916720 0.000000 
#    z 0.000000 0.000000 1.799370 
# 
# From -- ./inp_files/29239.got.cif
#   From: 2010.05.17/outbox.cif.g08.bks.cpg/sg67_15_cif.got.tgz:29239.got - 2010.06.03 18:28:57.
