data_PCOD9501206
_publ_section_title
;
Structure prediction by ZEFSAII (Michael W. Deem and Ramdas Pophale) SiO2 
 PCOD9501206
Probable space group: C M M A
;
_chemical_formula_sum "Si O2"
_cell_formula_units_Z 120
_cell_length_a 8.643060
_cell_length_b 27.822332
_cell_length_c 28.940418
_cell_angle_alpha 90.000000
_cell_angle_beta 90.000000
_cell_angle_gamma 90.000000
_cell_volume 6959.304771
_symmetry_space_group_name_H-M "C M M A"
_symmetry_group_IT_number 67
_symmetry_cell_setting 'orthorhombic'
loop_
_space_group_symop_operation_xyz
x,y,z
-x,1/2-y,z
x,-y,-z
-x,1/2+y,-z
-x,-y,-z
x,1/2+y,-z
-x,y,z
x,1/2-y,z
1/2+x,1/2+y,z
1/2-x,-y,z
1/2+x,1/2-y,-z
1/2-x,y,-z
1/2-x,1/2-y,-z
1/2+x,y,-z
1/2-x,1/2+y,z
1/2+x,-y,z
loop_
_atom_site_type_symbol
_atom_site_label
_atom_site_fract_x
_atom_site_fract_y
_atom_site_fract_z
Si Si1 0.313505 0.696153 0.142508
Si Si2 0.686515 0.447739 0.283400
Si Si3 0.686490 0.856642 0.447663
Si Si4 0.313673 0.250000 0.552185
Si Si5 0.186232 0.553216 0.390029
Si Si6 0.314895 0.357068 0.950401
Si Si7 0.814662 0.552712 0.101211
Si Si8 0.686202 0.892577 0.805733
O O1 0.500000 0.695167 0.143776
O O2 0.259395 0.750000 0.150729
O O3 0.266753 0.678029 0.091436
O O4 0.250454 0.658684 0.179431
O O5 0.500000 0.449055 0.282538
O O6 0.750000 0.500000 0.270779
O O7 0.732751 0.438101 0.336349
O O8 0.739694 0.410874 0.244140
O O9 0.500000 0.859156 0.448288
O O10 0.750000 0.859231 0.500000
O O11 0.731907 0.802962 0.428570
O O12 0.751164 0.902268 0.419816
O O13 0.500000 0.250000 0.551000
O O14 0.250000 0.250000 0.500000
O O15 0.250000 0.500000 0.403102
O O16 0.000000 0.551795 0.393063
O O17 0.500000 0.358309 0.952228
O O18 0.251983 0.409087 0.935069
O O19 0.250000 0.342931 0.000000
O O20 0.750000 0.500000 0.093208
O O21 0.768425 0.571290 0.152587
O O22 0.000000 0.552809 0.098607
O O23 0.500000 0.890779 0.805447
#
# Coordination Sequence:
#
# PCOD9501206 Si02
#       8
#    16  16  16   8  16  16  16  16
#     4   9  19  35  53  73  97 125 158 198 243 288
#     4   9  18  32  51  75 103 132 165 202 244 292
#     4  10  19  33  53  77 104 136 175 218 263 309
#     4   8  16  30  50  74  98 126 164 210 256 300
#     4  10  20  34  51  74 105 140 175 213 257 308
#     4  10  20  34  50  69  95 125 158 196 237 283
#     4  10  19  31  48  71  98 125 157 193 235 285
#     4   9  18  32  51  75  99 125 158 199 241 288
#
# _framework density 17.243100999999999
#
# number of rings (size 3 to 8) (size 9 to 14) (size 15 to 20)
#    0.000    2.533    0.000    2.000    0.000    3.733 
#    0.000    2.667    1.467    0.000    0.000    0.000 
#    0.000    0.000    0.000    0.000    0.000    0.000 
#
# Total GULP energy -334461.072139 kJ/mol
# GULP energy per Si atom -5574.351202 kJ/mol
# Density = 1.720385 g / cm^3
# Si number density = 17.243101 Si / 1000 Ang^3
#
#
#
# Elastic Constant Matrix: (Units=GPa)
#
#
# Indices 1 2 3 4 5 6 
#
# 1 27.3998 28.5277 22.3254 0.0000 0.0000 0.0000
# 2 28.5277 145.1149 76.5185 0.0000 0.0000 0.0000
# 3 22.3254 76.5185 86.4061 0.0000 0.0000 0.0000
# 4 0.0000 0.0000 0.0000 9.4047 0.0000 0.0000
# 5 0.0000 0.0000 0.0000 0.0000 20.4863 0.0000
# 6 0.0000 0.0000 0.0000 0.0000 0.0000 24.5509
#
#
#
# Elastic Compliance Matrix: (Units=1/GPa)
#
#
# Indices 1 2 3 4 5 6 
#
# 1 0.048450 -0.005485 -0.007661 0.000000 0.000000 0.000000
# 2 -0.005485 0.013549 -0.010581 0.000000 0.000000 0.000000
# 3 -0.007661 -0.010581 0.022923 0.000000 0.000000 0.000000
# 4 0.000000 0.000000 0.000000 0.106330 0.000000 0.000000
# 5 0.000000 0.000000 0.000000 0.000000 0.048813 0.000000
# 6 0.000000 0.000000 0.000000 0.000000 0.000000 0.040732
#
#
# Mechanical properties :
#
#
# Convention : Reuss Voigt Hill
#
# Bulk Modulus (GPa) = 26.69004 57.07377 41.88191
# Shear Modulus (GPa) = 14.67397 19.65833 17.16615
#
# Velocity S-wave (km/s) = 2.92036 3.38015 3.15864
# Velocity P-wave (km/s) = 5.18494 6.95739 6.13551
#
# Compressibility (1/GPa) = 0.03746715
#
# Stress axis : x y z
#
# Youngs Moduli (GPa) = 20.64004 73.80753 43.62433
#
# Poissons Ratio (x) = 0.40483 0.33420
# Poissons Ratio (y) = 0.11321 0.46160
# Poissons Ratio (z) = 0.15812 0.78097
#
# Static dielectric constant tensor:
#      x y z
#    x 1.583450 0.000000 0.000000 
#    y 0.000000 1.582360 0.000000 
#    z 0.000000 0.000000 1.579560 
# 
# From -- ./inp_files/43927.got.cif
#   From: 2010.05.17/outbox.cif.g08.bks.cpg/sg67_22_cif.got.tgz:43927.got - 2010.06.03 18:28:57.
