data_PCOD9501992
_publ_section_title
;
Structure prediction by ZEFSAII (Michael W. Deem and Ramdas Pophale) SiO2 
 PCOD9501992
Probable space group: C M M A
;
_chemical_formula_sum "Si O2"
_cell_formula_units_Z 88
_cell_length_a 10.282858
_cell_length_b 21.076377
_cell_length_c 22.483809
_cell_angle_alpha 90.000000
_cell_angle_beta 90.000000
_cell_angle_gamma 90.000000
_cell_volume 4872.812316
_symmetry_space_group_name_H-M "C M M A"
_symmetry_group_IT_number 67
_symmetry_cell_setting 'orthorhombic'
loop_
_space_group_symop_operation_xyz
x,y,z
-x,1/2-y,z
x,-y,-z
-x,1/2+y,-z
-x,-y,-z
x,1/2+y,-z
-x,y,z
x,1/2-y,z
1/2+x,1/2+y,z
1/2-x,-y,z
1/2+x,1/2-y,-z
1/2-x,y,-z
1/2-x,1/2-y,-z
1/2+x,y,-z
1/2-x,1/2+y,z
1/2+x,-y,z
loop_
_atom_site_type_symbol
_atom_site_label
_atom_site_fract_x
_atom_site_fract_y
_atom_site_fract_z
Si Si1 0.261318 0.576477 0.843763
Si Si2 0.000000 0.547201 0.374124
Si Si3 0.640537 0.750000 0.549726
Si Si4 0.268064 0.119280 0.428850
Si Si5 0.000000 0.396779 0.360757
Si Si6 0.000000 0.562020 0.241117
Si Si7 0.153994 0.823232 0.056448
Si Si8 0.000000 0.089866 0.225115
O O1 0.250000 0.500000 0.858342
O O2 0.372260 0.582793 0.793783
O O3 0.303542 0.621709 0.897828
O O4 0.127561 0.600452 0.814477
O O5 0.867974 0.565898 0.407606
O O6 0.000000 0.472696 0.364352
O O7 0.000000 0.580285 0.309729
O O8 0.500000 0.750000 0.520171
O O9 0.750000 0.750000 0.500000
O O10 0.659533 0.685462 0.584617
O O11 0.250000 0.113162 0.500000
O O12 0.130626 0.122360 0.395537
O O13 0.000000 0.378587 0.290696
O O14 0.000000 0.485614 0.237801
O O15 0.167218 0.750000 0.079441
O O16 0.000000 0.831524 0.041616
O O17 0.250000 0.827964 0.000000
#
# Coordination Sequence:
#
# PCOD9501992 Si02
#       8
#    16   8   8  16   8   8  16   8
#     4  10  19  36  61  88 116 155 205 250 284 337
#     4  11  21  37  59  85 117 155 187 237 298 362
#     4  10  22  40  62  80 100 144 194 232 285 350
#     4  11  23  37  59  83 114 150 194 243 294 358
#     4  11  23  37  57  87 121 153 187 237 304 362
#     4   9  18  35  59  81 113 154 200 238 286 346
#     4  10  22  40  62  89 123 161 195 232 290 351
#     4   9  20  35  57  85 113 156 198 236 292 346
#
# _framework density 18.059387000000001
#
# number of rings (size 3 to 8) (size 9 to 14) (size 15 to 20)
#    0.000    1.818    1.818    2.182    5.091    5.455 
#    0.000    0.909   12.000    0.000    0.000    0.000 
#    0.000    0.000    0.000    0.000    0.000    0.000 
#
# Total GULP energy -245245.295103 kJ/mol
# GULP energy per Si atom -5573.756707 kJ/mol
# Density = 1.801828 g / cm^3
# Si number density = 18.059387 Si / 1000 Ang^3
#
#
#
# Elastic Constant Matrix: (Units=GPa)
#
#
# Indices 1 2 3 4 5 6 
#
# 1 170.6927 30.3434 60.6449 0.0000 0.0000 0.0000
# 2 30.3434 60.7613 39.6299 0.0000 0.0000 0.0000
# 3 60.6449 39.6299 107.0144 0.0000 0.0000 0.0000
# 4 0.0000 0.0000 0.0000 -15.4652 0.0000 0.0000
# 5 0.0000 0.0000 0.0000 0.0000 20.6305 0.0000
# 6 0.0000 0.0000 0.0000 0.0000 0.0000 23.9823
#
#
#
# Elastic Compliance Matrix: (Units=1/GPa)
#
#
# Indices 1 2 3 4 5 6 
#
# 1 0.007409 -0.001268 -0.003729 0.000000 0.000000 0.000000
# 2 -0.001268 0.021916 -0.007398 0.000000 0.000000 0.000000
# 3 -0.003729 -0.007398 0.014197 0.000000 0.000000 0.000000
# 4 0.000000 0.000000 0.000000 -0.064661 0.000000 0.000000
# 5 0.000000 0.000000 0.000000 0.000000 0.048472 0.000000
# 6 0.000000 0.000000 0.000000 0.000000 0.000000 0.041697
#
#
# Mechanical properties :
#
#
# Convention : Reuss Voigt Hill
#
# Bulk Modulus (GPa) = 53.38106 66.63385 60.00745
# Shear Modulus (GPa) = 49.96865 19.68619 34.82742
#
# Velocity S-wave (km/s) = 5.26585 3.30522 4.39623
# Velocity P-wave (km/s) = 8.16057 7.17935 7.68564
#
# Compressibility (1/GPa) = 0.01873324
#
# Stress axis : x y z
#
# Youngs Moduli (GPa) = 134.97615 45.62938 70.43602
#
# Poissons Ratio (x) = 0.05784 0.26266
# Poissons Ratio (y) = 0.17110 0.52105
# Poissons Ratio (z) = 0.50334 0.33754
#
# Static dielectric constant tensor:
#      x y z
#    x 1.622410 0.000000 0.000000 
#    y 0.000000 1.646950 0.000000 
#    z 0.000000 0.000000 1.610960 
# 
# From -- ./inp_files/40749.got.cif
#   From: 2010.05.17/outbox.cif.g08.bks.cpg/sg67_21_cif.got.tgz:40749.got - 2010.06.03 18:28:57.
