data_PCOD9501201
_publ_section_title
;
Structure prediction by ZEFSAII (Michael W. Deem and Ramdas Pophale) SiO2 
 PCOD9501201
Probable space group: C M M A
;
_chemical_formula_sum "Si O2"
_cell_formula_units_Z 96
_cell_length_a 9.192871
_cell_length_b 27.557742
_cell_length_c 24.449187
_cell_angle_alpha 90.000000
_cell_angle_beta 90.000000
_cell_angle_gamma 90.000000
_cell_volume 6193.829098
_symmetry_space_group_name_H-M "C M M A"
_symmetry_group_IT_number 67
_symmetry_cell_setting 'orthorhombic'
loop_
_space_group_symop_operation_xyz
x,y,z
-x,1/2-y,z
x,-y,-z
-x,1/2+y,-z
-x,-y,-z
x,1/2+y,-z
-x,y,z
x,1/2-y,z
1/2+x,1/2+y,z
1/2-x,-y,z
1/2+x,1/2-y,-z
1/2-x,y,-z
1/2-x,1/2-y,-z
1/2+x,y,-z
1/2-x,1/2+y,z
1/2+x,-y,z
loop_
_atom_site_type_symbol
_atom_site_label
_atom_site_fract_x
_atom_site_fract_y
_atom_site_fract_z
Si Si1 0.674695 0.307912 0.175777
Si Si2 0.326969 0.642411 0.277828
Si Si3 0.672936 0.694040 0.392806
Si Si4 0.328174 0.103713 0.445459
Si Si5 0.826711 0.051283 0.669253
Si Si6 0.668872 0.691048 0.945917
O O1 0.500000 0.315479 0.180107
O O2 0.699180 0.250000 0.180618
O O3 0.758896 0.335022 0.223480
O O4 0.721876 0.323610 0.114490
O O5 0.500000 0.635127 0.272545
O O6 0.303469 0.678507 0.329561
O O7 0.246724 0.592636 0.293666
O O8 0.500000 0.688856 0.403652
O O9 0.714061 0.750000 0.401416
O O10 0.760871 0.655865 0.429130
O O11 0.500000 0.108128 0.454340
O O12 0.250000 0.085756 0.500000
O O13 0.303401 0.069063 0.393346
O O14 0.000000 0.048759 0.678647
O O15 0.750000 0.000000 0.677906
O O16 0.500000 0.677901 0.949948
O O17 0.676509 0.750000 0.946049
O O18 0.750000 0.673389 0.000000
#
# Coordination Sequence:
#
# PCOD9501201 Si02
#       6
#    16  16  16  16  16  16
#     4   9  17  28  42  63  94 130 163 195 232 272
#     4  10  19  31  48  70  94 119 152 192 230 272
#     4   9  18  32  48  66  91 122 153 186 223 262
#     4  10  21  35  51  71  93 117 147 182 220 266
#     4  10  21  37  55  73  92 116 145 180 228 279
#     4   8  14  24  37  55  83 121 162 199 232 265
#
# _framework density 15.499297
#
# number of rings (size 3 to 8) (size 9 to 14) (size 15 to 20)
#    0.000    2.667    0.000    3.000    0.000    5.333 
#    0.000    3.333    0.000    0.000    0.000    0.000 
#    0.000    0.667    0.000    7.000    0.000    4.167 
#
# Total GULP energy -267603.848808 kJ/mol
# GULP energy per Si atom -5575.080184 kJ/mol
# Density = 1.546402 g / cm^3
# Si number density = 15.499297 Si / 1000 Ang^3
#
#
#
# Elastic Constant Matrix: (Units=GPa)
#
#
# Indices 1 2 3 4 5 6 
#
# 1 61.4134 30.3804 55.1436 0.0000 0.0000 0.0000
# 2 30.3804 53.2559 16.1342 0.0000 0.0000 0.0000
# 3 55.1436 16.1342 106.8596 0.0000 0.0000 0.0000
# 4 0.0000 0.0000 0.0000 7.6023 0.0000 0.0000
# 5 0.0000 0.0000 0.0000 0.0000 31.3208 0.0000
# 6 0.0000 0.0000 0.0000 0.0000 0.0000 23.2143
#
#
#
# Elastic Compliance Matrix: (Units=1/GPa)
#
#
# Indices 1 2 3 4 5 6 
#
# 1 0.042760 -0.018557 -0.019264 0.000000 0.000000 0.000000
# 2 -0.018557 0.027731 0.005389 0.000000 0.000000 0.000000
# 3 -0.019264 0.005389 0.018485 0.000000 0.000000 0.000000
# 4 0.000000 0.000000 0.000000 0.131540 0.000000 0.000000
# 5 0.000000 0.000000 0.000000 0.000000 0.031928 0.000000
# 6 0.000000 0.000000 0.000000 0.000000 0.000000 0.043077
#
#
# Mechanical properties :
#
#
# Convention : Reuss Voigt Hill
#
# Bulk Modulus (GPa) = 41.47215 47.20503 44.33859
# Shear Modulus (GPa) = 13.57139 20.41883 16.99511
#
# Velocity S-wave (km/s) = 2.96229 3.63354 3.31495
# Velocity P-wave (km/s) = 6.20610 6.93728 6.58185
#
# Compressibility (1/GPa) = 0.02411257
#
# Stress axis : x y z
#
# Youngs Moduli (GPa) = 23.38614 36.06124 54.09673
#
# Poissons Ratio (x) = 0.66919 1.04213
# Poissons Ratio (y) = 0.43398 -0.29154
# Poissons Ratio (z) = 0.45051 -0.19434
#
# Static dielectric constant tensor:
#      x y z
#    x 1.512800 0.000000 0.000000 
#    y 0.000000 1.485680 0.000000 
#    z 0.000000 0.000000 1.521640 
# 
# From -- ./inp_files/37185.got.cif
#   From: 2010.05.17/outbox.cif.g08.bks.cpg/sg67_19_cif.got.tgz:37185.got - 2010.06.03 18:28:57.
