data_PCOD9501127
_publ_section_title
;
Structure prediction by ZEFSAII (Michael W. Deem and Ramdas Pophale) SiO2 
 PCOD9501127
Probable space group: C M M A
;
_chemical_formula_sum "Si O2"
_cell_formula_units_Z 96
_cell_length_a 18.655658
_cell_length_b 16.038012
_cell_length_c 18.387805
_cell_angle_alpha 90.000000
_cell_angle_beta 90.000000
_cell_angle_gamma 90.000000
_cell_volume 5501.625131
_symmetry_space_group_name_H-M "C M M A"
_symmetry_group_IT_number 67
_symmetry_cell_setting 'orthorhombic'
loop_
_space_group_symop_operation_xyz
x,y,z
-x,1/2-y,z
x,-y,-z
-x,1/2+y,-z
-x,-y,-z
x,1/2+y,-z
-x,y,z
x,1/2-y,z
1/2+x,1/2+y,z
1/2-x,-y,z
1/2+x,1/2-y,-z
1/2-x,y,-z
1/2-x,1/2-y,-z
1/2+x,y,-z
1/2-x,1/2+y,z
1/2+x,-y,z
loop_
_atom_site_type_symbol
_atom_site_label
_atom_site_fract_x
_atom_site_fract_y
_atom_site_fract_z
Si Si1 0.913046 0.014164 0.320481
Si Si2 0.412849 0.843915 0.602992
Si Si3 0.581371 0.921421 0.944006
Si Si4 0.316341 0.344763 0.952816
Si Si5 0.167797 0.020740 0.171090
Si Si6 0.412931 0.655858 0.435130
O O1 0.890941 0.921743 0.347638
O O2 0.877399 0.033886 0.243666
O O3 0.000000 0.015823 0.314650
O O4 0.891048 0.083168 0.380320
O O5 0.500000 0.843532 0.603431
O O6 0.389795 0.750000 0.624501
O O7 0.390944 0.858459 0.518914
O O8 0.500000 0.904616 0.921896
O O9 0.629948 0.947784 0.876027
O O10 0.617173 0.849800 0.991926
O O11 0.581308 0.000000 0.000000
O O12 0.299264 0.250000 0.933263
O O13 0.331337 0.399782 0.882454
O O14 0.250000 0.380919 0.000000
O O15 0.250000 0.000000 0.187974
O O16 0.500000 0.655369 0.435353
O O17 0.390531 0.750000 0.413946
#
# Coordination Sequence:
#
# PCOD9501127 Si02
#       6
#    16  16  16  16  16  16
#     4  10  19  30  48  77 108 135 171 219 269 318
#     4   8  14  27  48  73 101 136 177 219 262 310
#     4   9  18  33  55  78  99 128 169 213 256 307
#     4  10  20  36  58  79  99 131 175 217 262 319
#     4  11  21  35  53  73 103 142 173 209 263 321
#     4   8  14  26  47  74 102 134 174 218 263 312
#
# _framework density 17.449389
#
# number of rings (size 3 to 8) (size 9 to 14) (size 15 to 20)
#    0.000    2.667    1.667    2.000    0.000    3.667 
#    0.000    1.667    0.000    4.000    0.000    2.333 
#    0.000    0.000    0.000    0.000    0.000    0.000 
#
# Total GULP energy -267374.832128 kJ/mol
# GULP energy per Si atom -5570.309003 kJ/mol
# Density = 1.740967 g / cm^3
# Si number density = 17.449389 Si / 1000 Ang^3
#
#
#
# Elastic Constant Matrix: (Units=GPa)
#
#
# Indices 1 2 3 4 5 6 
#
# 1 53.4779 17.0426 23.8361 0.0000 0.0000 0.0000
# 2 17.0426 100.7030 64.8041 0.0000 0.0000 0.0000
# 3 23.8361 64.8041 99.8894 0.0000 0.0000 0.0000
# 4 0.0000 0.0000 0.0000 13.3247 0.0000 0.0000
# 5 0.0000 0.0000 0.0000 0.0000 14.8465 0.0000
# 6 0.0000 0.0000 0.0000 0.0000 0.0000 11.2244
#
#
#
# Elastic Compliance Matrix: (Units=1/GPa)
#
#
# Indices 1 2 3 4 5 6 
#
# 1 0.020943 -0.000564 -0.004632 0.000000 0.000000 0.000000
# 2 -0.000564 0.017062 -0.010935 0.000000 0.000000 0.000000
# 3 -0.004632 -0.010935 0.018210 0.000000 0.000000 0.000000
# 4 0.000000 0.000000 0.000000 0.075049 0.000000 0.000000
# 5 0.000000 0.000000 0.000000 0.000000 0.067356 0.000000
# 6 0.000000 0.000000 0.000000 0.000000 0.000000 0.089091
#
#
# Mechanical properties :
#
#
# Convention : Reuss Voigt Hill
#
# Bulk Modulus (GPa) = 41.74429 51.71508 46.72969
# Shear Modulus (GPa) = 15.24584 17.77162 16.50873
#
# Velocity S-wave (km/s) = 2.95908 3.19480 3.07920
# Velocity P-wave (km/s) = 5.97075 6.58108 6.28333
#
# Compressibility (1/GPa) = 0.02395537
#
# Stress axis : x y z
#
# Youngs Moduli (GPa) = 47.74754 58.60868 54.91362
#
# Poissons Ratio (x) = 0.03304 0.25436
# Poissons Ratio (y) = 0.02691 0.60047
# Poissons Ratio (z) = 0.22116 0.64088
#
# Static dielectric constant tensor:
#      x y z
#    x 1.602190 0.000000 0.000000 
#    y 0.000000 1.608860 0.000000 
#    z 0.000000 0.000000 1.569170 
# 
# From -- ./inp_files/29245.got.cif
#   From: 2010.05.17/outbox.cif.g08.bks.cpg/sg67_15_cif.got.tgz:29245.got - 2010.06.03 18:28:57.
