data_PCOD9501435
_publ_section_title
;
Structure prediction by ZEFSAII (Michael W. Deem and Ramdas Pophale) SiO2 
 PCOD9501435
Probable space group: C M M A
;
_chemical_formula_sum "Si O2"
_cell_formula_units_Z 96
_cell_length_a 10.002941
_cell_length_b 14.728981
_cell_length_c 30.043748
_cell_angle_alpha 90.000000
_cell_angle_beta 90.000000
_cell_angle_gamma 90.000000
_cell_volume 4426.439368
_symmetry_space_group_name_H-M "C M M A"
_symmetry_group_IT_number 67
_symmetry_cell_setting 'orthorhombic'
loop_
_space_group_symop_operation_xyz
x,y,z
-x,1/2-y,z
x,-y,-z
-x,1/2+y,-z
-x,-y,-z
x,1/2+y,-z
-x,y,z
x,1/2-y,z
1/2+x,1/2+y,z
1/2-x,-y,z
1/2+x,1/2-y,-z
1/2-x,y,-z
1/2-x,1/2-y,-z
1/2+x,y,-z
1/2-x,1/2+y,z
1/2+x,-y,z
loop_
_atom_site_type_symbol
_atom_site_label
_atom_site_fract_x
_atom_site_fract_y
_atom_site_fract_z
Si Si1 0.646945 0.143460 0.359220
Si Si2 0.258535 0.890670 0.891897
Si Si3 0.337636 0.592893 0.539306
Si Si4 0.000000 0.390087 0.953323
Si Si5 0.000000 0.388269 0.055367
Si Si6 0.347623 0.138587 0.714763
Si Si7 0.849361 0.856758 0.207883
O O1 0.500000 0.102882 0.348838
O O2 0.638452 0.250000 0.348243
O O3 0.668511 0.136168 0.411991
O O4 0.769292 0.108907 0.329737
O O5 0.373431 0.860475 0.925290
O O6 0.124474 0.859340 0.915225
O O7 0.291485 0.863782 0.841769
O O8 0.250000 0.000000 0.891321
O O9 0.500000 0.584059 0.529245
O O10 0.250000 0.500000 0.544525
O O11 0.250000 0.639724 0.500000
O O12 0.000000 0.501047 0.950271
O O13 0.000000 0.358739 0.004116
O O14 0.500000 0.106351 0.716923
O O15 0.353880 0.250000 0.715343
O O16 0.256495 0.108222 0.756210
O O17 0.862477 0.750000 0.217983
O O18 0.000000 0.896522 0.209768
#
# Coordination Sequence:
#
# PCOD9501435 Si02
#       7
#    16  16  16   8   8  16  16
#     4   9  18  34  55  78 104 134 172 216 261 306
#     4  10  19  32  51  76 101 128 165 209 251 295
#     4  10  20  34  53  76 106 145 181 215 255 307
#     4   9  16  32  49  73 101 129 169 201 244 305
#     4   9  18  28  51  75  99 131 161 209 252 287
#     4   9  18  32  52  78 103 130 168 213 257 302
#     4  10  20  35  54  73 100 138 172 201 245 309
#
# _framework density 21.687861000000002
#
# number of rings (size 3 to 8) (size 9 to 14) (size 15 to 20)
#    0.000    2.500    0.833    2.000    1.167    5.667 
#    0.000    0.833    0.000    3.000    0.000    0.000 
#    0.000    0.000    0.000    0.000    0.000    0.000 
#
# Total GULP energy -267663.629950 kJ/mol
# GULP energy per Si atom -5576.325624 kJ/mol
# Density = 2.163850 g / cm^3
# Si number density = 21.687861 Si / 1000 Ang^3
#
#
#
# Elastic Constant Matrix: (Units=GPa)
#
#
# Indices 1 2 3 4 5 6 
#
# 1 258.6434 10.0038 136.2896 0.0000 0.0000 0.0000
# 2 10.0038 51.2991 -5.3298 0.0000 0.0000 0.0000
# 3 136.2896 -5.3298 183.5752 0.0000 0.0000 0.0000
# 4 0.0000 0.0000 0.0000 24.0844 0.0000 0.0000
# 5 0.0000 0.0000 0.0000 0.0000 12.7417 0.0000
# 6 0.0000 0.0000 0.0000 0.0000 0.0000 11.6310
#
#
#
# Elastic Compliance Matrix: (Units=1/GPa)
#
#
# Indices 1 2 3 4 5 6 
#
# 1 0.006508 -0.001777 -0.004884 0.000000 0.000000 0.000000
# 2 -0.001777 0.020037 0.001901 0.000000 0.000000 0.000000
# 3 -0.004884 0.001901 0.009128 0.000000 0.000000 0.000000
# 4 0.000000 0.000000 0.000000 0.041521 0.000000 0.000000
# 5 0.000000 0.000000 0.000000 0.000000 0.078482 0.000000
# 6 0.000000 0.000000 0.000000 0.000000 0.000000 0.085977
#
#
# Mechanical properties :
#
#
# Convention : Reuss Voigt Hill
#
# Bulk Modulus (GPa) = 38.23329 86.16054 62.19692
# Shear Modulus (GPa) = 19.23881 33.19503 26.21692
#
# Velocity S-wave (km/s) = 2.98162 3.91651 3.48059
# Velocity P-wave (km/s) = 5.43328 7.76311 6.70024
#
# Compressibility (1/GPa) = 0.02615522
#
# Stress axis : x y z
#
# Youngs Moduli (GPa) = 153.64861 49.90660 109.55128
#
# Poissons Ratio (x) = 0.08866 0.53499
# Poissons Ratio (y) = 0.27297 -0.20823
# Poissons Ratio (z) = 0.75034 -0.09486
#
# Static dielectric constant tensor:
#      x y z
#    x 1.761250 0.000000 0.000000 
#    y 0.000000 0.591740 0.000000 
#    z 0.000000 0.000000 1.755050 
# 
# From -- ./inp_files/43708.got.cif
#   From: 2010.05.17/outbox.cif.g08.bks.cpg/sg67_22_cif.got.tgz:43708.got - 2010.06.03 18:28:57.
