data_PCOD9501181
_publ_section_title
;
Structure prediction by ZEFSAII (Michael W. Deem and Ramdas Pophale) SiO2 
 PCOD9501181
Probable space group: C M M A
;
_chemical_formula_sum "Si O2"
_cell_formula_units_Z 104
_cell_length_a 32.842607
_cell_length_b 8.602651
_cell_length_c 21.847065
_cell_angle_alpha 90.000000
_cell_angle_beta 90.000000
_cell_angle_gamma 90.000000
_cell_volume 6172.527432
_symmetry_space_group_name_H-M "C M M A"
_symmetry_group_IT_number 67
_symmetry_cell_setting 'orthorhombic'
loop_
_space_group_symop_operation_xyz
x,y,z
-x,1/2-y,z
x,-y,-z
-x,1/2+y,-z
-x,-y,-z
x,1/2+y,-z
-x,y,z
x,1/2-y,z
1/2+x,1/2+y,z
1/2-x,-y,z
1/2+x,1/2-y,-z
1/2-x,y,-z
1/2-x,1/2-y,-z
1/2+x,y,-z
1/2-x,1/2+y,z
1/2+x,-y,z
loop_
_atom_site_type_symbol
_atom_site_label
_atom_site_fract_x
_atom_site_fract_y
_atom_site_fract_z
Si Si1 0.828985 0.064877 0.563348
Si Si2 0.500000 0.570774 0.605170
Si Si3 0.087381 0.564154 0.611895
Si Si4 0.706066 0.563343 0.693960
Si Si5 0.123294 0.935985 0.745348
Si Si6 0.438075 0.064490 0.172212
Si Si7 0.000000 0.428055 0.265621
Si Si8 0.000000 0.935294 0.067908
O O1 0.831084 0.250000 0.560611
O O2 0.803090 0.020100 0.623010
O O3 0.812296 0.000000 0.500000
O O4 0.874598 0.000200 0.573925
O O5 0.500000 0.750000 0.587575
O O6 0.456466 0.495238 0.588497
O O7 0.500000 0.545621 0.678488
O O8 0.087207 0.750000 0.610016
O O9 0.097909 0.518490 0.682963
O O10 0.704374 0.750000 0.698957
O O11 0.750000 0.500000 0.711923
O O12 0.669175 0.488053 0.731467
O O13 0.120434 0.750000 0.751197
O O14 0.107030 0.019429 0.806814
O O15 0.444417 0.250000 0.180676
O O16 0.459721 0.022704 0.107984
O O17 0.462621 0.963862 0.221788
O O18 0.000000 0.250000 0.288204
O O19 0.000000 0.750000 0.063569
O O20 0.000000 0.000000 0.000000
#
# Coordination Sequence:
#
# PCOD9501181 Si02
#       8
#    16   8  16  16  16  16   8   8
#     4  10  21  37  55  73  94 124 161 200 248 302
#     4  12  21  29  45  67  94 123 154 195 242 291
#     4  10  20  33  49  70  96 123 159 203 248 298
#     4  10  21  36  54  76 103 130 159 199 252 308
#     4  10  19  31  50  74 100 129 164 203 250 305
#     4  10  19  31  47  70 100 135 175 214 253 294
#     4  11  19  27  41  66  95 125 162 201 240 282
#     4   9  20  34  48  71 105 148 188 224 257 285
#
# _framework density 16.848852000000001
#
# number of rings (size 3 to 8) (size 9 to 14) (size 15 to 20)
#    0.000    1.846    1.538    4.154    0.000    5.231 
#    0.000    1.923    0.000    0.000    0.000    0.000 
#    0.000    0.615    0.000    6.462    0.000    3.538 
#
# Total GULP energy -289981.016759 kJ/mol
# GULP energy per Si atom -5576.558015 kJ/mol
# Density = 1.681050 g / cm^3
# Si number density = 16.848852 Si / 1000 Ang^3
#
#
#
# Elastic Constant Matrix: (Units=GPa)
#
#
# Indices 1 2 3 4 5 6 
#
# 1 96.4436 23.9520 22.0576 0.0000 0.0000 0.0000
# 2 23.9520 48.2159 16.6415 0.0000 0.0000 0.0000
# 3 22.0576 16.6415 72.4938 0.0000 0.0000 0.0000
# 4 0.0000 0.0000 0.0000 22.7244 0.0000 0.0000
# 5 0.0000 0.0000 0.0000 0.0000 8.9704 0.0000
# 6 0.0000 0.0000 0.0000 0.0000 0.0000 25.0250
#
#
#
# Elastic Compliance Matrix: (Units=1/GPa)
#
#
# Indices 1 2 3 4 5 6 
#
# 1 0.012241 -0.005208 -0.002529 0.000000 0.000000 0.000000
# 2 -0.005208 0.024740 -0.004095 0.000000 0.000000 0.000000
# 3 -0.002529 -0.004095 0.015504 0.000000 0.000000 0.000000
# 4 0.000000 0.000000 0.000000 0.044006 0.000000 0.000000
# 5 0.000000 0.000000 0.000000 0.000000 0.111477 0.000000
# 6 0.000000 0.000000 0.000000 0.000000 0.000000 0.039960
#
#
# Mechanical properties :
#
#
# Convention : Reuss Voigt Hill
#
# Bulk Modulus (GPa) = 34.69613 38.05059 36.37336
# Shear Modulus (GPa) = 17.78110 21.64413 19.71261
#
# Velocity S-wave (km/s) = 3.25211 3.58803 3.42419
# Velocity P-wave (km/s) = 5.89397 6.30855 6.10478
#
# Compressibility (1/GPa) = 0.02882166
#
# Stress axis : x y z
#
# Youngs Moduli (GPa) = 81.69589 40.41977 64.50057
#
# Poissons Ratio (x) = 0.21050 0.16312
# Poissons Ratio (y) = 0.42546 0.26411
# Poissons Ratio (z) = 0.20660 0.16551
#
# Static dielectric constant tensor:
#      x y z
#    x 1.658550 0.000000 0.000000 
#    y 0.000000 1.562640 0.000000 
#    z 0.000000 0.000000 1.576910 
# 
# From -- ./inp_files/42959.got.cif
#   From: 2010.05.17/outbox.cif.g08.bks.cpg/sg67_22_cif.got.tgz:42959.got - 2010.06.03 18:28:57.
