data_PCOD9501136
_publ_section_title
;
Structure prediction by ZEFSAII (Michael W. Deem and Ramdas Pophale) SiO2 
 PCOD9501136
Probable space group: C M M A
;
_chemical_formula_sum "Si O2"
_cell_formula_units_Z 64
_cell_length_a 28.397032
_cell_length_b 11.512791
_cell_length_c 9.349209
_cell_angle_alpha 90.000000
_cell_angle_beta 90.000000
_cell_angle_gamma 90.000000
_cell_volume 3056.528432
_symmetry_space_group_name_H-M "C M M A"
_symmetry_group_IT_number 67
_symmetry_cell_setting 'orthorhombic'
loop_
_space_group_symop_operation_xyz
x,y,z
-x,1/2-y,z
x,-y,-z
-x,1/2+y,-z
-x,-y,-z
x,1/2+y,-z
-x,y,z
x,1/2-y,z
1/2+x,1/2+y,z
1/2-x,-y,z
1/2+x,1/2-y,-z
1/2-x,y,-z
1/2-x,1/2-y,-z
1/2+x,y,-z
1/2-x,1/2+y,z
1/2+x,-y,z
loop_
_atom_site_type_symbol
_atom_site_label
_atom_site_fract_x
_atom_site_fract_y
_atom_site_fract_z
Si Si1 0.577141 0.250000 0.346903
Si Si2 0.764055 0.250000 0.161964
Si Si3 0.446253 0.750000 0.320101
Si Si4 0.812967 0.750000 0.420985
Si Si5 0.699044 0.058418 0.668700
Si Si6 0.906233 0.001643 0.671518
O O1 0.554734 0.250000 0.505447
O O2 0.633179 0.250000 0.376057
O O3 0.569273 0.377766 0.276977
O O4 0.722234 0.250000 0.284349
O O5 0.795838 0.140031 0.194992
O O6 0.750000 0.250000 0.000000
O O7 0.500000 0.750000 0.271539
O O8 0.422356 0.626658 0.276738
O O9 0.805518 0.858976 0.528892
O O10 0.650347 0.991402 0.689574
O O11 0.750000 0.000000 0.662360
O O12 0.914684 0.000000 0.500000
#
# Coordination Sequence:
#
# PCOD9501136 Si02
#       6
#     8   8   8   8  16  16
#     4  10  19  30  49  78 109 134 185 240 282 332
#     4  11  26  35  44  73 114 155 196 242 296 346
#     4  10  19  33  50  72 116 160 182 222 297 363
#     4  11  20  34  54  78 106 144 201 245 276 336
#     4  11  21  33  58  78 101 148 202 247 284 334
#     4  10  19  31  49  81 109 136 192 239 283 341
#
# _framework density 20.938787000000001
#
# number of rings (size 3 to 8) (size 9 to 14) (size 15 to 20)
#    0.000    1.500    5.000    3.750    3.500    6.000 
#    0.000    0.000    0.000    0.000    0.000    0.000 
#    0.000    4.000    0.000   33.500    0.000    2.500 
#
# Total GULP energy -178277.731378 kJ/mol
# GULP energy per Si atom -5571.179106 kJ/mol
# Density = 2.089113 g / cm^3
# Si number density = 20.938787 Si / 1000 Ang^3
#
#
#
# Elastic Constant Matrix: (Units=GPa)
#
#
# Indices 1 2 3 4 5 6 
#
# 1 77.2684 42.8632 -2.6658 0.0000 0.0000 0.0000
# 2 42.8632 175.5856 11.9459 0.0000 0.0000 0.0000
# 3 -2.6658 11.9459 58.7394 0.0000 0.0000 0.0000
# 4 0.0000 0.0000 0.0000 -3.9178 0.0000 0.0000
# 5 0.0000 0.0000 0.0000 0.0000 5.6570 0.0000
# 6 0.0000 0.0000 0.0000 0.0000 0.0000 14.2460
#
#
#
# Elastic Compliance Matrix: (Units=1/GPa)
#
#
# Indices 1 2 3 4 5 6 
#
# 1 0.015090 -0.003783 0.001454 0.000000 0.000000 0.000000
# 2 -0.003783 0.006723 -0.001539 0.000000 0.000000 0.000000
# 3 0.001454 -0.001539 0.017403 0.000000 0.000000 0.000000
# 4 0.000000 0.000000 0.000000 -0.255243 0.000000 0.000000
# 5 0.000000 0.000000 0.000000 0.000000 0.176771 0.000000
# 6 0.000000 0.000000 0.000000 0.000000 0.000000 0.070195
#
#
# Mechanical properties :
#
#
# Convention : Reuss Voigt Hill
#
# Bulk Modulus (GPa) = 31.76420 46.20886 38.98653
# Shear Modulus (GPa) = 101.68827 20.49371 61.09099
#
# Velocity S-wave (km/s) = 6.97639 3.13188 5.40734
# Velocity P-wave (km/s) = 8.94965 5.93251 7.59246
#
# Compressibility (1/GPa) = 0.03148198
#
# Stress axis : x y z
#
# Youngs Moduli (GPa) = 66.26690 148.73511 57.46024
#
# Poissons Ratio (x) = 0.56263 -0.08356
# Poissons Ratio (y) = 0.25067 0.08843
# Poissons Ratio (z) = -0.09636 0.22890
#
# Static dielectric constant tensor:
#      x y z
#    x 1.746990 0.000000 0.000000 
#    y 0.000000 2.070110 0.000000 
#    z 0.000000 0.000000 1.694170 
# 
# From -- ./inp_files/14405.got.cif
#   From: 2010.05.17/outbox.cif.g08.bks.cpg/sg67_8_cif.got.tgz:14405.got - 2010.06.03 18:28:57.
