data_PCOD9501658
_publ_section_title
;
Structure prediction by ZEFSAII (Michael W. Deem and Ramdas Pophale) SiO2 
 PCOD9501658
Probable space group: C M M A
;
_chemical_formula_sum "Si O2"
_cell_formula_units_Z 80
_cell_length_a 11.596441
_cell_length_b 14.306363
_cell_length_c 19.803826
_cell_angle_alpha 90.000000
_cell_angle_beta 90.000000
_cell_angle_gamma 90.000000
_cell_volume 3285.512055
_symmetry_space_group_name_H-M "C M M A"
_symmetry_group_IT_number 67
_symmetry_cell_setting 'orthorhombic'
loop_
_space_group_symop_operation_xyz
x,y,z
-x,1/2-y,z
x,-y,-z
-x,1/2+y,-z
-x,-y,-z
x,1/2+y,-z
-x,y,z
x,1/2-y,z
1/2+x,1/2+y,z
1/2-x,-y,z
1/2+x,1/2-y,-z
1/2-x,y,-z
1/2-x,1/2-y,-z
1/2+x,y,-z
1/2-x,1/2+y,z
1/2+x,-y,z
loop_
_atom_site_type_symbol
_atom_site_label
_atom_site_fract_x
_atom_site_fract_y
_atom_site_fract_z
Si Si1 0.370596 0.895910 0.970638
Si Si2 0.000000 0.863801 0.812938
Si Si3 0.730157 0.863789 0.423682
Si Si4 0.371211 0.136216 0.298433
Si Si5 0.250860 0.137054 0.163284
Si Si6 0.000000 0.363780 0.345081
O O1 0.500000 0.855882 0.982474
O O2 0.341927 0.897004 0.891312
O O3 0.250000 0.852991 0.000000
O O4 0.373948 0.000000 0.000000
O O5 0.881212 0.892983 0.848179
O O6 0.000000 0.750000 0.813427
O O7 0.000000 0.891309 0.733714
O O8 0.729184 0.750000 0.425492
O O9 0.750000 0.894977 0.500000
O O10 0.829728 0.893035 0.372037
O O11 0.612020 0.892021 0.387270
O O12 0.500000 0.105342 0.283785
O O13 0.370262 0.250000 0.298469
O O14 0.286732 0.108108 0.238464
O O15 0.253860 0.250000 0.160748
O O16 0.000000 0.250000 0.342958
#
# Coordination Sequence:
#
# PCOD9501658 Si02
#       6
#    16   8  16  16  16   8
#     4  10  23  42  61  82 109 140 172 213 271 335
#     4   9  16  28  47  73 103 136 179 235 283 323
#     4   9  16  22  31  50  81 125 173 220 266 313
#     4   9  16  25  38  59  88 124 170 220 265 309
#     4  10  19  33  54  79 106 138 181 229 275 322
#     4   9  14  24  36  51  83 126 175 225 272 317
#
# _framework density 24.349323999999999
#
# number of rings (size 3 to 8) (size 9 to 14) (size 15 to 20)
#    0.000    2.600    2.000    0.600    2.800    1.600 
#    0.000    0.000    0.000    0.000    0.000    0.000 
#    0.000    0.000    0.000    3.600    0.000   43.600 
#
# Total GULP energy -223673.281761 kJ/mol
# GULP energy per Si atom -5591.832044 kJ/mol
# Density = 2.429390 g / cm^3
# Si number density = 24.349324 Si / 1000 Ang^3
#
#
#
# Elastic Constant Matrix: (Units=GPa)
#
#
# Indices 1 2 3 4 5 6 
#
# 1 184.2411 25.0575 31.6804 0.0000 0.0000 0.0000
# 2 25.0575 111.6052 23.1068 0.0000 0.0000 0.0000
# 3 31.6804 23.1068 110.1599 0.0000 0.0000 0.0000
# 4 0.0000 0.0000 0.0000 18.2865 0.0000 0.0000
# 5 0.0000 0.0000 0.0000 0.0000 37.2057 0.0000
# 6 0.0000 0.0000 0.0000 0.0000 0.0000 -4.9092
#
#
#
# Elastic Compliance Matrix: (Units=1/GPa)
#
#
# Indices 1 2 3 4 5 6 
#
# 1 0.005815 -0.001003 -0.001462 0.000000 0.000000 0.000000
# 2 -0.001003 0.009540 -0.001713 0.000000 0.000000 0.000000
# 3 -0.001462 -0.001713 0.009857 0.000000 0.000000 0.000000
# 4 0.000000 0.000000 0.000000 0.054685 0.000000 0.000000
# 5 0.000000 0.000000 0.000000 0.000000 0.026878 0.000000
# 6 0.000000 0.000000 0.000000 0.000000 0.000000 -0.203698
#
#
# Mechanical properties :
#
#
# Convention : Reuss Voigt Hill
#
# Bulk Modulus (GPa) = 59.32079 62.85504 61.08792
# Shear Modulus (GPa) = -60.27850 31.86071 -14.20890
#
# Velocity S-wave (km/s) = -4.98091 3.62122 -2.41829
# Velocity P-wave (km/s) = 2.94347 6.58439 4.16475
#
# Compressibility (1/GPa) = 0.01685750
#
# Stress axis : x y z
#
# Youngs Moduli (GPa) = 171.95474 104.82261 101.44643
#
# Poissons Ratio (x) = 0.10513 0.14832
# Poissons Ratio (y) = 0.17247 0.17374
# Poissons Ratio (z) = 0.25141 0.17952
#
# Static dielectric constant tensor:
#      x y z
#    x 1.934840 0.000000 0.000000 
#    y 0.000000 2.001770 0.000000 
#    z 0.000000 0.000000 1.879890 
# 
# From -- ./inp_files/32874.got.cif
#   From: 2010.05.17/outbox.cif.g08.bks.cpg/sg67_17_cif.got.tgz:32874.got - 2010.06.03 18:28:57.
