data_PCOD9501758
_publ_section_title
;
Structure prediction by ZEFSAII (Michael W. Deem and Ramdas Pophale) SiO2 
 PCOD9501758
Probable space group: C M M A
;
_chemical_formula_sum "Si O2"
_cell_formula_units_Z 104
_cell_length_a 8.315737
_cell_length_b 33.019144
_cell_length_c 20.758179
_cell_angle_alpha 90.000000
_cell_angle_beta 90.000000
_cell_angle_gamma 90.000000
_cell_volume 5699.750015
_symmetry_space_group_name_H-M "C M M A"
_symmetry_group_IT_number 67
_symmetry_cell_setting 'orthorhombic'
loop_
_space_group_symop_operation_xyz
x,y,z
-x,1/2-y,z
x,-y,-z
-x,1/2+y,-z
-x,-y,-z
x,1/2+y,-z
-x,y,z
x,1/2-y,z
1/2+x,1/2+y,z
1/2-x,-y,z
1/2+x,1/2-y,-z
1/2-x,y,-z
1/2-x,1/2-y,-z
1/2+x,y,-z
1/2-x,1/2+y,z
1/2+x,-y,z
loop_
_atom_site_type_symbol
_atom_site_label
_atom_site_fract_x
_atom_site_fract_y
_atom_site_fract_z
Si Si1 0.193272 0.794476 0.312827
Si Si2 0.193006 0.044368 0.573547
Si Si3 0.813499 0.403649 0.190657
Si Si4 0.692877 0.953744 0.068881
Si Si5 0.692898 0.885001 0.668065
Si Si6 0.310716 0.681693 0.833940
Si Si7 0.307801 0.250000 0.927293
O O1 0.255254 0.750000 0.334687
O O2 0.254238 0.838303 0.338652
O O3 0.217223 0.797820 0.235783
O O4 0.000000 0.794082 0.323744
O O5 0.250000 0.048877 0.500000
O O6 0.252460 0.081934 0.616780
O O7 0.000000 0.044325 0.574569
O O8 0.250000 0.000000 0.596771
O O9 0.747284 0.432226 0.134081
O O10 0.729760 0.401468 0.260231
O O11 0.794148 0.358464 0.163611
O O12 0.000000 0.413782 0.201504
O O13 0.500000 0.952074 0.069122
O O14 0.750000 0.000000 0.070486
O O15 0.750000 0.936109 0.000000
O O16 0.500000 0.882598 0.661875
O O17 0.500000 0.671178 0.836319
O O18 0.263529 0.711621 0.890103
O O19 0.500000 0.250000 0.923103
O O20 0.250000 0.250000 0.000000
#
# Coordination Sequence:
#
# PCOD9501758 Si02
#       7
#    16  16  16  16  16  16   8
#     4   8  13  26  51  76  98 127 166 208 252 304
#     4  10  20  35  55  80 109 145 185 220 268 324
#     4  10  21  35  52  78 107 136 171 216 268 318
#     4  10  21  36  54  73  96 128 170 213 261 318
#     4   9  19  33  52  80 108 137 177 222 265 319
#     4  10  19  34  53  73  98 131 169 211 260 316
#     4  12  24  36  50  70  98 132 173 220 269 322
#
# _framework density 18.246414000000001
#
# number of rings (size 3 to 8) (size 9 to 14) (size 15 to 20)
#    0.000    2.308    0.769    4.385    0.000    4.923 
#    0.000    4.615    0.000    0.462    0.000    0.000 
#    0.000    0.000    0.000    0.000    0.000    0.615 
#
# Total GULP energy -289772.819775 kJ/mol
# GULP energy per Si atom -5572.554226 kJ/mol
# Density = 1.820488 g / cm^3
# Si number density = 18.246414 Si / 1000 Ang^3
#
#
#
# Elastic Constant Matrix: (Units=GPa)
#
#
# Indices 1 2 3 4 5 6 
#
# 1 21.9340 6.9600 2.3979 0.0000 0.0000 0.0000
# 2 6.9600 132.1233 71.8391 0.0000 0.0000 0.0000
# 3 2.3979 71.8391 75.5099 0.0000 0.0000 0.0000
# 4 0.0000 0.0000 0.0000 26.0802 0.0000 0.0000
# 5 0.0000 0.0000 0.0000 0.0000 18.9791 0.0000
# 6 0.0000 0.0000 0.0000 0.0000 0.0000 11.2322
#
#
#
# Elastic Compliance Matrix: (Units=1/GPa)
#
#
# Indices 1 2 3 4 5 6 
#
# 1 0.046480 -0.003410 0.001768 0.000000 0.000000 0.000000
# 2 -0.003410 0.015930 -0.015047 0.000000 0.000000 0.000000
# 3 0.001768 -0.015047 0.027503 0.000000 0.000000 0.000000
# 4 0.000000 0.000000 0.000000 0.038343 0.000000 0.000000
# 5 0.000000 0.000000 0.000000 0.000000 0.052690 0.000000
# 6 0.000000 0.000000 0.000000 0.000000 0.000000 0.089030
#
#
# Mechanical properties :
#
#
# Convention : Reuss Voigt Hill
#
# Bulk Modulus (GPa) = 17.68819 43.55121 30.61970
# Shear Modulus (GPa) = 15.51838 21.14963 18.33401
#
# Velocity S-wave (km/s) = 2.91948 3.40827 3.17330
# Velocity P-wave (km/s) = 4.59125 6.27762 5.49946
#
# Compressibility (1/GPa) = 0.05653490
#
# Stress axis : x y z
#
# Youngs Moduli (GPa) = 21.51459 62.77509 36.35987
#
# Poissons Ratio (x) = 0.21405 -0.06429
# Poissons Ratio (y) = 0.07336 0.54711
# Poissons Ratio (z) = -0.03804 0.94459
#
# Static dielectric constant tensor:
#      x y z
#    x 1.641350 0.000000 0.000000 
#    y 0.000000 1.658860 0.000000 
#    z 0.000000 0.000000 1.609650 
# 
# From -- ./inp_files/41136.got.cif
#   From: 2010.05.17/outbox.cif.g08.bks.cpg/sg67_21_cif.got.tgz:41136.got - 2010.06.03 18:28:57.
