data_PCOD9501722
_publ_section_title
;
Structure prediction by ZEFSAII (Michael W. Deem and Ramdas Pophale) SiO2 
 PCOD9501722
Probable space group: C M M A
;
_chemical_formula_sum "Si O2"
_cell_formula_units_Z 64
_cell_length_a 14.579387
_cell_length_b 11.368767
_cell_length_c 17.159518
_cell_angle_alpha 90.000000
_cell_angle_beta 90.000000
_cell_angle_gamma 90.000000
_cell_volume 2844.184168
_symmetry_space_group_name_H-M "C M M A"
_symmetry_group_IT_number 67
_symmetry_cell_setting 'orthorhombic'
loop_
_space_group_symop_operation_xyz
x,y,z
-x,1/2-y,z
x,-y,-z
-x,1/2+y,-z
-x,-y,-z
x,1/2+y,-z
-x,y,z
x,1/2-y,z
1/2+x,1/2+y,z
1/2-x,-y,z
1/2+x,1/2-y,-z
1/2-x,y,-z
1/2-x,1/2-y,-z
1/2+x,y,-z
1/2-x,1/2+y,z
1/2+x,-y,z
loop_
_atom_site_type_symbol
_atom_site_label
_atom_site_fract_x
_atom_site_fract_y
_atom_site_fract_z
Si Si1 0.304296 0.621794 0.636741
Si Si2 0.000000 0.389971 0.257360
Si Si3 0.358396 0.126714 0.024383
Si Si4 0.155512 0.947068 0.189998
Si Si5 0.000000 0.042050 0.587847
O O1 0.262397 0.750000 0.615729
O O2 0.250000 0.500000 0.616783
O O3 0.319413 0.618226 0.730012
O O4 0.405969 0.611880 0.601865
O O5 0.087015 0.449400 0.215325
O O6 0.000000 0.250000 0.254918
O O7 0.000000 0.438875 0.346398
O O8 0.394334 0.250000 0.990470
O O9 0.376912 0.127077 0.117066
O O10 0.250000 0.126743 0.000000
O O11 0.395320 0.000000 0.000000
O O12 0.250000 0.000000 0.159862
O O13 0.000000 0.000000 0.500000
#
# Coordination Sequence:
#
# PCOD9501722 Si02
#       5
#    16   8  16  16   8
#     4  10  22  40  64  96 130 171 220 266 320 386
#     4  10  24  41  65 100 131 165 221 277 328 392
#     4  10  19  33  56  89 121 161 212 261 320 383
#     4  10  20  38  62  90 125 170 215 265 322 385
#     4  10  23  43  66  94 132 175 216 265 330 394
#
# _framework density 22.502058000000002
#
# number of rings (size 3 to 8) (size 9 to 14) (size 15 to 20)
#    0.000    2.000    2.500    1.125    0.000   12.500 
#    0.000    3.750    0.000    0.000    0.000    0.000 
#    0.000    0.000    0.000    0.000    0.000    0.000 
#
# Total GULP energy -178446.309185 kJ/mol
# GULP energy per Si atom -5576.447162 kJ/mol
# Density = 2.245084 g / cm^3
# Si number density = 22.502058 Si / 1000 Ang^3
#
#
#
# Elastic Constant Matrix: (Units=GPa)
#
#
# Indices 1 2 3 4 5 6 
#
# 1 98.6981 56.0626 12.7685 0.0000 0.0000 0.0000
# 2 56.0626 257.7780 27.7578 0.0000 0.0000 0.0000
# 3 12.7685 27.7578 91.6717 0.0000 0.0000 0.0000
# 4 0.0000 0.0000 0.0000 -27.5591 0.0000 0.0000
# 5 0.0000 0.0000 0.0000 0.0000 13.9309 0.0000
# 6 0.0000 0.0000 0.0000 0.0000 0.0000 33.6631
#
#
#
# Elastic Compliance Matrix: (Units=1/GPa)
#
#
# Indices 1 2 3 4 5 6 
#
# 1 0.011629 -0.002434 -0.000883 0.000000 0.000000 0.000000
# 2 -0.002434 0.004520 -0.001029 0.000000 0.000000 0.000000
# 3 -0.000883 -0.001029 0.011343 0.000000 0.000000 0.000000
# 4 0.000000 0.000000 0.000000 -0.036286 0.000000 0.000000
# 5 0.000000 0.000000 0.000000 0.000000 0.071783 0.000000
# 6 0.000000 0.000000 0.000000 0.000000 0.000000 0.029706
#
#
# Mechanical properties :
#
#
# Convention : Reuss Voigt Hill
#
# Bulk Modulus (GPa) = 53.19430 71.25842 62.22636
# Shear Modulus (GPa) = 46.44535 27.44424 36.94480
#
# Velocity S-wave (km/s) = 4.54811 3.49611 4.05636
# Velocity P-wave (km/s) = 7.16041 6.93061 7.04645
#
# Compressibility (1/GPa) = 0.01879901
#
# Stress axis : x y z
#
# Youngs Moduli (GPa) = 85.99443 221.26254 88.15890
#
# Poissons Ratio (x) = 0.53855 0.07782
# Poissons Ratio (y) = 0.20931 0.09076
# Poissons Ratio (z) = 0.07591 0.22778
#
# Static dielectric constant tensor:
#      x y z
#    x 1.846300 0.000000 0.000000 
#    y 0.000000 1.906920 0.000000 
#    z 0.000000 0.000000 1.823840 
# 
# From -- ./inp_files/32690.got.cif
#   From: 2010.05.17/outbox.cif.g08.bks.cpg/sg67_17_cif.got.tgz:32690.got - 2010.06.03 18:28:57.
