data_PCOD9501425
_publ_section_title
;
Structure prediction by ZEFSAII (Michael W. Deem and Ramdas Pophale) SiO2 
 PCOD9501425
Probable space group: C M M A
;
_chemical_formula_sum "Si O2"
_cell_formula_units_Z 120
_cell_length_a 8.493790
_cell_length_b 27.317366
_cell_length_c 28.853240
_cell_angle_alpha 90.000000
_cell_angle_beta 90.000000
_cell_angle_gamma 90.000000
_cell_volume 6694.758710
_symmetry_space_group_name_H-M "C M M A"
_symmetry_group_IT_number 67
_symmetry_cell_setting 'orthorhombic'
loop_
_space_group_symop_operation_xyz
x,y,z
-x,1/2-y,z
x,-y,-z
-x,1/2+y,-z
-x,-y,-z
x,1/2+y,-z
-x,y,z
x,1/2-y,z
1/2+x,1/2+y,z
1/2-x,-y,z
1/2+x,1/2-y,-z
1/2-x,y,-z
1/2-x,1/2-y,-z
1/2+x,y,-z
1/2-x,1/2+y,z
1/2+x,-y,z
loop_
_atom_site_type_symbol
_atom_site_label
_atom_site_fract_x
_atom_site_fract_y
_atom_site_fract_z
Si Si1 0.810540 0.357553 0.052810
Si Si2 0.688874 0.054437 0.116023
Si Si3 0.810227 0.693092 0.548739
Si Si4 0.190322 0.305081 0.255978
Si Si5 0.188221 0.552971 0.312037
Si Si6 0.310310 0.850017 0.354007
Si Si7 0.189694 0.902972 0.214258
Si Si8 0.810171 0.250000 0.052935
O O1 0.745020 0.403296 0.081201
O O2 0.761352 0.303411 0.072246
O O3 0.000000 0.359571 0.052992
O O4 0.750000 0.360216 0.000000
O O5 0.500000 0.052980 0.115804
O O6 0.744548 0.071485 0.167194
O O7 0.750000 0.000000 0.105177
O O8 0.761811 0.750000 0.550509
O O9 0.750000 0.672077 0.500000
O O10 0.753514 0.668712 0.596298
O O11 0.000000 0.691308 0.548282
O O12 0.241545 0.250000 0.244401
O O13 0.240905 0.318866 0.308712
O O14 0.251546 0.347699 0.222438
O O15 0.000000 0.306257 0.255045
O O16 0.250000 0.500000 0.324659
O O17 0.255556 0.595173 0.344482
O O18 0.241031 0.566826 0.259687
O O19 0.000000 0.554095 0.313058
O O20 0.500000 0.847591 0.354401
O O21 0.000000 0.902094 0.213597
O O22 0.000000 0.250000 0.052843
O O23 0.750000 0.250000 0.000000
#
# Coordination Sequence:
#
# PCOD9501425 Si02
#       8
#    16  16  16  16  16  16  16   8
#     4  10  20  37  60  86 113 142 176 217 261 309
#     4  11  23  39  57  79 107 141 179 219 264 313
#     4   9  17  29  46  69  98 131 165 201 242 292
#     4   9  17  30  50  75 102 134 172 211 251 300
#     4  10  19  32  51  74  97 125 163 208 253 300
#     4   9  17  30  48  70  98 131 166 205 250 297
#     4   9  20  36  52  73 103 136 171 209 255 306
#     4   8  16  32  56  82 108 136 168 208 252 298
#
# _framework density 17.924468000000001
#
# number of rings (size 3 to 8) (size 9 to 14) (size 15 to 20)
#    0.000    2.533    0.000    2.000    0.000    4.800 
#    1.200    1.333    0.000    2.800    0.000    2.800 
#    0.000    0.000    0.000    0.000    0.000    0.000 
#
# Total GULP energy -334537.443166 kJ/mol
# GULP energy per Si atom -5575.624053 kJ/mol
# Density = 1.788367 g / cm^3
# Si number density = 17.924468 Si / 1000 Ang^3
#
#
#
# Elastic Constant Matrix: (Units=GPa)
#
#
# Indices 1 2 3 4 5 6 
#
# 1 14.9595 18.9080 15.5649 0.0000 0.0000 0.0000
# 2 18.9080 150.3404 56.1492 0.0000 0.0000 0.0000
# 3 15.5649 56.1492 79.5316 0.0000 0.0000 0.0000
# 4 0.0000 0.0000 0.0000 23.6255 0.0000 0.0000
# 5 0.0000 0.0000 0.0000 0.0000 22.9474 0.0000
# 6 0.0000 0.0000 0.0000 0.0000 0.0000 24.9905
#
#
#
# Elastic Compliance Matrix: (Units=1/GPa)
#
#
# Indices 1 2 3 4 5 6 
#
# 1 0.088130 -0.006305 -0.012797 0.000000 0.000000 0.000000
# 2 -0.006305 0.009485 -0.005462 0.000000 0.000000 0.000000
# 3 -0.012797 -0.005462 0.018934 0.000000 0.000000 0.000000
# 4 0.000000 0.000000 0.000000 0.042327 0.000000 0.000000
# 5 0.000000 0.000000 0.000000 0.000000 0.043578 0.000000
# 6 0.000000 0.000000 0.000000 0.000000 0.000000 0.040015
#
#
# Mechanical properties :
#
#
# Convention : Reuss Voigt Hill
#
# Bulk Modulus (GPa) = 14.83190 47.34174 31.08682
# Shear Modulus (GPa) = 15.91999 24.59330 20.25664
#
# Velocity S-wave (km/s) = 2.98345 3.70814 3.36536
# Velocity P-wave (km/s) = 4.49006 6.69349 5.69928
#
# Compressibility (1/GPa) = 0.06742223
#
# Stress axis : x y z
#
# Youngs Moduli (GPa) = 11.34683 105.43498 52.81418
#
# Poissons Ratio (x) = 0.66473 0.67584
# Poissons Ratio (y) = 0.07154 0.28848
# Poissons Ratio (z) = 0.14520 0.57591
#
# Static dielectric constant tensor:
#      x y z
#    x 1.613660 0.000000 0.000000 
#    y 0.000000 1.607550 0.000000 
#    z 0.000000 0.000000 1.611270 
# 
# From -- ./inp_files/43904.got.cif
#   From: 2010.05.17/outbox.cif.g08.bks.cpg/sg67_22_cif.got.tgz:43904.got - 2010.06.03 18:28:57.
