data_PCOD9501804
_publ_section_title
;
Structure prediction by ZEFSAII (Michael W. Deem and Ramdas Pophale) SiO2 
 PCOD9501804
Probable space group: C M M A
;
_chemical_formula_sum "Si O2"
_cell_formula_units_Z 112
_cell_length_a 17.571183
_cell_length_b 28.356298
_cell_length_c 11.790804
_cell_angle_alpha 90.000000
_cell_angle_beta 90.000000
_cell_angle_gamma 90.000000
_cell_volume 5874.811735
_symmetry_space_group_name_H-M "C M M A"
_symmetry_group_IT_number 67
_symmetry_cell_setting 'orthorhombic'
loop_
_space_group_symop_operation_xyz
x,y,z
-x,1/2-y,z
x,-y,-z
-x,1/2+y,-z
-x,-y,-z
x,1/2+y,-z
-x,y,z
x,1/2-y,z
1/2+x,1/2+y,z
1/2-x,-y,z
1/2+x,1/2-y,-z
1/2-x,y,-z
1/2-x,1/2-y,-z
1/2+x,y,-z
1/2-x,1/2+y,z
1/2+x,-y,z
loop_
_atom_site_type_symbol
_atom_site_label
_atom_site_fract_x
_atom_site_fract_y
_atom_site_fract_z
Si Si1 0.407045 0.386850 0.630661
Si Si2 0.092589 0.696900 0.487313
Si Si3 0.174121 0.973466 0.204362
Si Si4 0.409042 0.565154 0.133795
Si Si5 0.173403 0.379766 0.937633
Si Si6 0.085879 0.548696 0.431463
Si Si7 0.908570 0.306650 0.770581
O O1 0.500000 0.389726 0.631191
O O2 0.384416 0.334431 0.594675
O O3 0.383410 0.409497 0.748773
O O4 0.378730 0.416371 0.522790
O O5 0.120217 0.750000 0.499546
O O6 0.112941 0.680176 0.359866
O O7 0.000000 0.697512 0.486707
O O8 0.193221 0.926505 0.135102
O O9 0.127736 0.958682 0.314682
O O10 0.250000 0.000000 0.240339
O O11 0.127180 0.012915 0.134041
O O12 0.500000 0.560231 0.134853
O O13 0.383386 0.598875 0.032108
O O14 0.135178 0.339829 0.859390
O O15 0.250000 0.362840 0.000000
O O16 0.081193 0.500000 0.500000
O O17 0.000000 0.565112 0.405513
O O18 0.894639 0.250000 0.784235
O O19 0.000000 0.313436 0.782663
#
# Coordination Sequence:
#
# PCOD9501804 Si02
#       7
#    16  16  16  16  16  16  16
#     4   9  17  32  53  82 116 146 187 242 291 348
#     4   8  14  28  55  88 117 144 178 234 300 349
#     4  12  24  39  56  81 119 158 199 251 295 349
#     4  11  23  39  59  82 114 159 203 243 291 352
#     4  12  25  40  58  82 119 161 200 249 302 355
#     4  10  19  34  56  81 109 145 192 245 297 351
#     4   9  19  38  65  94 117 145 199 256 296 353
#
# _framework density 19.064440999999999
#
# number of rings (size 3 to 8) (size 9 to 14) (size 15 to 20)
#    0.000    1.857    2.857    3.000    0.000    4.571 
#    0.000    0.714    0.000    2.571    0.000    2.000 
#    0.000    0.000    0.000    0.000    0.000    0.000 
#
# Total GULP energy -312410.198468 kJ/mol
# GULP energy per Si atom -5578.753544 kJ/mol
# Density = 1.902105 g / cm^3
# Si number density = 19.064441 Si / 1000 Ang^3
#
#
#
# Elastic Constant Matrix: (Units=GPa)
#
#
# Indices 1 2 3 4 5 6 
#
# 1 19.1992 -11.2428 -8.6390 0.0000 0.0000 0.0000
# 2 -11.2428 60.1102 11.3633 0.0000 0.0000 0.0000
# 3 -8.6390 11.3633 56.8820 0.0000 0.0000 0.0000
# 4 0.0000 0.0000 0.0000 33.3859 0.0000 0.0000
# 5 0.0000 0.0000 0.0000 0.0000 7.4567 0.0000
# 6 0.0000 0.0000 0.0000 0.0000 0.0000 34.2693
#
#
#
# Elastic Compliance Matrix: (Units=1/GPa)
#
#
# Indices 1 2 3 4 5 6 
#
# 1 0.061270 0.010081 0.007292 0.000000 0.000000 0.000000
# 2 0.010081 0.018948 -0.002254 0.000000 0.000000 0.000000
# 3 0.007292 -0.002254 0.019138 0.000000 0.000000 0.000000
# 4 0.000000 0.000000 0.000000 0.029953 0.000000 0.000000
# 5 0.000000 0.000000 0.000000 0.000000 0.134108 0.000000
# 6 0.000000 0.000000 0.000000 0.000000 0.000000 0.029181
#
#
# Mechanical properties :
#
#
# Convention : Reuss Voigt Hill
#
# Bulk Modulus (GPa) = 7.71643 13.23936 10.47790
# Shear Modulus (GPa) = 16.36354 24.66969 20.51662
#
# Velocity S-wave (km/s) = 2.93290 3.60115 3.28406
# Velocity P-wave (km/s) = 3.94025 4.92449 4.45961
#
# Compressibility (1/GPa) = 0.12959358
#
# Stress axis : x y z
#
# Youngs Moduli (GPa) = 16.32116 52.77656 52.25220
#
# Poissons Ratio (x) = -0.53206 -0.38100
# Poissons Ratio (y) = -0.16454 0.11778
# Poissons Ratio (z) = -0.11901 0.11896
#
# Static dielectric constant tensor:
#      x y z
#    x 1.669210 0.000000 0.000000 
#    y 0.000000 1.706590 0.000000 
#    z 0.000000 0.000000 1.658980 
# 
# From -- ./inp_files/18654.got.cif
#   From: 2010.05.17/outbox.cif.g08.bks.cpg/sg67_10_cif.got.tgz:18654.got - 2010.06.03 18:28:57.
