data_PCOD9501274
_publ_section_title
;
Structure prediction by ZEFSAII (Michael W. Deem and Ramdas Pophale) SiO2 
 PCOD9501274
Probable space group: C M M A
;
_chemical_formula_sum "Si O2"
_cell_formula_units_Z 80
_cell_length_a 14.776498
_cell_length_b 18.501297
_cell_length_c 12.709493
_cell_angle_alpha 90.000000
_cell_angle_beta 90.000000
_cell_angle_gamma 90.000000
_cell_volume 3474.576840
_symmetry_space_group_name_H-M "C M M A"
_symmetry_group_IT_number 67
_symmetry_cell_setting 'orthorhombic'
loop_
_space_group_symop_operation_xyz
x,y,z
-x,1/2-y,z
x,-y,-z
-x,1/2+y,-z
-x,-y,-z
x,1/2+y,-z
-x,y,z
x,1/2-y,z
1/2+x,1/2+y,z
1/2-x,-y,z
1/2+x,1/2-y,-z
1/2-x,y,-z
1/2-x,1/2-y,-z
1/2+x,y,-z
1/2-x,1/2+y,z
1/2+x,-y,z
loop_
_atom_site_type_symbol
_atom_site_label
_atom_site_fract_x
_atom_site_fract_y
_atom_site_fract_z
Si Si1 0.847647 0.167220 0.054651
Si Si2 0.388973 0.059337 0.340070
Si Si3 0.102415 0.830758 0.169210
Si Si4 0.610182 0.670500 0.483943
Si Si5 0.389993 0.899798 0.273473
O O1 0.871783 0.250000 0.083457
O O2 0.855552 0.119341 0.157638
O O3 0.750000 0.166189 0.000000
O O4 0.904155 0.145882 0.951881
O O5 0.500000 0.055593 0.343336
O O6 0.356037 0.109210 0.243449
O O7 0.360572 0.103347 0.443734
O O8 0.360543 0.977690 0.317987
O O9 0.144140 0.750000 0.173489
O O10 0.000000 0.823290 0.209474
O O11 0.500000 0.669982 0.487250
O O12 0.639235 0.750000 0.522241
O O13 0.636587 0.657402 0.363247
O O14 0.500000 0.899450 0.266327
#
# Coordination Sequence:
#
# PCOD9501274 Si02
#       5
#    16  16  16  16  16
#     4  10  21  36  52  71  99 135 176 222 267 312
#     4   9  17  29  47  75 108 136 167 212 261 307
#     4   9  17  31  52  74  97 131 175 218 260 312
#     4   9  16  27  47  76 108 140 174 212 256 309
#     4  10  19  31  50  77 109 142 176 216 263 314
#
# _framework density 23.024386
#
# number of rings (size 3 to 8) (size 9 to 14) (size 15 to 20)
#    0.000    2.600    0.000    2.400    0.000    7.600 
#    0.000    5.000    0.000    1.200    0.000    8.400 
#    0.000    0.000    0.000    0.000    0.000    0.800 
#
# Total GULP energy -223265.538129 kJ/mol
# GULP energy per Si atom -5581.638453 kJ/mol
# Density = 2.297198 g / cm^3
# Si number density = 23.024386 Si / 1000 Ang^3
#
#
#
# Elastic Constant Matrix: (Units=GPa)
#
#
# Indices 1 2 3 4 5 6 
#
# 1 39.4306 -10.2177 -2.9821 0.0000 0.0000 0.0000
# 2 -10.2177 113.5015 75.4462 0.0000 0.0000 0.0000
# 3 -2.9821 75.4462 144.7982 0.0000 0.0000 0.0000
# 4 0.0000 0.0000 0.0000 132.3964 0.0000 0.0000
# 5 0.0000 0.0000 0.0000 0.0000 -3.0626 0.0000
# 6 0.0000 0.0000 0.0000 0.0000 0.0000 -4.2964
#
#
#
# Elastic Compliance Matrix: (Units=1/GPa)
#
#
# Indices 1 2 3 4 5 6 
#
# 1 0.026071 0.003044 -0.001049 0.000000 0.000000 0.000000
# 2 0.003044 0.013834 -0.007146 0.000000 0.000000 0.000000
# 3 -0.001049 -0.007146 0.010608 0.000000 0.000000 0.000000
# 4 0.000000 0.000000 0.000000 0.007553 0.000000 0.000000
# 5 0.000000 0.000000 0.000000 0.000000 -0.326524 0.000000
# 6 0.000000 0.000000 0.000000 0.000000 0.000000 -0.232755
#
#
# Mechanical properties :
#
#
# Convention : Reuss Voigt Hill
#
# Bulk Modulus (GPa) = 24.86844 46.91367 35.89106
# Shear Modulus (GPa) = -10.47101 40.70641 15.11770
#
# Velocity S-wave (km/s) = -2.13487 4.20928 2.56519
# Velocity P-wave (km/s) = 2.17887 6.63656 4.93920
#
# Compressibility (1/GPa) = 0.04021160
#
# Stress axis : x y z
#
# Youngs Moduli (GPa) = 38.35744 72.28406 94.27104
#
# Poissons Ratio (x) = -0.22007 0.09893
# Poissons Ratio (y) = -0.11678 0.67362
# Poissons Ratio (z) = 0.04025 0.51651
#
# Static dielectric constant tensor:
#      x y z
#    x -5.539910 0.000000 0.000000 
#    y 0.000000 1.850800 0.000000 
#    z 0.000000 0.000000 1.822380 
# 
# From -- ./inp_files/28385.got.cif
#   From: 2010.05.17/outbox.cif.g08.bks.cpg/sg67_15_cif.got.tgz:28385.got - 2010.06.03 18:28:57.
