data_PCOD9501213
_publ_section_title
;
Structure prediction by ZEFSAII (Michael W. Deem and Ramdas Pophale) SiO2 
 PCOD9501213
Probable space group: C M M A
;
_chemical_formula_sum "Si O2"
_cell_formula_units_Z 88
_cell_length_a 29.490065
_cell_length_b 14.093302
_cell_length_c 12.540934
_cell_angle_alpha 90.000000
_cell_angle_beta 90.000000
_cell_angle_gamma 90.000000
_cell_volume 5212.167578
_symmetry_space_group_name_H-M "C M M A"
_symmetry_group_IT_number 67
_symmetry_cell_setting 'orthorhombic'
loop_
_space_group_symop_operation_xyz
x,y,z
-x,1/2-y,z
x,-y,-z
-x,1/2+y,-z
-x,-y,-z
x,1/2+y,-z
-x,y,z
x,1/2-y,z
1/2+x,1/2+y,z
1/2-x,-y,z
1/2+x,1/2-y,-z
1/2-x,y,-z
1/2-x,1/2-y,-z
1/2+x,y,-z
1/2-x,1/2+y,z
1/2+x,-y,z
loop_
_atom_site_type_symbol
_atom_site_label
_atom_site_fract_x
_atom_site_fract_y
_atom_site_fract_z
Si Si1 0.908821 0.527516 0.163889
Si Si2 0.326249 0.507782 0.302758
Si Si3 0.553928 0.640583 0.633067
Si Si4 0.753695 0.362294 0.627388
Si Si5 0.891825 0.500000 0.500000
Si Si6 0.053716 0.138434 0.035045
O O1 0.857216 0.504554 0.198375
O O2 0.931440 0.581508 0.263038
O O3 0.933486 0.428871 0.134058
O O4 0.917045 0.595984 0.062683
O O5 0.288113 0.588952 0.310438
O O6 0.299178 0.411266 0.329389
O O7 0.360474 0.525819 0.400239
O O8 0.500000 0.638006 0.622395
O O9 0.568430 0.750000 0.643179
O O10 0.577610 0.588462 0.534642
O O11 0.753875 0.250000 0.640201
O O12 0.750000 0.383671 0.500000
O O13 0.062088 0.250000 0.051630
O O14 0.000000 0.126663 0.010315
#
# Coordination Sequence:
#
# PCOD9501213 Si02
#       6
#    16  16  16  16   8  16
#     4  10  20  33  56  79 106 136 174 226 266 313
#     4  10  19  34  50  77 108 131 173 216 258 313
#     4  10  20  33  49  71 102 142 181 214 257 314
#     4  10  19  33  55  75 103 141 174 214 264 313
#     4  10  19  31  48  72 106 136 170 217 255 302
#     4  10  20  36  57  81 108 139 178 223 272 318
#
# _framework density 16.883572000000001
#
# number of rings (size 3 to 8) (size 9 to 14) (size 15 to 20)
#    0.000    2.000    1.818    3.545    0.000    6.545 
#    0.000    2.727    0.000   18.545    0.000   10.182 
#    0.000    0.000    0.000    0.000    0.000    0.000 
#
# Total GULP energy -245317.055113 kJ/mol
# GULP energy per Si atom -5575.387616 kJ/mol
# Density = 1.684514 g / cm^3
# Si number density = 16.883572 Si / 1000 Ang^3
#
#
#
# Elastic Constant Matrix: (Units=GPa)
#
#
# Indices 1 2 3 4 5 6 
#
# 1 88.6968 58.8852 48.2873 0.0000 0.0000 0.0000
# 2 58.8852 158.6731 53.4309 0.0000 0.0000 0.0000
# 3 48.2873 53.4309 59.0193 0.0000 0.0000 0.0000
# 4 0.0000 0.0000 0.0000 21.5028 0.0000 0.0000
# 5 0.0000 0.0000 0.0000 0.0000 35.8689 0.0000
# 6 0.0000 0.0000 0.0000 0.0000 0.0000 -89.6835
#
#
#
# Elastic Compliance Matrix: (Units=1/GPa)
#
#
# Indices 1 2 3 4 5 6 
#
# 1 0.021230 -0.002920 -0.014726 0.000000 0.000000 0.000000
# 2 -0.002920 0.009468 -0.006182 0.000000 0.000000 0.000000
# 3 -0.014726 -0.006182 0.034589 0.000000 0.000000 0.000000
# 4 0.000000 0.000000 0.000000 0.046506 0.000000 0.000000
# 5 0.000000 0.000000 0.000000 0.000000 0.027879 0.000000
# 6 0.000000 0.000000 0.000000 0.000000 0.000000 -0.011150
#
#
# Mechanical properties :
#
#
# Convention : Reuss Voigt Hill
#
# Bulk Modulus (GPa) = 56.72177 69.73289 63.22733
# Shear Modulus (GPa) = 27.46443 3.25670 15.36057
#
# Velocity S-wave (km/s) = 4.03761 1.39036 3.01955
# Velocity P-wave (km/s) = 7.44346 6.63094 7.04892
#
# Compressibility (1/GPa) = 0.01762991
#
# Stress axis : x y z
#
# Youngs Moduli (GPa) = 47.10361 105.62305 28.91109
#
# Poissons Ratio (x) = 0.30840 0.42575
# Poissons Ratio (y) = 0.13753 0.17874
# Poissons Ratio (z) = 0.69365 0.65299
#
# Static dielectric constant tensor:
#      x y z
#    x 1.574070 0.000000 0.000000 
#    y 0.000000 1.568150 0.000000 
#    z 0.000000 0.000000 1.578200 
# 
# From -- ./inp_files/22836.got.cif
#   From: 2010.05.17/outbox.cif.g08.bks.cpg/sg67_12_cif.got.tgz:22836.got - 2010.06.03 18:28:57.
