data_PCOD9501039
_publ_section_title
;
Structure prediction by ZEFSAII (Michael W. Deem and Ramdas Pophale) SiO2 
 PCOD9501039
Probable space group: C M M A
;
_chemical_formula_sum "Si O2"
_cell_formula_units_Z 96
_cell_length_a 8.971324
_cell_length_b 27.567626
_cell_length_c 24.415389
_cell_angle_alpha 90.000000
_cell_angle_beta 90.000000
_cell_angle_gamma 90.000000
_cell_volume 6038.367734
_symmetry_space_group_name_H-M "C M M A"
_symmetry_group_IT_number 67
_symmetry_cell_setting 'orthorhombic'
loop_
_space_group_symop_operation_xyz
x,y,z
-x,1/2-y,z
x,-y,-z
-x,1/2+y,-z
-x,-y,-z
x,1/2+y,-z
-x,y,z
x,1/2-y,z
1/2+x,1/2+y,z
1/2-x,-y,z
1/2+x,1/2-y,-z
1/2-x,y,-z
1/2-x,1/2-y,-z
1/2+x,y,-z
1/2-x,1/2+y,z
1/2+x,-y,z
loop_
_atom_site_type_symbol
_atom_site_label
_atom_site_fract_x
_atom_site_fract_y
_atom_site_fract_z
Si Si1 0.821653 0.805753 0.887226
Si Si2 0.679000 0.102477 0.057101
Si Si3 0.325085 0.691530 0.330295
Si Si4 0.821203 0.847482 0.221085
Si Si5 0.677825 0.550752 0.830790
Si Si6 0.172054 0.809039 0.443846
O O1 0.791278 0.750000 0.902350
O O2 0.742884 0.844744 0.926372
O O3 0.757899 0.816266 0.826492
O O4 0.000000 0.813263 0.887604
O O5 0.500000 0.104708 0.053599
O O6 0.720358 0.067333 0.107590
O O7 0.750000 0.086882 0.000000
O O8 0.500000 0.679901 0.326803
O O9 0.310158 0.750000 0.326459
O O10 0.236440 0.668395 0.280061
O O11 0.258918 0.676334 0.389024
O O12 0.783710 0.903520 0.207542
O O13 0.000000 0.841728 0.216517
O O14 0.500000 0.545599 0.829826
O O15 0.750000 0.500000 0.815772
O O16 0.173908 0.750000 0.444658
O O17 0.250000 0.825277 0.500000
O O18 0.000000 0.824238 0.441805
#
# Coordination Sequence:
#
# PCOD9501039 Si02
#       6
#    16  16  16  16  16  16
#     4  10  20  33  49  69  93 123 156 188 225 268
#     4  10  21  36  52  72  95 119 150 185 223 270
#     4  10  19  29  43  66  95 128 165 199 231 270
#     4  10  20  33  48  69  95 121 153 191 231 276
#     4   9  20  36  53  72  92 116 146 183 230 281
#     4   9  16  26  40  59  87 125 165 202 237 271
#
# _framework density 15.898336
#
# number of rings (size 3 to 8) (size 9 to 14) (size 15 to 20)
#    0.000    2.333    0.000    4.000    0.000   11.000 
#    0.000    1.667    0.000    0.000    0.000    0.000 
#    0.000    0.667    0.000    7.000    0.000    4.167 
#
# Total GULP energy -267791.631180 kJ/mol
# GULP energy per Si atom -5578.992316 kJ/mol
# Density = 1.586215 g / cm^3
# Si number density = 15.898336 Si / 1000 Ang^3
#
#
#
# Elastic Constant Matrix: (Units=GPa)
#
#
# Indices 1 2 3 4 5 6 
#
# 1 60.3708 16.0784 20.3507 0.0000 0.0000 0.0000
# 2 16.0784 35.7794 -5.2842 0.0000 0.0000 0.0000
# 3 20.3507 -5.2842 73.1136 0.0000 0.0000 0.0000
# 4 0.0000 0.0000 0.0000 7.1586 0.0000 0.0000
# 5 0.0000 0.0000 0.0000 0.0000 32.0616 0.0000
# 6 0.0000 0.0000 0.0000 0.0000 0.0000 22.5956
#
#
#
# Elastic Compliance Matrix: (Units=1/GPa)
#
#
# Indices 1 2 3 4 5 6 
#
# 1 0.021736 -0.010776 -0.006829 0.000000 0.000000 0.000000
# 2 -0.010776 0.033593 0.005427 0.000000 0.000000 0.000000
# 3 -0.006829 0.005427 0.015970 0.000000 0.000000 0.000000
# 4 0.000000 0.000000 0.000000 0.139693 0.000000 0.000000
# 5 0.000000 0.000000 0.000000 0.000000 0.031190 0.000000
# 6 0.000000 0.000000 0.000000 0.000000 0.000000 0.044256
#
#
# Mechanical properties :
#
#
# Convention : Reuss Voigt Hill
#
# Bulk Modulus (GPa) = 21.30191 25.72817 23.51504
# Shear Modulus (GPa) = 15.31661 21.57109 18.44385
#
# Velocity S-wave (km/s) = 3.10725 3.68749 3.40974
# Velocity P-wave (km/s) = 5.12848 5.86073 5.50679
#
# Compressibility (1/GPa) = 0.04694414
#
# Stress axis : x y z
#
# Youngs Moduli (GPa) = 46.00589 29.76792 62.61581
#
# Poissons Ratio (x) = 0.32079 0.42760
# Poissons Ratio (y) = 0.49577 -0.33984
# Poissons Ratio (z) = 0.31417 -0.16156
#
# Static dielectric constant tensor:
#      x y z
#    x 1.530900 0.000000 0.000000 
#    y 0.000000 1.511300 0.000000 
#    z 0.000000 0.000000 1.523510 
# 
# From -- ./inp_files/37142.got.cif
#   From: 2010.05.17/outbox.cif.g08.bks.cpg/sg67_19_cif.got.tgz:37142.got - 2010.06.03 18:28:57.
