data_PCOD9501278
_publ_section_title
;
Structure prediction by ZEFSAII (Michael W. Deem and Ramdas Pophale) SiO2 
 PCOD9501278
Probable space group: C M M A
;
_chemical_formula_sum "Si O2"
_cell_formula_units_Z 52
_cell_length_a 10.442949
_cell_length_b 19.805797
_cell_length_c 14.182217
_cell_angle_alpha 90.000000
_cell_angle_beta 90.000000
_cell_angle_gamma 90.000000
_cell_volume 2933.321103
_symmetry_space_group_name_H-M "C M M A"
_symmetry_group_IT_number 67
_symmetry_cell_setting 'orthorhombic'
loop_
_space_group_symop_operation_xyz
x,y,z
-x,1/2-y,z
x,-y,-z
-x,1/2+y,-z
-x,-y,-z
x,1/2+y,-z
-x,y,z
x,1/2-y,z
1/2+x,1/2+y,z
1/2-x,-y,z
1/2+x,1/2-y,-z
1/2-x,y,-z
1/2-x,1/2-y,-z
1/2+x,y,-z
1/2-x,1/2+y,z
1/2+x,-y,z
loop_
_atom_site_type_symbol
_atom_site_label
_atom_site_fract_x
_atom_site_fract_y
_atom_site_fract_z
Si Si1 0.227685 0.831324 0.214921
Si Si2 0.750000 0.500000 0.500000
Si Si3 0.500000 0.167499 0.860372
Si Si4 0.853797 0.631915 0.425391
Si Si5 0.500000 0.167655 0.078654
O O1 0.229345 0.750000 0.210162
O O2 0.370366 0.855365 0.190589
O O3 0.182608 0.850137 0.319190
O O4 0.125204 0.854288 0.136697
O O5 0.835906 0.551252 0.439532
O O6 0.500000 0.250000 0.859256
O O7 0.500000 0.146699 0.969940
O O8 0.750000 0.660966 0.500000
O O9 0.000000 0.651905 0.445579
O O10 0.500000 0.250000 0.078232
#
# Coordination Sequence:
#
# PCOD9501278 Si02
#       5
#    16   4   8  16   8
#     4  10  19  31  50  78 108 136 166 201 253 302
#     4   8  22  36  56  72  96 128 178 210 250 292
#     4   9  18  30  47  75 108 140 169 199 237 299
#     4  10  21  36  54  74 101 129 171 210 251 298
#     4   9  16  30  49  71 106 140 169 201 239 297
#
# _framework density 17.727347000000002
#
# number of rings (size 3 to 8) (size 9 to 14) (size 15 to 20)
#    0.923    1.538    1.538    1.385    2.154    4.308 
#    0.000    0.000    0.000    0.000    0.000    6.462 
#    0.000    0.000    0.000    0.000    0.000    0.000 
#
# Total GULP energy -144758.100985 kJ/mol
# GULP energy per Si atom -5567.619269 kJ/mol
# Density = 1.768700 g / cm^3
# Si number density = 17.727347 Si / 1000 Ang^3
#
#
#
# Elastic Constant Matrix: (Units=GPa)
#
#
# Indices 1 2 3 4 5 6 
#
# 1 191.7011 9.9779 71.3224 0.0000 0.0000 0.0000
# 2 9.9779 7.4109 -0.9392 0.0000 0.0000 0.0000
# 3 71.3224 -0.9392 89.1777 0.0000 0.0000 0.0000
# 4 0.0000 0.0000 0.0000 -29.4959 0.0000 0.0000
# 5 0.0000 0.0000 0.0000 0.0000 36.9695 0.0000
# 6 0.0000 0.0000 0.0000 0.0000 0.0000 10.2011
#
#
#
# Elastic Compliance Matrix: (Units=1/GPa)
#
#
# Indices 1 2 3 4 5 6 
#
# 1 0.008396 -0.012171 -0.006843 0.000000 0.000000 0.000000
# 2 -0.012171 0.152761 0.011343 0.000000 0.000000 0.000000
# 3 -0.006843 0.011343 0.016806 0.000000 0.000000 0.000000
# 4 0.000000 0.000000 0.000000 -0.033903 0.000000 0.000000
# 5 0.000000 0.000000 0.000000 0.000000 0.027049 0.000000
# 6 0.000000 0.000000 0.000000 0.000000 0.000000 0.098028
#
#
# Mechanical properties :
#
#
# Convention : Reuss Voigt Hill
#
# Bulk Modulus (GPa) = 6.14927 49.89021 28.01974
# Shear Modulus (GPa) = 14.76289 17.39685 16.07987
#
# Velocity S-wave (km/s) = 2.88891 3.13606 3.01502
# Velocity P-wave (km/s) = 3.82153 6.42786 5.28779
#
# Compressibility (1/GPa) = 0.16262095
#
# Stress axis : x y z
#
# Youngs Moduli (GPa) = 119.10533 6.54616 59.50260
#
# Poissons Ratio (x) = 0.07968 0.40718
# Poissons Ratio (y) = 1.44967 -0.67495
# Poissons Ratio (z) = 0.81505 -0.07425
#
# Static dielectric constant tensor:
#      x y z
#    x 1.628660 0.000000 0.000000 
#    y 0.000000 1.600430 0.000000 
#    z 0.000000 0.000000 1.574980 
# 
# From -- ./inp_files/16289.got.cif
#   From: 2010.05.17/outbox.cif.g08.bks.cpg/sg67_9_cif.got.tgz:16289.got - 2010.06.03 18:28:57.
