data_PCOD9501965
_publ_section_title
;
Structure prediction by ZEFSAII (Michael W. Deem and Ramdas Pophale) SiO2 
 PCOD9501965
Probable space group: C M M A
;
_chemical_formula_sum "Si O2"
_cell_formula_units_Z 48
_cell_length_a 9.122192
_cell_length_b 22.466396
_cell_length_c 9.311405
_cell_angle_alpha 90.000000
_cell_angle_beta 90.000000
_cell_angle_gamma 90.000000
_cell_volume 1908.305206
_symmetry_space_group_name_H-M "C M M A"
_symmetry_group_IT_number 67
_symmetry_cell_setting 'orthorhombic'
loop_
_space_group_symop_operation_xyz
x,y,z
-x,1/2-y,z
x,-y,-z
-x,1/2+y,-z
-x,-y,-z
x,1/2+y,-z
-x,y,z
x,1/2-y,z
1/2+x,1/2+y,z
1/2-x,-y,z
1/2+x,1/2-y,-z
1/2-x,y,-z
1/2-x,1/2-y,-z
1/2+x,y,-z
1/2-x,1/2+y,z
1/2+x,-y,z
loop_
_atom_site_type_symbol
_atom_site_label
_atom_site_fract_x
_atom_site_fract_y
_atom_site_fract_z
Si Si1 0.000000 0.542036 0.682781
Si Si2 0.750000 0.857260 0.000000
Si Si3 0.000000 0.057426 0.892876
Si Si4 0.500000 0.817594 0.540812
Si Si5 0.500000 0.334133 0.804552
Si Si6 0.750000 0.598784 0.500000
O O1 0.000000 0.524017 0.259714
O O2 0.856353 0.558612 0.593734
O O3 0.000000 0.593480 0.803226
O O4 0.641567 0.901264 0.913136
O O5 0.854176 0.819839 0.893572
O O6 0.000000 0.000000 0.000000
O O7 0.500000 0.750000 0.591833
O O8 0.500000 0.816924 0.363361
O O9 0.357661 0.855429 0.582835
#
# Coordination Sequence:
#
# PCOD9501965 Si02
#       6
#     8   8   8   8   8   8
#     4  10  19  36  56  83 124 151 202 244 291 343
#     4  10  19  36  57  88 116 164 199 244 290 341
#     4  11  20  32  62  89 112 156 216 243 269 348
#     4  10  19  39  66  86 107 150 205 249 300 369
#     4   9  20  34  57  83 118 148 196 251 303 345
#     4   8  19  36  58  87 116 154 184 253 305 334
#
# _framework density 25.153206999999998
#
# number of rings (size 3 to 8) (size 9 to 14) (size 15 to 20)
#    0.000    2.667    3.333    1.000    0.000    0.000 
#    0.000   34.167    0.000   48.000    0.000    0.000 
#    0.000    0.000    0.000    0.000    0.000    0.000 
#
# Total GULP energy -134330.584781 kJ/mol
# GULP energy per Si atom -5597.107699 kJ/mol
# Density = 2.509596 g / cm^3
# Si number density = 25.153207 Si / 1000 Ang^3
#
#
#
# Elastic Constant Matrix: (Units=GPa)
#
#
# Indices 1 2 3 4 5 6 
#
# 1 213.2323 56.4391 52.7295 0.0000 0.0000 0.0000
# 2 56.4391 145.9729 29.5756 0.0000 0.0000 0.0000
# 3 52.7295 29.5756 97.0729 0.0000 0.0000 0.0000
# 4 0.0000 0.0000 0.0000 9.7908 0.0000 0.0000
# 5 0.0000 0.0000 0.0000 0.0000 28.5643 0.0000
# 6 0.0000 0.0000 0.0000 0.0000 0.0000 -462.4816
#
#
#
# Elastic Compliance Matrix: (Units=1/GPa)
#
#
# Indices 1 2 3 4 5 6 
#
# 1 0.005791 -0.001707 -0.002625 0.000000 0.000000 0.000000
# 2 -0.001707 0.007804 -0.001451 0.000000 0.000000 0.000000
# 3 -0.002625 -0.001451 0.012170 0.000000 0.000000 0.000000
# 4 0.000000 0.000000 0.000000 0.102136 0.000000 0.000000
# 5 0.000000 0.000000 0.000000 0.000000 0.035009 0.000000
# 6 0.000000 0.000000 0.000000 0.000000 0.000000 -0.002162
#
#
# Mechanical properties :
#
#
# Convention : Reuss Voigt Hill
#
# Bulk Modulus (GPa) = 70.42844 81.52961 75.97903
# Shear Modulus (GPa) = 28.24113 -63.65637 -17.70762
#
# Velocity S-wave (km/s) = 3.35440 -5.03611 -2.65616
# Velocity P-wave (km/s) = 6.56226 1.15454 4.56784
#
# Compressibility (1/GPa) = 0.01419881
#
# Stress axis : x y z
#
# Youngs Moduli (GPa) = 172.68847 128.13133 82.17188
#
# Poissons Ratio (x) = 0.21872 0.21574
# Poissons Ratio (y) = 0.29478 0.11920
# Poissons Ratio (z) = 0.45338 0.18587
#
# Static dielectric constant tensor:
#      x y z
#    x 1.958350 0.000000 0.000000 
#    y 0.000000 1.937090 0.000000 
#    z 0.000000 0.000000 2.132250 
# 
# From -- ./inp_files/5735.got.cif
#   From: 2010.05.17/outbox.cif.g08.bks.cpg/sg67_3_cif.got.tgz:5735.got - 2010.06.03 18:28:57.
