data_PCOD9501308
_publ_section_title
;
Structure prediction by ZEFSAII (Michael W. Deem and Ramdas Pophale) SiO2 
 PCOD9501308
Probable space group: C M M A
;
_chemical_formula_sum "Si O2"
_cell_formula_units_Z 100
_cell_length_a 7.569260
_cell_length_b 33.135391
_cell_length_c 19.391237
_cell_angle_alpha 90.000000
_cell_angle_beta 90.000000
_cell_angle_gamma 90.000000
_cell_volume 4863.523708
_symmetry_space_group_name_H-M "C M M A"
_symmetry_group_IT_number 67
_symmetry_cell_setting 'orthorhombic'
loop_
_space_group_symop_operation_xyz
x,y,z
-x,1/2-y,z
x,-y,-z
-x,1/2+y,-z
-x,-y,-z
x,1/2+y,-z
-x,y,z
x,1/2-y,z
1/2+x,1/2+y,z
1/2-x,-y,z
1/2+x,1/2-y,-z
1/2-x,y,-z
1/2-x,1/2-y,-z
1/2+x,y,-z
1/2-x,1/2+y,z
1/2+x,-y,z
loop_
_atom_site_type_symbol
_atom_site_label
_atom_site_fract_x
_atom_site_fract_y
_atom_site_fract_z
Si Si1 0.789106 0.622488 0.419506
Si Si2 0.206032 0.681324 0.304077
Si Si3 0.211658 0.294289 0.080955
Si Si4 0.698579 0.545054 0.176381
Si Si5 0.788844 0.044580 0.663337
Si Si6 0.500000 0.250000 0.722792
Si Si7 0.283478 0.631859 0.174268
O O1 0.750000 0.624269 0.500000
O O2 0.732600 0.661891 0.376636
O O3 0.722729 0.581214 0.383938
O O4 0.000000 0.621570 0.411494
O O5 0.343620 0.714887 0.279546
O O6 0.217143 0.644706 0.249418
O O7 0.000000 0.694648 0.308210
O O8 0.279151 0.250000 0.103635
O O9 0.276324 0.332491 0.123400
O O10 0.000000 0.293167 0.090182
O O11 0.250000 0.298356 0.000000
O O12 0.500000 0.548725 0.152339
O O13 0.750000 0.500000 0.155288
O O14 0.708682 0.546023 0.259904
O O15 0.784420 0.587387 0.154367
O O16 0.000000 0.047821 0.671922
O O17 0.750000 0.000000 0.634126
O O18 0.500000 0.631657 0.176050
#
# Coordination Sequence:
#
# PCOD9501308 Si02
#       7
#    16  16  16  16  16   4  16
#     4  10  23  39  60  82 112 151 196 244 299 362
#     4  11  24  42  64  92 117 153 203 247 303 368
#     4   9  19  35  56  84 121 156 194 238 297 366
#     4  10  19  31  52  82 116 155 196 241 297 351
#     4  10  19  33  51  80 114 147 187 236 289 355
#     4  12  26  44  66  86 124 150 192 258 318 350
#     4  10  20  35  60  89 120 161 199 245 299 357
#
# _framework density 20.561222999999998
#
# number of rings (size 3 to 8) (size 9 to 14) (size 15 to 20)
#    0.000    1.920    2.400    2.160    2.240    2.880 
#    0.000    2.000    0.000    0.480    0.000    3.360 
#    0.000    0.000    0.000    0.000    0.000    0.000 
#
# Total GULP energy -278442.172769 kJ/mol
# GULP energy per Si atom -5568.843455 kJ/mol
# Density = 2.051443 g / cm^3
# Si number density = 20.561223 Si / 1000 Ang^3
#
#
#
# Elastic Constant Matrix: (Units=GPa)
#
#
# Indices 1 2 3 4 5 6 
#
# 1 76.8020 22.9679 -11.0839 0.0000 0.0000 0.0000
# 2 22.9679 173.3202 33.6189 0.0000 0.0000 0.0000
# 3 -11.0839 33.6189 43.0746 0.0000 0.0000 0.0000
# 4 0.0000 0.0000 0.0000 25.3453 0.0000 0.0000
# 5 0.0000 0.0000 0.0000 0.0000 15.0660 0.0000
# 6 0.0000 0.0000 0.0000 0.0000 0.0000 15.0571
#
#
#
# Elastic Compliance Matrix: (Units=1/GPa)
#
#
# Indices 1 2 3 4 5 6 
#
# 1 0.014891 -0.003201 0.006330 0.000000 0.000000 0.000000
# 2 -0.003201 0.007487 -0.006667 0.000000 0.000000 0.000000
# 3 0.006330 -0.006667 0.030048 0.000000 0.000000 0.000000
# 4 0.000000 0.000000 0.000000 0.039455 0.000000 0.000000
# 5 0.000000 0.000000 0.000000 0.000000 0.066375 0.000000
# 6 0.000000 0.000000 0.000000 0.000000 0.000000 0.066414
#
#
# Mechanical properties :
#
#
# Convention : Reuss Voigt Hill
#
# Bulk Modulus (GPa) = 22.05057 42.68920 32.36989
# Shear Modulus (GPa) = 20.25408 27.60658 23.93033
#
# Velocity S-wave (km/s) = 3.14197 3.66820 3.41524
# Velocity P-wave (km/s) = 4.88982 6.22479 5.59724
#
# Compressibility (1/GPa) = 0.04535029
#
# Stress axis : x y z
#
# Youngs Moduli (GPa) = 67.15271 133.56204 33.27988
#
# Poissons Ratio (x) = 0.42757 -0.21067
# Poissons Ratio (y) = 0.21497 0.22189
# Poissons Ratio (z) = -0.42510 0.89050
#
# Static dielectric constant tensor:
#      x y z
#    x 1.763460 0.000000 0.000000 
#    y 0.000000 1.805400 0.000000 
#    z 0.000000 0.000000 1.720740 
# 
# From -- ./inp_files/37565.got.cif
#   From: 2010.05.17/outbox.cif.g08.bks.cpg/sg67_19_cif.got.tgz:37565.got - 2010.06.03 18:28:57.
