data_PCOD9501703
_publ_section_title
;
Structure prediction by ZEFSAII (Michael W. Deem and Ramdas Pophale) SiO2 
 PCOD9501703
Probable space group: C M M A
;
_chemical_formula_sum "Si O2"
_cell_formula_units_Z 72
_cell_length_a 7.967358
_cell_length_b 14.988972
_cell_length_c 29.364580
_cell_angle_alpha 90.000000
_cell_angle_beta 90.000000
_cell_angle_gamma 90.000000
_cell_volume 3506.791731
_symmetry_space_group_name_H-M "C M M A"
_symmetry_group_IT_number 67
_symmetry_cell_setting 'orthorhombic'
loop_
_space_group_symop_operation_xyz
x,y,z
-x,1/2-y,z
x,-y,-z
-x,1/2+y,-z
-x,-y,-z
x,1/2+y,-z
-x,y,z
x,1/2-y,z
1/2+x,1/2+y,z
1/2-x,-y,z
1/2+x,1/2-y,-z
1/2-x,y,-z
1/2-x,1/2-y,-z
1/2+x,y,-z
1/2-x,1/2+y,z
1/2+x,-y,z
loop_
_atom_site_type_symbol
_atom_site_label
_atom_site_fract_x
_atom_site_fract_y
_atom_site_fract_z
Si Si1 0.815374 0.142360 0.777344
Si Si2 0.798267 0.250000 0.052436
Si Si3 0.200941 0.401051 0.121037
Si Si4 0.500000 0.359630 0.718113
Si Si5 0.690957 0.359007 0.449319
Si Si6 0.000000 0.859267 0.613338
O O1 0.816426 0.250000 0.774364
O O2 0.779426 0.119197 0.829767
O O3 0.665084 0.110524 0.745367
O O4 0.000000 0.109189 0.764201
O O5 0.739816 0.165586 0.081821
O O6 0.000000 0.250000 0.053740
O O7 0.750000 0.250000 0.000000
O O8 0.250000 0.500000 0.107850
O O9 0.000000 0.391995 0.126198
O O10 0.500000 0.250000 0.718556
O O11 0.500000 0.387770 0.665709
O O12 0.500000 0.388867 0.440443
O O13 0.688656 0.250000 0.448597
O O14 0.750000 0.384864 0.500000
O O15 0.832409 0.387738 0.413505
O O16 0.000000 0.750000 0.612765
#
# Coordination Sequence:
#
# PCOD9501703 Si02
#       6
#    16   8  16   8  16   8
#     4  10  19  33  56  80 106 147 191 238 298 357
#     4  10  24  42  64  88 128 168 200 252 310 355
#     4  11  22  39  62  91 121 157 204 255 299 358
#     4   9  18  30  46  68 102 134 180 239 290 358
#     4   9  14  20  31  46  70 111 165 218 272 334
#     4   9  16  24  34  54  82 118 165 228 281 328
#
# _framework density 20.531586999999998
#
# number of rings (size 3 to 8) (size 9 to 14) (size 15 to 20)
#    0.000    2.222    3.333    0.667    0.000    3.111 
#    0.000    6.667    0.000    0.000    0.000    0.000 
#    0.000    0.000    0.000    0.000    0.000    3.333 
#
# Total GULP energy -201153.920144 kJ/mol
# GULP energy per Si atom -5587.608893 kJ/mol
# Density = 2.048486 g / cm^3
# Si number density = 20.531587 Si / 1000 Ang^3
#
#
#
# Elastic Constant Matrix: (Units=GPa)
#
#
# Indices 1 2 3 4 5 6 
#
# 1 177.8958 40.8795 102.0821 0.0000 0.0000 0.0000
# 2 40.8795 44.2464 41.7111 0.0000 0.0000 0.0000
# 3 102.0821 41.7111 202.1627 0.0000 0.0000 0.0000
# 4 0.0000 0.0000 0.0000 -8.5700 0.0000 0.0000
# 5 0.0000 0.0000 0.0000 0.0000 27.0830 0.0000
# 6 0.0000 0.0000 0.0000 0.0000 0.0000 14.0185
#
#
#
# Elastic Compliance Matrix: (Units=1/GPa)
#
#
# Indices 1 2 3 4 5 6 
#
# 1 0.008671 -0.004821 -0.003384 0.000000 0.000000 0.000000
# 2 -0.004821 0.030739 -0.003908 0.000000 0.000000 0.000000
# 3 -0.003384 -0.003908 0.007461 0.000000 0.000000 0.000000
# 4 0.000000 0.000000 0.000000 -0.116686 0.000000 0.000000
# 5 0.000000 0.000000 0.000000 0.000000 0.036923 0.000000
# 6 0.000000 0.000000 0.000000 0.000000 0.000000 0.071334
#
#
# Mechanical properties :
#
#
# Convention : Reuss Voigt Hill
#
# Bulk Modulus (GPa) = 44.15806 88.18338 66.17072
# Shear Modulus (GPa) = 71.20825 22.48178 46.84502
#
# Velocity S-wave (km/s) = 5.89556 3.31265 4.78180
# Velocity P-wave (km/s) = 8.23999 7.59440 7.92377
#
# Compressibility (1/GPa) = 0.02264592
#
# Stress axis : x y z
#
# Youngs Moduli (GPa) = 115.33013 32.53204 134.02520
#
# Poissons Ratio (x) = 0.15685 0.45348
# Poissons Ratio (y) = 0.55604 0.52373
# Poissons Ratio (z) = 0.39023 0.12712
#
# Static dielectric constant tensor:
#      x y z
#    x 1.735000 0.000000 0.000000 
#    y 0.000000 1.720660 0.000000 
#    z 0.000000 0.000000 1.670360 
# 
# From -- ./inp_files/43150.got.cif
#   From: 2010.05.17/outbox.cif.g08.bks.cpg/sg67_22_cif.got.tgz:43150.got - 2010.06.03 18:28:57.
