data_PCOD9501536
_publ_section_title
;
Structure prediction by ZEFSAII (Michael W. Deem and Ramdas Pophale) SiO2 
 PCOD9501536
Probable space group: C M M A
;
_chemical_formula_sum "Si O2"
_cell_formula_units_Z 88
_cell_length_a 29.738213
_cell_length_b 15.123810
_cell_length_c 11.580192
_cell_angle_alpha 90.000000
_cell_angle_beta 90.000000
_cell_angle_gamma 90.000000
_cell_volume 5208.250216
_symmetry_space_group_name_H-M "C M M A"
_symmetry_group_IT_number 67
_symmetry_cell_setting 'orthorhombic'
loop_
_space_group_symop_operation_xyz
x,y,z
-x,1/2-y,z
x,-y,-z
-x,1/2+y,-z
-x,-y,-z
x,1/2+y,-z
-x,y,z
x,1/2-y,z
1/2+x,1/2+y,z
1/2-x,-y,z
1/2+x,1/2-y,-z
1/2-x,y,-z
1/2-x,1/2-y,-z
1/2+x,y,-z
1/2-x,1/2+y,z
1/2+x,-y,z
loop_
_atom_site_type_symbol
_atom_site_label
_atom_site_fract_x
_atom_site_fract_y
_atom_site_fract_z
Si Si1 0.357277 0.750000 0.337835
Si Si2 0.701016 0.250000 0.439106
Si Si3 0.549635 0.392987 0.996846
Si Si4 0.352764 0.848872 0.977822
Si Si5 0.310459 0.589624 0.205506
Si Si6 0.794081 0.609532 0.240473
Si Si7 0.550799 0.250000 0.792725
O O1 0.339393 0.750000 0.468941
O O2 0.335779 0.662323 0.280903
O O3 0.409738 0.750000 0.301530
O O4 0.750000 0.250000 0.500000
O O5 0.699376 0.334315 0.355225
O O6 0.500000 0.366129 0.041734
O O7 0.554311 0.337639 0.875801
O O8 0.549605 0.500000 0.000000
O O9 0.595901 0.366993 0.057512
O O10 0.350292 0.750000 0.027880
O O11 0.322625 0.854544 0.865728
O O12 0.333956 0.910847 0.079759
O O13 0.257910 0.614835 0.200864
O O14 0.309297 0.491567 0.257220
O O15 0.500000 0.250000 0.745116
#
# Coordination Sequence:
#
# PCOD9501536 Si02
#       7
#     8   8  16  16  16  16   8
#     4  12  22  39  60  80 111 152 196 251 280 324
#     4  12  24  42  58  79 113 152 202 246 277 329
#     4  10  19  32  54  83 115 144 176 230 295 351
#     4  12  21  34  58  84 122 152 183 231 292 356
#     4  11  21  37  58  84 113 152 190 229 289 341
#     4  11  24  37  55  84 117 154 190 233 283 346
#     4  10  20  37  58  87 113 147 199 241 288 345
#
# _framework density 16.896270000000001
#
# number of rings (size 3 to 8) (size 9 to 14) (size 15 to 20)
#    0.000    0.909    6.364    2.182    0.000    2.909 
#    0.000    0.000    0.000    1.091    0.000    1.273 
#    0.000    0.000    0.000    0.000    0.000    0.000 
#
# Total GULP energy -245304.925995 kJ/mol
# GULP energy per Si atom -5575.111954 kJ/mol
# Density = 1.685781 g / cm^3
# Si number density = 16.896270 Si / 1000 Ang^3
#
#
#
# Elastic Constant Matrix: (Units=GPa)
#
#
# Indices 1 2 3 4 5 6 
#
# 1 133.7301 58.1261 51.1646 0.0000 0.0000 0.0000
# 2 58.1261 99.2768 41.5031 0.0000 0.0000 0.0000
# 3 51.1646 41.5031 87.0628 0.0000 0.0000 0.0000
# 4 0.0000 0.0000 0.0000 109.0607 0.0000 0.0000
# 5 0.0000 0.0000 0.0000 0.0000 10.5451 0.0000
# 6 0.0000 0.0000 0.0000 0.0000 0.0000 25.1036
#
#
#
# Elastic Compliance Matrix: (Units=1/GPa)
#
#
# Indices 1 2 3 4 5 6 
#
# 1 0.011193 -0.004750 -0.004313 0.000000 0.000000 0.000000
# 2 -0.004750 0.014596 -0.004166 0.000000 0.000000 0.000000
# 3 -0.004313 -0.004166 0.016007 0.000000 0.000000 0.000000
# 4 0.000000 0.000000 0.000000 0.009169 0.000000 0.000000
# 5 0.000000 0.000000 0.000000 0.000000 0.094830 0.000000
# 6 0.000000 0.000000 0.000000 0.000000 0.000000 0.039835
#
#
# Mechanical properties :
#
#
# Convention : Reuss Voigt Hill
#
# Bulk Modulus (GPa) = 65.20641 69.07302 67.13971
# Shear Modulus (GPa) = 23.02015 40.22695 31.62355
#
# Velocity S-wave (km/s) = 3.69513 4.88466 4.33093
# Velocity P-wave (km/s) = 7.54197 8.53127 8.05183
#
# Compressibility (1/GPa) = 0.01533592
#
# Stress axis : x y z
#
# Youngs Moduli (GPa) = 89.34475 68.51309 62.47323
#
# Poissons Ratio (x) = 0.32544 0.26946
# Poissons Ratio (y) = 0.42439 0.26029
# Poissons Ratio (z) = 0.38537 0.28545
#
# Static dielectric constant tensor:
#      x y z
#    x 1.587370 0.000000 0.000000 
#    y 0.000000 1.626040 0.000000 
#    z 0.000000 0.000000 1.543450 
# 
# From -- ./inp_files/18354.got.cif
#   From: 2010.05.17/outbox.cif.g08.bks.cpg/sg67_10_cif.got.tgz:18354.got - 2010.06.03 18:28:57.
