data_PCOD9501202
_publ_section_title
;
Structure prediction by ZEFSAII (Michael W. Deem and Ramdas Pophale) SiO2 
 PCOD9501202
Probable space group: C M M A
;
_chemical_formula_sum "Si O2"
_cell_formula_units_Z 96
_cell_length_a 19.519407
_cell_length_b 8.730342
_cell_length_c 32.540257
_cell_angle_alpha 90.000000
_cell_angle_beta 90.000000
_cell_angle_gamma 90.000000
_cell_volume 5545.220949
_symmetry_space_group_name_H-M "C M M A"
_symmetry_group_IT_number 67
_symmetry_cell_setting 'orthorhombic'
loop_
_space_group_symop_operation_xyz
x,y,z
-x,1/2-y,z
x,-y,-z
-x,1/2+y,-z
-x,-y,-z
x,1/2+y,-z
-x,y,z
x,1/2-y,z
1/2+x,1/2+y,z
1/2-x,-y,z
1/2+x,1/2-y,-z
1/2-x,y,-z
1/2-x,1/2-y,-z
1/2+x,y,-z
1/2-x,1/2+y,z
1/2+x,-y,z
loop_
_atom_site_type_symbol
_atom_site_label
_atom_site_fract_x
_atom_site_fract_y
_atom_site_fract_z
Si Si1 0.672273 0.066026 0.041713
Si Si2 0.673176 0.566257 0.779419
Si Si3 0.173043 0.565635 0.130623
Si Si4 0.081178 0.066665 0.385460
Si Si5 0.325841 0.432129 0.456393
Si Si6 0.579579 0.434666 0.707962
O O1 0.675162 0.250000 0.038626
O O2 0.641280 0.022057 0.086354
O O3 0.750000 0.000000 0.042678
O O4 0.639893 0.000000 0.000000
O O5 0.676737 0.750000 0.777750
O O6 0.750000 0.500000 0.776076
O O7 0.644044 0.520776 0.824773
O O8 0.626963 0.505351 0.742674
O O9 0.176927 0.750000 0.130297
O O10 0.250000 0.500000 0.130649
O O11 0.091713 0.250000 0.389293
O O12 0.099691 0.021513 0.338665
O O13 0.000000 0.038221 0.390576
O O14 0.125084 0.981814 0.419538
O O15 0.350468 0.500000 0.500000
O O16 0.321414 0.250000 0.459537
O O17 0.250000 0.500000 0.449357
O O18 0.500000 0.478387 0.713907
O O19 0.583232 0.250000 0.710040
#
# Coordination Sequence:
#
# PCOD9501202 Si02
#       6
#    16  16  16  16  16  16
#     4   9  14  20  30  46  71 104 142 180 221 271
#     4  10  19  31  48  70  96 127 163 201 241 288
#     4   8  15  25  36  53  80 113 147 186 230 275
#     4   9  19  37  58  78 102 132 166 204 246 291
#     4  11  22  37  57  80 108 139 171 206 244 287
#     4   9  19  36  55  74  99 130 162 201 248 292
#
# _framework density 17.312204999999999
#
# number of rings (size 3 to 8) (size 9 to 14) (size 15 to 20)
#    0.000    2.667    0.000    4.500    0.000    3.667 
#    0.000    1.667    0.000    0.000    0.000    0.000 
#    0.000    0.667    0.000    1.500    0.000    8.167 
#
# Total GULP energy -267325.188098 kJ/mol
# GULP energy per Si atom -5569.274752 kJ/mol
# Density = 1.727280 g / cm^3
# Si number density = 17.312205 Si / 1000 Ang^3
#
#
#
# Elastic Constant Matrix: (Units=GPa)
#
#
# Indices 1 2 3 4 5 6 
#
# 1 34.0428 28.4483 71.3929 0.0000 0.0000 0.0000
# 2 28.4483 62.6126 69.1670 0.0000 0.0000 0.0000
# 3 71.3929 69.1670 215.0832 0.0000 0.0000 0.0000
# 4 0.0000 0.0000 0.0000 28.5720 0.0000 0.0000
# 5 0.0000 0.0000 0.0000 0.0000 -18.6577 0.0000
# 6 0.0000 0.0000 0.0000 0.0000 0.0000 18.3476
#
#
#
# Elastic Compliance Matrix: (Units=1/GPa)
#
#
# Indices 1 2 3 4 5 6 
#
# 1 0.104180 -0.014167 -0.030025 0.000000 0.000000 0.000000
# 2 -0.014167 0.026697 -0.003883 0.000000 0.000000 0.000000
# 3 -0.030025 -0.003883 0.015864 0.000000 0.000000 0.000000
# 4 0.000000 0.000000 0.000000 0.034999 0.000000 0.000000
# 5 0.000000 0.000000 0.000000 0.000000 -0.053597 0.000000
# 6 0.000000 0.000000 0.000000 0.000000 0.000000 0.054503
#
#
# Mechanical properties :
#
#
# Convention : Reuss Voigt Hill
#
# Bulk Modulus (GPa) = 19.76574 72.19498 45.98036
# Shear Modulus (GPa) = 16.91126 15.16774 16.03950
#
# Velocity S-wave (km/s) = 3.12884 2.96316 3.04712
# Velocity P-wave (km/s) = 4.94923 7.31433 6.24477
#
# Compressibility (1/GPa) = 0.05059260
#
# Stress axis : x y z
#
# Youngs Moduli (GPa) = 9.59875 37.45672 63.03462
#
# Poissons Ratio (x) = 0.53064 1.89261
# Poissons Ratio (y) = 0.13598 0.24477
# Poissons Ratio (z) = 0.28820 0.14545
#
# Static dielectric constant tensor:
#      x y z
#    x 1.681610 0.000000 0.000000 
#    y 0.000000 1.583810 0.000000 
#    z 0.000000 0.000000 1.645690 
# 
# From -- ./inp_files/44614.got.cif
#   From: 2010.05.17/outbox.cif.g08.bks.cpg/sg67_23_cif.got.tgz:44614.got - 2010.06.03 18:28:57.
