data_PCOD9501790
_publ_section_title
;
Structure prediction by ZEFSAII (Michael W. Deem and Ramdas Pophale) SiO2 
 PCOD9501790
Probable space group: C M M A
;
_chemical_formula_sum "Si O2"
_cell_formula_units_Z 96
_cell_length_a 15.495670
_cell_length_b 16.225224
_cell_length_c 17.195474
_cell_angle_alpha 90.000000
_cell_angle_beta 90.000000
_cell_angle_gamma 90.000000
_cell_volume 4323.298398
_symmetry_space_group_name_H-M "C M M A"
_symmetry_group_IT_number 67
_symmetry_cell_setting 'orthorhombic'
loop_
_space_group_symop_operation_xyz
x,y,z
-x,1/2-y,z
x,-y,-z
-x,1/2+y,-z
-x,-y,-z
x,1/2+y,-z
-x,y,z
x,1/2-y,z
1/2+x,1/2+y,z
1/2-x,-y,z
1/2+x,1/2-y,-z
1/2-x,y,-z
1/2-x,1/2-y,-z
1/2+x,y,-z
1/2-x,1/2+y,z
1/2+x,-y,z
loop_
_atom_site_type_symbol
_atom_site_label
_atom_site_fract_x
_atom_site_fract_y
_atom_site_fract_z
Si Si1 0.652660 0.838101 0.675709
Si Si2 0.644808 0.656731 0.312787
Si Si3 0.161069 0.051057 0.158864
Si Si4 0.603626 0.154739 0.982555
Si Si5 0.903728 0.378059 0.844335
Si Si6 0.355940 0.498094 0.590384
O O1 0.615674 0.750000 0.649911
O O2 0.755037 0.836584 0.661622
O O3 0.643387 0.845365 0.768574
O O4 0.615341 0.919292 0.635305
O O5 0.608921 0.750000 0.314830
O O6 0.645156 0.617208 0.226591
O O7 0.609706 0.584574 0.368469
O O8 0.152507 0.095716 0.076593
O O9 0.250000 0.000000 0.170254
O O10 0.094019 0.976527 0.162027
O O11 0.500000 0.135940 0.980354
O O12 0.614525 0.250000 0.960115
O O13 0.633904 0.143636 0.071481
O O14 0.000000 0.344108 0.842828
O O15 0.378466 0.500000 0.500000
O O16 0.250000 0.500000 0.595898
#
# Coordination Sequence:
#
# PCOD9501790 Si02
#       6
#    16  16  16  16  16  16
#     4  10  19  34  55  82 113 147 187 230 278 336
#     4  10  19  34  56  83 115 151 188 232 286 339
#     4  12  21  38  57  84 117 153 192 239 292 349
#     4  10  23  41  58  81 113 152 201 250 295 349
#     4  11  22  38  59  81 110 150 195 237 287 343
#     4   9  17  32  53  83 119 148 179 228 285 342
#
# _framework density 22.205269000000001
#
# number of rings (size 3 to 8) (size 9 to 14) (size 15 to 20)
#    0.000    1.667    3.333    2.500    0.000    4.333 
#    0.000    4.167    0.000    0.500    0.000    0.000 
#    0.000    0.000    0.000    0.000    0.000    0.000 
#
# Total GULP energy -268115.456053 kJ/mol
# GULP energy per Si atom -5585.738668 kJ/mol
# Density = 2.215473 g / cm^3
# Si number density = 22.205269 Si / 1000 Ang^3
#
#
#
# Elastic Constant Matrix: (Units=GPa)
#
#
# Indices 1 2 3 4 5 6 
#
# 1 41.3755 14.7628 4.4663 0.0000 0.0000 0.0000
# 2 14.7628 218.9417 89.4324 0.0000 0.0000 0.0000
# 3 4.4663 89.4324 136.4965 0.0000 0.0000 0.0000
# 4 0.0000 0.0000 0.0000 -8.8958 0.0000 0.0000
# 5 0.0000 0.0000 0.0000 0.0000 -996.3255 0.0000
# 6 0.0000 0.0000 0.0000 0.0000 0.0000 3.3408
#
#
#
# Elastic Compliance Matrix: (Units=1/GPa)
#
#
# Indices 1 2 3 4 5 6 
#
# 1 0.024780 -0.001829 0.000388 0.000000 0.000000 0.000000
# 2 -0.001829 0.006372 -0.004115 0.000000 0.000000 0.000000
# 3 0.000388 -0.004115 0.010010 0.000000 0.000000 0.000000
# 4 0.000000 0.000000 0.000000 -0.112413 0.000000 0.000000
# 5 0.000000 0.000000 0.000000 0.000000 -0.001004 0.000000
# 6 0.000000 0.000000 0.000000 0.000000 0.000000 0.299328
#
#
# Mechanical properties :
#
#
# Convention : Reuss Voigt Hill
#
# Bulk Modulus (GPa) = 33.27990 68.23739 50.75865
# Shear Modulus (GPa) = 20.14497 -181.16594 -80.51048
#
# Velocity S-wave (km/s) = 3.01527 -9.04235 -6.02794
# Velocity P-wave (km/s) = 5.20984 8.84430 5.05368
#
# Compressibility (1/GPa) = 0.03004816
#
# Stress axis : x y z
#
# Youngs Moduli (GPa) = 40.35561 156.94758 99.90502
#
# Poissons Ratio (x) = 0.28709 -0.03873
# Poissons Ratio (y) = 0.07382 0.41109
# Poissons Ratio (z) = -0.01565 0.64580
#
# Static dielectric constant tensor:
#      x y z
#    x 1.873070 0.000000 0.000000 
#    y 0.000000 1.835110 0.000000 
#    z 0.000000 0.000000 1.772420 
# 
# From -- ./inp_files/29292.got.cif
#   From: 2010.05.17/outbox.cif.g08.bks.cpg/sg67_15_cif.got.tgz:29292.got - 2010.06.03 18:28:57.
