data_PCOD9501332
_publ_section_title
;
Structure prediction by ZEFSAII (Michael W. Deem and Ramdas Pophale) SiO2 
 PCOD9501332
Probable space group: C M M A
;
_chemical_formula_sum "Si O2"
_cell_formula_units_Z 104
_cell_length_a 8.368347
_cell_length_b 28.540567
_cell_length_c 24.106049
_cell_angle_alpha 90.000000
_cell_angle_beta 90.000000
_cell_angle_gamma 90.000000
_cell_volume 5757.425302
_symmetry_space_group_name_H-M "C M M A"
_symmetry_group_IT_number 67
_symmetry_cell_setting 'orthorhombic'
loop_
_space_group_symop_operation_xyz
x,y,z
-x,1/2-y,z
x,-y,-z
-x,1/2+y,-z
-x,-y,-z
x,1/2+y,-z
-x,y,z
x,1/2-y,z
1/2+x,1/2+y,z
1/2-x,-y,z
1/2+x,1/2-y,-z
1/2-x,y,-z
1/2-x,1/2-y,-z
1/2+x,y,-z
1/2-x,1/2+y,z
1/2+x,-y,z
loop_
_atom_site_type_symbol
_atom_site_label
_atom_site_fract_x
_atom_site_fract_y
_atom_site_fract_z
Si Si1 0.314129 0.051864 0.764651
Si Si2 0.808459 0.750000 0.562987
Si Si3 0.814890 0.123585 0.851022
Si Si4 0.307442 0.147628 0.563396
Si Si5 0.188569 0.050554 0.062942
Si Si6 0.305424 0.804007 0.761511
Si Si7 0.809652 0.114485 0.675151
O O1 0.500000 0.055161 0.781105
O O2 0.206964 0.084703 0.803403
O O3 0.286632 0.072810 0.703950
O O4 0.250000 0.000000 0.768355
O O5 0.750000 0.750000 0.500000
O O6 0.754031 0.699845 0.584038
O O7 0.000000 0.750000 0.564820
O O8 0.736723 0.096974 0.902958
O O9 0.752473 0.170271 0.819063
O O10 0.000000 0.131483 0.864313
O O11 0.500000 0.145284 0.563830
O O12 0.250000 0.140844 0.500000
O O13 0.232980 0.115735 0.610553
O O14 0.000000 0.047062 0.062464
O O15 0.250000 0.000000 0.086056
O O16 0.250000 0.054069 0.000000
O O17 0.500000 0.803477 0.762856
O O18 0.251235 0.750000 0.756192
O O19 0.261645 0.838204 0.709972
O O20 0.000000 0.108758 0.682419
#
# Coordination Sequence:
#
# PCOD9501332 Si02
#       7
#    16   8  16  16  16  16  16
#     4  11  21  35  54  76 103 133 169 211 257 304
#     4   8  16  28  42  62  90 122 160 198 239 288
#     4  10  19  33  53  78 108 139 175 212 255 305
#     4  10  19  32  48  69  98 132 169 209 255 305
#     4  11  21  34  52  77 109 141 176 213 260 309
#     4   8  16  31  51  75 102 134 171 211 254 300
#     4  10  20  33  51  76 103 132 169 209 257 310
#
# _framework density 18.06363
#
# number of rings (size 3 to 8) (size 9 to 14) (size 15 to 20)
#    0.000    2.154    0.000    6.000    1.077    0.615 
#    0.000    0.000    0.000   10.154    0.000    3.231 
#    0.000    0.000    0.000    0.000    0.000    0.000 
#
# Total GULP energy -289672.010194 kJ/mol
# GULP energy per Si atom -5570.615581 kJ/mol
# Density = 1.802252 g / cm^3
# Si number density = 18.063630 Si / 1000 Ang^3
#
#
#
# Elastic Constant Matrix: (Units=GPa)
#
#
# Indices 1 2 3 4 5 6 
#
# 1 54.0095 -1.6335 8.0082 0.0000 0.0000 0.0000
# 2 -1.6335 55.8000 10.8676 0.0000 0.0000 0.0000
# 3 8.0082 10.8676 73.8328 0.0000 0.0000 0.0000
# 4 0.0000 0.0000 0.0000 16.9048 0.0000 0.0000
# 5 0.0000 0.0000 0.0000 0.0000 23.4896 0.0000
# 6 0.0000 0.0000 0.0000 0.0000 0.0000 9.9148
#
#
#
# Elastic Compliance Matrix: (Units=1/GPa)
#
#
# Indices 1 2 3 4 5 6 
#
# 1 0.018870 0.000979 -0.002191 0.000000 0.000000 0.000000
# 2 0.000979 0.018501 -0.002829 0.000000 0.000000 0.000000
# 3 -0.002191 -0.002829 0.014198 0.000000 0.000000 0.000000
# 4 0.000000 0.000000 0.000000 0.059155 0.000000 0.000000
# 5 0.000000 0.000000 0.000000 0.000000 0.042572 0.000000
# 6 0.000000 0.000000 0.000000 0.000000 0.000000 0.100859
#
#
# Mechanical properties :
#
#
# Convention : Reuss Voigt Hill
#
# Bulk Modulus (GPa) = 22.99558 24.23631 23.61594
# Shear Modulus (GPa) = 18.06799 21.15518 19.61158
#
# Velocity S-wave (km/s) = 3.16609 3.42592 3.29856
# Velocity P-wave (km/s) = 5.11111 5.39403 5.25447
#
# Compressibility (1/GPa) = 0.04348662
#
# Stress axis : x y z
#
# Youngs Moduli (GPa) = 52.99494 54.05152 70.43145
#
# Poissons Ratio (x) = -0.05292 0.15430
# Poissons Ratio (y) = -0.05189 0.19928
# Poissons Ratio (z) = 0.11610 0.15293
#
# Static dielectric constant tensor:
#      x y z
#    x 1.662960 0.000000 0.000000 
#    y 0.000000 1.661300 0.000000 
#    z 0.000000 0.000000 1.648830 
# 
# From -- ./inp_files/41026.got.cif
#   From: 2010.05.17/outbox.cif.g08.bks.cpg/sg67_21_cif.got.tgz:41026.got - 2010.06.03 18:28:57.
