data_PCOD9501462
_publ_section_title
;
Structure prediction by ZEFSAII (Michael W. Deem and Ramdas Pophale) SiO2 
 PCOD9501462
Probable space group: C M M A
;
_chemical_formula_sum "Si O2"
_cell_formula_units_Z 96
_cell_length_a 19.066700
_cell_length_b 8.267440
_cell_length_c 32.074319
_cell_angle_alpha 90.000000
_cell_angle_beta 90.000000
_cell_angle_gamma 90.000000
_cell_volume 5055.964656
_symmetry_space_group_name_H-M "C M M A"
_symmetry_group_IT_number 67
_symmetry_cell_setting 'orthorhombic'
loop_
_space_group_symop_operation_xyz
x,y,z
-x,1/2-y,z
x,-y,-z
-x,1/2+y,-z
-x,-y,-z
x,1/2+y,-z
-x,y,z
x,1/2-y,z
1/2+x,1/2+y,z
1/2-x,-y,z
1/2+x,1/2-y,-z
1/2-x,y,-z
1/2-x,1/2-y,-z
1/2+x,y,-z
1/2-x,1/2+y,z
1/2+x,-y,z
loop_
_atom_site_type_symbol
_atom_site_label
_atom_site_fract_x
_atom_site_fract_y
_atom_site_fract_z
Si Si1 0.830140 0.554412 0.125183
Si Si2 0.330289 0.056589 0.285186
Si Si3 0.580749 0.054801 0.046086
Si Si4 0.419213 0.054774 0.544976
Si Si5 0.580863 0.447853 0.205685
Si Si6 0.329967 0.056396 0.623677
O O1 0.831246 0.750000 0.125037
O O2 0.750000 0.500000 0.127541
O O3 0.868559 0.497872 0.082930
O O4 0.874900 0.500462 0.165310
O O5 0.329841 0.250000 0.284743
O O6 0.379633 0.998716 0.247680
O O7 0.250000 0.000000 0.279239
O O8 0.354754 0.000884 0.330860
O O9 0.500000 0.000551 0.052903
O O10 0.580342 0.250000 0.046848
O O11 0.602551 0.000000 0.000000
O O12 0.500000 0.999094 0.548032
O O13 0.419135 0.250000 0.545575
O O14 0.375451 0.996538 0.584687
O O15 0.391145 0.000000 0.500000
O O16 0.500000 0.500136 0.203936
O O17 0.580553 0.250000 0.205725
O O18 0.331301 0.250000 0.623622
O O19 0.250000 0.000000 0.619016
#
# Coordination Sequence:
#
# PCOD9501462 Si02
#       6
#    16  16  16  16  16  16
#     4  10  20  34  53  75 101 133 167 205 249 297
#     4  10  19  32  52  75 100 130 163 201 245 292
#     4   9  18  33  53  75  99 131 169 207 249 295
#     4   9  19  35  53  73  98 130 166 204 247 292
#     4   9  18  33  53  76 100 128 166 208 246 290
#     4  10  20  34  52  74 102 133 165 202 244 293
#
# _framework density 18.987473999999999
#
# number of rings (size 3 to 8) (size 9 to 14) (size 15 to 20)
#    0.000    2.500    0.000    3.000    0.000    5.333 
#    0.000    4.167    0.000    5.000    0.000    0.000 
#    0.000    0.000    0.000    0.000    0.000    0.000 
#
# Total GULP energy -267864.761903 kJ/mol
# GULP energy per Si atom -5580.515873 kJ/mol
# Density = 1.894426 g / cm^3
# Si number density = 18.987474 Si / 1000 Ang^3
#
#
#
# Elastic Constant Matrix: (Units=GPa)
#
#
# Indices 1 2 3 4 5 6 
#
# 1 123.4368 12.3340 128.8697 0.0000 0.0000 0.0000
# 2 12.3340 17.6538 20.4443 0.0000 0.0000 0.0000
# 3 128.8697 20.4443 227.8348 0.0000 0.0000 0.0000
# 4 0.0000 0.0000 0.0000 19.5785 0.0000 0.0000
# 5 0.0000 0.0000 0.0000 0.0000 43.0680 0.0000
# 6 0.0000 0.0000 0.0000 0.0000 0.0000 20.8445
#
#
#
# Elastic Compliance Matrix: (Units=1/GPa)
#
#
# Indices 1 2 3 4 5 6 
#
# 1 0.019799 -0.000964 -0.011113 0.000000 0.000000 0.000000
# 2 -0.000964 0.063261 -0.005131 0.000000 0.000000 0.000000
# 3 -0.011113 -0.005131 0.011135 0.000000 0.000000 0.000000
# 4 0.000000 0.000000 0.000000 0.051077 0.000000 0.000000
# 5 0.000000 0.000000 0.000000 0.000000 0.023219 0.000000
# 6 0.000000 0.000000 0.000000 0.000000 0.000000 0.047974
#
#
# Mechanical properties :
#
#
# Convention : Reuss Voigt Hill
#
# Bulk Modulus (GPa) = 16.72810 76.91348 46.82079
# Shear Modulus (GPa) = 18.46332 30.51668 24.49000
#
# Velocity S-wave (km/s) = 3.12171 4.01334 3.59527
# Velocity P-wave (km/s) = 4.67147 7.87853 6.47665
#
# Compressibility (1/GPa) = 0.05977967
#
# Stress axis : x y z
#
# Youngs Moduli (GPa) = 50.50699 15.80757 89.80575
#
# Poissons Ratio (x) = 0.01524 0.99797
# Poissons Ratio (y) = 0.04868 0.46083
# Poissons Ratio (z) = 0.56126 0.08111
#
# Static dielectric constant tensor:
#      x y z
#    x 1.634650 0.000000 0.000000 
#    y 0.000000 1.668900 0.000000 
#    z 0.000000 0.000000 1.658520 
# 
# From -- ./inp_files/44604.got.cif
#   From: 2010.05.17/outbox.cif.g08.bks.cpg/sg67_23_cif.got.tgz:44604.got - 2010.06.03 18:28:57.
