data_PCOD9501685
_publ_section_title
;
Structure prediction by ZEFSAII (Michael W. Deem and Ramdas Pophale) SiO2 
 PCOD9501685
Probable space group: C M M A
;
_chemical_formula_sum "Si O2"
_cell_formula_units_Z 112
_cell_length_a 14.160102
_cell_length_b 23.470741
_cell_length_c 14.667234
_cell_angle_alpha 90.000000
_cell_angle_beta 90.000000
_cell_angle_gamma 90.000000
_cell_volume 4874.627155
_symmetry_space_group_name_H-M "C M M A"
_symmetry_group_IT_number 67
_symmetry_cell_setting 'orthorhombic'
loop_
_space_group_symop_operation_xyz
x,y,z
-x,1/2-y,z
x,-y,-z
-x,1/2+y,-z
-x,-y,-z
x,1/2+y,-z
-x,y,z
x,1/2-y,z
1/2+x,1/2+y,z
1/2-x,-y,z
1/2+x,1/2-y,-z
1/2-x,y,-z
1/2-x,1/2-y,-z
1/2+x,y,-z
1/2-x,1/2+y,z
1/2+x,-y,z
loop_
_atom_site_type_symbol
_atom_site_label
_atom_site_fract_x
_atom_site_fract_y
_atom_site_fract_z
Si Si1 0.613178 0.013942 0.601721
Si Si2 0.890465 0.816755 0.866938
Si Si3 0.603990 0.131232 0.671334
Si Si4 0.249220 0.902058 0.154809
Si Si5 0.638614 0.314121 0.482224
Si Si6 0.391031 0.106340 0.308878
Si Si7 0.892741 0.501941 0.109464
O O1 0.500000 0.020791 0.590872
O O2 0.655075 0.072664 0.641097
O O3 0.647902 0.000000 0.500000
O O4 0.626287 0.959977 0.666772
O O5 0.881309 0.750000 0.884695
O O6 0.874097 0.830683 0.759188
O O7 0.804504 0.854786 0.904393
O O8 0.000000 0.833056 0.890286
O O9 0.500000 0.110671 0.697217
O O10 0.599577 0.168022 0.580198
O O11 0.194912 0.875419 0.243092
O O12 0.331893 0.951217 0.156302
O O13 0.160937 0.938733 0.121462
O O14 0.610791 0.250000 0.456645
O O15 0.750000 0.315260 0.500000
O O16 0.613507 0.358189 0.402974
O O17 0.500000 0.112580 0.274618
O O18 0.000000 0.500364 0.143736
O O19 0.894944 0.500000 0.000000
#
# Coordination Sequence:
#
# PCOD9501685 Si02
#       7
#    16  16  16  16  16  16  16
#     4   9  17  32  51  72 108 154 206 265 327 380
#     4  10  22  39  60  91 131 174 224 280 330 376
#     4  10  19  33  55  76 103 157 221 278 324 367
#     4  11  22  38  65  97 131 169 207 251 313 388
#     4  11  23  38  52  70 106 162 230 292 335 376
#     4  11  23  37  54  85 127 167 209 267 337 399
#     4  10  23  45  73 105 137 166 201 248 307 381
#
# _framework density 22.976115
#
# number of rings (size 3 to 8) (size 9 to 14) (size 15 to 20)
#    0.000    1.714    1.429    3.429    4.000    3.429 
#    0.000    0.714    0.000    3.000    0.000    2.000 
#    0.000    0.571    0.000    0.000    0.000    0.000 
#
# Total GULP energy -312290.526877 kJ/mol
# GULP energy per Si atom -5576.616551 kJ/mol
# Density = 2.292382 g / cm^3
# Si number density = 22.976115 Si / 1000 Ang^3
#
#
#
# Elastic Constant Matrix: (Units=GPa)
#
#
# Indices 1 2 3 4 5 6 
#
# 1 161.7146 11.4253 17.8443 0.0000 0.0000 0.0000
# 2 11.4253 79.4176 -3.5442 0.0000 0.0000 0.0000
# 3 17.8443 -3.5442 51.3307 0.0000 0.0000 0.0000
# 4 0.0000 0.0000 0.0000 2.5866 0.0000 0.0000
# 5 0.0000 0.0000 0.0000 0.0000 16.3073 0.0000
# 6 0.0000 0.0000 0.0000 0.0000 0.0000 24.8281
#
#
#
# Elastic Compliance Matrix: (Units=1/GPa)
#
#
# Indices 1 2 3 4 5 6 
#
# 1 0.006515 -0.001042 -0.002337 0.000000 0.000000 0.000000
# 2 -0.001042 0.012797 0.001246 0.000000 0.000000 0.000000
# 3 -0.002337 0.001246 0.020380 0.000000 0.000000 0.000000
# 4 0.000000 0.000000 0.000000 0.386613 0.000000 0.000000
# 5 0.000000 0.000000 0.000000 0.000000 0.061322 0.000000
# 6 0.000000 0.000000 0.000000 0.000000 0.000000 0.040277
#
#
# Mechanical properties :
#
#
# Convention : Reuss Voigt Hill
#
# Bulk Modulus (GPa) = 28.22728 38.21264 33.21996
# Shear Modulus (GPa) = 9.19154 26.52690 17.85922
#
# Velocity S-wave (km/s) = 2.00229 3.40154 2.79103
# Velocity P-wave (km/s) = 4.20211 5.66523 4.98761
#
# Compressibility (1/GPa) = 0.03542672
#
# Stress axis : x y z
#
# Youngs Moduli (GPa) = 153.48772 78.14273 49.06796
#
# Poissons Ratio (x) = 0.08139 0.11466
# Poissons Ratio (y) = 0.15987 -0.06112
# Poissons Ratio (z) = 0.35867 -0.09734
#
# Static dielectric constant tensor:
#      x y z
#    x 1.855660 0.000000 0.000000 
#    y 0.000000 1.860840 0.000000 
#    z 0.000000 0.000000 1.989680 
# 
# From -- ./inp_files/27531.got.cif
#   From: 2010.05.17/outbox.cif.g08.bks.cpg/sg67_14_cif.got.tgz:27531.got - 2010.06.03 18:28:57.
