data_PCOD9501546
_publ_section_title
;
Structure prediction by ZEFSAII (Michael W. Deem and Ramdas Pophale) SiO2 
 PCOD9501546
Probable space group: C M M A
;
_chemical_formula_sum "Si O2"
_cell_formula_units_Z 112
_cell_length_a 19.808001
_cell_length_b 18.224095
_cell_length_c 18.238196
_cell_angle_alpha 90.000000
_cell_angle_beta 90.000000
_cell_angle_gamma 90.000000
_cell_volume 6583.676737
_symmetry_space_group_name_H-M "C M M A"
_symmetry_group_IT_number 67
_symmetry_cell_setting 'orthorhombic'
loop_
_space_group_symop_operation_xyz
x,y,z
-x,1/2-y,z
x,-y,-z
-x,1/2+y,-z
-x,-y,-z
x,1/2+y,-z
-x,y,z
x,1/2-y,z
1/2+x,1/2+y,z
1/2-x,-y,z
1/2+x,1/2-y,-z
1/2-x,y,-z
1/2-x,1/2-y,-z
1/2+x,y,-z
1/2-x,1/2+y,z
1/2+x,-y,z
loop_
_atom_site_type_symbol
_atom_site_label
_atom_site_fract_x
_atom_site_fract_y
_atom_site_fract_z
Si Si1 0.079326 0.393675 0.716825
Si Si2 0.323203 0.590719 0.414205
Si Si3 0.337027 0.585335 0.576452
Si Si4 0.190941 0.165080 0.824412
Si Si5 0.421511 0.540188 0.193581
Si Si6 0.320570 0.029518 0.082724
Si Si7 0.831765 0.162614 0.258899
O O1 0.114195 0.383033 0.638127
O O2 0.124710 0.350162 0.775379
O O3 0.085383 0.479390 0.741594
O O4 0.000000 0.374995 0.717719
O O5 0.353388 0.611063 0.493738
O O6 0.337856 0.503286 0.412998
O O7 0.242238 0.602643 0.414865
O O8 0.343889 0.633752 0.341662
O O9 0.196866 0.250000 0.843103
O O10 0.184229 0.115178 0.897004
O O11 0.256621 0.145600 0.773882
O O12 0.500000 0.551141 0.179768
O O13 0.383430 0.503524 0.125642
O O14 0.384176 0.615422 0.211939
O O15 0.250000 0.000000 0.115236
O O16 0.323354 0.000000 0.000000
O O17 0.840537 0.250000 0.255238
#
# Coordination Sequence:
#
# PCOD9501546 Si02
#       7
#    16  16  16  16  16  16  16
#     4  10  19  32  55  81 108 146 189 237 285 330
#     4   9  17  29  49  75 103 138 183 238 287 330
#     4   9  16  29  50  74 104 135 184 240 290 327
#     4  10  21  36  57  85 115 149 185 226 279 333
#     4  10  21  36  56  82 110 146 188 229 274 331
#     4  10  20  37  62  90 116 143 181 227 272 325
#     4  11  20  33  54  79 109 149 189 232 279 328
#
# _framework density 17.011771
#
# number of rings (size 3 to 8) (size 9 to 14) (size 15 to 20)
#    0.000    2.143    4.286    0.857    0.000    0.857 
#    0.000    6.429    0.000    0.000    0.000    0.000 
#    0.000    0.000    0.000    0.000    0.000    0.000 
#
# Total GULP energy -311761.370356 kJ/mol
# GULP energy per Si atom -5567.167328 kJ/mol
# Density = 1.697305 g / cm^3
# Si number density = 17.011771 Si / 1000 Ang^3
#
#
#
# Elastic Constant Matrix: (Units=GPa)
#
#
# Indices 1 2 3 4 5 6 
#
# 1 97.1632 32.0059 40.6066 0.0000 0.0000 0.0000
# 2 32.0059 78.3389 47.3133 0.0000 0.0000 0.0000
# 3 40.6066 47.3133 93.5263 0.0000 0.0000 0.0000
# 4 0.0000 0.0000 0.0000 16.1658 0.0000 0.0000
# 5 0.0000 0.0000 0.0000 0.0000 16.5740 0.0000
# 6 0.0000 0.0000 0.0000 0.0000 0.0000 11.7525
#
#
#
# Elastic Compliance Matrix: (Units=1/GPa)
#
#
# Indices 1 2 3 4 5 6 
#
# 1 0.012967 -0.002732 -0.004248 0.000000 0.000000 0.000000
# 2 -0.002732 0.018957 -0.008404 0.000000 0.000000 0.000000
# 3 -0.004248 -0.008404 0.016788 0.000000 0.000000 0.000000
# 4 0.000000 0.000000 0.000000 0.061859 0.000000 0.000000
# 5 0.000000 0.000000 0.000000 0.000000 0.060336 0.000000
# 6 0.000000 0.000000 0.000000 0.000000 0.000000 0.085088
#
#
# Mechanical properties :
#
#
# Convention : Reuss Voigt Hill
#
# Bulk Modulus (GPa) = 55.72816 56.54220 56.13518
# Shear Modulus (GPa) = 17.07980 18.83862 17.95921
#
# Velocity S-wave (km/s) = 3.17203 3.33135 3.25267
# Velocity P-wave (km/s) = 6.80040 6.93588 6.86848
#
# Compressibility (1/GPa) = 0.01794425
#
# Stress axis : x y z
#
# Youngs Moduli (GPa) = 77.11731 52.75157 59.56757
#
# Poissons Ratio (x) = 0.14414 0.25303
# Poissons Ratio (y) = 0.21072 0.50058
# Poissons Ratio (z) = 0.32758 0.44330
#
# Static dielectric constant tensor:
#      x y z
#    x 1.561430 0.000000 0.000000 
#    y 0.000000 1.582590 0.000000 
#    z 0.000000 0.000000 1.600080 
# 
# From -- ./inp_files/35143.got.cif
#   From: 2010.05.17/outbox.cif.g08.bks.cpg/sg67_18_cif.got.tgz:35143.got - 2010.06.03 18:28:57.
