data_PCOD9501328
_publ_section_title
;
Structure prediction by ZEFSAII (Michael W. Deem and Ramdas Pophale) SiO2 
 PCOD9501328
Probable space group: C M M A
;
_chemical_formula_sum "Si O2"
_cell_formula_units_Z 112
_cell_length_a 18.678041
_cell_length_b 22.633120
_cell_length_c 14.423556
_cell_angle_alpha 90.000000
_cell_angle_beta 90.000000
_cell_angle_gamma 90.000000
_cell_volume 6097.447862
_symmetry_space_group_name_H-M "C M M A"
_symmetry_group_IT_number 67
_symmetry_cell_setting 'orthorhombic'
loop_
_space_group_symop_operation_xyz
x,y,z
-x,1/2-y,z
x,-y,-z
-x,1/2+y,-z
-x,-y,-z
x,1/2+y,-z
-x,y,z
x,1/2-y,z
1/2+x,1/2+y,z
1/2-x,-y,z
1/2+x,1/2-y,-z
1/2-x,y,-z
1/2-x,1/2-y,-z
1/2+x,y,-z
1/2-x,1/2+y,z
1/2+x,-y,z
loop_
_atom_site_type_symbol
_atom_site_label
_atom_site_fract_x
_atom_site_fract_y
_atom_site_fract_z
Si Si1 0.580063 0.507790 0.389207
Si Si2 0.725434 0.064260 0.607519
Si Si3 0.419726 0.320413 0.190719
Si Si4 0.222956 0.678849 0.098369
Si Si5 0.082037 0.818506 0.574283
Si Si6 0.913471 0.375351 0.615871
Si Si7 0.715177 0.317893 0.703858
O O1 0.575115 0.500000 0.500000
O O2 0.500000 0.520272 0.353833
O O3 0.639887 0.556990 0.375499
O O4 0.605562 0.442649 0.358600
O O5 0.750000 0.064625 0.500000
O O6 0.750454 0.125832 0.652079
O O7 0.750000 0.000000 0.644468
O O8 0.500000 0.344178 0.173471
O O9 0.422717 0.250000 0.178975
O O10 0.355654 0.343832 0.127226
O O11 0.399869 0.333551 0.297221
O O12 0.216591 0.750000 0.088984
O O13 0.274822 0.670341 0.186876
O O14 0.250000 0.655406 0.000000
O O15 0.078542 0.750000 0.543738
O O16 0.112144 0.853020 0.484232
O O17 0.135098 0.818664 0.661707
O O18 0.000000 0.837425 0.594759
O O19 0.000000 0.376568 0.604430
O O20 0.742215 0.250000 0.686518
#
# Coordination Sequence:
#
# PCOD9501328 Si02
#       7
#    16  16  16  16  16  16  16
#     4  10  19  32  48  67  97 142 185 215 252 306
#     4  11  23  36  50  77 113 143 177 222 266 309
#     4   9  17  30  51  78 103 133 178 225 268 320
#     4   9  19  36  55  76 105 136 171 226 290 337
#     4   9  17  29  47  75 112 148 181 220 261 310
#     4   9  17  28  47  74 106 142 179 219 260 308
#     4  10  22  37  55  77 103 143 185 219 271 334
#
# _framework density 18.36834
#
# number of rings (size 3 to 8) (size 9 to 14) (size 15 to 20)
#    0.000    2.429    1.429    1.286    2.000    3.714 
#    0.000    3.571    0.000    4.714    0.000    0.000 
#    0.000    3.429    0.000    0.000    0.000    0.000 
#
# Total GULP energy -311892.734279 kJ/mol
# GULP energy per Si atom -5569.513112 kJ/mol
# Density = 1.832653 g / cm^3
# Si number density = 18.368340 Si / 1000 Ang^3
#
#
#
# Elastic Constant Matrix: (Units=GPa)
#
#
# Indices 1 2 3 4 5 6 
#
# 1 112.5065 23.5305 55.5471 0.0000 0.0000 0.0000
# 2 23.5305 90.1089 28.7565 0.0000 0.0000 0.0000
# 3 55.5471 28.7565 104.0318 0.0000 0.0000 0.0000
# 4 0.0000 0.0000 0.0000 8.1945 0.0000 0.0000
# 5 0.0000 0.0000 0.0000 0.0000 23.1460 0.0000
# 6 0.0000 0.0000 0.0000 0.0000 0.0000 22.5932
#
#
#
# Elastic Compliance Matrix: (Units=1/GPa)
#
#
# Indices 1 2 3 4 5 6 
#
# 1 0.012190 -0.001213 -0.006174 0.000000 0.000000 0.000000
# 2 -0.001213 0.012292 -0.002750 0.000000 0.000000 0.000000
# 3 -0.006174 -0.002750 0.013669 0.000000 0.000000 0.000000
# 4 0.000000 0.000000 0.000000 0.122033 0.000000 0.000000
# 5 0.000000 0.000000 0.000000 0.000000 0.043204 0.000000
# 6 0.000000 0.000000 0.000000 0.000000 0.000000 0.044261
#
#
# Mechanical properties :
#
#
# Convention : Reuss Voigt Hill
#
# Bulk Modulus (GPa) = 55.93532 58.03506 56.98519
# Shear Modulus (GPa) = 18.25608 24.04095 21.14852
#
# Velocity S-wave (km/s) = 3.15602 3.62169 3.39685
# Velocity P-wave (km/s) = 6.61806 7.01089 6.81731
#
# Compressibility (1/GPa) = 0.01787779
#
# Stress axis : x y z
#
# Youngs Moduli (GPa) = 82.03377 81.35317 73.15869
#
# Poissons Ratio (x) = 0.09869 0.45165
# Poissons Ratio (y) = 0.09952 0.20119
# Poissons Ratio (z) = 0.50644 0.22373
#
# Static dielectric constant tensor:
#      x y z
#    x 1.772320 0.000000 0.000000 
#    y 0.000000 1.699170 0.000000 
#    z 0.000000 0.000000 1.592270 
# 
# From -- ./inp_files/21096.got.cif
#   From: 2010.05.17/outbox.cif.g08.bks.cpg/sg67_11_cif.got.tgz:21096.got - 2010.06.03 18:28:57.
