data_PCOD9501287
_publ_section_title
;
Structure prediction by ZEFSAII (Michael W. Deem and Ramdas Pophale) SiO2 
 PCOD9501287
Probable space group: C M M A
;
_chemical_formula_sum "Si O2"
_cell_formula_units_Z 112
_cell_length_a 16.570478
_cell_length_b 13.980609
_cell_length_c 25.730734
_cell_angle_alpha 90.000000
_cell_angle_beta 90.000000
_cell_angle_gamma 90.000000
_cell_volume 5960.920112
_symmetry_space_group_name_H-M "C M M A"
_symmetry_group_IT_number 67
_symmetry_cell_setting 'orthorhombic'
loop_
_space_group_symop_operation_xyz
x,y,z
-x,1/2-y,z
x,-y,-z
-x,1/2+y,-z
-x,-y,-z
x,1/2+y,-z
-x,y,z
x,1/2-y,z
1/2+x,1/2+y,z
1/2-x,-y,z
1/2+x,1/2-y,-z
1/2-x,y,-z
1/2-x,1/2-y,-z
1/2+x,y,-z
1/2-x,1/2+y,z
1/2+x,-y,z
loop_
_atom_site_type_symbol
_atom_site_label
_atom_site_fract_x
_atom_site_fract_y
_atom_site_fract_z
Si Si1 0.156826 0.974202 0.582229
Si Si2 0.344520 0.142680 0.150098
Si Si3 0.226904 0.111099 0.056494
Si Si4 0.905011 0.138965 0.514647
Si Si5 0.799519 0.635272 0.780490
Si Si6 0.591740 0.938841 0.125818
Si Si7 0.905976 0.865078 0.682573
O O1 0.146789 0.902772 0.533079
O O2 0.115178 0.923353 0.630858
O O3 0.250000 0.000000 0.591899
O O4 0.113251 0.071438 0.563603
O O5 0.378837 0.250000 0.158712
O O6 0.279917 0.151783 0.103252
O O7 0.291267 0.109643 0.200419
O O8 0.399659 0.054511 0.131508
O O9 0.134557 0.106512 0.074990
O O10 0.250000 0.000000 0.055867
O O11 0.250000 0.148907 0.000000
O O12 0.887478 0.250000 0.524112
O O13 0.000000 0.129764 0.500916
O O14 0.798798 0.750000 0.780048
O O15 0.858704 0.600986 0.825669
O O16 0.840590 0.605795 0.726428
O O17 0.500000 0.910749 0.128133
O O18 0.898630 0.750000 0.673774
O O19 0.000000 0.882082 0.698108
#
# Coordination Sequence:
#
# PCOD9501287 Si02
#       7
#    16  16  16  16  16  16  16
#     4  11  22  33  51  79 109 139 170 211 263 319
#     4   9  18  32  50  71  99 136 172 202 238 299
#     4   8  15  30  48  68  94 127 167 206 250 296
#     4  10  20  36  57  76 100 139 183 223 260 303
#     4   9  18  34  56  78  99 129 170 215 262 308
#     4  10  19  31  51  77 104 133 167 212 260 309
#     4  10  20  35  56  80 105 132 167 216 267 311
#
# _framework density 18.789044000000001
#
# number of rings (size 3 to 8) (size 9 to 14) (size 15 to 20)
#    0.000    2.429    0.000    4.714    0.000    5.429 
#    0.000    5.714    0.000    0.857    0.000    0.000 
#    0.000    0.000    0.000    0.000    0.000    0.000 
#
# Total GULP energy -311971.986513 kJ/mol
# GULP energy per Si atom -5570.928331 kJ/mol
# Density = 1.874628 g / cm^3
# Si number density = 18.789044 Si / 1000 Ang^3
#
#
#
# Elastic Constant Matrix: (Units=GPa)
#
#
# Indices 1 2 3 4 5 6 
#
# 1 41.1752 5.5311 3.6276 0.0000 0.0000 0.0000
# 2 5.5311 54.5116 28.8161 0.0000 0.0000 0.0000
# 3 3.6276 28.8161 89.8828 0.0000 0.0000 0.0000
# 4 0.0000 0.0000 0.0000 56.5998 0.0000 0.0000
# 5 0.0000 0.0000 0.0000 0.0000 5.9353 0.0000
# 6 0.0000 0.0000 0.0000 0.0000 0.0000 15.4383
#
#
#
# Elastic Compliance Matrix: (Units=1/GPa)
#
#
# Indices 1 2 3 4 5 6 
#
# 1 0.024626 -0.002376 -0.000232 0.000000 0.000000 0.000000
# 2 -0.002376 0.022317 -0.007059 0.000000 0.000000 0.000000
# 3 -0.000232 -0.007059 0.013398 0.000000 0.000000 0.000000
# 4 0.000000 0.000000 0.000000 0.017668 0.000000 0.000000
# 5 0.000000 0.000000 0.000000 0.000000 0.168483 0.000000
# 6 0.000000 0.000000 0.000000 0.000000 0.000000 0.064774
#
#
# Mechanical properties :
#
#
# Convention : Reuss Voigt Hill
#
# Bulk Modulus (GPa) = 24.38596 29.05769 26.72182
# Shear Modulus (GPa) = 14.52351 25.43434 19.97893
#
# Velocity S-wave (km/s) = 2.78326 3.68323 3.26441
# Velocity P-wave (km/s) = 4.83071 5.79543 5.33492
#
# Compressibility (1/GPa) = 0.04100721
#
# Stress axis : x y z
#
# Youngs Moduli (GPa) = 40.60736 44.80823 74.63778
#
# Poissons Ratio (x) = 0.10647 0.01733
# Poissons Ratio (y) = 0.09648 0.52686
# Poissons Ratio (z) = 0.00943 0.31630
#
# Static dielectric constant tensor:
#      x y z
#    x 1.650830 0.000000 0.000000 
#    y 0.000000 1.704250 0.000000 
#    z 0.000000 0.000000 1.661920 
# 
# From -- ./inp_files/44348.got.cif
#   From: 2010.05.17/outbox.cif.g08.bks.cpg/sg67_23_cif.got.tgz:44348.got - 2010.06.03 18:28:57.
