data_PCOD9501669
_publ_section_title
;
Structure prediction by ZEFSAII (Michael W. Deem and Ramdas Pophale) SiO2 
 PCOD9501669
Probable space group: C M M A
;
_chemical_formula_sum "Si O2"
_cell_formula_units_Z 72
_cell_length_a 8.804206
_cell_length_b 15.165762
_cell_length_c 26.484960
_cell_angle_alpha 90.000000
_cell_angle_beta 90.000000
_cell_angle_gamma 90.000000
_cell_volume 3536.337881
_symmetry_space_group_name_H-M "C M M A"
_symmetry_group_IT_number 67
_symmetry_cell_setting 'orthorhombic'
loop_
_space_group_symop_operation_xyz
x,y,z
-x,1/2-y,z
x,-y,-z
-x,1/2+y,-z
-x,-y,-z
x,1/2+y,-z
-x,y,z
x,1/2-y,z
1/2+x,1/2+y,z
1/2-x,-y,z
1/2+x,1/2-y,-z
1/2-x,y,-z
1/2-x,1/2-y,-z
1/2+x,y,-z
1/2-x,1/2+y,z
1/2+x,-y,z
loop_
_atom_site_type_symbol
_atom_site_label
_atom_site_fract_x
_atom_site_fract_y
_atom_site_fract_z
Si Si1 0.183858 0.900666 0.626495
Si Si2 0.817248 0.901477 0.738269
Si Si3 0.318216 0.902009 0.153046
Si Si4 0.182433 0.250000 0.556112
Si Si5 0.167538 0.145872 0.950568
O O1 0.223501 0.865151 0.683144
O O2 0.255719 0.835590 0.585827
O O3 0.000000 0.902810 0.621872
O O4 0.250000 0.000000 0.621994
O O5 0.772918 0.860374 0.792449
O O6 0.000000 0.906633 0.738752
O O7 0.750000 0.000000 0.738395
O O8 0.500000 0.903782 0.150886
O O9 0.256807 0.861706 0.101622
O O10 0.250000 0.000000 0.153807
O O11 0.250000 0.250000 0.500000
O O12 0.000000 0.250000 0.555002
O O13 0.151062 0.250000 0.959832
O O14 0.000000 0.105983 0.944592
O O15 0.250000 0.108382 0.000000
#
# Coordination Sequence:
#
# PCOD9501669 Si02
#       5
#    16  16  16   8  16
#     4  10  20  39  65  93 126 165 206 251 304 362
#     4   8  16  31  54  82 113 148 184 225 278 337
#     4  10  19  33  54  81 110 141 178 224 276 332
#     4  12  26  44  64  92 126 164 209 258 305 354
#     4  10  21  37  54  72  99 136 179 227 279 335
#
# _framework density 20.360046000000001
#
# number of rings (size 3 to 8) (size 9 to 14) (size 15 to 20)
#    0.000    2.222    0.000    3.000    0.000    4.000 
#    2.000    4.444    0.000    0.000    0.000    0.000 
#    0.000    0.000    0.000    0.000    0.000    0.000 
#
# Total GULP energy -200705.598104 kJ/mol
# GULP energy per Si atom -5575.155503 kJ/mol
# Density = 2.031371 g / cm^3
# Si number density = 20.360046 Si / 1000 Ang^3
#
#
#
# Elastic Constant Matrix: (Units=GPa)
#
#
# Indices 1 2 3 4 5 6 
#
# 1 109.1421 28.7095 86.8851 0.0000 0.0000 0.0000
# 2 28.7095 65.3203 51.8288 0.0000 0.0000 0.0000
# 3 86.8851 51.8288 235.5443 0.0000 0.0000 0.0000
# 4 0.0000 0.0000 0.0000 67.5723 0.0000 0.0000
# 5 0.0000 0.0000 0.0000 0.0000 12.2146 0.0000
# 6 0.0000 0.0000 0.0000 0.0000 0.0000 23.5071
#
#
#
# Elastic Compliance Matrix: (Units=1/GPa)
#
#
# Indices 1 2 3 4 5 6 
#
# 1 0.013265 -0.002360 -0.004374 0.000000 0.000000 0.000000
# 2 -0.002360 0.018967 -0.003303 0.000000 0.000000 0.000000
# 3 -0.004374 -0.003303 0.006586 0.000000 0.000000 0.000000
# 4 0.000000 0.000000 0.000000 0.014799 0.000000 0.000000
# 5 0.000000 0.000000 0.000000 0.000000 0.081870 0.000000
# 6 0.000000 0.000000 0.000000 0.000000 0.000000 0.042540
#
#
# Mechanical properties :
#
#
# Convention : Reuss Voigt Hill
#
# Bulk Modulus (GPa) = 53.34898 82.76151 68.05525
# Shear Modulus (GPa) = 24.46806 36.83103 30.64955
#
# Velocity S-wave (km/s) = 3.47041 4.25783 3.88413
# Velocity P-wave (km/s) = 6.50523 8.05664 7.32214
#
# Compressibility (1/GPa) = 0.01874450
#
# Stress axis : x y z
#
# Youngs Moduli (GPa) = 75.38660 52.72268 151.84544
#
# Poissons Ratio (x) = 0.12441 0.66414
# Poissons Ratio (y) = 0.17790 0.50155
# Poissons Ratio (z) = 0.32973 0.17415
#
# Static dielectric constant tensor:
#      x y z
#    x 1.713030 0.000000 0.000000 
#    y 0.000000 1.690110 0.000000 
#    z 0.000000 0.000000 1.769130 
# 
# From -- ./inp_files/40505.got.cif
#   From: 2010.05.17/outbox.cif.g08.bks.cpg/sg67_21_cif.got.tgz:40505.got - 2010.06.03 18:28:57.
