data_PCOD9501383
_publ_section_title
;
Structure prediction by ZEFSAII (Michael W. Deem and Ramdas Pophale) SiO2 
 PCOD9501383
Probable space group: C M M A
;
_chemical_formula_sum "Si O2"
_cell_formula_units_Z 88
_cell_length_a 8.752973
_cell_length_b 27.553899
_cell_length_c 19.446546
_cell_angle_alpha 90.000000
_cell_angle_beta 90.000000
_cell_angle_gamma 90.000000
_cell_volume 4690.089455
_symmetry_space_group_name_H-M "C M M A"
_symmetry_group_IT_number 67
_symmetry_cell_setting 'orthorhombic'
loop_
_space_group_symop_operation_xyz
x,y,z
-x,1/2-y,z
x,-y,-z
-x,1/2+y,-z
-x,-y,-z
x,1/2+y,-z
-x,y,z
x,1/2-y,z
1/2+x,1/2+y,z
1/2-x,-y,z
1/2+x,1/2-y,-z
1/2-x,y,-z
1/2-x,1/2-y,-z
1/2+x,y,-z
1/2-x,1/2+y,z
1/2+x,-y,z
loop_
_atom_site_type_symbol
_atom_site_label
_atom_site_fract_x
_atom_site_fract_y
_atom_site_fract_z
Si Si1 0.818112 0.250000 0.923841
Si Si2 0.182389 0.355168 0.574710
Si Si3 0.676695 0.193232 0.288144
Si Si4 0.320024 0.657061 0.153674
Si Si5 0.816370 0.550703 0.338594
Si Si6 0.684203 0.948452 0.184288
O O1 0.763250 0.200486 0.886468
O O2 0.000000 0.250000 0.925053
O O3 0.750000 0.250000 0.000000
O O4 0.250000 0.347605 0.500000
O O5 0.222568 0.316150 0.633347
O O6 0.227288 0.406032 0.610293
O O7 0.000000 0.354985 0.567603
O O8 0.500000 0.175636 0.279936
O O9 0.678360 0.250000 0.272881
O O10 0.783437 0.167006 0.233735
O O11 0.500000 0.661419 0.140312
O O12 0.274036 0.600657 0.142623
O O13 0.750000 0.500000 0.364656
O O14 0.749013 0.557386 0.261932
O O15 0.000000 0.548854 0.333394
O O16 0.500000 0.951120 0.187502
O O17 0.750000 0.000000 0.158402
#
# Coordination Sequence:
#
# PCOD9501383 Si02
#       6
#     8  16  16  16  16  16
#     4  12  26  44  68  98 133 168 197 236 286 342
#     4  10  22  36  50  71 102 142 191 245 299 360
#     4  10  20  36  57  80 107 146 194 239 294 357
#     4  11  22  37  61  94 126 158 200 245 291 347
#     4  10  19  32  50  73 103 139 185 240 296 355
#     4  10  20  33  55  87 121 156 197 247 295 347
#
# _framework density 18.762967
#
# number of rings (size 3 to 8) (size 9 to 14) (size 15 to 20)
#    0.000    1.636    2.727    3.545    0.000    5.091 
#    0.000    1.818    0.000    0.545    0.000    3.818 
#    0.000    0.000    0.000    0.000    0.000    0.000 
#
# Total GULP energy -245521.857832 kJ/mol
# GULP energy per Si atom -5580.042223 kJ/mol
# Density = 1.872026 g / cm^3
# Si number density = 18.762967 Si / 1000 Ang^3
#
#
#
# Elastic Constant Matrix: (Units=GPa)
#
#
# Indices 1 2 3 4 5 6 
#
# 1 62.6408 44.7231 24.5393 0.0000 0.0000 0.0000
# 2 44.7231 123.7445 44.4043 0.0000 0.0000 0.0000
# 3 24.5393 44.4043 62.0626 0.0000 0.0000 0.0000
# 4 0.0000 0.0000 0.0000 15.2880 0.0000 0.0000
# 5 0.0000 0.0000 0.0000 0.0000 28.9067 0.0000
# 6 0.0000 0.0000 0.0000 0.0000 0.0000 23.9015
#
#
#
# Elastic Compliance Matrix: (Units=1/GPa)
#
#
# Indices 1 2 3 4 5 6 
#
# 1 0.022265 -0.006576 -0.004098 0.000000 0.000000 0.000000
# 2 -0.006576 0.012815 -0.006569 0.000000 0.000000 0.000000
# 3 -0.004098 -0.006569 0.022433 0.000000 0.000000 0.000000
# 4 0.000000 0.000000 0.000000 0.065411 0.000000 0.000000
# 5 0.000000 0.000000 0.000000 0.000000 0.034594 0.000000
# 6 0.000000 0.000000 0.000000 0.000000 0.000000 0.041838
#
#
# Mechanical properties :
#
#
# Convention : Reuss Voigt Hill
#
# Bulk Modulus (GPa) = 43.42835 52.86458 48.14646
# Shear Modulus (GPa) = 20.70247 22.60466 21.65357
#
# Velocity S-wave (km/s) = 3.32530 3.47471 3.40083
# Velocity P-wave (km/s) = 6.15951 6.65840 6.41381
#
# Compressibility (1/GPa) = 0.02302643
#
# Stress axis : x y z
#
# Youngs Moduli (GPa) = 44.91423 78.03378 44.57741
#
# Poissons Ratio (x) = 0.51316 0.18269
# Poissons Ratio (y) = 0.29536 0.29281
# Poissons Ratio (z) = 0.18407 0.51257
#
# Static dielectric constant tensor:
#      x y z
#    x 1.639310 0.000000 0.000000 
#    y 0.000000 1.696830 0.000000 
#    z 0.000000 0.000000 1.625280 
# 
# From -- ./inp_files/32418.got.cif
#   From: 2010.05.17/outbox.cif.g08.bks.cpg/sg67_17_cif.got.tgz:32418.got - 2010.06.03 18:28:57.
