data_PCOD9501459
_publ_section_title
;
Structure prediction by ZEFSAII (Michael W. Deem and Ramdas Pophale) SiO2 
 PCOD9501459
Probable space group: C M M A
;
_chemical_formula_sum "Si O2"
_cell_formula_units_Z 96
_cell_length_a 8.403585
_cell_length_b 19.673147
_cell_length_c 31.120312
_cell_angle_alpha 90.000000
_cell_angle_beta 90.000000
_cell_angle_gamma 90.000000
_cell_volume 5144.964431
_symmetry_space_group_name_H-M "C M M A"
_symmetry_group_IT_number 67
_symmetry_cell_setting 'orthorhombic'
loop_
_space_group_symop_operation_xyz
x,y,z
-x,1/2-y,z
x,-y,-z
-x,1/2+y,-z
-x,-y,-z
x,1/2+y,-z
-x,y,z
x,1/2-y,z
1/2+x,1/2+y,z
1/2-x,-y,z
1/2+x,1/2-y,-z
1/2-x,y,-z
1/2-x,1/2-y,-z
1/2+x,y,-z
1/2-x,1/2+y,z
1/2+x,-y,z
loop_
_atom_site_type_symbol
_atom_site_label
_atom_site_fract_x
_atom_site_fract_y
_atom_site_fract_z
Si Si1 0.805433 0.672092 0.874522
Si Si2 0.807732 0.672182 0.374857
Si Si3 0.809230 0.924038 0.952189
Si Si4 0.190724 0.575216 0.699597
Si Si5 0.692055 0.925028 0.201881
Si Si6 0.190831 0.424155 0.547921
O O1 0.751997 0.750000 0.875152
O O2 0.755293 0.629591 0.916396
O O3 0.754049 0.631388 0.831994
O O4 0.000000 0.672611 0.874427
O O5 0.751384 0.750000 0.375155
O O6 0.753869 0.631444 0.332871
O O7 0.753793 0.629836 0.416658
O O8 0.000000 0.672961 0.375615
O O9 0.000000 0.925281 0.952634
O O10 0.750000 0.000000 0.941706
O O11 0.750000 0.907033 0.000000
O O12 0.250000 0.500000 0.686940
O O13 0.244298 0.587329 0.748927
O O14 0.000000 0.575328 0.698745
O O15 0.500000 0.925545 0.201733
O O16 0.750000 0.000000 0.189009
O O17 0.250000 0.500000 0.558829
O O18 0.250000 0.407888 0.500000
O O19 0.000000 0.425263 0.547479
#
# Coordination Sequence:
#
# PCOD9501459 Si02
#       6
#    16  16  16  16  16  16
#     4   9  18  32  50  73 101 133 166 202 249 300
#     4  10  22  38  54  76 109 144 174 211 261 311
#     4  10  19  32  52  74  97 128 165 206 249 295
#     4  10  20  34  55  81 105 135 175 217 259 304
#     4   9  18  33  54  77 101 130 167 211 252 296
#     4  10  20  35  56  79 103 134 173 215 258 304
#
# _framework density 18.659020999999999
#
# number of rings (size 3 to 8) (size 9 to 14) (size 15 to 20)
#    0.000    2.333    0.000    3.500    0.000    5.000 
#    0.000    2.500    0.000    4.000    0.000    0.000 
#    0.000    0.000    0.000    0.000    0.000    0.000 
#
# Total GULP energy -267970.612997 kJ/mol
# GULP energy per Si atom -5582.721104 kJ/mol
# Density = 1.861655 g / cm^3
# Si number density = 18.659021 Si / 1000 Ang^3
#
#
#
# Elastic Constant Matrix: (Units=GPa)
#
#
# Indices 1 2 3 4 5 6 
#
# 1 20.4363 21.3756 19.2718 0.0000 0.0000 0.0000
# 2 21.3756 191.1818 137.1817 0.0000 0.0000 0.0000
# 3 19.2718 137.1817 137.9377 0.0000 0.0000 0.0000
# 4 0.0000 0.0000 0.0000 13.3792 0.0000 0.0000
# 5 0.0000 0.0000 0.0000 0.0000 -15.3715 0.0000
# 6 0.0000 0.0000 0.0000 0.0000 0.0000 22.0656
#
#
#
# Elastic Compliance Matrix: (Units=1/GPa)
#
#
# Indices 1 2 3 4 5 6 
#
# 1 0.056642 -0.002286 -0.005641 0.000000 0.000000 0.000000
# 2 -0.002286 0.018356 -0.017937 0.000000 0.000000 0.000000
# 3 -0.005641 -0.017937 0.025876 0.000000 0.000000 0.000000
# 4 0.000000 0.000000 0.000000 0.074743 0.000000 0.000000
# 5 0.000000 0.000000 0.000000 0.000000 -0.065055 0.000000
# 6 0.000000 0.000000 0.000000 0.000000 0.000000 0.045319
#
#
# Mechanical properties :
#
#
# Convention : Reuss Voigt Hill
#
# Bulk Modulus (GPa) = 20.34621 78.35710 49.35165
# Shear Modulus (GPa) = 22.32242 15.46311 18.89277
#
# Velocity S-wave (km/s) = 3.46256 2.88187 3.18548
# Velocity P-wave (km/s) = 5.18784 7.29102 6.32743
#
# Compressibility (1/GPa) = 0.04914920
#
# Stress axis : x y z
#
# Youngs Moduli (GPa) = 17.65464 54.47676 38.64595
#
# Poissons Ratio (x) = 0.12452 0.21799
# Poissons Ratio (y) = 0.04035 0.69317
# Poissons Ratio (z) = 0.09958 0.97712
#
# Static dielectric constant tensor:
#      x y z
#    x 1.641810 0.000000 0.000000 
#    y 0.000000 1.615760 0.000000 
#    z 0.000000 0.000000 1.643280 
# 
# From -- ./inp_files/43459.got.cif
#   From: 2010.05.17/outbox.cif.g08.bks.cpg/sg67_22_cif.got.tgz:43459.got - 2010.06.03 18:28:57.
