data_PCOD9501027
_publ_section_title
;
Structure prediction by ZEFSAII (Michael W. Deem and Ramdas Pophale) SiO2 
 PCOD9501027
Probable space group: C M M A
;
_chemical_formula_sum "Si O2"
_cell_formula_units_Z 116
_cell_length_a 9.198449
_cell_length_b 28.053648
_cell_length_c 30.041808
_cell_angle_alpha 90.000000
_cell_angle_beta 90.000000
_cell_angle_gamma 90.000000
_cell_volume 7752.290068
_symmetry_space_group_name_H-M "C M M A"
_symmetry_group_IT_number 67
_symmetry_cell_setting 'orthorhombic'
loop_
_space_group_symop_operation_xyz
x,y,z
-x,1/2-y,z
x,-y,-z
-x,1/2+y,-z
-x,-y,-z
x,1/2+y,-z
-x,y,z
x,1/2-y,z
1/2+x,1/2+y,z
1/2-x,-y,z
1/2+x,1/2-y,-z
1/2-x,y,-z
1/2-x,1/2-y,-z
1/2+x,y,-z
1/2-x,1/2+y,z
1/2+x,-y,z
loop_
_atom_site_type_symbol
_atom_site_label
_atom_site_fract_x
_atom_site_fract_y
_atom_site_fract_z
Si Si1 0.825949 0.448564 0.766321
Si Si2 0.329021 0.805257 0.193654
Si Si3 0.327166 0.135695 0.715636
Si Si4 0.667520 0.692174 0.455567
Si Si5 0.170825 0.386372 0.855655
Si Si6 0.163212 0.454683 0.087303
Si Si7 0.750000 0.500000 0.000000
Si Si8 0.174155 0.693273 0.363143
O O1 0.750000 0.500000 0.765836
O O2 0.751718 0.413137 0.730446
O O3 0.803336 0.422511 0.814081
O O4 0.000000 0.452315 0.759302
O O5 0.500000 0.809296 0.182420
O O6 0.288402 0.750000 0.194441
O O7 0.310662 0.828670 0.242255
O O8 0.235749 0.836289 0.159687
O O9 0.500000 0.128505 0.708275
O O10 0.250808 0.161175 0.674093
O O11 0.500000 0.675803 0.453522
O O12 0.663392 0.750000 0.457843
O O13 0.750000 0.675450 0.500000
O O14 0.757027 0.680838 0.411066
O O15 0.252093 0.408120 0.898006
O O16 0.000000 0.383722 0.863443
O O17 0.250000 0.500000 0.106729
O O18 0.000000 0.453472 0.104221
O O19 0.164691 0.466422 0.034588
O O20 0.202302 0.750000 0.355063
O O21 0.000000 0.686752 0.363211
#
# Coordination Sequence:
#
# PCOD9501027 Si02
#       8
#    16  16  16  16  16  16   4  16
#     4  10  20  33  47  66  91 121 154 189 228 271
#     4   9  18  32  48  66  91 123 159 197 234 269
#     4  10  19  31  47  66  89 119 155 193 232 274
#     4   9  16  26  40  58  82 113 149 188 230 277
#     4  10  20  31  47  70  95 124 157 190 227 271
#     4  10  19  31  48  69  97 125 152 184 223 270
#     4   8  22  32  50  72 100 128 154 184 230 276
#     4  10  19  29  42  62  89 121 155 191 231 275
#
# _framework density 14.963321000000001
#
# number of rings (size 3 to 8) (size 9 to 14) (size 15 to 20)
#    0.414    1.931    0.000    3.517    0.000    6.621 
#    0.000    0.000    0.000    0.000    0.000    0.483 
#    0.000    0.552    0.000    5.517    0.000    3.586 
#
# Total GULP energy -323139.774639 kJ/mol
# GULP energy per Si atom -5571.375425 kJ/mol
# Density = 1.492926 g / cm^3
# Si number density = 14.963321 Si / 1000 Ang^3
#
#
#
# Elastic Constant Matrix: (Units=GPa)
#
#
# Indices 1 2 3 4 5 6 
#
# 1 106.2847 57.8543 49.0292 0.0000 0.0000 0.0000
# 2 57.8543 94.4930 33.7882 0.0000 0.0000 0.0000
# 3 49.0292 33.7882 68.2036 0.0000 0.0000 0.0000
# 4 0.0000 0.0000 0.0000 21.1432 0.0000 0.0000
# 5 0.0000 0.0000 0.0000 0.0000 21.7409 0.0000
# 6 0.0000 0.0000 0.0000 0.0000 0.0000 24.9918
#
#
#
# Elastic Compliance Matrix: (Units=1/GPa)
#
#
# Indices 1 2 3 4 5 6 
#
# 1 0.017684 -0.007634 -0.008930 0.000000 0.000000 0.000000
# 2 -0.007634 0.016156 -0.002516 0.000000 0.000000 0.000000
# 3 -0.008930 -0.002516 0.022328 0.000000 0.000000 0.000000
# 4 0.000000 0.000000 0.000000 0.047296 0.000000 0.000000
# 5 0.000000 0.000000 0.000000 0.000000 0.045996 0.000000
# 6 0.000000 0.000000 0.000000 0.000000 0.000000 0.040013
#
#
# Mechanical properties :
#
#
# Convention : Reuss Voigt Hill
#
# Bulk Modulus (GPa) = 55.53233 61.14718 58.33976
# Shear Modulus (GPa) = 21.40071 22.12916 21.76494
#
# Velocity S-wave (km/s) = 3.78592 3.84981 3.81800
# Velocity P-wave (km/s) = 7.50358 7.79197 7.64914
#
# Compressibility (1/GPa) = 0.01800753
#
# Stress axis : x y z
#
# Youngs Moduli (GPa) = 56.54981 61.89517 44.78625
#
# Poissons Ratio (x) = 0.47249 0.39996
# Poissons Ratio (y) = 0.43168 0.11270
# Poissons Ratio (z) = 0.50501 0.15575
#
# Static dielectric constant tensor:
#      x y z
#    x 1.507510 0.000000 0.000000 
#    y 0.000000 1.471810 0.000000 
#    z 0.000000 0.000000 1.491900 
# 
# From -- ./inp_files/43801.got.cif
#   From: 2010.05.17/outbox.cif.g08.bks.cpg/sg67_22_cif.got.tgz:43801.got - 2010.06.03 18:28:57.
