data_PCOD9501263
_publ_section_title
;
Structure prediction by ZEFSAII (Michael W. Deem and Ramdas Pophale) SiO2 
 PCOD9501263
Probable space group: C M M A
;
_chemical_formula_sum "Si O2"
_cell_formula_units_Z 112
_cell_length_a 14.204003
_cell_length_b 14.833613
_cell_length_c 23.499404
_cell_angle_alpha 90.000000
_cell_angle_beta 90.000000
_cell_angle_gamma 90.000000
_cell_volume 4951.246488
_symmetry_space_group_name_H-M "C M M A"
_symmetry_group_IT_number 67
_symmetry_cell_setting 'orthorhombic'
loop_
_space_group_symop_operation_xyz
x,y,z
-x,1/2-y,z
x,-y,-z
-x,1/2+y,-z
-x,-y,-z
x,1/2+y,-z
-x,y,z
x,1/2-y,z
1/2+x,1/2+y,z
1/2-x,-y,z
1/2+x,1/2-y,-z
1/2-x,y,-z
1/2-x,1/2-y,-z
1/2+x,y,-z
1/2-x,1/2+y,z
1/2+x,-y,z
loop_
_atom_site_type_symbol
_atom_site_label
_atom_site_fract_x
_atom_site_fract_y
_atom_site_fract_z
Si Si1 0.885710 0.154185 0.902936
Si Si2 0.355576 0.147211 0.520363
Si Si3 0.113679 0.600649 0.977341
Si Si4 0.384527 0.145692 0.308119
Si Si5 0.394224 0.527091 0.587777
Si Si6 0.884773 0.850691 0.849761
Si Si7 0.114864 0.467966 0.801768
O O1 0.865220 0.250000 0.875235
O O2 0.854294 0.075972 0.861436
O O3 0.000000 0.145689 0.906594
O O4 0.851812 0.154166 0.967621
O O5 0.391263 0.250000 0.531854
O O6 0.250000 0.157961 0.500000
O O7 0.400143 0.093565 0.466893
O O8 0.354401 0.070245 0.569263
O O9 0.147089 0.625625 0.914433
O O10 0.000000 0.611605 0.973576
O O11 0.131179 0.500000 0.000000
O O12 0.500000 0.148592 0.309769
O O13 0.353331 0.250000 0.310223
O O14 0.350866 0.086122 0.361635
O O15 0.356388 0.092746 0.251150
O O16 0.500000 0.505055 0.606291
O O17 0.854713 0.750000 0.835274
O O18 0.000000 0.851526 0.850891
O O19 0.855626 0.928201 0.805851
O O20 0.000000 0.466433 0.801349
#
# Coordination Sequence:
#
# PCOD9501263 Si02
#       7
#    16  16  16  16  16  16  16
#     4   9  14  18  26  38  52  74 107 153 210 265
#     4  10  20  34  53  77 105 134 162 196 238 283
#     4   9  13  18  25  35  51  72 103 152 212 269
#     4   9  17  28  41  58  81 110 145 186 230 275
#     4  10  19  31  50  75 102 132 165 201 240 284
#     4   9  15  21  28  37  53  80 115 160 216 273
#     4   9  15  23  32  43  62  89 126 169 216 268
#
# _framework density 22.620566
#
# number of rings (size 3 to 8) (size 9 to 14) (size 15 to 20)
#    0.000    2.714    1.429    3.000    0.000    5.143 
#    0.000    0.714    0.000    2.571    0.000    0.000 
#    0.000    0.000    0.000    0.000    0.000    0.000 
#
# Total GULP energy -312333.436360 kJ/mol
# GULP energy per Si atom -5577.382792 kJ/mol
# Density = 2.256908 g / cm^3
# Si number density = 22.620566 Si / 1000 Ang^3
#
#
#
# Elastic Constant Matrix: (Units=GPa)
#
#
# Indices 1 2 3 4 5 6 
#
# 1 61.1998 9.8143 4.2822 0.0000 0.0000 0.0000
# 2 9.8143 233.4498 107.1773 0.0000 0.0000 0.0000
# 3 4.2822 107.1773 106.8930 0.0000 0.0000 0.0000
# 4 0.0000 0.0000 0.0000 28.8312 0.0000 0.0000
# 5 0.0000 0.0000 0.0000 0.0000 9.2793 0.0000
# 6 0.0000 0.0000 0.0000 0.0000 0.0000 4.2944
#
#
#
# Elastic Compliance Matrix: (Units=1/GPa)
#
#
# Indices 1 2 3 4 5 6 
#
# 1 0.016451 -0.000721 0.000064 0.000000 0.000000 0.000000
# 2 -0.000721 0.007969 -0.007961 0.000000 0.000000 0.000000
# 3 0.000064 -0.007961 0.017335 0.000000 0.000000 0.000000
# 4 0.000000 0.000000 0.000000 0.034685 0.000000 0.000000
# 5 0.000000 0.000000 0.000000 0.000000 0.107767 0.000000
# 6 0.000000 0.000000 0.000000 0.000000 0.000000 0.232860
#
#
# Mechanical properties :
#
#
# Convention : Reuss Voigt Hill
#
# Bulk Modulus (GPa) = 40.78590 71.56558 56.17574
# Shear Modulus (GPa) = 11.30004 27.16557 19.23280
#
# Velocity S-wave (km/s) = 2.23748 3.46919 2.91904
# Velocity P-wave (km/s) = 4.97440 6.91037 6.02071
#
# Compressibility (1/GPa) = 0.02451827
#
# Stress axis : x y z
#
# Youngs Moduli (GPa) = 60.78635 125.48806 57.68684
#
# Poissons Ratio (x) = 0.09046 -0.00368
# Poissons Ratio (y) = 0.04382 0.45926
# Poissons Ratio (z) = -0.00388 0.99904
#
# Static dielectric constant tensor:
#      x y z
#    x 1.931400 0.000000 0.000000 
#    y 0.000000 1.935360 0.000000 
#    z 0.000000 0.000000 1.807940 
# 
# From -- ./inp_files/41928.got.cif
#   From: 2010.05.17/outbox.cif.g08.bks.cpg/sg67_21_cif.got.tgz:41928.got - 2010.06.03 18:28:57.
