data_PCOD9501338
_publ_section_title
;
Structure prediction by ZEFSAII (Michael W. Deem and Ramdas Pophale) SiO2 
 PCOD9501338
Probable space group: C M M A
;
_chemical_formula_sum "Si O2"
_cell_formula_units_Z 72
_cell_length_a 16.233509
_cell_length_b 8.221220
_cell_length_c 26.137798
_cell_angle_alpha 90.000000
_cell_angle_beta 90.000000
_cell_angle_gamma 90.000000
_cell_volume 3488.330888
_symmetry_space_group_name_H-M "C M M A"
_symmetry_group_IT_number 67
_symmetry_cell_setting 'orthorhombic'
loop_
_space_group_symop_operation_xyz
x,y,z
-x,1/2-y,z
x,-y,-z
-x,1/2+y,-z
-x,-y,-z
x,1/2+y,-z
-x,y,z
x,1/2-y,z
1/2+x,1/2+y,z
1/2-x,-y,z
1/2+x,1/2-y,-z
1/2-x,y,-z
1/2-x,1/2-y,-z
1/2+x,y,-z
1/2-x,1/2+y,z
1/2+x,-y,z
loop_
_atom_site_type_symbol
_atom_site_label
_atom_site_fract_x
_atom_site_fract_y
_atom_site_fract_z
Si Si1 0.500000 0.553085 0.441453
Si Si2 0.660700 0.443765 0.620020
Si Si3 0.844621 0.555285 0.053888
Si Si4 0.598804 0.062122 0.162651
Si Si5 0.404190 0.553062 0.727100
O O1 0.500000 0.750000 0.439262
O O2 0.500000 0.500000 0.500000
O O3 0.582601 0.494234 0.412608
O O4 0.658903 0.250000 0.618374
O O5 0.750000 0.500000 0.601321
O O6 0.647053 0.497886 0.678528
O O7 0.850401 0.750000 0.054221
O O8 0.750000 0.500000 0.053029
O O9 0.879096 0.488967 0.107695
O O10 0.883361 0.500000 0.000000
O O11 0.500000 0.066268 0.166014
O O12 0.628506 0.250000 0.161307
O O13 0.626384 0.990990 0.217278
O O14 0.500000 0.501724 0.719782
O O15 0.403921 0.750000 0.729284
#
# Coordination Sequence:
#
# PCOD9501338 Si02
#       5
#     8  16  16  16  16
#     4  10  24  44  66  90 124 162 199 244 293 340
#     4  11  23  40  61  91 125 159 200 245 293 344
#     4  10  19  32  49  67  94 131 172 220 272 327
#     4   8  16  31  51  76 104 135 174 220 272 329
#     4   9  17  33  58  84 112 150 190 230 285 349
#
# _framework density 20.640243999999999
#
# number of rings (size 3 to 8) (size 9 to 14) (size 15 to 20)
#    0.000    2.444    1.111    3.333    0.000    3.556 
#    0.000    6.667    0.000    4.667    0.000    0.000 
#    0.000    0.000    0.000    0.000    0.000    0.000 
#
# Total GULP energy -200721.621841 kJ/mol
# GULP energy per Si atom -5575.600607 kJ/mol
# Density = 2.059327 g / cm^3
# Si number density = 20.640244 Si / 1000 Ang^3
#
#
#
# Elastic Constant Matrix: (Units=GPa)
#
#
# Indices 1 2 3 4 5 6 
#
# 1 92.5628 11.0391 68.9774 0.0000 0.0000 0.0000
# 2 11.0391 24.9432 16.1762 0.0000 0.0000 0.0000
# 3 68.9774 16.1762 182.5037 0.0000 0.0000 0.0000
# 4 0.0000 0.0000 0.0000 27.7064 0.0000 0.0000
# 5 0.0000 0.0000 0.0000 0.0000 -13.7514 0.0000
# 6 0.0000 0.0000 0.0000 0.0000 0.0000 16.7042
#
#
#
# Elastic Compliance Matrix: (Units=1/GPa)
#
#
# Indices 1 2 3 4 5 6 
#
# 1 0.015276 -0.003200 -0.005490 0.000000 0.000000 0.000000
# 2 -0.003200 0.043207 -0.002620 0.000000 0.000000 0.000000
# 3 -0.005490 -0.002620 0.007787 0.000000 0.000000 0.000000
# 4 0.000000 0.000000 0.000000 0.036093 0.000000 0.000000
# 5 0.000000 0.000000 0.000000 0.000000 -0.072720 0.000000
# 6 0.000000 0.000000 0.000000 0.000000 0.000000 0.059865
#
#
# Mechanical properties :
#
#
# Convention : Reuss Voigt Hill
#
# Bulk Modulus (GPa) = 22.91028 54.71054 38.81041
# Shear Modulus (GPa) = 39.47016 19.71963 29.59490
#
# Velocity S-wave (km/s) = 4.37772 3.09430 3.79072
# Velocity P-wave (km/s) = 6.05611 6.27141 6.16470
#
# Compressibility (1/GPa) = 0.04364852
#
# Stress axis : x y z
#
# Youngs Moduli (GPa) = 65.46090 23.14462 128.42709
#
# Poissons Ratio (x) = 0.07407 0.70507
# Poissons Ratio (y) = 0.20950 0.33648
# Poissons Ratio (z) = 0.35938 0.06064
#
# Static dielectric constant tensor:
#      x y z
#    x 1.740590 0.000000 0.000000 
#    y 0.000000 1.736930 0.000000 
#    z 0.000000 0.000000 1.784440 
# 
# From -- ./inp_files/44248.got.cif
#   From: 2010.05.17/outbox.cif.g08.bks.cpg/sg67_23_cif.got.tgz:44248.got - 2010.06.03 18:28:57.
