data_PCOD9501319
_publ_section_title
;
Structure prediction by ZEFSAII (Michael W. Deem and Ramdas Pophale) SiO2 
 PCOD9501319
Probable space group: C M M A
;
_chemical_formula_sum "Si O2"
_cell_formula_units_Z 80
_cell_length_a 18.421364
_cell_length_b 22.393702
_cell_length_c 10.042374
_cell_angle_alpha 90.000000
_cell_angle_beta 90.000000
_cell_angle_gamma 90.000000
_cell_volume 4142.705588
_symmetry_space_group_name_H-M "C M M A"
_symmetry_group_IT_number 67
_symmetry_cell_setting 'orthorhombic'
loop_
_space_group_symop_operation_xyz
x,y,z
-x,1/2-y,z
x,-y,-z
-x,1/2+y,-z
-x,-y,-z
x,1/2+y,-z
-x,y,z
x,1/2-y,z
1/2+x,1/2+y,z
1/2-x,-y,z
1/2+x,1/2-y,-z
1/2-x,y,-z
1/2-x,1/2-y,-z
1/2+x,y,-z
1/2-x,1/2+y,z
1/2+x,-y,z
loop_
_atom_site_type_symbol
_atom_site_label
_atom_site_fract_x
_atom_site_fract_y
_atom_site_fract_z
Si Si1 0.275144 0.066807 0.349475
Si Si2 0.076939 0.429655 0.016159
Si Si3 0.082540 0.380127 0.717588
Si Si4 0.801160 0.856950 0.872353
Si Si5 0.910622 0.250000 0.098558
Si Si6 0.413138 0.750000 0.778822
O O1 0.250000 0.076284 0.500000
O O2 0.361885 0.074178 0.346718
O O3 0.245053 0.118489 0.251254
O O4 0.250000 0.000000 0.308507
O O5 0.149528 0.413062 0.089154
O O6 0.000000 0.410498 0.080506
O O7 0.074725 0.500000 0.000000
O O8 0.079664 0.397133 0.873762
O O9 0.110763 0.311849 0.712763
O O10 0.000000 0.383391 0.666552
O O11 0.862735 0.806220 0.850092
O O12 0.750000 0.841071 0.000000
O O13 0.000000 0.250000 0.121906
O O14 0.899923 0.250000 0.937528
O O15 0.500000 0.750000 0.766989
#
# Coordination Sequence:
#
# PCOD9501319 Si02
#       6
#    16  16  16  16   8   8
#     4  11  25  44  61  87 124 162 201 254 312 363
#     4  10  19  31  53  88 122 155 197 249 300 351
#     4  10  19  37  61  88 119 160 204 244 295 369
#     4  12  22  35  62  91 122 156 206 251 308 356
#     4  11  21  37  57  90 130 163 192 250 314 365
#     4   9  16  31  59  90 124 157 196 244 297 353
#
# _framework density 19.311050000000002
#
# number of rings (size 3 to 8) (size 9 to 14) (size 15 to 20)
#    0.000    1.400    4.000    2.100    0.000    0.800 
#    0.000    7.000    0.000    1.200    0.000    0.000 
#    0.000    0.000    0.000    0.000    0.000    0.000 
#
# Total GULP energy -222850.681050 kJ/mol
# GULP energy per Si atom -5571.267026 kJ/mol
# Density = 1.926710 g / cm^3
# Si number density = 19.311050 Si / 1000 Ang^3
#
#
#
# Elastic Constant Matrix: (Units=GPa)
#
#
# Indices 1 2 3 4 5 6 
#
# 1 139.8770 54.2130 29.6676 0.0000 0.0000 0.0000
# 2 54.2130 114.3279 13.5676 0.0000 0.0000 0.0000
# 3 29.6676 13.5676 43.6392 0.0000 0.0000 0.0000
# 4 0.0000 0.0000 0.0000 5.1450 0.0000 0.0000
# 5 0.0000 0.0000 0.0000 0.0000 29.5682 0.0000
# 6 0.0000 0.0000 0.0000 0.0000 0.0000 -18.3411
#
#
#
# Elastic Compliance Matrix: (Units=1/GPa)
#
#
# Indices 1 2 3 4 5 6 
#
# 1 0.009869 -0.004032 -0.005456 0.000000 0.000000 0.000000
# 2 -0.004032 0.010729 -0.000594 0.000000 0.000000 0.000000
# 3 -0.005456 -0.000594 0.026809 0.000000 0.000000 0.000000
# 4 0.000000 0.000000 0.000000 0.194363 0.000000 0.000000
# 5 0.000000 0.000000 0.000000 0.000000 0.033820 0.000000
# 6 0.000000 0.000000 0.000000 0.000000 0.000000 -0.054522
#
#
# Mechanical properties :
#
#
# Convention : Reuss Voigt Hill
#
# Bulk Modulus (GPa) = 36.70744 54.74893 45.72819
# Shear Modulus (GPa) = 19.97489 16.63414 18.30452
#
# Velocity S-wave (km/s) = 3.21966 2.93811 3.08210
# Velocity P-wave (km/s) = 5.73336 6.31844 6.03299
#
# Compressibility (1/GPa) = 0.02724243
#
# Stress axis : x y z
#
# Youngs Moduli (GPa) = 101.32593 93.20159 37.30088
#
# Poissons Ratio (x) = 0.37582 0.20350
# Poissons Ratio (y) = 0.40859 0.02217
# Poissons Ratio (z) = 0.55281 0.05541
#
# Static dielectric constant tensor:
#      x y z
#    x 1.720850 0.000000 0.000000 
#    y 0.000000 1.735140 0.000000 
#    z 0.000000 0.000000 1.670910 
# 
# From -- ./inp_files/19392.got.cif
#   From: 2010.05.17/outbox.cif.g08.bks.cpg/sg67_10_cif.got.tgz:19392.got - 2010.06.03 18:28:57.
