data_PCOD9501783
_publ_section_title
;
Structure prediction by ZEFSAII (Michael W. Deem and Ramdas Pophale) SiO2 
 PCOD9501783
Probable space group: C M M A
;
_chemical_formula_sum "Si O2"
_cell_formula_units_Z 80
_cell_length_a 8.522595
_cell_length_b 27.066217
_cell_length_c 19.556509
_cell_angle_alpha 90.000000
_cell_angle_beta 90.000000
_cell_angle_gamma 90.000000
_cell_volume 4511.186091
_symmetry_space_group_name_H-M "C M M A"
_symmetry_group_IT_number 67
_symmetry_cell_setting 'orthorhombic'
loop_
_space_group_symop_operation_xyz
x,y,z
-x,1/2-y,z
x,-y,-z
-x,1/2+y,-z
-x,-y,-z
x,1/2+y,-z
-x,y,z
x,1/2-y,z
1/2+x,1/2+y,z
1/2-x,-y,z
1/2+x,1/2-y,-z
1/2-x,y,-z
1/2-x,1/2-y,-z
1/2+x,y,-z
1/2-x,1/2+y,z
1/2+x,-y,z
loop_
_atom_site_type_symbol
_atom_site_label
_atom_site_fract_x
_atom_site_fract_y
_atom_site_fract_z
Si Si1 0.813088 0.446450 0.671051
Si Si2 0.689876 0.642173 0.077592
Si Si3 0.311333 0.946504 0.175171
Si Si4 0.188956 0.858277 0.577879
Si Si5 0.188873 0.250000 0.422345
Si Si6 0.189176 0.750000 0.922242
O O1 0.750000 0.500000 0.647654
O O2 0.749338 0.438687 0.747863
O O3 0.755636 0.402494 0.622820
O O4 0.000000 0.448204 0.672732
O O5 0.500000 0.641333 0.075613
O O6 0.742163 0.597401 0.125473
O O7 0.739343 0.696467 0.105715
O O8 0.750000 0.636994 0.000000
O O9 0.500000 0.947420 0.176627
O O10 0.250000 0.000000 0.151948
O O11 0.250000 0.862035 0.500000
O O12 0.237123 0.803639 0.606068
O O13 0.000000 0.860835 0.577450
O O14 0.250000 0.250000 0.500000
O O15 0.000000 0.250000 0.423062
O O16 0.000000 0.750000 0.922029
O O17 0.250000 0.750000 0.000000
#
# Coordination Sequence:
#
# PCOD9501783 Si02
#       6
#    16  16  16  16   8   8
#     4  11  22  37  55  75 100 135 172 212 258 306
#     4   9  18  31  51  75 100 128 163 203 246 293
#     4  10  20  35  52  72  98 132 168 206 250 301
#     4  10  19  34  55  81 108 136 170 209 250 298
#     4   8  16  30  51  76 105 137 167 201 247 296
#     4   8  14  28  47  70  97 127 159 197 243 292
#
# _framework density 17.733695999999998
#
# number of rings (size 3 to 8) (size 9 to 14) (size 15 to 20)
#    0.000    2.400    0.000    4.200    0.000    3.200 
#    0.000    5.000    0.000    3.600    0.000    0.000 
#    0.000    0.000    0.000    0.000    0.000    0.000 
#
# Total GULP energy -222914.965642 kJ/mol
# GULP energy per Si atom -5572.874141 kJ/mol
# Density = 1.769333 g / cm^3
# Si number density = 17.733696 Si / 1000 Ang^3
#
#
#
# Elastic Constant Matrix: (Units=GPa)
#
#
# Indices 1 2 3 4 5 6 
#
# 1 60.7630 47.1753 20.8636 0.0000 0.0000 0.0000
# 2 47.1753 231.0178 89.9006 0.0000 0.0000 0.0000
# 3 20.8636 89.9006 53.4148 0.0000 0.0000 0.0000
# 4 0.0000 0.0000 0.0000 63.4672 0.0000 0.0000
# 5 0.0000 0.0000 0.0000 0.0000 25.3251 0.0000
# 6 0.0000 0.0000 0.0000 0.0000 0.0000 22.1615
#
#
#
# Elastic Compliance Matrix: (Units=1/GPa)
#
#
# Indices 1 2 3 4 5 6 
#
# 1 0.019689 -0.002979 -0.002677 0.000000 0.000000 0.000000
# 2 -0.002979 0.012996 -0.020710 0.000000 0.000000 0.000000
# 3 -0.002677 -0.020710 0.054623 0.000000 0.000000 0.000000
# 4 0.000000 0.000000 0.000000 0.015756 0.000000 0.000000
# 5 0.000000 0.000000 0.000000 0.000000 0.039486 0.000000
# 6 0.000000 0.000000 0.000000 0.000000 0.000000 0.045123
#
#
# Mechanical properties :
#
#
# Convention : Reuss Voigt Hill
#
# Bulk Modulus (GPa) = 28.92049 73.45272 51.18660
# Shear Modulus (GPa) = 19.84659 34.67449 27.26054
#
# Velocity S-wave (km/s) = 3.34899 4.42666 3.92499
# Velocity P-wave (km/s) = 5.59446 8.22416 7.03331
#
# Compressibility (1/GPa) = 0.03457756
#
# Stress axis : x y z
#
# Youngs Moduli (GPa) = 50.78892 76.94451 18.30718
#
# Poissons Ratio (x) = 0.22923 0.04900
# Poissons Ratio (y) = 0.15131 0.37914
# Poissons Ratio (z) = 0.13594 1.59353
#
# Static dielectric constant tensor:
#      x y z
#    x 1.612150 0.000000 0.000000 
#    y 0.000000 1.656600 0.000000 
#    z 0.000000 0.000000 1.556190 
# 
# From -- ./inp_files/36902.got.cif
#   From: 2010.05.17/outbox.cif.g08.bks.cpg/sg67_19_cif.got.tgz:36902.got - 2010.06.03 18:28:57.
