data_PCOD9501900
_publ_section_title
;
Structure prediction by ZEFSAII (Michael W. Deem and Ramdas Pophale) SiO2 
 PCOD9501900
Probable space group: C M M A
;
_chemical_formula_sum "Si O2"
_cell_formula_units_Z 96
_cell_length_a 19.825630
_cell_length_b 14.722764
_cell_length_c 14.321786
_cell_angle_alpha 90.000000
_cell_angle_beta 90.000000
_cell_angle_gamma 90.000000
_cell_volume 4180.358498
_symmetry_space_group_name_H-M "C M M A"
_symmetry_group_IT_number 67
_symmetry_cell_setting 'orthorhombic'
loop_
_space_group_symop_operation_xyz
x,y,z
-x,1/2-y,z
x,-y,-z
-x,1/2+y,-z
-x,-y,-z
x,1/2+y,-z
-x,y,z
x,1/2-y,z
1/2+x,1/2+y,z
1/2-x,-y,z
1/2+x,1/2-y,-z
1/2-x,y,-z
1/2-x,1/2-y,-z
1/2+x,y,-z
1/2-x,1/2+y,z
1/2+x,-y,z
loop_
_atom_site_type_symbol
_atom_site_label
_atom_site_fract_x
_atom_site_fract_y
_atom_site_fract_z
Si Si1 0.500000 0.856801 0.237909
Si Si2 0.855031 0.141969 0.000683
Si Si3 0.000000 0.357851 0.015011
Si Si4 0.753681 0.897159 0.841628
Si Si5 0.104179 0.551627 0.630615
Si Si6 0.760241 0.651251 0.636339
Si Si7 0.890012 0.143520 0.564362
O O1 0.500000 0.750000 0.260158
O O2 0.500000 0.865606 0.126872
O O3 0.565183 0.903074 0.284300
O O4 0.859796 0.250000 0.004460
O O5 0.822578 0.116510 0.100291
O O6 0.929019 0.103783 0.980928
O O7 0.803697 0.119039 0.918568
O O8 0.000000 0.250000 0.991685
O O9 0.743144 0.843990 0.746504
O O10 0.750000 0.000000 0.812549
O O11 0.184059 0.572793 0.630967
O O12 0.089002 0.443850 0.627473
O O13 0.085079 0.607176 0.536280
O O14 0.791487 0.750000 0.611209
O O15 0.691793 0.640959 0.577406
O O16 0.909412 0.250000 0.581582
#
# Coordination Sequence:
#
# PCOD9501900 Si02
#       7
#     8  16   8  16  16  16  16
#     4  11  22  37  60  90 120 156 202 248 295 348
#     4  10  19  35  56  80 110 146 189 240 301 357
#     4   9  20  36  58  86 116 150 192 243 297 355
#     4  11  21  34  54  84 116 148 192 243 296 356
#     4  11  22  38  60  88 121 157 198 246 295 348
#     4  11  21  36  60  88 118 153 196 249 302 352
#     4  10  22  38  58  86 120 158 198 242 296 352
#
# _framework density 22.964537
#
# number of rings (size 3 to 8) (size 9 to 14) (size 15 to 20)
#    0.000    1.500    0.000    7.500    0.000    5.333 
#    0.000    2.917    0.000    4.000    0.000    3.500 
#    0.000    2.667    0.000    0.000    0.000    0.000 
#
# Total GULP energy -268043.909527 kJ/mol
# GULP energy per Si atom -5584.248115 kJ/mol
# Density = 2.291227 g / cm^3
# Si number density = 22.964537 Si / 1000 Ang^3
#
#
#
# Elastic Constant Matrix: (Units=GPa)
#
#
# Indices 1 2 3 4 5 6 
#
# 1 98.6180 3.8005 10.7593 0.0000 0.0000 0.0000
# 2 3.8005 170.6124 1.0076 0.0000 0.0000 0.0000
# 3 10.7593 1.0076 47.3826 0.0000 0.0000 0.0000
# 4 0.0000 0.0000 0.0000 28.6496 0.0000 0.0000
# 5 0.0000 0.0000 0.0000 0.0000 9.2017 0.0000
# 6 0.0000 0.0000 0.0000 0.0000 0.0000 35.8956
#
#
#
# Elastic Compliance Matrix: (Units=1/GPa)
#
#
# Indices 1 2 3 4 5 6 
#
# 1 0.010406 -0.000218 -0.002358 0.000000 0.000000 0.000000
# 2 -0.000218 0.005867 -0.000075 0.000000 0.000000 0.000000
# 3 -0.002358 -0.000075 0.021642 0.000000 0.000000 0.000000
# 4 0.000000 0.000000 0.000000 0.034905 0.000000 0.000000
# 5 0.000000 0.000000 0.000000 0.000000 0.108676 0.000000
# 6 0.000000 0.000000 0.000000 0.000000 0.000000 0.027859
#
#
# Mechanical properties :
#
#
# Convention : Reuss Voigt Hill
#
# Bulk Modulus (GPa) = 30.66409 38.63866 34.65137
# Shear Modulus (GPa) = 22.17033 34.81908 28.49470
#
# Velocity S-wave (km/s) = 3.11049 3.89808 3.52634
# Velocity P-wave (km/s) = 5.12659 6.09278 5.63045
#
# Compressibility (1/GPa) = 0.03261143
#
# Stress axis : x y z
#
# Youngs Moduli (GPa) = 96.10006 170.45829 46.20670
#
# Poissons Ratio (x) = 0.03714 0.10897
# Poissons Ratio (y) = 0.02094 0.00348
# Poissons Ratio (z) = 0.22663 0.01283
#
# Static dielectric constant tensor:
#      x y z
#    x 1.892470 0.000000 0.000000 
#    y 0.000000 1.873230 0.000000 
#    z 0.000000 0.000000 2.571320 
# 
# From -- ./inp_files/29348.got.cif
#   From: 2010.05.17/outbox.cif.g08.bks.cpg/sg67_15_cif.got.tgz:29348.got - 2010.06.03 18:28:57.
