data_PCOD9501417
_publ_section_title
;
Structure prediction by ZEFSAII (Michael W. Deem and Ramdas Pophale) SiO2 
 PCOD9501417
Probable space group: C M M A
;
_chemical_formula_sum "Si O2"
_cell_formula_units_Z 116
_cell_length_a 25.642055
_cell_length_b 7.821129
_cell_length_c 26.589378
_cell_angle_alpha 90.000000
_cell_angle_beta 90.000000
_cell_angle_gamma 90.000000
_cell_volume 5332.494971
_symmetry_space_group_name_H-M "C M M A"
_symmetry_group_IT_number 67
_symmetry_cell_setting 'orthorhombic'
loop_
_space_group_symop_operation_xyz
x,y,z
-x,1/2-y,z
x,-y,-z
-x,1/2+y,-z
-x,-y,-z
x,1/2+y,-z
-x,y,z
x,1/2-y,z
1/2+x,1/2+y,z
1/2-x,-y,z
1/2+x,1/2-y,-z
1/2-x,y,-z
1/2-x,1/2-y,-z
1/2+x,y,-z
1/2-x,1/2+y,z
1/2+x,-y,z
loop_
_atom_site_type_symbol
_atom_site_label
_atom_site_fract_x
_atom_site_fract_y
_atom_site_fract_z
Si Si1 0.415414 0.558328 0.665034
Si Si2 0.062397 0.564383 0.553982
Si Si3 0.423984 0.951319 0.942899
Si Si4 0.000000 0.750000 0.906308
Si Si5 0.807196 0.955352 0.917982
Si Si6 0.193945 0.454199 0.301570
Si Si7 0.943046 0.541769 0.225127
Si Si8 0.831129 0.548583 0.808612
O O1 0.433138 0.750000 0.672032
O O2 0.430403 0.517072 0.608349
O O3 0.353569 0.536847 0.669084
O O4 0.436444 0.474417 0.716858
O O5 0.082250 0.500000 0.500000
O O6 0.085918 0.750000 0.560286
O O7 0.000000 0.572734 0.548001
O O8 0.436355 0.750000 0.932175
O O9 0.454206 0.095439 0.910557
O O10 0.360991 0.971742 0.940085
O O11 0.439292 0.000000 0.000000
O O12 0.812114 0.750000 0.918961
O O13 0.808650 0.022117 0.860059
O O14 0.750000 0.000000 0.939193
O O15 0.186410 0.250000 0.301341
O O16 0.250000 0.500000 0.322532
O O17 0.190346 0.522348 0.244069
O O18 0.940886 0.750000 0.223929
O O19 0.893313 0.477779 0.194746
O O20 0.000000 0.487141 0.206721
O O21 0.819970 0.750000 0.808339
#
# Coordination Sequence:
#
# PCOD9501417 Si02
#       8
#    16  16  16   4  16  16  16  16
#     4  10  19  32  51  74 102 139 177 224 279 333
#     4  10  20  33  50  74 103 135 172 215 261 321
#     4  12  25  44  73 106 135 176 220 268 330 383
#     4  12  24  48  74 104 144 170 222 274 314 398
#     4  11  23  43  64  93 132 171 217 271 324 386
#     4  10  19  33  53  80 106 140 184 231 280 333
#     4   9  18  32  50  74 109 146 189 238 285 348
#     4   9  20  36  56  80 115 154 197 243 300 354
#
# _framework density 21.753419000000001
#
# number of rings (size 3 to 8) (size 9 to 14) (size 15 to 20)
#    0.000    1.793    1.379    2.897    0.000    4.138 
#    1.241    1.379    0.000    0.414    0.000    2.897 
#    0.000    0.000    0.000    0.000    0.000    0.000 
#
# Total GULP energy -323049.616117 kJ/mol
# GULP energy per Si atom -5569.820968 kJ/mol
# Density = 2.170391 g / cm^3
# Si number density = 21.753419 Si / 1000 Ang^3
#
#
#
# Elastic Constant Matrix: (Units=GPa)
#
#
# Indices 1 2 3 4 5 6 
#
# 1 127.3581 2.4707 15.3914 0.0000 0.0000 0.0000
# 2 2.4707 90.7984 7.8447 0.0000 0.0000 0.0000
# 3 15.3914 7.8447 73.7901 0.0000 0.0000 0.0000
# 4 0.0000 0.0000 0.0000 19.0047 0.0000 0.0000
# 5 0.0000 0.0000 0.0000 0.0000 -19.4704 0.0000
# 6 0.0000 0.0000 0.0000 0.0000 0.0000 32.4378
#
#
#
# Elastic Compliance Matrix: (Units=1/GPa)
#
#
# Indices 1 2 3 4 5 6 
#
# 1 0.008055 -0.000075 -0.001672 0.000000 0.000000 0.000000
# 2 -0.000075 0.011116 -0.001166 0.000000 0.000000 0.000000
# 3 -0.001672 -0.001166 0.014025 0.000000 0.000000 0.000000
# 4 0.000000 0.000000 0.000000 0.052619 0.000000 0.000000
# 5 0.000000 0.000000 0.000000 0.000000 -0.051360 0.000000
# 6 0.000000 0.000000 0.000000 0.000000 0.000000 0.030828
#
#
# Mechanical properties :
#
#
# Convention : Reuss Voigt Hill
#
# Bulk Modulus (GPa) = 36.53636 38.15112 37.34374
# Shear Modulus (GPa) = 62.31856 24.14374 43.23115
#
# Velocity S-wave (km/s) = 5.35816 3.33510 4.46278
# Velocity P-wave (km/s) = 7.42375 5.69268 6.61508
#
# Compressibility (1/GPa) = 0.02737000
#
# Stress axis : x y z
#
# Youngs Moduli (GPa) = 124.13990 89.95881 71.30253
#
# Poissons Ratio (x) = 0.00672 0.11924
# Poissons Ratio (y) = 0.00927 0.08315
# Poissons Ratio (z) = 0.20760 0.10491
#
# Static dielectric constant tensor:
#      x y z
#    x 1.768380 0.000000 0.000000 
#    y 0.000000 1.819380 0.000000 
#    z 0.000000 0.000000 0.237010 
# 
# From -- ./inp_files/44897.got.cif
#   From: 2010.05.17/outbox.cif.g08.bks.cpg/sg67_23_cif.got.tgz:44897.got - 2010.06.03 18:28:57.
