data_PCOD9501777
_publ_section_title
;
Structure prediction by ZEFSAII (Michael W. Deem and Ramdas Pophale) SiO2 
 PCOD9501777
Probable space group: C M M A
;
_chemical_formula_sum "Si O2"
_cell_formula_units_Z 116
_cell_length_a 34.172179
_cell_length_b 18.599685
_cell_length_c 10.373501
_cell_angle_alpha 90.000000
_cell_angle_beta 90.000000
_cell_angle_gamma 90.000000
_cell_volume 6593.311812
_symmetry_space_group_name_H-M "C M M A"
_symmetry_group_IT_number 67
_symmetry_cell_setting 'orthorhombic'
loop_
_space_group_symop_operation_xyz
x,y,z
-x,1/2-y,z
x,-y,-z
-x,1/2+y,-z
-x,-y,-z
x,1/2+y,-z
-x,y,z
x,1/2-y,z
1/2+x,1/2+y,z
1/2-x,-y,z
1/2+x,1/2-y,-z
1/2-x,y,-z
1/2-x,1/2-y,-z
1/2+x,y,-z
1/2-x,1/2+y,z
1/2+x,-y,z
loop_
_atom_site_type_symbol
_atom_site_label
_atom_site_fract_x
_atom_site_fract_y
_atom_site_fract_z
Si Si1 0.190151 0.454368 0.622572
Si Si2 0.750000 0.000000 0.000000
Si Si3 0.894609 0.050599 0.125559
Si Si4 0.601865 0.549660 0.620955
Si Si5 0.046643 0.165967 0.223232
Si Si6 0.954187 0.334612 0.528049
Si Si7 0.250697 0.830497 0.656406
Si Si8 0.308915 0.083590 0.818583
O O1 0.205420 0.500000 0.500000
O O2 0.146679 0.426106 0.593094
O O3 0.217713 0.392806 0.677662
O O4 0.186178 0.515047 0.727772
O O5 0.721867 0.054365 0.922393
O O6 0.928375 0.110138 0.140483
O O7 0.852767 0.092846 0.128167
O O8 0.898704 0.997600 0.249591
O O9 0.896474 0.000000 0.000000
O O10 0.590396 0.500000 0.500000
O O11 0.572956 0.616693 0.616840
O O12 0.055381 0.250000 0.195372
O O13 0.055344 0.154078 0.375980
O O14 0.000000 0.155819 0.206654
O O15 0.949115 0.250000 0.553633
O O16 0.000000 0.352312 0.545023
O O17 0.261256 0.750000 0.699096
O O18 0.250000 0.829171 0.500000
O O19 0.211106 0.855092 0.729717
#
# Coordination Sequence:
#
# PCOD9501777 Si02
#       8
#    16   4  16  16  16  16  16  16
#     4  10  19  34  55  77 108 142 179 231 289 340
#     4  12  20  36  64  76  94 160 210 218 260 356
#     4  11  23  38  58  89 121 153 202 249 290 347
#     4  10  20  34  55  86 111 146 194 247 292 338
#     4   9  19  37  61  87 118 157 194 236 299 364
#     4   9  18  34  57  85 117 153 192 236 296 362
#     4  11  22  34  54  85 112 138 181 238 294 341
#     4  11  22  37  59  80 109 152 197 232 284 347
#
# _framework density 17.593586999999999
#
# number of rings (size 3 to 8) (size 9 to 14) (size 15 to 20)
#    0.000    1.793    4.828    0.828    0.000    2.207 
#    0.000    3.793    0.000    4.138    0.000    0.000 
#    0.000    0.000    0.000    0.000    0.000    0.000 
#
# Total GULP energy -323124.458003 kJ/mol
# GULP energy per Si atom -5571.111345 kJ/mol
# Density = 1.755354 g / cm^3
# Si number density = 17.593587 Si / 1000 Ang^3
#
#
#
# Elastic Constant Matrix: (Units=GPa)
#
#
# Indices 1 2 3 4 5 6 
#
# 1 92.2176 58.1537 31.4781 0.0000 0.0000 0.0000
# 2 58.1537 88.0917 23.7848 0.0000 0.0000 0.0000
# 3 31.4781 23.7848 72.9306 0.0000 0.0000 0.0000
# 4 0.0000 0.0000 0.0000 -3.9932 0.0000 0.0000
# 5 0.0000 0.0000 0.0000 0.0000 32.7932 0.0000
# 6 0.0000 0.0000 0.0000 0.0000 0.0000 -80.1155
#
#
#
# Elastic Compliance Matrix: (Units=1/GPa)
#
#
# Indices 1 2 3 4 5 6 
#
# 1 0.019966 -0.011902 -0.004736 0.000000 0.000000 0.000000
# 2 -0.011902 0.019543 -0.001236 0.000000 0.000000 0.000000
# 3 -0.004736 -0.001236 0.016159 0.000000 0.000000 0.000000
# 4 0.000000 0.000000 0.000000 -0.250428 0.000000 0.000000
# 5 0.000000 0.000000 0.000000 0.000000 0.030494 0.000000
# 6 0.000000 0.000000 0.000000 0.000000 0.000000 -0.012482
#
#
# Mechanical properties :
#
#
# Convention : Reuss Voigt Hill
#
# Bulk Modulus (GPa) = 50.20325 53.34146 51.77236
# Shear Modulus (GPa) = -37.21360 -0.94153 -19.07756
#
# Velocity S-wave (km/s) = -4.60410 -0.73234 -3.29652
# Velocity P-wave (km/s) = 0.57732 5.44696 3.87316
#
# Compressibility (1/GPa) = 0.01991903
#
# Stress axis : x y z
#
# Youngs Moduli (GPa) = 50.08506 51.17019 61.88466
#
# Poissons Ratio (x) = 0.60902 0.29310
# Poissons Ratio (y) = 0.59610 0.07651
# Poissons Ratio (z) = 0.23721 0.06327
#
# Static dielectric constant tensor:
#      x y z
#    x 1.671740 0.000000 0.000000 
#    y 0.000000 1.581760 0.000000 
#    z 0.000000 0.000000 1.608350 
# 
# From -- ./inp_files/23951.got.cif
#   From: 2010.05.17/outbox.cif.g08.bks.cpg/sg67_12_cif.got.tgz:23951.got - 2010.06.03 18:28:57.
