data_PCOD9501269
_publ_section_title
;
Structure prediction by ZEFSAII (Michael W. Deem and Ramdas Pophale) SiO2 
 PCOD9501269
Probable space group: C M M A
;
_chemical_formula_sum "Si O2"
_cell_formula_units_Z 104
_cell_length_a 30.774456
_cell_length_b 9.390906
_cell_length_c 21.500980
_cell_angle_alpha 90.000000
_cell_angle_beta 90.000000
_cell_angle_gamma 90.000000
_cell_volume 6213.783725
_symmetry_space_group_name_H-M "C M M A"
_symmetry_group_IT_number 67
_symmetry_cell_setting 'orthorhombic'
loop_
_space_group_symop_operation_xyz
x,y,z
-x,1/2-y,z
x,-y,-z
-x,1/2+y,-z
-x,-y,-z
x,1/2+y,-z
-x,y,z
x,1/2-y,z
1/2+x,1/2+y,z
1/2-x,-y,z
1/2+x,1/2-y,-z
1/2-x,y,-z
1/2-x,1/2-y,-z
1/2+x,y,-z
1/2-x,1/2+y,z
1/2+x,-y,z
loop_
_atom_site_type_symbol
_atom_site_label
_atom_site_fract_x
_atom_site_fract_y
_atom_site_fract_z
Si Si1 0.447717 0.250000 0.599006
Si Si2 0.914662 0.421794 0.114477
Si Si3 0.000000 0.923886 0.066714
Si Si4 0.887602 0.910436 0.230639
Si Si5 0.668788 0.577766 0.939205
Si Si6 0.707684 0.415269 0.197406
Si Si7 0.947858 0.453277 0.652687
Si Si8 0.447837 0.250000 0.458838
O O1 0.500000 0.250000 0.591987
O O2 0.437328 0.115105 0.639734
O O3 0.429807 0.250000 0.528485
O O4 0.917715 0.250000 0.105581
O O5 0.957964 0.509379 0.099311
O O6 0.903962 0.466308 0.185062
O O7 0.876496 0.494119 0.073549
O O8 0.000000 0.750000 0.064507
O O9 0.000000 0.000000 0.000000
O O10 0.890075 0.750000 0.200851
O O11 0.836137 0.938271 0.237520
O O12 0.917513 0.904837 0.291294
O O13 0.663629 0.750000 0.947755
O O14 0.695120 0.554636 0.874947
O O15 0.688172 0.500000 0.000000
O O16 0.718321 0.250000 0.200873
O O17 0.750000 0.500000 0.216484
O O18 0.937636 0.380651 0.586412
O O19 0.000000 0.431632 0.665000
O O20 0.500000 0.250000 0.465092
#
# Coordination Sequence:
#
# PCOD9501269 Si02
#       8
#     8  16   8  16  16  16  16   8
#     4   9  18  30  46  74 113 145 183 222 258 286
#     4  11  23  37  53  75 100 136 175 224 268 310
#     4  12  24  40  56  72  98 134 179 224 267 316
#     4  10  21  37  53  75 108 139 179 217 263 317
#     4  10  20  36  56  79 105 132 165 207 264 328
#     4   9  20  37  55  75 102 133 169 219 269 321
#     4  10  19  31  50  76 110 149 183 217 255 308
#     4   9  16  30  50  74 103 151 187 214 252 308
#
# _framework density 16.736985000000001
#
# number of rings (size 3 to 8) (size 9 to 14) (size 15 to 20)
#    0.000    2.000    0.769    4.385    2.154    5.231 
#    0.000    1.538    0.000    0.000    0.000    0.000 
#    0.000    3.692    0.000    0.000    0.000    0.000 
#
# Total GULP energy -289561.690792 kJ/mol
# GULP energy per Si atom -5568.494054 kJ/mol
# Density = 1.669889 g / cm^3
# Si number density = 16.736985 Si / 1000 Ang^3
#
#
#
# Elastic Constant Matrix: (Units=GPa)
#
#
# Indices 1 2 3 4 5 6 
#
# 1 87.8947 38.3058 27.7747 0.0000 0.0000 0.0000
# 2 38.3058 126.9505 21.1964 0.0000 0.0000 0.0000
# 3 27.7747 21.1964 61.2789 0.0000 0.0000 0.0000
# 4 0.0000 0.0000 0.0000 31.6999 0.0000 0.0000
# 5 0.0000 0.0000 0.0000 0.0000 6.4575 0.0000
# 6 0.0000 0.0000 0.0000 0.0000 0.0000 22.1909
#
#
#
# Elastic Compliance Matrix: (Units=1/GPa)
#
#
# Indices 1 2 3 4 5 6 
#
# 1 0.014616 -0.003507 -0.005412 0.000000 0.000000 0.000000
# 2 -0.003507 0.009201 -0.001593 0.000000 0.000000 0.000000
# 3 -0.005412 -0.001593 0.019323 0.000000 0.000000 0.000000
# 4 0.000000 0.000000 0.000000 0.031546 0.000000 0.000000
# 5 0.000000 0.000000 0.000000 0.000000 0.154859 0.000000
# 6 0.000000 0.000000 0.000000 0.000000 0.000000 0.045063
#
#
# Mechanical properties :
#
#
# Convention : Reuss Voigt Hill
#
# Bulk Modulus (GPa) = 45.21500 50.07531 47.64515
# Shear Modulus (GPa) = 16.50148 24.65946 20.58047
#
# Velocity S-wave (km/s) = 3.14336 3.84259 3.51043
# Velocity P-wave (km/s) = 6.34413 7.04778 6.70519
#
# Compressibility (1/GPa) = 0.02211656
#
# Stress axis : x y z
#
# Youngs Moduli (GPa) = 68.42046 108.68178 51.75236
#
# Poissons Ratio (x) = 0.38109 0.28006
# Poissons Ratio (y) = 0.23992 0.08246
# Poissons Ratio (z) = 0.37026 0.17317
#
# Static dielectric constant tensor:
#      x y z
#    x 1.568800 0.000000 0.000000 
#    y 0.000000 1.614840 0.000000 
#    z 0.000000 0.000000 1.587100 
# 
# From -- ./inp_files/42798.got.cif
#   From: 2010.05.17/outbox.cif.g08.bks.cpg/sg67_22_cif.got.tgz:42798.got - 2010.06.03 18:28:57.
