data_PCOD9501185
_publ_section_title
;
Structure prediction by ZEFSAII (Michael W. Deem and Ramdas Pophale) SiO2 
 PCOD9501185
Probable space group: C M M A
;
_chemical_formula_sum "Si O2"
_cell_formula_units_Z 88
_cell_length_a 26.746518
_cell_length_b 8.628823
_cell_length_c 22.977871
_cell_angle_alpha 90.000000
_cell_angle_beta 90.000000
_cell_angle_gamma 90.000000
_cell_volume 5303.085129
_symmetry_space_group_name_H-M "C M M A"
_symmetry_group_IT_number 67
_symmetry_cell_setting 'orthorhombic'
loop_
_space_group_symop_operation_xyz
x,y,z
-x,1/2-y,z
x,-y,-z
-x,1/2+y,-z
-x,-y,-z
x,1/2+y,-z
-x,y,z
x,1/2-y,z
1/2+x,1/2+y,z
1/2-x,-y,z
1/2+x,1/2-y,-z
1/2-x,y,-z
1/2-x,1/2-y,-z
1/2+x,y,-z
1/2-x,1/2+y,z
1/2+x,-y,z
loop_
_atom_site_type_symbol
_atom_site_label
_atom_site_fract_x
_atom_site_fract_y
_atom_site_fract_z
Si Si1 0.000000 0.938915 0.434679
Si Si2 0.693944 0.433965 0.059326
Si Si3 0.195778 0.436862 0.696040
Si Si4 0.091084 0.567198 0.354234
Si Si5 0.841292 0.432618 0.180762
Si Si6 0.555021 0.569930 0.236703
O O1 0.050911 0.992697 0.401475
O O2 0.000000 0.750000 0.433609
O O3 0.000000 0.000000 0.500000
O O4 0.695076 0.250000 0.055778
O O5 0.750000 0.500000 0.060454
O O6 0.671344 0.488011 0.120241
O O7 0.669753 0.500000 0.000000
O O8 0.196398 0.250000 0.696236
O O9 0.250000 0.500000 0.677615
O O10 0.148276 0.491016 0.656243
O O11 0.185028 0.495300 0.762026
O O12 0.095860 0.750000 0.364949
O O13 0.065067 0.536350 0.292232
O O14 0.828618 0.250000 0.178398
O O15 0.900222 0.451010 0.192236
O O16 0.500000 0.542305 0.212632
O O17 0.557745 0.750000 0.256756
#
# Coordination Sequence:
#
# PCOD9501185 Si02
#       6
#     8  16  16  16  16  16
#     4  10  20  34  52  76 102 130 163 204 245 286
#     4  11  21  34  50  68  91 121 158 198 242 289
#     4  10  19  31  48  72 100 131 163 199 243 293
#     4   9  18  32  50  71  99 131 163 199 243 290
#     4  10  19  31  47  70  99 128 159 197 240 289
#     4   9  17  29  48  73  99 126 157 195 240 286
#
# _framework density 16.594114999999999
#
# number of rings (size 3 to 8) (size 9 to 14) (size 15 to 20)
#    0.000    2.182    0.909    3.818    0.000    2.182 
#    0.000    0.000    0.000    1.091    0.000    3.818 
#    0.000    0.000    0.000    0.000    0.000    0.000 
#
# Total GULP energy -245104.609171 kJ/mol
# GULP energy per Si atom -5570.559299 kJ/mol
# Density = 1.655635 g / cm^3
# Si number density = 16.594115 Si / 1000 Ang^3
#
#
#
# Elastic Constant Matrix: (Units=GPa)
#
#
# Indices 1 2 3 4 5 6 
#
# 1 127.1968 31.1963 50.2911 0.0000 0.0000 0.0000
# 2 31.1963 59.9490 31.2856 0.0000 0.0000 0.0000
# 3 50.2911 31.2856 99.4651 0.0000 0.0000 0.0000
# 4 0.0000 0.0000 0.0000 19.4788 0.0000 0.0000
# 5 0.0000 0.0000 0.0000 0.0000 14.1360 0.0000
# 6 0.0000 0.0000 0.0000 0.0000 0.0000 15.2125
#
#
#
# Elastic Compliance Matrix: (Units=1/GPa)
#
#
# Indices 1 2 3 4 5 6 
#
# 1 0.010304 -0.003162 -0.004215 0.000000 0.000000 0.000000
# 2 -0.003162 0.020927 -0.004984 0.000000 0.000000 0.000000
# 3 -0.004215 -0.004984 0.013753 0.000000 0.000000 0.000000
# 4 0.000000 0.000000 0.000000 0.051338 0.000000 0.000000
# 5 0.000000 0.000000 0.000000 0.000000 0.070741 0.000000
# 6 0.000000 0.000000 0.000000 0.000000 0.000000 0.065735
#
#
# Mechanical properties :
#
#
# Convention : Reuss Voigt Hill
#
# Bulk Modulus (GPa) = 49.35398 56.90633 53.13015
# Shear Modulus (GPa) = 18.91974 21.35465 20.13719
#
# Velocity S-wave (km/s) = 3.38027 3.59120 3.48733
# Velocity P-wave (km/s) = 6.71129 7.18075 6.94998
#
# Compressibility (1/GPa) = 0.02026179
#
# Stress axis : x y z
#
# Youngs Moduli (GPa) = 97.04958 47.78482 72.71359
#
# Poissons Ratio (x) = 0.15111 0.30650
# Poissons Ratio (y) = 0.30689 0.36237
# Poissons Ratio (z) = 0.40909 0.23814
#
# Static dielectric constant tensor:
#      x y z
#    x 1.539140 0.000000 0.000000 
#    y 0.000000 1.575060 0.000000 
#    z 0.000000 0.000000 1.538770 
# 
# From -- ./inp_files/40138.got.cif
#   From: 2010.05.17/outbox.cif.g08.bks.cpg/sg67_21_cif.got.tgz:40138.got - 2010.06.03 18:28:57.
