data_PCOD9501010
_publ_section_title
;
Structure prediction by ZEFSAII (Michael W. Deem and Ramdas Pophale) SiO2 
 PCOD9501010
Probable space group: C M M A
;
_chemical_formula_sum "Si O2"
_cell_formula_units_Z 96
_cell_length_a 27.936368
_cell_length_b 8.848983
_cell_length_c 24.761133
_cell_angle_alpha 90.000000
_cell_angle_beta 90.000000
_cell_angle_gamma 90.000000
_cell_volume 6121.161198
_symmetry_space_group_name_H-M "C M M A"
_symmetry_group_IT_number 67
_symmetry_cell_setting 'orthorhombic'
loop_
_space_group_symop_operation_xyz
x,y,z
-x,1/2-y,z
x,-y,-z
-x,1/2+y,-z
-x,-y,-z
x,1/2+y,-z
-x,y,z
x,1/2-y,z
1/2+x,1/2+y,z
1/2-x,-y,z
1/2+x,1/2-y,-z
1/2-x,y,-z
1/2-x,1/2-y,-z
1/2+x,y,-z
1/2-x,1/2+y,z
1/2+x,-y,z
loop_
_atom_site_type_symbol
_atom_site_label
_atom_site_fract_x
_atom_site_fract_y
_atom_site_fract_z
Si Si1 0.303551 0.430811 0.446147
Si Si2 0.394745 0.930307 0.942714
Si Si3 0.945301 0.931284 0.840662
Si Si4 0.352747 0.069837 0.775635
Si Si5 0.696905 0.569910 0.673350
Si Si6 0.198028 0.431123 0.111272
O O1 0.326996 0.500000 0.500000
O O2 0.300822 0.250000 0.451772
O O3 0.250000 0.500000 0.444534
O O4 0.323346 0.467637 0.386553
O O5 0.393205 0.750000 0.945302
O O6 0.430069 0.985512 0.895441
O O7 0.342659 0.995643 0.926148
O O8 0.408905 0.000000 0.000000
O O9 0.940389 0.750000 0.849649
O O10 0.906006 0.972144 0.795565
O O11 0.000000 0.963518 0.825969
O O12 0.351169 0.250000 0.766866
O O13 0.318357 0.036462 0.826899
O O14 0.335146 0.988490 0.722162
O O15 0.701685 0.750000 0.676175
O O16 0.750000 0.500000 0.678462
O O17 0.198072 0.250000 0.104214
O O18 0.250000 0.500000 0.101052
#
# Coordination Sequence:
#
# PCOD9501010 Si02
#       6
#    16  16  16  16  16  16
#     4   9  16  25  37  55  81 117 157 193 226 258
#     4  11  22  36  53  73  96 121 151 186 224 269
#     4   9  19  37  57  74  93 117 146 184 230 277
#     4   9  18  31  48  69  92 118 149 185 224 268
#     4  10  19  28  41  63  92 125 159 192 224 262
#     4  10  20  34  50  70  95 124 157 190 226 267
#
# _framework density 15.683299
#
# number of rings (size 3 to 8) (size 9 to 14) (size 15 to 20)
#    0.000    2.333    0.000    5.000    0.000    7.667 
#    0.000    1.667    0.000    0.000    0.000    0.000 
#    0.000    0.667    0.000    1.500    0.000    2.667 
#
# Total GULP energy -267671.180677 kJ/mol
# GULP energy per Si atom -5576.482931 kJ/mol
# Density = 1.564760 g / cm^3
# Si number density = 15.683299 Si / 1000 Ang^3
#
#
#
# Elastic Constant Matrix: (Units=GPa)
#
#
# Indices 1 2 3 4 5 6 
#
# 1 66.6760 23.2559 28.8977 0.0000 0.0000 0.0000
# 2 23.2559 57.6034 47.6919 0.0000 0.0000 0.0000
# 3 28.8977 47.6919 123.5228 0.0000 0.0000 0.0000
# 4 0.0000 0.0000 0.0000 19.7949 0.0000 0.0000
# 5 0.0000 0.0000 0.0000 0.0000 9.2254 0.0000
# 6 0.0000 0.0000 0.0000 0.0000 0.0000 18.7397
#
#
#
# Elastic Compliance Matrix: (Units=1/GPa)
#
#
# Indices 1 2 3 4 5 6 
#
# 1 0.017800 -0.005495 -0.002043 0.000000 0.000000 0.000000
# 2 -0.005495 0.027213 -0.009221 0.000000 0.000000 0.000000
# 3 -0.002043 -0.009221 0.012134 0.000000 0.000000 0.000000
# 4 0.000000 0.000000 0.000000 0.050518 0.000000 0.000000
# 5 0.000000 0.000000 0.000000 0.000000 0.108397 0.000000
# 6 0.000000 0.000000 0.000000 0.000000 0.000000 0.053363
#
#
# Mechanical properties :
#
#
# Convention : Reuss Voigt Hill
#
# Bulk Modulus (GPa) = 42.32120 49.72147 46.02133
# Shear Modulus (GPa) = 16.08653 19.41577 17.75115
#
# Velocity S-wave (km/s) = 3.20615 3.52233 3.36795
# Velocity P-wave (km/s) = 6.38352 6.95087 6.67323
#
# Compressibility (1/GPa) = 0.02362882
#
# Stress axis : x y z
#
# Youngs Moduli (GPa) = 56.18046 36.74666 82.41372
#
# Poissons Ratio (x) = 0.20193 0.16833
# Poissons Ratio (y) = 0.30872 0.75997
# Poissons Ratio (z) = 0.11475 0.33886
#
# Static dielectric constant tensor:
#      x y z
#    x 1.501310 0.000000 0.000000 
#    y 0.000000 1.521550 0.000000 
#    z 0.000000 0.000000 1.547470 
# 
# From -- ./inp_files/40910.got.cif
#   From: 2010.05.17/outbox.cif.g08.bks.cpg/sg67_21_cif.got.tgz:40910.got - 2010.06.03 18:28:57.
