data_PCOD9501490
_publ_section_title
;
Structure prediction by ZEFSAII (Michael W. Deem and Ramdas Pophale) SiO2 
 PCOD9501490
Probable space group: C M M A
;
_chemical_formula_sum "Si O2"
_cell_formula_units_Z 72
_cell_length_a 9.664641
_cell_length_b 26.596792
_cell_length_c 16.435978
_cell_angle_alpha 90.000000
_cell_angle_beta 90.000000
_cell_angle_gamma 90.000000
_cell_volume 4224.842610
_symmetry_space_group_name_H-M "C M M A"
_symmetry_group_IT_number 67
_symmetry_cell_setting 'orthorhombic'
loop_
_space_group_symop_operation_xyz
x,y,z
-x,1/2-y,z
x,-y,-z
-x,1/2+y,-z
-x,-y,-z
x,1/2+y,-z
-x,y,z
x,1/2-y,z
1/2+x,1/2+y,z
1/2-x,-y,z
1/2+x,1/2-y,-z
1/2-x,y,-z
1/2-x,1/2-y,-z
1/2+x,y,-z
1/2-x,1/2+y,z
1/2+x,-y,z
loop_
_atom_site_type_symbol
_atom_site_label
_atom_site_fract_x
_atom_site_fract_y
_atom_site_fract_z
Si Si1 0.664004 0.114462 0.241759
Si Si2 0.337874 0.191500 0.658571
Si Si3 0.846877 0.045331 0.610470
Si Si4 0.250000 0.631034 0.500000
Si Si5 0.331252 0.448813 0.083157
O O1 0.500000 0.124423 0.251996
O O2 0.750312 0.161633 0.273945
O O3 0.699433 0.069320 0.304117
O O4 0.687346 0.093800 0.151456
O O5 0.500000 0.188038 0.677976
O O6 0.298027 0.250000 0.654037
O O7 0.314140 0.165228 0.570785
O O8 0.846940 0.091792 0.547952
O O9 0.000000 0.024758 0.619261
O O10 0.750000 0.000000 0.586805
O O11 0.500000 0.456468 0.073072
O O12 0.250000 0.500000 0.109121
O O13 0.250000 0.435127 0.000000
#
# Coordination Sequence:
#
# PCOD9501490 Si02
#       5
#    16  16  16   8  16
#     4   9  20  36  52  73 102 136 170 205 252 305
#     4  10  21  36  55  77  98 126 169 218 263 305
#     4  10  20  32  47  68  97 133 169 203 241 290
#     4  10  20  34  50  70 100 132 166 206 254 304
#     4  10  19  32  52  80 111 141 172 204 244 296
#
# _framework density 17.042055000000001
#
# number of rings (size 3 to 8) (size 9 to 14) (size 15 to 20)
#    0.000    2.222    0.000    3.333    0.000    8.444 
#    0.000    0.000    0.000    0.667    0.000    0.000 
#    0.000    0.000    0.000    0.000    0.000    0.000 
#
# Total GULP energy -200571.820745 kJ/mol
# GULP energy per Si atom -5571.439465 kJ/mol
# Density = 1.700327 g / cm^3
# Si number density = 17.042055 Si / 1000 Ang^3
#
#
#
# Elastic Constant Matrix: (Units=GPa)
#
#
# Indices 1 2 3 4 5 6 
#
# 1 71.5314 67.2143 40.0110 0.0000 0.0000 0.0000
# 2 67.2143 132.0501 62.0404 0.0000 0.0000 0.0000
# 3 40.0110 62.0404 93.6994 0.0000 0.0000 0.0000
# 4 0.0000 0.0000 0.0000 17.1331 0.0000 0.0000
# 5 0.0000 0.0000 0.0000 0.0000 -7.9637 0.0000
# 6 0.0000 0.0000 0.0000 0.0000 0.0000 25.9417
#
#
#
# Elastic Compliance Matrix: (Units=1/GPa)
#
#
# Indices 1 2 3 4 5 6 
#
# 1 0.027611 -0.012360 -0.003607 0.000000 0.000000 0.000000
# 2 -0.012360 0.016525 -0.005664 0.000000 0.000000 0.000000
# 3 -0.003607 -0.005664 0.015963 0.000000 0.000000 0.000000
# 4 0.000000 0.000000 0.000000 0.058367 0.000000 0.000000
# 5 0.000000 0.000000 0.000000 0.000000 -0.125570 0.000000
# 6 0.000000 0.000000 0.000000 0.000000 0.000000 0.038548
#
#
# Mechanical properties :
#
#
# Convention : Reuss Voigt Hill
#
# Bulk Modulus (GPa) = 59.38821 70.64579 65.01700
# Shear Modulus (GPa) = 62.25331 15.55655 38.90493
#
# Velocity S-wave (km/s) = 6.05050 3.02459 4.78313
# Velocity P-wave (km/s) = 9.15069 7.33085 8.29085
#
# Compressibility (1/GPa) = 0.01683836
#
# Stress axis : x y z
#
# Youngs Moduli (GPa) = 36.21742 60.51422 62.64611
#
# Poissons Ratio (x) = 0.74794 0.22595
# Poissons Ratio (y) = 0.44764 0.35482
# Poissons Ratio (z) = 0.13063 0.34274
#
# Static dielectric constant tensor:
#      x y z
#    x 1.587850 0.000000 0.000000 
#    y 0.000000 1.556210 0.000000 
#    z 0.000000 0.000000 1.597330 
# 
# From -- ./inp_files/32044.got.cif
#   From: 2010.05.17/outbox.cif.g08.bks.cpg/sg67_17_cif.got.tgz:32044.got - 2010.06.03 18:28:57.
