data_PCOD9501227
_publ_section_title
;
Structure prediction by ZEFSAII (Michael W. Deem and Ramdas Pophale) SiO2 
 PCOD9501227
Probable space group: C M M A
;
_chemical_formula_sum "Si O2"
_cell_formula_units_Z 112
_cell_length_a 15.794273
_cell_length_b 13.904357
_cell_length_c 25.916238
_cell_angle_alpha 90.000000
_cell_angle_beta 90.000000
_cell_angle_gamma 90.000000
_cell_volume 5691.444562
_symmetry_space_group_name_H-M "C M M A"
_symmetry_group_IT_number 67
_symmetry_cell_setting 'orthorhombic'
loop_
_space_group_symop_operation_xyz
x,y,z
-x,1/2-y,z
x,-y,-z
-x,1/2+y,-z
-x,-y,-z
x,1/2+y,-z
-x,y,z
x,1/2-y,z
1/2+x,1/2+y,z
1/2-x,-y,z
1/2+x,1/2-y,-z
1/2-x,y,-z
1/2-x,1/2-y,-z
1/2+x,y,-z
1/2-x,1/2+y,z
1/2+x,-y,z
loop_
_atom_site_type_symbol
_atom_site_label
_atom_site_fract_x
_atom_site_fract_y
_atom_site_fract_z
Si Si1 0.122616 0.858709 0.861644
Si Si2 0.896538 0.357457 0.536392
Si Si3 0.603605 0.358999 0.685167
Si Si4 0.594950 0.503367 0.771246
Si Si5 0.597335 0.511840 0.942971
Si Si6 0.324634 0.640026 0.852169
Si Si7 0.603218 0.561724 0.425146
O O1 0.094614 0.750000 0.858409
O O2 0.087979 0.922780 0.815585
O O3 0.099208 0.908930 0.915011
O O4 0.223796 0.861900 0.855693
O O5 0.867870 0.250000 0.550789
O O6 0.871595 0.383175 0.477464
O O7 0.869511 0.449940 0.570009
O O8 0.000000 0.356572 0.537586
O O9 0.500000 0.359493 0.687613
O O10 0.630342 0.250000 0.699234
O O11 0.632198 0.444442 0.723129
O O12 0.629398 0.385540 0.626987
O O13 0.500000 0.538183 0.758236
O O14 0.646543 0.586858 0.799788
O O15 0.500000 0.544306 0.948402
O O16 0.641636 0.582509 0.902134
O O17 0.634902 0.500000 0.000000
O O18 0.354466 0.750000 0.852883
O O19 0.500000 0.561412 0.425157
#
# Coordination Sequence:
#
# PCOD9501227 Si02
#       7
#    16  16  16  16  16  16  16
#     4  10  20  34  53  74  95 123 159 197 236 276
#     4   8  12  18  29  44  66 102 146 186 222 268
#     4   9  16  25  38  58  84 112 144 187 238 284
#     4  10  19  31  49  71  94 121 155 196 239 282
#     4  10  21  35  52  76 103 128 155 191 233 276
#     4  10  21  36  53  71  94 128 163 192 229 280
#     4   8  13  20  30  47  72 104 144 186 228 275
#
# _framework density 19.678659
#
# number of rings (size 3 to 8) (size 9 to 14) (size 15 to 20)
#    0.000    2.714    0.000    5.143    0.000    6.286 
#    0.000    3.571    0.000    2.571    0.000    0.000 
#    0.000    0.000    0.000   10.286    0.000   77.714 
#
# Total GULP energy -312238.447959 kJ/mol
# GULP energy per Si atom -5575.686571 kJ/mol
# Density = 1.963387 g / cm^3
# Si number density = 19.678659 Si / 1000 Ang^3
#
#
#
# Elastic Constant Matrix: (Units=GPa)
#
#
# Indices 1 2 3 4 5 6 
#
# 1 43.0392 17.8821 7.6231 0.0000 0.0000 0.0000
# 2 17.8821 110.0999 11.2362 0.0000 0.0000 0.0000
# 3 7.6231 11.2362 66.7426 0.0000 0.0000 0.0000
# 4 0.0000 0.0000 0.0000 11.9736 0.0000 0.0000
# 5 0.0000 0.0000 0.0000 0.0000 18.8404 0.0000
# 6 0.0000 0.0000 0.0000 0.0000 0.0000 28.8676
#
#
#
# Elastic Compliance Matrix: (Units=1/GPa)
#
#
# Indices 1 2 3 4 5 6 
#
# 1 0.025238 -0.003871 -0.002231 0.000000 0.000000 0.000000
# 2 -0.003871 0.009835 -0.001214 0.000000 0.000000 0.000000
# 3 -0.002231 -0.001214 0.015442 0.000000 0.000000 0.000000
# 4 0.000000 0.000000 0.000000 0.083517 0.000000 0.000000
# 5 0.000000 0.000000 0.000000 0.000000 0.053077 0.000000
# 6 0.000000 0.000000 0.000000 0.000000 0.000000 0.034641
#
#
# Mechanical properties :
#
#
# Convention : Reuss Voigt Hill
#
# Bulk Modulus (GPa) = 27.86772 32.59604 30.23188
# Shear Modulus (GPa) = 20.13333 24.14567 22.13950
#
# Velocity S-wave (km/s) = 3.20207 3.50665 3.35782
# Velocity P-wave (km/s) = 5.27856 5.74418 5.51628
#
# Compressibility (1/GPa) = 0.03588381
#
# Stress axis : x y z
#
# Youngs Moduli (GPa) = 39.62229 101.67452 64.75824
#
# Poissons Ratio (x) = 0.39363 0.14447
# Poissons Ratio (y) = 0.15340 0.07859
# Poissons Ratio (z) = 0.08839 0.12339
#
# Static dielectric constant tensor:
#      x y z
#    x 1.715990 0.000000 0.000000 
#    y 0.000000 1.698370 0.000000 
#    z 0.000000 0.000000 1.684200 
# 
# From -- ./inp_files/44364.got.cif
#   From: 2010.05.17/outbox.cif.g08.bks.cpg/sg67_23_cif.got.tgz:44364.got - 2010.06.03 18:28:57.
