data_PCOD9501032
_publ_section_title
;
Structure prediction by ZEFSAII (Michael W. Deem and Ramdas Pophale) SiO2 
 PCOD9501032
Probable space group: C M M A
;
_chemical_formula_sum "Si O2"
_cell_formula_units_Z 104
_cell_length_a 8.097330
_cell_length_b 25.535697
_cell_length_c 28.668531
_cell_angle_alpha 90.000000
_cell_angle_beta 90.000000
_cell_angle_gamma 90.000000
_cell_volume 5927.819831
_symmetry_space_group_name_H-M "C M M A"
_symmetry_group_IT_number 67
_symmetry_cell_setting 'orthorhombic'
loop_
_space_group_symop_operation_xyz
x,y,z
-x,1/2-y,z
x,-y,-z
-x,1/2+y,-z
-x,-y,-z
x,1/2+y,-z
-x,y,z
x,1/2-y,z
1/2+x,1/2+y,z
1/2-x,-y,z
1/2+x,1/2-y,-z
1/2-x,y,-z
1/2-x,1/2-y,-z
1/2+x,y,-z
1/2-x,1/2+y,z
1/2+x,-y,z
loop_
_atom_site_type_symbol
_atom_site_label
_atom_site_fract_x
_atom_site_fract_y
_atom_site_fract_z
Si Si1 0.698847 0.189558 0.447958
Si Si2 0.800546 0.644758 0.352751
Si Si3 0.696406 0.059343 0.721196
Si Si4 0.300366 0.250000 0.946493
Si Si5 0.805530 0.250000 0.694780
Si Si6 0.299492 0.663141 0.125539
Si Si7 0.300218 0.440197 0.826848
Si Si8 0.301945 0.750000 0.200809
O O1 0.500000 0.190968 0.446532
O O2 0.755609 0.250000 0.439780
O O3 0.750000 0.174207 0.500000
O O4 0.755424 0.151435 0.406374
O O5 0.751583 0.596455 0.320600
O O6 0.736785 0.697112 0.327161
O O7 0.000000 0.645083 0.353287
O O8 0.500000 0.061899 0.723483
O O9 0.757881 0.073013 0.773802
O O10 0.750000 0.000000 0.712352
O O11 0.500000 0.250000 0.943629
O O12 0.242323 0.302249 0.918664
O O13 0.250000 0.250000 0.000000
O O14 0.782187 0.250000 0.749686
O O15 0.000000 0.250000 0.683439
O O16 0.500000 0.661104 0.122201
O O17 0.241458 0.604397 0.136969
O O18 0.259810 0.699247 0.170189
O O19 0.500000 0.438543 0.826651
O O20 0.250000 0.500000 0.837172
O O21 0.500000 0.750000 0.207489
#
# Coordination Sequence:
#
# PCOD9501032 Si02
#       8
#    16  16  16   8   8  16  16   8
#     4   9  17  31  49  68  92 122 155 192 236 286
#     4  10  19  32  48  67  96 129 157 188 234 288
#     4  10  20  33  50  72  97 127 163 199 233 274
#     4   9  17  31  51  72  94 123 156 193 238 282
#     4  10  19  29  42  66 100 131 152 182 236 286
#     4   8  15  29  48  67  91 124 156 189 235 281
#     4   9  17  30  47  68  94 124 158 193 228 271
#     4   9  16  28  45  64  88 120 158 193 225 274
#
# _framework density 17.544394
#
# number of rings (size 3 to 8) (size 9 to 14) (size 15 to 20)
#    0.000    2.769    0.769    2.308    0.000    3.077 
#    0.000    3.077    0.000    0.923    0.000    6.462 
#    0.000    0.000    0.000    0.000    0.000    0.000 
#
# Total GULP energy -289686.949274 kJ/mol
# GULP energy per Si atom -5570.902871 kJ/mol
# Density = 1.750446 g / cm^3
# Si number density = 17.544394 Si / 1000 Ang^3
#
#
#
# Elastic Constant Matrix: (Units=GPa)
#
#
# Indices 1 2 3 4 5 6 
#
# 1 10.1603 11.7256 11.8440 0.0000 0.0000 0.0000
# 2 11.7256 125.0345 88.6213 0.0000 0.0000 0.0000
# 3 11.8440 88.6213 138.9352 0.0000 0.0000 0.0000
# 4 0.0000 0.0000 0.0000 16.8066 0.0000 0.0000
# 5 0.0000 0.0000 0.0000 0.0000 22.8330 0.0000
# 6 0.0000 0.0000 0.0000 0.0000 0.0000 17.5802
#
#
#
# Elastic Compliance Matrix: (Units=1/GPa)
#
#
# Indices 1 2 3 4 5 6 
#
# 1 0.112401 -0.006843 -0.005217 0.000000 0.000000 0.000000
# 2 -0.006843 0.015014 -0.008993 0.000000 0.000000 0.000000
# 3 -0.005217 -0.008993 0.013379 0.000000 0.000000 0.000000
# 4 0.000000 0.000000 0.000000 0.059501 0.000000 0.000000
# 5 0.000000 0.000000 0.000000 0.000000 0.043796 0.000000
# 6 0.000000 0.000000 0.000000 0.000000 0.000000 0.056882
#
#
# Mechanical properties :
#
#
# Convention : Reuss Voigt Hill
#
# Bulk Modulus (GPa) = 10.13305 55.39019 32.76162
# Shear Modulus (GPa) = 13.29873 22.23989 17.76931
#
# Velocity S-wave (km/s) = 2.75618 3.56425 3.18594
# Velocity P-wave (km/s) = 3.98960 6.96983 5.67870
#
# Compressibility (1/GPa) = 0.09868694
#
# Stress axis : x y z
#
# Youngs Moduli (GPa) = 8.89669 66.60545 74.74493
#
# Poissons Ratio (x) = 0.45579 0.38994
# Poissons Ratio (y) = 0.06088 0.67221
# Poissons Ratio (z) = 0.04641 0.59901
#
# Static dielectric constant tensor:
#      x y z
#    x 1.317460 0.000000 0.000000 
#    y 0.000000 1.596130 0.000000 
#    z 0.000000 0.000000 1.599520 
# 
# From -- ./inp_files/43760.got.cif
#   From: 2010.05.17/outbox.cif.g08.bks.cpg/sg67_22_cif.got.tgz:43760.got - 2010.06.03 18:28:57.
