data_PCOD9501138
_publ_section_title
;
Structure prediction by ZEFSAII (Michael W. Deem and Ramdas Pophale) SiO2 
 PCOD9501138
Probable space group: C M M A
;
_chemical_formula_sum "Si O2"
_cell_formula_units_Z 104
_cell_length_a 8.550862
_cell_length_b 27.896919
_cell_length_c 21.748787
_cell_angle_alpha 90.000000
_cell_angle_beta 90.000000
_cell_angle_gamma 90.000000
_cell_volume 5188.014473
_symmetry_space_group_name_H-M "C M M A"
_symmetry_group_IT_number 67
_symmetry_cell_setting 'orthorhombic'
loop_
_space_group_symop_operation_xyz
x,y,z
-x,1/2-y,z
x,-y,-z
-x,1/2+y,-z
-x,-y,-z
x,1/2+y,-z
-x,y,z
x,1/2-y,z
1/2+x,1/2+y,z
1/2-x,-y,z
1/2+x,1/2-y,-z
1/2-x,y,-z
1/2-x,1/2-y,-z
1/2+x,y,-z
1/2-x,1/2+y,z
1/2+x,-y,z
loop_
_atom_site_type_symbol
_atom_site_label
_atom_site_fract_x
_atom_site_fract_y
_atom_site_fract_z
Si Si1 0.687353 0.946823 0.825276
Si Si2 0.310715 0.750000 0.930837
Si Si3 0.318369 0.694842 0.594552
Si Si4 0.188559 0.552873 0.688102
Si Si5 0.819667 0.400095 0.436959
Si Si6 0.188824 0.843936 0.146367
Si Si7 0.177506 0.693592 0.727208
O O1 0.500000 0.949920 0.824909
O O2 0.744230 0.935930 0.755529
O O3 0.733742 0.899803 0.865458
O O4 0.750000 0.000000 0.842170
O O5 0.500000 0.750000 0.930208
O O6 0.259561 0.799628 0.897122
O O7 0.250000 0.750000 0.000000
O O8 0.500000 0.684333 0.581502
O O9 0.284970 0.750000 0.578569
O O10 0.206887 0.656833 0.562838
O O11 0.284346 0.689454 0.667300
O O12 0.250000 0.500000 0.674662
O O13 0.244496 0.583275 0.629306
O O14 0.000000 0.554469 0.692356
O O15 0.750000 0.420355 0.500000
O O16 0.000000 0.412462 0.436757
O O17 0.253990 0.831729 0.213588
O O18 0.000000 0.842553 0.147590
O O19 0.169805 0.750000 0.741556
O O20 0.000000 0.676684 0.713124
#
# Coordination Sequence:
#
# PCOD9501138 Si02
#       7
#    16   8  16  16  16  16  16
#     4  10  20  34  56  86 115 148 185 228 285 341
#     4  10  22  40  60  86 122 160 201 242 279 328
#     4  10  21  36  54  75 102 138 177 221 276 335
#     4  10  21  37  57  81 108 139 175 221 277 334
#     4  11  24  39  55  75 100 134 179 228 278 336
#     4  10  20  35  57  82 115 156 194 234 281 335
#     4  10  19  30  49  80 112 140 177 225 279 337
#
# _framework density 20.046205
#
# number of rings (size 3 to 8) (size 9 to 14) (size 15 to 20)
#    0.000    1.846    0.769    4.154    0.000    8.923 
#    0.000    1.538    0.000    0.462    0.000    3.231 
#    0.000    0.000    0.000    0.000    0.000    0.000 
#
# Total GULP energy -290096.170279 kJ/mol
# GULP energy per Si atom -5578.772505 kJ/mol
# Density = 2.000058 g / cm^3
# Si number density = 20.046205 Si / 1000 Ang^3
#
#
#
# Elastic Constant Matrix: (Units=GPa)
#
#
# Indices 1 2 3 4 5 6 
#
# 1 21.2067 24.8224 5.9228 0.0000 0.0000 0.0000
# 2 24.8224 139.5498 50.9939 0.0000 0.0000 0.0000
# 3 5.9228 50.9939 34.3345 0.0000 0.0000 0.0000
# 4 0.0000 0.0000 0.0000 10.8152 0.0000 0.0000
# 5 0.0000 0.0000 0.0000 0.0000 25.1289 0.0000
# 6 0.0000 0.0000 0.0000 0.0000 0.0000 -7.8082
#
#
#
# Elastic Compliance Matrix: (Units=1/GPa)
#
#
# Indices 1 2 3 4 5 6 
#
# 1 0.061880 -0.015540 0.012406 0.000000 0.000000 0.000000
# 2 -0.015540 0.019574 -0.026390 0.000000 0.000000 0.000000
# 3 0.012406 -0.026390 0.066180 0.000000 0.000000 0.000000
# 4 0.000000 0.000000 0.000000 0.092462 0.000000 0.000000
# 5 0.000000 0.000000 0.000000 0.000000 0.039795 0.000000
# 6 0.000000 0.000000 0.000000 0.000000 0.000000 -0.128070
#
#
# Mechanical properties :
#
#
# Convention : Reuss Voigt Hill
#
# Bulk Modulus (GPa) = 11.28859 39.84102 25.56481
# Shear Modulus (GPa) = 20.79896 13.18398 16.99147
#
# Velocity S-wave (km/s) = 3.22460 2.56731 2.91454
# Velocity P-wave (km/s) = 4.41674 5.35778 4.90986
#
# Compressibility (1/GPa) = 0.08858499
#
# Stress axis : x y z
#
# Youngs Moduli (GPa) = 16.16035 51.08948 15.11035
#
# Poissons Ratio (x) = 0.79395 -0.18746
# Poissons Ratio (y) = 0.25114 0.39876
# Poissons Ratio (z) = -0.20049 1.34825
#
# Static dielectric constant tensor:
#      x y z
#    x 1.688450 0.000000 0.000000 
#    y 0.000000 1.636270 0.000000 
#    z 0.000000 0.000000 1.695020 
# 
# From -- ./inp_files/37314.got.cif
#   From: 2010.05.17/outbox.cif.g08.bks.cpg/sg67_19_cif.got.tgz:37314.got - 2010.06.03 18:28:57.
