data_PCOD9501828
_publ_section_title
;
Structure prediction by ZEFSAII (Michael W. Deem and Ramdas Pophale) SiO2 
 PCOD9501828
Probable space group: C M M A
;
_chemical_formula_sum "Si O2"
_cell_formula_units_Z 88
_cell_length_a 16.047718
_cell_length_b 8.685099
_cell_length_c 31.747589
_cell_angle_alpha 90.000000
_cell_angle_beta 90.000000
_cell_angle_gamma 90.000000
_cell_volume 4424.852585
_symmetry_space_group_name_H-M "C M M A"
_symmetry_group_IT_number 67
_symmetry_cell_setting 'orthorhombic'
loop_
_space_group_symop_operation_xyz
x,y,z
-x,1/2-y,z
x,-y,-z
-x,1/2+y,-z
-x,-y,-z
x,1/2+y,-z
-x,y,z
x,1/2-y,z
1/2+x,1/2+y,z
1/2-x,-y,z
1/2+x,1/2-y,-z
1/2-x,y,-z
1/2-x,1/2-y,-z
1/2+x,y,-z
1/2-x,1/2+y,z
1/2+x,-y,z
loop_
_atom_site_type_symbol
_atom_site_label
_atom_site_fract_x
_atom_site_fract_y
_atom_site_fract_z
Si Si1 0.343622 0.064829 0.694891
Si Si2 0.345433 0.063465 0.600868
Si Si3 0.598001 0.420553 0.127736
Si Si4 0.500000 0.435215 0.452742
Si Si5 0.342778 0.431971 0.957803
Si Si6 0.843537 0.434920 0.214444
O O1 0.340519 0.250000 0.695209
O O2 0.375415 0.021025 0.648639
O O3 0.383014 0.019597 0.739994
O O4 0.250000 0.000000 0.695584
O O5 0.342527 0.250000 0.597365
O O6 0.250000 0.000000 0.594950
O O7 0.415664 0.996391 0.570009
O O8 0.500000 0.403733 0.126144
O O9 0.638239 0.250000 0.125262
O O10 0.621415 0.518334 0.086963
O O11 0.618174 0.497374 0.172239
O O12 0.500000 0.250000 0.452488
O O13 0.500000 0.500000 0.500000
O O14 0.340946 0.250000 0.961744
O O15 0.250000 0.500000 0.957388
O O16 0.385183 0.500000 0.000000
O O17 0.843309 0.250000 0.211828
O O18 0.750000 0.500000 0.215348
#
# Coordination Sequence:
#
# PCOD9501828 Si02
#       6
#    16  16  16   8  16  16
#     4   8  16  31  55  85 116 151 192 238 290 347
#     4  10  20  39  65  94 128 166 209 260 317 376
#     4  11  24  40  55  76 111 150 188 231 280 334
#     4  12  26  44  64  92 126 166 214 264 317 376
#     4  11  22  39  63  87 110 137 177 225 276 334
#     4  10  19  34  57  84 113 149 191 235 283 339
#
# _framework density 19.887668000000001
#
# number of rings (size 3 to 8) (size 9 to 14) (size 15 to 20)
#    0.000    1.818    0.000    5.182    0.000    3.636 
#    1.636    1.818    0.000    0.000    0.000    0.000 
#    0.000    0.000    0.000    0.000    0.000    0.000 
#
# Total GULP energy -245327.323232 kJ/mol
# GULP energy per Si atom -5575.620983 kJ/mol
# Density = 1.984240 g / cm^3
# Si number density = 19.887668 Si / 1000 Ang^3
#
#
#
# Elastic Constant Matrix: (Units=GPa)
#
#
# Indices 1 2 3 4 5 6 
#
# 1 68.0597 34.6084 66.4337 0.0000 0.0000 0.0000
# 2 34.6084 132.4359 80.5878 0.0000 0.0000 0.0000
# 3 66.4337 80.5878 226.4788 0.0000 0.0000 0.0000
# 4 0.0000 0.0000 0.0000 31.1156 0.0000 0.0000
# 5 0.0000 0.0000 0.0000 0.0000 425.8663 0.0000
# 6 0.0000 0.0000 0.0000 0.0000 0.0000 19.2938
#
#
#
# Elastic Compliance Matrix: (Units=1/GPa)
#
#
# Indices 1 2 3 4 5 6 
#
# 1 0.021091 -0.002230 -0.005393 0.000000 0.000000 0.000000
# 2 -0.002230 0.009873 -0.002859 0.000000 0.000000 0.000000
# 3 -0.005393 -0.002859 0.007015 0.000000 0.000000 0.000000
# 4 0.000000 0.000000 0.000000 0.032138 0.000000 0.000000
# 5 0.000000 0.000000 0.000000 0.000000 0.002348 0.000000
# 6 0.000000 0.000000 0.000000 0.000000 0.000000 0.051830
#
#
# Mechanical properties :
#
#
# Convention : Reuss Voigt Hill
#
# Bulk Modulus (GPa) = 58.77185 87.80380 73.28782
# Shear Modulus (GPa) = 33.12751 111.61147 72.36949
#
# Velocity S-wave (km/s) = 4.08576 7.49952 6.03888
# Velocity P-wave (km/s) = 7.20236 10.91953 9.24960
#
# Compressibility (1/GPa) = 0.01701495
#
# Stress axis : x y z
#
# Youngs Moduli (GPa) = 47.41286 101.28318 142.55476
#
# Poissons Ratio (x) = 0.22584 0.76885
# Poissons Ratio (y) = 0.10572 0.40759
# Poissons Ratio (z) = 0.25572 0.28958
#
# Static dielectric constant tensor:
#      x y z
#    x 1.685380 0.000000 0.000000 
#    y 0.000000 1.699810 0.000000 
#    z 0.000000 0.000000 1.778150 
# 
# From -- ./inp_files/45784.got.cif
#   From: 2010.05.17/outbox.cif.g08.bks.cpg/sg67_23_cif.got.tgz:45784.got - 2010.06.03 18:28:57.
