data_PCOD9501923
_publ_section_title
;
Structure prediction by ZEFSAII (Michael W. Deem and Ramdas Pophale) SiO2 
 PCOD9501923
Probable space group: C M M A
;
_chemical_formula_sum "Si O2"
_cell_formula_units_Z 112
_cell_length_a 15.385749
_cell_length_b 27.727913
_cell_length_c 12.082647
_cell_angle_alpha 90.000000
_cell_angle_beta 90.000000
_cell_angle_gamma 90.000000
_cell_volume 5154.634942
_symmetry_space_group_name_H-M "C M M A"
_symmetry_group_IT_number 67
_symmetry_cell_setting 'orthorhombic'
loop_
_space_group_symop_operation_xyz
x,y,z
-x,1/2-y,z
x,-y,-z
-x,1/2+y,-z
-x,-y,-z
x,1/2+y,-z
-x,y,z
x,1/2-y,z
1/2+x,1/2+y,z
1/2-x,-y,z
1/2+x,1/2-y,-z
1/2-x,y,-z
1/2-x,1/2-y,-z
1/2+x,y,-z
1/2-x,1/2+y,z
1/2+x,-y,z
loop_
_atom_site_type_symbol
_atom_site_label
_atom_site_fract_x
_atom_site_fract_y
_atom_site_fract_z
Si Si1 0.901783 0.665855 0.671329
Si Si2 0.847920 0.101672 0.515140
Si Si3 0.598752 0.446634 0.269843
Si Si4 0.204148 0.696950 0.351167
Si Si5 0.605740 0.348419 0.158080
Si Si6 0.654801 0.978527 0.110366
Si Si7 0.900032 0.373283 0.085238
O O1 0.892820 0.616202 0.599653
O O2 0.809235 0.691898 0.647820
O O3 0.898058 0.656643 0.802411
O O4 0.000000 0.685392 0.646128
O O5 0.750000 0.083866 0.500000
O O6 0.890654 0.065270 0.601307
O O7 0.837352 0.153544 0.577622
O O8 0.500000 0.441485 0.239761
O O9 0.638343 0.401434 0.201160
O O10 0.622249 0.499023 0.225196
O O11 0.180636 0.750000 0.392371
O O12 0.161474 0.688595 0.230736
O O13 0.500000 0.342449 0.176158
O O14 0.623326 0.346182 0.027500
O O15 0.654009 0.921603 0.102769
O O16 0.750000 0.000000 0.107130
O O17 0.608771 0.000000 0.000000
O O18 0.000000 0.389872 0.069131
#
# Coordination Sequence:
#
# PCOD9501923 Si02
#       7
#    16  16  16  16  16  16  16
#     4  10  22  39  60  84 118 162 203 240 290 356
#     4   9  20  37  62  85 114 154 202 246 295 354
#     4  10  19  35  58  84 115 152 194 242 295 344
#     4  10  22  39  63  92 118 147 194 251 305 357
#     4   9  19  36  60  87 119 155 191 238 300 358
#     4  11  23  32  54  90 122 151 197 247 291 342
#     4  10  21  38  59  84 118 161 200 240 292 355
#
# _framework density 21.728017999999999
#
# number of rings (size 3 to 8) (size 9 to 14) (size 15 to 20)
#    0.000    2.143    1.429    0.857    6.000    4.857 
#    0.000    2.143    0.000    5.143    0.000    0.000 
#    0.000    0.000    0.000    0.000    0.000    0.000 
#
# Total GULP energy -312063.929005 kJ/mol
# GULP energy per Si atom -5572.570161 kJ/mol
# Density = 2.167856 g / cm^3
# Si number density = 21.728018 Si / 1000 Ang^3
#
#
#
# Elastic Constant Matrix: (Units=GPa)
#
#
# Indices 1 2 3 4 5 6 
#
# 1 56.4800 11.6196 8.2710 0.0000 0.0000 0.0000
# 2 11.6196 30.1977 1.4763 0.0000 0.0000 0.0000
# 3 8.2710 1.4763 109.4787 0.0000 0.0000 0.0000
# 4 0.0000 0.0000 0.0000 14.9144 0.0000 0.0000
# 5 0.0000 0.0000 0.0000 0.0000 51.1507 0.0000
# 6 0.0000 0.0000 0.0000 0.0000 0.0000 -38.2399
#
#
#
# Elastic Compliance Matrix: (Units=1/GPa)
#
#
# Indices 1 2 3 4 5 6 
#
# 1 0.019430 -0.007409 -0.001368 0.000000 0.000000 0.000000
# 2 -0.007409 0.035963 0.000075 0.000000 0.000000 0.000000
# 3 -0.001368 0.000075 0.009237 0.000000 0.000000 0.000000
# 4 0.000000 0.000000 0.000000 0.067049 0.000000 0.000000
# 5 0.000000 0.000000 0.000000 0.000000 0.019550 0.000000
# 6 0.000000 0.000000 0.000000 0.000000 0.000000 -0.026151
#
#
# Mechanical properties :
#
#
# Convention : Reuss Voigt Hill
#
# Bulk Modulus (GPa) = 21.17578 26.54337 23.85957
# Shear Modulus (GPa) = 31.60073 17.21768 24.40921
#
# Velocity S-wave (km/s) = 3.81777 2.81805 3.35535
# Velocity P-wave (km/s) = 5.40378 4.77820 5.10059
#
# Compressibility (1/GPa) = 0.04722376
#
# Stress axis : x y z
#
# Youngs Moduli (GPa) = 51.46665 27.80672 108.26569
#
# Poissons Ratio (x) = 0.20603 0.14811
# Poissons Ratio (y) = 0.38134 -0.00810
# Poissons Ratio (z) = 0.07041 -0.00208
#
# Static dielectric constant tensor:
#      x y z
#    x 1.820940 0.000000 0.000000 
#    y 0.000000 2.135960 0.000000 
#    z 0.000000 0.000000 -1.704400 
# 
# From -- ./inp_files/18568.got.cif
#   From: 2010.05.17/outbox.cif.g08.bks.cpg/sg67_10_cif.got.tgz:18568.got - 2010.06.03 18:28:57.
