data_PCOD9501847
_publ_section_title
;
Structure prediction by ZEFSAII (Michael W. Deem and Ramdas Pophale) SiO2 
 PCOD9501847
Probable space group: C M M A
;
_chemical_formula_sum "Si O2"
_cell_formula_units_Z 108
_cell_length_a 15.331602
_cell_length_b 28.221403
_cell_length_c 11.570667
_cell_angle_alpha 90.000000
_cell_angle_beta 90.000000
_cell_angle_gamma 90.000000
_cell_volume 5006.388314
_symmetry_space_group_name_H-M "C M M A"
_symmetry_group_IT_number 67
_symmetry_cell_setting 'orthorhombic'
loop_
_space_group_symop_operation_xyz
x,y,z
-x,1/2-y,z
x,-y,-z
-x,1/2+y,-z
-x,-y,-z
x,1/2+y,-z
-x,y,z
x,1/2-y,z
1/2+x,1/2+y,z
1/2-x,-y,z
1/2+x,1/2-y,-z
1/2-x,y,-z
1/2-x,1/2-y,-z
1/2+x,y,-z
1/2-x,1/2+y,z
1/2+x,-y,z
loop_
_atom_site_type_symbol
_atom_site_label
_atom_site_fract_x
_atom_site_fract_y
_atom_site_fract_z
Si Si1 0.750000 0.500000 0.786234
Si Si2 0.399403 0.097742 0.586709
Si Si3 0.900494 0.549793 0.356384
Si Si4 0.635859 0.850965 0.755639
Si Si5 0.810365 0.597912 0.828061
Si Si6 0.354117 0.302291 0.483603
Si Si7 0.500000 0.250000 0.917524
Si Si8 0.854124 0.323076 0.006105
O O1 0.831793 0.483812 0.706912
O O2 0.773077 0.546648 0.858429
O O3 0.500000 0.087072 0.580407
O O4 0.362263 0.066247 0.481210
O O5 0.367220 0.089369 0.714672
O O6 0.387183 0.153157 0.556200
O O7 0.905337 0.599373 0.284871
O O8 0.000000 0.531014 0.364335
O O9 0.735291 0.866903 0.780349
O O10 0.626913 0.815002 0.649663
O O11 0.609253 0.827842 0.876145
O O12 0.852493 0.625364 0.933996
O O13 0.387758 0.250000 0.514604
O O14 0.250000 0.301850 0.500000
O O15 0.421287 0.209416 0.924624
O O16 0.750000 0.308066 0.000000
#
# Coordination Sequence:
#
# PCOD9501847 Si02
#       8
#     8  16  16  16  16  16   4  16
#     4  10  22  39  71  96 122 182 216 270 352 416
#     4  10  21  37  57  86 129 169 206 273 333 392
#     4   9  20  37  59  95 128 160 217 272 330 406
#     4   9  19  38  64  86 122 168 207 273 328 374
#     4  10  21  41  62  89 128 167 217 271 333 402
#     4  10  19  34  58  89 119 164 218 261 323 397
#     4  12  26  44  68  98 126 188 234 266 348 384
#     4  10  24  45  65  97 133 171 228 283 322 396
#
# _framework density 21.572436
#
# number of rings (size 3 to 8) (size 9 to 14) (size 15 to 20)
#    0.000    2.222    1.481    0.222    3.111    2.074 
#    2.667   10.741    0.000    0.889    0.000    0.000 
#    0.000    0.000    0.000    0.000    0.000    0.000 
#
# Total GULP energy -300812.666108 kJ/mol
# GULP energy per Si atom -5570.604928 kJ/mol
# Density = 2.152334 g / cm^3
# Si number density = 21.572436 Si / 1000 Ang^3
#
#
#
# Elastic Constant Matrix: (Units=GPa)
#
#
# Indices 1 2 3 4 5 6 
#
# 1 85.5435 17.1000 3.2935 0.0000 0.0000 0.0000
# 2 17.1000 114.5950 17.6412 0.0000 0.0000 0.0000
# 3 3.2935 17.6412 65.8692 0.0000 0.0000 0.0000
# 4 0.0000 0.0000 0.0000 -35.4987 0.0000 0.0000
# 5 0.0000 0.0000 0.0000 0.0000 8.0792 0.0000
# 6 0.0000 0.0000 0.0000 0.0000 0.0000 -252.9164
#
#
#
# Elastic Compliance Matrix: (Units=1/GPa)
#
#
# Indices 1 2 3 4 5 6 
#
# 1 0.012050 -0.001779 -0.000126 0.000000 0.000000 0.000000
# 2 -0.001779 0.009364 -0.002419 0.000000 0.000000 0.000000
# 3 -0.000126 -0.002419 0.015836 0.000000 0.000000 0.000000
# 4 0.000000 0.000000 0.000000 -0.028170 0.000000 0.000000
# 5 0.000000 0.000000 0.000000 0.000000 0.123774 0.000000
# 6 0.000000 0.000000 0.000000 0.000000 0.000000 -0.003954
#
#
# Mechanical properties :
#
#
# Convention : Reuss Voigt Hill
#
# Bulk Modulus (GPa) = 34.96188 38.00857 36.48522
# Shear Modulus (GPa) = 33.99449 -40.86897 -3.43724
#
# Velocity S-wave (km/s) = 3.97398 -4.35731 -1.26365
# Velocity P-wave (km/s) = 6.10726 2.76723 3.84974
#
# Compressibility (1/GPa) = 0.02860258
#
# Stress axis : x y z
#
# Youngs Moduli (GPa) = 82.98492 106.78965 63.14818
#
# Poissons Ratio (x) = 0.18995 0.00797
# Poissons Ratio (y) = 0.14761 0.15276
# Poissons Ratio (z) = 0.01047 0.25832
#
# Static dielectric constant tensor:
#      x y z
#    x 1.819590 0.000000 0.000000 
#    y 0.000000 1.797880 0.000000 
#    z 0.000000 0.000000 1.872930 
# 
# From -- ./inp_files/18666.got.cif
#   From: 2010.05.17/outbox.cif.g08.bks.cpg/sg67_10_cif.got.tgz:18666.got - 2010.06.03 18:28:57.
