data_PCOD9501064
_publ_section_title
;
Structure prediction by ZEFSAII (Michael W. Deem and Ramdas Pophale) SiO2 
 PCOD9501064
Probable space group: C M M A
;
_chemical_formula_sum "Si O2"
_cell_formula_units_Z 64
_cell_length_a 9.031650
_cell_length_b 27.953435
_cell_length_c 14.354193
_cell_angle_alpha 90.000000
_cell_angle_beta 90.000000
_cell_angle_gamma 90.000000
_cell_volume 3623.940540
_symmetry_space_group_name_H-M "C M M A"
_symmetry_group_IT_number 67
_symmetry_cell_setting 'orthorhombic'
loop_
_space_group_symop_operation_xyz
x,y,z
-x,1/2-y,z
x,-y,-z
-x,1/2+y,-z
-x,-y,-z
x,1/2+y,-z
-x,y,z
x,1/2-y,z
1/2+x,1/2+y,z
1/2-x,-y,z
1/2+x,1/2-y,-z
1/2-x,y,-z
1/2-x,1/2-y,-z
1/2+x,y,-z
1/2-x,1/2+y,z
1/2+x,-y,z
loop_
_atom_site_type_symbol
_atom_site_label
_atom_site_fract_x
_atom_site_fract_y
_atom_site_fract_z
Si Si1 0.331530 0.450867 0.089316
Si Si2 0.180709 0.449721 0.602969
Si Si3 0.830291 0.872329 0.247859
Si Si4 0.172331 0.807397 0.900716
O O1 0.500000 0.460485 0.064991
O O2 0.250000 0.500000 0.111963
O O3 0.330230 0.415260 0.173832
O O4 0.250000 0.429698 0.000000
O O5 0.250000 0.500000 0.641355
O O6 0.250000 0.445618 0.500000
O O7 0.220341 0.401329 0.660105
O O8 0.000000 0.453697 0.601871
O O9 0.740409 0.832000 0.191678
O O10 0.000000 0.855865 0.262624
O O11 0.184052 0.750000 0.890904
O O12 0.000000 0.820860 0.908158
O O13 0.250000 0.819393 0.000000
#
# Coordination Sequence:
#
# PCOD9501064 Si02
#       4
#    16  16  16  16
#     4  10  19  30  43  64  95 129 163 197 238 290
#     4  10  20  35  54  78 107 139 176 216 261 310
#     4  10  21  34  51  75 101 132 171 213 257 306
#     4  10  21  36  55  79 106 137 173 213 258 309
#
# _framework density 17.660335
#
# number of rings (size 3 to 8) (size 9 to 14) (size 15 to 20)
#    0.000    2.000    0.000    5.250    0.000    7.500 
#    0.000    0.000    0.000    0.750    0.000    0.000 
#    0.000    0.000    0.000    0.000    0.000    0.000 
#
# Total GULP energy -178278.213665 kJ/mol
# GULP energy per Si atom -5571.194177 kJ/mol
# Density = 1.762014 g / cm^3
# Si number density = 17.660335 Si / 1000 Ang^3
#
#
#
# Elastic Constant Matrix: (Units=GPa)
#
#
# Indices 1 2 3 4 5 6 
#
# 1 109.8126 43.2077 31.4767 0.0000 0.0000 0.0000
# 2 43.2077 67.5369 28.8434 0.0000 0.0000 0.0000
# 3 31.4767 28.8434 71.0254 0.0000 0.0000 0.0000
# 4 0.0000 0.0000 0.0000 40.9594 0.0000 0.0000
# 5 0.0000 0.0000 0.0000 0.0000 22.5340 0.0000
# 6 0.0000 0.0000 0.0000 0.0000 0.0000 4.2652
#
#
#
# Elastic Compliance Matrix: (Units=1/GPa)
#
#
# Indices 1 2 3 4 5 6 
#
# 1 0.012613 -0.006875 -0.002798 0.000000 0.000000 0.000000
# 2 -0.006875 0.021660 -0.005750 0.000000 0.000000 0.000000
# 3 -0.002798 -0.005750 0.017654 0.000000 0.000000 0.000000
# 4 0.000000 0.000000 0.000000 0.024414 0.000000 0.000000
# 5 0.000000 0.000000 0.000000 0.000000 0.044377 0.000000
# 6 0.000000 0.000000 0.000000 0.000000 0.000000 0.234457
#
#
# Mechanical properties :
#
#
# Convention : Reuss Voigt Hill
#
# Bulk Modulus (GPa) = 47.43051 50.60339 49.01695
# Shear Modulus (GPa) = 12.72105 23.20819 17.96462
#
# Velocity S-wave (km/s) = 2.68679 3.62904 3.19286
# Velocity P-wave (km/s) = 6.04487 6.80263 6.43492
#
# Compressibility (1/GPa) = 0.02108348
#
# Stress axis : x y z
#
# Youngs Moduli (GPa) = 79.28061 46.16730 56.64286
#
# Poissons Ratio (x) = 0.31738 0.15850
# Poissons Ratio (y) = 0.54502 0.32567
# Poissons Ratio (z) = 0.22184 0.26544
#
# Static dielectric constant tensor:
#      x y z
#    x 1.623890 0.000000 0.000000 
#    y 0.000000 1.618900 0.000000 
#    z 0.000000 0.000000 1.632380 
# 
# From -- ./inp_files/25217.got.cif
#   From: 2010.05.17/outbox.cif.g08.bks.cpg/sg67_13_cif.got.tgz:25217.got - 2010.06.03 18:28:57.
