data_PCOD9501513
_publ_section_title
;
Structure prediction by ZEFSAII (Michael W. Deem and Ramdas Pophale) SiO2 
 PCOD9501513
Probable space group: C M M A
;
_chemical_formula_sum "Si O2"
_cell_formula_units_Z 104
_cell_length_a 15.635257
_cell_length_b 21.642666
_cell_length_c 16.979270
_cell_angle_alpha 90.000000
_cell_angle_beta 90.000000
_cell_angle_gamma 90.000000
_cell_volume 5745.592170
_symmetry_space_group_name_H-M "C M M A"
_symmetry_group_IT_number 67
_symmetry_cell_setting 'orthorhombic'
loop_
_space_group_symop_operation_xyz
x,y,z
-x,1/2-y,z
x,-y,-z
-x,1/2+y,-z
-x,-y,-z
x,1/2+y,-z
-x,y,z
x,1/2-y,z
1/2+x,1/2+y,z
1/2-x,-y,z
1/2+x,1/2-y,-z
1/2-x,y,-z
1/2-x,1/2-y,-z
1/2+x,y,-z
1/2-x,1/2+y,z
1/2+x,-y,z
loop_
_atom_site_type_symbol
_atom_site_label
_atom_site_fract_x
_atom_site_fract_y
_atom_site_fract_z
Si Si1 0.250000 0.500000 0.741514
Si Si2 0.314666 0.318091 0.926050
Si Si3 0.896883 0.820862 0.328036
Si Si4 0.398386 0.570859 0.988144
Si Si5 0.399603 0.033021 0.621773
Si Si6 0.900678 0.597748 0.469443
Si Si7 0.681641 0.119101 0.174114
O O1 0.330359 0.476537 0.689515
O O2 0.278043 0.556482 0.794639
O O3 0.356821 0.250000 0.919732
O O4 0.369199 0.379309 0.946060
O O5 0.255067 0.333028 0.851757
O O6 0.250000 0.314415 0.000000
O O7 0.869808 0.750000 0.326446
O O8 0.862307 0.854624 0.406749
O O9 0.871130 0.853580 0.246885
O O10 0.000000 0.823514 0.332561
O O11 0.500000 0.567409 0.989440
O O12 0.365179 0.500000 0.000000
O O13 0.369726 0.599984 0.904579
O O14 0.500000 0.044869 0.644482
O O15 0.367714 0.083279 0.557152
O O16 0.400757 0.967561 0.576138
O O17 0.000000 0.615177 0.482254
#
# Coordination Sequence:
#
# PCOD9501513 Si02
#       7
#     8  16  16  16  16  16  16
#     4  12  22  31  55  84 110 154 188 228 287 344
#     4   9  19  36  56  75 102 139 174 212 262 327
#     4  10  19  32  53  80 111 145 178 222 286 347
#     4  10  21  37  57  78 104 139 180 229 277 324
#     4   9  18  33  52  76 108 144 185 234 277 323
#     4   8  15  31  51  73 104 139 177 227 275 320
#     4  11  21  34  50  80 113 139 176 224 278 333
#
# _framework density 18.100833000000002
#
# number of rings (size 3 to 8) (size 9 to 14) (size 15 to 20)
#    0.000    2.308    1.538    2.769    0.000    4.923 
#    0.000    0.769    0.000    2.769    0.000    0.000 
#    0.000    0.000    0.000    0.000    0.000    0.000 
#
# Total GULP energy -289502.616591 kJ/mol
# GULP energy per Si atom -5567.358011 kJ/mol
# Density = 1.805963 g / cm^3
# Si number density = 18.100833 Si / 1000 Ang^3
#
#
#
# Elastic Constant Matrix: (Units=GPa)
#
#
# Indices 1 2 3 4 5 6 
#
# 1 41.1452 17.0869 10.8743 0.0000 0.0000 0.0000
# 2 17.0869 120.3387 18.6289 0.0000 0.0000 0.0000
# 3 10.8743 18.6289 31.5577 0.0000 0.0000 0.0000
# 4 0.0000 0.0000 0.0000 59.6045 0.0000 0.0000
# 5 0.0000 0.0000 0.0000 0.0000 25.2820 0.0000
# 6 0.0000 0.0000 0.0000 0.0000 0.0000 17.6110
#
#
#
# Elastic Compliance Matrix: (Units=1/GPa)
#
#
# Indices 1 2 3 4 5 6 
#
# 1 0.027505 -0.002683 -0.007894 0.000000 0.000000 0.000000
# 2 -0.002683 0.009407 -0.004629 0.000000 0.000000 0.000000
# 3 -0.007894 -0.004629 0.037140 0.000000 0.000000 0.000000
# 4 0.000000 0.000000 0.000000 0.016777 0.000000 0.000000
# 5 0.000000 0.000000 0.000000 0.000000 0.039554 0.000000
# 6 0.000000 0.000000 0.000000 0.000000 0.000000 0.056783
#
#
# Mechanical properties :
#
#
# Convention : Reuss Voigt Hill
#
# Bulk Modulus (GPa) = 22.91420 31.80244 27.35832
# Shear Modulus (GPa) = 21.54013 30.26293 25.90153
#
# Velocity S-wave (km/s) = 3.45339 4.09333 3.78690
# Velocity P-wave (km/s) = 5.34676 6.32046 5.85389
#
# Compressibility (1/GPa) = 0.04364107
#
# Stress axis : x y z
#
# Youngs Moduli (GPa) = 36.35730 106.29885 26.92487
#
# Poissons Ratio (x) = 0.28525 0.21254
# Poissons Ratio (y) = 0.09756 0.12463
# Poissons Ratio (z) = 0.28699 0.49202
#
# Static dielectric constant tensor:
#      x y z
#    x 1.631600 0.000000 0.000000 
#    y 0.000000 1.664310 0.000000 
#    z 0.000000 0.000000 1.631680 
# 
# From -- ./inp_files/33720.got.cif
#   From: 2010.05.17/outbox.cif.g08.bks.cpg/sg67_17_cif.got.tgz:33720.got - 2010.06.03 18:28:57.
