data_PCOD9501092
_publ_section_title
;
Structure prediction by ZEFSAII (Michael W. Deem and Ramdas Pophale) SiO2 
 PCOD9501092
Probable space group: C M M A
;
_chemical_formula_sum "Si O2"
_cell_formula_units_Z 80
_cell_length_a 10.397914
_cell_length_b 27.227413
_cell_length_c 17.964424
_cell_angle_alpha 90.000000
_cell_angle_beta 90.000000
_cell_angle_gamma 90.000000
_cell_volume 5085.877518
_symmetry_space_group_name_H-M "C M M A"
_symmetry_group_IT_number 67
_symmetry_cell_setting 'orthorhombic'
loop_
_space_group_symop_operation_xyz
x,y,z
-x,1/2-y,z
x,-y,-z
-x,1/2+y,-z
-x,-y,-z
x,1/2+y,-z
-x,y,z
x,1/2-y,z
1/2+x,1/2+y,z
1/2-x,-y,z
1/2+x,1/2-y,-z
1/2-x,y,-z
1/2-x,1/2-y,-z
1/2+x,y,-z
1/2-x,1/2+y,z
1/2+x,-y,z
loop_
_atom_site_type_symbol
_atom_site_label
_atom_site_fract_x
_atom_site_fract_y
_atom_site_fract_z
Si Si1 0.000000 0.558658 0.918715
Si Si2 0.500000 0.567283 0.419589
Si Si3 0.000000 0.059905 0.912061
Si Si4 0.500000 0.047626 0.404948
Si Si5 0.743734 0.604072 0.658070
Si Si6 0.753841 0.940480 0.819482
Si Si7 0.348963 0.308142 0.432257
O O1 0.000000 0.499236 0.920600
O O2 0.126511 0.571338 0.872515
O O3 0.000000 0.578384 0.002964
O O4 0.500000 0.510590 0.394326
O O5 0.500000 0.563204 0.508654
O O6 0.627235 0.592715 0.387975
O O7 0.874756 0.072573 0.864533
O O8 0.371699 0.069247 0.369410
O O9 0.764955 0.589767 0.743511
O O10 0.695478 0.658438 0.636704
O O11 0.750000 0.000000 0.804491
O O12 0.500000 0.318760 0.450370
O O13 0.339748 0.250000 0.417181
O O14 0.250000 0.319118 0.500000
#
# Coordination Sequence:
#
# PCOD9501092 Si02
#       7
#     8   8   8   8  16  16  16
#     4   9  17  31  45  68  96 133 170 205 235 288
#     4  11  23  33  48  69 100 140 177 205 242 298
#     4   9  17  29  49  66  94 133 174 203 237 284
#     4  11  21  35  48  67  98 140 181 207 238 296
#     4  12  22  34  51  74 103 134 169 217 263 303
#     4  10  19  30  46  70 101 134 166 202 248 297
#     4  10  22  40  60  78  97 128 174 224 271 315
#
# _framework density 15.729832
#
# number of rings (size 3 to 8) (size 9 to 14) (size 15 to 20)
#    0.000    1.600    1.000    5.400    1.400    5.600 
#    0.000    0.000    0.000    0.000    0.000    0.000 
#    0.000    4.800    0.000    0.000    0.000    0.000 
#
# Total GULP energy -223237.247483 kJ/mol
# GULP energy per Si atom -5580.931187 kJ/mol
# Density = 1.569403 g / cm^3
# Si number density = 15.729832 Si / 1000 Ang^3
#
#
#
# Elastic Constant Matrix: (Units=GPa)
#
#
# Indices 1 2 3 4 5 6 
#
# 1 139.4238 26.2361 47.2611 0.0000 0.0000 0.0000
# 2 26.2361 60.7553 33.4782 0.0000 0.0000 0.0000
# 3 47.2611 33.4782 88.9851 0.0000 0.0000 0.0000
# 4 0.0000 0.0000 0.0000 14.9290 0.0000 0.0000
# 5 0.0000 0.0000 0.0000 0.0000 -2.6261 0.0000
# 6 0.0000 0.0000 0.0000 0.0000 0.0000 18.0176
#
#
#
# Elastic Compliance Matrix: (Units=1/GPa)
#
#
# Indices 1 2 3 4 5 6 
#
# 1 0.008862 -0.001556 -0.004121 0.000000 0.000000 0.000000
# 2 -0.001556 0.021037 -0.007088 0.000000 0.000000 0.000000
# 3 -0.004121 -0.007088 0.016094 0.000000 0.000000 0.000000
# 4 0.000000 0.000000 0.000000 0.066984 0.000000 0.000000
# 5 0.000000 0.000000 0.000000 0.000000 -0.380790 0.000000
# 6 0.000000 0.000000 0.000000 0.000000 0.000000 0.055501
#
#
# Mechanical properties :
#
#
# Convention : Reuss Voigt Hill
#
# Bulk Modulus (GPa) = 48.87191 55.90166 52.38679
# Shear Modulus (GPa) = -27.78403 18.21001 -4.78701
#
# Velocity S-wave (km/s) = -4.20733 3.40615 -1.74639
# Velocity P-wave (km/s) = 2.74497 7.14737 5.41386
#
# Compressibility (1/GPa) = 0.02046165
#
# Stress axis : x y z
#
# Youngs Moduli (GPa) = 112.83835 47.53464 62.13657
#
# Poissons Ratio (x) = 0.07396 0.25609
# Poissons Ratio (y) = 0.17557 0.44044
# Poissons Ratio (z) = 0.46506 0.33694
#
# Static dielectric constant tensor:
#      x y z
#    x 1.527090 0.000000 0.000000 
#    y 0.000000 1.506600 0.000000 
#    z 0.000000 0.000000 1.518890 
# 
# From -- ./inp_files/32226.got.cif
#   From: 2010.05.17/outbox.cif.g08.bks.cpg/sg67_17_cif.got.tgz:32226.got - 2010.06.03 18:28:57.
