data_PCOD9501186
_publ_section_title
;
Structure prediction by ZEFSAII (Michael W. Deem and Ramdas Pophale) SiO2 
 PCOD9501186
Probable space group: C M M A
;
_chemical_formula_sum "Si O2"
_cell_formula_units_Z 72
_cell_length_a 9.997453
_cell_length_b 34.287226
_cell_length_c 13.741102
_cell_angle_alpha 90.000000
_cell_angle_beta 90.000000
_cell_angle_gamma 90.000000
_cell_volume 4710.242693
_symmetry_space_group_name_H-M "C M M A"
_symmetry_group_IT_number 67
_symmetry_cell_setting 'orthorhombic'
loop_
_space_group_symop_operation_xyz
x,y,z
-x,1/2-y,z
x,-y,-z
-x,1/2+y,-z
-x,-y,-z
x,1/2+y,-z
-x,y,z
x,1/2-y,z
1/2+x,1/2+y,z
1/2-x,-y,z
1/2+x,1/2-y,-z
1/2-x,y,-z
1/2-x,1/2-y,-z
1/2+x,y,-z
1/2-x,1/2+y,z
1/2+x,-y,z
loop_
_atom_site_type_symbol
_atom_site_label
_atom_site_fract_x
_atom_site_fract_y
_atom_site_fract_z
Si Si1 0.841460 0.825131 0.728852
Si Si2 0.000000 0.960360 0.613874
Si Si3 0.840907 0.203152 0.904303
Si Si4 0.152470 0.250000 0.409255
Si Si5 0.760375 0.096568 0.382843
Si Si6 0.000000 0.548793 0.378591
O O1 0.739026 0.817711 0.817104
O O2 0.829353 0.788055 0.657342
O O3 0.798345 0.863705 0.670558
O O4 0.000000 0.827514 0.757653
O O5 0.128217 0.935474 0.640782
O O6 0.000000 0.958439 0.495631
O O7 0.000000 0.003987 0.655785
O O8 0.837590 0.250000 0.887099
O O9 0.000000 0.192633 0.913271
O O10 0.750000 0.195914 0.000000
O O11 0.250000 0.250000 0.500000
O O12 0.000000 0.250000 0.445524
O O13 0.750000 0.103267 0.500000
O O14 0.625165 0.075273 0.352276
#
# Coordination Sequence:
#
# PCOD9501186 Si02
#       6
#    16   8  16   8  16   8
#     4  11  21  35  51  72 104 139 176 212 255 301
#     4   9  16  32  46  69  98 135 176 213 264 303
#     4  10  21  37  58  80 100 127 166 214 265 312
#     4  10  22  36  49  68  99 144 183 214 244 288
#     4  10  19  31  47  72 104 140 177 216 254 296
#     4   9  18  28  50  69  96 135 176 219 256 307
#
# _framework density 15.285837000000001
#
# number of rings (size 3 to 8) (size 9 to 14) (size 15 to 20)
#    0.000    2.000    2.222    2.000    1.556    4.444 
#    0.000    0.000    0.000    0.000    0.000    0.000 
#    0.000    5.333    0.000    0.000    0.000    0.000 
#
# Total GULP energy -200522.109770 kJ/mol
# GULP energy per Si atom -5570.058605 kJ/mol
# Density = 1.525105 g / cm^3
# Si number density = 15.285837 Si / 1000 Ang^3
#
#
#
# Elastic Constant Matrix: (Units=GPa)
#
#
# Indices 1 2 3 4 5 6 
#
# 1 176.9386 73.0709 60.8903 0.0000 0.0000 0.0000
# 2 73.0709 123.3735 38.5602 0.0000 0.0000 0.0000
# 3 60.8903 38.5602 63.2096 0.0000 0.0000 0.0000
# 4 0.0000 0.0000 0.0000 0.7724 0.0000 0.0000
# 5 0.0000 0.0000 0.0000 0.0000 30.3421 0.0000
# 6 0.0000 0.0000 0.0000 0.0000 0.0000 26.7726
#
#
#
# Elastic Compliance Matrix: (Units=1/GPa)
#
#
# Indices 1 2 3 4 5 6 
#
# 1 0.009492 -0.003415 -0.007060 0.000000 0.000000 0.000000
# 2 -0.003415 0.011244 -0.003569 0.000000 0.000000 0.000000
# 3 -0.007060 -0.003569 0.024799 0.000000 0.000000 0.000000
# 4 0.000000 0.000000 0.000000 1.294713 0.000000 0.000000
# 5 0.000000 0.000000 0.000000 0.000000 0.032957 0.000000
# 6 0.000000 0.000000 0.000000 0.000000 0.000000 0.037352
#
#
# Mechanical properties :
#
#
# Convention : Reuss Voigt Hill
#
# Bulk Modulus (GPa) = 57.32214 78.72938 68.02576
# Shear Modulus (GPa) = 3.46150 24.31079 13.88614
#
# Velocity S-wave (km/s) = 1.50646 3.99232 3.01729
# Velocity P-wave (km/s) = 6.37240 8.53628 7.53245
#
# Compressibility (1/GPa) = 0.01744527
#
# Stress axis : x y z
#
# Youngs Moduli (GPa) = 105.35674 88.93878 40.32458
#
# Poissons Ratio (x) = 0.30373 0.28469
# Poissons Ratio (y) = 0.35979 0.14393
# Poissons Ratio (z) = 0.74382 0.31745
#
# Static dielectric constant tensor:
#      x y z
#    x 1.547220 0.000000 0.000000 
#    y 0.000000 1.489760 0.000000 
#    z 0.000000 0.000000 1.488960 
# 
# From -- ./inp_files/25341.got.cif
#   From: 2010.05.17/outbox.cif.g08.bks.cpg/sg67_13_cif.got.tgz:25341.got - 2010.06.03 18:28:57.
