data_PCOD9501349
_publ_section_title
;
Structure prediction by ZEFSAII (Michael W. Deem and Ramdas Pophale) SiO2 
 PCOD9501349
Probable space group: C M M A
;
_chemical_formula_sum "Si O2"
_cell_formula_units_Z 56
_cell_length_a 14.845029
_cell_length_b 8.337522
_cell_length_c 24.725723
_cell_angle_alpha 90.000000
_cell_angle_beta 90.000000
_cell_angle_gamma 90.000000
_cell_volume 3060.321425
_symmetry_space_group_name_H-M "C M M A"
_symmetry_group_IT_number 67
_symmetry_cell_setting 'orthorhombic'
loop_
_space_group_symop_operation_xyz
x,y,z
-x,1/2-y,z
x,-y,-z
-x,1/2+y,-z
-x,-y,-z
x,1/2+y,-z
-x,y,z
x,1/2-y,z
1/2+x,1/2+y,z
1/2-x,-y,z
1/2+x,1/2-y,-z
1/2-x,y,-z
1/2-x,1/2-y,-z
1/2+x,y,-z
1/2-x,1/2+y,z
1/2+x,-y,z
loop_
_atom_site_type_symbol
_atom_site_label
_atom_site_fract_x
_atom_site_fract_y
_atom_site_fract_z
Si Si1 0.500000 0.056551 0.061293
Si Si2 0.351951 0.058255 0.441352
Si Si3 0.647476 0.556579 0.852838
Si Si4 0.500000 0.446160 0.356871
Si Si5 0.500000 0.554216 0.766621
O O1 0.500000 0.250000 0.061865
O O2 0.411691 0.003826 0.095187
O O3 0.500000 0.000000 0.000000
O O4 0.352815 0.250000 0.442270
O O5 0.413927 0.002673 0.392017
O O6 0.385233 0.000000 0.500000
O O7 0.250000 0.000000 0.435056
O O8 0.648109 0.750000 0.852952
O O9 0.750000 0.500000 0.852834
O O10 0.588364 0.505063 0.800709
O O11 0.500000 0.250000 0.355584
O O12 0.500000 0.501818 0.295101
O O13 0.500000 0.750000 0.766163
#
# Coordination Sequence:
#
# PCOD9501349 Si02
#       5
#     8  16  16   8   8
#     4   9  19  34  50  73 102 132 162 196 236 281
#     4  10  19  32  49  70  95 124 157 194 237 287
#     4   9  18  33  53  73  97 129 163 196 237 283
#     4   9  18  31  50  72  94 124 160 195 238 286
#     4   8  16  33  51  69  96 128 159 195 238 287
#
# _framework density 18.298731
#
# number of rings (size 3 to 8) (size 9 to 14) (size 15 to 20)
#    0.000    2.857    0.000    3.857    0.000    2.857 
#    0.000    7.143    0.000    5.143    0.000    0.000 
#    0.000    0.000    0.000    0.000    0.000    0.000 
#
# Total GULP energy -156109.114030 kJ/mol
# GULP energy per Si atom -5575.325501 kJ/mol
# Density = 1.825708 g / cm^3
# Si number density = 18.298731 Si / 1000 Ang^3
#
#
#
# Elastic Constant Matrix: (Units=GPa)
#
#
# Indices 1 2 3 4 5 6 
#
# 1 173.6209 19.0161 116.2366 0.0000 0.0000 0.0000
# 2 19.0161 17.9253 22.2214 0.0000 0.0000 0.0000
# 3 116.2366 22.2214 216.2124 0.0000 0.0000 0.0000
# 4 0.0000 0.0000 0.0000 20.3023 0.0000 0.0000
# 5 0.0000 0.0000 0.0000 0.0000 8.1756 0.0000
# 6 0.0000 0.0000 0.0000 0.0000 0.0000 23.2346
#
#
#
# Elastic Compliance Matrix: (Units=1/GPa)
#
#
# Indices 1 2 3 4 5 6 
#
# 1 0.009265 -0.004188 -0.004550 0.000000 0.000000 0.000000
# 2 -0.004188 0.065825 -0.004514 0.000000 0.000000 0.000000
# 3 -0.004550 -0.004514 0.007535 0.000000 0.000000 0.000000
# 4 0.000000 0.000000 0.000000 0.049256 0.000000 0.000000
# 5 0.000000 0.000000 0.000000 0.000000 0.122315 0.000000
# 6 0.000000 0.000000 0.000000 0.000000 0.000000 0.043039
#
#
# Mechanical properties :
#
#
# Convention : Reuss Voigt Hill
#
# Bulk Modulus (GPa) = 17.81845 80.30074 49.05959
# Shear Modulus (GPa) = 14.60082 27.02812 20.81447
#
# Velocity S-wave (km/s) = 2.82780 3.84741 3.37632
# Velocity P-wave (km/s) = 4.51892 7.98218 6.48598
#
# Compressibility (1/GPa) = 0.05612162
#
# Stress axis : x y z
#
# Youngs Moduli (GPa) = 107.93616 15.19168 132.70857
#
# Poissons Ratio (x) = 0.06362 0.60387
# Poissons Ratio (y) = 0.45199 0.59904
# Poissons Ratio (z) = 0.49115 0.06858
#
# Static dielectric constant tensor:
#      x y z
#    x 1.618480 0.000000 0.000000 
#    y 0.000000 1.639060 0.000000 
#    z 0.000000 0.000000 1.623850 
# 
# From -- ./inp_files/40401.got.cif
#   From: 2010.05.17/outbox.cif.g08.bks.cpg/sg67_21_cif.got.tgz:40401.got - 2010.06.03 18:28:57.
