data_PCOD9501767
_publ_section_title
;
Structure prediction by ZEFSAII (Michael W. Deem and Ramdas Pophale) SiO2 
 PCOD9501767
Probable space group: C M M A
;
_chemical_formula_sum "Si O2"
_cell_formula_units_Z 88
_cell_length_a 9.386933
_cell_length_b 22.086431
_cell_length_c 23.118430
_cell_angle_alpha 90.000000
_cell_angle_beta 90.000000
_cell_angle_gamma 90.000000
_cell_volume 4793.001867
_symmetry_space_group_name_H-M "C M M A"
_symmetry_group_IT_number 67
_symmetry_cell_setting 'orthorhombic'
loop_
_space_group_symop_operation_xyz
x,y,z
-x,1/2-y,z
x,-y,-z
-x,1/2+y,-z
-x,-y,-z
x,1/2+y,-z
-x,y,z
x,1/2-y,z
1/2+x,1/2+y,z
1/2-x,-y,z
1/2+x,1/2-y,-z
1/2-x,y,-z
1/2-x,1/2-y,-z
1/2+x,y,-z
1/2-x,1/2+y,z
1/2+x,-y,z
loop_
_atom_site_type_symbol
_atom_site_label
_atom_site_fract_x
_atom_site_fract_y
_atom_site_fract_z
Si Si1 0.250000 0.500000 0.648455
Si Si2 0.160915 0.406943 0.444399
Si Si3 0.161076 0.901883 0.263339
Si Si4 0.826983 0.937672 0.136843
Si Si5 0.670542 0.681729 0.938839
Si Si6 0.831639 0.178622 0.636601
O O1 0.161637 0.542140 0.605304
O O2 0.162686 0.457039 0.691272
O O3 0.250000 0.426934 0.500000
O O4 0.243647 0.351388 0.414868
O O5 0.000000 0.392071 0.460969
O O6 0.223805 0.923035 0.202594
O O7 0.223893 0.847909 0.302067
O O8 0.000000 0.883310 0.248766
O O9 0.794269 0.877055 0.099964
O O10 0.000000 0.946706 0.136077
O O11 0.750000 0.000000 0.117762
O O12 0.500000 0.680039 0.947613
O O13 0.703507 0.750000 0.914992
O O14 0.750000 0.676736 0.000000
O O15 0.821265 0.250000 0.635541
O O16 0.000000 0.161684 0.631533
#
# Coordination Sequence:
#
# PCOD9501767 Si02
#       6
#     8  16  16  16  16  16
#     4  10  19  34  54  76 103 134 170 208 260 316
#     4  11  23  36  54  78 104 135 172 217 265 318
#     4   9  17  31  52  77 105 136 170 210 261 318
#     4  10  20  34  54  83 115 147 184 228 277 329
#     4   9  19  36  57  80 109 148 192 234 275 321
#     4   9  19  36  56  77 103 136 174 217 266 321
#
# _framework density 18.360102000000001
#
# number of rings (size 3 to 8) (size 9 to 14) (size 15 to 20)
#    0.000    2.364    0.909    1.364    0.000    5.455 
#    0.000    5.455    0.000    0.000    0.000    2.545 
#    0.000    0.000    0.000    0.000    0.000    0.000 
#
# Total GULP energy -245024.866747 kJ/mol
# GULP energy per Si atom -5568.746972 kJ/mol
# Density = 1.831831 g / cm^3
# Si number density = 18.360102 Si / 1000 Ang^3
#
#
#
# Elastic Constant Matrix: (Units=GPa)
#
#
# Indices 1 2 3 4 5 6 
#
# 1 58.8031 45.0410 30.7628 0.0000 0.0000 0.0000
# 2 45.0410 132.9850 67.6999 0.0000 0.0000 0.0000
# 3 30.7628 67.6999 97.9240 0.0000 0.0000 0.0000
# 4 0.0000 0.0000 0.0000 16.0142 0.0000 0.0000
# 5 0.0000 0.0000 0.0000 0.0000 21.5167 0.0000
# 6 0.0000 0.0000 0.0000 0.0000 0.0000 17.8858
#
#
#
# Elastic Compliance Matrix: (Units=1/GPa)
#
#
# Indices 1 2 3 4 5 6 
#
# 1 0.023485 -0.006478 -0.002899 0.000000 0.000000 0.000000
# 2 -0.006478 0.013391 -0.007222 0.000000 0.000000 0.000000
# 3 -0.002899 -0.007222 0.016116 0.000000 0.000000 0.000000
# 4 0.000000 0.000000 0.000000 0.062445 0.000000 0.000000
# 5 0.000000 0.000000 0.000000 0.000000 0.046476 0.000000
# 6 0.000000 0.000000 0.000000 0.000000 0.000000 0.055910
#
#
# Mechanical properties :
#
#
# Convention : Reuss Voigt Hill
#
# Bulk Modulus (GPa) = 50.52588 64.07995 57.30292
# Shear Modulus (GPa) = 19.40857 20.83056 20.11957
#
# Velocity S-wave (km/s) = 3.25484 3.37197 3.31392
# Velocity P-wave (km/s) = 6.45790 7.08080 6.77651
#
# Compressibility (1/GPa) = 0.01979184
#
# Stress axis : x y z
#
# Youngs Moduli (GPa) = 42.58112 74.67936 62.05039
#
# Poissons Ratio (x) = 0.48379 0.17988
# Poissons Ratio (y) = 0.27585 0.44816
# Poissons Ratio (z) = 0.12344 0.53937
#
# Static dielectric constant tensor:
#      x y z
#    x 1.647220 0.000000 0.000000 
#    y 0.000000 1.652440 0.000000 
#    z 0.000000 0.000000 1.639870 
# 
# From -- ./inp_files/36958.got.cif
#   From: 2010.05.17/outbox.cif.g08.bks.cpg/sg67_19_cif.got.tgz:36958.got - 2010.06.03 18:28:57.
