data_PCOD9501592
_publ_section_title
;
Structure prediction by ZEFSAII (Michael W. Deem and Ramdas Pophale) SiO2 
 PCOD9501592
Probable space group: C M M A
;
_chemical_formula_sum "Si O2"
_cell_formula_units_Z 104
_cell_length_a 31.828711
_cell_length_b 9.147924
_cell_length_c 19.567671
_cell_angle_alpha 90.000000
_cell_angle_beta 90.000000
_cell_angle_gamma 90.000000
_cell_volume 5697.452807
_symmetry_space_group_name_H-M "C M M A"
_symmetry_group_IT_number 67
_symmetry_cell_setting 'orthorhombic'
loop_
_space_group_symop_operation_xyz
x,y,z
-x,1/2-y,z
x,-y,-z
-x,1/2+y,-z
-x,-y,-z
x,1/2+y,-z
-x,y,z
x,1/2-y,z
1/2+x,1/2+y,z
1/2-x,-y,z
1/2+x,1/2-y,-z
1/2-x,y,-z
1/2-x,1/2-y,-z
1/2+x,y,-z
1/2-x,1/2+y,z
1/2+x,-y,z
loop_
_atom_site_type_symbol
_atom_site_label
_atom_site_fract_x
_atom_site_fract_y
_atom_site_fract_z
Si Si1 0.500000 0.427689 0.077021
Si Si2 0.047818 0.074846 0.573093
Si Si3 0.705704 0.923944 0.724635
Si Si4 0.067555 0.916972 0.825121
Si Si5 0.609715 0.573092 0.696162
Si Si6 0.707988 0.578831 0.887720
Si Si7 0.869376 0.912427 0.943821
O O1 0.500000 0.250000 0.070572
O O2 0.537780 0.486765 0.125644
O O3 0.500000 0.500000 0.000000
O O4 0.048773 0.250000 0.564637
O O5 0.084036 0.037099 0.627259
O O6 0.000000 0.036583 0.596854
O O7 0.054343 0.000000 0.500000
O O8 0.710155 0.750000 0.712511
O O9 0.659507 0.969484 0.695694
O O10 0.702111 0.947800 0.806416
O O11 0.750000 0.000000 0.702768
O O12 0.051474 0.750000 0.812810
O O13 0.108160 0.901398 0.872108
O O14 0.083245 0.997048 0.756861
O O15 0.608803 0.750000 0.706160
O O16 0.711114 0.750000 0.897856
O O17 0.750000 0.500000 0.909306
O O18 0.670465 0.510077 0.928939
O O19 0.860251 0.750000 0.968417
O O20 0.896020 0.000000 0.000000
#
# Coordination Sequence:
#
# PCOD9501592 Si02
#       7
#     8  16  16  16  16  16  16
#     4  12  26  44  64  82 111 152 195 244 298 356
#     4   9  19  36  59  88 123 159 195 230 281 344
#     4   9  18  32  53  80 112 148 189 237 289 345
#     4  11  24  40  59  86 114 144 189 239 287 345
#     4  10  20  36  59  89 120 155 196 242 292 346
#     4  10  19  33  52  74 103 138 179 227 281 339
#     4  11  23  37  54  75 103 139 181 231 285 340
#
# _framework density 18.253769999999999
#
# number of rings (size 3 to 8) (size 9 to 14) (size 15 to 20)
#    0.000    1.846    1.538    2.538    1.077    5.231 
#    0.000    1.538    0.000    0.462    0.000    3.231 
#    0.000    0.000    0.000    0.000    0.000    0.000 
#
# Total GULP energy -289718.669195 kJ/mol
# GULP energy per Si atom -5571.512869 kJ/mol
# Density = 1.821222 g / cm^3
# Si number density = 18.253770 Si / 1000 Ang^3
#
#
#
# Elastic Constant Matrix: (Units=GPa)
#
#
# Indices 1 2 3 4 5 6 
#
# 1 135.8041 53.0669 67.8499 0.0000 0.0000 0.0000
# 2 53.0669 75.6705 46.5161 0.0000 0.0000 0.0000
# 3 67.8499 46.5161 94.4695 0.0000 0.0000 0.0000
# 4 0.0000 0.0000 0.0000 27.7054 0.0000 0.0000
# 5 0.0000 0.0000 0.0000 0.0000 28.0433 0.0000
# 6 0.0000 0.0000 0.0000 0.0000 0.0000 18.2790
#
#
#
# Elastic Compliance Matrix: (Units=1/GPa)
#
#
# Indices 1 2 3 4 5 6 
#
# 1 0.012539 -0.004672 -0.006706 0.000000 0.000000 0.000000
# 2 -0.004672 0.020692 -0.006833 0.000000 0.000000 0.000000
# 3 -0.006706 -0.006833 0.018766 0.000000 0.000000 0.000000
# 4 0.000000 0.000000 0.000000 0.036094 0.000000 0.000000
# 5 0.000000 0.000000 0.000000 0.000000 0.035659 0.000000
# 6 0.000000 0.000000 0.000000 0.000000 0.000000 0.054708
#
#
# Mechanical properties :
#
#
# Convention : Reuss Voigt Hill
#
# Bulk Modulus (GPa) = 64.20030 71.20111 67.70071
# Shear Modulus (GPa) = 22.71986 24.03960 23.37973
#
# Velocity S-wave (km/s) = 3.53181 3.63294 3.58273
# Velocity P-wave (km/s) = 7.20270 7.52918 7.36775
#
# Compressibility (1/GPa) = 0.01557625
#
# Stress axis : x y z
#
# Youngs Moduli (GPa) = 79.74926 48.32818 53.28688
#
# Poissons Ratio (x) = 0.22577 0.35733
# Poissons Ratio (y) = 0.37255 0.36413
# Poissons Ratio (z) = 0.53478 0.33024
#
# Static dielectric constant tensor:
#      x y z
#    x 1.669500 0.000000 0.000000 
#    y 0.000000 1.694290 0.000000 
#    z 0.000000 0.000000 1.613190 
# 
# From -- ./inp_files/40239.got.cif
#   From: 2010.05.17/outbox.cif.g08.bks.cpg/sg67_21_cif.got.tgz:40239.got - 2010.06.03 18:28:57.
