data_PCOD9501835
_publ_section_title
;
Structure prediction by ZEFSAII (Michael W. Deem and Ramdas Pophale) SiO2 
 PCOD9501835
Probable space group: C M M A
;
_chemical_formula_sum "Si O2"
_cell_formula_units_Z 112
_cell_length_a 23.593433
_cell_length_b 17.855671
_cell_length_c 12.366443
_cell_angle_alpha 90.000000
_cell_angle_beta 90.000000
_cell_angle_gamma 90.000000
_cell_volume 5209.692782
_symmetry_space_group_name_H-M "C M M A"
_symmetry_group_IT_number 67
_symmetry_cell_setting 'orthorhombic'
loop_
_space_group_symop_operation_xyz
x,y,z
-x,1/2-y,z
x,-y,-z
-x,1/2+y,-z
-x,-y,-z
x,1/2+y,-z
-x,y,z
x,1/2-y,z
1/2+x,1/2+y,z
1/2-x,-y,z
1/2+x,1/2-y,-z
1/2-x,y,-z
1/2-x,1/2-y,-z
1/2+x,y,-z
1/2-x,1/2+y,z
1/2+x,-y,z
loop_
_atom_site_type_symbol
_atom_site_label
_atom_site_fract_x
_atom_site_fract_y
_atom_site_fract_z
Si Si1 0.662791 0.335815 0.160167
Si Si2 0.322637 0.167250 0.916306
Si Si3 0.563508 0.080939 0.445364
Si Si4 0.937239 0.945305 0.188960
Si Si5 0.262592 0.412883 0.728411
Si Si6 0.138805 0.838045 0.603908
Si Si7 0.566355 0.376981 0.815679
O O1 0.646372 0.250000 0.182630
O O2 0.610869 0.391952 0.145549
O O3 0.704771 0.367494 0.251402
O O4 0.691718 0.337219 0.041933
O O5 0.304979 0.250000 0.874396
O O6 0.296998 0.103716 0.839704
O O7 0.390589 0.161571 0.899056
O O8 0.500000 0.108503 0.473842
O O9 0.565078 0.067851 0.317961
O O10 0.611194 0.134464 0.492814
O O11 0.570926 0.000000 0.500000
O O12 0.000000 0.924967 0.148983
O O13 0.929049 0.033324 0.168658
O O14 0.250000 0.500000 0.714338
O O15 0.303760 0.381178 0.636014
O O16 0.149178 0.750000 0.604736
O O17 0.092652 0.857352 0.697926
O O18 0.500000 0.356610 0.822468
#
# Coordination Sequence:
#
# PCOD9501835 Si02
#       7
#    16  16  16  16  16  16  16
#     4  11  23  40  61  83 118 164 201 247 306 359
#     4  10  22  38  58  87 121 157 201 249 299 361
#     4  10  20  38  65  91 122 162 199 242 299 360
#     4  10  22  39  61  89 119 157 205 250 297 360
#     4  11  23  39  63  90 116 154 201 255 303 362
#     4  11  22  37  61  93 124 154 199 253 305 361
#     4  10  19  34  57  87 123 158 195 246 303 356
#
# _framework density 21.498387999999998
#
# number of rings (size 3 to 8) (size 9 to 14) (size 15 to 20)
#    0.000    1.571    1.429    5.143    0.000    7.429 
#    0.000    5.000    0.000    1.714    0.000    0.000 
#    0.000    0.000    0.000    0.000    0.000    0.000 
#
# Total GULP energy -313073.879230 kJ/mol
# GULP energy per Si atom -5590.604986 kJ/mol
# Density = 2.144946 g / cm^3
# Si number density = 21.498388 Si / 1000 Ang^3
#
#
#
# Elastic Constant Matrix: (Units=GPa)
#
#
# Indices 1 2 3 4 5 6 
#
# 1 97.9537 55.3070 2.0270 0.0000 0.0000 0.0000
# 2 55.3070 132.2550 10.2122 0.0000 0.0000 0.0000
# 3 2.0270 10.2122 17.1556 0.0000 0.0000 0.0000
# 4 0.0000 0.0000 0.0000 19.2508 0.0000 0.0000
# 5 0.0000 0.0000 0.0000 0.0000 28.9765 0.0000
# 6 0.0000 0.0000 0.0000 0.0000 0.0000 -4.6381
#
#
#
# Elastic Compliance Matrix: (Units=1/GPa)
#
#
# Indices 1 2 3 4 5 6 
#
# 1 0.013420 -0.005754 0.001840 0.000000 0.000000 0.000000
# 2 -0.005754 0.010393 -0.005506 0.000000 0.000000 0.000000
# 3 0.001840 -0.005506 0.061350 0.000000 0.000000 0.000000
# 4 0.000000 0.000000 0.000000 0.051946 0.000000 0.000000
# 5 0.000000 0.000000 0.000000 0.000000 0.034511 0.000000
# 6 0.000000 0.000000 0.000000 0.000000 0.000000 -0.215608
#
#
# Mechanical properties :
#
#
# Convention : Reuss Voigt Hill
#
# Bulk Modulus (GPa) = 15.07821 42.49520 28.78670
# Shear Modulus (GPa) = -1644.85967 20.70572 -812.07697
#
# Velocity S-wave (km/s) = -27.69060 3.10680 -19.45658
# Velocity P-wave (km/s) = 31.86425 5.71657 22.16586
#
# Compressibility (1/GPa) = 0.06632088
#
# Stress axis : x y z
#
# Youngs Moduli (GPa) = 74.51760 96.22277 16.29979
#
# Poissons Ratio (x) = 0.55366 -0.02998
# Poissons Ratio (y) = 0.42877 0.08975
# Poissons Ratio (z) = -0.13708 0.52985
#
# Static dielectric constant tensor:
#      x y z
#    x 1.840190 0.000000 0.000000 
#    y 0.000000 1.758660 0.000000 
#    z 0.000000 0.000000 1.800850 
# 
# From -- ./inp_files/30133.got.cif
#   From: 2010.05.17/outbox.cif.g08.bks.cpg/sg67_16_cif.got.tgz:30133.got - 2010.06.03 18:28:57.
