data_PCOD9501464
_publ_section_title
;
Structure prediction by ZEFSAII (Michael W. Deem and Ramdas Pophale) SiO2 
 PCOD9501464
Probable space group: C M M A
;
_chemical_formula_sum "Si O2"
_cell_formula_units_Z 72
_cell_length_a 8.101137
_cell_length_b 15.350851
_cell_length_c 27.053842
_cell_angle_alpha 90.000000
_cell_angle_beta 90.000000
_cell_angle_gamma 90.000000
_cell_volume 3364.398125
_symmetry_space_group_name_H-M "C M M A"
_symmetry_group_IT_number 67
_symmetry_cell_setting 'orthorhombic'
loop_
_space_group_symop_operation_xyz
x,y,z
-x,1/2-y,z
x,-y,-z
-x,1/2+y,-z
-x,-y,-z
x,1/2+y,-z
-x,y,z
x,1/2-y,z
1/2+x,1/2+y,z
1/2-x,-y,z
1/2+x,1/2-y,-z
1/2-x,y,-z
1/2-x,1/2-y,-z
1/2+x,y,-z
1/2-x,1/2+y,z
1/2+x,-y,z
loop_
_atom_site_type_symbol
_atom_site_label
_atom_site_fract_x
_atom_site_fract_y
_atom_site_fract_z
Si Si1 0.310663 0.145725 0.157301
Si Si2 0.196097 0.899305 0.629212
Si Si3 0.699347 0.351466 0.052369
Si Si4 0.302596 0.600066 0.735644
Si Si5 0.199853 0.750000 0.556783
O O1 0.500000 0.112130 0.159907
O O2 0.319238 0.250000 0.151870
O O3 0.237820 0.112303 0.105206
O O4 0.234306 0.130066 0.211101
O O5 0.243083 0.862630 0.683480
O O6 0.259862 0.835416 0.586527
O O7 0.000000 0.900039 0.626957
O O8 0.250000 0.000000 0.624152
O O9 0.500000 0.351499 0.054723
O O10 0.756119 0.250000 0.050538
O O11 0.750000 0.391888 0.000000
O O12 0.500000 0.611069 0.736350
O O13 0.250000 0.500000 0.732796
O O14 0.250000 0.750000 0.500000
O O15 0.000000 0.750000 0.558902
#
# Coordination Sequence:
#
# PCOD9501464 Si02
#       5
#    16  16  16  16   8
#     4   8  15  27  44  68  94 123 163 207 252 305
#     4  10  21  39  59  84 116 151 186 227 275 323
#     4   8  13  23  39  59  86 117 152 199 250 302
#     4  10  19  32  52  75 101 135 173 212 258 315
#     4  10  24  42  62  88 120 152 187 228 273 318
#
# _framework density 21.400561
#
# number of rings (size 3 to 8) (size 9 to 14) (size 15 to 20)
#    0.000    2.889    0.000    4.000    1.556    2.222 
#    0.000    4.444    0.000    3.333    0.000    4.667 
#    0.000    0.000    0.000    0.000    0.000    0.000 
#
# Total GULP energy -200474.005508 kJ/mol
# GULP energy per Si atom -5568.722375 kJ/mol
# Density = 2.135185 g / cm^3
# Si number density = 21.400561 Si / 1000 Ang^3
#
#
#
# Elastic Constant Matrix: (Units=GPa)
#
#
# Indices 1 2 3 4 5 6 
#
# 1 25.9025 6.2953 19.6537 0.0000 0.0000 0.0000
# 2 6.2953 60.6201 67.2815 0.0000 0.0000 0.0000
# 3 19.6537 67.2815 272.2197 0.0000 0.0000 0.0000
# 4 0.0000 0.0000 0.0000 103.5579 0.0000 0.0000
# 5 0.0000 0.0000 0.0000 0.0000 29.2875 0.0000
# 6 0.0000 0.0000 0.0000 0.0000 0.0000 7.8169
#
#
#
# Elastic Compliance Matrix: (Units=1/GPa)
#
#
# Indices 1 2 3 4 5 6 
#
# 1 0.040922 -0.001337 -0.002624 0.000000 0.000000 0.000000
# 2 -0.001337 0.022776 -0.005533 0.000000 0.000000 0.000000
# 3 -0.002624 -0.005533 0.005230 0.000000 0.000000 0.000000
# 4 0.000000 0.000000 0.000000 0.009656 0.000000 0.000000
# 5 0.000000 0.000000 0.000000 0.000000 0.034144 0.000000
# 6 0.000000 0.000000 0.000000 0.000000 0.000000 0.127928
#
#
# Mechanical properties :
#
#
# Convention : Reuss Voigt Hill
#
# Bulk Modulus (GPa) = 20.02392 60.57816 40.30104
# Shear Modulus (GPa) = 18.09677 45.83324 31.96501
#
# Velocity S-wave (km/s) = 2.91111 4.63285 3.86897
# Velocity P-wave (km/s) = 4.54714 7.54891 6.23147
#
# Compressibility (1/GPa) = 0.04994026
#
# Stress axis : x y z
#
# Youngs Moduli (GPa) = 24.43657 43.90640 191.19022
#
# Poissons Ratio (x) = 0.05872 0.50167
# Poissons Ratio (y) = 0.03268 1.05779
# Poissons Ratio (z) = 0.06412 0.24292
#
# Static dielectric constant tensor:
#      x y z
#    x 1.795530 0.000000 0.000000 
#    y 0.000000 1.795460 0.000000 
#    z 0.000000 0.000000 1.865640 
# 
# From -- ./inp_files/43120.got.cif
#   From: 2010.05.17/outbox.cif.g08.bks.cpg/sg67_22_cif.got.tgz:43120.got - 2010.06.03 18:28:57.
