data_PCOD9501686
_publ_section_title
;
Structure prediction by ZEFSAII (Michael W. Deem and Ramdas Pophale) SiO2 
 PCOD9501686
Probable space group: C M M A
;
_chemical_formula_sum "Si O2"
_cell_formula_units_Z 96
_cell_length_a 26.067654
_cell_length_b 14.876372
_cell_length_c 10.513681
_cell_angle_alpha 90.000000
_cell_angle_beta 90.000000
_cell_angle_gamma 90.000000
_cell_volume 4077.122624
_symmetry_space_group_name_H-M "C M M A"
_symmetry_group_IT_number 67
_symmetry_cell_setting 'orthorhombic'
loop_
_space_group_symop_operation_xyz
x,y,z
-x,1/2-y,z
x,-y,-z
-x,1/2+y,-z
-x,-y,-z
x,1/2+y,-z
-x,y,z
x,1/2-y,z
1/2+x,1/2+y,z
1/2-x,-y,z
1/2+x,1/2-y,-z
1/2-x,y,-z
1/2-x,1/2-y,-z
1/2+x,y,-z
1/2-x,1/2+y,z
1/2+x,-y,z
loop_
_atom_site_type_symbol
_atom_site_label
_atom_site_fract_x
_atom_site_fract_y
_atom_site_fract_z
Si Si1 0.910169 0.898102 0.894034
Si Si2 0.156440 0.150731 0.707504
Si Si3 0.056131 0.648862 0.626414
Si Si4 0.441251 0.896384 0.830222
Si Si5 0.331362 0.643158 0.419285
Si Si6 0.195381 0.530785 0.815590
O O1 0.933618 0.843966 0.777390
O O2 0.848195 0.911891 0.888892
O O3 0.932417 0.997287 0.858509
O O4 0.926155 0.860256 0.029925
O O5 0.171353 0.250000 0.753054
O O6 0.094771 0.142268 0.719531
O O7 0.180681 0.138813 0.567964
O O8 0.171567 0.066401 0.790068
O O9 0.055727 0.750000 0.572574
O O10 0.109908 0.605548 0.585135
O O11 0.000000 0.607445 0.602621
O O12 0.500000 0.879715 0.801420
O O13 0.330819 0.750000 0.384316
O O14 0.299623 0.585580 0.317984
O O15 0.250000 0.500000 0.867132
#
# Coordination Sequence:
#
# PCOD9501686 Si02
#       6
#    16  16  16  16  16  16
#     4   9  18  34  52  76 107 136 181 242 283 328
#     4  10  22  37  52  80 119 151 187 237 286 342
#     4   9  16  27  47  73 100 133 172 219 277 334
#     4  10  19  33  55  78 106 148 186 219 274 344
#     4   9  19  35  54  80 114 147 187 241 292 343
#     4  10  21  38  61  83 107 146 194 242 299 354
#
# _framework density 23.546018
#
# number of rings (size 3 to 8) (size 9 to 14) (size 15 to 20)
#    0.000    2.500    0.000    2.500    0.000    3.667 
#    0.000   10.000    0.000    7.000    0.000    0.000 
#    0.000    0.000    0.000    0.000    0.000    0.000 
#
# Total GULP energy -267558.297419 kJ/mol
# GULP energy per Si atom -5574.131196 kJ/mol
# Density = 2.349243 g / cm^3
# Si number density = 23.546018 Si / 1000 Ang^3
#
#
#
# Elastic Constant Matrix: (Units=GPa)
#
#
# Indices 1 2 3 4 5 6 
#
# 1 117.9379 8.2968 -1.7382 0.0000 0.0000 0.0000
# 2 8.2968 83.5467 19.0920 0.0000 0.0000 0.0000
# 3 -1.7382 19.0920 53.6655 0.0000 0.0000 0.0000
# 4 0.0000 0.0000 0.0000 9.9522 0.0000 0.0000
# 5 0.0000 0.0000 0.0000 0.0000 4.0281 0.0000
# 6 0.0000 0.0000 0.0000 0.0000 0.0000 6.7850
#
#
#
# Elastic Compliance Matrix: (Units=1/GPa)
#
#
# Indices 1 2 3 4 5 6 
#
# 1 0.008558 -0.000994 0.000631 0.000000 0.000000 0.000000
# 2 -0.000994 0.013144 -0.004708 0.000000 0.000000 0.000000
# 3 0.000631 -0.004708 0.020329 0.000000 0.000000 0.000000
# 4 0.000000 0.000000 0.000000 0.100480 0.000000 0.000000
# 5 0.000000 0.000000 0.000000 0.000000 0.248259 0.000000
# 6 0.000000 0.000000 0.000000 0.000000 0.000000 0.147384
#
#
# Mechanical properties :
#
#
# Convention : Reuss Voigt Hill
#
# Bulk Modulus (GPa) = 31.35913 34.05014 32.70464
# Shear Modulus (GPa) = 8.94570 19.45303 14.19937
#
# Velocity S-wave (km/s) = 1.95128 2.87744 2.45837
# Velocity P-wave (km/s) = 4.29230 5.05292 4.68806
#
# Compressibility (1/GPa) = 0.03188864
#
# Stress axis : x y z
#
# Youngs Moduli (GPa) = 116.84613 76.08030 49.18986
#
# Poissons Ratio (x) = 0.07563 -0.03103
# Poissons Ratio (y) = 0.11615 0.23160
# Poissons Ratio (z) = -0.07371 0.35821
#
# Static dielectric constant tensor:
#      x y z
#    x 2.106620 0.000000 0.000000 
#    y 0.000000 1.837350 0.000000 
#    z 0.000000 0.000000 1.949560 
# 
# From -- ./inp_files/21941.got.cif
#   From: 2010.05.17/outbox.cif.g08.bks.cpg/sg67_11_cif.got.tgz:21941.got - 2010.06.03 18:28:57.
