data_PCOD9501555
_publ_section_title
;
Structure prediction by ZEFSAII (Michael W. Deem and Ramdas Pophale) SiO2 
 PCOD9501555
Probable space group: C M M A
;
_chemical_formula_sum "Si O2"
_cell_formula_units_Z 116
_cell_length_a 14.906888
_cell_length_b 27.398799
_cell_length_c 12.532911
_cell_angle_alpha 90.000000
_cell_angle_beta 90.000000
_cell_angle_gamma 90.000000
_cell_volume 5118.827217
_symmetry_space_group_name_H-M "C M M A"
_symmetry_group_IT_number 67
_symmetry_cell_setting 'orthorhombic'
loop_
_space_group_symop_operation_xyz
x,y,z
-x,1/2-y,z
x,-y,-z
-x,1/2+y,-z
-x,-y,-z
x,1/2+y,-z
-x,y,z
x,1/2-y,z
1/2+x,1/2+y,z
1/2-x,-y,z
1/2+x,1/2-y,-z
1/2-x,y,-z
1/2-x,1/2-y,-z
1/2+x,y,-z
1/2-x,1/2+y,z
1/2+x,-y,z
loop_
_atom_site_type_symbol
_atom_site_label
_atom_site_fract_x
_atom_site_fract_y
_atom_site_fract_z
Si Si1 0.359547 0.823300 0.291015
Si Si2 0.144935 0.156564 0.519546
Si Si3 0.608507 0.954351 0.569685
Si Si4 0.608927 0.410912 0.842264
Si Si5 0.391475 0.882378 0.929827
Si Si6 0.000000 0.250000 0.205541
Si Si7 0.347115 0.304839 0.252755
Si Si8 0.390249 0.978726 0.808721
O O1 0.395193 0.819962 0.412446
O O2 0.360787 0.880125 0.259203
O O3 0.422845 0.792592 0.214742
O O4 0.258933 0.805157 0.276042
O O5 0.250000 0.166737 0.500000
O O6 0.134425 0.098293 0.525136
O O7 0.113130 0.176623 0.633920
O O8 0.500000 0.955203 0.570566
O O9 0.638932 0.962886 0.690738
O O10 0.639563 0.000000 0.500000
O O11 0.500000 0.411952 0.842199
O O12 0.639671 0.466928 0.838705
O O13 0.639667 0.381721 0.947745
O O14 0.500000 0.881031 0.931347
O O15 0.363762 0.841181 0.845626
O O16 0.363250 0.935503 0.887019
O O17 0.377855 0.250000 0.228805
O O18 0.500000 0.979862 0.809576
#
# Coordination Sequence:
#
# PCOD9501555 Si02
#       8
#    16  16  16  16  16   4  16  16
#     4  11  24  42  64  94 122 162 213 268 323 384
#     4  10  23  39  61  87 124 163 204 258 320 384
#     4  10  19  32  55  90 126 162 203 254 305 371
#     4  10  20  38  63  94 126 161 210 267 316 375
#     4  10  21  40  63  93 126 168 215 258 314 385
#     4  12  24  44  66  94 124 164 220 264 322 390
#     4  11  24  44  64  88 129 168 210 268 325 376
#     4   9  17  33  60  89 124 163 203 250 315 375
#
# _framework density 22.661441
#
# number of rings (size 3 to 8) (size 9 to 14) (size 15 to 20)
#    0.000    1.793    2.759    1.241    1.931    4.690 
#    1.241    1.379    0.000    1.655    0.000    0.000 
#    0.000    0.000    0.000    0.000    0.000    0.000 
#
# Total GULP energy -323675.012716 kJ/mol
# GULP energy per Si atom -5580.603668 kJ/mol
# Density = 2.260986 g / cm^3
# Si number density = 22.661441 Si / 1000 Ang^3
#
#
#
# Elastic Constant Matrix: (Units=GPa)
#
#
# Indices 1 2 3 4 5 6 
#
# 1 43.6111 -2.6646 1.4237 0.0000 0.0000 0.0000
# 2 -2.6646 134.8676 18.1391 0.0000 0.0000 0.0000
# 3 1.4237 18.1391 86.7459 0.0000 0.0000 0.0000
# 4 0.0000 0.0000 0.0000 9.6362 0.0000 0.0000
# 5 0.0000 0.0000 0.0000 0.0000 5.0830 0.0000
# 6 0.0000 0.0000 0.0000 0.0000 0.0000 8.3082
#
#
#
# Elastic Compliance Matrix: (Units=1/GPa)
#
#
# Indices 1 2 3 4 5 6 
#
# 1 0.022978 0.000519 -0.000486 0.000000 0.000000 0.000000
# 2 0.000519 0.007641 -0.001606 0.000000 0.000000 0.000000
# 3 -0.000486 -0.001606 0.011872 0.000000 0.000000 0.000000
# 4 0.000000 0.000000 0.000000 0.103775 0.000000 0.000000
# 5 0.000000 0.000000 0.000000 0.000000 0.196735 0.000000
# 6 0.000000 0.000000 0.000000 0.000000 0.000000 0.120363
#
#
# Mechanical properties :
#
#
# Convention : Reuss Voigt Hill
#
# Bulk Modulus (GPa) = 25.41626 33.22455 29.32041
# Shear Modulus (GPa) = 10.42485 21.16058 15.79272
#
# Velocity S-wave (km/s) = 2.14715 3.05908 2.64275
# Velocity P-wave (km/s) = 4.16977 5.21252 4.72003
#
# Compressibility (1/GPa) = 0.03934489
#
# Stress axis : x y z
#
# Youngs Moduli (GPa) = 43.52078 130.87324 84.23340
#
# Poissons Ratio (x) = -0.06796 0.04091
# Poissons Ratio (y) = -0.02260 0.13530
# Poissons Ratio (z) = 0.02114 0.21022
#
# Static dielectric constant tensor:
#      x y z
#    x 1.875740 0.000000 0.000000 
#    y 0.000000 1.831510 0.000000 
#    z 0.000000 0.000000 1.871590 
# 
# From -- ./inp_files/19998.got.cif
#   From: 2010.05.17/outbox.cif.g08.bks.cpg/sg67_10_cif.got.tgz:19998.got - 2010.06.03 18:28:57.
