data_PCOD9501750
_publ_section_title
;
Structure prediction by ZEFSAII (Michael W. Deem and Ramdas Pophale) SiO2 
 PCOD9501750
Probable space group: C M M A
;
_chemical_formula_sum "Si O2"
_cell_formula_units_Z 104
_cell_length_a 30.695915
_cell_length_b 9.281243
_cell_length_c 20.418685
_cell_angle_alpha 90.000000
_cell_angle_beta 90.000000
_cell_angle_gamma 90.000000
_cell_volume 5817.206709
_symmetry_space_group_name_H-M "C M M A"
_symmetry_group_IT_number 67
_symmetry_cell_setting 'orthorhombic'
loop_
_space_group_symop_operation_xyz
x,y,z
-x,1/2-y,z
x,-y,-z
-x,1/2+y,-z
-x,-y,-z
x,1/2+y,-z
-x,y,z
x,1/2-y,z
1/2+x,1/2+y,z
1/2-x,-y,z
1/2+x,1/2-y,-z
1/2-x,y,-z
1/2-x,1/2-y,-z
1/2+x,y,-z
1/2-x,1/2+y,z
1/2+x,-y,z
loop_
_atom_site_type_symbol
_atom_site_label
_atom_site_fract_x
_atom_site_fract_y
_atom_site_fract_z
Si Si1 0.585329 0.415279 0.145430
Si Si2 0.858197 0.421267 0.309787
Si Si3 0.795418 0.077235 0.432123
Si Si4 0.205869 0.577935 0.211441
Si Si5 0.828606 0.078131 0.931431
Si Si6 0.550117 0.077370 0.728440
Si Si7 0.000000 0.099968 0.940619
O O1 0.596348 0.250000 0.166986
O O2 0.624022 0.464719 0.097688
O O3 0.571121 0.514238 0.205402
O O4 0.542054 0.410079 0.103204
O O5 0.855315 0.250000 0.293366
O O6 0.830522 0.445328 0.375288
O O7 0.834653 0.511046 0.251780
O O8 0.909495 0.456389 0.320215
O O9 0.789330 0.250000 0.440932
O O10 0.808470 0.000000 0.500000
O O11 0.750000 0.000000 0.413222
O O12 0.207818 0.750000 0.221629
O O13 0.250000 0.500000 0.234051
O O14 0.200666 0.551473 0.133179
O O15 0.828696 0.250000 0.943721
O O16 0.818348 0.000000 0.000000
O O17 0.500000 0.024508 0.717753
O O18 0.547139 0.250000 0.732598
O O19 0.000000 0.250000 0.975804
O O20 0.000000 0.000000 0.000000
#
# Coordination Sequence:
#
# PCOD9501750 Si02
#       7
#    16  16  16  16  16  16   8
#     4  10  19  34  51  71  99 132 173 224 279 333
#     4  10  21  37  58  85 116 149 185 226 272 323
#     4  10  20  35  57  87 121 153 185 220 263 317
#     4  11  23  38  57  81 108 141 183 229 279 334
#     4  10  22  37  53  73  99 136 180 227 280 334
#     4  10  20  34  55  82 109 141 182 226 273 323
#     4  10  20  30  46  68  96 128 165 216 275 336
#
# _framework density 17.877996
#
# number of rings (size 3 to 8) (size 9 to 14) (size 15 to 20)
#    0.000    1.846    2.308    2.308    0.000    5.231 
#    0.000    1.538    0.000    0.462    0.000    0.000 
#    0.000    0.000    0.000    0.000    0.000    0.615 
#
# Total GULP energy -289634.098697 kJ/mol
# GULP energy per Si atom -5569.886513 kJ/mol
# Density = 1.783730 g / cm^3
# Si number density = 17.877996 Si / 1000 Ang^3
#
#
#
# Elastic Constant Matrix: (Units=GPa)
#
#
# Indices 1 2 3 4 5 6 
#
# 1 121.9834 48.2398 45.8864 0.0000 0.0000 0.0000
# 2 48.2398 54.9523 44.7663 0.0000 0.0000 0.0000
# 3 45.8864 44.7663 86.3351 0.0000 0.0000 0.0000
# 4 0.0000 0.0000 0.0000 18.2070 0.0000 0.0000
# 5 0.0000 0.0000 0.0000 0.0000 176.9003 0.0000
# 6 0.0000 0.0000 0.0000 0.0000 0.0000 16.9944
#
#
#
# Elastic Compliance Matrix: (Units=1/GPa)
#
#
# Indices 1 2 3 4 5 6 
#
# 1 0.012696 -0.009779 -0.001677 0.000000 0.000000 0.000000
# 2 -0.009779 0.039037 -0.015044 0.000000 0.000000 0.000000
# 3 -0.001677 -0.015044 0.020275 0.000000 0.000000 0.000000
# 4 0.000000 0.000000 0.000000 0.054924 0.000000 0.000000
# 5 0.000000 0.000000 0.000000 0.000000 0.005653 0.000000
# 6 0.000000 0.000000 0.000000 0.000000 0.000000 0.058843
#
#
# Mechanical properties :
#
#
# Convention : Reuss Voigt Hill
#
# Bulk Modulus (GPa) = 52.61027 60.11731 56.36379
# Shear Modulus (GPa) = 19.93901 50.71223 35.32562
#
# Velocity S-wave (km/s) = 3.34321 5.33173 4.44996
# Velocity P-wave (km/s) = 6.66288 8.46183 7.61566
#
# Compressibility (1/GPa) = 0.01900770
#
# Stress axis : x y z
#
# Youngs Moduli (GPa) = 78.76574 25.61640 49.32159
#
# Poissons Ratio (x) = 0.25049 0.08273
# Poissons Ratio (y) = 0.77022 0.74201
# Poissons Ratio (z) = 0.13212 0.38538
#
# Static dielectric constant tensor:
#      x y z
#    x 1.655460 0.000000 0.000000 
#    y 0.000000 1.626140 0.000000 
#    z 0.000000 0.000000 1.589790 
# 
# From -- ./inp_files/40204.got.cif
#   From: 2010.05.17/outbox.cif.g08.bks.cpg/sg67_21_cif.got.tgz:40204.got - 2010.06.03 18:28:57.
