data_PCOD9501859
_publ_section_title
;
Structure prediction by ZEFSAII (Michael W. Deem and Ramdas Pophale) SiO2 
 PCOD9501859
Probable space group: C M M A
;
_chemical_formula_sum "Si O2"
_cell_formula_units_Z 112
_cell_length_a 17.000329
_cell_length_b 23.020685
_cell_length_c 14.761170
_cell_angle_alpha 90.000000
_cell_angle_beta 90.000000
_cell_angle_gamma 90.000000
_cell_volume 5776.919960
_symmetry_space_group_name_H-M "C M M A"
_symmetry_group_IT_number 67
_symmetry_cell_setting 'orthorhombic'
loop_
_space_group_symop_operation_xyz
x,y,z
-x,1/2-y,z
x,-y,-z
-x,1/2+y,-z
-x,-y,-z
x,1/2+y,-z
-x,y,z
x,1/2-y,z
1/2+x,1/2+y,z
1/2-x,-y,z
1/2+x,1/2-y,-z
1/2-x,y,-z
1/2-x,1/2-y,-z
1/2+x,y,-z
1/2-x,1/2+y,z
1/2+x,-y,z
loop_
_atom_site_type_symbol
_atom_site_label
_atom_site_fract_x
_atom_site_fract_y
_atom_site_fract_z
Si Si1 0.593439 0.013887 0.360542
Si Si2 0.407872 0.318542 0.636705
Si Si3 0.157080 0.587223 0.508348
Si Si4 0.905170 0.183341 0.961676
Si Si5 0.199138 0.578779 0.091543
Si Si6 0.350483 0.967876 0.171464
Si Si7 0.911171 0.153819 0.162753
O O1 0.500000 0.013440 0.350972
O O2 0.620449 0.961342 0.425342
O O3 0.632902 0.999339 0.265551
O O4 0.620409 0.072798 0.410339
O O5 0.500000 0.337453 0.635359
O O6 0.404683 0.250000 0.622523
O O7 0.364098 0.353007 0.557679
O O8 0.376182 0.331581 0.738563
O O9 0.250000 0.579565 0.500000
O O10 0.892128 0.250000 0.933010
O O11 0.855513 0.135362 0.906746
O O12 0.000000 0.171965 0.958227
O O13 0.878626 0.177379 0.067660
O O14 0.266654 0.566149 0.166555
O O15 0.149359 0.519623 0.098888
O O16 0.250000 0.580979 0.000000
O O17 0.410478 0.915804 0.155016
O O18 0.000000 0.177148 0.166946
#
# Coordination Sequence:
#
# PCOD9501859 Si02
#       7
#    16  16  16  16  16  16  16
#     4  11  22  39  63  90 119 157 200 250 305 367
#     4  10  20  37  61  89 124 164 208 259 307 360
#     4  11  23  36  60  89 126 163 196 244 301 369
#     4  10  22  41  63  89 123 165 217 266 307 369
#     4  11  24  40  59  86 125 167 203 253 323 375
#     4  11  22  35  61  86 126 157 198 258 314 372
#     4  10  19  34  59  92 123 156 204 258 311 360
#
# _framework density 19.387492999999999
#
# number of rings (size 3 to 8) (size 9 to 14) (size 15 to 20)
#    0.000    1.429    2.857    4.286    4.000    3.429 
#    0.000    1.429    0.000    0.857    0.000    2.000 
#    0.000    0.000    0.000    0.000    0.000    0.000 
#
# Total GULP energy -312258.730172 kJ/mol
# GULP energy per Si atom -5576.048753 kJ/mol
# Density = 1.934337 g / cm^3
# Si number density = 19.387493 Si / 1000 Ang^3
#
#
#
# Elastic Constant Matrix: (Units=GPa)
#
#
# Indices 1 2 3 4 5 6 
#
# 1 93.7046 48.2247 62.0349 0.0000 0.0000 0.0000
# 2 48.2247 125.2623 40.3356 0.0000 0.0000 0.0000
# 3 62.0349 40.3356 70.8469 0.0000 0.0000 0.0000
# 4 0.0000 0.0000 0.0000 25.8603 0.0000 0.0000
# 5 0.0000 0.0000 0.0000 0.0000 27.7007 0.0000
# 6 0.0000 0.0000 0.0000 0.0000 0.0000 42.5207
#
#
#
# Elastic Compliance Matrix: (Units=1/GPa)
#
#
# Indices 1 2 3 4 5 6 
#
# 1 0.026485 -0.003341 -0.021288 0.000000 0.000000 0.000000
# 2 -0.003341 0.010197 -0.002880 0.000000 0.000000 0.000000
# 3 -0.021288 -0.002880 0.034395 0.000000 0.000000 0.000000
# 4 0.000000 0.000000 0.000000 0.038669 0.000000 0.000000
# 5 0.000000 0.000000 0.000000 0.000000 0.036100 0.000000
# 6 0.000000 0.000000 0.000000 0.000000 0.000000 0.023518
#
#
# Mechanical properties :
#
#
# Convention : Reuss Voigt Hill
#
# Bulk Modulus (GPa) = 62.27439 65.66712 63.97075
# Shear Modulus (GPa) = 21.76418 28.49760 25.13089
#
# Velocity S-wave (km/s) = 3.35414 3.83808 3.60424
# Velocity P-wave (km/s) = 6.86957 7.32022 7.09847
#
# Compressibility (1/GPa) = 0.01605797
#
# Stress axis : x y z
#
# Youngs Moduli (GPa) = 37.75745 98.06879 29.07413
#
# Poissons Ratio (x) = 0.32769 0.61894
# Poissons Ratio (y) = 0.12616 0.08372
# Poissons Ratio (z) = 0.80379 0.28241
#
# Static dielectric constant tensor:
#      x y z
#    x 1.733380 0.000000 0.000000 
#    y 0.000000 1.692660 0.000000 
#    z 0.000000 0.000000 1.744910 
# 
# From -- ./inp_files/27550.got.cif
#   From: 2010.05.17/outbox.cif.g08.bks.cpg/sg67_14_cif.got.tgz:27550.got - 2010.06.03 18:28:57.
