data_PCOD9501087
_publ_section_title
;
Structure prediction by ZEFSAII (Michael W. Deem and Ramdas Pophale) SiO2 
 PCOD9501087
Probable space group: C M M A
;
_chemical_formula_sum "Si O2"
_cell_formula_units_Z 88
_cell_length_a 9.492970
_cell_length_b 26.723734
_cell_length_c 21.473368
_cell_angle_alpha 90.000000
_cell_angle_beta 90.000000
_cell_angle_gamma 90.000000
_cell_volume 5447.527302
_symmetry_space_group_name_H-M "C M M A"
_symmetry_group_IT_number 67
_symmetry_cell_setting 'orthorhombic'
loop_
_space_group_symop_operation_xyz
x,y,z
-x,1/2-y,z
x,-y,-z
-x,1/2+y,-z
-x,-y,-z
x,1/2+y,-z
-x,y,z
x,1/2-y,z
1/2+x,1/2+y,z
1/2-x,-y,z
1/2+x,1/2-y,-z
1/2-x,y,-z
1/2-x,1/2-y,-z
1/2+x,y,-z
1/2-x,1/2+y,z
1/2+x,-y,z
loop_
_atom_site_type_symbol
_atom_site_label
_atom_site_fract_x
_atom_site_fract_y
_atom_site_fract_z
Si Si1 0.338219 0.050299 0.882157
Si Si2 0.331726 0.146687 0.803410
Si Si3 0.846994 0.806281 0.092907
Si Si4 0.750000 0.113408 0.000000
Si Si5 0.836581 0.189264 0.439206
Si Si6 0.832870 0.689788 0.313430
O O1 0.500000 0.037127 0.873121
O O2 0.298933 0.091149 0.829638
O O3 0.250000 0.000000 0.880979
O O4 0.321885 0.078458 0.948489
O O5 0.500000 0.151181 0.794649
O O6 0.276800 0.182471 0.858820
O O7 0.245190 0.161631 0.742577
O O8 0.834404 0.750000 0.068045
O O9 0.000000 0.809719 0.125545
O O10 0.843726 0.848167 0.039815
O O11 0.841255 0.250000 0.441927
O O12 0.750000 0.172225 0.500000
O O13 0.748512 0.176822 0.377302
O O14 0.000000 0.172265 0.437826
O O15 0.819034 0.750000 0.303920
O O16 0.000000 0.678841 0.316871
#
# Coordination Sequence:
#
# PCOD9501087 Si02
#       6
#    16  16  16   8  16  16
#     4  10  22  37  53  71  90 114 147 190 240 291
#     4  10  21  35  49  68  93 121 155 194 237 284
#     4  10  20  33  49  69  94 124 156 189 227 274
#     4  10  20  34  52  72  94 118 150 188 232 282
#     4   9  16  26  41  63  94 132 170 204 235 267
#     4  10  19  30  46  69  97 130 166 199 232 273
#
# _framework density 16.154119000000001
#
# number of rings (size 3 to 8) (size 9 to 14) (size 15 to 20)
#    0.000    2.182    0.000    3.273    0.000   11.636 
#    0.000    0.000    0.000    0.000    0.000    0.000 
#    0.000    0.727    0.000    7.636    0.000    4.545 
#
# Total GULP energy -245251.956028 kJ/mol
# GULP energy per Si atom -5573.908092 kJ/mol
# Density = 1.611735 g / cm^3
# Si number density = 16.154119 Si / 1000 Ang^3
#
#
#
# Elastic Constant Matrix: (Units=GPa)
#
#
# Indices 1 2 3 4 5 6 
#
# 1 121.9168 55.7377 75.7818 0.0000 0.0000 0.0000
# 2 55.7377 83.5789 44.1233 0.0000 0.0000 0.0000
# 3 75.7818 44.1233 128.5193 0.0000 0.0000 0.0000
# 4 0.0000 0.0000 0.0000 3.5385 0.0000 0.0000
# 5 0.0000 0.0000 0.0000 0.0000 25.3933 0.0000
# 6 0.0000 0.0000 0.0000 0.0000 0.0000 50.5756
#
#
#
# Elastic Compliance Matrix: (Units=1/GPa)
#
#
# Indices 1 2 3 4 5 6 
#
# 1 0.015546 -0.006752 -0.006849 0.000000 0.000000 0.000000
# 2 -0.006752 0.017546 -0.002043 0.000000 0.000000 0.000000
# 3 -0.006849 -0.002043 0.012521 0.000000 0.000000 0.000000
# 4 0.000000 0.000000 0.000000 0.282607 0.000000 0.000000
# 5 0.000000 0.000000 0.000000 0.000000 0.039380 0.000000
# 6 0.000000 0.000000 0.000000 0.000000 0.000000 0.019772
#
#
# Mechanical properties :
#
#
# Convention : Reuss Voigt Hill
#
# Bulk Modulus (GPa) = 69.80271 76.14452 72.97362
# Shear Modulus (GPa) = 11.80821 26.45963 19.13392
#
# Velocity S-wave (km/s) = 2.70658 4.05155 3.44533
# Velocity P-wave (km/s) = 7.28503 8.31417 7.81656
#
# Compressibility (1/GPa) = 0.01432609
#
# Stress axis : x y z
#
# Youngs Moduli (GPa) = 64.32394 56.99357 79.86826
#
# Poissons Ratio (x) = 0.38482 0.54701
# Poissons Ratio (y) = 0.43431 0.16313
# Poissons Ratio (z) = 0.44054 0.11641
#
# Static dielectric constant tensor:
#      x y z
#    x 1.555890 0.000000 0.000000 
#    y 0.000000 1.528240 0.000000 
#    z 0.000000 0.000000 1.541780 
# 
# From -- ./inp_files/36939.got.cif
#   From: 2010.05.17/outbox.cif.g08.bks.cpg/sg67_19_cif.got.tgz:36939.got - 2010.06.03 18:28:57.
