data_PCOD9501935
_publ_section_title
;
Structure prediction by ZEFSAII (Michael W. Deem and Ramdas Pophale) SiO2 
 PCOD9501935
Probable space group: C M M A
;
_chemical_formula_sum "Si O2"
_cell_formula_units_Z 104
_cell_length_a 30.361290
_cell_length_b 14.494471
_cell_length_c 11.835134
_cell_angle_alpha 90.000000
_cell_angle_beta 90.000000
_cell_angle_gamma 90.000000
_cell_volume 5208.297330
_symmetry_space_group_name_H-M "C M M A"
_symmetry_group_IT_number 67
_symmetry_cell_setting 'orthorhombic'
loop_
_space_group_symop_operation_xyz
x,y,z
-x,1/2-y,z
x,-y,-z
-x,1/2+y,-z
-x,-y,-z
x,1/2+y,-z
-x,y,z
x,1/2-y,z
1/2+x,1/2+y,z
1/2-x,-y,z
1/2+x,1/2-y,-z
1/2-x,y,-z
1/2-x,1/2-y,-z
1/2+x,y,-z
1/2-x,1/2+y,z
1/2+x,-y,z
loop_
_atom_site_type_symbol
_atom_site_label
_atom_site_fract_x
_atom_site_fract_y
_atom_site_fract_z
Si Si1 0.949211 0.991798 0.247593
Si Si2 0.165786 0.860564 0.013442
Si Si3 0.413395 0.000000 0.000000
Si Si4 0.381377 0.639704 0.628128
Si Si5 0.792684 0.362002 0.747792
Si Si6 0.607342 0.860131 0.363426
Si Si7 0.304160 0.861475 0.235168
O O1 0.916938 0.913198 0.296503
O O2 0.000000 0.972115 0.271813
O O3 0.941210 0.002744 0.114130
O O4 0.932601 0.084800 0.308329
O O5 0.159617 0.750000 0.017478
O O6 0.119458 0.912632 0.008196
O O7 0.190859 0.883000 0.897381
O O8 0.192216 0.888396 0.125659
O O9 0.384934 0.750000 0.646147
O O10 0.332082 0.611159 0.664730
O O11 0.389197 0.620850 0.496415
O O12 0.791086 0.250000 0.746300
O O13 0.743296 0.394139 0.722204
O O14 0.603007 0.750000 0.347632
O O15 0.652416 0.892037 0.301702
O O16 0.304346 0.750000 0.244554
#
# Coordination Sequence:
#
# PCOD9501935 Si02
#       7
#    16  16   8  16  16  16  16
#     4  12  26  44  65  89 117 151 197 255 311 362
#     4  10  19  35  59  86 121 161 199 243 293 350
#     4  12  23  40  65  88 114 154 197 242 311 370
#     4  10  22  41  64  90 122 161 202 243 292 351
#     4   9  17  32  58  90 123 160 199 240 289 347
#     4  10  22  41  64  90 122 161 202 243 292 351
#     4   9  17  32  58  90 123 160 199 240 289 347
#
# _framework density 19.968138
#
# number of rings (size 3 to 8) (size 9 to 14) (size 15 to 20)
#    0.000    1.846    3.077    1.154    0.000    4.308 
#    0.000    8.462    0.000    4.615    0.000    0.000 
#    0.000    0.000    0.000    0.000    0.000    0.000 
#
# Total GULP energy -290592.941107 kJ/mol
# GULP energy per Si atom -5588.325791 kJ/mol
# Density = 1.992269 g / cm^3
# Si number density = 19.968138 Si / 1000 Ang^3
#
#
#
# Elastic Constant Matrix: (Units=GPa)
#
#
# Indices 1 2 3 4 5 6 
#
# 1 69.7834 -21.1275 -9.6488 0.0000 0.0000 0.0000
# 2 -21.1275 51.5543 -9.3306 0.0000 0.0000 0.0000
# 3 -9.6488 -9.3306 69.4261 0.0000 0.0000 0.0000
# 4 0.0000 0.0000 0.0000 14.5337 0.0000 0.0000
# 5 0.0000 0.0000 0.0000 0.0000 -0.1022 0.0000
# 6 0.0000 0.0000 0.0000 0.0000 0.0000 29.5793
#
#
#
# Elastic Compliance Matrix: (Units=1/GPa)
#
#
# Indices 1 2 3 4 5 6 
#
# 1 0.017110 0.007628 0.003403 0.000000 0.000000 0.000000
# 2 0.007628 0.023281 0.004189 0.000000 0.000000 0.000000
# 3 0.003403 0.004189 0.015440 0.000000 0.000000 0.000000
# 4 0.000000 0.000000 0.000000 0.068806 0.000000 0.000000
# 5 0.000000 0.000000 0.000000 0.000000 -9.788460 0.000000
# 6 0.000000 0.000000 0.000000 0.000000 0.000000 0.033807
#
#
# Mechanical properties :
#
#
# Convention : Reuss Voigt Hill
#
# Bulk Modulus (GPa) = 11.59147 12.28335 11.93741
# Shear Modulus (GPa) = -0.51912 24.19353 11.83721
#
# Velocity S-wave (km/s) = -0.51043 3.48459 2.43740
# Velocity P-wave (km/s) = 2.33885 4.72807 3.72994
#
# Compressibility (1/GPa) = 0.08627030
#
# Stress axis : x y z
#
# Youngs Moduli (GPa) = 58.44556 42.95332 64.76796
#
# Poissons Ratio (x) = -0.32764 -0.22041
# Poissons Ratio (y) = -0.44581 -0.27131
# Poissons Ratio (z) = -0.19889 -0.17993
#
# Static dielectric constant tensor:
#      x y z
#    x 1.668100 0.000000 0.000000 
#    y 0.000000 1.758260 0.000000 
#    z 0.000000 0.000000 1.661980 
# 
# From -- ./inp_files/23806.got.cif
#   From: 2010.05.17/outbox.cif.g08.bks.cpg/sg67_12_cif.got.tgz:23806.got - 2010.06.03 18:28:57.
