data_PCOD9501238
_publ_section_title
;
Structure prediction by ZEFSAII (Michael W. Deem and Ramdas Pophale) SiO2 
 PCOD9501238
Probable space group: C M M A
;
_chemical_formula_sum "Si O2"
_cell_formula_units_Z 104
_cell_length_a 8.716428
_cell_length_b 25.400795
_cell_length_c 26.948299
_cell_angle_alpha 90.000000
_cell_angle_beta 90.000000
_cell_angle_gamma 90.000000
_cell_volume 5966.466602
_symmetry_space_group_name_H-M "C M M A"
_symmetry_group_IT_number 67
_symmetry_cell_setting 'orthorhombic'
loop_
_space_group_symop_operation_xyz
x,y,z
-x,1/2-y,z
x,-y,-z
-x,1/2+y,-z
-x,-y,-z
x,1/2+y,-z
-x,y,z
x,1/2-y,z
1/2+x,1/2+y,z
1/2-x,-y,z
1/2+x,1/2-y,-z
1/2-x,y,-z
1/2-x,1/2-y,-z
1/2+x,y,-z
1/2-x,1/2+y,z
1/2+x,-y,z
loop_
_atom_site_type_symbol
_atom_site_label
_atom_site_fract_x
_atom_site_fract_y
_atom_site_fract_z
Si Si1 0.814621 0.168550 0.131688
Si Si2 0.814791 0.864554 0.358056
Si Si3 0.317608 0.250000 0.054960
Si Si4 0.184994 0.750000 0.327752
Si Si5 0.815709 0.555271 0.836475
Si Si6 0.684640 0.056769 0.445019
Si Si7 0.683892 0.750000 0.217162
Si Si8 0.683702 0.055960 0.720603
O O1 0.741272 0.200009 0.086475
O O2 0.766307 0.108011 0.135541
O O3 0.776240 0.199681 0.182728
O O4 0.000000 0.171279 0.127181
O O5 0.763426 0.803998 0.354098
O O6 0.769917 0.897081 0.407132
O O7 0.749780 0.896858 0.311609
O O8 0.000000 0.865475 0.355798
O O9 0.500000 0.250000 0.052968
O O10 0.250000 0.250000 0.000000
O O11 0.238772 0.750000 0.270598
O O12 0.000000 0.750000 0.328148
O O13 0.750000 0.500000 0.854875
O O14 0.771838 0.561278 0.778455
O O15 0.000000 0.552915 0.838182
O O16 0.500000 0.053497 0.447020
O O17 0.750000 0.066254 0.500000
O O18 0.750000 0.000000 0.428385
O O19 0.500000 0.750000 0.224234
O O20 0.500000 0.055263 0.717287
O O21 0.750000 0.000000 0.702806
#
# Coordination Sequence:
#
# PCOD9501238 Si02
#       8
#    16  16   8   8  16  16   8  16
#     4   9  18  34  53  74 104 139 171 208 254 297
#     4  10  21  35  50  70  98 132 165 201 246 295
#     4  11  22  36  56  81 104 129 166 213 261 303
#     4  10  21  35  49  69 102 139 171 202 240 287
#     4   9  18  31  48  72 104 140 173 205 244 291
#     4  10  20  35  55  76  95 116 149 195 249 301
#     4   9  17  31  51  74 101 134 175 215 249 288
#     4  10  19  31  49  74 103 135 170 207 246 291
#
# _framework density 17.430751000000001
#
# number of rings (size 3 to 8) (size 9 to 14) (size 15 to 20)
#    0.000    2.308    0.000    3.923    0.000    6.769 
#    0.000    0.385    0.000    0.462    0.000    3.231 
#    0.000    0.000    0.000    0.000    0.000    0.000 
#
# Total GULP energy -290196.632854 kJ/mol
# GULP energy per Si atom -5580.704478 kJ/mol
# Density = 1.739108 g / cm^3
# Si number density = 17.430751 Si / 1000 Ang^3
#
#
#
# Elastic Constant Matrix: (Units=GPa)
#
#
# Indices 1 2 3 4 5 6 
#
# 1 27.3801 41.0460 30.8701 0.0000 0.0000 0.0000
# 2 41.0460 196.3598 82.7765 0.0000 0.0000 0.0000
# 3 30.8701 82.7765 98.5038 0.0000 0.0000 0.0000
# 4 0.0000 0.0000 0.0000 11.1181 0.0000 0.0000
# 5 0.0000 0.0000 0.0000 0.0000 25.0056 0.0000
# 6 0.0000 0.0000 0.0000 0.0000 0.0000 24.3122
#
#
#
# Elastic Compliance Matrix: (Units=1/GPa)
#
#
# Indices 1 2 3 4 5 6 
#
# 1 0.062868 -0.007489 -0.013409 0.000000 0.000000 0.000000
# 2 -0.007489 0.008779 -0.005030 0.000000 0.000000 0.000000
# 3 -0.013409 -0.005030 0.018581 0.000000 0.000000 0.000000
# 4 0.000000 0.000000 0.000000 0.089944 0.000000 0.000000
# 5 0.000000 0.000000 0.000000 0.000000 0.039991 0.000000
# 6 0.000000 0.000000 0.000000 0.000000 0.000000 0.041132
#
#
# Mechanical properties :
#
#
# Convention : Reuss Voigt Hill
#
# Bulk Modulus (GPa) = 26.06089 70.18098 48.12093
# Shear Modulus (GPa) = 15.34027 23.25727 19.29877
#
# Velocity S-wave (km/s) = 2.96981 3.65672 3.33102
# Velocity P-wave (km/s) = 5.17139 7.62752 6.51622
#
# Compressibility (1/GPa) = 0.03837168
#
# Stress axis : x y z
#
# Youngs Moduli (GPa) = 15.90642 113.91382 53.81855
#
# Poissons Ratio (x) = 0.85310 0.72164
# Poissons Ratio (y) = 0.11912 0.27071
# Poissons Ratio (z) = 0.21329 0.57299
#
# Static dielectric constant tensor:
#      x y z
#    x 1.586910 0.000000 0.000000 
#    y 0.000000 1.609940 0.000000 
#    z 0.000000 0.000000 1.566840 
# 
# From -- ./inp_files/41059.got.cif
#   From: 2010.05.17/outbox.cif.g08.bks.cpg/sg67_21_cif.got.tgz:41059.got - 2010.06.03 18:28:57.
