data_PCOD9501225
_publ_section_title
;
Structure prediction by ZEFSAII (Michael W. Deem and Ramdas Pophale) SiO2 
 PCOD9501225
Probable space group: C M M A
;
_chemical_formula_sum "Si O2"
_cell_formula_units_Z 56
_cell_length_a 16.428677
_cell_length_b 7.902015
_cell_length_c 20.292678
_cell_angle_alpha 90.000000
_cell_angle_beta 90.000000
_cell_angle_gamma 90.000000
_cell_volume 2634.388398
_symmetry_space_group_name_H-M "C M M A"
_symmetry_group_IT_number 67
_symmetry_cell_setting 'orthorhombic'
loop_
_space_group_symop_operation_xyz
x,y,z
-x,1/2-y,z
x,-y,-z
-x,1/2+y,-z
-x,-y,-z
x,1/2+y,-z
-x,y,z
x,1/2-y,z
1/2+x,1/2+y,z
1/2-x,-y,z
1/2+x,1/2-y,-z
1/2-x,y,-z
1/2-x,1/2-y,-z
1/2+x,y,-z
1/2-x,1/2+y,z
1/2+x,-y,z
loop_
_atom_site_type_symbol
_atom_site_label
_atom_site_fract_x
_atom_site_fract_y
_atom_site_fract_z
Si Si1 0.655165 0.450747 0.428741
Si Si2 0.339321 0.953630 0.846625
Si Si3 0.907100 0.956472 0.289163
Si Si4 0.000000 0.454153 0.923612
O O1 0.620013 0.500000 0.500000
O O2 0.649567 0.250000 0.425648
O O3 0.750000 0.500000 0.428140
O O4 0.615863 0.520283 0.361815
O O5 0.343815 0.750000 0.845681
O O6 0.350988 0.014608 0.771067
O O7 0.416979 0.015326 0.888443
O O8 0.250000 0.000000 0.871873
O O9 0.902858 0.750000 0.290945
O O10 0.000000 0.000600 0.273447
O O11 0.000000 0.250000 0.917514
O O12 0.000000 0.500000 0.000000
#
# Coordination Sequence:
#
# PCOD9501225 Si02
#       4
#    16  16  16   8
#     4  10  19  31  49  71 100 137 177 224 273 324
#     4  10  20  37  61  86 113 148 189 230 275 328
#     4   9  17  32  54  77 103 139 183 226 272 326
#     4  10  22  40  62  86 117 152 184 224 273 332
#
# _framework density 21.257307000000001
#
# number of rings (size 3 to 8) (size 9 to 14) (size 15 to 20)
#    0.000    2.286    1.429    2.571    0.000    2.286 
#    0.000    4.286    0.000    6.000    0.000    0.000 
#    0.000    0.000    0.000    0.000    0.000    0.000 
#
# Total GULP energy -156263.724371 kJ/mol
# GULP energy per Si atom -5580.847299 kJ/mol
# Density = 2.120892 g / cm^3
# Si number density = 21.257307 Si / 1000 Ang^3
#
#
#
# Elastic Constant Matrix: (Units=GPa)
#
#
# Indices 1 2 3 4 5 6 
#
# 1 142.2248 2.8029 75.4570 0.0000 0.0000 0.0000
# 2 2.8029 24.2870 9.8540 0.0000 0.0000 0.0000
# 3 75.4570 9.8540 148.5592 0.0000 0.0000 0.0000
# 4 0.0000 0.0000 0.0000 25.3440 0.0000 0.0000
# 5 0.0000 0.0000 0.0000 0.0000 24.8811 0.0000
# 6 0.0000 0.0000 0.0000 0.0000 0.0000 18.1062
#
#
#
# Elastic Compliance Matrix: (Units=1/GPa)
#
#
# Indices 1 2 3 4 5 6 
#
# 1 0.009644 0.000899 -0.004958 0.000000 0.000000 0.000000
# 2 0.000899 0.042397 -0.003269 0.000000 0.000000 0.000000
# 3 -0.004958 -0.003269 0.009466 0.000000 0.000000 0.000000
# 4 0.000000 0.000000 0.000000 0.039457 0.000000 0.000000
# 5 0.000000 0.000000 0.000000 0.000000 0.040191 0.000000
# 6 0.000000 0.000000 0.000000 0.000000 0.000000 0.055230
#
#
# Mechanical properties :
#
#
# Convention : Reuss Voigt Hill
#
# Bulk Modulus (GPa) = 21.34425 54.58874 37.96649
# Shear Modulus (GPa) = 22.05967 28.79672 25.42820
#
# Velocity S-wave (km/s) = 3.22490 3.68458 3.46238
# Velocity P-wave (km/s) = 4.89176 6.62097 5.82094
#
# Compressibility (1/GPa) = 0.04685103
#
# Stress axis : x y z
#
# Youngs Moduli (GPa) = 103.69307 23.58676 105.63673
#
# Poissons Ratio (x) = -0.02120 0.52374
# Poissons Ratio (y) = -0.09318 0.34529
# Poissons Ratio (z) = 0.51411 0.07710
#
# Static dielectric constant tensor:
#      x y z
#    x 1.735950 0.000000 0.000000 
#    y 0.000000 1.788630 0.000000 
#    z 0.000000 0.000000 1.793410 
# 
# From -- ./inp_files/31616.got.cif
#   From: 2010.05.17/outbox.cif.g08.bks.cpg/sg67_16_cif.got.tgz:31616.got - 2010.06.03 18:28:57.
