data_PCOD9501644
_publ_section_title
;
Structure prediction by ZEFSAII (Michael W. Deem and Ramdas Pophale) SiO2 
 PCOD9501644
Probable space group: C M M A
;
_chemical_formula_sum "Si O2"
_cell_formula_units_Z 96
_cell_length_a 19.031809
_cell_length_b 8.538054
_cell_length_c 31.836490
_cell_angle_alpha 90.000000
_cell_angle_beta 90.000000
_cell_angle_gamma 90.000000
_cell_volume 5173.258121
_symmetry_space_group_name_H-M "C M M A"
_symmetry_group_IT_number 67
_symmetry_cell_setting 'orthorhombic'
loop_
_space_group_symop_operation_xyz
x,y,z
-x,1/2-y,z
x,-y,-z
-x,1/2+y,-z
-x,-y,-z
x,1/2+y,-z
-x,y,z
x,1/2-y,z
1/2+x,1/2+y,z
1/2-x,-y,z
1/2+x,1/2-y,-z
1/2-x,y,-z
1/2-x,1/2-y,-z
1/2+x,y,-z
1/2-x,1/2+y,z
1/2+x,-y,z
loop_
_atom_site_type_symbol
_atom_site_label
_atom_site_fract_x
_atom_site_fract_y
_atom_site_fract_z
Si Si1 0.670652 0.438128 0.784920
Si Si2 0.918711 0.562287 0.453610
Si Si3 0.081210 0.438834 0.955353
Si Si4 0.670895 0.562098 0.376376
Si Si5 0.829039 0.061758 0.875217
Si Si6 0.080757 0.941022 0.704391
O O1 0.673134 0.250000 0.785899
O O2 0.750000 0.500000 0.778449
O O3 0.645415 0.499170 0.830185
O O4 0.620679 0.489109 0.746849
O O5 0.901039 0.500000 0.500000
O O6 0.915126 0.750000 0.453661
O O7 0.867636 0.495425 0.418356
O O8 0.000000 0.515597 0.444793
O O9 0.082327 0.250000 0.956319
O O10 0.124745 0.490420 0.914804
O O11 0.000000 0.490222 0.951612
O O12 0.108911 0.500000 0.000000
O O13 0.672520 0.750000 0.376252
O O14 0.750000 0.500000 0.373781
O O15 0.625159 0.508617 0.336201
O O16 0.828305 0.250000 0.873831
O O17 0.750000 0.000000 0.880439
O O18 0.079886 0.750000 0.704157
O O19 0.000000 0.994104 0.702794
#
# Coordination Sequence:
#
# PCOD9501644 Si02
#       6
#    16  16  16  16  16  16
#     4  10  19  33  54  77 104 137 173 213 257 309
#     4  10  21  38  60  86 115 146 183 226 272 324
#     4   9  19  35  53  73  99 132 169 210 256 305
#     4  11  22  37  58  82 112 148 185 226 273 322
#     4  10  20  34  52  75 104 135 169 210 256 307
#     4   9  19  35  55  80 108 139 177 220 266 317
#
# _framework density 18.556971000000001
#
# number of rings (size 3 to 8) (size 9 to 14) (size 15 to 20)
#    0.000    2.167    0.000    4.000    0.000    4.333 
#    0.000    5.833    0.000    5.500    0.000    0.000 
#    0.000    0.000    0.000    0.000    0.000    0.000 
#
# Total GULP energy -268022.180688 kJ/mol
# GULP energy per Si atom -5583.795431 kJ/mol
# Density = 1.851473 g / cm^3
# Si number density = 18.556971 Si / 1000 Ang^3
#
#
#
# Elastic Constant Matrix: (Units=GPa)
#
#
# Indices 1 2 3 4 5 6 
#
# 1 126.8478 30.2597 126.2284 0.0000 0.0000 0.0000
# 2 30.2597 42.7889 39.3454 0.0000 0.0000 0.0000
# 3 126.2284 39.3454 206.1075 0.0000 0.0000 0.0000
# 4 0.0000 0.0000 0.0000 19.2403 0.0000 0.0000
# 5 0.0000 0.0000 0.0000 0.0000 48.2249 0.0000
# 6 0.0000 0.0000 0.0000 0.0000 0.0000 15.8856
#
#
#
# Elastic Compliance Matrix: (Units=1/GPa)
#
#
# Indices 1 2 3 4 5 6 
#
# 1 0.020634 -0.003605 -0.011949 0.000000 0.000000 0.000000
# 2 -0.003605 0.028976 -0.003324 0.000000 0.000000 0.000000
# 3 -0.011949 -0.003324 0.012804 0.000000 0.000000 0.000000
# 4 0.000000 0.000000 0.000000 0.051974 0.000000 0.000000
# 5 0.000000 0.000000 0.000000 0.000000 0.020736 0.000000
# 6 0.000000 0.000000 0.000000 0.000000 0.000000 0.062950
#
#
# Mechanical properties :
#
#
# Convention : Reuss Voigt Hill
#
# Bulk Modulus (GPa) = 40.55234 85.26790 62.91012
# Shear Modulus (GPa) = 20.48765 28.66421 24.57593
#
# Velocity S-wave (km/s) = 3.32632 3.93448 3.64311
# Velocity P-wave (km/s) = 6.05416 8.16634 7.18825
#
# Compressibility (1/GPa) = 0.02465949
#
# Stress axis : x y z
#
# Youngs Moduli (GPa) = 48.46385 34.51126 78.09862
#
# Poissons Ratio (x) = 0.12440 0.93319
# Poissons Ratio (y) = 0.17470 0.25958
# Poissons Ratio (z) = 0.57909 0.11471
#
# Static dielectric constant tensor:
#      x y z
#    x 1.619200 0.000000 0.000000 
#    y 0.000000 1.630260 0.000000 
#    z 0.000000 0.000000 1.626780 
# 
# From -- ./inp_files/44589.got.cif
#   From: 2010.05.17/outbox.cif.g08.bks.cpg/sg67_23_cif.got.tgz:44589.got - 2010.06.03 18:28:57.
