data_PCOD9501011
_publ_section_title
;
Structure prediction by ZEFSAII (Michael W. Deem and Ramdas Pophale) SiO2 
 PCOD9501011
Probable space group: C M M A
;
_chemical_formula_sum "Si O2"
_cell_formula_units_Z 96
_cell_length_a 9.039190
_cell_length_b 27.355593
_cell_length_c 24.301222
_cell_angle_alpha 90.000000
_cell_angle_beta 90.000000
_cell_angle_gamma 90.000000
_cell_volume 6009.021552
_symmetry_space_group_name_H-M "C M M A"
_symmetry_group_IT_number 67
_symmetry_cell_setting 'orthorhombic'
loop_
_space_group_symop_operation_xyz
x,y,z
-x,1/2-y,z
x,-y,-z
-x,1/2+y,-z
-x,-y,-z
x,1/2+y,-z
-x,y,z
x,1/2-y,z
1/2+x,1/2+y,z
1/2-x,-y,z
1/2+x,1/2-y,-z
1/2-x,y,-z
1/2-x,1/2-y,-z
1/2+x,y,-z
1/2-x,1/2+y,z
1/2+x,-y,z
loop_
_atom_site_type_symbol
_atom_site_label
_atom_site_fract_x
_atom_site_fract_y
_atom_site_fract_z
Si Si1 0.822903 0.900784 0.057684
Si Si2 0.824090 0.549991 0.837098
Si Si3 0.676549 0.306454 0.893998
Si Si4 0.826339 0.150516 0.224660
Si Si5 0.670805 0.690492 0.444070
Si Si6 0.824277 0.307589 0.668841
O O1 0.755461 0.933490 0.106561
O O2 0.769950 0.845444 0.071638
O O3 0.000000 0.903890 0.056091
O O4 0.750000 0.915142 0.000000
O O5 0.750000 0.500000 0.817807
O O6 0.803477 0.594872 0.795004
O O7 0.000000 0.544377 0.846234
O O8 0.500000 0.316246 0.901822
O O9 0.705681 0.250000 0.907366
O O10 0.707990 0.316939 0.829460
O O11 0.733363 0.164955 0.277464
O O12 0.000000 0.157659 0.237007
O O13 0.500000 0.676017 0.444044
O O14 0.676763 0.750000 0.444465
O O15 0.750000 0.673887 0.500000
O O16 0.749717 0.674923 0.387809
O O17 0.786979 0.250000 0.675614
O O18 0.000000 0.311664 0.663788
#
# Coordination Sequence:
#
# PCOD9501011 Si02
#       6
#    16  16  16  16  16  16
#     4  11  22  36  53  73  97 123 154 191 230 276
#     4  10  21  38  57  76  96 119 149 187 236 288
#     4   9  18  33  51  70  95 127 160 194 233 276
#     4   9  18  32  49  69  94 122 153 190 231 277
#     4   9  16  26  40  58  85 123 164 202 238 274
#     4  10  19  28  41  65  96 129 165 200 231 268
#
# _framework density 15.975978
#
# number of rings (size 3 to 8) (size 9 to 14) (size 15 to 20)
#    0.000    2.333    0.000    4.500    0.000    8.000 
#    0.000    1.667    0.000    0.000    0.000    0.000 
#    0.000    0.667    0.000    7.000    0.000    4.167 
#
# Total GULP energy -267826.914254 kJ/mol
# GULP energy per Si atom -5579.727380 kJ/mol
# Density = 1.593962 g / cm^3
# Si number density = 15.975978 Si / 1000 Ang^3
#
#
#
# Elastic Constant Matrix: (Units=GPa)
#
#
# Indices 1 2 3 4 5 6 
#
# 1 93.1273 26.6825 55.6382 0.0000 0.0000 0.0000
# 2 26.6825 34.7518 2.3698 0.0000 0.0000 0.0000
# 3 55.6382 2.3698 88.4574 0.0000 0.0000 0.0000
# 4 0.0000 0.0000 0.0000 5.8804 0.0000 0.0000
# 5 0.0000 0.0000 0.0000 0.0000 32.9713 0.0000
# 6 0.0000 0.0000 0.0000 0.0000 0.0000 23.6923
#
#
#
# Elastic Compliance Matrix: (Units=1/GPa)
#
#
# Indices 1 2 3 4 5 6 
#
# 1 0.025103 -0.018230 -0.015301 0.000000 0.000000 0.000000
# 2 -0.018230 0.042068 0.010340 0.000000 0.000000 0.000000
# 3 -0.015301 0.010340 0.020652 0.000000 0.000000 0.000000
# 4 0.000000 0.000000 0.000000 0.170055 0.000000 0.000000
# 5 0.000000 0.000000 0.000000 0.000000 0.030329 0.000000
# 6 0.000000 0.000000 0.000000 0.000000 0.000000 0.042208
#
#
# Mechanical properties :
#
#
# Convention : Reuss Voigt Hill
#
# Bulk Modulus (GPa) = 24.13178 42.85749 33.49463
# Shear Modulus (GPa) = 12.80047 21.28522 17.04284
#
# Velocity S-wave (km/s) = 2.83368 3.65406 3.26970
# Velocity P-wave (km/s) = 5.08371 6.68486 5.93850
#
# Compressibility (1/GPa) = 0.04143914
#
# Stress axis : x y z
#
# Youngs Moduli (GPa) = 39.83650 23.77115 48.42197
#
# Poissons Ratio (x) = 0.43336 0.74089
# Poissons Ratio (y) = 0.72624 -0.50067
# Poissons Ratio (z) = 0.60953 -0.24579
#
# Static dielectric constant tensor:
#      x y z
#    x 1.531490 0.000000 0.000000 
#    y 0.000000 1.527760 0.000000 
#    z 0.000000 0.000000 1.520110 
# 
# From -- ./inp_files/37174.got.cif
#   From: 2010.05.17/outbox.cif.g08.bks.cpg/sg67_19_cif.got.tgz:37174.got - 2010.06.03 18:28:57.
