data_PCOD9501751
_publ_section_title
;
Structure prediction by ZEFSAII (Michael W. Deem and Ramdas Pophale) SiO2 
 PCOD9501751
Probable space group: C M M A
;
_chemical_formula_sum "Si O2"
_cell_formula_units_Z 72
_cell_length_a 22.613835
_cell_length_b 9.767638
_cell_length_c 19.134674
_cell_angle_alpha 90.000000
_cell_angle_beta 90.000000
_cell_angle_gamma 90.000000
_cell_volume 4226.538626
_symmetry_space_group_name_H-M "C M M A"
_symmetry_group_IT_number 67
_symmetry_cell_setting 'orthorhombic'
loop_
_space_group_symop_operation_xyz
x,y,z
-x,1/2-y,z
x,-y,-z
-x,1/2+y,-z
-x,-y,-z
x,1/2+y,-z
-x,y,z
x,1/2-y,z
1/2+x,1/2+y,z
1/2-x,-y,z
1/2+x,1/2-y,-z
1/2-x,y,-z
1/2-x,1/2-y,-z
1/2+x,y,-z
1/2-x,1/2+y,z
1/2+x,-y,z
loop_
_atom_site_type_symbol
_atom_site_label
_atom_site_fract_x
_atom_site_fract_y
_atom_site_fract_z
Si Si1 0.071388 0.413668 0.295827
Si Si2 0.664712 0.250000 0.071749
Si Si3 0.000000 0.901820 0.934764
Si Si4 0.194518 0.750000 0.910202
Si Si5 0.571824 0.589928 0.566767
Si Si6 0.882783 0.017925 0.146934
O O1 0.085069 0.250000 0.301500
O O2 0.086971 0.502383 0.364191
O O3 0.103356 0.480087 0.228985
O O4 0.000000 0.422377 0.286533
O O5 0.735099 0.250000 0.085380
O O6 0.633762 0.121054 0.107680
O O7 0.663855 0.250000 0.987239
O O8 0.000000 0.750000 0.963394
O O9 0.942200 0.924132 0.888298
O O10 0.000000 0.000000 0.000000
O O11 0.170824 0.618915 0.869845
O O12 0.591438 0.500000 0.500000
O O13 0.500000 0.594898 0.564056
O O14 0.591534 0.750000 0.566923
#
# Coordination Sequence:
#
# PCOD9501751 Si02
#       6
#    16   8   8   8  16  16
#     4  10  19  34  51  74 111 152 184 222 277 334
#     4  11  26  39  61  83 104 144 196 252 293 332
#     4  12  24  38  56  80 111 148 185 230 287 351
#     4  11  22  45  61  77 106 146 196 246 295 340
#     4   9  17  29  48  75 108 148 187 220 259 323
#     4  12  23  38  58  82 113 146 188 235 290 348
#
# _framework density 17.035216999999999
#
# number of rings (size 3 to 8) (size 9 to 14) (size 15 to 20)
#    0.000    1.333    3.333    3.333    3.111    4.444 
#    0.000    0.000    0.000    0.000    0.000    0.000 
#    0.000    5.333    0.000    0.000    0.000    0.000 
#
# Total GULP energy -200874.075736 kJ/mol
# GULP energy per Si atom -5579.835437 kJ/mol
# Density = 1.699644 g / cm^3
# Si number density = 17.035217 Si / 1000 Ang^3
#
#
#
# Elastic Constant Matrix: (Units=GPa)
#
#
# Indices 1 2 3 4 5 6 
#
# 1 39.4817 11.1829 17.8671 0.0000 0.0000 0.0000
# 2 11.1829 112.3969 49.6330 0.0000 0.0000 0.0000
# 3 17.8671 49.6330 152.1258 0.0000 0.0000 0.0000
# 4 0.0000 0.0000 0.0000 28.4568 0.0000 0.0000
# 5 0.0000 0.0000 0.0000 0.0000 11.7050 0.0000
# 6 0.0000 0.0000 0.0000 0.0000 0.0000 27.4463
#
#
#
# Elastic Compliance Matrix: (Units=1/GPa)
#
#
# Indices 1 2 3 4 5 6 
#
# 1 0.026965 -0.001501 -0.002677 0.000000 0.000000 0.000000
# 2 -0.001501 0.010478 -0.003242 0.000000 0.000000 0.000000
# 3 -0.002677 -0.003242 0.007946 0.000000 0.000000 0.000000
# 4 0.000000 0.000000 0.000000 0.035141 0.000000 0.000000
# 5 0.000000 0.000000 0.000000 0.000000 0.085433 0.000000
# 6 0.000000 0.000000 0.000000 0.000000 0.000000 0.036435
#
#
# Mechanical properties :
#
#
# Convention : Reuss Voigt Hill
#
# Bulk Modulus (GPa) = 32.73523 51.26336 41.99930
# Shear Modulus (GPa) = 21.98563 28.54306 25.26435
#
# Velocity S-wave (km/s) = 3.59639 4.09777 3.85524
# Velocity P-wave (km/s) = 6.04179 7.24892 6.67271
#
# Compressibility (1/GPa) = 0.03054813
#
# Stress axis : x y z
#
# Youngs Moduli (GPa) = 37.08528 95.43683 125.85200
#
# Poissons Ratio (x) = 0.14321 0.33696
# Poissons Ratio (y) = 0.05565 0.40806
# Poissons Ratio (z) = 0.09929 0.30944
#
# Static dielectric constant tensor:
#      x y z
#    x 1.558640 0.000000 0.000000 
#    y 0.000000 1.646240 0.000000 
#    z 0.000000 0.000000 1.573780 
# 
# From -- ./inp_files/31988.got.cif
#   From: 2010.05.17/outbox.cif.g08.bks.cpg/sg67_16_cif.got.tgz:31988.got - 2010.06.03 18:28:57.
