data_PCOD9501727
_publ_section_title
;
Structure prediction by ZEFSAII (Michael W. Deem and Ramdas Pophale) SiO2 
 PCOD9501727
Probable space group: C M M A
;
_chemical_formula_sum "Si O2"
_cell_formula_units_Z 112
_cell_length_a 25.764464
_cell_length_b 14.853750
_cell_length_c 12.922580
_cell_angle_alpha 90.000000
_cell_angle_beta 90.000000
_cell_angle_gamma 90.000000
_cell_volume 4945.457243
_symmetry_space_group_name_H-M "C M M A"
_symmetry_group_IT_number 67
_symmetry_cell_setting 'orthorhombic'
loop_
_space_group_symop_operation_xyz
x,y,z
-x,1/2-y,z
x,-y,-z
-x,1/2+y,-z
-x,-y,-z
x,1/2+y,-z
-x,y,z
x,1/2-y,z
1/2+x,1/2+y,z
1/2-x,-y,z
1/2+x,1/2-y,-z
1/2-x,y,-z
1/2-x,1/2-y,-z
1/2+x,y,-z
1/2-x,1/2+y,z
1/2+x,-y,z
loop_
_atom_site_type_symbol
_atom_site_label
_atom_site_fract_x
_atom_site_fract_y
_atom_site_fract_z
Si Si1 0.860714 0.360450 0.336554
Si Si2 0.857783 0.860124 0.429921
Si Si3 0.280028 0.096010 0.095994
Si Si4 0.942496 0.641539 0.265911
Si Si5 0.098668 0.404381 0.958686
Si Si6 0.755803 0.854012 0.324006
Si Si7 0.058185 0.852626 0.828527
O O1 0.859374 0.250000 0.327886
O O2 0.874349 0.383846 0.454282
O O3 0.801820 0.393918 0.320506
O O4 0.900724 0.396013 0.250686
O O5 0.856130 0.750000 0.425683
O O6 0.898419 0.891764 0.344069
O O7 0.799973 0.892104 0.399371
O O8 0.339941 0.090107 0.063610
O O9 0.276709 0.142670 0.206820
O O10 0.250000 0.000000 0.108121
O O11 0.250000 0.141464 0.000000
O O12 0.943212 0.750000 0.276265
O O13 0.928462 0.621834 0.147403
O O14 0.000000 0.607366 0.290957
O O15 0.080140 0.500000 0.000000
O O16 0.083461 0.346687 0.058130
O O17 0.749117 0.750000 0.356322
O O18 0.052270 0.750000 0.791780
O O19 0.000000 0.892353 0.831352
#
# Coordination Sequence:
#
# PCOD9501727 Si02
#       7
#    16  16  16  16  16  16  16
#     4   9  18  32  55  86 118 149 184 230 285 339
#     4   9  17  32  55  86 119 149 183 231 285 337
#     4  11  22  37  54  79 114 150 184 232 286 336
#     4  10  21  37  59  88 117 148 192 240 281 328
#     4  12  23  38  60  81 111 153 191 232 286 346
#     4  10  19  33  57  86 113 145 188 233 282 344
#     4  10  22  39  59  86 117 150 193 240 282 332
#
# _framework density 22.647047000000001
#
# number of rings (size 3 to 8) (size 9 to 14) (size 15 to 20)
#    0.000    1.857    2.857    2.143    0.000    5.429 
#    0.000    2.857    0.000    4.286    0.000    2.000 
#    0.000    0.000    0.000    0.000    0.000    0.000 
#
# Total GULP energy -312800.858878 kJ/mol
# GULP energy per Si atom -5585.729623 kJ/mol
# Density = 2.259550 g / cm^3
# Si number density = 22.647047 Si / 1000 Ang^3
#
#
#
# Elastic Constant Matrix: (Units=GPa)
#
#
# Indices 1 2 3 4 5 6 
#
# 1 191.4550 8.9016 81.2727 0.0000 0.0000 0.0000
# 2 8.9016 39.9648 -8.7733 0.0000 0.0000 0.0000
# 3 81.2727 -8.7733 151.9268 0.0000 0.0000 0.0000
# 4 0.0000 0.0000 0.0000 -10.2591 0.0000 0.0000
# 5 0.0000 0.0000 0.0000 0.0000 8.6732 0.0000
# 6 0.0000 0.0000 0.0000 0.0000 0.0000 -48.6829
#
#
#
# Elastic Compliance Matrix: (Units=1/GPa)
#
#
# Indices 1 2 3 4 5 6 
#
# 1 0.006979 -0.002404 -0.003872 0.000000 0.000000 0.000000
# 2 -0.002404 0.026172 0.002798 0.000000 0.000000 0.000000
# 3 -0.003872 0.002798 0.008815 0.000000 0.000000 0.000000
# 4 0.000000 0.000000 0.000000 -0.097474 0.000000 0.000000
# 5 0.000000 0.000000 0.000000 0.000000 0.115298 0.000000
# 6 0.000000 0.000000 0.000000 0.000000 0.000000 -0.020541
#
#
# Mechanical properties :
#
#
# Convention : Reuss Voigt Hill
#
# Bulk Modulus (GPa) = 28.56526 60.68318 44.62422
# Shear Modulus (GPa) = 86.39344 10.07595 48.23469
#
# Velocity S-wave (km/s) = 6.18309 2.11158 4.62003
# Velocity P-wave (km/s) = 7.97588 5.72699 6.94309
#
# Compressibility (1/GPa) = 0.03500756
#
# Stress axis : x y z
#
# Youngs Moduli (GPa) = 143.29459 38.20921 113.44297
#
# Poissons Ratio (x) = 0.09187 0.43926
# Poissons Ratio (y) = 0.34454 -0.31736
# Poissons Ratio (z) = 0.55484 -0.10689
#
# Static dielectric constant tensor:
#      x y z
#    x 1.848450 0.000000 0.000000 
#    y 0.000000 1.981300 0.000000 
#    z 0.000000 0.000000 1.836980 
# 
# From -- ./inp_files/22158.got.cif
#   From: 2010.05.17/outbox.cif.g08.bks.cpg/sg67_12_cif.got.tgz:22158.got - 2010.06.03 18:28:57.
