data_PCOD9501786
_publ_section_title
;
Structure prediction by ZEFSAII (Michael W. Deem and Ramdas Pophale) SiO2 
 PCOD9501786
Probable space group: C M M A
;
_chemical_formula_sum "Si O2"
_cell_formula_units_Z 96
_cell_length_a 8.924594
_cell_length_b 29.345145
_cell_length_c 21.092864
_cell_angle_alpha 90.000000
_cell_angle_beta 90.000000
_cell_angle_gamma 90.000000
_cell_volume 5524.084083
_symmetry_space_group_name_H-M "C M M A"
_symmetry_group_IT_number 67
_symmetry_cell_setting 'orthorhombic'
loop_
_space_group_symop_operation_xyz
x,y,z
-x,1/2-y,z
x,-y,-z
-x,1/2+y,-z
-x,-y,-z
x,1/2+y,-z
-x,y,z
x,1/2-y,z
1/2+x,1/2+y,z
1/2-x,-y,z
1/2+x,1/2-y,-z
1/2-x,y,-z
1/2-x,1/2-y,-z
1/2+x,y,-z
1/2-x,1/2+y,z
1/2+x,-y,z
loop_
_atom_site_type_symbol
_atom_site_label
_atom_site_fract_x
_atom_site_fract_y
_atom_site_fract_z
Si Si1 0.320243 0.140078 0.309541
Si Si2 0.320901 0.548094 0.264127
Si Si3 0.820904 0.803918 0.805214
Si Si4 0.180324 0.697267 0.432528
Si Si5 0.680450 0.354655 0.934637
Si Si6 0.679230 0.452397 0.886073
O O1 0.500000 0.136683 0.308195
O O2 0.248174 0.090533 0.301026
O O3 0.264418 0.170610 0.250860
O O4 0.274375 0.164987 0.374648
O O5 0.500000 0.547168 0.270569
O O6 0.250000 0.500000 0.283771
O O7 0.286206 0.553932 0.188856
O O8 0.793732 0.750000 0.803688
O O9 0.778206 0.825051 0.873190
O O10 0.000000 0.811867 0.797231
O O11 0.223757 0.750000 0.419314
O O12 0.250000 0.684237 0.500000
O O13 0.000000 0.695951 0.437314
O O14 0.500000 0.354274 0.939124
O O15 0.729884 0.406903 0.921812
O O16 0.750000 0.337874 0.000000
O O17 0.500000 0.455700 0.891763
O O18 0.750000 0.500000 0.907523
#
# Coordination Sequence:
#
# PCOD9501786 Si02
#       6
#    16  16  16  16  16  16
#     4  11  21  34  56  85 115 144 178 224 272 318
#     4  10  19  34  55  81 111 143 180 221 269 323
#     4  10  21  38  57  76 103 140 182 227 274 326
#     4   9  19  35  54  80 115 150 184 222 264 315
#     4  10  21  37  52  73 102 136 176 223 272 326
#     4   9  18  33  52  73 102 132 168 215 264 319
#
# _framework density 17.378447000000001
#
# number of rings (size 3 to 8) (size 9 to 14) (size 15 to 20)
#    0.000    2.167    1.667    1.500    0.000    5.000 
#    0.000    3.333    0.000    0.500    0.000    3.500 
#    0.000    0.000    0.000    0.000    0.000    0.000 
#
# Total GULP energy -267965.392461 kJ/mol
# GULP energy per Si atom -5582.612343 kJ/mol
# Density = 1.733889 g / cm^3
# Si number density = 17.378447 Si / 1000 Ang^3
#
#
#
# Elastic Constant Matrix: (Units=GPa)
#
#
# Indices 1 2 3 4 5 6 
#
# 1 29.9575 44.2533 42.8933 0.0000 0.0000 0.0000
# 2 44.2533 104.7998 72.2491 0.0000 0.0000 0.0000
# 3 42.8933 72.2491 127.1486 0.0000 0.0000 0.0000
# 4 0.0000 0.0000 0.0000 18.9945 0.0000 0.0000
# 5 0.0000 0.0000 0.0000 0.0000 27.0734 0.0000
# 6 0.0000 0.0000 0.0000 0.0000 0.0000 26.5041
#
#
#
# Elastic Compliance Matrix: (Units=1/GPa)
#
#
# Indices 1 2 3 4 5 6 
#
# 1 0.107671 -0.033579 -0.017242 0.000000 0.000000 0.000000
# 2 -0.033579 0.026159 -0.003537 0.000000 0.000000 0.000000
# 3 -0.017242 -0.003537 0.015691 0.000000 0.000000 0.000000
# 4 0.000000 0.000000 0.000000 0.052647 0.000000 0.000000
# 5 0.000000 0.000000 0.000000 0.000000 0.036937 0.000000
# 6 0.000000 0.000000 0.000000 0.000000 0.000000 0.037730
#
#
# Mechanical properties :
#
#
# Convention : Reuss Voigt Hill
#
# Bulk Modulus (GPa) = 24.50625 64.52189 44.51407
# Shear Modulus (GPa) = 12.52656 21.34842 16.93749
#
# Velocity S-wave (km/s) = 2.68770 3.50872 3.12529
# Velocity P-wave (km/s) = 4.87481 7.32277 6.22040
#
# Compressibility (1/GPa) = 0.04080591
#
# Stress axis : x y z
#
# Youngs Moduli (GPa) = 9.28756 38.22722 63.73073
#
# Poissons Ratio (x) = 1.28363 1.09885
# Poissons Ratio (y) = 0.31187 0.22539
# Poissons Ratio (z) = 0.16014 0.13520
#
# Static dielectric constant tensor:
#      x y z
#    x 1.583130 0.000000 0.000000 
#    y 0.000000 1.584790 0.000000 
#    z 0.000000 0.000000 1.570520 
# 
# From -- ./inp_files/37140.got.cif
#   From: 2010.05.17/outbox.cif.g08.bks.cpg/sg67_19_cif.got.tgz:37140.got - 2010.06.03 18:28:57.
