data_PCOD9501912
_publ_section_title
;
Structure prediction by ZEFSAII (Michael W. Deem and Ramdas Pophale) SiO2 
 PCOD9501912
Probable space group: C M M A
;
_chemical_formula_sum "Si O2"
_cell_formula_units_Z 96
_cell_length_a 29.237172
_cell_length_b 8.882071
_cell_length_c 20.916575
_cell_angle_alpha 90.000000
_cell_angle_beta 90.000000
_cell_angle_gamma 90.000000
_cell_volume 5431.755031
_symmetry_space_group_name_H-M "C M M A"
_symmetry_group_IT_number 67
_symmetry_cell_setting 'orthorhombic'
loop_
_space_group_symop_operation_xyz
x,y,z
-x,1/2-y,z
x,-y,-z
-x,1/2+y,-z
-x,-y,-z
x,1/2+y,-z
-x,y,z
x,1/2-y,z
1/2+x,1/2+y,z
1/2-x,-y,z
1/2+x,1/2-y,-z
1/2-x,y,-z
1/2-x,1/2-y,-z
1/2+x,y,-z
1/2-x,1/2+y,z
1/2+x,-y,z
loop_
_atom_site_type_symbol
_atom_site_label
_atom_site_fract_x
_atom_site_fract_y
_atom_site_fract_z
Si Si1 0.890866 0.929351 0.814163
Si Si2 0.446376 0.570247 0.930399
Si Si3 0.702038 0.069985 0.385685
Si Si4 0.895960 0.431214 0.565927
Si Si5 0.054349 0.070923 0.697345
Si Si6 0.798552 0.430155 0.765907
O O1 0.888804 0.750000 0.817767
O O2 0.914868 0.996762 0.876762
O O3 0.920755 0.981062 0.753197
O O4 0.840636 0.997873 0.803287
O O5 0.500000 0.541387 0.914982
O O6 0.439891 0.750000 0.932030
O O7 0.437465 0.500000 0.000000
O O8 0.705071 0.250000 0.391737
O O9 0.656429 0.017898 0.421585
O O10 0.695702 0.036008 0.310080
O O11 0.750000 0.000000 0.407171
O O12 0.913186 0.500000 0.500000
O O13 0.896081 0.250000 0.561478
O O14 0.925436 0.471643 0.628238
O O15 0.063955 0.250000 0.706750
O O16 0.000000 0.049673 0.699321
O O17 0.798367 0.250000 0.772947
O O18 0.750000 0.500000 0.785351
#
# Coordination Sequence:
#
# PCOD9501912 Si02
#       6
#    16  16  16  16  16  16
#     4  12  23  35  57  88 119 151 189 233 280 332
#     4  10  21  38  60  87 121 159 195 234 282 333
#     4   9  18  33  53  75 104 136 174 222 276 335
#     4  10  21  37  53  75 104 140 181 229 284 343
#     4  10  21  39  59  77 104 144 188 235 288 341
#     4  10  19  35  57  83 114 147 186 231 282 336
#
# _framework density 17.673846999999999
#
# number of rings (size 3 to 8) (size 9 to 14) (size 15 to 20)
#    0.000    1.833    1.667    3.000    0.000    6.000 
#    0.000    1.667    0.000    0.500    0.000    3.500 
#    0.000    0.000    0.000    0.000    0.000    0.000 
#
# Total GULP energy -268158.131084 kJ/mol
# GULP energy per Si atom -5586.627731 kJ/mol
# Density = 1.763362 g / cm^3
# Si number density = 17.673847 Si / 1000 Ang^3
#
#
#
# Elastic Constant Matrix: (Units=GPa)
#
#
# Indices 1 2 3 4 5 6 
#
# 1 98.8784 58.1847 67.0052 0.0000 0.0000 0.0000
# 2 58.1847 71.2899 56.5168 0.0000 0.0000 0.0000
# 3 67.0052 56.5168 108.6572 0.0000 0.0000 0.0000
# 4 0.0000 0.0000 0.0000 30.1450 0.0000 0.0000
# 5 0.0000 0.0000 0.0000 0.0000 6.6823 0.0000
# 6 0.0000 0.0000 0.0000 0.0000 0.0000 26.0026
#
#
#
# Elastic Compliance Matrix: (Units=1/GPa)
#
#
# Indices 1 2 3 4 5 6 
#
# 1 0.022440 -0.012498 -0.007337 0.000000 0.000000 0.000000
# 2 -0.012498 0.030831 -0.008329 0.000000 0.000000 0.000000
# 3 -0.007337 -0.008329 0.018060 0.000000 0.000000 0.000000
# 4 0.000000 0.000000 0.000000 0.033173 0.000000 0.000000
# 5 0.000000 0.000000 0.000000 0.000000 0.149650 0.000000
# 6 0.000000 0.000000 0.000000 0.000000 0.000000 0.038458
#
#
# Mechanical properties :
#
#
# Convention : Reuss Voigt Hill
#
# Bulk Modulus (GPa) = 66.65737 71.35987 69.00862
# Shear Modulus (GPa) = 14.12663 19.04056 16.58360
#
# Velocity S-wave (km/s) = 2.83025 3.28583 3.06651
# Velocity P-wave (km/s) = 6.96258 7.40670 7.18807
#
# Compressibility (1/GPa) = 0.01500209
#
# Stress axis : x y z
#
# Youngs Moduli (GPa) = 44.56332 32.43495 55.37023
#
# Poissons Ratio (x) = 0.40537 0.40627
# Poissons Ratio (y) = 0.55695 0.46119
# Poissons Ratio (z) = 0.32697 0.27016
#
# Static dielectric constant tensor:
#      x y z
#    x 1.595050 0.000000 0.000000 
#    y 0.000000 1.588980 0.000000 
#    z 0.000000 0.000000 1.580850 
# 
# From -- ./inp_files/37205.got.cif
#   From: 2010.05.17/outbox.cif.g08.bks.cpg/sg67_19_cif.got.tgz:37205.got - 2010.06.03 18:28:57.
