data_PCOD9501637
_publ_section_title
;
Structure prediction by ZEFSAII (Michael W. Deem and Ramdas Pophale) SiO2 
 PCOD9501637
Probable space group: C M M A
;
_chemical_formula_sum "Si O2"
_cell_formula_units_Z 80
_cell_length_a 16.084701
_cell_length_b 8.665198
_cell_length_c 29.656410
_cell_angle_alpha 90.000000
_cell_angle_beta 90.000000
_cell_angle_gamma 90.000000
_cell_volume 4133.424984
_symmetry_space_group_name_H-M "C M M A"
_symmetry_group_IT_number 67
_symmetry_cell_setting 'orthorhombic'
loop_
_space_group_symop_operation_xyz
x,y,z
-x,1/2-y,z
x,-y,-z
-x,1/2+y,-z
-x,-y,-z
x,1/2+y,-z
-x,y,z
x,1/2-y,z
1/2+x,1/2+y,z
1/2-x,-y,z
1/2+x,1/2-y,-z
1/2-x,y,-z
1/2-x,1/2-y,-z
1/2+x,y,-z
1/2-x,1/2+y,z
1/2+x,-y,z
loop_
_atom_site_type_symbol
_atom_site_label
_atom_site_fract_x
_atom_site_fract_y
_atom_site_fract_z
Si Si1 0.500000 0.062192 0.891964
Si Si2 0.596926 0.429224 0.637505
Si Si3 0.000000 0.938401 0.788383
Si Si4 0.656925 0.567784 0.546125
Si Si5 0.837748 0.063307 0.267389
Si Si6 0.660762 0.436027 0.949467
O O1 0.500000 0.250000 0.891681
O O2 0.500000 0.010451 0.840206
O O3 0.416555 0.015463 0.918379
O O4 0.500000 0.432489 0.650355
O O5 0.619791 0.250000 0.628988
O O6 0.610967 0.520601 0.591685
O O7 0.647497 0.487149 0.680745
O O8 0.916587 0.986884 0.762301
O O9 0.000000 0.750000 0.787968
O O10 0.619197 0.500000 0.500000
O O11 0.661531 0.750000 0.541823
O O12 0.750000 0.500000 0.549807
O O13 0.836582 0.250000 0.267482
O O14 0.750000 0.000000 0.250797
O O15 0.664260 0.250000 0.951058
O O16 0.750000 0.500000 0.933526
O O17 0.648014 0.500000 0.000000
#
# Coordination Sequence:
#
# PCOD9501637 Si02
#       6
#     8  16   8  16  16  16
#     4   9  19  33  54  80 110 147 189 232 279 335
#     4  10  20  36  57  81 109 142 181 224 271 331
#     4   9  18  37  58  80 111 149 188 226 278 343
#     4  11  22  37  56  79 108 143 180 223 272 328
#     4  10  20  36  60  84 109 145 185 228 278 332
#     4  10  19  33  53  80 111 148 190 234 279 329
#
# _framework density 19.354409
#
# number of rings (size 3 to 8) (size 9 to 14) (size 15 to 20)
#    0.000    2.000    1.000    4.500    0.000    4.000 
#    0.000    2.000    0.000    3.600    0.000    0.000 
#    0.000    0.000    0.000    0.000    0.000    0.000 
#
# Total GULP energy -223374.553732 kJ/mol
# GULP energy per Si atom -5584.363843 kJ/mol
# Density = 1.931036 g / cm^3
# Si number density = 19.354409 Si / 1000 Ang^3
#
#
#
# Elastic Constant Matrix: (Units=GPa)
#
#
# Indices 1 2 3 4 5 6 
#
# 1 145.7242 27.7562 86.8692 0.0000 0.0000 0.0000
# 2 27.7562 61.8608 31.7717 0.0000 0.0000 0.0000
# 3 86.8692 31.7717 128.4806 0.0000 0.0000 0.0000
# 4 0.0000 0.0000 0.0000 18.5469 0.0000 0.0000
# 5 0.0000 0.0000 0.0000 0.0000 6.1118 0.0000
# 6 0.0000 0.0000 0.0000 0.0000 0.0000 20.1329
#
#
#
# Elastic Compliance Matrix: (Units=1/GPa)
#
#
# Indices 1 2 3 4 5 6 
#
# 1 0.011593 -0.001347 -0.007505 0.000000 0.000000 0.000000
# 2 -0.001347 0.018674 -0.003707 0.000000 0.000000 0.000000
# 3 -0.007505 -0.003707 0.013774 0.000000 0.000000 0.000000
# 4 0.000000 0.000000 0.000000 0.053917 0.000000 0.000000
# 5 0.000000 0.000000 0.000000 0.000000 0.163618 0.000000
# 6 0.000000 0.000000 0.000000 0.000000 0.000000 0.049670
#
#
# Mechanical properties :
#
#
# Convention : Reuss Voigt Hill
#
# Bulk Modulus (GPa) = 52.84687 69.87332 61.36009
# Shear Modulus (GPa) = 14.59120 21.60289 18.09704
#
# Velocity S-wave (km/s) = 2.74869 3.34454 3.06115
# Velocity P-wave (km/s) = 6.11865 7.14808 6.65330
#
# Compressibility (1/GPa) = 0.01892260
#
# Stress axis : x y z
#
# Youngs Moduli (GPa) = 86.26055 53.55142 72.59837
#
# Poissons Ratio (x) = 0.07213 0.54486
# Poissons Ratio (y) = 0.11619 0.26913
# Poissons Ratio (z) = 0.64740 0.19852
#
# Static dielectric constant tensor:
#      x y z
#    x 1.680330 0.000000 0.000000 
#    y 0.000000 1.666250 0.000000 
#    z 0.000000 0.000000 1.669030 
# 
# From -- ./inp_files/44458.got.cif
#   From: 2010.05.17/outbox.cif.g08.bks.cpg/sg67_23_cif.got.tgz:44458.got - 2010.06.03 18:28:57.
