data_PCOD9501223
_publ_section_title
;
Structure prediction by ZEFSAII (Michael W. Deem and Ramdas Pophale) SiO2 
 PCOD9501223
Probable space group: C M M A
;
_chemical_formula_sum "Si O2"
_cell_formula_units_Z 96
_cell_length_a 8.893804
_cell_length_b 19.160831
_cell_length_c 32.574143
_cell_angle_alpha 90.000000
_cell_angle_beta 90.000000
_cell_angle_gamma 90.000000
_cell_volume 5551.046857
_symmetry_space_group_name_H-M "C M M A"
_symmetry_group_IT_number 67
_symmetry_cell_setting 'orthorhombic'
loop_
_space_group_symop_operation_xyz
x,y,z
-x,1/2-y,z
x,-y,-z
-x,1/2+y,-z
-x,-y,-z
x,1/2+y,-z
-x,y,z
x,1/2-y,z
1/2+x,1/2+y,z
1/2-x,-y,z
1/2+x,1/2-y,-z
1/2-x,y,-z
1/2-x,1/2-y,-z
1/2+x,y,-z
1/2-x,1/2+y,z
1/2+x,-y,z
loop_
_atom_site_type_symbol
_atom_site_label
_atom_site_fract_x
_atom_site_fract_y
_atom_site_fract_z
Si Si1 0.673837 0.334957 0.457863
Si Si2 0.819482 0.922069 0.210853
Si Si3 0.318806 0.668665 0.957025
Si Si4 0.319040 0.922475 0.293951
Si Si5 0.180660 0.669077 0.627312
Si Si6 0.818967 0.922958 0.120305
O O1 0.500000 0.354499 0.457522
O O2 0.683317 0.250000 0.458187
O O3 0.750000 0.359487 0.500000
O O4 0.752243 0.357284 0.415673
O O5 0.745999 0.890375 0.251631
O O6 0.783809 0.892263 0.165659
O O7 0.000000 0.925298 0.215546
O O8 0.750000 0.000000 0.209410
O O9 0.500000 0.665106 0.959533
O O10 0.276549 0.750000 0.952006
O O11 0.269337 0.624470 0.917641
O O12 0.250000 0.643397 0.000000
O O13 0.500000 0.927022 0.291222
O O14 0.276818 0.876865 0.333489
O O15 0.250000 0.000000 0.298148
O O16 0.227163 0.750000 0.633084
O O17 0.000000 0.668029 0.624008
O O18 0.000000 0.929235 0.118657
O O19 0.750000 0.000000 0.117008
#
# Coordination Sequence:
#
# PCOD9501223 Si02
#       6
#    16  16  16  16  16  16
#     4   9  16  26  43  67  93 121 153 189 229 273
#     4   9  16  28  46  67  91 119 152 187 225 270
#     4   9  18  33  50  67  91 123 156 187 223 271
#     4  10  19  31  49  70  93 123 156 190 228 272
#     4   9  18  32  48  67  93 123 154 189 229 271
#     4   9  18  31  48  70  93 118 149 189 232 269
#
# _framework density 17.294035000000001
#
# number of rings (size 3 to 8) (size 9 to 14) (size 15 to 20)
#    0.000    2.833    0.000    2.500    0.000    5.000 
#    0.000    2.500    0.000    1.500    0.000    3.500 
#    0.000    0.000    0.000    0.000    0.000    0.000 
#
# Total GULP energy -267345.213952 kJ/mol
# GULP energy per Si atom -5569.691957 kJ/mol
# Density = 1.725467 g / cm^3
# Si number density = 17.294035 Si / 1000 Ang^3
#
#
#
# Elastic Constant Matrix: (Units=GPa)
#
#
# Indices 1 2 3 4 5 6 
#
# 1 38.9698 19.3068 58.2856 0.0000 0.0000 0.0000
# 2 19.3068 34.4057 62.4211 0.0000 0.0000 0.0000
# 3 58.2856 62.4211 225.3203 0.0000 0.0000 0.0000
# 4 0.0000 0.0000 0.0000 30.8678 0.0000 0.0000
# 5 0.0000 0.0000 0.0000 0.0000 33.6850 0.0000
# 6 0.0000 0.0000 0.0000 0.0000 0.0000 13.1728
#
#
#
# Elastic Compliance Matrix: (Units=1/GPa)
#
#
# Indices 1 2 3 4 5 6 
#
# 1 0.042902 -0.007921 -0.008903 0.000000 0.000000 0.000000
# 2 -0.007921 0.059897 -0.014544 0.000000 0.000000 0.000000
# 3 -0.008903 -0.014544 0.010771 0.000000 0.000000 0.000000
# 4 0.000000 0.000000 0.000000 0.032396 0.000000 0.000000
# 5 0.000000 0.000000 0.000000 0.000000 0.029687 0.000000
# 6 0.000000 0.000000 0.000000 0.000000 0.000000 0.075914
#
#
# Mechanical properties :
#
#
# Convention : Reuss Voigt Hill
#
# Bulk Modulus (GPa) = 19.67286 64.30253 41.98769
# Shear Modulus (GPa) = 15.09440 26.12393 20.60917
#
# Velocity S-wave (km/s) = 2.95754 3.89083 3.45583
# Velocity P-wave (km/s) = 4.80239 7.57940 6.34469
#
# Compressibility (1/GPa) = 0.05083146
#
# Stress axis : x y z
#
# Youngs Moduli (GPa) = 23.30912 16.69519 92.84601
#
# Poissons Ratio (x) = 0.13225 0.82664
# Poissons Ratio (y) = 0.18464 1.35040
# Poissons Ratio (z) = 0.20753 0.24282
#
# Static dielectric constant tensor:
#      x y z
#    x 1.583350 0.000000 0.000000 
#    y 0.000000 1.570670 0.000000 
#    z 0.000000 0.000000 1.620210 
# 
# From -- ./inp_files/43655.got.cif
#   From: 2010.05.17/outbox.cif.g08.bks.cpg/sg67_22_cif.got.tgz:43655.got - 2010.06.03 18:28:57.
