data_PCOD9501130
_publ_section_title
;
Structure prediction by ZEFSAII (Michael W. Deem and Ramdas Pophale) SiO2 
 PCOD9501130
Probable space group: C M M A
;
_chemical_formula_sum "Si O2"
_cell_formula_units_Z 96
_cell_length_a 28.146761
_cell_length_b 8.388751
_cell_length_c 20.531882
_cell_angle_alpha 90.000000
_cell_angle_beta 90.000000
_cell_angle_gamma 90.000000
_cell_volume 4847.909330
_symmetry_space_group_name_H-M "C M M A"
_symmetry_group_IT_number 67
_symmetry_cell_setting 'orthorhombic'
loop_
_space_group_symop_operation_xyz
x,y,z
-x,1/2-y,z
x,-y,-z
-x,1/2+y,-z
-x,-y,-z
x,1/2+y,-z
-x,y,z
x,1/2-y,z
1/2+x,1/2+y,z
1/2-x,-y,z
1/2+x,1/2-y,-z
1/2-x,y,-z
1/2-x,1/2-y,-z
1/2+x,y,-z
1/2-x,1/2+y,z
1/2+x,-y,z
loop_
_atom_site_type_symbol
_atom_site_label
_atom_site_fract_x
_atom_site_fract_y
_atom_site_fract_z
Si Si1 0.653349 0.442060 0.432555
Si Si2 0.053731 0.424797 0.739407
Si Si3 0.945463 0.443143 0.073944
Si Si4 0.803628 0.439958 0.708889
Si Si5 0.372764 0.928448 0.180839
Si Si6 0.552291 0.936973 0.400343
O O1 0.677938 0.500000 0.500000
O O2 0.651215 0.250000 0.433178
O O3 0.674921 0.492834 0.361860
O O4 0.600753 0.517119 0.434707
O O5 0.074831 0.250000 0.754429
O O6 0.082978 0.566506 0.769757
O O7 0.053042 0.451719 0.662962
O O8 0.000000 0.427095 0.762545
O O9 0.944601 0.250000 0.077294
O O10 0.900802 0.501143 0.118173
O O11 0.000000 0.492196 0.092783
O O12 0.939076 0.500000 0.000000
O O13 0.804589 0.250000 0.707455
O O14 0.750000 0.500000 0.713155
O O15 0.832472 0.493466 0.773653
O O16 0.357216 0.750000 0.164308
O O17 0.500000 0.960623 0.430973
O O18 0.554543 0.750000 0.382758
#
# Coordination Sequence:
#
# PCOD9501130 Si02
#       6
#    16  16  16  16  16  16
#     4  11  24  41  62  86 115 151 194 242 299 365
#     4  10  19  30  48  78 114 150 190 234 280 336
#     4   9  19  35  56  88 130 172 209 242 281 336
#     4  11  25  44  65  89 115 147 192 249 310 366
#     4  11  21  35  59  87 119 158 199 245 295 349
#     4  10  20  34  54  80 112 151 191 233 285 343
#
# _framework density 19.802351000000002
#
# number of rings (size 3 to 8) (size 9 to 14) (size 15 to 20)
#    0.000    1.667    1.667    3.000    0.000    6.667 
#    0.000    3.333    0.000    0.500    0.000    3.500 
#    0.000    0.000    0.000    0.000    0.000    0.000 
#
# Total GULP energy -267263.796851 kJ/mol
# GULP energy per Si atom -5567.995768 kJ/mol
# Density = 1.975728 g / cm^3
# Si number density = 19.802351 Si / 1000 Ang^3
#
#
#
# Elastic Constant Matrix: (Units=GPa)
#
#
# Indices 1 2 3 4 5 6 
#
# 1 120.9170 24.4719 63.6461 0.0000 0.0000 0.0000
# 2 24.4719 47.7088 26.4156 0.0000 0.0000 0.0000
# 3 63.6461 26.4156 135.4287 0.0000 0.0000 0.0000
# 4 0.0000 0.0000 0.0000 24.4552 0.0000 0.0000
# 5 0.0000 0.0000 0.0000 0.0000 -97.5510 0.0000
# 6 0.0000 0.0000 0.0000 0.0000 0.0000 32.4542
#
#
#
# Elastic Compliance Matrix: (Units=1/GPa)
#
#
# Indices 1 2 3 4 5 6 
#
# 1 0.011417 -0.003235 -0.004735 0.000000 0.000000 0.000000
# 2 -0.003235 0.024415 -0.003242 0.000000 0.000000 0.000000
# 3 -0.004735 -0.003242 0.010241 0.000000 0.000000 0.000000
# 4 0.000000 0.000000 0.000000 0.040891 0.000000 0.000000
# 5 0.000000 0.000000 0.000000 0.000000 -0.010251 0.000000
# 6 0.000000 0.000000 0.000000 0.000000 0.000000 0.030813
#
#
# Mechanical properties :
#
#
# Convention : Reuss Voigt Hill
#
# Bulk Modulus (GPa) = 42.28240 59.23574 50.75907
# Shear Modulus (GPa) = 36.27614 4.50640 20.39127
#
# Velocity S-wave (km/s) = 4.28473 1.51018 3.21244
# Velocity P-wave (km/s) = 6.77326 5.74624 6.28078
#
# Compressibility (1/GPa) = 0.02365051
#
# Stress axis : x y z
#
# Youngs Moduli (GPa) = 87.58952 40.95889 97.64333
#
# Poissons Ratio (x) = 0.13249 0.46230
# Poissons Ratio (y) = 0.28333 0.31655
# Poissons Ratio (z) = 0.41470 0.13279
#
# Static dielectric constant tensor:
#      x y z
#    x 1.722690 0.000000 0.000000 
#    y 0.000000 1.732340 0.000000 
#    z 0.000000 0.000000 1.755890 
# 
# From -- ./inp_files/39861.got.cif
#   From: 2010.05.17/outbox.cif.g08.bks.cpg/sg67_20_cif.got.tgz:39861.got - 2010.06.03 18:28:57.
