data_PCOD9501471
_publ_section_title
;
Structure prediction by ZEFSAII (Michael W. Deem and Ramdas Pophale) SiO2 
 PCOD9501471
Probable space group: C M M A
;
_chemical_formula_sum "Si O2"
_cell_formula_units_Z 112
_cell_length_a 13.969598
_cell_length_b 25.953879
_cell_length_c 12.264098
_cell_angle_alpha 90.000000
_cell_angle_beta 90.000000
_cell_angle_gamma 90.000000
_cell_volume 4446.535833
_symmetry_space_group_name_H-M "C M M A"
_symmetry_group_IT_number 67
_symmetry_cell_setting 'orthorhombic'
loop_
_space_group_symop_operation_xyz
x,y,z
-x,1/2-y,z
x,-y,-z
-x,1/2+y,-z
-x,-y,-z
x,1/2+y,-z
-x,y,z
x,1/2-y,z
1/2+x,1/2+y,z
1/2-x,-y,z
1/2+x,1/2-y,-z
1/2-x,y,-z
1/2-x,1/2-y,-z
1/2+x,y,-z
1/2-x,1/2+y,z
1/2+x,-y,z
loop_
_atom_site_type_symbol
_atom_site_label
_atom_site_fract_x
_atom_site_fract_y
_atom_site_fract_z
Si Si1 0.662811 0.805128 0.912568
Si Si2 0.114243 0.415359 0.144612
Si Si3 0.384055 0.639240 0.462976
Si Si4 0.882764 0.581893 0.333743
Si Si5 0.893837 0.417112 0.909867
Si Si6 0.180058 0.692209 0.745428
Si Si7 0.615416 0.030259 0.640977
O O1 0.615429 0.750000 0.929486
O O2 0.600459 0.855208 0.924499
O O3 0.713090 0.805615 0.794096
O O4 0.750000 0.808354 0.000000
O O5 0.139200 0.358286 0.190992
O O6 0.137256 0.458557 0.233005
O O7 0.000000 0.414529 0.134831
O O8 0.150774 0.431363 0.025687
O O9 0.500000 0.644947 0.454796
O O10 0.358050 0.630273 0.589645
O O11 0.338131 0.680756 0.382173
O O12 0.355439 0.583428 0.414446
O O13 0.847063 0.579423 0.209347
O O14 0.852300 0.527226 0.386422
O O15 0.000000 0.582532 0.329495
O O16 0.000000 0.440822 0.901323
O O17 0.139991 0.750000 0.770422
O O18 0.500000 0.029135 0.625738
#
# Coordination Sequence:
#
# PCOD9501471 Si02
#       7
#    16  16  16  16  16  16  16
#     4  10  20  36  55  75 100 134 172 211 263 325
#     4   9  17  28  46  77 109 136 171 215 262 309
#     4   9  17  30  50  78 108 139 180 222 260 304
#     4   9  17  30  49  74 106 142 176 212 260 311
#     4  10  20  33  51  78 108 135 169 215 263 318
#     4  10  19  32  52  75  99 132 176 221 266 312
#     4   8  14  26  47  75 105 136 173 218 257 298
#
# _framework density 25.188147000000001
#
# number of rings (size 3 to 8) (size 9 to 14) (size 15 to 20)
#    0.000    2.714    1.429    1.714    0.000    3.714 
#    0.000    5.714    0.000    7.714    0.000    4.000 
#    0.000    0.000    0.000    0.000    0.000    0.000 
#
# Total GULP energy -312459.728077 kJ/mol
# GULP energy per Si atom -5579.638001 kJ/mol
# Density = 2.513082 g / cm^3
# Si number density = 25.188147 Si / 1000 Ang^3
#
#
#
# Elastic Constant Matrix: (Units=GPa)
#
#
# Indices 1 2 3 4 5 6 
#
# 1 79.5093 8.5664 -5.4845 0.0000 0.0000 0.0000
# 2 8.5664 76.8514 20.0524 0.0000 0.0000 0.0000
# 3 -5.4845 20.0524 142.5361 0.0000 0.0000 0.0000
# 4 0.0000 0.0000 0.0000 26.0778 0.0000 0.0000
# 5 0.0000 0.0000 0.0000 0.0000 5.8665 0.0000
# 6 0.0000 0.0000 0.0000 0.0000 0.0000 22.0415
#
#
#
# Elastic Compliance Matrix: (Units=1/GPa)
#
#
# Indices 1 2 3 4 5 6 
#
# 1 0.012801 -0.001615 0.000720 0.000000 0.000000 0.000000
# 2 -0.001615 0.013712 -0.001991 0.000000 0.000000 0.000000
# 3 0.000720 -0.001991 0.007324 0.000000 0.000000 0.000000
# 4 0.000000 0.000000 0.000000 0.038347 0.000000 0.000000
# 5 0.000000 0.000000 0.000000 0.000000 0.170458 0.000000
# 6 0.000000 0.000000 0.000000 0.000000 0.000000 0.045369
#
#
# Mechanical properties :
#
#
# Convention : Reuss Voigt Hill
#
# Bulk Modulus (GPa) = 35.63306 38.35171 36.99238
# Shear Modulus (GPa) = 16.49420 29.18134 22.83777
#
# Velocity S-wave (km/s) = 2.56176 3.40742 3.01439
# Velocity P-wave (km/s) = 4.78828 5.54435 5.18013
#
# Compressibility (1/GPa) = 0.02806383
#
# Stress axis : x y z
#
# Youngs Moduli (GPa) = 78.12044 72.93070 136.54531
#
# Poissons Ratio (x) = 0.11776 -0.09827
# Poissons Ratio (y) = 0.12614 0.27188
# Poissons Ratio (z) = -0.05622 0.14521
#
# Static dielectric constant tensor:
#      x y z
#    x 2.020820 0.000000 0.000000 
#    y 0.000000 1.933200 0.000000 
#    z 0.000000 0.000000 2.121370 
# 
# From -- ./inp_files/21116.got.cif
#   From: 2010.05.17/outbox.cif.g08.bks.cpg/sg67_11_cif.got.tgz:21116.got - 2010.06.03 18:28:57.
