data_PCOD9501141
_publ_section_title
;
Structure prediction by ZEFSAII (Michael W. Deem and Ramdas Pophale) SiO2 
 PCOD9501141
Probable space group: C M M A
;
_chemical_formula_sum "Si O2"
_cell_formula_units_Z 80
_cell_length_a 17.688019
_cell_length_b 25.402435
_cell_length_c 9.623868
_cell_angle_alpha 90.000000
_cell_angle_beta 90.000000
_cell_angle_gamma 90.000000
_cell_volume 4324.184368
_symmetry_space_group_name_H-M "C M M A"
_symmetry_group_IT_number 67
_symmetry_cell_setting 'orthorhombic'
loop_
_space_group_symop_operation_xyz
x,y,z
-x,1/2-y,z
x,-y,-z
-x,1/2+y,-z
-x,-y,-z
x,1/2+y,-z
-x,y,z
x,1/2-y,z
1/2+x,1/2+y,z
1/2-x,-y,z
1/2+x,1/2-y,-z
1/2-x,y,-z
1/2-x,1/2-y,-z
1/2+x,y,-z
1/2-x,1/2+y,z
1/2+x,-y,z
loop_
_atom_site_type_symbol
_atom_site_label
_atom_site_fract_x
_atom_site_fract_y
_atom_site_fract_z
Si Si1 0.172699 0.689617 0.911927
Si Si2 0.587441 0.047546 0.668513
Si Si3 0.712136 0.630458 0.363421
Si Si4 0.316216 0.959164 0.767980
Si Si5 0.414078 0.912584 0.012819
O O1 0.147649 0.750000 0.919550
O O2 0.189877 0.671941 0.754254
O O3 0.113298 0.647377 0.969751
O O4 0.250000 0.684196 0.000000
O O5 0.500000 0.047513 0.624691
O O6 0.639689 0.093220 0.603584
O O7 0.627942 0.009263 0.335870
O O8 0.589635 0.061598 0.834342
O O9 0.750000 0.654063 0.500000
O O10 0.774006 0.590352 0.299274
O O11 0.250000 0.000000 0.804315
O O12 0.360350 0.941010 0.903872
O O13 0.500000 0.916174 0.963446
#
# Coordination Sequence:
#
# PCOD9501141 Si02
#       5
#    16  16  16  16  16
#     4  10  20  36  59  81 101 132 179 227 277 329
#     4   9  19  32  50  76 109 146 183 217 257 320
#     4  10  21  36  54  77 110 143 181 221 266 318
#     4  10  19  30  50  77 112 151 184 216 264 311
#     4  10  19  32  52  82 111 138 178 226 278 323
#
# _framework density 18.500598
#
# number of rings (size 3 to 8) (size 9 to 14) (size 15 to 20)
#    0.000    2.200    2.000    1.200    0.000   10.000 
#    0.000    3.000    0.000    0.000    0.000    0.000 
#    0.000    0.000    0.000    0.000    0.000    0.000 
#
# Total GULP energy -223433.737413 kJ/mol
# GULP energy per Si atom -5585.843435 kJ/mol
# Density = 1.845849 g / cm^3
# Si number density = 18.500598 Si / 1000 Ang^3
#
#
#
# Elastic Constant Matrix: (Units=GPa)
#
#
# Indices 1 2 3 4 5 6 
#
# 1 93.6252 3.9301 16.9145 0.0000 0.0000 0.0000
# 2 3.9301 65.7048 6.6404 0.0000 0.0000 0.0000
# 3 16.9145 6.6404 54.7873 0.0000 0.0000 0.0000
# 4 0.0000 0.0000 0.0000 16.1145 0.0000 0.0000
# 5 0.0000 0.0000 0.0000 0.0000 13.0717 0.0000
# 6 0.0000 0.0000 0.0000 0.0000 0.0000 13.4981
#
#
#
# Elastic Compliance Matrix: (Units=1/GPa)
#
#
# Indices 1 2 3 4 5 6 
#
# 1 0.011319 -0.000328 -0.003455 0.000000 0.000000 0.000000
# 2 -0.000328 0.015418 -0.001767 0.000000 0.000000 0.000000
# 3 -0.003455 -0.001767 0.019533 0.000000 0.000000 0.000000
# 4 0.000000 0.000000 0.000000 0.062056 0.000000 0.000000
# 5 0.000000 0.000000 0.000000 0.000000 0.076501 0.000000
# 6 0.000000 0.000000 0.000000 0.000000 0.000000 0.074084
#
#
# Mechanical properties :
#
#
# Convention : Reuss Voigt Hill
#
# Bulk Modulus (GPa) = 28.43357 29.89859 29.16608
# Shear Modulus (GPa) = 17.74723 20.97903 19.36313
#
# Velocity S-wave (km/s) = 3.10058 3.37109 3.23866
# Velocity P-wave (km/s) = 5.31230 5.59896 5.45751
#
# Compressibility (1/GPa) = 0.03516970
#
# Stress axis : x y z
#
# Youngs Moduli (GPa) = 88.34869 64.85993 51.19487
#
# Poissons Ratio (x) = 0.02127 0.17686
# Poissons Ratio (y) = 0.02897 0.09049
# Poissons Ratio (z) = 0.30522 0.11464
#
# Static dielectric constant tensor:
#      x y z
#    x 1.641220 0.000000 0.000000 
#    y 0.000000 1.618690 0.000000 
#    z 0.000000 0.000000 1.656700 
# 
# From -- ./inp_files/9924.got.cif
#   From: 2010.05.17/outbox.cif.g08.bks.cpg/sg67_5_cif.got.tgz:9924.got - 2010.06.03 18:28:57.
