data_PCOD9501544
_publ_section_title
;
Structure prediction by ZEFSAII (Michael W. Deem and Ramdas Pophale) SiO2 
 PCOD9501544
Probable space group: C M M A
;
_chemical_formula_sum "Si O2"
_cell_formula_units_Z 104
_cell_length_a 15.721337
_cell_length_b 14.598966
_cell_length_c 19.791280
_cell_angle_alpha 90.000000
_cell_angle_beta 90.000000
_cell_angle_gamma 90.000000
_cell_volume 4542.400861
_symmetry_space_group_name_H-M "C M M A"
_symmetry_group_IT_number 67
_symmetry_cell_setting 'orthorhombic'
loop_
_space_group_symop_operation_xyz
x,y,z
-x,1/2-y,z
x,-y,-z
-x,1/2+y,-z
-x,-y,-z
x,1/2+y,-z
-x,y,z
x,1/2-y,z
1/2+x,1/2+y,z
1/2-x,-y,z
1/2+x,1/2-y,-z
1/2-x,y,-z
1/2-x,1/2-y,-z
1/2+x,y,-z
1/2-x,1/2+y,z
1/2+x,-y,z
loop_
_atom_site_type_symbol
_atom_site_label
_atom_site_fract_x
_atom_site_fract_y
_atom_site_fract_z
Si Si1 0.500000 0.614957 0.427591
Si Si2 0.654485 0.142889 0.478205
Si Si3 0.404123 0.885060 0.824194
Si Si4 0.358476 0.389604 0.685134
Si Si5 0.162871 0.110374 0.677107
Si Si6 0.247877 0.611894 0.077550
Si Si7 0.906701 0.892114 0.834539
O O1 0.423733 0.598476 0.483059
O O2 0.425291 0.637033 0.371106
O O3 0.652067 0.250000 0.497134
O O4 0.750000 0.109648 0.500000
O O5 0.634991 0.136559 0.398194
O O6 0.500000 0.855706 0.839599
O O7 0.380197 0.857793 0.747121
O O8 0.333201 0.857350 0.878534
O O9 0.403367 0.996522 0.828522
O O10 0.261239 0.359887 0.677715
O O11 0.350258 0.500609 0.680754
O O12 0.390633 0.361117 0.758398
O O13 0.250000 0.500000 0.077473
O O14 0.332417 0.639705 0.116992
O O15 0.250000 0.641255 0.000000
O O16 0.000000 0.866299 0.858610
#
# Coordination Sequence:
#
# PCOD9501544 Si02
#       7
#     8  16  16  16  16  16  16
#     4  12  23  39  56  82 101 134 170 229 266 324
#     4  11  25  42  55  73 105 143 176 212 264 322
#     4   9  17  27  44  65  93 129 170 209 250 299
#     4  10  19  32  55  79 103 127 174 223 272 311
#     4  10  20  36  52  75 102 138 171 219 266 315
#     4   9  16  25  38  60  96 137 172 206 245 299
#     4   9  15  26  42  65  94 130 167 206 252 306
#
# _framework density 22.895382000000001
#
# number of rings (size 3 to 8) (size 9 to 14) (size 15 to 20)
#    0.000    2.154    3.846    0.231    2.154    1.846 
#    0.000    3.077    0.000    0.000    0.000    0.000 
#    0.000    0.615    0.000    0.000    0.615    0.000 
#
# Total GULP energy -289539.049439 kJ/mol
# GULP energy per Si atom -5568.058643 kJ/mol
# Density = 2.284327 g / cm^3
# Si number density = 22.895382 Si / 1000 Ang^3
#
#
#
# Elastic Constant Matrix: (Units=GPa)
#
#
# Indices 1 2 3 4 5 6 
#
# 1 241.0629 8.9781 138.3222 0.0000 0.0000 0.0000
# 2 8.9781 89.1639 8.2537 0.0000 0.0000 0.0000
# 3 138.3222 8.2537 228.2126 0.0000 0.0000 0.0000
# 4 0.0000 0.0000 0.0000 0.7256 0.0000 0.0000
# 5 0.0000 0.0000 0.0000 0.0000 27.2609 0.0000
# 6 0.0000 0.0000 0.0000 0.0000 0.0000 -12.5908
#
#
#
# Elastic Compliance Matrix: (Units=1/GPa)
#
#
# Indices 1 2 3 4 5 6 
#
# 1 0.006368 -0.000285 -0.003849 0.000000 0.000000 0.000000
# 2 -0.000285 0.011266 -0.000235 0.000000 0.000000 0.000000
# 3 -0.003849 -0.000235 0.006723 0.000000 0.000000 0.000000
# 4 0.000000 0.000000 0.000000 1.378248 0.000000 0.000000
# 5 0.000000 0.000000 0.000000 0.000000 0.036683 0.000000
# 6 0.000000 0.000000 0.000000 0.000000 0.000000 -0.079423
#
#
# Mechanical properties :
#
#
# Convention : Reuss Voigt Hill
#
# Bulk Modulus (GPa) = 64.02429 96.61637 80.32033
# Shear Modulus (GPa) = 3.63952 29.93815 16.78884
#
# Velocity S-wave (km/s) = 1.26217 3.62001 2.71086
# Velocity P-wave (km/s) = 5.49078 7.73067 6.70492
#
# Compressibility (1/GPa) = 0.01561907
#
# Stress axis : x y z
#
# Youngs Moduli (GPa) = 157.04642 88.76489 148.73480
#
# Poissons Ratio (x) = 0.02528 0.57250
# Poissons Ratio (y) = 0.04473 0.03492
# Poissons Ratio (z) = 0.60449 0.02084
#
# Static dielectric constant tensor:
#      x y z
#    x 1.813770 0.000000 0.000000 
#    y 0.000000 1.928290 0.000000 
#    z 0.000000 0.000000 1.807850 
# 
# From -- ./inp_files/33686.got.cif
#   From: 2010.05.17/outbox.cif.g08.bks.cpg/sg67_17_cif.got.tgz:33686.got - 2010.06.03 18:28:57.
