data_PCOD9501161
_publ_section_title
;
Structure prediction by ZEFSAII (Michael W. Deem and Ramdas Pophale) SiO2 
 PCOD9501161
Probable space group: C M M A
;
_chemical_formula_sum "Si O2"
_cell_formula_units_Z 88
_cell_length_a 26.416897
_cell_length_b 8.610805
_cell_length_c 22.952771
_cell_angle_alpha 90.000000
_cell_angle_beta 90.000000
_cell_angle_gamma 90.000000
_cell_volume 5221.084006
_symmetry_space_group_name_H-M "C M M A"
_symmetry_group_IT_number 67
_symmetry_cell_setting 'orthorhombic'
loop_
_space_group_symop_operation_xyz
x,y,z
-x,1/2-y,z
x,-y,-z
-x,1/2+y,-z
-x,-y,-z
x,1/2+y,-z
-x,y,z
x,1/2-y,z
1/2+x,1/2+y,z
1/2-x,-y,z
1/2+x,1/2-y,-z
1/2-x,y,-z
1/2-x,1/2-y,-z
1/2+x,y,-z
1/2-x,1/2+y,z
1/2+x,-y,z
loop_
_atom_site_type_symbol
_atom_site_label
_atom_site_fract_x
_atom_site_fract_y
_atom_site_fract_z
Si Si1 0.806985 0.437145 0.059691
Si Si2 0.842461 0.932588 0.814762
Si Si3 0.591028 0.067758 0.357804
Si Si4 0.000000 0.564905 0.565220
Si Si5 0.694947 0.937240 0.311310
Si Si6 0.442803 0.068512 0.224705
O O1 0.807696 0.250000 0.057797
O O2 0.750000 0.500000 0.059333
O O3 0.828105 0.494364 0.121780
O O4 0.831732 0.500000 0.000000
O O5 0.831071 0.750000 0.815640
O O6 0.815650 0.994557 0.755714
O O7 0.901444 0.962810 0.805308
O O8 0.596487 0.250000 0.371358
O O9 0.565560 0.053548 0.293970
O O10 0.550986 0.992813 0.402029
O O11 0.647037 0.994237 0.349743
O O12 0.000000 0.500000 0.500000
O O13 0.000000 0.750000 0.564938
O O14 0.695178 0.750000 0.311550
O O15 0.750000 0.000000 0.329480
O O16 0.500000 0.028401 0.209775
O O17 0.433656 0.250000 0.210400
#
# Coordination Sequence:
#
# PCOD9501161 Si02
#       6
#    16  16  16   8  16  16
#     4  10  19  31  46  65  90 121 160 202 248 299
#     4   9  19  31  45  69  98 128 165 207 252 305
#     4  10  19  35  55  78 109 141 174 216 260 306
#     4  12  24  38  58  84 112 144 179 218 257 300
#     4  10  19  32  50  77 108 141 176 212 261 315
#     4   9  17  30  49  73 100 129 161 200 250 303
#
# _framework density 16.854738000000001
#
# number of rings (size 3 to 8) (size 9 to 14) (size 15 to 20)
#    0.000    2.182    0.909    3.545    0.000    3.273 
#    0.000    0.000    0.000    1.091    0.000    3.818 
#    0.000    0.000    0.000    0.000    0.000    0.000 
#
# Total GULP energy -245166.569405 kJ/mol
# GULP energy per Si atom -5571.967486 kJ/mol
# Density = 1.681638 g / cm^3
# Si number density = 16.854738 Si / 1000 Ang^3
#
#
#
# Elastic Constant Matrix: (Units=GPa)
#
#
# Indices 1 2 3 4 5 6 
#
# 1 102.6586 36.7274 50.4423 0.0000 0.0000 0.0000
# 2 36.7274 66.9743 42.6570 0.0000 0.0000 0.0000
# 3 50.4423 42.6570 97.9611 0.0000 0.0000 0.0000
# 4 0.0000 0.0000 0.0000 22.5206 0.0000 0.0000
# 5 0.0000 0.0000 0.0000 0.0000 6.7549 0.0000
# 6 0.0000 0.0000 0.0000 0.0000 0.0000 29.9192
#
#
#
# Elastic Compliance Matrix: (Units=1/GPa)
#
#
# Indices 1 2 3 4 5 6 
#
# 1 0.013854 -0.004226 -0.005294 0.000000 0.000000 0.000000
# 2 -0.004226 0.021950 -0.007382 0.000000 0.000000 0.000000
# 3 -0.005294 -0.007382 0.016149 0.000000 0.000000 0.000000
# 4 0.000000 0.000000 0.000000 0.044404 0.000000 0.000000
# 5 0.000000 0.000000 0.000000 0.000000 0.148041 0.000000
# 6 0.000000 0.000000 0.000000 0.000000 0.000000 0.033423
#
#
# Mechanical properties :
#
#
# Convention : Reuss Voigt Hill
#
# Bulk Modulus (GPa) = 55.09778 58.58305 56.84042
# Shear Modulus (GPa) = 15.73941 21.02342 18.38141
#
# Velocity S-wave (km/s) = 3.05917 3.53559 3.30597
# Velocity P-wave (km/s) = 6.72598 7.17637 6.95482
#
# Compressibility (1/GPa) = 0.01814955
#
# Stress axis : x y z
#
# Youngs Moduli (GPa) = 72.18208 45.55750 61.92489
#
# Poissons Ratio (x) = 0.19251 0.32781
# Poissons Ratio (y) = 0.30501 0.45715
# Poissons Ratio (z) = 0.38211 0.33632
#
# Static dielectric constant tensor:
#      x y z
#    x 1.557980 0.000000 0.000000 
#    y 0.000000 1.585050 0.000000 
#    z 0.000000 0.000000 1.591260 
# 
# From -- ./inp_files/39583.got.cif
#   From: 2010.05.17/outbox.cif.g08.bks.cpg/sg67_20_cif.got.tgz:39583.got - 2010.06.03 18:28:57.
