data_PCOD9501732
_publ_section_title
;
Structure prediction by ZEFSAII (Michael W. Deem and Ramdas Pophale) SiO2 
 PCOD9501732
Probable space group: C M M A
;
_chemical_formula_sum "Si O2"
_cell_formula_units_Z 116
_cell_length_a 24.494615
_cell_length_b 26.023794
_cell_length_c 10.058505
_cell_angle_alpha 90.000000
_cell_angle_beta 90.000000
_cell_angle_gamma 90.000000
_cell_volume 6411.721741
_symmetry_space_group_name_H-M "C M M A"
_symmetry_group_IT_number 67
_symmetry_cell_setting 'orthorhombic'
loop_
_space_group_symop_operation_xyz
x,y,z
-x,1/2-y,z
x,-y,-z
-x,1/2+y,-z
-x,-y,-z
x,1/2+y,-z
-x,y,z
x,1/2-y,z
1/2+x,1/2+y,z
1/2-x,-y,z
1/2+x,1/2-y,-z
1/2-x,y,-z
1/2-x,1/2-y,-z
1/2+x,y,-z
1/2-x,1/2+y,z
1/2+x,-y,z
loop_
_atom_site_type_symbol
_atom_site_label
_atom_site_fract_x
_atom_site_fract_y
_atom_site_fract_z
Si Si1 0.311303 0.061097 0.529473
Si Si2 0.899614 0.871299 0.395551
Si Si3 0.939439 0.020722 0.652787
Si Si4 0.936395 0.879622 0.905544
Si Si5 0.934703 0.808335 0.653240
Si Si6 0.650038 0.540958 0.184004
Si Si7 0.750000 0.500000 0.000000
Si Si8 0.562999 0.190751 0.164157
O O1 0.250000 0.075391 0.500000
O O2 0.347125 0.095639 0.433190
O O3 0.329218 0.068787 0.681601
O O4 0.315723 0.000000 0.500000
O O5 0.939801 0.917740 0.355442
O O6 0.916468 0.839934 0.525242
O O7 0.897674 0.831292 0.276368
O O8 0.000000 0.002212 0.694420
O O9 0.931539 0.000000 0.500000
O O10 0.891315 0.002050 0.751627
O O11 0.922790 0.841703 0.783436
O O12 0.891470 0.924325 0.901490
O O13 0.000000 0.897035 0.890761
O O14 0.933502 0.845864 0.037706
O O15 0.912797 0.750000 0.657485
O O16 0.000000 0.804580 0.647243
O O17 0.704620 0.525976 0.100711
O O18 0.500000 0.188666 0.214752
O O19 0.573956 0.250000 0.129960
#
# Coordination Sequence:
#
# PCOD9501732 Si02
#       8
#    16  16  16  16  16  16   4  16
#     4  11  22  39  63  85 119 158 207 257 307 357
#     4  12  20  35  58  91 116 166 203 243 306 363
#     4  11  21  35  59  92 131 161 188 240 315 385
#     4  10  21  38  62  89 123 165 202 244 316 377
#     4  10  19  33  57  90 123 154 200 253 300 367
#     4  12  23  43  58  90 121 160 209 263 296 363
#     4  12  32  40  64  84 122 164 228 260 296 356
#     4  10  22  38  57  87 127 164 199 242 299 374
#
# _framework density 18.091864000000001
#
# number of rings (size 3 to 8) (size 9 to 14) (size 15 to 20)
#    0.000    1.103    4.138    3.310    1.931    4.966 
#    0.000    0.690    0.000    1.655    0.000    1.931 
#    0.000    0.000    0.000    0.000    0.000    0.000 
#
# Total GULP energy -323292.626494 kJ/mol
# GULP energy per Si atom -5574.010802 kJ/mol
# Density = 1.805069 g / cm^3
# Si number density = 18.091864 Si / 1000 Ang^3
#
#
#
# Elastic Constant Matrix: (Units=GPa)
#
#
# Indices 1 2 3 4 5 6 
#
# 1 124.2422 52.2677 47.8001 0.0000 0.0000 0.0000
# 2 52.2677 61.4757 22.3753 0.0000 0.0000 0.0000
# 3 47.8001 22.3753 82.9709 0.0000 0.0000 0.0000
# 4 0.0000 0.0000 0.0000 230.9425 0.0000 0.0000
# 5 0.0000 0.0000 0.0000 0.0000 20.6492 0.0000
# 6 0.0000 0.0000 0.0000 0.0000 0.0000 11.0705
#
#
#
# Elastic Compliance Matrix: (Units=1/GPa)
#
#
# Indices 1 2 3 4 5 6 
#
# 1 0.014548 -0.010333 -0.005595 0.000000 0.000000 0.000000
# 2 -0.010333 0.025376 -0.000890 0.000000 0.000000 0.000000
# 3 -0.005595 -0.000890 0.015516 0.000000 0.000000 0.000000
# 4 0.000000 0.000000 0.000000 0.004330 0.000000 0.000000
# 5 0.000000 0.000000 0.000000 0.000000 0.048428 0.000000
# 6 0.000000 0.000000 0.000000 0.000000 0.000000 0.090330
#
#
# Mechanical properties :
#
#
# Convention : Reuss Voigt Hill
#
# Bulk Modulus (GPa) = 45.86387 57.06388 51.46388
# Shear Modulus (GPa) = 20.88272 62.28216 41.58244
#
# Velocity S-wave (km/s) = 3.40113 5.87369 4.79937
# Velocity P-wave (km/s) = 6.38977 8.80965 7.69542
#
# Compressibility (1/GPa) = 0.02180365
#
# Stress axis : x y z
#
# Youngs Moduli (GPa) = 68.73682 39.40757 64.45058
#
# Poissons Ratio (x) = 0.40719 0.36059
# Poissons Ratio (y) = 0.71025 0.05739
# Poissons Ratio (z) = 0.38457 0.03509
#
# Static dielectric constant tensor:
#      x y z
#    x 1.646420 0.000000 0.000000 
#    y 0.000000 1.601490 0.000000 
#    z 0.000000 0.000000 1.648780 
# 
# From -- ./inp_files/14043.got.cif
#   From: 2010.05.17/outbox.cif.g08.bks.cpg/sg67_8_cif.got.tgz:14043.got - 2010.06.03 18:28:57.
