data_PCOD9501851
_publ_section_title
;
Structure prediction by ZEFSAII (Michael W. Deem and Ramdas Pophale) SiO2 
 PCOD9501851
Probable space group: C M M A
;
_chemical_formula_sum "Si O2"
_cell_formula_units_Z 72
_cell_length_a 15.121460
_cell_length_b 24.602370
_cell_length_c 9.302904
_cell_angle_alpha 90.000000
_cell_angle_beta 90.000000
_cell_angle_gamma 90.000000
_cell_volume 3460.901268
_symmetry_space_group_name_H-M "C M M A"
_symmetry_group_IT_number 67
_symmetry_cell_setting 'orthorhombic'
loop_
_space_group_symop_operation_xyz
x,y,z
-x,1/2-y,z
x,-y,-z
-x,1/2+y,-z
-x,-y,-z
x,1/2+y,-z
-x,y,z
x,1/2-y,z
1/2+x,1/2+y,z
1/2-x,-y,z
1/2+x,1/2-y,-z
1/2-x,y,-z
1/2-x,1/2-y,-z
1/2+x,y,-z
1/2-x,1/2+y,z
1/2+x,-y,z
loop_
_atom_site_type_symbol
_atom_site_label
_atom_site_fract_x
_atom_site_fract_y
_atom_site_fract_z
Si Si1 0.250000 0.000000 0.740409
Si Si2 0.392124 0.689793 0.095742
Si Si3 0.839203 0.095918 0.559386
Si Si4 0.898248 0.921345 0.756248
Si Si5 0.394598 0.309769 0.231226
O O1 0.305474 0.957115 0.644481
O O2 0.173745 0.964237 0.814757
O O3 0.500000 0.690728 0.096059
O O4 0.362917 0.750000 0.143703
O O5 0.368746 0.638430 0.192071
O O6 0.361008 0.681403 0.931536
O O7 0.750000 0.122742 0.500000
O O8 0.893498 0.079018 0.418014
O O9 0.879358 0.139666 0.665694
O O10 0.000000 0.931633 0.800653
O O11 0.500000 0.305716 0.217507
O O12 0.362803 0.250000 0.281874
#
# Coordination Sequence:
#
# PCOD9501851 Si02
#       5
#     8  16  16  16  16
#     4  10  23  40  53  78 115 146 187 232 271 326
#     4   8  16  33  56  82 111 140 175 223 277 333
#     4  10  20  35  53  76 110 145 183 229 271 321
#     4  10  19  34  59  84 108 144 185 227 275 323
#     4   9  18  34  56  81 110 144 179 219 276 338
#
# _framework density 20.803830000000001
#
# number of rings (size 3 to 8) (size 9 to 14) (size 15 to 20)
#    0.000    2.667    0.000    5.000    0.000    4.000 
#    0.000   12.222    0.000   14.667    0.000    0.000 
#    0.000    0.000    0.000    0.000    0.000    0.000 
#
# Total GULP energy -200620.816051 kJ/mol
# GULP energy per Si atom -5572.800446 kJ/mol
# Density = 2.075648 g / cm^3
# Si number density = 20.803830 Si / 1000 Ang^3
#
#
#
# Elastic Constant Matrix: (Units=GPa)
#
#
# Indices 1 2 3 4 5 6 
#
# 1 67.3423 42.6943 10.9791 0.0000 0.0000 0.0000
# 2 42.6943 149.9918 38.3243 0.0000 0.0000 0.0000
# 3 10.9791 38.3243 15.7958 0.0000 0.0000 0.0000
# 4 0.0000 0.0000 0.0000 18.0276 0.0000 0.0000
# 5 0.0000 0.0000 0.0000 0.0000 15.8065 0.0000
# 6 0.0000 0.0000 0.0000 0.0000 0.0000 13.1263
#
#
#
# Elastic Compliance Matrix: (Units=1/GPa)
#
#
# Indices 1 2 3 4 5 6 
#
# 1 0.018120 -0.005103 -0.000212 0.000000 0.000000 0.000000
# 2 -0.005103 0.018979 -0.042499 0.000000 0.000000 0.000000
# 3 -0.000212 -0.042499 0.166568 0.000000 0.000000 0.000000
# 4 0.000000 0.000000 0.000000 0.055471 0.000000 0.000000
# 5 0.000000 0.000000 0.000000 0.000000 0.063265 0.000000
# 6 0.000000 0.000000 0.000000 0.000000 0.000000 0.076183
#
#
# Mechanical properties :
#
#
# Convention : Reuss Voigt Hill
#
# Bulk Modulus (GPa) = 9.25615 46.34726 27.80170
# Shear Modulus (GPa) = 9.42994 18.80090 14.11542
#
# Velocity S-wave (km/s) = 2.13134 3.00946 2.60763
# Velocity P-wave (km/s) = 3.24280 5.86536 4.73910
#
# Compressibility (1/GPa) = 0.10803634
#
# Stress axis : x y z
#
# Youngs Moduli (GPa) = 55.18881 52.69095 6.00356
#
# Poissons Ratio (x) = 0.26890 0.00127
# Poissons Ratio (y) = 0.28165 0.25515
# Poissons Ratio (z) = 0.01172 2.23932
#
# Static dielectric constant tensor:
#      x y z
#    x 1.798900 0.000000 0.000000 
#    y 0.000000 1.740780 0.000000 
#    z 0.000000 0.000000 1.752360 
# 
# From -- ./inp_files/8283.got.cif
#   From: 2010.05.17/outbox.cif.g08.bks.cpg/sg67_5_cif.got.tgz:8283.got - 2010.06.03 18:28:57.
