data_PCOD9501823
_publ_section_title
;
Structure prediction by ZEFSAII (Michael W. Deem and Ramdas Pophale) SiO2 
 PCOD9501823
Probable space group: C M M A
;
_chemical_formula_sum "Si O2"
_cell_formula_units_Z 80
_cell_length_a 10.315320
_cell_length_b 14.418218
_cell_length_c 23.878484
_cell_angle_alpha 90.000000
_cell_angle_beta 90.000000
_cell_angle_gamma 90.000000
_cell_volume 3551.411884
_symmetry_space_group_name_H-M "C M M A"
_symmetry_group_IT_number 67
_symmetry_cell_setting 'orthorhombic'
loop_
_space_group_symop_operation_xyz
x,y,z
-x,1/2-y,z
x,-y,-z
-x,1/2+y,-z
-x,-y,-z
x,1/2+y,-z
-x,y,z
x,1/2-y,z
1/2+x,1/2+y,z
1/2-x,-y,z
1/2+x,1/2-y,-z
1/2-x,y,-z
1/2-x,1/2-y,-z
1/2+x,y,-z
1/2-x,1/2+y,z
1/2+x,-y,z
loop_
_atom_site_type_symbol
_atom_site_label
_atom_site_fract_x
_atom_site_fract_y
_atom_site_fract_z
Si Si1 0.500000 0.136388 0.538229
Si Si2 0.649307 0.637052 0.950721
Si Si3 0.357299 0.641960 0.135488
Si Si4 0.857456 0.077078 0.259182
Si Si5 0.279240 0.140820 0.621208
Si Si6 0.500000 0.863636 0.591864
O O1 0.500000 0.250000 0.538949
O O2 0.374121 0.104582 0.572823
O O3 0.500000 0.110264 0.473517
O O4 0.500000 0.603831 0.955551
O O5 0.640334 0.750000 0.951378
O O6 0.727681 0.606770 0.894970
O O7 0.750000 0.611432 0.000000
O O8 0.500000 0.601283 0.119897
O O9 0.364065 0.750000 0.119270
O O10 0.346047 0.635714 0.202414
O O11 0.838854 0.129707 0.317492
O O12 0.000000 0.034353 0.258945
O O13 0.750000 0.000000 0.256490
O O14 0.268120 0.250000 0.609491
O O15 0.133413 0.102182 0.619298
O O16 0.500000 0.750000 0.595360
#
# Coordination Sequence:
#
# PCOD9501823 Si02
#       6
#     8  16  16  16  16   8
#     4   9  16  30  55  83 111 137 172 217 266 323
#     4   9  16  27  47  79 115 146 175 213 264 315
#     4   9  18  34  56  80 106 139 182 225 265 315
#     4  11  24  39  56  76 105 145 184 226 275 324
#     4  10  19  34  57  83 109 139 178 221 267 321
#     4   9  18  30  51  87 115 135 166 219 276 317
#
# _framework density 22.526250999999998
#
# number of rings (size 3 to 8) (size 9 to 14) (size 15 to 20)
#    0.000    2.400    1.000    1.800    1.400    6.400 
#    0.000    0.000    0.000    4.200    0.000    4.200 
#    0.000    0.000    0.000    0.000    0.000    0.000 
#
# Total GULP energy -223341.777304 kJ/mol
# GULP energy per Si atom -5583.544433 kJ/mol
# Density = 2.247498 g / cm^3
# Si number density = 22.526251 Si / 1000 Ang^3
#
#
#
# Elastic Constant Matrix: (Units=GPa)
#
#
# Indices 1 2 3 4 5 6 
#
# 1 231.2813 5.9181 73.9004 0.0000 0.0000 0.0000
# 2 5.9181 42.2719 -20.7095 0.0000 0.0000 0.0000
# 3 73.9004 -20.7095 110.4925 0.0000 0.0000 0.0000
# 4 0.0000 0.0000 0.0000 -5.6754 0.0000 0.0000
# 5 0.0000 0.0000 0.0000 0.0000 39.9878 0.0000
# 6 0.0000 0.0000 0.0000 0.0000 0.0000 7.7841
#
#
#
# Elastic Compliance Matrix: (Units=1/GPa)
#
#
# Indices 1 2 3 4 5 6 
#
# 1 0.005825 -0.003000 -0.004458 0.000000 0.000000 0.000000
# 2 -0.003000 0.027593 0.007178 0.000000 0.000000 0.000000
# 3 -0.004458 0.007178 0.013377 0.000000 0.000000 0.000000
# 4 0.000000 0.000000 0.000000 -0.176200 0.000000 0.000000
# 5 0.000000 0.000000 0.000000 0.000000 0.025008 0.000000
# 6 0.000000 0.000000 0.000000 0.000000 0.000000 0.128467
#
#
# Mechanical properties :
#
#
# Convention : Reuss Voigt Hill
#
# Bulk Modulus (GPa) = 21.62834 55.80709 38.71771
# Shear Modulus (GPa) = 124.87167 30.08176 77.47671
#
# Velocity S-wave (km/s) = 7.45347 3.65829 5.87100
# Velocity P-wave (km/s) = 9.14847 6.53239 7.94879
#
# Compressibility (1/GPa) = 0.04623563
#
# Stress axis : x y z
#
# Youngs Moduli (GPa) = 171.67465 36.24130 74.75281
#
# Poissons Ratio (x) = 0.10871 0.33326
# Poissons Ratio (y) = 0.51495 -0.53657
# Poissons Ratio (z) = 0.76534 -0.26014
#
# Static dielectric constant tensor:
#      x y z
#    x 1.845100 0.000000 0.000000 
#    y 0.000000 1.850190 0.000000 
#    z 0.000000 0.000000 1.827880 
# 
# From -- ./inp_files/43369.got.cif
#   From: 2010.05.17/outbox.cif.g08.bks.cpg/sg67_22_cif.got.tgz:43369.got - 2010.06.03 18:28:57.
