data_PCOD9501339
_publ_section_title
;
Structure prediction by ZEFSAII (Michael W. Deem and Ramdas Pophale) SiO2 
 PCOD9501339
Probable space group: C M M A
;
_chemical_formula_sum "Si O2"
_cell_formula_units_Z 80
_cell_length_a 14.850831
_cell_length_b 9.015561
_cell_length_c 27.662101
_cell_angle_alpha 90.000000
_cell_angle_beta 90.000000
_cell_angle_gamma 90.000000
_cell_volume 3703.639223
_symmetry_space_group_name_H-M "C M M A"
_symmetry_group_IT_number 67
_symmetry_cell_setting 'orthorhombic'
loop_
_space_group_symop_operation_xyz
x,y,z
-x,1/2-y,z
x,-y,-z
-x,1/2+y,-z
-x,-y,-z
x,1/2+y,-z
-x,y,z
x,1/2-y,z
1/2+x,1/2+y,z
1/2-x,-y,z
1/2+x,1/2-y,-z
1/2-x,y,-z
1/2-x,1/2-y,-z
1/2+x,y,-z
1/2-x,1/2+y,z
1/2+x,-y,z
loop_
_atom_site_type_symbol
_atom_site_label
_atom_site_fract_x
_atom_site_fract_y
_atom_site_fract_z
Si Si1 0.605695 0.585683 0.144465
Si Si2 0.110407 0.419172 0.950756
Si Si3 0.349226 0.928188 0.652965
Si Si4 0.149391 0.928831 0.452075
Si Si5 0.348608 0.072108 0.242515
O O1 0.500000 0.602525 0.134523
O O2 0.646133 0.750000 0.150627
O O3 0.642174 0.501760 0.097587
O O4 0.611239 0.494685 0.193930
O O5 0.140977 0.250000 0.950645
O O6 0.000000 0.417504 0.950338
O O7 0.137392 0.500000 0.000000
O O8 0.339097 0.750000 0.653032
O O9 0.391605 0.964677 0.600775
O O10 0.391686 0.966639 0.705032
O O11 0.250000 0.000000 0.652903
O O12 0.154089 0.750000 0.457284
O O13 0.106878 0.000000 0.500000
O O14 0.250000 0.000000 0.450172
O O15 0.345627 0.250000 0.238809
O O16 0.250000 0.000000 0.244319
#
# Coordination Sequence:
#
# PCOD9501339 Si02
#       5
#    16  16  16  16  16
#     4  10  20  33  49  71  98 125 155 193 233 272
#     4   9  16  27  45  69  95 122 152 187 228 272
#     4   8  15  25  37  54  78 109 144 181 219 264
#     4   9  14  20  30  47  72 102 136 173 215 260
#     4  10  19  32  49  68  92 124 160 194 231 276
#
# _framework density 21.600376000000001
#
# number of rings (size 3 to 8) (size 9 to 14) (size 15 to 20)
#    0.000    2.800    0.000    3.000    0.000    5.200 
#    0.000    0.000    0.000    0.600    0.000    4.200 
#    0.000    0.800    0.000    1.800    0.000    9.800 
#
# Total GULP energy -222909.546914 kJ/mol
# GULP energy per Si atom -5572.738673 kJ/mol
# Density = 2.155121 g / cm^3
# Si number density = 21.600376 Si / 1000 Ang^3
#
#
#
# Elastic Constant Matrix: (Units=GPa)
#
#
# Indices 1 2 3 4 5 6 
#
# 1 46.0718 8.0515 12.3830 0.0000 0.0000 0.0000
# 2 8.0515 126.9532 107.9036 0.0000 0.0000 0.0000
# 3 12.3830 107.9036 274.0212 0.0000 0.0000 0.0000
# 4 0.0000 0.0000 0.0000 35.4325 0.0000 0.0000
# 5 0.0000 0.0000 0.0000 0.0000 -35.2453 0.0000
# 6 0.0000 0.0000 0.0000 0.0000 0.0000 5.5510
#
#
#
# Elastic Compliance Matrix: (Units=1/GPa)
#
#
# Indices 1 2 3 4 5 6 
#
# 1 0.022030 -0.000828 -0.000669 0.000000 0.000000 0.000000
# 2 -0.000828 0.011871 -0.004637 0.000000 0.000000 0.000000
# 3 -0.000669 -0.004637 0.005506 0.000000 0.000000 0.000000
# 4 0.000000 0.000000 0.000000 0.028223 0.000000 0.000000
# 5 0.000000 0.000000 0.000000 0.000000 -0.028373 0.000000
# 6 0.000000 0.000000 0.000000 0.000000 0.000000 0.180149
#
#
# Mechanical properties :
#
#
# Convention : Reuss Voigt Hill
#
# Bulk Modulus (GPa) = 36.85012 78.19137 57.52074
# Shear Modulus (GPa) = 20.77105 22.39485 21.58295
#
# Velocity S-wave (km/s) = 3.10434 3.22340 3.16443
# Velocity P-wave (km/s) = 5.47231 7.08035 6.32762
#
# Compressibility (1/GPa) = 0.02713695
#
# Stress axis : x y z
#
# Youngs Moduli (GPa) = 45.39279 84.24162 181.63533
#
# Poissons Ratio (x) = 0.06977 0.12159
# Poissons Ratio (y) = 0.03759 0.84224
# Poissons Ratio (z) = 0.03039 0.39063
#
# Static dielectric constant tensor:
#      x y z
#    x 1.865620 0.000000 0.000000 
#    y 0.000000 1.745330 0.000000 
#    z 0.000000 0.000000 1.848950 
# 
# From -- ./inp_files/43264.got.cif
#   From: 2010.05.17/outbox.cif.g08.bks.cpg/sg67_22_cif.got.tgz:43264.got - 2010.06.03 18:28:57.
