data_PCOD9501711
_publ_section_title
;
Structure prediction by ZEFSAII (Michael W. Deem and Ramdas Pophale) SiO2 
 PCOD9501711
Probable space group: C M M A
;
_chemical_formula_sum "Si O2"
_cell_formula_units_Z 88
_cell_length_a 8.693224
_cell_length_b 17.029923
_cell_length_c 30.629791
_cell_angle_alpha 90.000000
_cell_angle_beta 90.000000
_cell_angle_gamma 90.000000
_cell_volume 4534.585428
_symmetry_space_group_name_H-M "C M M A"
_symmetry_group_IT_number 67
_symmetry_cell_setting 'orthorhombic'
loop_
_space_group_symop_operation_xyz
x,y,z
-x,1/2-y,z
x,-y,-z
-x,1/2+y,-z
-x,-y,-z
x,1/2+y,-z
-x,y,z
x,1/2-y,z
1/2+x,1/2+y,z
1/2-x,-y,z
1/2+x,1/2-y,-z
1/2-x,y,-z
1/2-x,1/2-y,-z
1/2+x,y,-z
1/2-x,1/2+y,z
1/2+x,-y,z
loop_
_atom_site_type_symbol
_atom_site_label
_atom_site_fract_x
_atom_site_fract_y
_atom_site_fract_z
Si Si1 0.185705 0.250000 0.048775
Si Si2 0.814629 0.411537 0.099461
Si Si3 0.816954 0.416284 0.626607
Si Si4 0.687111 0.338163 0.285465
Si Si5 0.672243 0.656374 0.455862
Si Si6 0.314359 0.585884 0.804513
O O1 0.231355 0.166276 0.071511
O O2 0.000000 0.250000 0.048585
O O3 0.250000 0.250000 0.000000
O O4 0.750000 0.500000 0.087739
O O5 0.756714 0.393903 0.148583
O O6 0.000000 0.417672 0.098584
O O7 0.750000 0.500000 0.615039
O O8 0.758384 0.391838 0.674733
O O9 0.765756 0.359437 0.587984
O O10 0.000000 0.418508 0.628525
O O11 0.500000 0.340936 0.285467
O O12 0.735489 0.250000 0.295243
O O13 0.732759 0.361362 0.236558
O O14 0.500000 0.624192 0.451157
O O15 0.661868 0.750000 0.461031
O O16 0.750000 0.624614 0.500000
O O17 0.500000 0.585099 0.808250
O O18 0.250000 0.500000 0.794020
#
# Coordination Sequence:
#
# PCOD9501711 Si02
#       6
#     8  16  16  16  16  16
#     4  10  24  42  62  88 122 158 200 250 301 356
#     4  10  21  39  60  87 121 158 198 246 300 355
#     4  11  22  37  57  79 110 148 185 229 279 330
#     4   9  19  34  53  80 111 145 187 231 278 333
#     4  10  21  38  60  85 111 139 177 224 275 335
#     4  10  19  33  56  83 113 150 191 235 282 339
#
# _framework density 19.406404999999999
#
# number of rings (size 3 to 8) (size 9 to 14) (size 15 to 20)
#    0.000    2.000    0.000    4.364    1.273    4.000 
#    0.000    6.364    0.000    4.364    0.000    0.000 
#    0.000    0.000    0.000    0.000    0.000    0.000 
#
# Total GULP energy -245337.026795 kJ/mol
# GULP energy per Si atom -5575.841518 kJ/mol
# Density = 1.936224 g / cm^3
# Si number density = 19.406405 Si / 1000 Ang^3
#
#
#
# Elastic Constant Matrix: (Units=GPa)
#
#
# Indices 1 2 3 4 5 6 
#
# 1 56.8849 23.5114 27.4512 0.0000 0.0000 0.0000
# 2 23.5114 66.6498 47.0336 0.0000 0.0000 0.0000
# 3 27.4512 47.0336 96.5224 0.0000 0.0000 0.0000
# 4 0.0000 0.0000 0.0000 185.5948 0.0000 0.0000
# 5 0.0000 0.0000 0.0000 0.0000 29.5393 0.0000
# 6 0.0000 0.0000 0.0000 0.0000 0.0000 19.8549
#
#
#
# Elastic Compliance Matrix: (Units=1/GPa)
#
#
# Indices 1 2 3 4 5 6 
#
# 1 0.021400 -0.004960 -0.003670 0.000000 0.000000 0.000000
# 2 -0.004960 0.024016 -0.010292 0.000000 0.000000 0.000000
# 3 -0.003670 -0.010292 0.016419 0.000000 0.000000 0.000000
# 4 0.000000 0.000000 0.000000 0.005388 0.000000 0.000000
# 5 0.000000 0.000000 0.000000 0.000000 0.033853 0.000000
# 6 0.000000 0.000000 0.000000 0.000000 0.000000 0.050365
#
#
# Mechanical properties :
#
#
# Convention : Reuss Voigt Hill
#
# Bulk Modulus (GPa) = 41.67898 46.22774 43.95336
# Shear Modulus (GPa) = 25.34438 55.13519 40.23979
#
# Velocity S-wave (km/s) = 3.61776 5.33596 4.55854
# Velocity P-wave (km/s) = 6.24295 7.86358 7.09966
#
# Compressibility (1/GPa) = 0.02399291
#
# Stress axis : x y z
#
# Youngs Moduli (GPa) = 46.72894 41.63824 60.90456
#
# Poissons Ratio (x) = 0.20651 0.22349
# Poissons Ratio (y) = 0.23175 0.62684
# Poissons Ratio (z) = 0.17147 0.42855
#
# Static dielectric constant tensor:
#      x y z
#    x 1.685880 0.000000 0.000000 
#    y 0.000000 1.730690 0.000000 
#    z 0.000000 0.000000 1.665050 
# 
# From -- ./inp_files/45225.got.cif
#   From: 2010.05.17/outbox.cif.g08.bks.cpg/sg67_23_cif.got.tgz:45225.got - 2010.06.03 18:28:57.
