data_PCOD9501079
_publ_section_title
;
Structure prediction by ZEFSAII (Michael W. Deem and Ramdas Pophale) SiO2 
 PCOD9501079
Probable space group: C M M A
;
_chemical_formula_sum "Si O2"
_cell_formula_units_Z 80
_cell_length_a 14.070454
_cell_length_b 14.285767
_cell_length_c 18.931758
_cell_angle_alpha 90.000000
_cell_angle_beta 90.000000
_cell_angle_gamma 90.000000
_cell_volume 3805.420186
_symmetry_space_group_name_H-M "C M M A"
_symmetry_group_IT_number 67
_symmetry_cell_setting 'orthorhombic'
loop_
_space_group_symop_operation_xyz
x,y,z
-x,1/2-y,z
x,-y,-z
-x,1/2+y,-z
-x,-y,-z
x,1/2+y,-z
-x,y,z
x,1/2-y,z
1/2+x,1/2+y,z
1/2-x,-y,z
1/2+x,1/2-y,-z
1/2-x,y,-z
1/2-x,1/2-y,-z
1/2+x,y,-z
1/2-x,1/2+y,z
1/2+x,-y,z
loop_
_atom_site_type_symbol
_atom_site_label
_atom_site_fract_x
_atom_site_fract_y
_atom_site_fract_z
Si Si1 0.107055 0.113218 0.513173
Si Si2 0.606470 0.864374 0.954308
Si Si3 0.237194 0.611104 0.615360
Si Si4 0.194000 0.635305 0.895337
Si Si5 0.606661 0.139133 0.749299
O O1 0.165754 0.145621 0.445341
O O2 0.160281 0.141330 0.585361
O O3 0.000000 0.144629 0.512659
O O4 0.106844 0.000000 0.500000
O O5 0.500000 0.896454 0.936164
O O6 0.605183 0.750000 0.952392
O O7 0.696127 0.893963 0.906454
O O8 0.634974 0.890695 0.034574
O O9 0.250000 0.500000 0.612742
O O10 0.187041 0.629877 0.689374
O O11 0.194625 0.750000 0.894021
O O12 0.145413 0.601022 0.823688
O O13 0.500000 0.102475 0.730713
O O14 0.596120 0.250000 0.759168
#
# Coordination Sequence:
#
# PCOD9501079 Si02
#       5
#    16  16  16  16  16
#     4   8  14  27  47  67  86 112 149 191 226 255
#     4   8  12  20  36  56  79 111 151 192 228 261
#     4   9  17  29  47  69  89 113 151 191 222 260
#     4   8  14  23  36  58  87 117 150 185 223 270
#     4  10  19  30  45  67  97 127 150 180 227 278
#
# _framework density 21.022646000000002
#
# number of rings (size 3 to 8) (size 9 to 14) (size 15 to 20)
#    0.000    3.400    0.000    3.600    0.000    3.200 
#    0.000    3.000    0.000    3.000    0.000    2.800 
#    0.000    8.000    0.000    0.000    0.000    0.000 
#
# Total GULP energy -222836.165260 kJ/mol
# GULP energy per Si atom -5570.904132 kJ/mol
# Density = 2.097480 g / cm^3
# Si number density = 21.022646 Si / 1000 Ang^3
#
#
#
# Elastic Constant Matrix: (Units=GPa)
#
#
# Indices 1 2 3 4 5 6 
#
# 1 165.5909 12.9928 49.1181 0.0000 0.0000 0.0000
# 2 12.9928 61.6073 5.9547 0.0000 0.0000 0.0000
# 3 49.1181 5.9547 97.6089 0.0000 0.0000 0.0000
# 4 0.0000 0.0000 0.0000 17.5651 0.0000 0.0000
# 5 0.0000 0.0000 0.0000 0.0000 14.7447 0.0000
# 6 0.0000 0.0000 0.0000 0.0000 0.0000 2.5270
#
#
#
# Elastic Compliance Matrix: (Units=1/GPa)
#
#
# Indices 1 2 3 4 5 6 
#
# 1 0.007182 -0.001172 -0.003542 0.000000 0.000000 0.000000
# 2 -0.001172 0.016519 -0.000418 0.000000 0.000000 0.000000
# 3 -0.003542 -0.000418 0.012053 0.000000 0.000000 0.000000
# 4 0.000000 0.000000 0.000000 0.056931 0.000000 0.000000
# 5 0.000000 0.000000 0.000000 0.000000 0.067821 0.000000
# 6 0.000000 0.000000 0.000000 0.000000 0.000000 0.395734
#
#
# Mechanical properties :
#
#
# Convention : Reuss Voigt Hill
#
# Bulk Modulus (GPa) = 39.23239 51.21536 45.22388
# Shear Modulus (GPa) = 8.69563 24.08343 16.38953
#
# Velocity S-wave (km/s) = 2.03600 3.38834 2.79518
# Velocity P-wave (km/s) = 4.92235 6.30259 5.65474
#
# Compressibility (1/GPa) = 0.02548914
#
# Stress axis : x y z
#
# Youngs Moduli (GPa) = 139.24237 60.53466 82.96649
#
# Poissons Ratio (x) = 0.07096 0.29390
# Poissons Ratio (y) = 0.16322 0.03467
# Poissons Ratio (z) = 0.49326 0.02530
#
# Static dielectric constant tensor:
#      x y z
#    x 1.769980 0.000000 0.000000 
#    y 0.000000 1.839080 0.000000 
#    z 0.000000 0.000000 1.737870 
# 
# From -- ./inp_files/33646.got.cif
#   From: 2010.05.17/outbox.cif.g08.bks.cpg/sg67_17_cif.got.tgz:33646.got - 2010.06.03 18:28:57.
