data_PCOD9501955
_publ_section_title
;
Structure prediction by ZEFSAII (Michael W. Deem and Ramdas Pophale) SiO2 
 PCOD9501955
Probable space group: C M M A
;
_chemical_formula_sum "Si O2"
_cell_formula_units_Z 116
_cell_length_a 31.942767
_cell_length_b 16.113373
_cell_length_c 11.491770
_cell_angle_alpha 90.000000
_cell_angle_beta 90.000000
_cell_angle_gamma 90.000000
_cell_volume 5914.879744
_symmetry_space_group_name_H-M "C M M A"
_symmetry_group_IT_number 67
_symmetry_cell_setting 'orthorhombic'
loop_
_space_group_symop_operation_xyz
x,y,z
-x,1/2-y,z
x,-y,-z
-x,1/2+y,-z
-x,-y,-z
x,1/2+y,-z
-x,y,z
x,1/2-y,z
1/2+x,1/2+y,z
1/2-x,-y,z
1/2+x,1/2-y,-z
1/2-x,y,-z
1/2-x,1/2-y,-z
1/2+x,y,-z
1/2-x,1/2+y,z
1/2+x,-y,z
loop_
_atom_site_type_symbol
_atom_site_label
_atom_site_fract_x
_atom_site_fract_y
_atom_site_fract_z
Si Si1 0.368456 0.400399 0.534554
Si Si2 0.111506 0.656873 0.045962
Si Si3 0.285702 0.153472 0.410912
Si Si4 0.951680 0.038211 0.825552
Si Si5 0.750000 0.000000 0.000000
Si Si6 0.123477 0.919181 0.801319
Si Si7 0.814448 0.575892 0.174407
Si Si8 0.955005 0.908176 0.440230
O O1 0.365395 0.500000 0.500000
O O2 0.329620 0.355779 0.476562
O O3 0.368919 0.386271 0.672395
O O4 0.412525 0.368633 0.484831
O O5 0.096026 0.750000 0.056066
O O6 0.074834 0.593829 0.084615
O O7 0.151402 0.642131 0.129768
O O8 0.126510 0.637664 0.914768
O O9 0.276805 0.250000 0.383779
O O10 0.250000 0.122939 0.500000
O O11 0.291810 0.102234 0.292807
O O12 0.951947 0.081267 0.698527
O O13 0.000000 0.023987 0.858567
O O14 0.923419 0.956953 0.806512
O O15 0.720356 0.056449 0.079215
O O16 0.156979 0.993690 0.813034
O O17 0.000000 0.869067 0.468943
O O18 0.955556 0.000000 0.500000
#
# Coordination Sequence:
#
# PCOD9501955 Si02
#       8
#    16  16  16  16   4  16  16  16
#     4  11  19  36  63  90 119 161 202 249 308 369
#     4  11  24  41  59  85 128 168 202 252 310 366
#     4  11  26  42  60  93 129 162 201 249 313 384
#     4  10  19  35  62  91 121 161 209 257 298 357
#     4  12  24  40  68  96 110 148 222 266 292 372
#     4  11  21  38  61  92 122 156 212 256 307 358
#     4  11  22  42  65  89 117 157 202 259 307 359
#     4   9  16  30  56  91 120 143 191 253 304 352
#
# _framework density 19.611556
#
# number of rings (size 3 to 8) (size 9 to 14) (size 15 to 20)
#    0.000    1.379    5.517    2.483    1.931    2.207 
#    0.000    2.759    0.000    1.241    0.000    1.931 
#    0.000    0.000    0.000    0.000    0.000    0.000 
#
# Total GULP energy -323758.479509 kJ/mol
# GULP energy per Si atom -5582.042750 kJ/mol
# Density = 1.956692 g / cm^3
# Si number density = 19.611556 Si / 1000 Ang^3
#
#
#
# Elastic Constant Matrix: (Units=GPa)
#
#
# Indices 1 2 3 4 5 6 
#
# 1 133.2652 2.9195 42.7485 0.0000 0.0000 0.0000
# 2 2.9195 16.5840 4.8698 0.0000 0.0000 0.0000
# 3 42.7485 4.8698 131.4124 0.0000 0.0000 0.0000
# 4 0.0000 0.0000 0.0000 11.0556 0.0000 0.0000
# 5 0.0000 0.0000 0.0000 0.0000 33.1543 0.0000
# 6 0.0000 0.0000 0.0000 0.0000 0.0000 -9.6044
#
#
#
# Elastic Compliance Matrix: (Units=1/GPa)
#
#
# Indices 1 2 3 4 5 6 
#
# 1 0.008386 -0.000683 -0.002703 0.000000 0.000000 0.000000
# 2 -0.000683 0.061018 -0.002039 0.000000 0.000000 0.000000
# 3 -0.002703 -0.002039 0.008564 0.000000 0.000000 0.000000
# 4 0.000000 0.000000 0.000000 0.090452 0.000000 0.000000
# 5 0.000000 0.000000 0.000000 0.000000 0.030162 0.000000
# 6 0.000000 0.000000 0.000000 0.000000 0.000000 -0.104119
#
#
# Mechanical properties :
#
#
# Convention : Reuss Voigt Hill
#
# Bulk Modulus (GPa) = 14.89885 42.48191 28.69038
# Shear Modulus (GPa) = 39.15903 22.30269 30.73086
#
# Velocity S-wave (km/s) = 4.47333 3.37593 3.96280
# Velocity P-wave (km/s) = 5.85614 6.07491 5.96653
#
# Compressibility (1/GPa) = 0.06711928
#
# Stress axis : x y z
#
# Youngs Moduli (GPa) = 119.25039 16.38865 116.76315
#
# Poissons Ratio (x) = 0.01119 0.31556
# Poissons Ratio (y) = 0.08141 0.23809
# Poissons Ratio (z) = 0.32228 0.03342
#
# Static dielectric constant tensor:
#      x y z
#    x 1.681290 0.000000 0.000000 
#    y 0.000000 1.079570 0.000000 
#    z 0.000000 0.000000 1.695190 
# 
# From -- ./inp_files/23963.got.cif
#   From: 2010.05.17/outbox.cif.g08.bks.cpg/sg67_12_cif.got.tgz:23963.got - 2010.06.03 18:28:57.
