data_PCOD9501584
_publ_section_title
;
Structure prediction by ZEFSAII (Michael W. Deem and Ramdas Pophale) SiO2 
 PCOD9501584
Probable space group: C M M A
;
_chemical_formula_sum "Si O2"
_cell_formula_units_Z 112
_cell_length_a 28.862335
_cell_length_b 19.722661
_cell_length_c 11.389246
_cell_angle_alpha 90.000000
_cell_angle_beta 90.000000
_cell_angle_gamma 90.000000
_cell_volume 6483.237728
_symmetry_space_group_name_H-M "C M M A"
_symmetry_group_IT_number 67
_symmetry_cell_setting 'orthorhombic'
loop_
_space_group_symop_operation_xyz
x,y,z
-x,1/2-y,z
x,-y,-z
-x,1/2+y,-z
-x,-y,-z
x,1/2+y,-z
-x,y,z
x,1/2-y,z
1/2+x,1/2+y,z
1/2-x,-y,z
1/2+x,1/2-y,-z
1/2-x,y,-z
1/2-x,1/2-y,-z
1/2+x,y,-z
1/2-x,1/2+y,z
1/2+x,-y,z
loop_
_atom_site_type_symbol
_atom_site_label
_atom_site_fract_x
_atom_site_fract_y
_atom_site_fract_z
Si Si1 0.129723 0.580803 0.508527
Si Si2 0.053774 0.573620 0.938256
Si Si3 0.761088 0.080837 0.128141
Si Si4 0.911679 0.670191 0.146101
Si Si5 0.053109 0.672603 0.402249
Si Si6 0.141670 0.060896 0.226905
Si Si7 0.328123 0.403861 0.264986
O O1 0.122640 0.500000 0.500000
O O2 0.083584 0.620621 0.474565
O O3 0.143276 0.591881 0.642809
O O4 0.165016 0.602603 0.405056
O O5 0.069558 0.627725 0.036568
O O6 0.000000 0.585448 0.902061
O O7 0.055697 0.500000 0.000000
O O8 0.092362 0.572568 0.835491
O O9 0.814879 0.090249 0.155494
O O10 0.724470 0.105861 0.224401
O O11 0.750000 0.000000 0.124636
O O12 0.750000 0.109002 0.000000
O O13 0.912038 0.750000 0.120519
O O14 0.942308 0.657646 0.263258
O O15 0.861342 0.645246 0.190433
O O16 0.070142 0.750000 0.418024
O O17 0.000000 0.669251 0.437165
O O18 0.152970 0.980085 0.236100
#
# Coordination Sequence:
#
# PCOD9501584 Si02
#       7
#    16  16  16  16  16  16  16
#     4   9  19  32  49  75 106 137 172 219 266 315
#     4  11  22  34  52  75 106 142 175 221 272 316
#     4   9  17  27  51  79 103 137 173 217 263 312
#     4  10  19  34  56  79 106 138 177 225 267 317
#     4   9  18  33  53  75 100 135 180 223 260 307
#     4  10  19  33  51  77 108 138 177 217 264 324
#     4   9  17  33  52  78 108 134 174 221 268 314
#
# _framework density 17.275317999999999
#
# number of rings (size 3 to 8) (size 9 to 14) (size 15 to 20)
#    0.000    2.429    1.429    1.286    2.000    2.286 
#    0.000    3.571    0.000    4.714    0.000    4.000 
#    0.000    0.000    0.000    0.000    0.000    0.000 
#
# Total GULP energy -311992.739188 kJ/mol
# GULP energy per Si atom -5571.298914 kJ/mol
# Density = 1.723600 g / cm^3
# Si number density = 17.275318 Si / 1000 Ang^3
#
#
#
# Elastic Constant Matrix: (Units=GPa)
#
#
# Indices 1 2 3 4 5 6 
#
# 1 116.7650 12.7019 63.1504 0.0000 0.0000 0.0000
# 2 12.7019 34.4485 24.1333 0.0000 0.0000 0.0000
# 3 63.1504 24.1333 110.7008 0.0000 0.0000 0.0000
# 4 0.0000 0.0000 0.0000 21.0421 0.0000 0.0000
# 5 0.0000 0.0000 0.0000 0.0000 3.9398 0.0000
# 6 0.0000 0.0000 0.0000 0.0000 0.0000 -9.9068
#
#
#
# Elastic Compliance Matrix: (Units=1/GPa)
#
#
# Indices 1 2 3 4 5 6 
#
# 1 0.012391 0.000452 -0.007167 0.000000 0.000000 0.000000
# 2 0.000452 0.034278 -0.007731 0.000000 0.000000 0.000000
# 3 -0.007167 -0.007731 0.014807 0.000000 0.000000 0.000000
# 4 0.000000 0.000000 0.000000 0.047524 0.000000 0.000000
# 5 0.000000 0.000000 0.000000 0.000000 0.253821 0.000000
# 6 0.000000 0.000000 0.000000 0.000000 0.000000 -0.100941
#
#
# Mechanical properties :
#
#
# Convention : Reuss Voigt Hill
#
# Bulk Modulus (GPa) = 30.68902 51.32062 41.00482
# Shear Modulus (GPa) = 16.57637 13.81025 15.19331
#
# Velocity S-wave (km/s) = 3.10101 2.83047 2.96882
# Velocity P-wave (km/s) = 5.53398 6.36035 5.96150
#
# Compressibility (1/GPa) = 0.03258494
#
# Stress axis : x y z
#
# Youngs Moduli (GPa) = 80.70129 29.17328 67.53382
#
# Poissons Ratio (x) = -0.01319 0.48404
# Poissons Ratio (y) = -0.03649 0.52209
# Poissons Ratio (z) = 0.57842 0.22553
#
# Static dielectric constant tensor:
#      x y z
#    x 1.588020 0.000000 0.000000 
#    y 0.000000 1.571720 0.000000 
#    z 0.000000 0.000000 1.595570 
# 
# From -- ./inp_files/22177.got.cif
#   From: 2010.05.17/outbox.cif.g08.bks.cpg/sg67_12_cif.got.tgz:22177.got - 2010.06.03 18:28:57.
