data_PCOD9501619
_publ_section_title
;
Structure prediction by ZEFSAII (Michael W. Deem and Ramdas Pophale) SiO2 
 PCOD9501619
Probable space group: C M M A
;
_chemical_formula_sum "Si O2"
_cell_formula_units_Z 120
_cell_length_a 27.152668
_cell_length_b 8.590666
_cell_length_c 28.794863
_cell_angle_alpha 90.000000
_cell_angle_beta 90.000000
_cell_angle_gamma 90.000000
_cell_volume 6716.675398
_symmetry_space_group_name_H-M "C M M A"
_symmetry_group_IT_number 67
_symmetry_cell_setting 'orthorhombic'
loop_
_space_group_symop_operation_xyz
x,y,z
-x,1/2-y,z
x,-y,-z
-x,1/2+y,-z
-x,-y,-z
x,1/2+y,-z
-x,y,z
x,1/2-y,z
1/2+x,1/2+y,z
1/2-x,-y,z
1/2+x,1/2-y,-z
1/2-x,y,-z
1/2-x,1/2-y,-z
1/2+x,y,-z
1/2-x,1/2+y,z
1/2+x,-y,z
loop_
_atom_site_type_symbol
_atom_site_label
_atom_site_fract_x
_atom_site_fract_y
_atom_site_fract_z
Si Si1 0.597012 0.938333 0.146963
Si Si2 0.057768 0.437238 0.048649
Si Si3 0.801739 0.563868 0.807385
Si Si4 0.695437 0.935104 0.383679
Si Si5 0.654876 0.435116 0.287340
Si Si6 0.555673 0.061450 0.753727
Si Si7 0.500000 0.062478 0.447297
Si Si8 0.108071 0.062598 0.552627
O O1 0.592169 0.750000 0.145566
O O2 0.580946 0.996737 0.096687
O O3 0.653268 0.976064 0.158765
O O4 0.565993 0.986848 0.192530
O O5 0.061516 0.250000 0.047808
O O6 0.000000 0.478471 0.050418
O O7 0.078374 0.500000 0.000000
O O8 0.800489 0.750000 0.801843
O O9 0.750000 0.500000 0.824193
O O10 0.814747 0.488502 0.757846
O O11 0.697134 0.750000 0.386218
O O12 0.750000 0.000000 0.393674
O O13 0.678408 0.987928 0.332530
O O14 0.653575 0.998065 0.418315
O O15 0.656396 0.250000 0.292181
O O16 0.598853 0.490124 0.277514
O O17 0.500000 0.019021 0.740505
O O18 0.560174 0.250000 0.751947
O O19 0.500000 0.250000 0.448322
O O20 0.446383 0.015166 0.427624
O O21 0.500000 0.000000 0.500000
O O22 0.110263 0.250000 0.552267
O O23 0.110778 0.000000 0.500000
#
# Coordination Sequence:
#
# PCOD9501619 Si02
#       8
#    16  16  16  16  16  16   8  16
#     4   8  15  28  48  71  96 130 169 208 253 308
#     4   9  16  27  44  67  95 127 163 202 247 300
#     4  10  19  33  53  76  99 127 167 214 260 310
#     4  12  25  42  61  83 111 147 187 232 277 327
#     4  11  22  37  55  78 108 142 177 216 264 319
#     4   9  17  32  54  78 105 138 177 219 263 315
#     4   8  16  32  58  86 116 146 178 218 262 310
#     4  10  20  38  62  91 120 151 186 227 273 324
#
# _framework density 17.865981999999999
#
# number of rings (size 3 to 8) (size 9 to 14) (size 15 to 20)
#    0.000    2.267    0.000    4.800    0.000    2.667 
#    1.200    4.667    0.000    3.600    0.000    2.800 
#    0.000    0.000    0.000    0.000    0.000    0.000 
#
# Total GULP energy -334673.106107 kJ/mol
# GULP energy per Si atom -5577.885102 kJ/mol
# Density = 1.782532 g / cm^3
# Si number density = 17.865982 Si / 1000 Ang^3
#
#
#
# Elastic Constant Matrix: (Units=GPa)
#
#
# Indices 1 2 3 4 5 6 
#
# 1 144.1305 49.1018 52.2966 0.0000 0.0000 0.0000
# 2 49.1018 67.6967 27.9255 0.0000 0.0000 0.0000
# 3 52.2966 27.9255 76.5880 0.0000 0.0000 0.0000
# 4 0.0000 0.0000 0.0000 23.2998 0.0000 0.0000
# 5 0.0000 0.0000 0.0000 0.0000 16.4705 0.0000
# 6 0.0000 0.0000 0.0000 0.0000 0.0000 24.1709
#
#
#
# Elastic Compliance Matrix: (Units=1/GPa)
#
#
# Indices 1 2 3 4 5 6 
#
# 1 0.010783 -0.005631 -0.005310 0.000000 0.000000 0.000000
# 2 -0.005631 0.020327 -0.003567 0.000000 0.000000 0.000000
# 3 -0.005310 -0.003567 0.017983 0.000000 0.000000 0.000000
# 4 0.000000 0.000000 0.000000 0.042919 0.000000 0.000000
# 5 0.000000 0.000000 0.000000 0.000000 0.060715 0.000000
# 6 0.000000 0.000000 0.000000 0.000000 0.000000 0.041372
#
#
# Mechanical properties :
#
#
# Convention : Reuss Voigt Hill
#
# Bulk Modulus (GPa) = 49.80475 60.78479 55.29477
# Shear Modulus (GPa) = 21.75738 23.39433 22.57586
#
# Velocity S-wave (km/s) = 3.49350 3.62254 3.55860
# Velocity P-wave (km/s) = 6.64907 7.18286 6.92111
#
# Compressibility (1/GPa) = 0.02007841
#
# Stress axis : x y z
#
# Youngs Moduli (GPa) = 92.73780 49.19507 55.60749
#
# Poissons Ratio (x) = 0.27701 0.29527
# Poissons Ratio (y) = 0.52219 0.19834
# Poissons Ratio (z) = 0.49243 0.17547
#
# Static dielectric constant tensor:
#      x y z
#    x 1.622670 0.000000 0.000000 
#    y 0.000000 1.609350 0.000000 
#    z 0.000000 0.000000 1.599030 
# 
# From -- ./inp_files/44989.got.cif
#   From: 2010.05.17/outbox.cif.g08.bks.cpg/sg67_23_cif.got.tgz:44989.got - 2010.06.03 18:28:57.
