data_PCOD9501053
_publ_section_title
;
Structure prediction by ZEFSAII (Michael W. Deem and Ramdas Pophale) SiO2 
 PCOD9501053
Probable space group: C M M A
;
_chemical_formula_sum "Si O2"
_cell_formula_units_Z 120
_cell_length_a 28.082962
_cell_length_b 8.239615
_cell_length_c 27.684503
_cell_angle_alpha 90.000000
_cell_angle_beta 90.000000
_cell_angle_gamma 90.000000
_cell_volume 6405.994526
_symmetry_space_group_name_H-M "C M M A"
_symmetry_group_IT_number 67
_symmetry_cell_setting 'orthorhombic'
loop_
_space_group_symop_operation_xyz
x,y,z
-x,1/2-y,z
x,-y,-z
-x,1/2+y,-z
-x,-y,-z
x,1/2+y,-z
-x,y,z
x,1/2-y,z
1/2+x,1/2+y,z
1/2-x,-y,z
1/2+x,1/2-y,-z
1/2-x,y,-z
1/2-x,1/2-y,-z
1/2+x,y,-z
1/2-x,1/2+y,z
1/2+x,-y,z
loop_
_atom_site_type_symbol
_atom_site_label
_atom_site_fract_x
_atom_site_fract_y
_atom_site_fract_z
Si Si1 0.500000 0.947283 0.555332
Si Si2 0.804336 0.440874 0.051203
Si Si3 0.195291 0.447176 0.643105
Si Si4 0.097275 0.936446 0.393916
Si Si5 0.057149 0.062774 0.299608
Si Si6 0.446447 0.054141 0.193537
Si Si7 0.645955 0.945138 0.851757
Si Si8 0.804098 0.445816 0.753020
O O1 0.500000 0.750000 0.560466
O O2 0.449656 0.007113 0.578865
O O3 0.500000 0.000000 0.500000
O O4 0.803605 0.250000 0.049514
O O5 0.750000 0.500000 0.054041
O O6 0.830484 0.494966 0.099586
O O7 0.825028 0.500000 0.000000
O O8 0.194672 0.250000 0.642545
O O9 0.250000 0.500000 0.632302
O O10 0.151712 0.503629 0.608165
O O11 0.183501 0.502201 0.698437
O O12 0.101151 0.750000 0.410327
O O13 0.081352 0.946860 0.338149
O O14 0.069434 0.250000 0.309868
O O15 0.000000 0.045296 0.304013
O O16 0.069215 0.016497 0.245050
O O17 0.500000 0.999762 0.183999
O O18 0.446236 0.250000 0.198521
O O19 0.409252 0.009096 0.152656
O O20 0.650066 0.750000 0.851640
O O21 0.668928 0.003679 0.801102
O O22 0.808093 0.250000 0.752132
O O23 0.750000 0.500000 0.759732
#
# Coordination Sequence:
#
# PCOD9501053 Si02
#       8
#     8  16  16  16  16  16  16  16
#     4  10  22  38  58  82 106 134 172 222 277 326
#     4  11  22  37  56  77 100 126 159 204 258 313
#     4   9  18  32  50  74 105 139 177 213 248 300
#     4  10  19  34  55  76 101 139 180 215 260 321
#     4  10  19  29  45  74 108 139 174 217 259 300
#     4   9  18  32  50  71 101 142 179 210 247 299
#     4  10  19  32  50  73 100 132 172 213 255 303
#     4   9  17  28  43  66  99 134 165 201 240 285
#
# _framework density 18.732454000000001
#
# number of rings (size 3 to 8) (size 9 to 14) (size 15 to 20)
#    0.000    2.267    0.667    3.200    0.000    5.867 
#    0.000    2.667    0.000    0.800    0.000    2.800 
#    0.000    0.000    0.000    0.000    0.000    0.000 
#
# Total GULP energy -334337.843250 kJ/mol
# GULP energy per Si atom -5572.297387 kJ/mol
# Density = 1.868982 g / cm^3
# Si number density = 18.732454 Si / 1000 Ang^3
#
#
#
# Elastic Constant Matrix: (Units=GPa)
#
#
# Indices 1 2 3 4 5 6 
#
# 1 119.3276 14.8359 81.5206 0.0000 0.0000 0.0000
# 2 14.8359 9.7596 9.0925 0.0000 0.0000 0.0000
# 3 81.5206 9.0925 74.6979 0.0000 0.0000 0.0000
# 4 0.0000 0.0000 0.0000 4.2606 0.0000 0.0000
# 5 0.0000 0.0000 0.0000 0.0000 18.1646 0.0000
# 6 0.0000 0.0000 0.0000 0.0000 0.0000 14.8776
#
#
#
# Elastic Compliance Matrix: (Units=1/GPa)
#
#
# Indices 1 2 3 4 5 6 
#
# 1 0.036269 -0.020593 -0.037075 0.000000 0.000000 0.000000
# 2 -0.020593 0.127261 0.006984 0.000000 0.000000 0.000000
# 3 -0.037075 0.006984 0.052999 0.000000 0.000000 0.000000
# 4 0.000000 0.000000 0.000000 0.234707 0.000000 0.000000
# 5 0.000000 0.000000 0.000000 0.000000 0.055052 0.000000
# 6 0.000000 0.000000 0.000000 0.000000 0.000000 0.067215
#
#
# Mechanical properties :
#
#
# Convention : Reuss Voigt Hill
#
# Bulk Modulus (GPa) = 8.68362 46.07591 27.37976
# Shear Modulus (GPa) = 7.01006 14.01631 10.51318
#
# Velocity S-wave (km/s) = 1.93658 2.73836 2.37160
# Velocity P-wave (km/s) = 3.10582 5.88629 4.70609
#
# Compressibility (1/GPa) = 0.11515933
#
# Stress axis : x y z
#
# Youngs Moduli (GPa) = 27.57155 7.85785 18.86832
#
# Poissons Ratio (x) = 0.16182 0.69955
# Poissons Ratio (y) = 0.56779 -0.13177
# Poissons Ratio (z) = 1.02222 -0.05488
#
# Static dielectric constant tensor:
#      x y z
#    x 1.693060 0.000000 0.000000 
#    y 0.000000 1.687710 0.000000 
#    z 0.000000 0.000000 1.865240 
# 
# From -- ./inp_files/45010.got.cif
#   From: 2010.05.17/outbox.cif.g08.bks.cpg/sg67_23_cif.got.tgz:45010.got - 2010.06.03 18:28:57.
