data_PCOD9501520
_publ_section_title
;
Structure prediction by ZEFSAII (Michael W. Deem and Ramdas Pophale) SiO2 
 PCOD9501520
Probable space group: C M M A
;
_chemical_formula_sum "Si O2"
_cell_formula_units_Z 112
_cell_length_a 31.437609
_cell_length_b 14.551181
_cell_length_c 11.731496
_cell_angle_alpha 90.000000
_cell_angle_beta 90.000000
_cell_angle_gamma 90.000000
_cell_volume 5366.623745
_symmetry_space_group_name_H-M "C M M A"
_symmetry_group_IT_number 67
_symmetry_cell_setting 'orthorhombic'
loop_
_space_group_symop_operation_xyz
x,y,z
-x,1/2-y,z
x,-y,-z
-x,1/2+y,-z
-x,-y,-z
x,1/2+y,-z
-x,y,z
x,1/2-y,z
1/2+x,1/2+y,z
1/2-x,-y,z
1/2+x,1/2-y,-z
1/2-x,y,-z
1/2-x,1/2-y,-z
1/2+x,y,-z
1/2-x,1/2+y,z
1/2+x,-y,z
loop_
_atom_site_type_symbol
_atom_site_label
_atom_site_fract_x
_atom_site_fract_y
_atom_site_fract_z
Si Si1 0.793364 0.102656 0.448716
Si Si2 0.713422 0.148845 0.094638
Si Si3 0.135373 0.645949 0.387595
Si Si4 0.634296 0.650446 0.072869
Si Si5 0.547932 0.602634 0.952439
Si Si6 0.546800 0.139861 0.310591
Si Si7 0.179633 0.490463 0.234201
O O1 0.750000 0.144944 0.500000
O O2 0.836163 0.146002 0.498994
O O3 0.793359 0.000000 0.500000
O O4 0.797135 0.084491 0.314628
O O5 0.718607 0.250000 0.151359
O O6 0.711688 0.058075 0.169454
O O7 0.750000 0.142096 0.000000
O O8 0.668193 0.148598 0.029966
O O9 0.138541 0.750000 0.338078
O O10 0.085519 0.622902 0.396482
O O11 0.154204 0.565497 0.309213
O O12 0.639628 0.750000 0.131576
O O13 0.587240 0.645604 0.020477
O O14 0.648002 0.565819 0.152364
O O15 0.500000 0.642337 0.967037
O O16 0.546169 0.500000 0.000000
O O17 0.556821 0.604352 0.816857
O O18 0.500000 0.105489 0.344518
O O19 0.544267 0.250000 0.299198
#
# Coordination Sequence:
#
# PCOD9501520 Si02
#       7
#    16  16  16  16  16  16  16
#     4   9  21  39  57  80 109 145 192 239 293 354
#     4  10  22  38  58  88 120 152 193 237 290 354
#     4  10  20  35  59  86 111 143 190 249 302 349
#     4  11  23  36  53  82 120 161 201 240 285 343
#     4  10  19  32  53  82 116 155 199 245 294 352
#     4   9  17  30  51  80 112 146 185 232 288 346
#     4  11  22  39  60  81 113 155 193 238 294 356
#
# _framework density 20.869733
#
# number of rings (size 3 to 8) (size 9 to 14) (size 15 to 20)
#    0.000    2.000    0.000    3.857    0.000    9.714 
#    0.000    1.429    0.000    6.000    0.000    2.000 
#    0.000    0.000    0.000    0.000    0.000    0.000 
#
# Total GULP energy -312322.202970 kJ/mol
# GULP energy per Si atom -5577.182196 kJ/mol
# Density = 2.082223 g / cm^3
# Si number density = 20.869733 Si / 1000 Ang^3
#
#
#
# Elastic Constant Matrix: (Units=GPa)
#
#
# Indices 1 2 3 4 5 6 
#
# 1 162.6487 49.8552 67.0811 0.0000 0.0000 0.0000
# 2 49.8552 101.6630 26.0204 0.0000 0.0000 0.0000
# 3 67.0811 26.0204 57.7380 0.0000 0.0000 0.0000
# 4 0.0000 0.0000 0.0000 -6.7123 0.0000 0.0000
# 5 0.0000 0.0000 0.0000 0.0000 27.7210 0.0000
# 6 0.0000 0.0000 0.0000 0.0000 0.0000 84.6465
#
#
#
# Elastic Compliance Matrix: (Units=1/GPa)
#
#
# Indices 1 2 3 4 5 6 
#
# 1 0.012433 -0.002713 -0.013222 0.000000 0.000000 0.000000
# 2 -0.002713 0.011711 -0.002126 0.000000 0.000000 0.000000
# 3 -0.013222 -0.002126 0.033640 0.000000 0.000000 0.000000
# 4 0.000000 0.000000 0.000000 -0.148980 0.000000 0.000000
# 5 0.000000 0.000000 0.000000 0.000000 0.036074 0.000000
# 6 0.000000 0.000000 0.000000 0.000000 0.000000 0.011814
#
#
# Mechanical properties :
#
#
# Convention : Reuss Voigt Hill
#
# Bulk Modulus (GPa) = 46.16485 67.55147 56.85816
# Shear Modulus (GPa) = 149545.30404 33.07055 74789.18729
#
# Velocity S-wave (km/s) = 267.97781 3.98504 189.50988
# Velocity P-wave (km/s) = 309.46995 7.32206 218.88954
#
# Compressibility (1/GPa) = 0.02166150
#
# Stress axis : x y z
#
# Youngs Moduli (GPa) = 80.43061 85.39041 29.72682
#
# Poissons Ratio (x) = 0.23166 0.39306
# Poissons Ratio (y) = 0.21820 0.06319
# Poissons Ratio (z) = 1.06348 0.18152
#
# Static dielectric constant tensor:
#      x y z
#    x 1.794900 0.000000 0.000000 
#    y 0.000000 1.776110 0.000000 
#    z 0.000000 0.000000 1.779160 
# 
# From -- ./inp_files/23841.got.cif
#   From: 2010.05.17/outbox.cif.g08.bks.cpg/sg67_12_cif.got.tgz:23841.got - 2010.06.03 18:28:57.
