data_PCOD9501276
_publ_section_title
;
Structure prediction by ZEFSAII (Michael W. Deem and Ramdas Pophale) SiO2 
 PCOD9501276
Probable space group: C M M A
;
_chemical_formula_sum "Si O2"
_cell_formula_units_Z 80
_cell_length_a 18.153767
_cell_length_b 25.735488
_cell_length_c 9.657045
_cell_angle_alpha 90.000000
_cell_angle_beta 90.000000
_cell_angle_gamma 90.000000
_cell_volume 4511.733306
_symmetry_space_group_name_H-M "C M M A"
_symmetry_group_IT_number 67
_symmetry_cell_setting 'orthorhombic'
loop_
_space_group_symop_operation_xyz
x,y,z
-x,1/2-y,z
x,-y,-z
-x,1/2+y,-z
-x,-y,-z
x,1/2+y,-z
-x,y,z
x,1/2-y,z
1/2+x,1/2+y,z
1/2-x,-y,z
1/2+x,1/2-y,-z
1/2-x,y,-z
1/2-x,1/2-y,-z
1/2+x,y,-z
1/2-x,1/2+y,z
1/2+x,-y,z
loop_
_atom_site_type_symbol
_atom_site_label
_atom_site_fract_x
_atom_site_fract_y
_atom_site_fract_z
Si Si1 0.266308 0.559798 0.163542
Si Si2 0.415745 0.691584 0.929663
Si Si3 0.355180 0.689932 0.398923
Si Si4 0.698039 0.658390 0.698191
Si Si5 0.081851 0.614076 0.813905
O O1 0.250000 0.500000 0.195217
O O2 0.218127 0.600054 0.253652
O O3 0.351519 0.573652 0.191336
O O4 0.250000 0.568529 0.000000
O O5 0.500000 0.687384 0.875679
O O6 0.407434 0.750000 0.987396
O O7 0.355610 0.682591 0.812010
O O8 0.407299 0.649174 0.049216
O O9 0.377115 0.750000 0.412756
O O10 0.339414 0.665031 0.548808
O O11 0.276964 0.686777 0.317168
O O12 0.410066 0.654151 0.312938
O O13 0.000000 0.591136 0.816901
#
# Coordination Sequence:
#
# PCOD9501276 Si02
#       5
#    16  16  16  16  16
#     4  10  20  38  61  84 107 142 192 241 290 332
#     4  10  19  31  50  77 110 143 179 225 276 332
#     4  10  20  33  54  80 114 152 184 220 270 337
#     4  10  19  35  53  79 110 144 191 234 274 326
#     4  10  21  37  55  83 115 145 184 228 278 334
#
# _framework density 17.731544
#
# number of rings (size 3 to 8) (size 9 to 14) (size 15 to 20)
#    0.000    2.000    2.000    3.000    0.000    2.000 
#    0.000   14.000    0.000    1.200    0.000    0.000 
#    0.000    0.000    0.000    0.000    0.000    0.000 
#
# Total GULP energy -223165.450014 kJ/mol
# GULP energy per Si atom -5579.136250 kJ/mol
# Density = 1.769119 g / cm^3
# Si number density = 17.731544 Si / 1000 Ang^3
#
#
#
# Elastic Constant Matrix: (Units=GPa)
#
#
# Indices 1 2 3 4 5 6 
#
# 1 86.7779 46.2280 26.1415 0.0000 0.0000 0.0000
# 2 46.2280 128.6782 32.2555 0.0000 0.0000 0.0000
# 3 26.1415 32.2555 45.9741 0.0000 0.0000 0.0000
# 4 0.0000 0.0000 0.0000 21.2886 0.0000 0.0000
# 5 0.0000 0.0000 0.0000 0.0000 22.7630 0.0000
# 6 0.0000 0.0000 0.0000 0.0000 0.0000 309.5019
#
#
#
# Elastic Compliance Matrix: (Units=1/GPa)
#
#
# Indices 1 2 3 4 5 6 
#
# 1 0.015485 -0.004072 -0.005948 0.000000 0.000000 0.000000
# 2 -0.004072 0.010501 -0.005052 0.000000 0.000000 0.000000
# 3 -0.005948 -0.005052 0.028678 0.000000 0.000000 0.000000
# 4 0.000000 0.000000 0.000000 0.046974 0.000000 0.000000
# 5 0.000000 0.000000 0.000000 0.000000 0.043931 0.000000
# 6 0.000000 0.000000 0.000000 0.000000 0.000000 0.003231
#
#
# Mechanical properties :
#
#
# Convention : Reuss Voigt Hill
#
# Bulk Modulus (GPa) = 40.78364 52.29779 46.54072
# Shear Modulus (GPa) = 26.72156 81.16439 53.94298
#
# Velocity S-wave (km/s) = 3.88623 6.77299 5.52160
# Velocity P-wave (km/s) = 6.57173 9.52485 8.18261
#
# Compressibility (1/GPa) = 0.02451963
#
# Stress axis : x y z
#
# Youngs Moduli (GPa) = 64.58007 95.23354 34.87022
#
# Poissons Ratio (x) = 0.38779 0.20740
# Poissons Ratio (y) = 0.26297 0.17616
# Poissons Ratio (z) = 0.38412 0.48110
#
# Static dielectric constant tensor:
#      x y z
#    x 1.616180 0.000000 0.000000 
#    y 0.000000 1.584870 0.000000 
#    z 0.000000 0.000000 1.603080 
# 
# From -- ./inp_files/9895.got.cif
#   From: 2010.05.17/outbox.cif.g08.bks.cpg/sg67_5_cif.got.tgz:9895.got - 2010.06.03 18:28:57.
