data_PCOD9501972
_publ_section_title
;
Structure prediction by ZEFSAII (Michael W. Deem and Ramdas Pophale) SiO2 
 PCOD9501972
Probable space group: C M M A
;
_chemical_formula_sum "Si O2"
_cell_formula_units_Z 116
_cell_length_a 15.098383
_cell_length_b 31.374313
_cell_length_c 10.978596
_cell_angle_alpha 90.000000
_cell_angle_beta 90.000000
_cell_angle_gamma 90.000000
_cell_volume 5200.576230
_symmetry_space_group_name_H-M "C M M A"
_symmetry_group_IT_number 67
_symmetry_cell_setting 'orthorhombic'
loop_
_space_group_symop_operation_xyz
x,y,z
-x,1/2-y,z
x,-y,-z
-x,1/2+y,-z
-x,-y,-z
x,1/2+y,-z
-x,y,z
x,1/2-y,z
1/2+x,1/2+y,z
1/2-x,-y,z
1/2+x,1/2-y,-z
1/2-x,y,-z
1/2-x,1/2-y,-z
1/2+x,y,-z
1/2-x,1/2+y,z
1/2+x,-y,z
loop_
_atom_site_type_symbol
_atom_site_label
_atom_site_fract_x
_atom_site_fract_y
_atom_site_fract_z
Si Si1 0.600449 0.613252 0.979093
Si Si2 0.108627 0.088465 0.242217
Si Si3 0.607847 0.999183 0.639798
Si Si4 0.350347 0.296125 0.946553
Si Si5 0.162993 0.179643 0.333205
Si Si6 0.107030 0.593620 0.283588
Si Si7 0.500000 0.750000 0.698077
Si Si8 0.135242 0.817142 0.399641
O O1 0.500000 0.596775 0.971978
O O2 0.643587 0.605396 0.849441
O O3 0.638358 0.593204 0.101860
O O4 0.599783 0.663670 0.000092
O O5 0.147621 0.128941 0.313964
O O6 0.000000 0.092480 0.246694
O O7 0.134578 0.042650 0.294167
O O8 0.500000 0.998954 0.645750
O O9 0.639302 0.953700 0.688239
O O10 0.634001 0.000000 0.500000
O O11 0.385762 0.250000 0.983367
O O12 0.356336 0.300477 0.799390
O O13 0.250000 0.299083 0.000000
O O14 0.113234 0.192375 0.458226
O O15 0.263360 0.191067 0.365716
O O16 0.125468 0.632267 0.375150
O O17 0.000000 0.591891 0.280162
O O18 0.575907 0.712247 0.685168
#
# Coordination Sequence:
#
# PCOD9501972 Si02
#       8
#    16  16  16  16  16  16   4  16
#     4   9  19  35  53  81 114 153 206 257 307 365
#     4   9  18  35  58  88 121 162 208 252 311 376
#     4   9  17  29  54  88 121 159 207 252 303 375
#     4  10  21  38  58  81 109 155 199 249 313 370
#     4  10  23  39  64  85 125 158 198 257 310 368
#     4  10  19  36  58  84 122 164 207 259 313 364
#     4  12  28  42  64  88 122 166 208 258 304 378
#     4  11  24  42  59  91 120 160 206 253 310 370
#
# _framework density 22.305221
#
# number of rings (size 3 to 8) (size 9 to 14) (size 15 to 20)
#    0.000    2.207    0.690    1.655    2.897    2.483 
#    1.241    3.448    0.000    2.483    0.000    2.897 
#    0.000    0.000    0.000    0.000    0.000    0.000 
#
# Total GULP energy -323317.413341 kJ/mol
# GULP energy per Si atom -5574.438161 kJ/mol
# Density = 2.225445 g / cm^3
# Si number density = 22.305221 Si / 1000 Ang^3
#
#
#
# Elastic Constant Matrix: (Units=GPa)
#
#
# Indices 1 2 3 4 5 6 
#
# 1 58.1735 -0.9583 -6.6920 0.0000 0.0000 0.0000
# 2 -0.9583 137.5345 35.0013 0.0000 0.0000 0.0000
# 3 -6.6920 35.0013 105.6451 0.0000 0.0000 0.0000
# 4 0.0000 0.0000 0.0000 1.5235 0.0000 0.0000
# 5 0.0000 0.0000 0.0000 0.0000 9.3954 0.0000
# 6 0.0000 0.0000 0.0000 0.0000 0.0000 607.1907
#
#
#
# Elastic Compliance Matrix: (Units=1/GPa)
#
#
# Indices 1 2 3 4 5 6 
#
# 1 0.017320 -0.000173 0.001154 0.000000 0.000000 0.000000
# 2 -0.000173 0.007942 -0.002642 0.000000 0.000000 0.000000
# 3 0.001154 -0.002642 0.010414 0.000000 0.000000 0.000000
# 4 0.000000 0.000000 0.000000 0.656374 0.000000 0.000000
# 5 0.000000 0.000000 0.000000 0.000000 0.106435 0.000000
# 6 0.000000 0.000000 0.000000 0.000000 0.000000 0.001647
#
#
# Mechanical properties :
#
#
# Convention : Reuss Voigt Hill
#
# Bulk Modulus (GPa) = 30.90771 39.56166 35.23469
# Shear Modulus (GPa) = 6.14070 141.88874 74.01472
#
# Velocity S-wave (km/s) = 1.66103 7.98439 5.76669
# Velocity P-wave (km/s) = 4.19112 10.13783 7.75697
#
# Compressibility (1/GPa) = 0.03235439
#
# Stress axis : x y z
#
# Youngs Moduli (GPa) = 57.73705 125.91080 96.02279
#
# Poissons Ratio (x) = 0.02180 -0.11086
# Poissons Ratio (y) = 0.01000 0.25372
# Poissons Ratio (z) = -0.06666 0.33269
#
# Static dielectric constant tensor:
#      x y z
#    x 1.871780 0.000000 0.000000 
#    y 0.000000 1.814330 0.000000 
#    z 0.000000 0.000000 1.854780 
# 
# From -- ./inp_files/20083.got.cif
#   From: 2010.05.17/outbox.cif.g08.bks.cpg/sg67_11_cif.got.tgz:20083.got - 2010.06.03 18:28:57.
