data_PCOD9501374
_publ_section_title
;
Structure prediction by ZEFSAII (Michael W. Deem and Ramdas Pophale) SiO2 
 PCOD9501374
Probable space group: C M M A
;
_chemical_formula_sum "Si O2"
_cell_formula_units_Z 96
_cell_length_a 8.889528
_cell_length_b 26.055224
_cell_length_c 25.751087
_cell_angle_alpha 90.000000
_cell_angle_beta 90.000000
_cell_angle_gamma 90.000000
_cell_volume 5964.431834
_symmetry_space_group_name_H-M "C M M A"
_symmetry_group_IT_number 67
_symmetry_cell_setting 'orthorhombic'
loop_
_space_group_symop_operation_xyz
x,y,z
-x,1/2-y,z
x,-y,-z
-x,1/2+y,-z
-x,-y,-z
x,1/2+y,-z
-x,y,z
x,1/2-y,z
1/2+x,1/2+y,z
1/2-x,-y,z
1/2+x,1/2-y,-z
1/2-x,y,-z
1/2-x,1/2-y,-z
1/2+x,y,-z
1/2-x,1/2+y,z
1/2+x,-y,z
loop_
_atom_site_type_symbol
_atom_site_label
_atom_site_fract_x
_atom_site_fract_y
_atom_site_fract_z
Si Si1 0.181387 0.555545 0.555868
Si Si2 0.325780 0.250000 0.240823
Si Si3 0.819239 0.358120 0.242591
Si Si4 0.819852 0.356082 0.363668
Si Si5 0.820759 0.057036 0.948784
Si Si6 0.680264 0.442872 0.167777
Si Si7 0.672169 0.750000 0.633049
O O1 0.250000 0.500000 0.568801
O O2 0.250000 0.570203 0.500000
O O3 0.222607 0.596991 0.599398
O O4 0.000000 0.552091 0.552233
O O5 0.500000 0.250000 0.224448
O O6 0.243891 0.197381 0.225057
O O7 0.322431 0.250000 0.303874
O O8 0.776129 0.364694 0.303458
O O9 0.749989 0.403714 0.208797
O O10 0.000000 0.358439 0.239059
O O11 0.751513 0.302536 0.382958
O O12 0.000000 0.351378 0.364360
O O13 0.789095 0.077526 0.891010
O O14 0.000000 0.053593 0.955296
O O15 0.750000 0.000000 0.947204
O O16 0.750000 0.082823 0.000000
O O17 0.500000 0.446502 0.173770
O O18 0.750000 0.500000 0.172864
O O19 0.500000 0.750000 0.616421
#
# Coordination Sequence:
#
# PCOD9501374 Si02
#       7
#    16   8  16  16  16  16   8
#     4  10  20  35  53  72  94 123 158 196 234 275
#     4   9  17  31  49  70  95 124 159 198 235 276
#     4  10  19  32  50  72  97 127 160 195 236 283
#     4   9  19  34  51  71  97 126 155 190 236 283
#     4   9  16  26  42  62  87 120 158 195 233 276
#     4  10  20  32  45  67  99 131 160 196 239 283
#     4   9  17  29  50  76  97 120 153 192 233 276
#
# _framework density 16.095414000000002
#
# number of rings (size 3 to 8) (size 9 to 14) (size 15 to 20)
#    0.000    2.500    0.000    3.500    0.000    6.667 
#    0.000    2.083    0.000    0.000    0.000    0.583 
#    0.000    0.000    0.000    0.000    0.000    0.000 
#
# Total GULP energy -267461.498923 kJ/mol
# GULP energy per Si atom -5572.114561 kJ/mol
# Density = 1.605878 g / cm^3
# Si number density = 16.095414 Si / 1000 Ang^3
#
#
#
# Elastic Constant Matrix: (Units=GPa)
#
#
# Indices 1 2 3 4 5 6 
#
# 1 67.8381 52.6927 51.0332 0.0000 0.0000 0.0000
# 2 52.6927 113.7255 83.9054 0.0000 0.0000 0.0000
# 3 51.0332 83.9054 97.8710 0.0000 0.0000 0.0000
# 4 0.0000 0.0000 0.0000 -3.5778 0.0000 0.0000
# 5 0.0000 0.0000 0.0000 0.0000 42.4741 0.0000
# 6 0.0000 0.0000 0.0000 0.0000 0.0000 28.4023
#
#
#
# Elastic Compliance Matrix: (Units=1/GPa)
#
#
# Indices 1 2 3 4 5 6 
#
# 1 0.025436 -0.005442 -0.008598 0.000000 0.000000 0.000000
# 2 -0.005442 0.025092 -0.018674 0.000000 0.000000 0.000000
# 3 -0.008598 -0.018674 0.030710 0.000000 0.000000 0.000000
# 4 0.000000 0.000000 0.000000 -0.279503 0.000000 0.000000
# 5 0.000000 0.000000 0.000000 0.000000 0.023544 0.000000
# 6 0.000000 0.000000 0.000000 0.000000 0.000000 0.035208
#
#
# Mechanical properties :
#
#
# Convention : Reuss Voigt Hill
#
# Bulk Modulus (GPa) = 63.24848 72.74411 67.99630
# Shear Modulus (GPa) = -72.65740 19.57994 -26.53873
#
# Velocity S-wave (km/s) = -6.72604 3.49161 -4.06499
# Velocity P-wave (km/s) = 4.57584 7.84530 4.50613
#
# Compressibility (1/GPa) = 0.01581066
#
# Stress axis : x y z
#
# Youngs Moduli (GPa) = 39.31459 39.85360 32.56296
#
# Poissons Ratio (x) = 0.21688 0.27996
# Poissons Ratio (y) = 0.21395 0.60807
# Poissons Ratio (z) = 0.33801 0.74422
#
# Static dielectric constant tensor:
#      x y z
#    x 1.539290 0.000000 0.000000 
#    y 0.000000 1.509330 0.000000 
#    z 0.000000 0.000000 1.560880 
# 
# From -- ./inp_files/40809.got.cif
#   From: 2010.05.17/outbox.cif.g08.bks.cpg/sg67_21_cif.got.tgz:40809.got - 2010.06.03 18:28:57.
