data_PCOD9501282
_publ_section_title
;
Structure prediction by ZEFSAII (Michael W. Deem and Ramdas Pophale) SiO2 
 PCOD9501282
Probable space group: C M M A
;
_chemical_formula_sum "Si O2"
_cell_formula_units_Z 120
_cell_length_a 21.273709
_cell_length_b 21.847698
_cell_length_c 11.409993
_cell_angle_alpha 90.000000
_cell_angle_beta 90.000000
_cell_angle_gamma 90.000000
_cell_volume 5303.154455
_symmetry_space_group_name_H-M "C M M A"
_symmetry_group_IT_number 67
_symmetry_cell_setting 'orthorhombic'
loop_
_space_group_symop_operation_xyz
x,y,z
-x,1/2-y,z
x,-y,-z
-x,1/2+y,-z
-x,-y,-z
x,1/2+y,-z
-x,y,z
x,1/2-y,z
1/2+x,1/2+y,z
1/2-x,-y,z
1/2+x,1/2-y,-z
1/2-x,y,-z
1/2-x,1/2-y,-z
1/2+x,y,-z
1/2-x,1/2+y,z
1/2+x,-y,z
loop_
_atom_site_type_symbol
_atom_site_label
_atom_site_fract_x
_atom_site_fract_y
_atom_site_fract_z
Si Si1 0.830739 0.916378 0.291213
Si Si2 0.927370 0.991881 0.641163
Si Si3 0.842640 0.315180 0.392441
Si Si4 0.071712 0.319175 0.607613
Si Si5 0.568240 0.679557 0.984501
Si Si6 0.206929 0.820384 0.116203
Si Si7 0.930711 0.861811 0.767858
Si Si8 0.250000 0.412615 0.500000
O O1 0.880818 0.970455 0.273591
O O2 0.876986 0.862490 0.335506
O O3 0.786248 0.879762 0.200552
O O4 0.789319 0.943067 0.397734
O O5 0.000000 0.012101 0.653096
O O6 0.912974 0.000000 0.500000
O O7 0.924731 0.922689 0.689168
O O8 0.810758 0.250000 0.410126
O O9 0.904783 0.316330 0.473813
O O10 0.870238 0.322127 0.264167
O O11 0.798228 0.368761 0.432156
O O12 0.075290 0.250000 0.655752
O O13 0.000000 0.340257 0.614930
O O14 0.500000 0.671221 0.922335
O O15 0.567248 0.750000 0.030032
O O16 0.570521 0.632404 0.092212
O O17 0.632679 0.675054 0.914907
O O18 0.217517 0.750000 0.162596
O O19 0.250000 0.825834 0.000000
O O20 0.000000 0.834890 0.742910
#
# Coordination Sequence:
#
# PCOD9501282 Si02
#       8
#    16  16  16  16  16  16  16   8
#     4  11  22  39  60  86 120 165 212 253 309 376
#     4  10  21  39  63  92 126 164 209 262 323 388
#     4  10  19  31  50  78 116 157 197 245 305 371
#     4   9  17  29  48  79 115 146 184 242 310 375
#     4   9  19  37  62  93 124 157 206 265 324 386
#     4  10  23  42  65  92 129 171 212 262 327 396
#     4  10  20  35  58  87 117 155 202 255 313 372
#     4  10  23  36  53  84 122 160 206 256 304 372
#
# _framework density 22.628042000000001
#
# number of rings (size 3 to 8) (size 9 to 14) (size 15 to 20)
#    0.000    2.133    0.000    3.400    1.867    5.067 
#    0.000    5.000    0.000    3.200    0.000    0.000 
#    0.000    0.000    0.000    0.000    0.000    0.000 
#
# Total GULP energy -334454.092694 kJ/mol
# GULP energy per Si atom -5574.234878 kJ/mol
# Density = 2.257654 g / cm^3
# Si number density = 22.628042 Si / 1000 Ang^3
#
#
#
# Elastic Constant Matrix: (Units=GPa)
#
#
# Indices 1 2 3 4 5 6 
#
# 1 92.4915 20.0124 28.2765 0.0000 0.0000 0.0000
# 2 20.0124 63.7079 10.1971 0.0000 0.0000 0.0000
# 3 28.2765 10.1971 53.4455 0.0000 0.0000 0.0000
# 4 0.0000 0.0000 0.0000 21.7508 0.0000 0.0000
# 5 0.0000 0.0000 0.0000 0.0000 31.3524 0.0000
# 6 0.0000 0.0000 0.0000 0.0000 0.0000 45.3660
#
#
#
# Elastic Compliance Matrix: (Units=1/GPa)
#
#
# Indices 1 2 3 4 5 6 
#
# 1 0.013500 -0.003195 -0.006533 0.000000 0.000000 0.000000
# 2 -0.003195 0.016947 -0.001543 0.000000 0.000000 0.000000
# 3 -0.006533 -0.001543 0.022462 0.000000 0.000000 0.000000
# 4 0.000000 0.000000 0.000000 0.045975 0.000000 0.000000
# 5 0.000000 0.000000 0.000000 0.000000 0.031895 0.000000
# 6 0.000000 0.000000 0.000000 0.000000 0.000000 0.022043
#
#
# Mechanical properties :
#
#
# Convention : Reuss Voigt Hill
#
# Bulk Modulus (GPa) = 32.93070 36.29077 34.61074
# Shear Modulus (GPa) = 26.95595 29.77109 28.36352
#
# Velocity S-wave (km/s) = 3.45521 3.63116 3.54428
# Velocity P-wave (km/s) = 5.52292 5.80113 5.66374
#
# Compressibility (1/GPa) = 0.03036680
#
# Stress axis : x y z
#
# Youngs Moduli (GPa) = 74.07163 59.00640 44.52059
#
# Poissons Ratio (x) = 0.18854 0.29086
# Poissons Ratio (y) = 0.23667 0.06869
# Poissons Ratio (z) = 0.48392 0.09105
#
# Static dielectric constant tensor:
#      x y z
#    x 1.849310 0.000000 0.000000 
#    y 0.000000 1.910260 0.000000 
#    z 0.000000 0.000000 1.913620 
# 
# From -- ./inp_files/21154.got.cif
#   From: 2010.05.17/outbox.cif.g08.bks.cpg/sg67_11_cif.got.tgz:21154.got - 2010.06.03 18:28:57.
