data_PCOD9501245
_publ_section_title
;
Structure prediction by ZEFSAII (Michael W. Deem and Ramdas Pophale) SiO2 
 PCOD9501245
Probable space group: C M M A
;
_chemical_formula_sum "Si O2"
_cell_formula_units_Z 96
_cell_length_a 8.970749
_cell_length_b 31.752507
_cell_length_c 19.928886
_cell_angle_alpha 90.000000
_cell_angle_beta 90.000000
_cell_angle_gamma 90.000000
_cell_volume 5676.619028
_symmetry_space_group_name_H-M "C M M A"
_symmetry_group_IT_number 67
_symmetry_cell_setting 'orthorhombic'
loop_
_space_group_symop_operation_xyz
x,y,z
-x,1/2-y,z
x,-y,-z
-x,1/2+y,-z
-x,-y,-z
x,1/2+y,-z
-x,y,z
x,1/2-y,z
1/2+x,1/2+y,z
1/2-x,-y,z
1/2+x,1/2-y,-z
1/2-x,y,-z
1/2-x,1/2-y,-z
1/2+x,y,-z
1/2-x,1/2+y,z
1/2+x,-y,z
loop_
_atom_site_type_symbol
_atom_site_label
_atom_site_fract_x
_atom_site_fract_y
_atom_site_fract_z
Si Si1 0.820671 0.130622 0.179084
Si Si2 0.319439 0.865120 0.673875
Si Si3 0.329425 0.042274 0.336046
Si Si4 0.322749 0.299541 0.572645
Si Si5 0.172527 0.956900 0.172595
Si Si6 0.320842 0.701928 0.072156
O O1 0.746490 0.138824 0.251375
O O2 0.760536 0.085397 0.154034
O O3 0.779069 0.167681 0.127732
O O4 0.000000 0.129131 0.186001
O O5 0.500000 0.864859 0.676851
O O6 0.270489 0.911327 0.646297
O O7 0.256554 0.828724 0.627034
O O8 0.500000 0.040032 0.357546
O O9 0.325835 0.041863 0.254359
O O10 0.250000 0.000000 0.359766
O O11 0.500000 0.307678 0.570631
O O12 0.301371 0.250000 0.588356
O O13 0.250000 0.307276 0.500000
O O14 0.000000 0.954818 0.151894
O O15 0.250000 0.000000 0.149286
O O16 0.500000 0.700846 0.065836
O O17 0.278096 0.750000 0.090800
O O18 0.250000 0.692535 0.000000
#
# Coordination Sequence:
#
# PCOD9501245 Si02
#       6
#    16  16  16  16  16  16
#     4  10  19  31  49  75 105 134 166 207 253 297
#     4  10  20  33  50  76 106 134 168 208 249 294
#     4   8  15  26  42  66  96 128 161 197 237 284
#     4  10  21  37  56  76  99 131 169 207 251 304
#     4   9  16  27  44  68  98 131 166 203 246 296
#     4   9  19  35  53  72  96 129 168 207 249 301
#
# _framework density 16.911473999999998
#
# number of rings (size 3 to 8) (size 9 to 14) (size 15 to 20)
#    0.000    2.667    0.000    3.000    0.000    7.667 
#    0.000    1.667    0.000    1.000    0.000    7.000 
#    0.000    0.000    0.000    0.000    0.000    0.000 
#
# Total GULP energy -267488.993619 kJ/mol
# GULP energy per Si atom -5572.687367 kJ/mol
# Density = 1.687298 g / cm^3
# Si number density = 16.911474 Si / 1000 Ang^3
#
#
#
# Elastic Constant Matrix: (Units=GPa)
#
#
# Indices 1 2 3 4 5 6 
#
# 1 80.1778 74.2065 42.1304 0.0000 0.0000 0.0000
# 2 74.2065 159.7564 84.9007 0.0000 0.0000 0.0000
# 3 42.1304 84.9007 62.7837 0.0000 0.0000 0.0000
# 4 0.0000 0.0000 0.0000 -10.3076 0.0000 0.0000
# 5 0.0000 0.0000 0.0000 0.0000 21.6795 0.0000
# 6 0.0000 0.0000 0.0000 0.0000 0.0000 32.6774
#
#
#
# Elastic Compliance Matrix: (Units=1/GPa)
#
#
# Indices 1 2 3 4 5 6 
#
# 1 0.022076 -0.008465 -0.003367 0.000000 0.000000 0.000000
# 2 -0.008465 0.025494 -0.028795 0.000000 0.000000 0.000000
# 3 -0.003367 -0.028795 0.057125 0.000000 0.000000 0.000000
# 4 0.000000 0.000000 0.000000 -0.097016 0.000000 0.000000
# 5 0.000000 0.000000 0.000000 0.000000 0.046127 0.000000
# 6 0.000000 0.000000 0.000000 0.000000 0.000000 0.030602
#
#
# Mechanical properties :
#
#
# Convention : Reuss Voigt Hill
#
# Bulk Modulus (GPa) = 42.65812 78.35479 60.50645
# Shear Modulus (GPa) = 28.82261 15.57522 22.19891
#
# Velocity S-wave (km/s) = 4.13282 3.03807 3.62699
# Velocity P-wave (km/s) = 6.93201 7.66416 7.30726
#
# Compressibility (1/GPa) = 0.02344220
#
# Stress axis : x y z
#
# Youngs Moduli (GPa) = 45.29811 39.22501 17.50542
#
# Poissons Ratio (x) = 0.33203 0.05894
# Poissons Ratio (y) = 0.38344 0.50406
# Poissons Ratio (z) = 0.15252 1.12946
#
# Static dielectric constant tensor:
#      x y z
#    x 1.571000 0.000000 0.000000 
#    y 0.000000 1.589580 0.000000 
#    z 0.000000 0.000000 1.534830 
# 
# From -- ./inp_files/37198.got.cif
#   From: 2010.05.17/outbox.cif.g08.bks.cpg/sg67_19_cif.got.tgz:37198.got - 2010.06.03 18:28:57.
