data_PCOD9501491
_publ_section_title
;
Structure prediction by ZEFSAII (Michael W. Deem and Ramdas Pophale) SiO2 
 PCOD9501491
Probable space group: C M M A
;
_chemical_formula_sum "Si O2"
_cell_formula_units_Z 80
_cell_length_a 16.209169
_cell_length_b 20.933811
_cell_length_c 12.967375
_cell_angle_alpha 90.000000
_cell_angle_beta 90.000000
_cell_angle_gamma 90.000000
_cell_volume 4400.085539
_symmetry_space_group_name_H-M "C M M A"
_symmetry_group_IT_number 67
_symmetry_cell_setting 'orthorhombic'
loop_
_space_group_symop_operation_xyz
x,y,z
-x,1/2-y,z
x,-y,-z
-x,1/2+y,-z
-x,-y,-z
x,1/2+y,-z
-x,y,z
x,1/2-y,z
1/2+x,1/2+y,z
1/2-x,-y,z
1/2+x,1/2-y,-z
1/2-x,y,-z
1/2-x,1/2-y,-z
1/2+x,y,-z
1/2-x,1/2+y,z
1/2+x,-y,z
loop_
_atom_site_type_symbol
_atom_site_label
_atom_site_fract_x
_atom_site_fract_y
_atom_site_fract_z
Si Si1 0.098298 0.596882 0.802907
Si Si2 0.098656 0.178554 0.386414
Si Si3 0.155034 0.069143 0.535676
Si Si4 0.347786 0.427404 0.017297
Si Si5 0.599832 0.950442 0.762479
O O1 0.131519 0.646513 0.719164
O O2 0.127814 0.524732 0.777047
O O3 0.000000 0.594467 0.791769
O O4 0.117176 0.612294 0.921685
O O5 0.131525 0.250000 0.403821
O O6 0.115223 0.128453 0.476887
O O7 0.000000 0.183457 0.375939
O O8 0.250000 0.069144 0.500000
O O9 0.140706 0.073767 0.657548
O O10 0.119501 0.000000 0.500000
O O11 0.372236 0.413092 0.134471
O O12 0.380462 0.500000 0.000000
O O13 0.250000 0.428191 0.000000
O O14 0.500000 0.948650 0.754425
#
# Coordination Sequence:
#
# PCOD9501491 Si02
#       5
#    16  16  16  16  16
#     4   9  17  31  52  76 106 139 177 222 271 327
#     4  10  21  37  57  79 107 148 190 226 271 330
#     4  11  23  34  55  82 114 146 185 230 282 330
#     4   9  18  28  49  77 111 140 171 218 278 331
#     4  10  19  32  52  80 111 143 179 226 282 331
#
# _framework density 18.181463999999998
#
# number of rings (size 3 to 8) (size 9 to 14) (size 15 to 20)
#    0.000    2.200    2.000    1.200    2.800    5.200 
#    0.000    0.000    0.000    1.800    0.000    2.800 
#    0.000    0.000    0.000    0.000    0.000    0.000 
#
# Total GULP energy -222950.625762 kJ/mol
# GULP energy per Si atom -5573.765644 kJ/mol
# Density = 1.814008 g / cm^3
# Si number density = 18.181464 Si / 1000 Ang^3
#
#
#
# Elastic Constant Matrix: (Units=GPa)
#
#
# Indices 1 2 3 4 5 6 
#
# 1 34.1507 12.3646 29.3025 0.0000 0.0000 0.0000
# 2 12.3646 96.2074 64.0014 0.0000 0.0000 0.0000
# 3 29.3025 64.0014 206.1064 0.0000 0.0000 0.0000
# 4 0.0000 0.0000 0.0000 -35.4316 0.0000 0.0000
# 5 0.0000 0.0000 0.0000 0.0000 26.1916 0.0000
# 6 0.0000 0.0000 0.0000 0.0000 0.0000 13.0472
#
#
#
# Elastic Compliance Matrix: (Units=1/GPa)
#
#
# Indices 1 2 3 4 5 6 
#
# 1 0.033506 -0.001433 -0.004319 0.000000 0.000000 0.000000
# 2 -0.001433 0.013162 -0.003883 0.000000 0.000000 0.000000
# 3 -0.004319 -0.003883 0.006672 0.000000 0.000000 0.000000
# 4 0.000000 0.000000 0.000000 -0.028223 0.000000 0.000000
# 5 0.000000 0.000000 0.000000 0.000000 0.038180 0.000000
# 6 0.000000 0.000000 0.000000 0.000000 0.000000 0.076645
#
#
# Mechanical properties :
#
#
# Convention : Reuss Voigt Hill
#
# Bulk Modulus (GPa) = 29.35183 60.86686 45.10934
# Shear Modulus (GPa) = 29.31372 16.14782 22.73077
#
# Velocity S-wave (km/s) = 4.01968 2.98341 3.53968
# Velocity P-wave (km/s) = 6.14188 6.73927 6.44750
#
# Compressibility (1/GPa) = 0.03406943
#
# Stress axis : x y z
#
# Youngs Moduli (GPa) = 29.84506 75.97763 149.88672
#
# Poissons Ratio (x) = 0.10890 0.64730
# Poissons Ratio (y) = 0.04278 0.58205
# Poissons Ratio (z) = 0.12889 0.29504
#
# Static dielectric constant tensor:
#      x y z
#    x 1.668940 0.000000 0.000000 
#    y 0.000000 1.631950 0.000000 
#    z 0.000000 0.000000 1.661450 
# 
# From -- ./inp_files/17926.got.cif
#   From: 2010.05.17/outbox.cif.g08.bks.cpg/sg67_9_cif.got.tgz:17926.got - 2010.06.03 18:28:57.
