data_PCOD9501696
_publ_section_title
;
Structure prediction by ZEFSAII (Michael W. Deem and Ramdas Pophale) SiO2 
 PCOD9501696
Probable space group: C M M A
;
_chemical_formula_sum "Si O2"
_cell_formula_units_Z 116
_cell_length_a 26.207316
_cell_length_b 8.580450
_cell_length_c 26.170385
_cell_angle_alpha 90.000000
_cell_angle_beta 90.000000
_cell_angle_gamma 90.000000
_cell_volume 5884.949250
_symmetry_space_group_name_H-M "C M M A"
_symmetry_group_IT_number 67
_symmetry_cell_setting 'orthorhombic'
loop_
_space_group_symop_operation_xyz
x,y,z
-x,1/2-y,z
x,-y,-z
-x,1/2+y,-z
-x,-y,-z
x,1/2+y,-z
-x,y,z
x,1/2-y,z
1/2+x,1/2+y,z
1/2-x,-y,z
1/2+x,1/2-y,-z
1/2-x,y,-z
1/2-x,1/2-y,-z
1/2+x,y,-z
1/2-x,1/2+y,z
1/2+x,-y,z
loop_
_atom_site_type_symbol
_atom_site_label
_atom_site_fract_x
_atom_site_fract_y
_atom_site_fract_z
Si Si1 0.944505 0.937928 0.942241
Si Si2 0.407550 0.065227 0.659260
Si Si3 0.161970 0.435452 0.810534
Si Si4 0.938871 0.923970 0.447610
Si Si5 0.557158 0.561416 0.228949
Si Si6 0.196396 0.564426 0.302672
Si Si7 0.750000 0.000000 0.000000
Si Si8 0.328734 0.936865 0.083069
O O1 0.944662 0.750000 0.941509
O O2 0.888760 0.981900 0.921088
O O3 0.000000 0.987665 0.919422
O O4 0.944643 0.000000 0.000000
O O5 0.409411 0.250000 0.659885
O O6 0.436503 0.014204 0.711277
O O7 0.428433 0.009146 0.605397
O O8 0.350264 0.006365 0.666388
O O9 0.166367 0.250000 0.818361
O O10 0.102634 0.482159 0.802054
O O11 0.188017 0.479729 0.756876
O O12 0.184610 0.526766 0.858529
O O13 0.918177 0.750000 0.443472
O O14 0.000000 0.916595 0.452670
O O15 0.919215 0.000000 0.500000
O O16 0.500000 0.522980 0.211888
O O17 0.563293 0.750000 0.225251
O O18 0.194589 0.750000 0.305565
O O19 0.250000 0.500000 0.320663
O O20 0.793768 0.034670 0.956222
O O21 0.322357 0.750000 0.071447
#
# Coordination Sequence:
#
# PCOD9501696 Si02
#       8
#    16  16  16  16  16  16   4  16
#     4   9  18  35  58  81 104 133 170 213 260 314
#     4  10  19  33  55  83 115 153 196 242 292 346
#     4  10  23  39  57  84 115 145 184 230 277 333
#     4  10  20  33  51  79 117 160 203 246 291 341
#     4   9  18  34  57  85 118 155 192 230 280 342
#     4  10  21  38  58  82 110 144 187 237 289 342
#     4  12  26  44  62  90 110 148 188 232 276 340
#     4  11  24  41  61  85 114 146 183 227 279 339
#
# _framework density 19.711300999999999
#
# number of rings (size 3 to 8) (size 9 to 14) (size 15 to 20)
#    0.000    2.069    0.690    2.276    0.966    6.069 
#    0.000    1.379    0.000    0.414    0.000    2.897 
#    0.000    0.000    0.000    0.000    0.000    0.000 
#
# Total GULP energy -323252.464937 kJ/mol
# GULP energy per Si atom -5573.318361 kJ/mol
# Density = 1.966644 g / cm^3
# Si number density = 19.711301 Si / 1000 Ang^3
#
#
#
# Elastic Constant Matrix: (Units=GPa)
#
#
# Indices 1 2 3 4 5 6 
#
# 1 75.5118 5.5165 8.8211 0.0000 0.0000 0.0000
# 2 5.5165 17.3055 15.0987 0.0000 0.0000 0.0000
# 3 8.8211 15.0987 88.0263 0.0000 0.0000 0.0000
# 4 0.0000 0.0000 0.0000 15.2895 0.0000 0.0000
# 5 0.0000 0.0000 0.0000 0.0000 -26.2116 0.0000
# 6 0.0000 0.0000 0.0000 0.0000 0.0000 12.5919
#
#
#
# Elastic Compliance Matrix: (Units=1/GPa)
#
#
# Indices 1 2 3 4 5 6 
#
# 1 0.013598 -0.003699 -0.000728 0.000000 0.000000 0.000000
# 2 -0.003699 0.068961 -0.011458 0.000000 0.000000 0.000000
# 3 -0.000728 -0.011458 0.013399 0.000000 0.000000 0.000000
# 4 0.000000 0.000000 0.000000 0.065404 0.000000 0.000000
# 5 0.000000 0.000000 0.000000 0.000000 -0.038151 0.000000
# 6 0.000000 0.000000 0.000000 0.000000 0.000000 0.079416
#
#
# Mechanical properties :
#
#
# Convention : Reuss Voigt Hill
#
# Bulk Modulus (GPa) = 15.57947 26.63512 21.10729
# Shear Modulus (GPa) = 19.54702 10.42780 14.98741
#
# Velocity S-wave (km/s) = 3.15249 2.30255 2.76043
# Velocity P-wave (km/s) = 4.60129 4.53993 4.57071
#
# Compressibility (1/GPa) = 0.06418704
#
# Stress axis : x y z
#
# Youngs Moduli (GPa) = 73.53867 14.50095 74.63515
#
# Poissons Ratio (x) = 0.05365 0.05434
# Poissons Ratio (y) = 0.27205 0.85516
# Poissons Ratio (z) = 0.05355 0.16615
#
# Static dielectric constant tensor:
#      x y z
#    x 1.709580 0.000000 0.000000 
#    y 0.000000 1.699890 0.000000 
#    z 0.000000 0.000000 1.666040 
# 
# From -- ./inp_files/42857.got.cif
#   From: 2010.05.17/outbox.cif.g08.bks.cpg/sg67_22_cif.got.tgz:42857.got - 2010.06.03 18:28:57.
