data_PCOD9501421
_publ_section_title
;
Structure prediction by ZEFSAII (Michael W. Deem and Ramdas Pophale) SiO2 
 PCOD9501421
Probable space group: C M M A
;
_chemical_formula_sum "Si O2"
_cell_formula_units_Z 88
_cell_length_a 16.081149
_cell_length_b 19.137072
_cell_length_c 15.710476
_cell_angle_alpha 90.000000
_cell_angle_beta 90.000000
_cell_angle_gamma 90.000000
_cell_volume 4834.837816
_symmetry_space_group_name_H-M "C M M A"
_symmetry_group_IT_number 67
_symmetry_cell_setting 'orthorhombic'
loop_
_space_group_symop_operation_xyz
x,y,z
-x,1/2-y,z
x,-y,-z
-x,1/2+y,-z
-x,-y,-z
x,1/2+y,-z
-x,y,z
x,1/2-y,z
1/2+x,1/2+y,z
1/2-x,-y,z
1/2+x,1/2-y,-z
1/2-x,y,-z
1/2-x,1/2-y,-z
1/2+x,y,-z
1/2-x,1/2+y,z
1/2+x,-y,z
loop_
_atom_site_type_symbol
_atom_site_label
_atom_site_fract_x
_atom_site_fract_y
_atom_site_fract_z
Si Si1 0.596166 0.670603 0.696627
Si Si2 0.787833 0.250000 0.592650
Si Si3 0.601356 0.541289 0.812750
Si Si4 0.185908 0.750000 0.764159
Si Si5 0.186744 0.750000 0.079548
Si Si6 0.899411 0.611016 0.825927
Si Si7 0.100000 0.112016 0.978147
O O1 0.500000 0.656614 0.675516
O O2 0.596629 0.750000 0.736306
O O3 0.653024 0.683549 0.614163
O O4 0.627585 0.607389 0.755459
O O5 0.750000 0.250000 0.500000
O O6 0.721556 0.250000 0.669196
O O7 0.500000 0.542886 0.811793
O O8 0.627147 0.463466 0.786435
O O9 0.626654 0.552941 0.911157
O O10 0.258123 0.750000 0.835758
O O11 0.134638 0.820391 0.781045
O O12 0.129556 0.817341 0.066709
O O13 0.250000 0.750000 0.000000
O O14 0.000000 0.613527 0.825905
O O15 0.870291 0.611155 0.924768
O O16 0.000000 0.109486 0.982483
#
# Coordination Sequence:
#
# PCOD9501421 Si02
#       7
#    16   8  16   8   8  16  16
#     4   8  16  34  59  85 107 131 173 226 272 316
#     4  10  21  38  60  84 109 139 172 225 275 330
#     4   9  17  30  55  82 105 139 187 233 264 300
#     4  12  23  37  54  74 109 148 183 221 274 332
#     4  12  21  33  49  76 112 146 176 224 267 314
#     4  10  20  35  51  75 110 150 188 220 258 317
#     4  10  19  32  51  74 104 147 191 225 261 310
#
# _framework density 18.201232000000001
#
# number of rings (size 3 to 8) (size 9 to 14) (size 15 to 20)
#    0.545    1.636    1.818    2.182    1.273    3.636 
#    0.000    5.455    0.000    2.182    0.000    3.818 
#    0.000    0.000    0.000    0.000    0.000    0.000 
#
# Total GULP energy -245133.929193 kJ/mol
# GULP energy per Si atom -5571.225663 kJ/mol
# Density = 1.815981 g / cm^3
# Si number density = 18.201232 Si / 1000 Ang^3
#
#
#
# Elastic Constant Matrix: (Units=GPa)
#
#
# Indices 1 2 3 4 5 6 
#
# 1 27.0755 21.9213 39.8629 0.0000 0.0000 0.0000
# 2 21.9213 131.5926 50.6720 0.0000 0.0000 0.0000
# 3 39.8629 50.6720 120.5397 0.0000 0.0000 0.0000
# 4 0.0000 0.0000 0.0000 12.8416 0.0000 0.0000
# 5 0.0000 0.0000 0.0000 0.0000 25.7012 0.0000
# 6 0.0000 0.0000 0.0000 0.0000 0.0000 1.5671
#
#
#
# Elastic Compliance Matrix: (Units=1/GPa)
#
#
# Indices 1 2 3 4 5 6 
#
# 1 0.073255 -0.003430 -0.022784 0.000000 0.000000 0.000000
# 2 -0.003430 0.009227 -0.002745 0.000000 0.000000 0.000000
# 3 -0.022784 -0.002745 0.016985 0.000000 0.000000 0.000000
# 4 0.000000 0.000000 0.000000 0.077872 0.000000 0.000000
# 5 0.000000 0.000000 0.000000 0.000000 0.038909 0.000000
# 6 0.000000 0.000000 0.000000 0.000000 0.000000 0.638108
#
#
# Mechanical properties :
#
#
# Convention : Reuss Voigt Hill
#
# Bulk Modulus (GPa) = 24.06725 56.01336 40.04031
# Shear Modulus (GPa) = 5.39885 19.13875 12.26880
#
# Velocity S-wave (km/s) = 1.72413 3.24622 2.59909
# Velocity P-wave (km/s) = 4.14911 6.70014 5.57256
#
# Compressibility (1/GPa) = 0.04155023
#
# Stress axis : x y z
#
# Youngs Moduli (GPa) = 13.65090 108.37189 58.87685
#
# Poissons Ratio (x) = 0.37170 1.34145
# Poissons Ratio (y) = 0.04682 0.16160
# Poissons Ratio (z) = 0.31102 0.29746
#
# Static dielectric constant tensor:
#      x y z
#    x 1.666550 0.000000 0.000000 
#    y 0.000000 1.669930 0.000000 
#    z 0.000000 0.000000 1.604880 
# 
# From -- ./inp_files/28537.got.cif
#   From: 2010.05.17/outbox.cif.g08.bks.cpg/sg67_15_cif.got.tgz:28537.got - 2010.06.03 18:28:57.
