data_PCOD9501044
_publ_section_title
;
Structure prediction by ZEFSAII (Michael W. Deem and Ramdas Pophale) SiO2 
 PCOD9501044
Probable space group: C M M A
;
_chemical_formula_sum "Si O2"
_cell_formula_units_Z 112
_cell_length_a 17.841163
_cell_length_b 17.906399
_cell_length_c 21.316222
_cell_angle_alpha 90.000000
_cell_angle_beta 90.000000
_cell_angle_gamma 90.000000
_cell_volume 6809.914403
_symmetry_space_group_name_H-M "C M M A"
_symmetry_group_IT_number 67
_symmetry_cell_setting 'orthorhombic'
loop_
_space_group_symop_operation_xyz
x,y,z
-x,1/2-y,z
x,-y,-z
-x,1/2+y,-z
-x,-y,-z
x,1/2+y,-z
-x,y,z
x,1/2-y,z
1/2+x,1/2+y,z
1/2-x,-y,z
1/2+x,1/2-y,-z
1/2-x,y,-z
1/2-x,1/2-y,-z
1/2+x,y,-z
1/2-x,1/2+y,z
1/2+x,-y,z
loop_
_atom_site_type_symbol
_atom_site_label
_atom_site_fract_x
_atom_site_fract_y
_atom_site_fract_z
Si Si1 0.910153 0.877642 0.388020
Si Si2 0.089344 0.835371 0.247837
Si Si3 0.811418 0.060514 0.839356
Si Si4 0.211984 0.662189 0.931439
Si Si5 0.166233 0.164964 0.483653
Si Si6 0.911835 0.539064 0.931933
Si Si7 0.085823 0.466915 0.428849
O O1 0.893416 0.839896 0.322125
O O2 0.877778 0.840307 0.450376
O O3 0.000000 0.878810 0.395753
O O4 0.885033 0.964483 0.387631
O O5 0.101335 0.750000 0.226136
O O6 0.141236 0.893559 0.211452
O O7 0.000000 0.852127 0.240501
O O8 0.765710 0.119268 0.882494
O O9 0.750000 0.000000 0.815312
O O10 0.869604 0.014480 0.882644
O O11 0.203358 0.750000 0.916781
O O12 0.133923 0.616715 0.932623
O O13 0.250000 0.655931 0.000000
O O14 0.166364 0.250000 0.461471
O O15 0.250000 0.141055 0.500000
O O16 0.131952 0.108395 0.433639
O O17 0.000000 0.548047 0.917853
O O18 0.905075 0.500000 0.000000
O O19 0.086151 0.500000 0.500000
O O20 0.000000 0.450455 0.411999
#
# Coordination Sequence:
#
# PCOD9501044 Si02
#       7
#    16  16  16  16  16  16  16
#     4   9  18  33  52  71  96 131 168 202 243 300
#     4  10  20  35  55  79 106 134 169 215 259 302
#     4  10  20  34  53  75 104 136 172 207 252 311
#     4  10  19  32  51  73 102 136 168 209 256 304
#     4  10  19  29  43  70 102 130 158 199 250 295
#     4  10  19  32  51  73 101 135 170 211 251 299
#     4   8  15  28  45  66  89 118 159 198 232 282
#
# _framework density 16.446608999999999
#
# number of rings (size 3 to 8) (size 9 to 14) (size 15 to 20)
#    0.000    2.429    1.429    2.571    0.000    4.571 
#    2.571    0.000    0.000    0.000    0.000    0.000 
#    0.000    4.000    0.000    0.000    0.000    0.000 
#
# Total GULP energy -312053.402435 kJ/mol
# GULP energy per Si atom -5572.382186 kJ/mol
# Density = 1.640918 g / cm^3
# Si number density = 16.446609 Si / 1000 Ang^3
#
#
#
# Elastic Constant Matrix: (Units=GPa)
#
#
# Indices 1 2 3 4 5 6 
#
# 1 82.3791 53.1819 20.5080 0.0000 0.0000 0.0000
# 2 53.1819 99.1291 19.9468 0.0000 0.0000 0.0000
# 3 20.5080 19.9468 39.3574 0.0000 0.0000 0.0000
# 4 0.0000 0.0000 0.0000 24.7588 0.0000 0.0000
# 5 0.0000 0.0000 0.0000 0.0000 18.2194 0.0000
# 6 0.0000 0.0000 0.0000 0.0000 0.0000 12.0686
#
#
#
# Elastic Compliance Matrix: (Units=1/GPa)
#
#
# Indices 1 2 3 4 5 6 
#
# 1 0.019559 -0.009401 -0.005427 0.000000 0.000000 0.000000
# 2 -0.009401 0.015752 -0.003085 0.000000 0.000000 0.000000
# 3 -0.005427 -0.003085 0.029799 0.000000 0.000000 0.000000
# 4 0.000000 0.000000 0.000000 0.040390 0.000000 0.000000
# 5 0.000000 0.000000 0.000000 0.000000 0.054887 0.000000
# 6 0.000000 0.000000 0.000000 0.000000 0.000000 0.082860
#
#
# Mechanical properties :
#
#
# Convention : Reuss Voigt Hill
#
# Bulk Modulus (GPa) = 34.14735 45.34877 39.74806
# Shear Modulus (GPa) = 17.31091 19.49127 18.40109
#
# Velocity S-wave (km/s) = 3.24783 3.44630 3.34853
# Velocity P-wave (km/s) = 5.90526 6.59311 6.25864
#
# Compressibility (1/GPa) = 0.02928485
#
# Stress axis : x y z
#
# Youngs Moduli (GPa) = 51.12645 63.48278 33.55766
#
# Poissons Ratio (x) = 0.59683 0.18212
# Poissons Ratio (y) = 0.48066 0.10351
# Poissons Ratio (z) = 0.27747 0.19582
#
# Static dielectric constant tensor:
#      x y z
#    x 1.551940 0.000000 0.000000 
#    y 0.000000 1.575440 0.000000 
#    z 0.000000 0.000000 1.531290 
# 
# From -- ./inp_files/39081.got.cif
#   From: 2010.05.17/outbox.cif.g08.bks.cpg/sg67_20_cif.got.tgz:39081.got - 2010.06.03 18:28:57.
