data_PCOD9501489
_publ_section_title
;
Structure prediction by ZEFSAII (Michael W. Deem and Ramdas Pophale) SiO2 
 PCOD9501489
Probable space group: C M M A
;
_chemical_formula_sum "Si O2"
_cell_formula_units_Z 96
_cell_length_a 29.799074
_cell_length_b 14.611519
_cell_length_c 10.302606
_cell_angle_alpha 90.000000
_cell_angle_beta 90.000000
_cell_angle_gamma 90.000000
_cell_volume 4485.854958
_symmetry_space_group_name_H-M "C M M A"
_symmetry_group_IT_number 67
_symmetry_cell_setting 'orthorhombic'
loop_
_space_group_symop_operation_xyz
x,y,z
-x,1/2-y,z
x,-y,-z
-x,1/2+y,-z
-x,-y,-z
x,1/2+y,-z
-x,y,z
x,1/2-y,z
1/2+x,1/2+y,z
1/2-x,-y,z
1/2+x,1/2-y,-z
1/2-x,y,-z
1/2-x,1/2-y,-z
1/2+x,y,-z
1/2-x,1/2+y,z
1/2+x,-y,z
loop_
_atom_site_type_symbol
_atom_site_label
_atom_site_fract_x
_atom_site_fract_y
_atom_site_fract_z
Si Si1 0.450070 0.857549 0.279879
Si Si2 0.217788 0.138600 0.383046
Si Si3 0.628822 0.858853 0.780884
Si Si4 0.773071 0.137806 0.866804
Si Si5 0.121650 0.862547 0.516042
Si Si6 0.051198 0.391821 0.988969
O O1 0.500000 0.899379 0.278944
O O2 0.454297 0.750000 0.308079
O O3 0.418510 0.895336 0.391982
O O4 0.432450 0.861966 0.132169
O O5 0.216783 0.250000 0.380814
O O6 0.250000 0.111371 0.500000
O O7 0.240477 0.109484 0.249963
O O8 0.167864 0.108261 0.415988
O O9 0.635341 0.750000 0.767687
O O10 0.675911 0.894437 0.840222
O O11 0.620389 0.892345 0.633969
O O12 0.586638 0.871168 0.876374
O O13 0.774455 0.250000 0.868066
O O14 0.750000 0.109015 0.000000
O O15 0.121182 0.750000 0.515930
O O16 0.000000 0.356271 0.967603
O O17 0.048009 0.500000 0.000000
#
# Coordination Sequence:
#
# PCOD9501489 Si02
#       6
#    16  16  16  16  16  16
#     4   9  18  33  53  78 104 130 167 213 260 311
#     4   9  14  24  40  64 105 142 162 194 246 299
#     4  10  19  32  52  80 108 134 172 216 259 309
#     4   9  17  26  41  73 110 138 166 204 248 298
#     4   9  17  28  47  77 109 138 165 205 260 309
#     4  10  22  39  55  72 100 137 175 217 265 315
#
# _framework density 21.400601000000002
#
# number of rings (size 3 to 8) (size 9 to 14) (size 15 to 20)
#    0.000    2.667    1.667    0.500    2.333    1.667 
#    0.000    2.500    0.000    3.500    0.000    0.000 
#    0.000    0.000    0.000    0.000    0.000    0.000 
#
# Total GULP energy -267898.879287 kJ/mol
# GULP energy per Si atom -5581.226652 kJ/mol
# Density = 2.135189 g / cm^3
# Si number density = 21.400601 Si / 1000 Ang^3
#
#
#
# Elastic Constant Matrix: (Units=GPa)
#
#
# Indices 1 2 3 4 5 6 
#
# 1 151.2918 2.1765 138.3028 0.0000 0.0000 0.0000
# 2 2.1765 46.9087 -2.5816 0.0000 0.0000 0.0000
# 3 138.3028 -2.5816 233.8166 0.0000 0.0000 0.0000
# 4 0.0000 0.0000 0.0000 -63.5042 0.0000 0.0000
# 5 0.0000 0.0000 0.0000 0.0000 44.2620 0.0000
# 6 0.0000 0.0000 0.0000 0.0000 0.0000 5.5913
#
#
#
# Elastic Compliance Matrix: (Units=1/GPa)
#
#
# Indices 1 2 3 4 5 6 
#
# 1 0.014452 -0.001142 -0.008561 0.000000 0.000000 0.000000
# 2 -0.001142 0.021421 0.000912 0.000000 0.000000 0.000000
# 3 -0.008561 0.000912 0.009351 0.000000 0.000000 0.000000
# 4 0.000000 0.000000 0.000000 -0.015747 0.000000 0.000000
# 5 0.000000 0.000000 0.000000 0.000000 0.022593 0.000000
# 6 0.000000 0.000000 0.000000 0.000000 0.000000 0.178850
#
#
# Mechanical properties :
#
#
# Convention : Reuss Voigt Hill
#
# Bulk Modulus (GPa) = 36.17652 78.64584 57.41118
# Shear Modulus (GPa) = 19.40117 16.87778 18.13947
#
# Velocity S-wave (km/s) = 3.01420 2.81135 2.91454
# Velocity P-wave (km/s) = 5.39027 6.88240 6.18152
#
# Compressibility (1/GPa) = 0.02764224
#
# Stress axis : x y z
#
# Youngs Moduli (GPa) = 69.19291 46.68284 106.94180
#
# Poissons Ratio (x) = 0.05330 0.91555
# Poissons Ratio (y) = 0.07900 -0.09751
# Poissons Ratio (z) = 0.59237 -0.04257
#
# Static dielectric constant tensor:
#      x y z
#    x 1.779110 0.000000 0.000000 
#    y 0.000000 1.764560 0.000000 
#    z 0.000000 0.000000 1.757260 
# 
# From -- ./inp_files/13691.got.cif
#   From: 2010.05.17/outbox.cif.g08.bks.cpg/sg67_7_cif.got.tgz:13691.got - 2010.06.03 18:28:57.
