data_PCOD9501624
_publ_section_title
;
Structure prediction by ZEFSAII (Michael W. Deem and Ramdas Pophale) SiO2 
 PCOD9501624
Probable space group: C M M A
;
_chemical_formula_sum "Si O2"
_cell_formula_units_Z 96
_cell_length_a 21.219092
_cell_length_b 17.572932
_cell_length_c 14.015518
_cell_angle_alpha 90.000000
_cell_angle_beta 90.000000
_cell_angle_gamma 90.000000
_cell_volume 5226.129629
_symmetry_space_group_name_H-M "C M M A"
_symmetry_group_IT_number 67
_symmetry_cell_setting 'orthorhombic'
loop_
_space_group_symop_operation_xyz
x,y,z
-x,1/2-y,z
x,-y,-z
-x,1/2+y,-z
-x,-y,-z
x,1/2+y,-z
-x,y,z
x,1/2-y,z
1/2+x,1/2+y,z
1/2-x,-y,z
1/2+x,1/2-y,-z
1/2-x,y,-z
1/2-x,1/2-y,-z
1/2+x,y,-z
1/2-x,1/2+y,z
1/2+x,-y,z
loop_
_atom_site_type_symbol
_atom_site_label
_atom_site_fract_x
_atom_site_fract_y
_atom_site_fract_z
Si Si1 0.307720 0.404566 0.292027
Si Si2 0.337115 0.431777 0.650592
Si Si3 0.428642 0.590311 0.009649
Si Si4 0.674839 0.832465 0.519968
Si Si5 0.303959 0.159029 0.078336
Si Si6 0.071434 0.338431 0.217726
O O1 0.346230 0.481990 0.313789
O O2 0.236264 0.417756 0.326976
O O3 0.334734 0.343851 0.367355
O O4 0.301103 0.380344 0.182284
O O5 0.347739 0.405110 0.541431
O O6 0.379008 0.375040 0.711942
O O7 0.500000 0.606540 0.973706
O O8 0.372574 0.636135 0.960495
O O9 0.417715 0.500000 0.000000
O O10 0.426918 0.615310 0.119496
O O11 0.648941 0.750000 0.488369
O O12 0.750000 0.829451 0.500000
O O13 0.297990 0.250000 0.090069
O O14 0.250000 0.135778 0.000000
O O15 0.085759 0.250000 0.198174
O O16 0.000000 0.342907 0.255871
#
# Coordination Sequence:
#
# PCOD9501624 Si02
#       6
#    16  16  16  16  16  16
#     4  10  20  33  51  78 109 140 174 215 266 321
#     4  10  19  33  53  77 105 137 170 214 270 320
#     4  10  21  37  56  77 103 139 181 222 268 324
#     4   9  17  30  51  77 104 135 172 215 265 322
#     4  11  23  36  53  79 111 146 183 224 269 318
#     4  10  20  34  54  78 102 133 177 225 268 312
#
# _framework density 18.369233999999999
#
# number of rings (size 3 to 8) (size 9 to 14) (size 15 to 20)
#    0.000    2.000    0.000    4.000    0.000    8.000 
#    0.000    0.000    0.000    3.000    0.000    0.000 
#    0.000    0.000    0.000    0.000    0.000    0.000 
#
# Total GULP energy -267394.217652 kJ/mol
# GULP energy per Si atom -5570.712868 kJ/mol
# Density = 1.832742 g / cm^3
# Si number density = 18.369234 Si / 1000 Ang^3
#
#
#
# Elastic Constant Matrix: (Units=GPa)
#
#
# Indices 1 2 3 4 5 6 
#
# 1 36.9222 25.3997 21.3366 0.0000 0.0000 0.0000
# 2 25.3997 114.3375 45.9188 0.0000 0.0000 0.0000
# 3 21.3366 45.9188 112.7760 0.0000 0.0000 0.0000
# 4 0.0000 0.0000 0.0000 26.3973 0.0000 0.0000
# 5 0.0000 0.0000 0.0000 0.0000 14.2813 0.0000
# 6 0.0000 0.0000 0.0000 0.0000 0.0000 26.2100
#
#
#
# Elastic Compliance Matrix: (Units=1/GPa)
#
#
# Indices 1 2 3 4 5 6 
#
# 1 0.033372 -0.005831 -0.003939 0.000000 0.000000 0.000000
# 2 -0.005831 0.011475 -0.003569 0.000000 0.000000 0.000000
# 3 -0.003939 -0.003569 0.011066 0.000000 0.000000 0.000000
# 4 0.000000 0.000000 0.000000 0.037883 0.000000 0.000000
# 5 0.000000 0.000000 0.000000 0.000000 0.070021 0.000000
# 6 0.000000 0.000000 0.000000 0.000000 0.000000 0.038153
#
#
# Mechanical properties :
#
#
# Convention : Reuss Voigt Hill
#
# Bulk Modulus (GPa) = 34.20795 49.92732 42.06763
# Shear Modulus (GPa) = 20.97370 24.80308 22.88839
#
# Velocity S-wave (km/s) = 3.38270 3.67856 3.53373
# Velocity P-wave (km/s) = 5.82406 6.72914 6.29289
#
# Compressibility (1/GPa) = 0.02923297
#
# Stress axis : x y z
#
# Youngs Moduli (GPa) = 29.96517 87.14790 90.37008
#
# Poissons Ratio (x) = 0.50819 0.35601
# Poissons Ratio (y) = 0.17474 0.32252
# Poissons Ratio (z) = 0.11805 0.31102
#
# Static dielectric constant tensor:
#      x y z
#    x 1.615390 0.000000 0.000000 
#    y 0.000000 1.671360 0.000000 
#    z 0.000000 0.000000 1.651590 
# 
# From -- ./inp_files/29275.got.cif
#   From: 2010.05.17/outbox.cif.g08.bks.cpg/sg67_15_cif.got.tgz:29275.got - 2010.06.03 18:28:57.
