data_PCOD9501540
_publ_section_title
;
Structure prediction by ZEFSAII (Michael W. Deem and Ramdas Pophale) SiO2 
 PCOD9501540
Probable space group: C M M A
;
_chemical_formula_sum "Si O2"
_cell_formula_units_Z 64
_cell_length_a 10.901137
_cell_length_b 14.797142
_cell_length_c 18.794230
_cell_angle_alpha 90.000000
_cell_angle_beta 90.000000
_cell_angle_gamma 90.000000
_cell_volume 3031.615903
_symmetry_space_group_name_H-M "C M M A"
_symmetry_group_IT_number 67
_symmetry_cell_setting 'orthorhombic'
loop_
_space_group_symop_operation_xyz
x,y,z
-x,1/2-y,z
x,-y,-z
-x,1/2+y,-z
-x,-y,-z
x,1/2+y,-z
-x,y,z
x,1/2-y,z
1/2+x,1/2+y,z
1/2-x,-y,z
1/2+x,1/2-y,-z
1/2-x,y,-z
1/2-x,1/2-y,-z
1/2+x,y,-z
1/2-x,1/2+y,z
1/2+x,-y,z
loop_
_atom_site_type_symbol
_atom_site_label
_atom_site_fract_x
_atom_site_fract_y
_atom_site_fract_z
Si Si1 0.251491 0.892163 0.842992
Si Si2 0.000000 0.889136 0.080475
Si Si3 0.139344 0.643498 0.304749
Si Si4 0.500000 0.609998 0.084930
Si Si5 0.864716 0.901859 0.462598
O O1 0.374627 0.857697 0.881912
O O2 0.268465 0.874643 0.759357
O O3 0.124100 0.859022 0.876075
O O4 0.250000 0.000000 0.853255
O O5 0.000000 0.999399 0.085336
O O6 0.000000 0.863936 0.997722
O O7 0.142375 0.750000 0.321472
O O8 0.160712 0.592124 0.378495
O O9 0.000000 0.620782 0.280208
O O10 0.750000 0.854817 0.500000
O O11 0.000000 0.859851 0.470107
O O12 0.872339 0.000000 0.500000
#
# Coordination Sequence:
#
# PCOD9501540 Si02
#       5
#    16   8  16   8  16
#     4  10  19  32  54  85 110 149 192 234 281 330
#     4   9  16  32  53  79 115 150 191 230 284 333
#     4  10  21  38  59  80 114 157 191 221 272 347
#     4   9  18  30  51  85 117 144 183 248 284 315
#     4   9  19  36  57  84 108 143 180 231 273 328
#
# _framework density 21.110852999999999
#
# number of rings (size 3 to 8) (size 9 to 14) (size 15 to 20)
#    0.000    2.500    1.250    0.750    3.500    3.500 
#    2.250    0.625    0.000    4.500    0.000    0.000 
#    0.000    0.000    0.000    0.000    0.000    0.000 
#
# Total GULP energy -178562.657112 kJ/mol
# GULP energy per Si atom -5580.083035 kJ/mol
# Density = 2.106280 g / cm^3
# Si number density = 21.110853 Si / 1000 Ang^3
#
#
#
# Elastic Constant Matrix: (Units=GPa)
#
#
# Indices 1 2 3 4 5 6 
#
# 1 197.8203 19.3036 114.2381 0.0000 0.0000 0.0000
# 2 19.3036 66.3314 14.3311 0.0000 0.0000 0.0000
# 3 114.2381 14.3311 183.4509 0.0000 0.0000 0.0000
# 4 0.0000 0.0000 0.0000 -86.6433 0.0000 0.0000
# 5 0.0000 0.0000 0.0000 0.0000 37.8786 0.0000
# 6 0.0000 0.0000 0.0000 0.0000 0.0000 -25.0504
#
#
#
# Elastic Compliance Matrix: (Units=1/GPa)
#
#
# Indices 1 2 3 4 5 6 
#
# 1 0.007998 -0.001273 -0.004881 0.000000 0.000000 0.000000
# 2 -0.001273 0.015537 -0.000421 0.000000 0.000000 0.000000
# 3 -0.004881 -0.000421 0.008523 0.000000 0.000000 0.000000
# 4 0.000000 0.000000 0.000000 -0.011542 0.000000 0.000000
# 5 0.000000 0.000000 0.000000 0.000000 0.026400 0.000000
# 6 0.000000 0.000000 0.000000 0.000000 0.000000 -0.039920
#
#
# Mechanical properties :
#
#
# Convention : Reuss Voigt Hill
#
# Bulk Modulus (GPa) = 52.88617 82.59425 67.74021
# Shear Modulus (GPa) = 189.02964 5.21897 97.12431
#
# Velocity S-wave (km/s) = 9.47290 1.57402 6.79019
# Velocity P-wave (km/s) = 12.03137 6.52015 9.67642
#
# Compressibility (1/GPa) = 0.01890854
#
# Stress axis : x y z
#
# Youngs Moduli (GPa) = 125.03015 64.36142 117.32290
#
# Poissons Ratio (x) = 0.08193 0.57266
# Poissons Ratio (y) = 0.15916 0.04940
# Poissons Ratio (z) = 0.61028 0.02710
#
# Static dielectric constant tensor:
#      x y z
#    x 1.800090 0.000000 0.000000 
#    y 0.000000 1.786070 0.000000 
#    z 0.000000 0.000000 1.720930 
# 
# From -- ./inp_files/25792.got.cif
#   From: 2010.05.17/outbox.cif.g08.bks.cpg/sg67_13_cif.got.tgz:25792.got - 2010.06.03 18:28:57.
