data_PCOD9501097
_publ_section_title
;
Structure prediction by ZEFSAII (Michael W. Deem and Ramdas Pophale) SiO2 
 PCOD9501097
Probable space group: C M M A
;
_chemical_formula_sum "Si O2"
_cell_formula_units_Z 88
_cell_length_a 26.490272
_cell_length_b 26.554804
_cell_length_c 6.237928
_cell_angle_alpha 90.000000
_cell_angle_beta 90.000000
_cell_angle_gamma 90.000000
_cell_volume 4388.032905
_symmetry_space_group_name_H-M "C M M A"
_symmetry_group_IT_number 67
_symmetry_cell_setting 'orthorhombic'
loop_
_space_group_symop_operation_xyz
x,y,z
-x,1/2-y,z
x,-y,-z
-x,1/2+y,-z
-x,-y,-z
x,1/2+y,-z
-x,y,z
x,1/2-y,z
1/2+x,1/2+y,z
1/2-x,-y,z
1/2+x,1/2-y,-z
1/2-x,y,-z
1/2-x,1/2-y,-z
1/2+x,y,-z
1/2-x,1/2+y,z
1/2+x,-y,z
loop_
_atom_site_type_symbol
_atom_site_label
_atom_site_fract_x
_atom_site_fract_y
_atom_site_fract_z
Si Si1 0.000000 0.523000 0.247907
Si Si2 0.871182 0.648335 0.664866
Si Si3 0.560423 0.807862 0.974349
Si Si4 0.695416 0.898216 0.967097
Si Si5 0.096302 0.406802 0.722956
Si Si6 0.702698 0.695745 0.657997
O O1 0.000000 0.500000 0.500000
O O2 0.050958 0.555574 0.242940
O O3 0.000000 0.500000 0.000000
O O4 0.895667 0.603707 0.527301
O O5 0.844203 0.684722 0.496284
O O6 0.911303 0.678664 0.805011
O O7 0.829235 0.622545 0.815405
O O8 0.500000 0.811929 0.993944
O O9 0.572071 0.750000 0.910311
O O10 0.580363 0.852263 0.820786
O O11 0.648824 0.923428 0.836995
O O12 0.707138 0.848916 0.824847
O O13 0.750000 0.924185 0.000000
O O14 0.698503 0.750000 0.766604
O O15 0.750000 0.695775 0.500000
#
# Coordination Sequence:
#
# PCOD9501097 Si02
#       6
#     8  16  16  16  16  16
#     4  12  30  52  85 110 139 172 228 298 368 432
#     4  10  21  34  57  82 129 168 230 269 340 388
#     4  10  21  36  58  86 131 180 228 273 334 403
#     4  10  20  36  58  87 125 170 223 267 339 404
#     4  10  24  41  66  99 134 173 228 284 348 415
#     4  10  19  30  46  78 123 173 233 283 324 379
#
# _framework density 20.054544
#
# number of rings (size 3 to 8) (size 9 to 14) (size 15 to 20)
#    0.000    1.818    2.727    0.545    6.364    8.364 
#    0.000    1.818    0.000    0.545    0.000    0.000 
#    0.000    0.000    0.000    0.000    0.000    0.000 
#
# Total GULP energy -245246.139305 kJ/mol
# GULP energy per Si atom -5573.775893 kJ/mol
# Density = 2.000890 g / cm^3
# Si number density = 20.054544 Si / 1000 Ang^3
#
#
#
# Elastic Constant Matrix: (Units=GPa)
#
#
# Indices 1 2 3 4 5 6 
#
# 1 157.2027 42.9051 45.2238 0.0000 0.0000 0.0000
# 2 42.9051 40.2735 38.9035 0.0000 0.0000 0.0000
# 3 45.2238 38.9035 98.8913 0.0000 0.0000 0.0000
# 4 0.0000 0.0000 0.0000 300.7817 0.0000 0.0000
# 5 0.0000 0.0000 0.0000 0.0000 30.8004 0.0000
# 6 0.0000 0.0000 0.0000 0.0000 0.0000 -10.9518
#
#
#
# Elastic Compliance Matrix: (Units=1/GPa)
#
#
# Indices 1 2 3 4 5 6 
#
# 1 0.008988 -0.009040 -0.000554 0.000000 0.000000 0.000000
# 2 -0.009040 0.049142 -0.015198 0.000000 0.000000 0.000000
# 3 -0.000554 -0.015198 0.016344 0.000000 0.000000 0.000000
# 4 0.000000 0.000000 0.000000 0.003325 0.000000 0.000000
# 5 0.000000 0.000000 0.000000 0.000000 0.032467 0.000000
# 6 0.000000 0.000000 0.000000 0.000000 0.000000 -0.091310
#
#
# Mechanical properties :
#
#
# Convention : Reuss Voigt Hill
#
# Bulk Modulus (GPa) = 40.17681 61.15916 50.66799
# Shear Modulus (GPa) = 65.07166 75.41507 70.24337
#
# Velocity S-wave (km/s) = 5.70244 6.13894 5.92471
# Velocity P-wave (km/s) = 7.96457 8.98952 8.49252
#
# Compressibility (1/GPa) = 0.02488998
#
# Stress axis : x y z
#
# Youngs Moduli (GPa) = 111.26111 20.34899 61.18312
#
# Poissons Ratio (x) = 0.18396 0.03389
# Poissons Ratio (y) = 1.00582 0.92988
# Poissons Ratio (z) = 0.06162 0.30927
#
# Static dielectric constant tensor:
#      x y z
#    x 1.739670 0.000000 0.000000 
#    y 0.000000 1.707960 0.000000 
#    z 0.000000 0.000000 1.743950 
# 
# From -- ./inp_files/4273.got.cif
#   From: 2010.05.17/outbox.cif.g08.bks.cpg/sg67_3_cif.got.tgz:4273.got - 2010.06.03 18:28:57.
