data_PCOD9501953
_publ_section_title
;
Structure prediction by ZEFSAII (Michael W. Deem and Ramdas Pophale) SiO2 
 PCOD9501953
Probable space group: C M M A
;
_chemical_formula_sum "Si O2"
_cell_formula_units_Z 88
_cell_length_a 22.720374
_cell_length_b 28.520311
_cell_length_c 6.652946
_cell_angle_alpha 90.000000
_cell_angle_beta 90.000000
_cell_angle_gamma 90.000000
_cell_volume 4311.056666
_symmetry_space_group_name_H-M "C M M A"
_symmetry_group_IT_number 67
_symmetry_cell_setting 'orthorhombic'
loop_
_space_group_symop_operation_xyz
x,y,z
-x,1/2-y,z
x,-y,-z
-x,1/2+y,-z
-x,-y,-z
x,1/2+y,-z
-x,y,z
x,1/2-y,z
1/2+x,1/2+y,z
1/2-x,-y,z
1/2+x,1/2-y,-z
1/2-x,y,-z
1/2-x,1/2-y,-z
1/2+x,y,-z
1/2-x,1/2+y,z
1/2+x,-y,z
loop_
_atom_site_type_symbol
_atom_site_label
_atom_site_fract_x
_atom_site_fract_y
_atom_site_fract_z
Si Si1 0.191983 0.131892 0.863433
Si Si2 0.126731 0.447937 0.097411
Si Si3 0.500000 0.197850 0.045791
Si Si4 0.500000 0.444798 0.024099
Si Si5 0.634063 0.384376 0.552271
Si Si6 0.126515 0.196607 0.128539
Si Si7 0.000000 0.117284 0.617227
O O1 0.180718 0.122952 0.627732
O O2 0.250000 0.139057 0.000000
O O3 0.165350 0.084679 0.957189
O O4 0.153584 0.177407 0.921097
O O5 0.060040 0.428476 0.075570
O O6 0.143270 0.433472 0.325496
O O7 0.129005 0.500000 0.000000
O O8 0.500000 0.250000 0.139927
O O9 0.443119 0.194361 0.906283
O O10 0.500000 0.158451 0.215845
O O11 0.500000 0.500000 0.000000
O O12 0.500000 0.430767 0.255269
O O13 0.643820 0.341246 0.704864
O O14 0.564712 0.381491 0.486054
O O15 0.143865 0.250000 0.172804
#
# Coordination Sequence:
#
# PCOD9501953 Si02
#       7
#    16  16   8   8  16  16   8
#     4  11  24  42  62  88 121 166 218 268 313 376
#     4  10  22  41  61  91 129 161 206 267 321 383
#     4  10  19  35  61  91 128 165 206 264 328 389
#     4  10  19  37  59  91 129 159 196 261 318 391
#     4  11  22  37  65  93 123 170 212 254 328 397
#     4  10  22  40  61  91 128 160 205 268 321 384
#     4  12  18  36  64  94 128 172 200 254 324 391
#
# _framework density 20.412628999999999
#
# number of rings (size 3 to 8) (size 9 to 14) (size 15 to 20)
#    0.000    1.455    3.636    2.182    0.000    5.818 
#    0.000    2.727    0.000    4.364    0.000    0.000 
#    0.000    0.000    0.000    0.000    0.000    0.000 
#
# Total GULP energy -245020.442837 kJ/mol
# GULP energy per Si atom -5568.646428 kJ/mol
# Density = 2.036617 g / cm^3
# Si number density = 20.412629 Si / 1000 Ang^3
#
#
#
# Elastic Constant Matrix: (Units=GPa)
#
#
# Indices 1 2 3 4 5 6 
#
# 1 58.0547 21.6648 23.7443 0.0000 0.0000 0.0000
# 2 21.6648 101.1534 39.8520 0.0000 0.0000 0.0000
# 3 23.7443 39.8520 124.2365 0.0000 0.0000 0.0000
# 4 0.0000 0.0000 0.0000 19.9880 0.0000 0.0000
# 5 0.0000 0.0000 0.0000 0.0000 58.8586 0.0000
# 6 0.0000 0.0000 0.0000 0.0000 0.0000 15.0317
#
#
#
# Elastic Compliance Matrix: (Units=1/GPa)
#
#
# Indices 1 2 3 4 5 6 
#
# 1 0.019499 -0.003100 -0.002732 0.000000 0.000000 0.000000
# 2 -0.003100 0.011809 -0.003196 0.000000 0.000000 0.000000
# 3 -0.002732 -0.003196 0.009596 0.000000 0.000000 0.000000
# 4 0.000000 0.000000 0.000000 0.050030 0.000000 0.000000
# 5 0.000000 0.000000 0.000000 0.000000 0.016990 0.000000
# 6 0.000000 0.000000 0.000000 0.000000 0.000000 0.066526
#
#
# Mechanical properties :
#
#
# Convention : Reuss Voigt Hill
#
# Bulk Modulus (GPa) = 43.76527 50.44075 47.10301
# Shear Modulus (GPa) = 24.98466 31.98788 28.48627
#
# Velocity S-wave (km/s) = 3.50234 3.96291 3.73972
# Velocity P-wave (km/s) = 6.15159 6.76045 6.46319
#
# Compressibility (1/GPa) = 0.02284917
#
# Stress axis : x y z
#
# Youngs Moduli (GPa) = 51.28341 84.68210 104.20526
#
# Poissons Ratio (x) = 0.26250 0.28473
# Poissons Ratio (y) = 0.15897 0.33299
# Poissons Ratio (z) = 0.14013 0.27061
#
# Static dielectric constant tensor:
#      x y z
#    x 1.892010 0.000000 0.000000 
#    y 0.000000 1.351010 0.000000 
#    z 0.000000 0.000000 1.765860 
# 
# From -- ./inp_files/3653.got.cif
#   From: 2010.05.17/outbox.cif.g08.bks.cpg/sg67_2_cif.got.tgz:3653.got - 2010.06.03 18:28:57.
