data_PCOD9501561
_publ_section_title
;
Structure prediction by ZEFSAII (Michael W. Deem and Ramdas Pophale) SiO2 
 PCOD9501561
Probable space group: C M M A
;
_chemical_formula_sum "Si O2"
_cell_formula_units_Z 64
_cell_length_a 18.856507
_cell_length_b 14.842588
_cell_length_c 9.193247
_cell_angle_alpha 90.000000
_cell_angle_beta 90.000000
_cell_angle_gamma 90.000000
_cell_volume 2573.000128
_symmetry_space_group_name_H-M "C M M A"
_symmetry_group_IT_number 67
_symmetry_cell_setting 'orthorhombic'
loop_
_space_group_symop_operation_xyz
x,y,z
-x,1/2-y,z
x,-y,-z
-x,1/2+y,-z
-x,-y,-z
x,1/2+y,-z
-x,y,z
x,1/2-y,z
1/2+x,1/2+y,z
1/2-x,-y,z
1/2+x,1/2-y,-z
1/2-x,y,-z
1/2-x,1/2-y,-z
1/2+x,y,-z
1/2-x,1/2+y,z
1/2+x,-y,z
loop_
_atom_site_type_symbol
_atom_site_label
_atom_site_fract_x
_atom_site_fract_y
_atom_site_fract_z
Si Si1 0.655675 0.649684 0.228087
Si Si2 0.654464 0.850586 0.725101
Si Si3 0.000000 0.108067 0.834359
Si Si4 0.750000 0.391958 0.500000
Si Si5 0.250000 0.890520 0.000000
Si Si6 0.000000 0.106907 0.169184
O O1 0.666981 0.750000 0.161822
O O2 0.697813 0.648396 0.378007
O O3 0.572484 0.636587 0.244276
O O4 0.689234 0.576656 0.115263
O O5 0.665439 0.750000 0.660677
O O6 0.572163 0.862862 0.756557
O O7 0.689476 0.924256 0.616171
O O8 0.697493 0.851735 0.876343
O O9 0.000000 0.000450 0.836515
O O10 0.000000 0.140514 0.001890
#
# Coordination Sequence:
#
# PCOD9501561 Si02
#       6
#    16  16   8   8   8   8
#     4  11  20  38  64  93 122 156 200 250 307 361
#     4  11  20  38  64  93 122 156 200 250 307 361
#     4  11  25  42  59  88 126 164 207 254 298 351
#     4  10  23  40  65  98 127 152 195 258 311 360
#     4  10  19  32  61  92 117 150 201 252 293 354
#     4  11  25  42  59  88 126 164 207 254 298 351
#
# _framework density 24.873684999999998
#
# number of rings (size 3 to 8) (size 9 to 14) (size 15 to 20)
#    0.000    1.250    2.500    6.750    0.000    2.000 
#    0.000   12.500    0.000    0.000    0.000    0.000 
#    0.000    0.000    0.000    0.000    0.000    0.000 
#
# Total GULP energy -178195.525353 kJ/mol
# GULP energy per Si atom -5568.610167 kJ/mol
# Density = 2.481707 g / cm^3
# Si number density = 24.873685 Si / 1000 Ang^3
#
#
#
# Elastic Constant Matrix: (Units=GPa)
#
#
# Indices 1 2 3 4 5 6 
#
# 1 278.5627 17.5934 72.1367 0.0000 0.0000 0.0000
# 2 17.5934 87.7273 24.3770 0.0000 0.0000 0.0000
# 3 72.1367 24.3770 167.3554 0.0000 0.0000 0.0000
# 4 0.0000 0.0000 0.0000 22.1700 0.0000 0.0000
# 5 0.0000 0.0000 0.0000 0.0000 35.0662 0.0000
# 6 0.0000 0.0000 0.0000 0.0000 0.0000 6.1439
#
#
#
# Elastic Compliance Matrix: (Units=1/GPa)
#
#
# Indices 1 2 3 4 5 6 
#
# 1 0.004051 -0.000341 -0.001696 0.000000 0.000000 0.000000
# 2 -0.000341 0.011908 -0.001588 0.000000 0.000000 0.000000
# 3 -0.001696 -0.001588 0.006938 0.000000 0.000000 0.000000
# 4 0.000000 0.000000 0.000000 0.045106 0.000000 0.000000
# 5 0.000000 0.000000 0.000000 0.000000 0.028517 0.000000
# 6 0.000000 0.000000 0.000000 0.000000 0.000000 0.162764
#
#
# Mechanical properties :
#
#
# Convention : Reuss Voigt Hill
#
# Bulk Modulus (GPa) = 63.90978 84.65107 74.28042
# Shear Modulus (GPa) = 18.39929 40.64524 29.52227
#
# Velocity S-wave (km/s) = 2.72271 4.04674 3.44886
# Velocity P-wave (km/s) = 5.96940 7.47938 6.76664
#
# Compressibility (1/GPa) = 0.01564706
#
# Stress axis : x y z
#
# Youngs Moduli (GPa) = 246.87249 83.97365 144.13911
#
# Poissons Ratio (x) = 0.02863 0.24451
# Poissons Ratio (y) = 0.08418 0.22884
# Poissons Ratio (z) = 0.41878 0.13332
#
# Static dielectric constant tensor:
#      x y z
#    x 1.940060 0.000000 0.000000 
#    y 0.000000 2.264720 0.000000 
#    z 0.000000 0.000000 1.889900 
# 
# From -- ./inp_files/9398.got.cif
#   From: 2010.05.17/outbox.cif.g08.bks.cpg/sg67_5_cif.got.tgz:9398.got - 2010.06.03 18:28:57.
