data_PCOD9501921
_publ_section_title
;
Structure prediction by ZEFSAII (Michael W. Deem and Ramdas Pophale) SiO2 
 PCOD9501921
Probable space group: C M M A
;
_chemical_formula_sum "Si O2"
_cell_formula_units_Z 68
_cell_length_a 19.143697
_cell_length_b 20.169221
_cell_length_c 10.016335
_cell_angle_alpha 90.000000
_cell_angle_beta 90.000000
_cell_angle_gamma 90.000000
_cell_volume 3867.441719
_symmetry_space_group_name_H-M "C M M A"
_symmetry_group_IT_number 67
_symmetry_cell_setting 'orthorhombic'
loop_
_space_group_symop_operation_xyz
x,y,z
-x,1/2-y,z
x,-y,-z
-x,1/2+y,-z
-x,-y,-z
x,1/2+y,-z
-x,y,z
x,1/2-y,z
1/2+x,1/2+y,z
1/2-x,-y,z
1/2+x,1/2-y,-z
1/2-x,y,-z
1/2-x,1/2-y,-z
1/2+x,y,-z
1/2-x,1/2+y,z
1/2+x,-y,z
loop_
_atom_site_type_symbol
_atom_site_label
_atom_site_fract_x
_atom_site_fract_y
_atom_site_fract_z
Si Si1 0.334086 0.925606 0.981392
Si Si2 0.922072 0.170785 0.485002
Si Si3 0.812391 0.887753 0.313224
Si Si4 0.337283 0.329440 0.775322
Si Si5 0.750000 0.000000 0.500000
O O1 0.345643 0.904293 0.829604
O O2 0.250000 0.929665 0.000000
O O3 0.354706 0.871638 0.092379
O O4 0.362303 0.000000 0.000000
O O5 0.926187 0.250000 0.482343
O O6 0.866613 0.151959 0.597330
O O7 0.890898 0.151265 0.341472
O O8 0.000000 0.143755 0.507460
O O9 0.739786 0.849705 0.279768
O O10 0.793228 0.952599 0.400517
O O11 0.338945 0.250000 0.798781
#
# Coordination Sequence:
#
# PCOD9501921 Si02
#       5
#    16  16  16  16   4
#     4   9  19  33  53  81 112 145 180 228 281 332
#     4  10  21  37  56  81 112 145 183 231 283 334
#     4  11  20  33  58  82 112 144 187 229 278 326
#     4  10  19  35  58  84 110 144 187 233 280 331
#     4  12  20  32  58  84 112 152 180 226 280 344
#
# _framework density 17.582682999999999
#
# number of rings (size 3 to 8) (size 9 to 14) (size 15 to 20)
#    0.000    1.882    2.353    3.529    0.000    7.059 
#    0.000    1.765    0.000    4.235    0.000    0.000 
#    0.000    0.000    0.000    0.000    0.000    0.000 
#
# Total GULP energy -189533.464236 kJ/mol
# GULP energy per Si atom -5574.513654 kJ/mol
# Density = 1.754266 g / cm^3
# Si number density = 17.582683 Si / 1000 Ang^3
#
#
#
# Elastic Constant Matrix: (Units=GPa)
#
#
# Indices 1 2 3 4 5 6 
#
# 1 58.6093 20.3994 38.6519 0.0000 0.0000 0.0000
# 2 20.3994 67.7797 58.2120 0.0000 0.0000 0.0000
# 3 38.6519 58.2120 168.1921 0.0000 0.0000 0.0000
# 4 0.0000 0.0000 0.0000 24.9912 0.0000 0.0000
# 5 0.0000 0.0000 0.0000 0.0000 3.9332 0.0000
# 6 0.0000 0.0000 0.0000 0.0000 0.0000 -8.5666
#
#
#
# Elastic Compliance Matrix: (Units=1/GPa)
#
#
# Indices 1 2 3 4 5 6 
#
# 1 0.020537 -0.003028 -0.003672 0.000000 0.000000 0.000000
# 2 -0.003028 0.021440 -0.006725 0.000000 0.000000 0.000000
# 3 -0.003672 -0.006725 0.009117 0.000000 0.000000 0.000000
# 4 0.000000 0.000000 0.000000 0.040014 0.000000 0.000000
# 5 0.000000 0.000000 0.000000 0.000000 0.254246 0.000000
# 6 0.000000 0.000000 0.000000 0.000000 0.000000 -0.116732
#
#
# Mechanical properties :
#
#
# Convention : Reuss Voigt Hill
#
# Bulk Modulus (GPa) = 41.24342 58.78975 50.01659
# Shear Modulus (GPa) = 18.97145 15.89275 17.43210
#
# Velocity S-wave (km/s) = 3.28835 3.00973 3.15212
# Velocity P-wave (km/s) = 6.15837 6.75180 6.46190
#
# Compressibility (1/GPa) = 0.02424629
#
# Stress axis : x y z
#
# Youngs Moduli (GPa) = 48.69168 46.64073 109.68630
#
# Poissons Ratio (x) = 0.14121 0.40275
# Poissons Ratio (y) = 0.14742 0.73763
# Poissons Ratio (z) = 0.17879 0.31365
#
# Static dielectric constant tensor:
#      x y z
#    x 1.591090 0.000000 0.000000 
#    y 0.000000 1.620630 0.000000 
#    z 0.000000 0.000000 1.600080 
# 
# From -- ./inp_files/9483.got.cif
#   From: 2010.05.17/outbox.cif.g08.bks.cpg/sg67_5_cif.got.tgz:9483.got - 2010.06.03 18:28:57.
