data_PCOD9501380
_publ_section_title
;
Structure prediction by ZEFSAII (Michael W. Deem and Ramdas Pophale) SiO2 
 PCOD9501380
Probable space group: C M M A
;
_chemical_formula_sum "Si O2"
_cell_formula_units_Z 96
_cell_length_a 8.602901
_cell_length_b 28.043411
_cell_length_c 24.417775
_cell_angle_alpha 90.000000
_cell_angle_beta 90.000000
_cell_angle_gamma 90.000000
_cell_volume 5890.902702
_symmetry_space_group_name_H-M "C M M A"
_symmetry_group_IT_number 67
_symmetry_cell_setting 'orthorhombic'
loop_
_space_group_symop_operation_xyz
x,y,z
-x,1/2-y,z
x,-y,-z
-x,1/2+y,-z
-x,-y,-z
x,1/2+y,-z
-x,y,z
x,1/2-y,z
1/2+x,1/2+y,z
1/2-x,-y,z
1/2+x,1/2-y,-z
1/2-x,y,-z
1/2-x,1/2-y,-z
1/2+x,y,-z
1/2-x,1/2+y,z
1/2+x,-y,z
loop_
_atom_site_type_symbol
_atom_site_label
_atom_site_fract_x
_atom_site_fract_y
_atom_site_fract_z
Si Si1 0.187315 0.694880 0.940939
Si Si2 0.687314 0.857654 0.169085
Si Si3 0.185814 0.052563 0.770811
Si Si4 0.814207 0.605831 0.664260
Si Si5 0.313539 0.694787 0.725071
Si Si6 0.314031 0.553190 0.559883
O O1 0.237447 0.750000 0.932051
O O2 0.235854 0.662357 0.889974
O O3 0.000000 0.694604 0.942588
O O4 0.250000 0.679435 0.000000
O O5 0.500000 0.859859 0.171552
O O6 0.756287 0.908986 0.184731
O O7 0.746289 0.821983 0.216448
O O8 0.251319 0.071668 0.712776
O O9 0.000000 0.052284 0.768566
O O10 0.250000 0.000000 0.781535
O O11 0.757649 0.658532 0.680970
O O12 0.745856 0.587933 0.607111
O O13 0.000000 0.603745 0.663626
O O14 0.500000 0.688913 0.725996
O O15 0.276820 0.750000 0.714896
O O16 0.500000 0.551730 0.558819
O O17 0.250000 0.500000 0.571603
O O18 0.250000 0.566677 0.500000
#
# Coordination Sequence:
#
# PCOD9501380 Si02
#       6
#    16  16  16  16  16  16
#     4   9  18  31  48  71  99 130 163 199 240 288
#     4  10  19  32  50  73 100 130 164 202 246 293
#     4  11  21  34  51  73 100 130 164 202 246 293
#     4  11  21  34  52  75 102 133 167 203 246 292
#     4  10  20  33  50  74 102 132 166 204 246 292
#     4  11  21  35  53  76 104 133 167 204 246 293
#
# _framework density 16.296313999999999
#
# number of rings (size 3 to 8) (size 9 to 14) (size 15 to 20)
#    0.000    1.667    0.000    9.000    0.000    3.333 
#    0.000    1.667    0.000    1.000    0.000    3.500 
#    0.000    0.000    0.000    0.000    0.000    0.000 
#
# Total GULP energy -268088.066173 kJ/mol
# GULP energy per Si atom -5585.168045 kJ/mol
# Density = 1.625922 g / cm^3
# Si number density = 16.296314 Si / 1000 Ang^3
#
#
#
# Elastic Constant Matrix: (Units=GPa)
#
#
# Indices 1 2 3 4 5 6 
#
# 1 130.4343 64.2827 60.4921 0.0000 0.0000 0.0000
# 2 64.2827 131.7568 95.6764 0.0000 0.0000 0.0000
# 3 60.4921 95.6764 145.3694 0.0000 0.0000 0.0000
# 4 0.0000 0.0000 0.0000 19.5280 0.0000 0.0000
# 5 0.0000 0.0000 0.0000 0.0000 29.4551 0.0000
# 6 0.0000 0.0000 0.0000 0.0000 0.0000 27.0263
#
#
#
# Elastic Compliance Matrix: (Units=1/GPa)
#
#
# Indices 1 2 3 4 5 6 
#
# 1 0.010357 -0.003684 -0.001885 0.000000 0.000000 0.000000
# 2 -0.003684 0.015848 -0.008898 0.000000 0.000000 0.000000
# 3 -0.001885 -0.008898 0.013519 0.000000 0.000000 0.000000
# 4 0.000000 0.000000 0.000000 0.051208 0.000000 0.000000
# 5 0.000000 0.000000 0.000000 0.000000 0.033950 0.000000
# 6 0.000000 0.000000 0.000000 0.000000 0.000000 0.037001
#
#
# Mechanical properties :
#
#
# Convention : Reuss Voigt Hill
#
# Bulk Modulus (GPa) = 92.67016 94.27368 93.47192
# Shear Modulus (GPa) = 25.71830 27.67584 26.69707
#
# Velocity S-wave (km/s) = 3.97692 4.12550 4.05189
# Velocity P-wave (km/s) = 8.83612 8.98155 8.90913
#
# Compressibility (1/GPa) = 0.01079096
#
# Stress axis : x y z
#
# Youngs Moduli (GPa) = 96.55751 63.09822 73.96733
#
# Poissons Ratio (x) = 0.23246 0.13942
# Poissons Ratio (y) = 0.35573 0.65814
# Poissons Ratio (z) = 0.18200 0.56143
#
# Static dielectric constant tensor:
#      x y z
#    x 1.545950 0.000000 0.000000 
#    y 0.000000 1.535300 0.000000 
#    z 0.000000 0.000000 1.528110 
# 
# From -- ./inp_files/40937.got.cif
#   From: 2010.05.17/outbox.cif.g08.bks.cpg/sg67_21_cif.got.tgz:40937.got - 2010.06.03 18:28:57.
