data_PCOD9501391
_publ_section_title
;
Structure prediction by ZEFSAII (Michael W. Deem and Ramdas Pophale) SiO2 
 PCOD9501391
Probable space group: C M M A
;
_chemical_formula_sum "Si O2"
_cell_formula_units_Z 104
_cell_length_a 8.623328
_cell_length_b 27.806697
_cell_length_c 24.803242
_cell_angle_alpha 90.000000
_cell_angle_beta 90.000000
_cell_angle_gamma 90.000000
_cell_volume 5947.476854
_symmetry_space_group_name_H-M "C M M A"
_symmetry_group_IT_number 67
_symmetry_cell_setting 'orthorhombic'
loop_
_space_group_symop_operation_xyz
x,y,z
-x,1/2-y,z
x,-y,-z
-x,1/2+y,-z
-x,-y,-z
x,1/2+y,-z
-x,y,z
x,1/2-y,z
1/2+x,1/2+y,z
1/2-x,-y,z
1/2+x,1/2-y,-z
1/2-x,y,-z
1/2-x,1/2-y,-z
1/2+x,y,-z
1/2-x,1/2+y,z
1/2+x,-y,z
loop_
_atom_site_type_symbol
_atom_site_label
_atom_site_fract_x
_atom_site_fract_y
_atom_site_fract_z
Si Si1 0.187601 0.447874 0.850040
Si Si2 0.685758 0.051833 0.276076
Si Si3 0.316764 0.654603 0.876609
Si Si4 0.819690 0.306678 0.229335
Si Si5 0.315295 0.142450 0.661657
Si Si6 0.814637 0.305436 0.558631
Si Si7 0.810904 0.250000 0.939441
O O1 0.250000 0.500000 0.867621
O O2 0.233604 0.441191 0.786869
O O3 0.242213 0.400342 0.882582
O O4 0.000000 0.449163 0.851742
O O5 0.500000 0.052601 0.277686
O O6 0.752280 0.092571 0.314802
O O7 0.750000 0.000000 0.292330
O O8 0.500000 0.652895 0.887139
O O9 0.286423 0.667582 0.814320
O O10 0.255752 0.700581 0.910176
O O11 0.807272 0.250000 0.221241
O O12 0.778630 0.320031 0.290278
O O13 0.000000 0.321012 0.220474
O O14 0.500000 0.140027 0.655684
O O15 0.243209 0.160456 0.606176
O O16 0.763447 0.250000 0.569179
O O17 0.750000 0.319164 0.500000
O O18 0.000000 0.306047 0.556848
O O19 0.000000 0.250000 0.938018
O O20 0.750000 0.250000 0.000000
#
# Coordination Sequence:
#
# PCOD9501391 Si02
#       7
#    16  16  16  16  16  16   8
#     4   9  18  31  50  76 107 140 178 218 265 321
#     4  10  19  32  50  74 106 141 177 217 265 320
#     4  10  19  34  54  77 105 141 178 219 266 318
#     4  10  20  31  46  74 109 141 171 211 263 317
#     4  11  21  33  51  76 108 142 177 217 266 322
#     4  10  21  37  56  77 102 137 180 224 270 319
#     4  10  22  38  58  80 108 144 185 226 269 320
#
# _framework density 17.486405999999999
#
# number of rings (size 3 to 8) (size 9 to 14) (size 15 to 20)
#    0.000    2.000    2.308    1.846    0.000    4.000 
#    0.000    0.000    0.000    0.923    0.000    6.462 
#    0.000    0.000    0.000    0.000    0.000    0.000 
#
# Total GULP energy -289984.490979 kJ/mol
# GULP energy per Si atom -5576.624827 kJ/mol
# Density = 1.744661 g / cm^3
# Si number density = 17.486406 Si / 1000 Ang^3
#
#
#
# Elastic Constant Matrix: (Units=GPa)
#
#
# Indices 1 2 3 4 5 6 
#
# 1 14.0199 22.4912 13.6403 0.0000 0.0000 0.0000
# 2 22.4912 140.4724 52.2389 0.0000 0.0000 0.0000
# 3 13.6403 52.2389 60.5985 0.0000 0.0000 0.0000
# 4 0.0000 0.0000 0.0000 15.3830 0.0000 0.0000
# 5 0.0000 0.0000 0.0000 0.0000 22.2529 0.0000
# 6 0.0000 0.0000 0.0000 0.0000 0.0000 25.3885
#
#
#
# Elastic Compliance Matrix: (Units=1/GPa)
#
#
# Indices 1 2 3 4 5 6 
#
# 1 0.102641 -0.011542 -0.013154 0.000000 0.000000 0.000000
# 2 -0.011542 0.011776 -0.007553 0.000000 0.000000 0.000000
# 3 -0.013154 -0.007553 0.025974 0.000000 0.000000 0.000000
# 4 0.000000 0.000000 0.000000 0.065007 0.000000 0.000000
# 5 0.000000 0.000000 0.000000 0.000000 0.044938 0.000000
# 6 0.000000 0.000000 0.000000 0.000000 0.000000 0.039388
#
#
# Mechanical properties :
#
#
# Convention : Reuss Voigt Hill
#
# Bulk Modulus (GPa) = 13.17651 43.53685 28.35668
# Shear Modulus (GPa) = 13.17454 21.05292 17.11373
#
# Velocity S-wave (km/s) = 2.74782 3.47358 3.13179
# Velocity P-wave (km/s) = 4.19750 6.40619 5.41564
#
# Compressibility (1/GPa) = 0.07589266
#
# Stress axis : x y z
#
# Youngs Moduli (GPa) = 9.74266 84.91999 38.49994
#
# Poissons Ratio (x) = 0.98018 0.50642
# Poissons Ratio (y) = 0.11245 0.29080
# Poissons Ratio (z) = 0.12815 0.64142
#
# Static dielectric constant tensor:
#      x y z
#    x 1.598720 0.000000 0.000000 
#    y 0.000000 1.626370 0.000000 
#    z 0.000000 0.000000 1.560760 
# 
# From -- ./inp_files/41008.got.cif
#   From: 2010.05.17/outbox.cif.g08.bks.cpg/sg67_21_cif.got.tgz:41008.got - 2010.06.03 18:28:57.
