data_PCOD9501021
_publ_section_title
;
Structure prediction by ZEFSAII (Michael W. Deem and Ramdas Pophale) SiO2 
 PCOD9501021
Probable space group: C M M A
;
_chemical_formula_sum "Si O2"
_cell_formula_units_Z 116
_cell_length_a 9.302638
_cell_length_b 25.145684
_cell_length_c 29.660566
_cell_angle_alpha 90.000000
_cell_angle_beta 90.000000
_cell_angle_gamma 90.000000
_cell_volume 6938.235058
_symmetry_space_group_name_H-M "C M M A"
_symmetry_group_IT_number 67
_symmetry_cell_setting 'orthorhombic'
loop_
_space_group_symop_operation_xyz
x,y,z
-x,1/2-y,z
x,-y,-z
-x,1/2+y,-z
-x,-y,-z
x,1/2+y,-z
-x,y,z
x,1/2-y,z
1/2+x,1/2+y,z
1/2-x,-y,z
1/2+x,1/2-y,-z
1/2-x,y,-z
1/2-x,1/2-y,-z
1/2+x,y,-z
1/2-x,1/2+y,z
1/2+x,-y,z
loop_
_atom_site_type_symbol
_atom_site_label
_atom_site_fract_x
_atom_site_fract_y
_atom_site_fract_z
Si Si1 0.333999 0.314763 0.044950
Si Si2 0.750000 0.500000 0.500000
Si Si3 0.664336 0.547951 0.335132
Si Si4 0.665601 0.088505 0.568796
Si Si5 0.334225 0.185015 0.864811
Si Si6 0.161490 0.687740 0.221913
Si Si7 0.167644 0.332168 0.312560
Si Si8 0.672152 0.689314 0.592558
O O1 0.500000 0.331891 0.044901
O O2 0.334645 0.250000 0.044681
O O3 0.251056 0.331010 0.090251
O O4 0.250000 0.331774 0.000000
O O5 0.668259 0.542142 0.468184
O O6 0.500000 0.531192 0.340774
O O7 0.750000 0.500000 0.313889
O O8 0.722273 0.561759 0.385108
O O9 0.669171 0.603820 0.310318
O O10 0.500000 0.105371 0.576559
O O11 0.759954 0.141792 0.562448
O O12 0.500000 0.167890 0.865597
O O13 0.336183 0.250000 0.864292
O O14 0.252833 0.165590 0.819899
O O15 0.145345 0.750000 0.211324
O O16 0.248176 0.685926 0.268536
O O17 0.000000 0.665109 0.226246
O O18 0.249405 0.315701 0.358569
O O19 0.000000 0.315267 0.313935
O O20 0.500000 0.681693 0.597213
O O21 0.696278 0.750000 0.576128
#
# Coordination Sequence:
#
# PCOD9501021 Si02
#       8
#    16   4  16  16  16  16  16  16
#     4   9  15  22  32  46  65  92 131 180 230 279
#     4  12  22  40  62  86 110 132 164 204 242 292
#     4   9  18  33  50  72  98 123 151 185 225 270
#     4  10  22  37  57  84 108 134 164 198 240 284
#     4   9  16  25  36  50  71 102 139 182 232 278
#     4  10  19  29  41  60  86 116 152 191 231 276
#     4  10  20  32  48  72  97 124 158 193 232 278
#     4  10  21  37  56  78 104 134 167 201 239 283
#
# _framework density 16.71895
#
# number of rings (size 3 to 8) (size 9 to 14) (size 15 to 20)
#    0.000    2.345    0.690    3.517    0.000   10.759 
#    0.000    0.345    0.000    0.000    0.000    0.000 
#    0.000    0.000    0.000    0.000    0.000    0.690 
#
# Total GULP energy -323016.300215 kJ/mol
# GULP energy per Si atom -5569.246555 kJ/mol
# Density = 1.668090 g / cm^3
# Si number density = 16.718950 Si / 1000 Ang^3
#
#
#
# Elastic Constant Matrix: (Units=GPa)
#
#
# Indices 1 2 3 4 5 6 
#
# 1 118.7237 37.2844 35.6097 0.0000 0.0000 0.0000
# 2 37.2844 71.2067 10.7904 0.0000 0.0000 0.0000
# 3 35.6097 10.7904 69.9237 0.0000 0.0000 0.0000
# 4 0.0000 0.0000 0.0000 3.7875 0.0000 0.0000
# 5 0.0000 0.0000 0.0000 0.0000 -7.0258 0.0000
# 6 0.0000 0.0000 0.0000 0.0000 0.0000 17.2577
#
#
#
# Elastic Compliance Matrix: (Units=1/GPa)
#
#
# Indices 1 2 3 4 5 6 
#
# 1 0.011620 -0.005312 -0.005098 0.000000 0.000000 0.000000
# 2 -0.005312 0.016808 0.000111 0.000000 0.000000 0.000000
# 3 -0.005098 0.000111 0.016880 0.000000 0.000000 0.000000
# 4 0.000000 0.000000 0.000000 0.264029 0.000000 0.000000
# 5 0.000000 0.000000 0.000000 0.000000 -0.142333 0.000000
# 6 0.000000 0.000000 0.000000 0.000000 0.000000 0.057945
#
#
# Mechanical properties :
#
#
# Convention : Reuss Voigt Hill
#
# Bulk Modulus (GPa) = 40.46688 47.46923 43.96805
# Shear Modulus (GPa) = 19.70177 14.54851 17.12514
#
# Velocity S-wave (km/s) = 3.43652 2.95308 3.20393
# Velocity P-wave (km/s) = 6.32479 6.33101 6.32790
#
# Compressibility (1/GPa) = 0.02471157
#
# Stress axis : x y z
#
# Youngs Moduli (GPa) = 86.05730 59.49519 59.24041
#
# Poissons Ratio (x) = 0.31603 0.30201
# Poissons Ratio (y) = 0.45713 -0.00660
# Poissons Ratio (z) = 0.43872 -0.00663
#
# Static dielectric constant tensor:
#      x y z
#    x 1.588420 0.000000 0.000000 
#    y 0.000000 1.575260 0.000000 
#    z 0.000000 0.000000 1.567240 
# 
# From -- ./inp_files/45422.got.cif
#   From: 2010.05.17/outbox.cif.g08.bks.cpg/sg67_23_cif.got.tgz:45422.got - 2010.06.03 18:28:57.
