data_PCOD9501979
_publ_section_title
;
Structure prediction by ZEFSAII (Michael W. Deem and Ramdas Pophale) SiO2 
 PCOD9501979
Probable space group: C M M A
;
_chemical_formula_sum "Si O2"
_cell_formula_units_Z 100
_cell_length_a 9.005535
_cell_length_b 29.743065
_cell_length_c 20.980984
_cell_angle_alpha 90.000000
_cell_angle_beta 90.000000
_cell_angle_gamma 90.000000
_cell_volume 5619.802992
_symmetry_space_group_name_H-M "C M M A"
_symmetry_group_IT_number 67
_symmetry_cell_setting 'orthorhombic'
loop_
_space_group_symop_operation_xyz
x,y,z
-x,1/2-y,z
x,-y,-z
-x,1/2+y,-z
-x,-y,-z
x,1/2+y,-z
-x,y,z
x,1/2-y,z
1/2+x,1/2+y,z
1/2-x,-y,z
1/2+x,1/2-y,-z
1/2-x,y,-z
1/2-x,1/2-y,-z
1/2+x,y,-z
1/2-x,1/2+y,z
1/2+x,-y,z
loop_
_atom_site_type_symbol
_atom_site_label
_atom_site_fract_x
_atom_site_fract_y
_atom_site_fract_z
Si Si1 0.320777 0.140542 0.695867
Si Si2 0.162770 0.657020 0.437287
Si Si3 0.827244 0.545747 0.750838
Si Si4 0.677861 0.303258 0.819913
Si Si5 0.000000 0.250000 0.554436
Si Si6 0.822251 0.358376 0.935060
Si Si7 0.325644 0.546984 0.095322
O O1 0.500000 0.140550 0.691452
O O2 0.251991 0.150253 0.627587
O O3 0.269262 0.091745 0.720723
O O4 0.281244 0.176611 0.750718
O O5 0.250000 0.641863 0.500000
O O6 0.000000 0.634593 0.433080
O O7 0.125999 0.709866 0.444121
O O8 0.750000 0.500000 0.730205
O O9 0.816874 0.549054 0.827562
O O10 0.000000 0.542517 0.734829
O O11 0.500000 0.310819 0.828478
O O12 0.705909 0.250000 0.822778
O O13 0.763664 0.330060 0.874834
O O14 0.761503 0.409326 0.928335
O O15 0.000000 0.358009 0.938247
O O16 0.750000 0.339709 0.000000
O O17 0.500000 0.548557 0.077207
O O18 0.250000 0.500000 0.075735
#
# Coordination Sequence:
#
# PCOD9501979 Si02
#       7
#    16  16  16  16   4  16  16
#     4  10  20  37  60  87 119 155 190 234 286 342
#     4  10  21  36  54  82 117 158 195 240 282 339
#     4   9  18  33  57  85 117 150 187 229 281 339
#     4  10  22  41  62  85 114 151 193 239 291 348
#     4   8  22  36  54  80 122 154 204 234 292 332
#     4  12  25  41  61  83 112 152 194 242 295 349
#     4  10  19  36  59  87 120 149 188 234 289 352
#
# _framework density 17.794218000000001
#
# number of rings (size 3 to 8) (size 9 to 14) (size 15 to 20)
#    0.480    1.440    1.600    2.640    1.120    2.880 
#    0.000    1.600    0.000    0.480    0.000    3.360 
#    0.000    0.000    0.000    0.000    0.000    0.000 
#
# Total GULP energy -278412.413469 kJ/mol
# GULP energy per Si atom -5568.248269 kJ/mol
# Density = 1.775372 g / cm^3
# Si number density = 17.794218 Si / 1000 Ang^3
#
#
#
# Elastic Constant Matrix: (Units=GPa)
#
#
# Indices 1 2 3 4 5 6 
#
# 1 95.1200 55.8064 69.4805 0.0000 0.0000 0.0000
# 2 55.8064 96.0435 52.6201 0.0000 0.0000 0.0000
# 3 69.4805 52.6201 131.0110 0.0000 0.0000 0.0000
# 4 0.0000 0.0000 0.0000 33.4881 0.0000 0.0000
# 5 0.0000 0.0000 0.0000 0.0000 14.6597 0.0000
# 6 0.0000 0.0000 0.0000 0.0000 0.0000 30.0401
#
#
#
# Elastic Compliance Matrix: (Units=1/GPa)
#
#
# Indices 1 2 3 4 5 6 
#
# 1 0.020885 -0.007779 -0.007952 0.000000 0.000000 0.000000
# 2 -0.007779 0.016247 -0.002400 0.000000 0.000000 0.000000
# 3 -0.007952 -0.002400 0.012814 0.000000 0.000000 0.000000
# 4 0.000000 0.000000 0.000000 0.029861 0.000000 0.000000
# 5 0.000000 0.000000 0.000000 0.000000 0.068214 0.000000
# 6 0.000000 0.000000 0.000000 0.000000 0.000000 0.033289
#
#
# Mechanical properties :
#
#
# Convention : Reuss Voigt Hill
#
# Bulk Modulus (GPa) = 73.07481 75.33206 74.20343
# Shear Modulus (GPa) = 22.50895 25.25542 23.88218
#
# Velocity S-wave (km/s) = 3.56048 3.77145 3.66749
# Velocity P-wave (km/s) = 7.61961 7.83532 7.72822
#
# Compressibility (1/GPa) = 0.01368461
#
# Stress axis : x y z
#
# Youngs Moduli (GPa) = 47.88034 61.55072 78.03822
#
# Poissons Ratio (x) = 0.47879 0.62057
# Poissons Ratio (y) = 0.37245 0.18730
# Poissons Ratio (z) = 0.38075 0.14773
#
# Static dielectric constant tensor:
#      x y z
#    x 1.617200 0.000000 0.000000 
#    y 0.000000 1.594100 0.000000 
#    z 0.000000 0.000000 1.601670 
# 
# From -- ./inp_files/37292.got.cif
#   From: 2010.05.17/outbox.cif.g08.bks.cpg/sg67_19_cif.got.tgz:37292.got - 2010.06.03 18:28:57.
