data_PCOD9501093
_publ_section_title
;
Structure prediction by ZEFSAII (Michael W. Deem and Ramdas Pophale) SiO2 
 PCOD9501093
Probable space group: C M M A
;
_chemical_formula_sum "Si O2"
_cell_formula_units_Z 112
_cell_length_a 29.986625
_cell_length_b 14.859105
_cell_length_c 12.266064
_cell_angle_alpha 90.000000
_cell_angle_beta 90.000000
_cell_angle_gamma 90.000000
_cell_volume 5465.444223
_symmetry_space_group_name_H-M "C M M A"
_symmetry_group_IT_number 67
_symmetry_cell_setting 'orthorhombic'
loop_
_space_group_symop_operation_xyz
x,y,z
-x,1/2-y,z
x,-y,-z
-x,1/2+y,-z
-x,-y,-z
x,1/2+y,-z
-x,y,z
x,1/2-y,z
1/2+x,1/2+y,z
1/2-x,-y,z
1/2+x,1/2-y,-z
1/2-x,y,-z
1/2-x,1/2-y,-z
1/2+x,y,-z
1/2-x,1/2+y,z
1/2+x,-y,z
loop_
_atom_site_type_symbol
_atom_site_label
_atom_site_fract_x
_atom_site_fract_y
_atom_site_fract_z
Si Si1 0.142643 0.605785 0.515858
Si Si2 0.448786 0.990714 0.750305
Si Si3 0.803604 0.644985 0.739178
Si Si4 0.447827 0.354361 0.052747
Si Si5 0.549101 0.649911 0.555396
Si Si6 0.274159 0.642966 0.608826
Si Si7 0.608992 0.642807 0.165179
O O1 0.138646 0.500000 0.500000
O O2 0.169449 0.634490 0.624205
O O3 0.093450 0.646116 0.515489
O O4 0.173571 0.631792 0.411698
O O5 0.500000 0.019939 0.761857
O O6 0.438304 0.924392 0.851386
O O7 0.445781 0.928927 0.643506
O O8 0.417463 0.076853 0.754268
O O9 0.797727 0.750000 0.765039
O O10 0.754386 0.607475 0.711275
O O11 0.839269 0.612276 0.827922
O O12 0.500000 0.366755 0.019997
O O13 0.443458 0.250000 0.088849
O O14 0.415275 0.368230 0.950795
O O15 0.500000 0.638171 0.501996
O O16 0.548331 0.750000 0.607022
O O17 0.266662 0.750000 0.608717
O O18 0.250000 0.605481 0.500000
O O19 0.606354 0.750000 0.192288
#
# Coordination Sequence:
#
# PCOD9501093 Si02
#       7
#    16  16  16  16  16  16  16
#     4  11  20  31  50  74  99 126 162 208 254 299
#     4  10  19  32  49  69  96 131 174 221 258 292
#     4   9  18  32  47  66  96 129 160 199 249 304
#     4   9  17  30  49  72  97 129 172 219 263 306
#     4  10  21  36  52  70  96 134 177 215 250 294
#     4   8  15  29  48  67  89 121 159 198 240 287
#     4  10  19  30  46  71 102 132 161 199 257 319
#
# _framework density 20.492387999999998
#
# number of rings (size 3 to 8) (size 9 to 14) (size 15 to 20)
#    0.000    2.429    0.000    4.286    0.000    6.571 
#    0.000    1.429    0.000    3.429    0.000    1.000 
#    0.000    8.000    0.000    1.143    0.000    1.714 
#
# Total GULP energy -312070.620913 kJ/mol
# GULP energy per Si atom -5572.689659 kJ/mol
# Density = 2.044575 g / cm^3
# Si number density = 20.492388 Si / 1000 Ang^3
#
#
#
# Elastic Constant Matrix: (Units=GPa)
#
#
# Indices 1 2 3 4 5 6 
#
# 1 108.2676 0.7013 30.4295 0.0000 0.0000 0.0000
# 2 0.7013 54.5301 2.7947 0.0000 0.0000 0.0000
# 3 30.4295 2.7947 38.3273 0.0000 0.0000 0.0000
# 4 0.0000 0.0000 0.0000 1.9892 0.0000 0.0000
# 5 0.0000 0.0000 0.0000 0.0000 25.8803 0.0000
# 6 0.0000 0.0000 0.0000 0.0000 0.0000 13.0863
#
#
#
# Elastic Compliance Matrix: (Units=1/GPa)
#
#
# Indices 1 2 3 4 5 6 
#
# 1 0.011895 0.000332 -0.009468 0.000000 0.000000 0.000000
# 2 0.000332 0.018417 -0.001607 0.000000 0.000000 0.000000
# 3 -0.009468 -0.001607 0.033726 0.000000 0.000000 0.000000
# 4 0.000000 0.000000 0.000000 0.502709 0.000000 0.000000
# 5 0.000000 0.000000 0.000000 0.000000 0.038639 0.000000
# 6 0.000000 0.000000 0.000000 0.000000 0.000000 0.076416
#
#
# Mechanical properties :
#
#
# Convention : Reuss Voigt Hill
#
# Bulk Modulus (GPa) = 23.50074 29.88622 26.69348
# Shear Modulus (GPa) = 6.96892 19.33780 13.15336
#
# Velocity S-wave (km/s) = 1.84611 3.07523 2.53626
# Velocity P-wave (km/s) = 4.00463 5.21777 4.65093
#
# Compressibility (1/GPa) = 0.04255186
#
# Stress axis : x y z
#
# Youngs Moduli (GPa) = 84.06610 54.29897 29.65112
#
# Poissons Ratio (x) = -0.01804 0.28075
# Poissons Ratio (y) = -0.02793 0.04764
# Poissons Ratio (z) = 0.79597 0.08724
#
# Static dielectric constant tensor:
#      x y z
#    x 1.797960 0.000000 0.000000 
#    y 0.000000 1.757440 0.000000 
#    z 0.000000 0.000000 1.761990 
# 
# From -- ./inp_files/31186.got.cif
#   From: 2010.05.17/outbox.cif.g08.bks.cpg/sg67_16_cif.got.tgz:31186.got - 2010.06.03 18:28:57.
