data_PCOD9501476
_publ_section_title
;
Structure prediction by ZEFSAII (Michael W. Deem and Ramdas Pophale) SiO2 
 PCOD9501476
Probable space group: C M M A
;
_chemical_formula_sum "Si O2"
_cell_formula_units_Z 116
_cell_length_a 9.227656
_cell_length_b 25.871076
_cell_length_c 25.318426
_cell_angle_alpha 90.000000
_cell_angle_beta 90.000000
_cell_angle_gamma 90.000000
_cell_volume 6044.252387
_symmetry_space_group_name_H-M "C M M A"
_symmetry_group_IT_number 67
_symmetry_cell_setting 'orthorhombic'
loop_
_space_group_symop_operation_xyz
x,y,z
-x,1/2-y,z
x,-y,-z
-x,1/2+y,-z
-x,-y,-z
x,1/2+y,-z
-x,y,z
x,1/2-y,z
1/2+x,1/2+y,z
1/2-x,-y,z
1/2+x,1/2-y,-z
1/2-x,y,-z
1/2-x,1/2-y,-z
1/2+x,y,-z
1/2-x,1/2+y,z
1/2+x,-y,z
loop_
_atom_site_type_symbol
_atom_site_label
_atom_site_fract_x
_atom_site_fract_y
_atom_site_fract_z
Si Si1 0.663277 0.811404 0.449545
Si Si2 0.167883 0.589186 0.807428
Si Si3 0.659763 0.662091 0.952149
Si Si4 0.331149 0.052800 0.686844
Si Si5 0.828336 0.309208 0.773634
Si Si6 0.171541 0.655632 0.345982
Si Si7 0.500000 0.750000 0.898589
Si Si8 0.674068 0.051527 0.092291
O O1 0.500000 0.832666 0.445648
O O2 0.650663 0.750000 0.457823
O O3 0.750000 0.832997 0.500000
O O4 0.750615 0.818836 0.395579
O O5 0.174162 0.563150 0.749863
O O6 0.230615 0.647071 0.800086
O O7 0.268640 0.559054 0.848155
O O8 0.000000 0.589641 0.824890
O O9 0.500000 0.651233 0.974958
O O10 0.624813 0.703842 0.906692
O O11 0.717227 0.606444 0.933943
O O12 0.750000 0.684902 0.000000
O O13 0.500000 0.052123 0.671380
O O14 0.244970 0.100046 0.661309
O O15 0.250000 0.000000 0.674592
O O16 0.798636 0.250000 0.788866
O O17 0.808634 0.315223 0.710176
O O18 0.000000 0.318517 0.784957
O O19 0.000000 0.651972 0.354984
O O20 0.500000 0.046730 0.090820
O O21 0.750000 0.000000 0.070206
#
# Coordination Sequence:
#
# PCOD9501476 Si02
#       8
#    16  16  16  16  16  16   4  16
#     4  10  20  33  50  74 104 137 173 212 258 311
#     4  10  21  36  54  78 109 146 188 228 278 329
#     4   9  20  37  63  89 112 145 186 231 281 332
#     4  10  20  34  53  77 102 134 175 222 266 315
#     4   9  18  33  52  75 106 144 184 228 275 330
#     4  10  19  32  52  76 103 135 173 216 267 322
#     4   8  18  40  66  86 118 140 194 230 282 336
#     4  11  23  39  57  83 117 153 188 231 282 339
#
# _framework density 19.191787000000001
#
# number of rings (size 3 to 8) (size 9 to 14) (size 15 to 20)
#    0.414    1.793    0.000    3.103    0.000    6.345 
#    1.241    1.379    0.000    0.414    0.000    2.897 
#    0.000    0.000    0.000    0.000    0.000    0.000 
#
# Total GULP energy -322979.503379 kJ/mol
# GULP energy per Si atom -5568.612127 kJ/mol
# Density = 1.914811 g / cm^3
# Si number density = 19.191787 Si / 1000 Ang^3
#
#
#
# Elastic Constant Matrix: (Units=GPa)
#
#
# Indices 1 2 3 4 5 6 
#
# 1 88.3244 27.0824 22.2637 0.0000 0.0000 0.0000
# 2 27.0824 101.1107 3.4093 0.0000 0.0000 0.0000
# 3 22.2637 3.4093 43.4157 0.0000 0.0000 0.0000
# 4 0.0000 0.0000 0.0000 4.9928 0.0000 0.0000
# 5 0.0000 0.0000 0.0000 0.0000 9.8971 0.0000
# 6 0.0000 0.0000 0.0000 0.0000 0.0000 34.3838
#
#
#
# Elastic Compliance Matrix: (Units=1/GPa)
#
#
# Indices 1 2 3 4 5 6 
#
# 1 0.014176 -0.003561 -0.006990 0.000000 0.000000 0.000000
# 2 -0.003561 0.010811 0.000977 0.000000 0.000000 0.000000
# 3 -0.006990 0.000977 0.026541 0.000000 0.000000 0.000000
# 4 0.000000 0.000000 0.000000 0.200288 0.000000 0.000000
# 5 0.000000 0.000000 0.000000 0.000000 0.101040 0.000000
# 6 0.000000 0.000000 0.000000 0.000000 0.000000 0.029083
#
#
# Mechanical properties :
#
#
# Convention : Reuss Voigt Hill
#
# Bulk Modulus (GPa) = 30.88311 37.59572 34.23942
# Shear Modulus (GPa) = 12.13946 21.86110 17.00028
#
# Velocity S-wave (km/s) = 2.51775 3.37870 2.97949
# Velocity P-wave (km/s) = 4.95771 5.90363 5.45122
#
# Compressibility (1/GPa) = 0.03238016
#
# Stress axis : x y z
#
# Youngs Moduli (GPa) = 70.54303 92.49767 37.67792
#
# Poissons Ratio (x) = 0.32941 0.26336
# Poissons Ratio (y) = 0.25122 -0.03682
# Poissons Ratio (z) = 0.49307 -0.09040
#
# Static dielectric constant tensor:
#      x y z
#    x 1.702460 0.000000 0.000000 
#    y 0.000000 1.686270 0.000000 
#    z 0.000000 0.000000 1.700230 
# 
# From -- ./inp_files/41093.got.cif
#   From: 2010.05.17/outbox.cif.g08.bks.cpg/sg67_21_cif.got.tgz:41093.got - 2010.06.03 18:28:57.
