data_PCOD9501289
_publ_section_title
;
Structure prediction by ZEFSAII (Michael W. Deem and Ramdas Pophale) SiO2 
 PCOD9501289
Probable space group: C M M A
;
_chemical_formula_sum "Si O2"
_cell_formula_units_Z 112
_cell_length_a 18.401999
_cell_length_b 21.568955
_cell_length_c 16.286265
_cell_angle_alpha 90.000000
_cell_angle_beta 90.000000
_cell_angle_gamma 90.000000
_cell_volume 6464.212195
_symmetry_space_group_name_H-M "C M M A"
_symmetry_group_IT_number 67
_symmetry_cell_setting 'orthorhombic'
loop_
_space_group_symop_operation_xyz
x,y,z
-x,1/2-y,z
x,-y,-z
-x,1/2+y,-z
-x,-y,-z
x,1/2+y,-z
-x,y,z
x,1/2-y,z
1/2+x,1/2+y,z
1/2-x,-y,z
1/2+x,1/2-y,-z
1/2-x,y,-z
1/2-x,1/2-y,-z
1/2+x,y,-z
1/2-x,1/2+y,z
1/2+x,-y,z
loop_
_atom_site_type_symbol
_atom_site_label
_atom_site_fract_x
_atom_site_fract_y
_atom_site_fract_z
Si Si1 0.918066 0.488083 0.266736
Si Si2 0.415700 0.119821 0.870740
Si Si3 0.331096 0.427175 0.021787
Si Si4 0.192576 0.319540 0.240993
Si Si5 0.203797 0.935712 0.205186
Si Si6 0.913352 0.319272 0.398319
Si Si7 0.915422 0.442729 0.452479
O O1 0.906005 0.439230 0.191912
O O2 0.859239 0.542059 0.265371
O O3 0.912954 0.455239 0.354923
O O4 0.000000 0.511613 0.257552
O O5 0.500000 0.136965 0.867053
O O6 0.361520 0.171037 0.835687
O O7 0.390092 0.102754 0.962058
O O8 0.335059 0.419630 0.119111
O O9 0.333321 0.500000 0.000000
O O10 0.250000 0.404237 0.000000
O O11 0.225092 0.250000 0.240169
O O12 0.247936 0.377854 0.235477
O O13 0.138854 0.323379 0.319429
O O14 0.250000 0.000000 0.191581
O O15 0.907995 0.250000 0.431743
O O16 0.888963 0.372698 0.460892
O O17 0.000000 0.328910 0.376551
O O18 0.880173 0.500000 0.500000
O O19 0.000000 0.440790 0.478782
#
# Coordination Sequence:
#
# PCOD9501289 Si02
#       7
#    16  16  16  16  16  16  16
#     4  10  19  31  51  78 104 131 170 216 262 306
#     4  11  20  31  49  77 107 134 168 214 265 312
#     4  11  17  30  47  71 101 134 173 216 256 296
#     4  11  21  33  52  77 103 138 175 215 259 310
#     4  12  19  33  54  73 101 139 177 218 259 311
#     4   9  16  28  48  75 107 138 169 208 258 314
#     4   9  16  28  48  77 109 134 163 207 257 308
#
# _framework density 17.326163999999999
#
# number of rings (size 3 to 8) (size 9 to 14) (size 15 to 20)
#    0.000    1.571    7.143    0.429    0.000    1.714 
#    0.000    1.429    0.000    5.143    0.000    4.000 
#    0.000    0.000    0.000    0.000    0.000    0.000 
#
# Total GULP energy -311742.056920 kJ/mol
# GULP energy per Si atom -5566.822445 kJ/mol
# Density = 1.728673 g / cm^3
# Si number density = 17.326164 Si / 1000 Ang^3
#
#
#
# Elastic Constant Matrix: (Units=GPa)
#
#
# Indices 1 2 3 4 5 6 
#
# 1 49.1626 32.4291 2.5612 0.0000 0.0000 0.0000
# 2 32.4291 130.6398 32.9504 0.0000 0.0000 0.0000
# 3 2.5612 32.9504 22.5759 0.0000 0.0000 0.0000
# 4 0.0000 0.0000 0.0000 18.1055 0.0000 0.0000
# 5 0.0000 0.0000 0.0000 0.0000 6.3647 0.0000
# 6 0.0000 0.0000 0.0000 0.0000 0.0000 17.0598
#
#
#
# Elastic Compliance Matrix: (Units=1/GPa)
#
#
# Indices 1 2 3 4 5 6 
#
# 1 0.025707 -0.008935 0.010124 0.000000 0.000000 0.000000
# 2 -0.008935 0.015220 -0.021200 0.000000 0.000000 0.000000
# 3 0.010124 -0.021200 0.074089 0.000000 0.000000 0.000000
# 4 0.000000 0.000000 0.000000 0.055232 0.000000 0.000000
# 5 0.000000 0.000000 0.000000 0.000000 0.157117 0.000000
# 6 0.000000 0.000000 0.000000 0.000000 0.000000 0.058617
#
#
# Mechanical properties :
#
#
# Convention : Reuss Voigt Hill
#
# Bulk Modulus (GPa) = 13.33435 37.58442 25.45938
# Shear Modulus (GPa) = 11.08645 17.26851 14.17748
#
# Velocity S-wave (km/s) = 2.53231 3.16044 2.86365
# Velocity P-wave (km/s) = 4.03273 5.92091 5.06557
#
# Compressibility (1/GPa) = 0.07499431
#
# Stress axis : x y z
#
# Youngs Moduli (GPa) = 38.89996 65.70408 13.49732
#
# Poissons Ratio (x) = 0.58706 -0.13665
# Poissons Ratio (y) = 0.34757 0.28615
# Poissons Ratio (z) = -0.39384 1.39294
#
# Static dielectric constant tensor:
#      x y z
#    x 1.602780 0.000000 0.000000 
#    y 0.000000 1.651670 0.000000 
#    z 0.000000 0.000000 1.607060 
# 
# From -- ./inp_files/34465.got.cif
#   From: 2010.05.17/outbox.cif.g08.bks.cpg/sg67_18_cif.got.tgz:34465.got - 2010.06.03 18:28:57.
