data_PCOD9501309
_publ_section_title
;
Structure prediction by ZEFSAII (Michael W. Deem and Ramdas Pophale) SiO2 
 PCOD9501309
Probable space group: C M M A
;
_chemical_formula_sum "Si O2"
_cell_formula_units_Z 120
_cell_length_a 14.766189
_cell_length_b 15.912798
_cell_length_c 20.552936
_cell_angle_alpha 90.000000
_cell_angle_beta 90.000000
_cell_angle_gamma 90.000000
_cell_volume 4829.351792
_symmetry_space_group_name_H-M "C M M A"
_symmetry_group_IT_number 67
_symmetry_cell_setting 'orthorhombic'
loop_
_space_group_symop_operation_xyz
x,y,z
-x,1/2-y,z
x,-y,-z
-x,1/2+y,-z
-x,-y,-z
x,1/2+y,-z
-x,y,z
x,1/2-y,z
1/2+x,1/2+y,z
1/2-x,-y,z
1/2+x,1/2-y,-z
1/2-x,y,-z
1/2-x,1/2-y,-z
1/2+x,y,-z
1/2-x,1/2+y,z
1/2+x,-y,z
loop_
_atom_site_type_symbol
_atom_site_label
_atom_site_fract_x
_atom_site_fract_y
_atom_site_fract_z
Si Si1 0.094749 0.384988 0.837354
Si Si2 0.859672 0.101122 0.565328
Si Si3 0.157490 0.446026 0.153037
Si Si4 0.831854 0.750000 0.080537
Si Si5 0.354121 0.345366 0.717017
Si Si6 0.609697 0.097326 0.981959
Si Si7 0.640774 0.402632 0.574975
Si Si8 0.363681 0.342626 0.296129
O O1 0.094354 0.476215 0.867273
O O2 0.171993 0.323467 0.861491
O O3 0.100382 0.400959 0.760440
O O4 0.000000 0.341993 0.855258
O O5 0.750000 0.109100 0.570016
O O6 0.891552 0.132904 0.494808
O O7 0.894607 0.142285 0.630859
O O8 0.878126 0.001914 0.571416
O O9 0.250000 0.500000 0.162972
O O10 0.128447 0.402173 0.219993
O O11 0.150155 0.387051 0.090278
O O12 0.853221 0.827060 0.027611
O O13 0.381034 0.250000 0.730621
O O14 0.390213 0.370719 0.645286
O O15 0.244978 0.348710 0.707212
O O16 0.500000 0.102379 0.982546
O O17 0.636925 0.000000 0.000000
O O18 0.391812 0.250000 0.275820
#
# Coordination Sequence:
#
# PCOD9501309 Si02
#       8
#    16  16  16   8  16  16  16  16
#     4  12  23  40  66  90 117 160 204 246 302 367
#     4   8  14  25  45  76 109 154 201 245 293 347
#     4  12  25  42  63  89 125 159 200 250 307 361
#     4  12  25  46  71  92 123 159 201 256 305 365
#     4  10  21  35  54  83 124 166 200 246 308 364
#     4  11  24  45  70  93 118 156 202 248 305 371
#     4   8  14  26  46  71 111 159 203 238 289 358
#     4  10  19  31  52  83 120 154 192 246 303 353
#
# _framework density 24.848056
#
# number of rings (size 3 to 8) (size 9 to 14) (size 15 to 20)
#    0.000    1.733    3.333    3.200    2.800    0.800 
#    0.000    3.333    0.000    0.000    0.000    8.400 
#    0.000    0.000    0.000    0.000    0.000    0.000 
#
# Total GULP energy -334059.636608 kJ/mol
# GULP energy per Si atom -5567.660610 kJ/mol
# Density = 2.479150 g / cm^3
# Si number density = 24.848056 Si / 1000 Ang^3
#
#
#
# Elastic Constant Matrix: (Units=GPa)
#
#
# Indices 1 2 3 4 5 6 
#
# 1 74.5062 4.7797 -5.5969 0.0000 0.0000 0.0000
# 2 4.7797 98.6276 68.4100 0.0000 0.0000 0.0000
# 3 -5.5969 68.4100 239.7237 0.0000 0.0000 0.0000
# 4 0.0000 0.0000 0.0000 48.8427 0.0000 0.0000
# 5 0.0000 0.0000 0.0000 0.0000 -128.1364 0.0000
# 6 0.0000 0.0000 0.0000 0.0000 0.0000 3.0091
#
#
#
# Elastic Compliance Matrix: (Units=1/GPa)
#
#
# Indices 1 2 3 4 5 6 
#
# 1 0.013539 -0.001091 0.000628 0.000000 0.000000 0.000000
# 2 -0.001091 0.012729 -0.003658 0.000000 0.000000 0.000000
# 3 0.000628 -0.003658 0.005230 0.000000 0.000000 0.000000
# 4 0.000000 0.000000 0.000000 0.020474 0.000000 0.000000
# 5 0.000000 0.000000 0.000000 0.000000 -0.007804 0.000000
# 6 0.000000 0.000000 0.000000 0.000000 0.000000 0.332330
#
#
# Mechanical properties :
#
#
# Convention : Reuss Voigt Hill
#
# Bulk Modulus (GPa) = 43.00260 60.89368 51.94814
# Shear Modulus (GPa) = 12.73907 7.76071 10.24989
#
# Velocity S-wave (km/s) = 2.26670 1.76919 2.03322
# Velocity P-wave (km/s) = 4.91878 5.36032 5.14429
#
# Compressibility (1/GPa) = 0.02325441
#
# Stress axis : x y z
#
# Youngs Moduli (GPa) = 73.86143 78.55868 191.20380
#
# Poissons Ratio (x) = 0.08574 -0.11999
# Poissons Ratio (y) = 0.08061 0.69943
# Poissons Ratio (z) = -0.04635 0.28737
#
# Static dielectric constant tensor:
#      x y z
#    x 2.127200 0.000000 0.000000 
#    y 0.000000 1.934540 0.000000 
#    z 0.000000 0.000000 1.977510 
# 
# From -- ./inp_files/39362.got.cif
#   From: 2010.05.17/outbox.cif.g08.bks.cpg/sg67_20_cif.got.tgz:39362.got - 2010.06.03 18:28:57.
