data_PCOD9501756
_publ_section_title
;
Structure prediction by ZEFSAII (Michael W. Deem and Ramdas Pophale) SiO2 
 PCOD9501756
Probable space group: C M M A
;
_chemical_formula_sum "Si O2"
_cell_formula_units_Z 88
_cell_length_a 33.277799
_cell_length_b 8.607887
_cell_length_c 14.976476
_cell_angle_alpha 90.000000
_cell_angle_beta 90.000000
_cell_angle_gamma 90.000000
_cell_volume 4290.034515
_symmetry_space_group_name_H-M "C M M A"
_symmetry_group_IT_number 67
_symmetry_cell_setting 'orthorhombic'
loop_
_space_group_symop_operation_xyz
x,y,z
-x,1/2-y,z
x,-y,-z
-x,1/2+y,-z
-x,-y,-z
x,1/2+y,-z
-x,y,z
x,1/2-y,z
1/2+x,1/2+y,z
1/2-x,-y,z
1/2+x,1/2-y,-z
1/2-x,y,-z
1/2-x,1/2-y,-z
1/2+x,y,-z
1/2-x,1/2+y,z
1/2+x,-y,z
loop_
_atom_site_type_symbol
_atom_site_label
_atom_site_fract_x
_atom_site_fract_y
_atom_site_fract_z
Si Si1 0.371740 0.424074 0.579167
Si Si2 0.567895 0.927505 0.265418
Si Si3 0.706844 0.436546 0.148532
Si Si4 0.708971 0.061837 0.649163
Si Si5 0.618639 0.562067 0.096219
Si Si6 0.000000 0.934434 0.396407
O O1 0.396588 0.500000 0.500000
O O2 0.365170 0.250000 0.548933
O O3 0.392727 0.420781 0.673335
O O4 0.329027 0.500572 0.595552
O O5 0.553005 0.750000 0.251852
O O6 0.585897 0.988566 0.171695
O O7 0.536953 0.014129 0.331270
O O8 0.707328 0.250000 0.142839
O O9 0.750000 0.500000 0.111587
O O10 0.706323 0.494247 0.251020
O O11 0.664388 0.499734 0.110588
O O12 0.708102 0.250000 0.654037
O O13 0.750000 0.000000 0.609377
O O14 0.620248 0.750000 0.099615
O O15 0.605550 0.500000 0.000000
O O16 0.000000 0.750000 0.406492
O O17 0.000000 0.000000 0.500000
#
# Coordination Sequence:
#
# PCOD9501756 Si02
#       6
#    16  16  16  16  16   8
#     4  10  21  36  56  83 116 156 202 250 305 368
#     4  10  22  44  68  92 128 167 202 255 317 373
#     4  11  21  35  58  87 121 166 217 269 324 374
#     4  10  19  34  52  77 113 156 205 256 311 364
#     4  11  23  42  66  95 130 167 214 264 318 380
#     4  12  26  44  71 106 137 166 209 254 306 378
#
# _framework density 20.512654000000001
#
# number of rings (size 3 to 8) (size 9 to 14) (size 15 to 20)
#    0.000    1.455    1.818    5.182    0.000    5.818 
#    0.000    4.091    0.000    0.000    0.000    0.000 
#    0.000    0.000    0.000    0.000    0.000    0.000 
#
# Total GULP energy -245166.656199 kJ/mol
# GULP energy per Si atom -5571.969459 kJ/mol
# Density = 2.046597 g / cm^3
# Si number density = 20.512654 Si / 1000 Ang^3
#
#
#
# Elastic Constant Matrix: (Units=GPa)
#
#
# Indices 1 2 3 4 5 6 
#
# 1 105.7259 37.4868 53.8887 0.0000 0.0000 0.0000
# 2 37.4868 100.7352 42.2038 0.0000 0.0000 0.0000
# 3 53.8887 42.2038 156.4491 0.0000 0.0000 0.0000
# 4 0.0000 0.0000 0.0000 15.8223 0.0000 0.0000
# 5 0.0000 0.0000 0.0000 0.0000 13.2398 0.0000
# 6 0.0000 0.0000 0.0000 0.0000 0.0000 36.4396
#
#
#
# Elastic Compliance Matrix: (Units=1/GPa)
#
#
# Indices 1 2 3 4 5 6 
#
# 1 0.012305 -0.003161 -0.003386 0.000000 0.000000 0.000000
# 2 -0.003161 0.012004 -0.002149 0.000000 0.000000 0.000000
# 3 -0.003386 -0.002149 0.008138 0.000000 0.000000 0.000000
# 4 0.000000 0.000000 0.000000 0.063202 0.000000 0.000000
# 5 0.000000 0.000000 0.000000 0.000000 0.075530 0.000000
# 6 0.000000 0.000000 0.000000 0.000000 0.000000 0.027443
#
#
# Mechanical properties :
#
#
# Convention : Reuss Voigt Hill
#
# Bulk Modulus (GPa) = 66.42385 70.00767 68.21576
# Shear Modulus (GPa) = 22.62130 28.38906 25.50518
#
# Velocity S-wave (km/s) = 3.32444 3.72422 3.53000
# Velocity P-wave (km/s) = 6.86936 7.25921 7.06698
#
# Compressibility (1/GPa) = 0.01505483
#
# Stress axis : x y z
#
# Youngs Moduli (GPa) = 81.26934 83.30769 122.88131
#
# Poissons Ratio (x) = 0.26329 0.41605
# Poissons Ratio (y) = 0.25685 0.26413
# Poissons Ratio (z) = 0.27516 0.17907
#
# Static dielectric constant tensor:
#      x y z
#    x 1.803070 0.000000 0.000000 
#    y 0.000000 1.751730 0.000000 
#    z 0.000000 0.000000 1.760070 
# 
# From -- ./inp_files/36183.got.cif
#   From: 2010.05.17/outbox.cif.g08.bks.cpg/sg67_19_cif.got.tgz:36183.got - 2010.06.03 18:28:57.
