data_PCOD9501982
_publ_section_title
;
Structure prediction by ZEFSAII (Michael W. Deem and Ramdas Pophale) SiO2 
 PCOD9501982
Probable space group: C M M A
;
_chemical_formula_sum "Si O2"
_cell_formula_units_Z 64
_cell_length_a 16.332929
_cell_length_b 24.023052
_cell_length_c 7.554144
_cell_angle_alpha 90.000000
_cell_angle_beta 90.000000
_cell_angle_gamma 90.000000
_cell_volume 2963.995328
_symmetry_space_group_name_H-M "C M M A"
_symmetry_group_IT_number 67
_symmetry_cell_setting 'orthorhombic'
loop_
_space_group_symop_operation_xyz
x,y,z
-x,1/2-y,z
x,-y,-z
-x,1/2+y,-z
-x,-y,-z
x,1/2+y,-z
-x,y,z
x,1/2-y,z
1/2+x,1/2+y,z
1/2-x,-y,z
1/2+x,1/2-y,-z
1/2-x,y,-z
1/2-x,1/2-y,-z
1/2+x,y,-z
1/2-x,1/2+y,z
1/2+x,-y,z
loop_
_atom_site_type_symbol
_atom_site_label
_atom_site_fract_x
_atom_site_fract_y
_atom_site_fract_z
Si Si1 0.341558 0.628333 0.197981
Si Si2 0.907276 0.250000 0.266805
Si Si3 0.500000 0.434159 0.223563
Si Si4 0.000000 0.062995 0.210626
Si Si5 0.836956 0.371470 0.777433
Si Si6 0.666571 0.750000 0.620999
O O1 0.360523 0.693875 0.214796
O O2 0.418552 0.594704 0.270944
O O3 0.254695 0.612085 0.282526
O O4 0.337100 0.618565 0.988006
O O5 0.905787 0.250000 0.478622
O O6 0.000000 0.250000 0.196260
O O7 0.500000 0.499184 0.267731
O O8 0.582445 0.403350 0.287853
O O9 0.500000 0.433226 0.006132
O O10 0.840393 0.305926 0.734057
O O11 0.750000 0.750000 0.500000
#
# Coordination Sequence:
#
# PCOD9501982 Si02
#       6
#    16   8   8   8  16   8
#     4  10  19  36  60  83 113 143 188 230 281 335
#     4  12  23  35  55  86 110 152 181 228 281 345
#     4   9  20  35  55  84 116 141 186 233 284 331
#     4   9  18  35  57  86 110 143 186 239 280 327
#     4  10  21  36  56  85 114 148 180 232 282 333
#     4  12  23  37  54  83 118 151 182 228 278 348
#
# _framework density 21.592478
#
# number of rings (size 3 to 8) (size 9 to 14) (size 15 to 20)
#    0.000    1.750    3.750    0.750    1.750    3.000 
#    0.000    5.000    0.000    3.000    0.000    0.000 
#    0.000    0.000    0.000    0.000    0.000    0.000 
#
# Total GULP energy -178635.289352 kJ/mol
# GULP energy per Si atom -5582.352792 kJ/mol
# Density = 2.154333 g / cm^3
# Si number density = 21.592478 Si / 1000 Ang^3
#
#
#
# Elastic Constant Matrix: (Units=GPa)
#
#
# Indices 1 2 3 4 5 6 
#
# 1 249.5919 117.0822 11.8350 0.0000 0.0000 0.0000
# 2 117.0822 149.8392 -6.7759 0.0000 0.0000 0.0000
# 3 11.8350 -6.7759 44.2458 0.0000 0.0000 0.0000
# 4 0.0000 0.0000 0.0000 -52.3565 0.0000 0.0000
# 5 0.0000 0.0000 0.0000 0.0000 10.9525 0.0000
# 6 0.0000 0.0000 0.0000 0.0000 0.0000 1.8245
#
#
#
# Elastic Compliance Matrix: (Units=1/GPa)
#
#
# Indices 1 2 3 4 5 6 
#
# 1 0.006604 -0.005277 -0.002574 0.000000 0.000000 0.000000
# 2 -0.005277 0.010936 0.003086 0.000000 0.000000 0.000000
# 3 -0.002574 0.003086 0.023762 0.000000 0.000000 0.000000
# 4 0.000000 0.000000 0.000000 -0.019100 0.000000 0.000000
# 5 0.000000 0.000000 0.000000 0.000000 0.091304 0.000000
# 6 0.000000 0.000000 0.000000 0.000000 0.000000 0.548086
#
#
# Mechanical properties :
#
#
# Convention : Reuss Voigt Hill
#
# Bulk Modulus (GPa) = 31.47341 76.43995 53.95668
# Shear Modulus (GPa) = 7.33446 13.51980 10.42713
#
# Velocity S-wave (km/s) = 1.84503 2.50498 2.19990
# Velocity P-wave (km/s) = 4.37568 6.62153 5.61210
#
# Compressibility (1/GPa) = 0.03177286
#
# Stress axis : x y z
#
# Youngs Moduli (GPa) = 151.42757 91.43774 42.08355
#
# Poissons Ratio (x) = 0.48248 0.10834
# Poissons Ratio (y) = 0.79902 -0.12988
# Poissons Ratio (z) = 0.38985 -0.28220
#
# Static dielectric constant tensor:
#      x y z
#    x 1.831550 0.000000 0.000000 
#    y 0.000000 1.751990 0.000000 
#    z 0.000000 0.000000 1.795290 
# 
# From -- ./inp_files/8067.got.cif
#   From: 2010.05.17/outbox.cif.g08.bks.cpg/sg67_5_cif.got.tgz:8067.got - 2010.06.03 18:28:57.
