data_PCOD9501441
_publ_section_title
;
Structure prediction by ZEFSAII (Michael W. Deem and Ramdas Pophale) SiO2 
 PCOD9501441
Probable space group: C M M A
;
_chemical_formula_sum "Si O2"
_cell_formula_units_Z 88
_cell_length_a 25.477942
_cell_length_b 8.607774
_cell_length_c 22.561868
_cell_angle_alpha 90.000000
_cell_angle_beta 90.000000
_cell_angle_gamma 90.000000
_cell_volume 4948.006421
_symmetry_space_group_name_H-M "C M M A"
_symmetry_group_IT_number 67
_symmetry_cell_setting 'orthorhombic'
loop_
_space_group_symop_operation_xyz
x,y,z
-x,1/2-y,z
x,-y,-z
-x,1/2+y,-z
-x,-y,-z
x,1/2+y,-z
-x,y,z
x,1/2-y,z
1/2+x,1/2+y,z
1/2-x,-y,z
1/2+x,1/2-y,-z
1/2-x,y,-z
1/2-x,1/2-y,-z
1/2+x,y,-z
1/2-x,1/2+y,z
1/2+x,-y,z
loop_
_atom_site_type_symbol
_atom_site_label
_atom_site_fract_x
_atom_site_fract_y
_atom_site_fract_z
Si Si1 0.806761 0.062768 0.161524
Si Si2 0.000000 0.437188 0.566064
Si Si3 0.914239 0.937569 0.338714
Si Si4 0.193184 0.064196 0.298204
Si Si5 0.000000 0.063101 0.892992
Si Si6 0.500000 0.938668 0.756249
Si Si7 0.109936 0.436543 0.063219
O O1 0.805427 0.250000 0.161295
O O2 0.815626 0.012065 0.229606
O O3 0.851872 0.011957 0.116503
O O4 0.750000 0.000000 0.142992
O O5 0.000000 0.500000 0.500000
O O6 0.051079 0.484608 0.604413
O O7 0.000000 0.250000 0.564619
O O8 0.911477 0.750000 0.337976
O O9 0.948773 0.987064 0.281277
O O10 0.856208 0.004847 0.335312
O O11 0.194809 0.250000 0.299306
O O12 0.250000 0.000000 0.316806
O O13 0.000000 0.010130 0.824061
O O14 0.000000 0.250000 0.894639
O O15 0.947958 0.000284 0.923972
O O16 0.500000 0.750000 0.756212
O O17 0.108748 0.250000 0.061830
O O18 0.128540 0.500000 0.000000
#
# Coordination Sequence:
#
# PCOD9501441 Si02
#       7
#    16   8  16  16   8   8  16
#     4   9  20  36  54  75 100 128 162 204 253 303
#     4   9  19  34  54  79 110 145 179 211 248 287
#     4   9  17  32  52  77 107 138 170 207 247 293
#     4  10  19  32  51  77 105 135 167 204 251 303
#     4  11  21  34  53  75  96 125 162 202 250 305
#     4   8  16  30  51  76 101 128 160 199 251 306
#     4  11  23  38  52  69  94 126 163 206 252 303
#
# _framework density 17.784941
#
# number of rings (size 3 to 8) (size 9 to 14) (size 15 to 20)
#    0.000    2.364    0.000    3.818    0.000    3.273 
#    0.000    4.091    0.000    0.545    0.000    3.818 
#    0.000    0.000    0.000    0.000    0.000    0.000 
#
# Total GULP energy -245578.573232 kJ/mol
# GULP energy per Si atom -5581.331210 kJ/mol
# Density = 1.774446 g / cm^3
# Si number density = 17.784941 Si / 1000 Ang^3
#
#
#
# Elastic Constant Matrix: (Units=GPa)
#
#
# Indices 1 2 3 4 5 6 
#
# 1 154.6298 31.4475 53.7268 0.0000 0.0000 0.0000
# 2 31.4475 29.9401 21.5793 0.0000 0.0000 0.0000
# 3 53.7268 21.5793 83.9326 0.0000 0.0000 0.0000
# 4 0.0000 0.0000 0.0000 24.3872 0.0000 0.0000
# 5 0.0000 0.0000 0.0000 0.0000 -24.1025 0.0000
# 6 0.0000 0.0000 0.0000 0.0000 0.0000 25.8000
#
#
#
# Elastic Compliance Matrix: (Units=1/GPa)
#
#
# Indices 1 2 3 4 5 6 
#
# 1 0.009303 -0.006726 -0.004226 0.000000 0.000000 0.000000
# 2 -0.006726 0.045859 -0.007485 0.000000 0.000000 0.000000
# 3 -0.004226 -0.007485 0.016544 0.000000 0.000000 0.000000
# 4 0.000000 0.000000 0.000000 0.041005 0.000000 0.000000
# 5 0.000000 0.000000 0.000000 0.000000 -0.041490 0.000000
# 6 0.000000 0.000000 0.000000 0.000000 0.000000 0.038760
#
#
# Mechanical properties :
#
#
# Convention : Reuss Voigt Hill
#
# Bulk Modulus (GPa) = 28.70878 53.55664 41.13271
# Shear Modulus (GPa) = 31.55238 16.00021 23.77629
#
# Velocity S-wave (km/s) = 4.21658 3.00267 3.66030
# Velocity P-wave (km/s) = 6.31533 6.49617 6.40639
#
# Compressibility (1/GPa) = 0.03483255
#
# Stress axis : x y z
#
# Youngs Moduli (GPa) = 107.48960 21.80579 60.44513
#
# Poissons Ratio (x) = 0.14666 0.25544
# Poissons Ratio (y) = 0.72295 0.45245
# Poissons Ratio (z) = 0.45425 0.16322
#
# Static dielectric constant tensor:
#      x y z
#    x 1.588890 0.000000 0.000000 
#    y 0.000000 1.600260 0.000000 
#    z 0.000000 0.000000 1.602130 
# 
# From -- ./inp_files/36972.got.cif
#   From: 2010.05.17/outbox.cif.g08.bks.cpg/sg67_19_cif.got.tgz:36972.got - 2010.06.03 18:28:57.
