data_PCOD9501183
_publ_section_title
;
Structure prediction by ZEFSAII (Michael W. Deem and Ramdas Pophale) SiO2 
 PCOD9501183
Probable space group: C M M A
;
_chemical_formula_sum "Si O2"
_cell_formula_units_Z 96
_cell_length_a 26.274595
_cell_length_b 15.760507
_cell_length_c 12.393011
_cell_angle_alpha 90.000000
_cell_angle_beta 90.000000
_cell_angle_gamma 90.000000
_cell_volume 5131.957485
_symmetry_space_group_name_H-M "C M M A"
_symmetry_group_IT_number 67
_symmetry_cell_setting 'orthorhombic'
loop_
_space_group_symop_operation_xyz
x,y,z
-x,1/2-y,z
x,-y,-z
-x,1/2+y,-z
-x,-y,-z
x,1/2+y,-z
-x,y,z
x,1/2-y,z
1/2+x,1/2+y,z
1/2-x,-y,z
1/2+x,1/2-y,-z
1/2-x,y,-z
1/2-x,1/2-y,-z
1/2+x,y,-z
1/2-x,1/2+y,z
1/2+x,-y,z
loop_
_atom_site_type_symbol
_atom_site_label
_atom_site_fract_x
_atom_site_fract_y
_atom_site_fract_z
Si Si1 0.226181 0.845723 0.638375
Si Si2 0.825024 0.418049 0.744173
Si Si3 0.808151 0.102977 0.983145
Si Si4 0.141891 0.352064 0.525474
Si Si5 0.442285 0.147521 0.644671
Si Si6 0.142150 0.890349 0.798933
O O1 0.247164 0.750000 0.622432
O O2 0.268767 0.903568 0.694037
O O3 0.195640 0.877156 0.532107
O O4 0.180135 0.838486 0.723106
O O5 0.859893 0.383434 0.647739
O O6 0.840658 0.513699 0.770985
O O7 0.824940 0.374925 0.862001
O O8 0.845504 0.131915 0.078055
O O9 0.750000 0.132578 0.000000
O O10 0.806593 0.000000 0.000000
O O11 0.141231 0.250000 0.523654
O O12 0.095442 0.382841 0.450906
O O13 0.500000 0.116490 0.635663
O O14 0.443289 0.250000 0.638873
O O15 0.414526 0.123351 0.756149
#
# Coordination Sequence:
#
# PCOD9501183 Si02
#       6
#    16  16  16  16  16  16
#     4  10  19  31  47  70 106 144 172 205 250 310
#     4  11  19  30  50  72 103 144 174 205 256 304
#     4   9  17  31  49  69 105 147 177 203 250 307
#     4   9  19  34  50  74 106 137 172 210 257 317
#     4   9  19  38  61  77  97 133 169 212 270 315
#     4  10  19  33  52  77 103 132 180 223 249 294
#
# _framework density 18.706312
#
# number of rings (size 3 to 8) (size 9 to 14) (size 15 to 20)
#    0.000    2.333    1.667    3.000    0.000    4.000 
#    0.000    9.167    0.000    5.500    0.000    2.333 
#    0.000    0.000    0.000    0.000    0.000    0.000 
#
# Total GULP energy -267613.334356 kJ/mol
# GULP energy per Si atom -5575.277799 kJ/mol
# Density = 1.866374 g / cm^3
# Si number density = 18.706312 Si / 1000 Ang^3
#
#
#
# Elastic Constant Matrix: (Units=GPa)
#
#
# Indices 1 2 3 4 5 6 
#
# 1 124.6631 12.6524 59.5960 0.0000 0.0000 0.0000
# 2 12.6524 24.3597 11.9670 0.0000 0.0000 0.0000
# 3 59.5960 11.9670 189.9590 0.0000 0.0000 0.0000
# 4 0.0000 0.0000 0.0000 226.6971 0.0000 0.0000
# 5 0.0000 0.0000 0.0000 0.0000 17.7286 0.0000
# 6 0.0000 0.0000 0.0000 0.0000 0.0000 12.6648
#
#
#
# Elastic Compliance Matrix: (Units=1/GPa)
#
#
# Indices 1 2 3 4 5 6 
#
# 1 0.009745 -0.003673 -0.002826 0.000000 0.000000 0.000000
# 2 -0.003673 0.043747 -0.001603 0.000000 0.000000 0.000000
# 3 -0.002826 -0.001603 0.006252 0.000000 0.000000 0.000000
# 4 0.000000 0.000000 0.000000 0.004411 0.000000 0.000000
# 5 0.000000 0.000000 0.000000 0.000000 0.056406 0.000000
# 6 0.000000 0.000000 0.000000 0.000000 0.000000 0.078959
#
#
# Mechanical properties :
#
#
# Convention : Reuss Voigt Hill
#
# Bulk Modulus (GPa) = 22.96818 56.37919 39.67369
# Shear Modulus (GPa) = 21.71650 68.40253 45.05951
#
# Velocity S-wave (km/s) = 3.41092 6.05359 4.91326
# Velocity P-wave (km/s) = 5.27423 8.89189 7.31038
#
# Compressibility (1/GPa) = 0.04353849
#
# Stress axis : x y z
#
# Youngs Moduli (GPa) = 102.61204 22.85867 159.95085
#
# Poissons Ratio (x) = 0.08397 0.45202
# Poissons Ratio (y) = 0.37694 0.25648
# Poissons Ratio (z) = 0.28998 0.03665
#
# Static dielectric constant tensor:
#      x y z
#    x 1.646300 0.000000 0.000000 
#    y 0.000000 1.713800 0.000000 
#    z 0.000000 0.000000 1.698910 
# 
# From -- ./inp_files/19825.got.cif
#   From: 2010.05.17/outbox.cif.g08.bks.cpg/sg67_10_cif.got.tgz:19825.got - 2010.06.03 18:28:57.
