data_PCOD9501474
_publ_section_title
;
Structure prediction by ZEFSAII (Michael W. Deem and Ramdas Pophale) SiO2 
 PCOD9501474
Probable space group: C M M A
;
_chemical_formula_sum "Si O2"
_cell_formula_units_Z 112
_cell_length_a 23.776368
_cell_length_b 15.420475
_cell_length_c 17.702050
_cell_angle_alpha 90.000000
_cell_angle_beta 90.000000
_cell_angle_gamma 90.000000
_cell_volume 6490.330741
_symmetry_space_group_name_H-M "C M M A"
_symmetry_group_IT_number 67
_symmetry_cell_setting 'orthorhombic'
loop_
_space_group_symop_operation_xyz
x,y,z
-x,1/2-y,z
x,-y,-z
-x,1/2+y,-z
-x,-y,-z
x,1/2+y,-z
-x,y,z
x,1/2-y,z
1/2+x,1/2+y,z
1/2-x,-y,z
1/2+x,1/2-y,-z
1/2-x,y,-z
1/2-x,1/2-y,-z
1/2+x,y,-z
1/2-x,1/2+y,z
1/2+x,-y,z
loop_
_atom_site_type_symbol
_atom_site_label
_atom_site_fract_x
_atom_site_fract_y
_atom_site_fract_z
Si Si1 0.848326 0.345323 0.326363
Si Si2 0.567078 0.012882 0.086642
Si Si3 0.269960 0.592375 0.721461
Si Si4 0.066089 0.147919 0.634496
Si Si5 0.882930 0.850690 0.201393
Si Si6 0.158744 0.478826 0.583659
Si Si7 0.064838 0.652799 0.810445
O O1 0.855652 0.250000 0.361865
O O2 0.785511 0.351951 0.292111
O O3 0.854985 0.428208 0.379472
O O4 0.893083 0.354567 0.259286
O O5 0.500000 0.032500 0.087478
O O6 0.598800 0.086809 0.133866
O O7 0.575786 0.922419 0.130070
O O8 0.584565 0.000000 0.000000
O O9 0.250000 0.500000 0.754459
O O10 0.318817 0.633369 0.771778
O O11 0.297380 0.568528 0.639830
O O12 0.079914 0.250000 0.621946
O O13 0.080750 0.129427 0.722729
O O14 0.104557 0.084040 0.585367
O O15 0.000000 0.135629 0.621494
O O16 0.891421 0.750000 0.182360
O O17 0.179205 0.500000 0.500000
O O18 0.070933 0.750000 0.842797
O O19 0.000000 0.643834 0.784661
#
# Coordination Sequence:
#
# PCOD9501474 Si02
#       7
#    16  16  16  16  16  16  16
#     4  10  20  34  54  77  99 129 172 215 254 301
#     4  10  20  32  49  77 109 138 168 203 250 307
#     4   9  18  33  53  75  99 131 171 213 256 301
#     4   9  18  33  53  75  99 133 176 216 254 297
#     4  10  19  32  52  76 102 133 171 214 256 301
#     4  10  21  34  49  73 105 135 166 207 258 311
#     4   9  18  34  55  76  99 130 169 213 256 299
#
# _framework density 17.256439
#
# number of rings (size 3 to 8) (size 9 to 14) (size 15 to 20)
#    0.000    2.429    0.000    3.429    0.000    7.143 
#    0.000    2.143    0.000    5.571    0.000    6.000 
#    0.000    0.000    0.000    0.000    0.000    0.000 
#
# Total GULP energy -312259.234058 kJ/mol
# GULP energy per Si atom -5576.057751 kJ/mol
# Density = 1.721716 g / cm^3
# Si number density = 17.256439 Si / 1000 Ang^3
#
#
#
# Elastic Constant Matrix: (Units=GPa)
#
#
# Indices 1 2 3 4 5 6 
#
# 1 71.0135 43.8228 29.7161 0.0000 0.0000 0.0000
# 2 43.8228 97.9140 50.9927 0.0000 0.0000 0.0000
# 3 29.7161 50.9927 80.1781 0.0000 0.0000 0.0000
# 4 0.0000 0.0000 0.0000 4.9094 0.0000 0.0000
# 5 0.0000 0.0000 0.0000 0.0000 5.3621 0.0000
# 6 0.0000 0.0000 0.0000 0.0000 0.0000 26.7016
#
#
#
# Elastic Compliance Matrix: (Units=1/GPa)
#
#
# Indices 1 2 3 4 5 6 
#
# 1 0.019797 -0.007535 -0.002545 0.000000 0.000000 0.000000
# 2 -0.007535 0.018139 -0.008744 0.000000 0.000000 0.000000
# 3 -0.002545 -0.008744 0.018976 0.000000 0.000000 0.000000
# 4 0.000000 0.000000 0.000000 0.203690 0.000000 0.000000
# 5 0.000000 0.000000 0.000000 0.000000 0.186493 0.000000
# 6 0.000000 0.000000 0.000000 0.000000 0.000000 0.037451
#
#
# Mechanical properties :
#
#
# Convention : Reuss Voigt Hill
#
# Bulk Modulus (GPa) = 51.90779 55.35209 53.62994
# Shear Modulus (GPa) = 9.45868 15.69957 12.57912
#
# Velocity S-wave (km/s) = 2.34375 3.01953 2.70284
# Velocity P-wave (km/s) = 6.12125 6.65602 6.39423
#
# Compressibility (1/GPa) = 0.01926493
#
# Stress axis : x y z
#
# Youngs Moduli (GPa) = 50.51377 55.12986 52.69700
#
# Poissons Ratio (x) = 0.41539 0.13412
# Poissons Ratio (y) = 0.38061 0.46077
# Poissons Ratio (z) = 0.12856 0.48204
#
# Static dielectric constant tensor:
#      x y z
#    x 1.593210 0.000000 0.000000 
#    y 0.000000 1.600290 0.000000 
#    z 0.000000 0.000000 1.558410 
# 
# From -- ./inp_files/30142.got.cif
#   From: 2010.05.17/outbox.cif.g08.bks.cpg/sg67_16_cif.got.tgz:30142.got - 2010.06.03 18:28:57.
