data_PCOD9501645
_publ_section_title
;
Structure prediction by ZEFSAII (Michael W. Deem and Ramdas Pophale) SiO2 
 PCOD9501645
Probable space group: C M M A
;
_chemical_formula_sum "Si O2"
_cell_formula_units_Z 80
_cell_length_a 8.588042
_cell_length_b 18.730197
_cell_length_c 26.983491
_cell_angle_alpha 90.000000
_cell_angle_beta 90.000000
_cell_angle_gamma 90.000000
_cell_volume 4340.448833
_symmetry_space_group_name_H-M "C M M A"
_symmetry_group_IT_number 67
_symmetry_cell_setting 'orthorhombic'
loop_
_space_group_symop_operation_xyz
x,y,z
-x,1/2-y,z
x,-y,-z
-x,1/2+y,-z
-x,-y,-z
x,1/2+y,-z
-x,y,z
x,1/2-y,z
1/2+x,1/2+y,z
1/2-x,-y,z
1/2+x,1/2-y,-z
1/2-x,y,-z
1/2-x,1/2-y,-z
1/2+x,y,-z
1/2-x,1/2+y,z
1/2+x,-y,z
loop_
_atom_site_type_symbol
_atom_site_label
_atom_site_fract_x
_atom_site_fract_y
_atom_site_fract_z
Si Si1 0.687191 0.580207 0.053239
Si Si2 0.689887 0.331815 0.850276
Si Si3 0.311788 0.334107 0.339740
Si Si4 0.186592 0.919992 0.753752
Si Si5 0.313684 0.665483 0.551233
O O1 0.500000 0.577875 0.051529
O O2 0.750000 0.500000 0.060920
O O3 0.737163 0.629682 0.098886
O O4 0.750000 0.605324 0.000000
O O5 0.500000 0.331275 0.849864
O O6 0.742634 0.250000 0.847791
O O7 0.740814 0.376524 0.802360
O O8 0.500000 0.338016 0.337939
O O9 0.270290 0.250000 0.334951
O O10 0.241739 0.379211 0.295362
O O11 0.261568 0.360919 0.394606
O O12 0.000000 0.921987 0.754463
O O13 0.250000 0.000000 0.754833
O O14 0.500000 0.660810 0.549685
O O15 0.272532 0.750000 0.551483
O O16 0.250000 0.633898 0.500000
#
# Coordination Sequence:
#
# PCOD9501645 Si02
#       5
#    16  16  16  16  16
#     4  10  19  33  54  77 105 138 171 208 248 296
#     4   9  19  35  54  77 104 133 167 211 260 305
#     4   9  18  33  52  76 107 138 169 211 260 305
#     4  11  22  36  55  76 101 135 175 215 258 312
#     4   8  14  25  43  69 101 134 166 203 248 298
#
# _framework density 18.431273000000001
#
# number of rings (size 3 to 8) (size 9 to 14) (size 15 to 20)
#    0.000    2.600    0.000    4.200    0.000    2.400 
#    0.000    5.000    0.000    7.200    0.000    4.200 
#    0.000    0.000    0.000    0.000    0.000    0.000 
#
# Total GULP energy -223060.080883 kJ/mol
# GULP energy per Si atom -5576.502022 kJ/mol
# Density = 1.838932 g / cm^3
# Si number density = 18.431273 Si / 1000 Ang^3
#
#
#
# Elastic Constant Matrix: (Units=GPa)
#
#
# Indices 1 2 3 4 5 6 
#
# 1 28.1460 26.6902 41.6194 0.0000 0.0000 0.0000
# 2 26.6902 106.3809 108.3135 0.0000 0.0000 0.0000
# 3 41.6194 108.3135 232.5988 0.0000 0.0000 0.0000
# 4 0.0000 0.0000 0.0000 -277.3873 0.0000 0.0000
# 5 0.0000 0.0000 0.0000 0.0000 15.6419 0.0000
# 6 0.0000 0.0000 0.0000 0.0000 0.0000 10.4903
#
#
#
# Elastic Compliance Matrix: (Units=1/GPa)
#
#
# Indices 1 2 3 4 5 6 
#
# 1 0.050648 -0.006618 -0.005981 0.000000 0.000000 0.000000
# 2 -0.006618 0.018740 -0.007543 0.000000 0.000000 0.000000
# 3 -0.005981 -0.007543 0.008882 0.000000 0.000000 0.000000
# 4 0.000000 0.000000 0.000000 -0.003605 0.000000 0.000000
# 5 0.000000 0.000000 0.000000 0.000000 0.063931 0.000000
# 6 0.000000 0.000000 0.000000 0.000000 0.000000 0.095326
#
#
# Mechanical properties :
#
#
# Convention : Reuss Voigt Hill
#
# Bulk Modulus (GPa) = 26.32422 80.04131 53.18277
# Shear Modulus (GPa) = 17.42971 -37.55083 -10.06056
#
# Velocity S-wave (km/s) = 3.07849 -4.51859 -2.33886
# Velocity P-wave (km/s) = 5.19129 4.03703 4.65012
#
# Compressibility (1/GPa) = 0.03798783
#
# Stress axis : x y z
#
# Youngs Moduli (GPa) = 19.74397 53.36169 112.59066
#
# Poissons Ratio (x) = 0.35313 0.67340
# Poissons Ratio (y) = 0.13066 0.84922
# Poissons Ratio (z) = 0.11809 0.40248
#
# Static dielectric constant tensor:
#      x y z
#    x 1.630310 0.000000 0.000000 
#    y 0.000000 1.607210 0.000000 
#    z 0.000000 0.000000 1.653530 
# 
# From -- ./inp_files/43203.got.cif
#   From: 2010.05.17/outbox.cif.g08.bks.cpg/sg67_22_cif.got.tgz:43203.got - 2010.06.03 18:28:57.
