data_PCOD9501100
_publ_section_title
;
Structure prediction by ZEFSAII (Michael W. Deem and Ramdas Pophale) SiO2 
 PCOD9501100
Probable space group: C M M A
;
_chemical_formula_sum "Si O2"
_cell_formula_units_Z 104
_cell_length_a 27.437507
_cell_length_b 9.244212
_cell_length_c 24.795070
_cell_angle_alpha 90.000000
_cell_angle_beta 90.000000
_cell_angle_gamma 90.000000
_cell_volume 6288.975224
_symmetry_space_group_name_H-M "C M M A"
_symmetry_group_IT_number 67
_symmetry_cell_setting 'orthorhombic'
loop_
_space_group_symop_operation_xyz
x,y,z
-x,1/2-y,z
x,-y,-z
-x,1/2+y,-z
-x,-y,-z
x,1/2+y,-z
-x,y,z
x,1/2-y,z
1/2+x,1/2+y,z
1/2-x,-y,z
1/2+x,1/2-y,-z
1/2-x,y,-z
1/2-x,1/2-y,-z
1/2+x,y,-z
1/2-x,1/2+y,z
1/2+x,-y,z
loop_
_atom_site_type_symbol
_atom_site_label
_atom_site_fract_x
_atom_site_fract_y
_atom_site_fract_z
Si Si1 0.057888 0.413306 0.159978
Si Si2 0.940518 0.916873 0.054287
Si Si3 0.103156 0.077893 0.744274
Si Si4 0.297934 0.916636 0.259674
Si Si5 0.500000 0.424406 0.442585
Si Si6 0.899374 0.423012 0.617001
Si Si7 0.200774 0.416844 0.390942
O O1 0.077744 0.250000 0.163108
O O2 0.076639 0.500429 0.107941
O O3 0.067188 0.500155 0.214727
O O4 0.000000 0.402459 0.152592
O O5 0.924992 0.750000 0.053976
O O6 0.000000 0.916620 0.054922
O O7 0.925752 0.000000 0.000000
O O8 0.102617 0.250000 0.751680
O O9 0.093966 0.048293 0.680960
O O10 0.155432 0.008545 0.756852
O O11 0.299956 0.750000 0.242191
O O12 0.297130 0.915475 0.325354
O O13 0.250000 0.000000 0.241273
O O14 0.500000 0.250000 0.447553
O O15 0.500000 0.500000 0.500000
O O16 0.550200 0.463923 0.412009
O O17 0.891691 0.250000 0.610954
O O18 0.850606 0.504258 0.596566
O O19 0.200823 0.250000 0.409271
O O20 0.250000 0.500000 0.409168
#
# Coordination Sequence:
#
# PCOD9501100 Si02
#       7
#    16  16  16  16   8  16  16
#     4  10  20  31  42  61  92 127 160 198 240 282
#     4   9  16  27  43  61  82 114 157 200 240 283
#     4  10  19  30  47  69  95 126 159 194 237 288
#     4   9  16  27  43  64  93 124 156 190 229 279
#     4  10  22  40  58  76  98 130 169 210 247 288
#     4   9  19  34  52  73  99 130 165 202 246 295
#     4   9  16  27  47  74 102 128 158 194 239 291
#
# _framework density 16.536875999999999
#
# number of rings (size 3 to 8) (size 9 to 14) (size 15 to 20)
#    0.000    2.615    0.000    2.308    1.077    7.692 
#    0.000    0.000    0.000    0.462    0.000    3.231 
#    0.000    0.615    0.000    6.154    0.000    4.308 
#
# Total GULP energy -289725.388067 kJ/mol
# GULP energy per Si atom -5571.642078 kJ/mol
# Density = 1.649924 g / cm^3
# Si number density = 16.536876 Si / 1000 Ang^3
#
#
#
# Elastic Constant Matrix: (Units=GPa)
#
#
# Indices 1 2 3 4 5 6 
#
# 1 85.8921 55.8769 41.7382 0.0000 0.0000 0.0000
# 2 55.8769 124.3881 53.9198 0.0000 0.0000 0.0000
# 3 41.7382 53.9198 55.4195 0.0000 0.0000 0.0000
# 4 0.0000 0.0000 0.0000 16.9476 0.0000 0.0000
# 5 0.0000 0.0000 0.0000 0.0000 -4.1762 0.0000
# 6 0.0000 0.0000 0.0000 0.0000 0.0000 27.3742
#
#
#
# Elastic Compliance Matrix: (Units=1/GPa)
#
#
# Indices 1 2 3 4 5 6 
#
# 1 0.019525 -0.004145 -0.010672 0.000000 0.000000 0.000000
# 2 -0.004145 0.014783 -0.011261 0.000000 0.000000 0.000000
# 3 -0.010672 -0.011261 0.037038 0.000000 0.000000 0.000000
# 4 0.000000 0.000000 0.000000 0.059005 0.000000 0.000000
# 5 0.000000 0.000000 0.000000 0.000000 -0.239454 0.000000
# 6 0.000000 0.000000 0.000000 0.000000 0.000000 0.036531
#
#
# Mechanical properties :
#
#
# Convention : Reuss Voigt Hill
#
# Bulk Modulus (GPa) = 52.11166 63.19661 57.65413
# Shear Modulus (GPa) = -356.66885 15.64011 -170.51437
#
# Velocity S-wave (km/s) = -14.70201 3.07868 -10.16540
# Velocity P-wave (km/s) = 16.01930 7.13696 10.14105
#
# Compressibility (1/GPa) = 0.01918956
#
# Stress axis : x y z
#
# Youngs Moduli (GPa) = 51.21682 67.64668 26.99900
#
# Poissons Ratio (x) = 0.28037 0.28814
# Poissons Ratio (y) = 0.21227 0.30404
# Poissons Ratio (z) = 0.54660 0.76179
#
# Static dielectric constant tensor:
#      x y z
#    x 1.575250 0.000000 0.000000 
#    y 0.000000 1.563050 0.000000 
#    z 0.000000 0.000000 1.538810 
# 
# From -- ./inp_files/42744.got.cif
#   From: 2010.05.17/outbox.cif.g08.bks.cpg/sg67_22_cif.got.tgz:42744.got - 2010.06.03 18:28:57.
