data_PCOD9501860
_publ_section_title
;
Structure prediction by ZEFSAII (Michael W. Deem and Ramdas Pophale) SiO2 
 PCOD9501860
Probable space group: C M M A
;
_chemical_formula_sum "Si O2"
_cell_formula_units_Z 112
_cell_length_a 28.705959
_cell_length_b 13.783562
_cell_length_c 12.557135
_cell_angle_alpha 90.000000
_cell_angle_beta 90.000000
_cell_angle_gamma 90.000000
_cell_volume 4968.486197
_symmetry_space_group_name_H-M "C M M A"
_symmetry_group_IT_number 67
_symmetry_cell_setting 'orthorhombic'
loop_
_space_group_symop_operation_xyz
x,y,z
-x,1/2-y,z
x,-y,-z
-x,1/2+y,-z
-x,-y,-z
x,1/2+y,-z
-x,y,z
x,1/2-y,z
1/2+x,1/2+y,z
1/2-x,-y,z
1/2+x,1/2-y,-z
1/2-x,y,-z
1/2-x,1/2-y,-z
1/2+x,y,-z
1/2-x,1/2+y,z
1/2+x,-y,z
loop_
_atom_site_type_symbol
_atom_site_label
_atom_site_fract_x
_atom_site_fract_y
_atom_site_fract_z
Si Si1 0.664472 0.867939 0.314840
Si Si2 0.726962 0.131855 0.300185
Si Si3 0.143636 0.366002 0.553615
Si Si4 0.085346 0.040579 0.179953
Si Si5 0.450146 0.544532 0.618450
Si Si6 0.099319 0.636765 0.030534
Si Si7 0.795292 0.366896 0.935611
O O1 0.660674 0.750000 0.300737
O O2 0.719075 0.893078 0.313977
O O3 0.643468 0.895754 0.430107
O O4 0.634663 0.921405 0.225361
O O5 0.725972 0.250000 0.301622
O O6 0.690841 0.099349 0.389802
O O7 0.708736 0.098901 0.185426
O O8 0.145831 0.250000 0.551669
O O9 0.097567 0.395030 0.617682
O O10 0.054296 0.032987 0.285831
O O11 0.084957 0.934188 0.126011
O O12 0.073859 0.109633 0.079760
O O13 0.451099 0.500000 0.500000
O O14 0.500000 0.596686 0.632648
O O15 0.094633 0.750000 0.055721
O O16 0.154407 0.612543 0.015311
O O17 0.792842 0.250000 0.931804
O O18 0.750000 0.398343 0.000000
#
# Coordination Sequence:
#
# PCOD9501860 Si02
#       7
#    16  16  16  16  16  16  16
#     4  10  19  34  59  93 133 177 222 268 320 389
#     4   9  17  30  54  88 129 174 215 265 329 387
#     4  10  20  37  62  91 127 170 218 271 333 405
#     4  11  22  40  67  94 125 173 223 267 333 406
#     4  11  24  44  66  90 127 167 212 281 349 401
#     4  10  22  40  63  92 128 168 217 278 334 390
#     4   9  16  29  50  77 113 162 211 258 313 367
#
# _framework density 22.542076000000002
#
# number of rings (size 3 to 8) (size 9 to 14) (size 15 to 20)
#    0.000    2.000    1.429    2.571    0.000    6.000 
#    0.000   10.000    0.000    2.571    0.000    0.000 
#    0.000    2.286    0.000    0.000    0.000    0.000 
#
# Total GULP energy -312940.781321 kJ/mol
# GULP energy per Si atom -5588.228238 kJ/mol
# Density = 2.249077 g / cm^3
# Si number density = 22.542076 Si / 1000 Ang^3
#
#
#
# Elastic Constant Matrix: (Units=GPa)
#
#
# Indices 1 2 3 4 5 6 
#
# 1 74.6167 18.9127 28.7554 0.0000 0.0000 0.0000
# 2 18.9127 100.5853 23.6024 0.0000 0.0000 0.0000
# 3 28.7554 23.6024 128.5621 0.0000 0.0000 0.0000
# 4 0.0000 0.0000 0.0000 23.9677 0.0000 0.0000
# 5 0.0000 0.0000 0.0000 0.0000 -24.0073 0.0000
# 6 0.0000 0.0000 0.0000 0.0000 0.0000 7.7014
#
#
#
# Elastic Compliance Matrix: (Units=1/GPa)
#
#
# Indices 1 2 3 4 5 6 
#
# 1 0.015093 -0.002138 -0.002983 0.000000 0.000000 0.000000
# 2 -0.002138 0.010692 -0.001485 0.000000 0.000000 0.000000
# 3 -0.002983 -0.001485 0.008718 0.000000 0.000000 0.000000
# 4 0.000000 0.000000 0.000000 0.041723 0.000000 0.000000
# 5 0.000000 0.000000 0.000000 0.000000 -0.041654 0.000000
# 6 0.000000 0.000000 0.000000 0.000000 0.000000 0.129847
#
#
# Mechanical properties :
#
#
# Convention : Reuss Voigt Hill
#
# Bulk Modulus (GPa) = 46.96681 49.58947 48.27814
# Shear Modulus (GPa) = 27.06662 17.03191 22.04927
#
# Velocity S-wave (km/s) = 3.46889 2.75173 3.13091
# Velocity P-wave (km/s) = 6.07657 5.66943 5.87653
#
# Compressibility (1/GPa) = 0.02129163
#
# Stress axis : x y z
#
# Youngs Moduli (GPa) = 66.25382 93.52617 114.70207
#
# Poissons Ratio (x) = 0.19995 0.34221
# Poissons Ratio (y) = 0.14164 0.17031
# Poissons Ratio (z) = 0.19767 0.13886
#
# Static dielectric constant tensor:
#      x y z
#    x 1.822610 0.000000 0.000000 
#    y 0.000000 1.869280 0.000000 
#    z 0.000000 0.000000 1.860850 
# 
# From -- ./inp_files/23855.got.cif
#   From: 2010.05.17/outbox.cif.g08.bks.cpg/sg67_12_cif.got.tgz:23855.got - 2010.06.03 18:28:57.
