data_PCOD9501662
_publ_section_title
;
Structure prediction by ZEFSAII (Michael W. Deem and Ramdas Pophale) SiO2 
 PCOD9501662
Probable space group: C M M A
;
_chemical_formula_sum "Si O2"
_cell_formula_units_Z 88
_cell_length_a 8.849644
_cell_length_b 22.640234
_cell_length_c 24.481895
_cell_angle_alpha 90.000000
_cell_angle_beta 90.000000
_cell_angle_gamma 90.000000
_cell_volume 4905.143787
_symmetry_space_group_name_H-M "C M M A"
_symmetry_group_IT_number 67
_symmetry_cell_setting 'orthorhombic'
loop_
_space_group_symop_operation_xyz
x,y,z
-x,1/2-y,z
x,-y,-z
-x,1/2+y,-z
-x,-y,-z
x,1/2+y,-z
-x,y,z
x,1/2-y,z
1/2+x,1/2+y,z
1/2-x,-y,z
1/2+x,1/2-y,-z
1/2-x,y,-z
1/2-x,1/2-y,-z
1/2+x,y,-z
1/2-x,1/2+y,z
1/2+x,-y,z
loop_
_atom_site_type_symbol
_atom_site_label
_atom_site_fract_x
_atom_site_fract_y
_atom_site_fract_z
Si Si1 0.178470 0.639802 0.861510
Si Si2 0.816468 0.182146 0.626915
Si Si3 0.325291 0.320449 0.247524
Si Si4 0.679009 0.250000 0.939998
Si Si5 0.322717 0.564068 0.947190
Si Si6 0.683440 0.062787 0.438893
O O1 0.224583 0.651616 0.799518
O O2 0.215659 0.694906 0.901043
O O3 0.277708 0.589965 0.889273
O O4 0.000000 0.627780 0.865865
O O5 0.766457 0.250000 0.611574
O O6 0.773252 0.170897 0.690100
O O7 0.773114 0.124119 0.591989
O O8 0.000000 0.184332 0.625576
O O9 0.500000 0.340539 0.242884
O O10 0.324523 0.250000 0.238563
O O11 0.500000 0.250000 0.948563
O O12 0.750000 0.250000 0.000000
O O13 0.500000 0.562376 0.955282
O O14 0.250000 0.500000 0.947249
O O15 0.250000 0.596707 0.000000
O O16 0.500000 0.058896 0.439806
O O17 0.750000 0.067401 0.500000
O O18 0.750000 0.000000 0.416552
#
# Coordination Sequence:
#
# PCOD9501662 Si02
#       6
#    16  16  16   8  16  16
#     4  11  21  35  52  76 106 138 171 213 261 314
#     4   8  16  32  54  79 106 140 185 232 275 321
#     4   9  17  32  54  77 101 136 179 219 263 316
#     4  10  22  34  48  72 104 134 165 206 257 308
#     4  11  22  38  57  77  99 131 170 214 264 319
#     4  10  19  33  54  79 111 147 182 223 271 328
#
# _framework density 17.940349999999999
#
# number of rings (size 3 to 8) (size 9 to 14) (size 15 to 20)
#    0.000    2.182    0.909    5.455    0.000    3.273 
#    0.000    2.727    0.000    6.000    0.000    0.000 
#    0.000    0.000    0.000    0.000    0.000    0.000 
#
# Total GULP energy -245073.411838 kJ/mol
# GULP energy per Si atom -5569.850269 kJ/mol
# Density = 1.789952 g / cm^3
# Si number density = 17.940350 Si / 1000 Ang^3
#
#
#
# Elastic Constant Matrix: (Units=GPa)
#
#
# Indices 1 2 3 4 5 6 
#
# 1 76.1094 36.2638 32.7474 0.0000 0.0000 0.0000
# 2 36.2638 103.3731 59.1345 0.0000 0.0000 0.0000
# 3 32.7474 59.1345 91.0594 0.0000 0.0000 0.0000
# 4 0.0000 0.0000 0.0000 28.4543 0.0000 0.0000
# 5 0.0000 0.0000 0.0000 0.0000 31.1444 0.0000
# 6 0.0000 0.0000 0.0000 0.0000 0.0000 13.9338
#
#
#
# Elastic Compliance Matrix: (Units=1/GPa)
#
#
# Indices 1 2 3 4 5 6 
#
# 1 0.016428 -0.003792 -0.003445 0.000000 0.000000 0.000000
# 2 -0.003792 0.016267 -0.009200 0.000000 0.000000 0.000000
# 3 -0.003445 -0.009200 0.018195 0.000000 0.000000 0.000000
# 4 0.000000 0.000000 0.000000 0.035144 0.000000 0.000000
# 5 0.000000 0.000000 0.000000 0.000000 0.032109 0.000000
# 6 0.000000 0.000000 0.000000 0.000000 0.000000 0.071768
#
#
# Mechanical properties :
#
#
# Convention : Reuss Voigt Hill
#
# Bulk Modulus (GPa) = 55.50805 58.53703 57.02254
# Shear Modulus (GPa) = 21.85394 24.19957 23.02676
#
# Velocity S-wave (km/s) = 3.49398 3.67671 3.58651
# Velocity P-wave (km/s) = 6.87639 7.12206 7.00030
#
# Compressibility (1/GPa) = 0.01801541
#
# Stress axis : x y z
#
# Youngs Moduli (GPa) = 60.87061 61.47454 54.95877
#
# Poissons Ratio (x) = 0.23312 0.18935
# Poissons Ratio (y) = 0.23083 0.50562
# Poissons Ratio (z) = 0.20972 0.56557
#
# Static dielectric constant tensor:
#      x y z
#    x 1.615040 0.000000 0.000000 
#    y 0.000000 1.643200 0.000000 
#    z 0.000000 0.000000 1.536340 
# 
# From -- ./inp_files/36960.got.cif
#   From: 2010.05.17/outbox.cif.g08.bks.cpg/sg67_19_cif.got.tgz:36960.got - 2010.06.03 18:28:57.
