data_PCOD9501960
_publ_section_title
;
Structure prediction by ZEFSAII (Michael W. Deem and Ramdas Pophale) SiO2 
 PCOD9501960
Probable space group: C M M A
;
_chemical_formula_sum "Si O2"
_cell_formula_units_Z 72
_cell_length_a 7.781017
_cell_length_b 16.080310
_cell_length_c 29.086313
_cell_angle_alpha 90.000000
_cell_angle_beta 90.000000
_cell_angle_gamma 90.000000
_cell_volume 3639.313382
_symmetry_space_group_name_H-M "C M M A"
_symmetry_group_IT_number 67
_symmetry_cell_setting 'orthorhombic'
loop_
_space_group_symop_operation_xyz
x,y,z
-x,1/2-y,z
x,-y,-z
-x,1/2+y,-z
-x,-y,-z
x,1/2+y,-z
-x,y,z
x,1/2-y,z
1/2+x,1/2+y,z
1/2-x,-y,z
1/2+x,1/2-y,-z
1/2-x,y,-z
1/2-x,1/2-y,-z
1/2+x,y,-z
1/2-x,1/2+y,z
1/2+x,-y,z
loop_
_atom_site_type_symbol
_atom_site_label
_atom_site_fract_x
_atom_site_fract_y
_atom_site_fract_z
Si Si1 0.806466 0.150486 0.788429
Si Si2 0.206538 0.250000 0.053456
Si Si3 0.205603 0.407837 0.112044
Si Si4 0.500000 0.351764 0.722037
Si Si5 0.703217 0.402419 0.449316
Si Si6 0.000000 0.847619 0.618625
O O1 0.782464 0.250000 0.796613
O O2 0.780444 0.106062 0.837117
O O3 0.666786 0.123243 0.751246
O O4 0.000000 0.137350 0.771792
O O5 0.268606 0.333267 0.079303
O O6 0.000000 0.250000 0.057278
O O7 0.250000 0.250000 0.000000
O O8 0.250000 0.500000 0.095037
O O9 0.000000 0.401124 0.115985
O O10 0.500000 0.250000 0.721061
O O11 0.500000 0.384666 0.670010
O O12 0.500000 0.391310 0.440783
O O13 0.750000 0.500000 0.451189
O O14 0.750000 0.367641 0.500000
O O15 0.830292 0.368658 0.410571
O O16 0.000000 0.750000 0.624903
#
# Coordination Sequence:
#
# PCOD9501960 Si02
#       6
#    16   8  16   8  16   8
#     4  10  19  35  64  91 115 161 213 253 306 374
#     4  10  24  42  64  90 130 170 208 260 318 373
#     4  11  22  39  63  93 125 163 209 264 313 370
#     4   9  20  38  59  85 129 164 202 259 312 379
#     4  11  20  39  66  88 116 165 219 256 307 388
#     4  11  24  39  59  95 130 161 200 267 329 361
#
# _framework density 19.783953
#
# number of rings (size 3 to 8) (size 9 to 14) (size 15 to 20)
#    0.000    1.556    4.444    1.333    0.000    4.000 
#    0.000    5.556    0.000    0.000    0.000    0.000 
#    0.000    0.000    0.000    0.000    0.000    0.000 
#
# Total GULP energy -201065.206052 kJ/mol
# GULP energy per Si atom -5585.144613 kJ/mol
# Density = 1.973892 g / cm^3
# Si number density = 19.783953 Si / 1000 Ang^3
#
#
#
# Elastic Constant Matrix: (Units=GPa)
#
#
# Indices 1 2 3 4 5 6 
#
# 1 140.3942 33.2271 58.6743 0.0000 0.0000 0.0000
# 2 33.2271 78.6552 53.4411 0.0000 0.0000 0.0000
# 3 58.6743 53.4411 159.6500 0.0000 0.0000 0.0000
# 4 0.0000 0.0000 0.0000 -30.6733 0.0000 0.0000
# 5 0.0000 0.0000 0.0000 0.0000 24.5889 0.0000
# 6 0.0000 0.0000 0.0000 0.0000 0.0000 17.6797
#
#
#
# Elastic Compliance Matrix: (Units=1/GPa)
#
#
# Indices 1 2 3 4 5 6 
#
# 1 0.008636 -0.001931 -0.002528 0.000000 0.000000 0.000000
# 2 -0.001931 0.016888 -0.004943 0.000000 0.000000 0.000000
# 3 -0.002528 -0.004943 0.008847 0.000000 0.000000 0.000000
# 4 0.000000 0.000000 0.000000 -0.032602 0.000000 0.000000
# 5 0.000000 0.000000 0.000000 0.000000 0.040669 0.000000
# 6 0.000000 0.000000 0.000000 0.000000 0.000000 0.056562
#
#
# Mechanical properties :
#
#
# Convention : Reuss Voigt Hill
#
# Bulk Modulus (GPa) = 64.23536 74.37606 69.30571
# Shear Modulus (GPa) = 40.65233 17.87619 29.26426
#
# Velocity S-wave (km/s) = 4.53792 3.00921 3.85020
# Velocity P-wave (km/s) = 7.74570 7.05333 7.40761
#
# Compressibility (1/GPa) = 0.01556775
#
# Stress axis : x y z
#
# Youngs Moduli (GPa) = 115.79256 59.21300 113.02743
#
# Poissons Ratio (x) = 0.11434 0.28569
# Poissons Ratio (y) = 0.22359 0.55875
# Poissons Ratio (z) = 0.29268 0.29272
#
# Static dielectric constant tensor:
#      x y z
#    x 1.695640 0.000000 0.000000 
#    y 0.000000 1.732220 0.000000 
#    z 0.000000 0.000000 1.680850 
# 
# From -- ./inp_files/43148.got.cif
#   From: 2010.05.17/outbox.cif.g08.bks.cpg/sg67_22_cif.got.tgz:43148.got - 2010.06.03 18:28:57.
