data_PCOD9501235
_publ_section_title
;
Structure prediction by ZEFSAII (Michael W. Deem and Ramdas Pophale) SiO2 
 PCOD9501235
Probable space group: C M M A
;
_chemical_formula_sum "Si O2"
_cell_formula_units_Z 112
_cell_length_a 14.439037
_cell_length_b 24.249690
_cell_length_c 17.657843
_cell_angle_alpha 90.000000
_cell_angle_beta 90.000000
_cell_angle_gamma 90.000000
_cell_volume 6182.755486
_symmetry_space_group_name_H-M "C M M A"
_symmetry_group_IT_number 67
_symmetry_cell_setting 'orthorhombic'
loop_
_space_group_symop_operation_xyz
x,y,z
-x,1/2-y,z
x,-y,-z
-x,1/2+y,-z
-x,-y,-z
x,1/2+y,-z
-x,y,z
x,1/2-y,z
1/2+x,1/2+y,z
1/2-x,-y,z
1/2+x,1/2-y,-z
1/2-x,y,-z
1/2-x,1/2-y,-z
1/2+x,y,-z
1/2-x,1/2+y,z
1/2+x,-y,z
loop_
_atom_site_type_symbol
_atom_site_label
_atom_site_fract_x
_atom_site_fract_y
_atom_site_fract_z
Si Si1 0.726740 0.907642 0.420213
Si Si2 0.105061 0.184560 0.134149
Si Si3 0.609545 0.601957 0.833929
Si Si4 0.104888 0.010499 0.609804
Si Si5 0.112883 0.186314 0.967619
Si Si6 0.895074 0.517425 0.787763
Si Si7 0.719482 0.123862 0.746399
O O1 0.750000 0.878883 0.500000
O O2 0.645364 0.953817 0.425746
O O3 0.704801 0.874623 0.343576
O O4 0.819441 0.943017 0.404787
O O5 0.099180 0.250000 0.127909
O O6 0.167308 0.169445 0.205120
O O7 0.000000 0.163140 0.144045
O O8 0.143341 0.167525 0.051577
O O9 0.500000 0.607899 0.819941
O O10 0.635245 0.640627 0.904895
O O11 0.626508 0.535905 0.839151
O O12 0.672432 0.623147 0.765376
O O13 0.103908 0.003018 0.700651
O O14 0.000000 0.021964 0.585569
O O15 0.143760 0.250000 0.951501
O O16 0.000000 0.188678 0.971131
O O17 0.823775 0.567630 0.782831
O O18 0.000000 0.535917 0.806043
#
# Coordination Sequence:
#
# PCOD9501235 Si02
#       7
#    16  16  16  16  16  16  16
#     4  10  20  30  43  70 103 132 169 213 254 299
#     4   9  19  37  59  80 100 124 164 220 270 308
#     4  10  19  31  49  73 104 140 170 200 249 311
#     4   9  16  29  47  67  96 135 172 206 247 295
#     4   8  16  33  55  78 103 128 159 208 262 305
#     4   9  17  30  48  71 101 137 172 207 250 302
#     4  11  20  32  51  73 102 137 174 211 258 307
#
# _framework density 18.114902000000001
#
# number of rings (size 3 to 8) (size 9 to 14) (size 15 to 20)
#    0.000    2.571    1.429    2.571    0.000    2.857 
#    0.000    2.143    0.000    5.571    0.000    0.000 
#    0.000    2.286    0.000    0.000    0.000    0.000 
#
# Total GULP energy -311913.646618 kJ/mol
# GULP energy per Si atom -5569.886547 kJ/mol
# Density = 1.807367 g / cm^3
# Si number density = 18.114902 Si / 1000 Ang^3
#
#
#
# Elastic Constant Matrix: (Units=GPa)
#
#
# Indices 1 2 3 4 5 6 
#
# 1 72.7624 4.4888 3.6487 0.0000 0.0000 0.0000
# 2 4.4888 37.4669 35.2744 0.0000 0.0000 0.0000
# 3 3.6487 35.2744 90.9727 0.0000 0.0000 0.0000
# 4 0.0000 0.0000 0.0000 -270.2139 0.0000 0.0000
# 5 0.0000 0.0000 0.0000 0.0000 20.8061 0.0000
# 6 0.0000 0.0000 0.0000 0.0000 0.0000 13.7953
#
#
#
# Elastic Compliance Matrix: (Units=1/GPa)
#
#
# Indices 1 2 3 4 5 6 
#
# 1 0.013847 -0.001789 0.000138 0.000000 0.000000 0.000000
# 2 -0.001789 0.042267 -0.016317 0.000000 0.000000 0.000000
# 3 0.000138 -0.016317 0.017314 0.000000 0.000000 0.000000
# 4 0.000000 0.000000 0.000000 -0.003701 0.000000 0.000000
# 5 0.000000 0.000000 0.000000 0.000000 0.048063 0.000000
# 6 0.000000 0.000000 0.000000 0.000000 0.000000 0.072489
#
#
# Mechanical properties :
#
#
# Convention : Reuss Voigt Hill
#
# Bulk Modulus (GPa) = 26.67278 32.00288 29.33783
# Shear Modulus (GPa) = 20.94583 -36.60317 -7.82867
#
# Velocity S-wave (km/s) = 3.40410 -4.50000 -2.08112
# Velocity P-wave (km/s) = 5.49606 3.04877 3.23355
#
# Compressibility (1/GPa) = 0.03749141
#
# Stress axis : x y z
#
# Youngs Moduli (GPa) = 72.21887 23.65922 57.75787
#
# Poissons Ratio (x) = 0.04233 -0.00800
# Poissons Ratio (y) = 0.12922 0.94244
# Poissons Ratio (z) = -0.01000 0.38605
#
# Static dielectric constant tensor:
#      x y z
#    x 1.674340 0.000000 0.000000 
#    y 0.000000 1.619130 0.000000 
#    z 0.000000 0.000000 1.658890 
# 
# From -- ./inp_files/27691.got.cif
#   From: 2010.05.17/outbox.cif.g08.bks.cpg/sg67_14_cif.got.tgz:27691.got - 2010.06.03 18:28:57.
