data_PCOD9501118
_publ_section_title
;
Structure prediction by ZEFSAII (Michael W. Deem and Ramdas Pophale) SiO2 
 PCOD9501118
Probable space group: C M M A
;
_chemical_formula_sum "Si O2"
_cell_formula_units_Z 120
_cell_length_a 27.807749
_cell_length_b 8.684597
_cell_length_c 27.284865
_cell_angle_alpha 90.000000
_cell_angle_beta 90.000000
_cell_angle_gamma 90.000000
_cell_volume 6589.270165
_symmetry_space_group_name_H-M "C M M A"
_symmetry_group_IT_number 67
_symmetry_cell_setting 'orthorhombic'
loop_
_space_group_symop_operation_xyz
x,y,z
-x,1/2-y,z
x,-y,-z
-x,1/2+y,-z
-x,-y,-z
x,1/2+y,-z
-x,y,z
x,1/2-y,z
1/2+x,1/2+y,z
1/2-x,-y,z
1/2+x,1/2-y,-z
1/2-x,y,-z
1/2-x,1/2-y,-z
1/2+x,y,-z
1/2-x,1/2+y,z
1/2+x,-y,z
loop_
_atom_site_type_symbol
_atom_site_label
_atom_site_fract_x
_atom_site_fract_y
_atom_site_fract_z
Si Si1 0.500000 0.066464 0.554589
Si Si2 0.803564 0.431982 0.050304
Si Si3 0.196161 0.436947 0.641277
Si Si4 0.094145 0.929428 0.391715
Si Si5 0.057780 0.075996 0.298065
Si Si6 0.444637 0.069741 0.195158
Si Si7 0.647127 0.932926 0.855148
Si Si8 0.802932 0.435455 0.753449
O O1 0.500000 0.250000 0.554912
O O2 0.500000 0.000000 0.500000
O O3 0.449942 0.011580 0.580064
O O4 0.800649 0.250000 0.045806
O O5 0.750000 0.500000 0.054477
O O6 0.830842 0.479525 0.099389
O O7 0.825076 0.500000 0.000000
O O8 0.198238 0.250000 0.640103
O O9 0.250000 0.500000 0.629676
O O10 0.150340 0.483259 0.607258
O O11 0.184383 0.485835 0.697818
O O12 0.093060 0.750000 0.405277
O O13 0.080017 0.954135 0.335013
O O14 0.073802 0.250000 0.309765
O O15 0.000000 0.071118 0.304012
O O16 0.067822 0.031812 0.242305
O O17 0.500000 0.044714 0.183127
O O18 0.438333 0.250000 0.209604
O O19 0.409588 0.041559 0.150264
O O20 0.656939 0.750000 0.860939
O O21 0.667231 0.980727 0.801563
O O22 0.803222 0.250000 0.752333
O O23 0.750000 0.500000 0.761900
#
# Coordination Sequence:
#
# PCOD9501118 Si02
#       8
#     8  16  16  16  16  16  16  16
#     4  12  26  44  64  90 118 146 184 234 293 344
#     4  11  22  37  56  77 100 126 160 206 262 321
#     4   9  19  34  53  80 114 153 194 228 267 320
#     4  11  21  36  59  84 113 152 192 233 282 337
#     4  10  19  30  47  76 112 147 187 230 271 319
#     4   9  18  32  50  72 103 144 183 218 260 312
#     4  10  19  32  50  73 102 136 176 219 265 319
#     4   9  17  29  45  69 105 143 179 217 254 304
#
# _framework density 18.211424999999998
#
# number of rings (size 3 to 8) (size 9 to 14) (size 15 to 20)
#    0.000    2.000    0.667    4.200    0.000    5.867 
#    0.000    2.667    0.000    0.800    0.000    2.800 
#    0.000    0.000    0.000    0.000    0.000    0.000 
#
# Total GULP energy -334502.026816 kJ/mol
# GULP energy per Si atom -5575.033780 kJ/mol
# Density = 1.816997 g / cm^3
# Si number density = 18.211425 Si / 1000 Ang^3
#
#
#
# Elastic Constant Matrix: (Units=GPa)
#
#
# Indices 1 2 3 4 5 6 
#
# 1 105.2988 42.7681 67.3609 0.0000 0.0000 0.0000
# 2 42.7681 56.2100 32.0285 0.0000 0.0000 0.0000
# 3 67.3609 32.0285 57.2674 0.0000 0.0000 0.0000
# 4 0.0000 0.0000 0.0000 18.0636 0.0000 0.0000
# 5 0.0000 0.0000 0.0000 0.0000 19.6208 0.0000
# 6 0.0000 0.0000 0.0000 0.0000 0.0000 20.8281
#
#
#
# Elastic Compliance Matrix: (Units=1/GPa)
#
#
# Indices 1 2 3 4 5 6 
#
# 1 0.039389 -0.005240 -0.043401 0.000000 0.000000 0.000000
# 2 -0.005240 0.026809 -0.008830 0.000000 0.000000 0.000000
# 3 -0.043401 -0.008830 0.073451 0.000000 0.000000 0.000000
# 4 0.000000 0.000000 0.000000 0.055360 0.000000 0.000000
# 5 0.000000 0.000000 0.000000 0.000000 0.050966 0.000000
# 6 0.000000 0.000000 0.000000 0.000000 0.000000 0.048012
#
#
# Mechanical properties :
#
#
# Convention : Reuss Voigt Hill
#
# Bulk Modulus (GPa) = 40.47470 55.89903 48.18686
# Shear Modulus (GPa) = 11.98565 16.81043 14.39804
#
# Velocity S-wave (km/s) = 2.56821 3.04150 2.81482
# Velocity P-wave (km/s) = 5.57381 6.56471 6.08945
#
# Compressibility (1/GPa) = 0.02470679
#
# Stress axis : x y z
#
# Youngs Moduli (GPa) = 25.38762 37.30144 13.61445
#
# Poissons Ratio (x) = 0.19545 0.59088
# Poissons Ratio (y) = 0.13303 0.12022
# Poissons Ratio (z) = 1.10185 0.32938
#
# Static dielectric constant tensor:
#      x y z
#    x 1.667240 0.000000 0.000000 
#    y 0.000000 1.660670 0.000000 
#    z 0.000000 0.000000 1.611420 
# 
# From -- ./inp_files/45009.got.cif
#   From: 2010.05.17/outbox.cif.g08.bks.cpg/sg67_23_cif.got.tgz:45009.got - 2010.06.03 18:28:57.
