data_PCOD9501894
_publ_section_title
;
Structure prediction by ZEFSAII (Michael W. Deem and Ramdas Pophale) SiO2 
 PCOD9501894
Probable space group: C M M A
;
_chemical_formula_sum "Si O2"
_cell_formula_units_Z 72
_cell_length_a 8.671023
_cell_length_b 15.673807
_cell_length_c 28.795768
_cell_angle_alpha 90.000000
_cell_angle_beta 90.000000
_cell_angle_gamma 90.000000
_cell_volume 3913.573538
_symmetry_space_group_name_H-M "C M M A"
_symmetry_group_IT_number 67
_symmetry_cell_setting 'orthorhombic'
loop_
_space_group_symop_operation_xyz
x,y,z
-x,1/2-y,z
x,-y,-z
-x,1/2+y,-z
-x,-y,-z
x,1/2+y,-z
-x,y,z
x,1/2-y,z
1/2+x,1/2+y,z
1/2-x,-y,z
1/2+x,1/2-y,-z
1/2-x,y,-z
1/2-x,1/2-y,-z
1/2+x,y,-z
1/2-x,1/2+y,z
1/2+x,-y,z
loop_
_atom_site_type_symbol
_atom_site_label
_atom_site_fract_x
_atom_site_fract_y
_atom_site_fract_z
Si Si1 0.684006 0.750000 0.948137
Si Si2 0.314160 0.906847 0.551306
Si Si3 0.815483 0.406920 0.219235
Si Si4 0.184863 0.593309 0.889501
Si Si5 0.314720 0.250000 0.277430
Si Si6 0.187488 0.250000 0.615793
O O1 0.500000 0.750000 0.949407
O O2 0.743722 0.833137 0.920866
O O3 0.750000 0.750000 0.000000
O O4 0.500000 0.910046 0.549233
O O5 0.250000 0.886547 0.500000
O O6 0.265384 0.834183 0.587485
O O7 0.250000 0.000000 0.564096
O O8 0.750000 0.500000 0.231469
O O9 0.776990 0.390911 0.164886
O O10 0.745839 0.333243 0.250866
O O11 0.000000 0.407380 0.223355
O O12 0.250000 0.500000 0.901648
O O13 0.000000 0.593561 0.894067
O O14 0.500000 0.250000 0.276709
O O15 0.261275 0.250000 0.330969
O O16 0.000000 0.250000 0.616132
#
# Coordination Sequence:
#
# PCOD9501894 Si02
#       6
#     8  16  16  16   8   8
#     4  12  25  40  59  85 118 154 191 230 280 335
#     4  10  19  35  56  79 105 136 177 223 271 322
#     4  10  21  38  60  86 114 147 188 234 280 330
#     4  10  21  39  62  87 115 147 188 235 282 331
#     4  11  22  37  56  81 115 152 187 228 279 333
#     4   9  21  37  53  76 110 146 179 220 270 324
#
# _framework density 18.397507999999998
#
# number of rings (size 3 to 8) (size 9 to 14) (size 15 to 20)
#    0.000    1.778    0.000    5.000    0.000    6.667 
#    0.000   10.556    0.000    0.000    0.000    0.000 
#    0.000    0.000    0.000    0.000    0.000    0.000 
#
# Total GULP energy -201198.035071 kJ/mol
# GULP energy per Si atom -5588.834308 kJ/mol
# Density = 1.835563 g / cm^3
# Si number density = 18.397508 Si / 1000 Ang^3
#
#
#
# Elastic Constant Matrix: (Units=GPa)
#
#
# Indices 1 2 3 4 5 6 
#
# 1 80.3609 70.1422 62.6788 0.0000 0.0000 0.0000
# 2 70.1422 199.2179 148.7331 0.0000 0.0000 0.0000
# 3 62.6788 148.7331 146.6416 0.0000 0.0000 0.0000
# 4 0.0000 0.0000 0.0000 -24.4591 0.0000 0.0000
# 5 0.0000 0.0000 0.0000 0.0000 27.1032 0.0000
# 6 0.0000 0.0000 0.0000 0.0000 0.0000 38.1102
#
#
#
# Elastic Compliance Matrix: (Units=1/GPa)
#
#
# Indices 1 2 3 4 5 6 
#
# 1 0.018983 -0.002579 -0.005499 0.000000 0.000000 0.000000
# 2 -0.002579 0.021027 -0.020225 0.000000 0.000000 0.000000
# 3 -0.005499 -0.020225 0.029683 0.000000 0.000000 0.000000
# 4 0.000000 0.000000 0.000000 -0.040885 0.000000 0.000000
# 5 0.000000 0.000000 0.000000 0.000000 0.036896 0.000000
# 6 0.000000 0.000000 0.000000 0.000000 0.000000 0.026240
#
#
# Mechanical properties :
#
#
# Convention : Reuss Voigt Hill
#
# Bulk Modulus (GPa) = 76.39894 109.92541 93.16218
# Shear Modulus (GPa) = 32.69867 17.79528 25.24698
#
# Velocity S-wave (km/s) = 4.22043 3.11346 3.70848
# Velocity P-wave (km/s) = 8.08494 8.53257 8.31177
#
# Compressibility (1/GPa) = 0.01308919
#
# Stress axis : x y z
#
# Youngs Moduli (GPa) = 52.67787 47.55784 33.68947
#
# Poissons Ratio (x) = 0.12263 0.18525
# Poissons Ratio (y) = 0.13583 0.68136
# Poissons Ratio (z) = 0.28966 0.96185
#
# Static dielectric constant tensor:
#      x y z
#    x 1.619020 0.000000 0.000000 
#    y 0.000000 1.602720 0.000000 
#    z 0.000000 0.000000 1.613180 
# 
# From -- ./inp_files/43140.got.cif
#   From: 2010.05.17/outbox.cif.g08.bks.cpg/sg67_22_cif.got.tgz:43140.got - 2010.06.03 18:28:57.
