data_PCOD9501735
_publ_section_title
;
Structure prediction by ZEFSAII (Michael W. Deem and Ramdas Pophale) SiO2 
 PCOD9501735
Probable space group: C M M A
;
_chemical_formula_sum "Si O2"
_cell_formula_units_Z 44
_cell_length_a 12.955049
_cell_length_b 19.380043
_cell_length_c 8.573374
_cell_angle_alpha 90.000000
_cell_angle_beta 90.000000
_cell_angle_gamma 90.000000
_cell_volume 2152.511923
_symmetry_space_group_name_H-M "C M M A"
_symmetry_group_IT_number 67
_symmetry_cell_setting 'orthorhombic'
loop_
_space_group_symop_operation_xyz
x,y,z
-x,1/2-y,z
x,-y,-z
-x,1/2+y,-z
-x,-y,-z
x,1/2+y,-z
-x,y,z
x,1/2-y,z
1/2+x,1/2+y,z
1/2-x,-y,z
1/2+x,1/2-y,-z
1/2-x,y,-z
1/2-x,1/2-y,-z
1/2+x,y,-z
1/2-x,1/2+y,z
1/2+x,-y,z
loop_
_atom_site_type_symbol
_atom_site_label
_atom_site_fract_x
_atom_site_fract_y
_atom_site_fract_z
Si Si1 0.374758 0.750000 0.696286
Si Si2 0.376834 0.397994 0.782913
Si Si3 0.750000 0.000000 0.000000
Si Si4 0.750000 0.137471 0.500000
Si Si5 0.123324 0.750000 0.938455
O O1 0.500000 0.750000 0.684706
O O2 0.325288 0.685163 0.605773
O O3 0.343639 0.750000 0.879832
O O4 0.500000 0.406451 0.776080
O O5 0.323308 0.451893 0.896756
O O6 0.323008 0.404243 0.615677
O O7 0.353695 0.320650 0.847242
O O8 0.000000 0.750000 0.949526
#
# Coordination Sequence:
#
# PCOD9501735 Si02
#       5
#     8  16   4   8   8
#     4  10  19  33  57  96 132 163 204 260 317 373
#     4  11  24  44  66  95 128 165 212 264 312 374
#     4  12  26  44  68  90 124 172 214 256 320 382
#     4  11  22  35  60  90 128 168 208 256 320 374
#     4   9  19  38  66  90 120 161 207 256 304 358
#
# _framework density 20.441234000000001
#
# number of rings (size 3 to 8) (size 9 to 14) (size 15 to 20)
#    0.000    1.455    0.000    6.000    0.000    4.364 
#    0.000    7.273    0.000    0.000    0.000    0.000 
#    0.000    0.000    0.000    0.000    0.000    0.000 
#
# Total GULP energy -123018.510722 kJ/mol
# GULP energy per Si atom -5591.750487 kJ/mol
# Density = 2.039471 g / cm^3
# Si number density = 20.441234 Si / 1000 Ang^3
#
#
#
# Elastic Constant Matrix: (Units=GPa)
#
#
# Indices 1 2 3 4 5 6 
#
# 1 197.7762 60.6730 80.3488 0.0000 0.0000 0.0000
# 2 60.6730 100.2049 57.6278 0.0000 0.0000 0.0000
# 3 80.3488 57.6278 164.6584 0.0000 0.0000 0.0000
# 4 0.0000 0.0000 0.0000 312.0171 0.0000 0.0000
# 5 0.0000 0.0000 0.0000 0.0000 44.2802 0.0000
# 6 0.0000 0.0000 0.0000 0.0000 0.0000 11.8961
#
#
#
# Elastic Compliance Matrix: (Units=1/GPa)
#
#
# Indices 1 2 3 4 5 6 
#
# 1 0.006881 -0.002799 -0.002378 0.000000 0.000000 0.000000
# 2 -0.002799 0.013633 -0.003406 0.000000 0.000000 0.000000
# 3 -0.002378 -0.003406 0.008426 0.000000 0.000000 0.000000
# 4 0.000000 0.000000 0.000000 0.003205 0.000000 0.000000
# 5 0.000000 0.000000 0.000000 0.000000 0.022583 0.000000
# 6 0.000000 0.000000 0.000000 0.000000 0.000000 0.084061
#
#
# Mechanical properties :
#
#
# Convention : Reuss Voigt Hill
#
# Bulk Modulus (GPa) = 84.93050 95.54873 90.23962
# Shear Modulus (GPa) = 31.27376 91.23801 61.25588
#
# Velocity S-wave (km/s) = 3.91568 6.68814 5.48013
# Velocity P-wave (km/s) = 7.87923 10.31921 9.18064
#
# Compressibility (1/GPa) = 0.01177433
#
# Stress axis : x y z
#
# Youngs Moduli (GPa) = 145.32861 73.35352 118.68606
#
# Poissons Ratio (x) = 0.20529 0.28227
# Poissons Ratio (y) = 0.40672 0.40419
# Poissons Ratio (z) = 0.34563 0.24981
#
# Static dielectric constant tensor:
#      x y z
#    x 1.736070 0.000000 0.000000 
#    y 0.000000 1.699090 0.000000 
#    z 0.000000 0.000000 1.729240 
# 
# From -- ./inp_files/7311.got.cif
#   From: 2010.05.17/outbox.cif.g08.bks.cpg/sg67_4_cif.got.tgz:7311.got - 2010.06.03 18:28:57.
