data_PCOD9501701
_publ_section_title
;
Structure prediction by ZEFSAII (Michael W. Deem and Ramdas Pophale) SiO2 
 PCOD9501701
Probable space group: C M M A
;
_chemical_formula_sum "Si O2"
_cell_formula_units_Z 96
_cell_length_a 18.033900
_cell_length_b 25.823039
_cell_length_c 11.724854
_cell_angle_alpha 90.000000
_cell_angle_beta 90.000000
_cell_angle_gamma 90.000000
_cell_volume 5460.148467
_symmetry_space_group_name_H-M "C M M A"
_symmetry_group_IT_number 67
_symmetry_cell_setting 'orthorhombic'
loop_
_space_group_symop_operation_xyz
x,y,z
-x,1/2-y,z
x,-y,-z
-x,1/2+y,-z
-x,-y,-z
x,1/2+y,-z
-x,y,z
x,1/2-y,z
1/2+x,1/2+y,z
1/2-x,-y,z
1/2+x,1/2-y,-z
1/2-x,y,-z
1/2-x,1/2-y,-z
1/2+x,y,-z
1/2-x,1/2+y,z
1/2+x,-y,z
loop_
_atom_site_type_symbol
_atom_site_label
_atom_site_fract_x
_atom_site_fract_y
_atom_site_fract_z
Si Si1 0.688729 0.929130 0.744035
Si Si2 0.859482 0.097006 0.202092
Si Si3 0.586344 0.060075 0.036025
Si Si4 0.412289 0.809909 0.344860
Si Si5 0.670342 0.129812 0.476299
Si Si6 0.628349 0.972740 0.390859
O O1 0.773811 0.920864 0.782617
O O2 0.636864 0.930664 0.854127
O O3 0.664964 0.884362 0.655546
O O4 0.673736 0.981562 0.671109
O O5 0.870931 0.153836 0.253503
O O6 0.907097 0.057856 0.284179
O O7 0.885424 0.091881 0.073225
O O8 0.500000 0.070793 0.059588
O O9 0.593438 0.000000 0.000000
O O10 0.500000 0.813731 0.325303
O O11 0.390458 0.750000 0.339816
O O12 0.391985 0.835109 0.466997
O O13 0.750000 0.154723 0.500000
O O14 0.670485 0.075217 0.547429
O O15 0.588904 0.000000 0.500000
#
# Coordination Sequence:
#
# PCOD9501701 Si02
#       6
#    16  16  16  16  16  16
#     4  11  20  33  55  83 115 155 187 229 281 339
#     4  11  20  35  58  82 107 147 199 241 275 339
#     4  11  24  36  50  78 120 160 194 232 278 340
#     4  10  22  40  61  84 112 148 188 238 299 345
#     4  10  19  33  55  89 111 145 186 235 276 339
#     4   9  18  27  51  81 114 145 183 223 280 339
#
# _framework density 17.581938999999998
#
# number of rings (size 3 to 8) (size 9 to 14) (size 15 to 20)
#    0.000    1.667    5.000    1.500    2.333    1.667 
#    0.000    0.000    0.000    9.000    0.000    2.333 
#    0.000    0.000    0.000    0.000    0.000    0.000 
#
# Total GULP energy -267357.288471 kJ/mol
# GULP energy per Si atom -5569.943510 kJ/mol
# Density = 1.754192 g / cm^3
# Si number density = 17.581939 Si / 1000 Ang^3
#
#
#
# Elastic Constant Matrix: (Units=GPa)
#
#
# Indices 1 2 3 4 5 6 
#
# 1 90.9346 41.5106 56.6257 0.0000 0.0000 0.0000
# 2 41.5106 95.6380 38.2766 0.0000 0.0000 0.0000
# 3 56.6257 38.2766 141.7456 0.0000 0.0000 0.0000
# 4 0.0000 0.0000 0.0000 8.9398 0.0000 0.0000
# 5 0.0000 0.0000 0.0000 0.0000 17.0361 0.0000
# 6 0.0000 0.0000 0.0000 0.0000 0.0000 11.2865
#
#
#
# Elastic Compliance Matrix: (Units=1/GPa)
#
#
# Indices 1 2 3 4 5 6 
#
# 1 0.016596 -0.005101 -0.005253 0.000000 0.000000 0.000000
# 2 -0.005101 0.013291 -0.001551 0.000000 0.000000 0.000000
# 3 -0.005253 -0.001551 0.009572 0.000000 0.000000 0.000000
# 4 0.000000 0.000000 0.000000 0.111860 0.000000 0.000000
# 5 0.000000 0.000000 0.000000 0.000000 0.058699 0.000000
# 6 0.000000 0.000000 0.000000 0.000000 0.000000 0.088601
#
#
# Mechanical properties :
#
#
# Convention : Reuss Voigt Hill
#
# Bulk Modulus (GPa) = 63.89954 66.79378 65.34666
# Shear Modulus (GPa) = 15.26037 20.24616 17.75326
#
# Velocity S-wave (km/s) = 2.94931 3.39710 3.18109
# Velocity P-wave (km/s) = 6.92969 7.31160 7.12321
#
# Compressibility (1/GPa) = 0.01564956
#
# Stress axis : x y z
#
# Youngs Moduli (GPa) = 60.25410 75.23850 104.47035
#
# Poissons Ratio (x) = 0.38381 0.54873
# Poissons Ratio (y) = 0.30737 0.16205
# Poissons Ratio (z) = 0.31649 0.11671
#
# Static dielectric constant tensor:
#      x y z
#    x 1.619210 0.000000 0.000000 
#    y 0.000000 1.603690 0.000000 
#    z 0.000000 0.000000 1.621330 
# 
# From -- ./inp_files/19665.got.cif
#   From: 2010.05.17/outbox.cif.g08.bks.cpg/sg67_10_cif.got.tgz:19665.got - 2010.06.03 18:28:57.
