data_PCOD9501961
_publ_section_title
;
Structure prediction by ZEFSAII (Michael W. Deem and Ramdas Pophale) SiO2 
 PCOD9501961
Probable space group: C M M A
;
_chemical_formula_sum "Si O2"
_cell_formula_units_Z 64
_cell_length_a 12.855178
_cell_length_b 29.401993
_cell_length_c 9.850767
_cell_angle_alpha 90.000000
_cell_angle_beta 90.000000
_cell_angle_gamma 90.000000
_cell_volume 3723.273259
_symmetry_space_group_name_H-M "C M M A"
_symmetry_group_IT_number 67
_symmetry_cell_setting 'orthorhombic'
loop_
_space_group_symop_operation_xyz
x,y,z
-x,1/2-y,z
x,-y,-z
-x,1/2+y,-z
-x,-y,-z
x,1/2+y,-z
-x,y,z
x,1/2-y,z
1/2+x,1/2+y,z
1/2-x,-y,z
1/2+x,1/2-y,-z
1/2-x,y,-z
1/2-x,1/2-y,-z
1/2+x,y,-z
1/2-x,1/2+y,z
1/2+x,-y,z
loop_
_atom_site_type_symbol
_atom_site_label
_atom_site_fract_x
_atom_site_fract_y
_atom_site_fract_z
Si Si1 0.681071 0.628544 0.132484
Si Si2 0.000000 0.858981 0.541001
Si Si3 0.823962 0.903549 0.379295
Si Si4 0.500000 0.697063 0.209440
Si Si5 0.000000 0.476719 0.649752
Si Si6 0.000000 0.430392 0.204349
O O1 0.755272 0.618150 0.260643
O O2 0.602932 0.671049 0.154989
O O3 0.602157 0.585798 0.125337
O O4 0.750000 0.634063 0.000000
O O5 0.899407 0.866432 0.448925
O O6 0.000000 0.899795 0.655262
O O7 0.000000 0.813762 0.629518
O O8 0.750000 0.920873 0.500000
O O9 0.899664 0.944344 0.334892
O O10 0.500000 0.750000 0.178855
O O11 0.000000 0.500000 0.500000
O O12 0.000000 0.517678 0.755148
#
# Coordination Sequence:
#
# PCOD9501961 Si02
#       6
#    16   8  16   8   8   8
#     4  10  22  39  59  80 115 158 190 225 295 354
#     4   9  18  34  54  83 117 141 186 236 292 339
#     4  11  18  34  58  82 113 157 196 229 278 341
#     4  10  21  39  64  87 115 139 182 250 298 348
#     4  11  20  30  52  90 116 144 205 253 263 311
#     4  10  19  36  49  81 118 146 189 244 284 314
#
# _framework density 17.189174999999999
#
# number of rings (size 3 to 8) (size 9 to 14) (size 15 to 20)
#    0.000    2.000    7.500    0.000    0.000    8.000 
#    0.000    6.250    0.000    1.500    0.000    0.000 
#    0.000    0.000    0.000    0.000    0.000    0.000 
#
# Total GULP energy -178404.810388 kJ/mol
# GULP energy per Si atom -5575.150325 kJ/mol
# Density = 1.715005 g / cm^3
# Si number density = 17.189175 Si / 1000 Ang^3
#
#
#
# Elastic Constant Matrix: (Units=GPa)
#
#
# Indices 1 2 3 4 5 6 
#
# 1 152.1137 68.8339 64.1904 0.0000 0.0000 0.0000
# 2 68.8339 120.8813 53.5390 0.0000 0.0000 0.0000
# 3 64.1904 53.5390 74.3265 0.0000 0.0000 0.0000
# 4 0.0000 0.0000 0.0000 13.2263 0.0000 0.0000
# 5 0.0000 0.0000 0.0000 0.0000 21.4203 0.0000
# 6 0.0000 0.0000 0.0000 0.0000 0.0000 12.3174
#
#
#
# Elastic Compliance Matrix: (Units=1/GPa)
#
#
# Indices 1 2 3 4 5 6 
#
# 1 0.011053 -0.003034 -0.007360 0.000000 0.000000 0.000000
# 2 -0.003034 0.012981 -0.006730 0.000000 0.000000 0.000000
# 3 -0.007360 -0.006730 0.024658 0.000000 0.000000 0.000000
# 4 0.000000 0.000000 0.000000 0.075607 0.000000 0.000000
# 5 0.000000 0.000000 0.000000 0.000000 0.046685 0.000000
# 6 0.000000 0.000000 0.000000 0.000000 0.000000 0.081186
#
#
# Mechanical properties :
#
#
# Convention : Reuss Voigt Hill
#
# Bulk Modulus (GPa) = 69.23457 80.04977 74.64217
# Shear Modulus (GPa) = 17.16835 20.11001 18.63918
#
# Velocity S-wave (km/s) = 3.16379 3.42412 3.29653
# Velocity P-wave (km/s) = 7.32882 7.89328 7.61628
#
# Compressibility (1/GPa) = 0.01444365
#
# Stress axis : x y z
#
# Youngs Moduli (GPa) = 90.47436 77.03463 40.55405
#
# Poissons Ratio (x) = 0.23373 0.29848
# Poissons Ratio (y) = 0.27451 0.27294
# Poissons Ratio (z) = 0.66589 0.51847
#
# Static dielectric constant tensor:
#      x y z
#    x 1.608440 0.000000 0.000000 
#    y 0.000000 1.561730 0.000000 
#    z 0.000000 0.000000 1.588110 
# 
# From -- ./inp_files/6762.got.cif
#   From: 2010.05.17/outbox.cif.g08.bks.cpg/sg67_4_cif.got.tgz:6762.got - 2010.06.03 18:28:57.
