data_PCOD9501839
_publ_section_title
;
Structure prediction by ZEFSAII (Michael W. Deem and Ramdas Pophale) SiO2 
 PCOD9501839
Probable space group: C M M A
;
_chemical_formula_sum "Si O2"
_cell_formula_units_Z 80
_cell_length_a 18.654750
_cell_length_b 27.159555
_cell_length_c 7.518726
_cell_angle_alpha 90.000000
_cell_angle_beta 90.000000
_cell_angle_gamma 90.000000
_cell_volume 3809.397931
_symmetry_space_group_name_H-M "C M M A"
_symmetry_group_IT_number 67
_symmetry_cell_setting 'orthorhombic'
loop_
_space_group_symop_operation_xyz
x,y,z
-x,1/2-y,z
x,-y,-z
-x,1/2+y,-z
-x,-y,-z
x,1/2+y,-z
-x,y,z
x,1/2-y,z
1/2+x,1/2+y,z
1/2-x,-y,z
1/2+x,1/2-y,-z
1/2-x,y,-z
1/2-x,1/2-y,-z
1/2+x,y,-z
1/2-x,1/2+y,z
1/2+x,-y,z
loop_
_atom_site_type_symbol
_atom_site_label
_atom_site_fract_x
_atom_site_fract_y
_atom_site_fract_z
Si Si1 0.704912 0.750000 0.818872
Si Si2 0.415259 0.750000 0.062231
Si Si3 0.829561 0.054334 0.713271
Si Si4 0.085997 0.152638 0.281091
Si Si5 0.339341 0.051002 0.717714
Si Si6 0.681996 0.846649 0.614789
O O1 0.714752 0.799360 0.708978
O O2 0.750000 0.750000 0.000000
O O3 0.621825 0.750000 0.873302
O O4 0.500000 0.750000 0.051617
O O5 0.393675 0.800318 0.161856
O O6 0.745191 0.052281 0.760200
O O7 0.842652 0.051576 0.498846
O O8 0.847130 0.111383 0.749438
O O9 0.864357 0.003484 0.780698
O O10 0.119838 0.100090 0.221635
O O11 0.119509 0.163955 0.474708
O O12 0.000000 0.148541 0.287305
O O13 0.750000 0.866446 0.500000
#
# Coordination Sequence:
#
# PCOD9501839 Si02
#       6
#     8   8  16  16  16  16
#     4  12  26  35  54  81 108 143 190 235 272 326
#     4  10  23  41  55  73 112 155 183 219 281 336
#     4   8  13  25  48  75 105 140 160 208 277 322
#     4  10  19  34  58  84 107 142 188 228 265 325
#     4   8  13  25  47  77 105 137 169 206 266 327
#     4  11  19  35  55  80 111 139 177 232 280 317
#
# _framework density 21.000692999999998
#
# number of rings (size 3 to 8) (size 9 to 14) (size 15 to 20)
#    0.000    2.400    4.000    3.300    0.000    0.800 
#    0.000    8.000    0.000    1.200    0.000    2.800 
#    0.000    0.000    0.000    0.000    0.000    0.000 
#
# Total GULP energy -222686.375609 kJ/mol
# GULP energy per Si atom -5567.159390 kJ/mol
# Density = 2.095289 g / cm^3
# Si number density = 21.000693 Si / 1000 Ang^3
#
#
#
# Elastic Constant Matrix: (Units=GPa)
#
#
# Indices 1 2 3 4 5 6 
#
# 1 50.1151 28.4474 8.3957 0.0000 0.0000 0.0000
# 2 28.4474 179.8554 25.6500 0.0000 0.0000 0.0000
# 3 8.3957 25.6500 31.7272 0.0000 0.0000 0.0000
# 4 0.0000 0.0000 0.0000 -26.4990 0.0000 0.0000
# 5 0.0000 0.0000 0.0000 0.0000 16.7960 0.0000
# 6 0.0000 0.0000 0.0000 0.0000 0.0000 31.0577
#
#
#
# Elastic Compliance Matrix: (Units=1/GPa)
#
#
# Indices 1 2 3 4 5 6 
#
# 1 0.022249 -0.003029 -0.003439 0.000000 0.000000 0.000000
# 2 -0.003029 0.006697 -0.004613 0.000000 0.000000 0.000000
# 3 -0.003439 -0.004613 0.036158 0.000000 0.000000 0.000000
# 4 0.000000 0.000000 0.000000 -0.037737 0.000000 0.000000
# 5 0.000000 0.000000 0.000000 0.000000 0.059538 0.000000
# 6 0.000000 0.000000 0.000000 0.000000 0.000000 0.032198
#
#
# Mechanical properties :
#
#
# Convention : Reuss Voigt Hill
#
# Bulk Modulus (GPa) = 23.28654 42.96487 33.12570
# Shear Modulus (GPa) = 32.13813 17.55126 24.84470
#
# Velocity S-wave (km/s) = 3.91620 2.89407 3.44327
# Velocity P-wave (km/s) = 5.61795 5.62767 5.62281
#
# Compressibility (1/GPa) = 0.04294326
#
# Stress axis : x y z
#
# Youngs Moduli (GPa) = 44.94505 149.32290 27.65645
#
# Poissons Ratio (x) = 0.45225 0.09511
# Poissons Ratio (y) = 0.13612 0.12757
# Poissons Ratio (z) = 0.15457 0.68878
#
# Static dielectric constant tensor:
#      x y z
#    x 1.737460 0.000000 0.000000 
#    y 0.000000 2.944420 0.000000 
#    z 0.000000 0.000000 1.778800 
# 
# From -- ./inp_files/10011.got.cif
#   From: 2010.05.17/outbox.cif.g08.bks.cpg/sg67_6_cif.got.tgz:10011.got - 2010.06.03 18:28:57.
