data_PCOD9501941
_publ_section_title
;
Structure prediction by ZEFSAII (Michael W. Deem and Ramdas Pophale) SiO2 
 PCOD9501941
Probable space group: C M M A
;
_chemical_formula_sum "Si O2"
_cell_formula_units_Z 88
_cell_length_a 17.040470
_cell_length_b 20.767756
_cell_length_c 11.796002
_cell_angle_alpha 90.000000
_cell_angle_beta 90.000000
_cell_angle_gamma 90.000000
_cell_volume 4174.514551
_symmetry_space_group_name_H-M "C M M A"
_symmetry_group_IT_number 67
_symmetry_cell_setting 'orthorhombic'
loop_
_space_group_symop_operation_xyz
x,y,z
-x,1/2-y,z
x,-y,-z
-x,1/2+y,-z
-x,-y,-z
x,1/2+y,-z
-x,y,z
x,1/2-y,z
1/2+x,1/2+y,z
1/2-x,-y,z
1/2+x,1/2-y,-z
1/2-x,y,-z
1/2-x,1/2-y,-z
1/2+x,y,-z
1/2-x,1/2+y,z
1/2+x,-y,z
loop_
_atom_site_type_symbol
_atom_site_label
_atom_site_fract_x
_atom_site_fract_y
_atom_site_fract_z
Si Si1 0.612404 0.750000 0.763300
Si Si2 0.821287 0.173347 0.365666
Si Si3 0.668782 0.361760 0.062502
Si Si4 0.165498 0.025508 0.757254
Si Si5 0.909377 0.107120 0.167892
Si Si6 0.137867 0.636047 0.396286
O O1 0.594729 0.806955 0.669091
O O2 0.637063 0.693873 0.856318
O O3 0.822183 0.250000 0.381537
O O4 0.857001 0.153331 0.246461
O O5 0.868221 0.140471 0.468648
O O6 0.730540 0.152116 0.372062
O O7 0.750000 0.344287 0.000000
O O8 0.681668 0.425005 0.139761
O O9 0.608462 0.378432 0.962774
O O10 0.123649 0.067034 0.659650
O O11 0.250000 0.000000 0.715561
O O12 0.116386 0.965237 0.801154
O O13 0.000000 0.117458 0.193164
#
# Coordination Sequence:
#
# PCOD9501941 Si02
#       6
#     8  16  16  16  16  16
#     4  10  19  35  59  98 121 157 222 274 308 365
#     4  11  21  38  65  95 135 167 206 267 326 382
#     4  11  22  36  66  92 130 170 213 267 319 381
#     4  11  21  40  64  93 130 171 219 265 316 375
#     4  12  27  43  62  95 136 175 212 259 328 396
#     4  10  19  37  67  99 125 161 219 274 316 364
#
# _framework density 21.080296000000001
#
# number of rings (size 3 to 8) (size 9 to 14) (size 15 to 20)
#    0.000    1.091    5.455    2.455    1.273    2.545 
#    0.000    1.818    0.000    3.273    0.000    0.000 
#    0.000    0.000    0.000    0.000    0.000    0.000 
#
# Total GULP energy -245022.217828 kJ/mol
# GULP energy per Si atom -5568.686769 kJ/mol
# Density = 2.103232 g / cm^3
# Si number density = 21.080296 Si / 1000 Ang^3
#
#
#
# Elastic Constant Matrix: (Units=GPa)
#
#
# Indices 1 2 3 4 5 6 
#
# 1 35.0379 -2.2859 -11.0067 0.0000 0.0000 0.0000
# 2 -2.2859 43.2081 4.8589 0.0000 0.0000 0.0000
# 3 -11.0067 4.8589 76.2945 0.0000 0.0000 0.0000
# 4 0.0000 0.0000 0.0000 15.5802 0.0000 0.0000
# 5 0.0000 0.0000 0.0000 0.0000 -0.8994 0.0000
# 6 0.0000 0.0000 0.0000 0.0000 0.0000 -28.4793
#
#
#
# Elastic Compliance Matrix: (Units=1/GPa)
#
#
# Indices 1 2 3 4 5 6 
#
# 1 0.029948 0.001106 0.004250 0.000000 0.000000 0.000000
# 2 0.001106 0.023352 -0.001328 0.000000 0.000000 0.000000
# 3 0.004250 -0.001328 0.013805 0.000000 0.000000 0.000000
# 4 0.000000 0.000000 0.000000 0.064184 0.000000 0.000000
# 5 0.000000 0.000000 0.000000 0.000000 -1.111910 0.000000
# 6 0.000000 0.000000 0.000000 0.000000 0.000000 -0.035113
#
#
# Mechanical properties :
#
#
# Convention : Reuss Voigt Hill
#
# Bulk Modulus (GPa) = 13.30459 15.29700 14.30080
# Shear Modulus (GPa) = -5.00632 8.10525 1.54947
#
# Velocity S-wave (km/s) = -1.54274 1.96298 0.85827
# Velocity P-wave (km/s) = 1.77531 3.52278 2.78942
#
# Compressibility (1/GPa) = 0.07516202
#
# Stress axis : x y z
#
# Youngs Moduli (GPa) = 33.39144 42.82353 72.43873
#
# Poissons Ratio (x) = -0.04738 -0.30786
# Poissons Ratio (y) = -0.03695 0.09617
# Poissons Ratio (z) = -0.14191 0.05685
#
# Static dielectric constant tensor:
#      x y z
#    x 1.309680 0.000000 0.000000 
#    y 0.000000 1.722210 0.000000 
#    z 0.000000 0.000000 1.757670 
# 
# From -- ./inp_files/19444.got.cif
#   From: 2010.05.17/outbox.cif.g08.bks.cpg/sg67_10_cif.got.tgz:19444.got - 2010.06.03 18:28:57.
