data_PCOD9501814
_publ_section_title
;
Structure prediction by ZEFSAII (Michael W. Deem and Ramdas Pophale) SiO2 
 PCOD9501814
Probable space group: C M M A
;
_chemical_formula_sum "Si O2"
_cell_formula_units_Z 80
_cell_length_a 18.713253
_cell_length_b 25.900835
_cell_length_c 9.393740
_cell_angle_alpha 90.000000
_cell_angle_beta 90.000000
_cell_angle_gamma 90.000000
_cell_volume 4553.041303
_symmetry_space_group_name_H-M "C M M A"
_symmetry_group_IT_number 67
_symmetry_cell_setting 'orthorhombic'
loop_
_space_group_symop_operation_xyz
x,y,z
-x,1/2-y,z
x,-y,-z
-x,1/2+y,-z
-x,-y,-z
x,1/2+y,-z
-x,y,z
x,1/2-y,z
1/2+x,1/2+y,z
1/2-x,-y,z
1/2+x,1/2-y,-z
1/2-x,y,-z
1/2-x,1/2-y,-z
1/2+x,y,-z
1/2-x,1/2+y,z
1/2+x,-y,z
loop_
_atom_site_type_symbol
_atom_site_label
_atom_site_fract_x
_atom_site_fract_y
_atom_site_fract_z
Si Si1 0.417691 0.998494 0.673326
Si Si2 0.677987 0.309644 0.092694
Si Si3 0.174131 0.400240 0.681203
Si Si4 0.841794 0.602194 0.651104
Si Si5 0.916805 0.190215 0.177754
O O1 0.500000 0.991935 0.714529
O O2 0.387127 0.054413 0.711956
O O3 0.413824 0.000000 0.500000
O O4 0.369561 0.951096 0.727179
O O5 0.684372 0.250000 0.143211
O O6 0.666662 0.350915 0.216995
O O7 0.750000 0.320565 0.000000
O O8 0.612413 0.313031 0.982773
O O9 0.149160 0.390438 0.518699
O O10 0.258819 0.410739 0.675253
O O11 0.867499 0.653573 0.728233
O O12 0.909430 0.250000 0.221814
O O13 0.000000 0.175666 0.188407
#
# Coordination Sequence:
#
# PCOD9501814 Si02
#       5
#    16  16  16  16  16
#     4   9  18  33  53  78 111 147 179 221 279 333
#     4  10  20  37  57  79 110 148 186 227 279 334
#     4  10  20  33  57  85 109 141 186 232 275 325
#     4  10  19  34  56  84 112 142 182 230 278 331
#     4  10  21  37  57  80 110 149 185 221 277 342
#
# _framework density 17.570672999999999
#
# number of rings (size 3 to 8) (size 9 to 14) (size 15 to 20)
#    0.000    2.200    2.000    1.200    0.000    4.800 
#    0.000    3.000    0.000    4.800    0.000    0.000 
#    0.000    0.000    0.000    0.000    0.000    0.000 
#
# Total GULP energy -223009.037606 kJ/mol
# GULP energy per Si atom -5575.225940 kJ/mol
# Density = 1.753068 g / cm^3
# Si number density = 17.570673 Si / 1000 Ang^3
#
#
#
# Elastic Constant Matrix: (Units=GPa)
#
#
# Indices 1 2 3 4 5 6 
#
# 1 89.0830 54.6591 28.5858 0.0000 0.0000 0.0000
# 2 54.6591 123.5298 58.7398 0.0000 0.0000 0.0000
# 3 28.5858 58.7398 46.0740 0.0000 0.0000 0.0000
# 4 0.0000 0.0000 0.0000 91.3823 0.0000 0.0000
# 5 0.0000 0.0000 0.0000 0.0000 18.3919 0.0000
# 6 0.0000 0.0000 0.0000 0.0000 0.0000 3.4512
#
#
#
# Elastic Compliance Matrix: (Units=1/GPa)
#
#
# Indices 1 2 3 4 5 6 
#
# 1 0.015498 -0.005803 -0.002216 0.000000 0.000000 0.000000
# 2 -0.005803 0.022731 -0.025380 0.000000 0.000000 0.000000
# 3 -0.002216 -0.025380 0.055436 0.000000 0.000000 0.000000
# 4 0.000000 0.000000 0.000000 0.010943 0.000000 0.000000
# 5 0.000000 0.000000 0.000000 0.000000 0.054372 0.000000
# 6 0.000000 0.000000 0.000000 0.000000 0.000000 0.289757
#
#
# Mechanical properties :
#
#
# Convention : Reuss Voigt Hill
#
# Bulk Modulus (GPa) = 37.22190 60.29512 48.75851
# Shear Modulus (GPa) = 9.53304 30.42522 19.97913
#
# Velocity S-wave (km/s) = 2.33181 4.16575 3.37571
# Velocity P-wave (km/s) = 5.33665 7.58474 6.55775
#
# Compressibility (1/GPa) = 0.02686590
#
# Stress axis : x y z
#
# Youngs Moduli (GPa) = 64.52651 43.99201 18.03880
#
# Poissons Ratio (x) = 0.25530 0.03998
# Poissons Ratio (y) = 0.37447 0.45782
# Poissons Ratio (z) = 0.14302 1.11651
#
# Static dielectric constant tensor:
#      x y z
#    x 1.601780 0.000000 0.000000 
#    y 0.000000 1.588540 0.000000 
#    z 0.000000 0.000000 1.584850 
# 
# From -- ./inp_files/9971.got.cif
#   From: 2010.05.17/outbox.cif.g08.bks.cpg/sg67_5_cif.got.tgz:9971.got - 2010.06.03 18:28:57.
