data_PCOD9501910
_publ_section_title
;
Structure prediction by ZEFSAII (Michael W. Deem and Ramdas Pophale) SiO2 
 PCOD9501910
Probable space group: C M M A
;
_chemical_formula_sum "Si O2"
_cell_formula_units_Z 96
_cell_length_a 29.580448
_cell_length_b 8.694098
_cell_length_c 21.209976
_cell_angle_alpha 90.000000
_cell_angle_beta 90.000000
_cell_angle_gamma 90.000000
_cell_volume 5454.682233
_symmetry_space_group_name_H-M "C M M A"
_symmetry_group_IT_number 67
_symmetry_cell_setting 'orthorhombic'
loop_
_space_group_symop_operation_xyz
x,y,z
-x,1/2-y,z
x,-y,-z
-x,1/2+y,-z
-x,-y,-z
x,1/2+y,-z
-x,y,z
x,1/2-y,z
1/2+x,1/2+y,z
1/2-x,-y,z
1/2+x,1/2-y,-z
1/2-x,y,-z
1/2-x,1/2-y,-z
1/2+x,y,-z
1/2-x,1/2+y,z
1/2+x,-y,z
loop_
_atom_site_type_symbol
_atom_site_label
_atom_site_fract_x
_atom_site_fract_y
_atom_site_fract_z
Si Si1 0.552486 0.064341 0.068125
Si Si2 0.892061 0.067201 0.434217
Si Si3 0.702089 0.434515 0.240519
Si Si4 0.947061 0.435594 0.683393
Si Si5 0.798396 0.565774 0.389395
Si Si6 0.106611 0.437685 0.809354
O O1 0.500000 0.020269 0.079654
O O2 0.554043 0.250000 0.066018
O O3 0.583776 0.010993 0.125696
O O4 0.565897 0.000000 0.000000
O O5 0.891769 0.250000 0.436518
O O6 0.909795 0.000000 0.500000
O O7 0.921554 0.009122 0.375528
O O8 0.841132 0.005584 0.424196
O O9 0.703821 0.250000 0.237020
O O10 0.750000 0.500000 0.218810
O O11 0.696513 0.473535 0.314767
O O12 0.658023 0.488634 0.202777
O O13 0.942748 0.250000 0.678486
O O14 0.923235 0.482474 0.748776
O O15 0.000000 0.474002 0.684128
O O16 0.798918 0.750000 0.395656
O O17 0.750000 0.500000 0.410330
O O18 0.106794 0.250000 0.810283
#
# Coordination Sequence:
#
# PCOD9501910 Si02
#       6
#    16  16  16  16  16  16
#     4   9  17  30  50  77 109 143 178 214 258 311
#     4  12  25  40  57  77 106 142 180 222 271 324
#     4   9  17  30  51  77 107 135 169 213 259 312
#     4  10  20  37  60  82 104 134 177 226 273 323
#     4  10  19  35  57  82 110 138 174 218 270 324
#     4   9  16  31  55  81 106 139 177 216 260 315
#
# _framework density 17.599558999999999
#
# number of rings (size 3 to 8) (size 9 to 14) (size 15 to 20)
#    0.000    2.167    1.667    2.500    0.000    3.667 
#    0.000    3.333    0.000    2.500    0.000    3.500 
#    0.000    0.000    0.000    0.000    0.000    0.000 
#
# Total GULP energy -267955.633900 kJ/mol
# GULP energy per Si atom -5582.409040 kJ/mol
# Density = 1.755950 g / cm^3
# Si number density = 17.599559 Si / 1000 Ang^3
#
#
#
# Elastic Constant Matrix: (Units=GPa)
#
#
# Indices 1 2 3 4 5 6 
#
# 1 130.5773 38.0203 83.6708 0.0000 0.0000 0.0000
# 2 38.0203 26.7802 32.3461 0.0000 0.0000 0.0000
# 3 83.6708 32.3461 139.8075 0.0000 0.0000 0.0000
# 4 0.0000 0.0000 0.0000 19.3544 0.0000 0.0000
# 5 0.0000 0.0000 0.0000 0.0000 7.8010 0.0000
# 6 0.0000 0.0000 0.0000 0.0000 0.0000 26.1715
#
#
#
# Elastic Compliance Matrix: (Units=1/GPa)
#
#
# Indices 1 2 3 4 5 6 
#
# 1 0.016012 -0.015485 -0.006000 0.000000 0.000000 0.000000
# 2 -0.015485 0.066799 -0.006187 0.000000 0.000000 0.000000
# 3 -0.006000 -0.006187 0.012175 0.000000 0.000000 0.000000
# 4 0.000000 0.000000 0.000000 0.051668 0.000000 0.000000
# 5 0.000000 0.000000 0.000000 0.000000 0.128189 0.000000
# 6 0.000000 0.000000 0.000000 0.000000 0.000000 0.038210
#
#
# Mechanical properties :
#
#
# Convention : Reuss Voigt Hill
#
# Bulk Modulus (GPa) = 25.22657 67.24881 46.23769
# Shear Modulus (GPa) = 13.10241 20.20724 16.65482
#
# Velocity S-wave (km/s) = 2.73146 3.39214 3.07957
# Velocity P-wave (km/s) = 4.93078 7.32363 6.24292
#
# Compressibility (1/GPa) = 0.03964074
#
# Stress axis : x y z
#
# Youngs Moduli (GPa) = 62.45440 14.97037 82.13606
#
# Poissons Ratio (x) = 0.23182 0.49280
# Poissons Ratio (y) = 0.96712 0.50819
# Poissons Ratio (z) = 0.37472 0.09262
#
# Static dielectric constant tensor:
#      x y z
#    x 1.594470 0.000000 0.000000 
#    y 0.000000 1.599470 0.000000 
#    z 0.000000 0.000000 1.588500 
# 
# From -- ./inp_files/37129.got.cif
#   From: 2010.05.17/outbox.cif.g08.bks.cpg/sg67_19_cif.got.tgz:37129.got - 2010.06.03 18:28:57.
