data_PCOD9501037
_publ_section_title
;
Structure prediction by ZEFSAII (Michael W. Deem and Ramdas Pophale) SiO2 
 PCOD9501037
Probable space group: C M M A
;
_chemical_formula_sum "Si O2"
_cell_formula_units_Z 96
_cell_length_a 9.103193
_cell_length_b 27.166099
_cell_length_c 24.241496
_cell_angle_alpha 90.000000
_cell_angle_beta 90.000000
_cell_angle_gamma 90.000000
_cell_volume 5994.879350
_symmetry_space_group_name_H-M "C M M A"
_symmetry_group_IT_number 67
_symmetry_cell_setting 'orthorhombic'
loop_
_space_group_symop_operation_xyz
x,y,z
-x,1/2-y,z
x,-y,-z
-x,1/2+y,-z
-x,-y,-z
x,1/2+y,-z
-x,y,z
x,1/2-y,z
1/2+x,1/2+y,z
1/2-x,-y,z
1/2+x,1/2-y,-z
1/2-x,y,-z
1/2-x,1/2-y,-z
1/2+x,y,-z
1/2-x,1/2+y,z
1/2+x,-y,z
loop_
_atom_site_type_symbol
_atom_site_label
_atom_site_fract_x
_atom_site_fract_y
_atom_site_fract_z
Si Si1 0.824634 0.804842 0.886338
Si Si2 0.676018 0.092825 0.942212
Si Si3 0.326972 0.690784 0.330922
Si Si4 0.826663 0.846588 0.221348
Si Si5 0.673929 0.548945 0.834672
Si Si6 0.169428 0.809924 0.444154
O O1 0.787343 0.750000 0.906588
O O2 0.791029 0.849775 0.927438
O O3 0.743169 0.815694 0.828926
O O4 0.000000 0.806649 0.876215
O O5 0.500000 0.086342 0.943803
O O6 0.746900 0.062206 0.892338
O O7 0.750000 0.079906 0.000000
O O8 0.500000 0.680239 0.331923
O O9 0.309196 0.750000 0.326014
O O10 0.251045 0.666483 0.278304
O O11 0.252514 0.675204 0.388415
O O12 0.806370 0.903591 0.204250
O O13 0.000000 0.836397 0.224943
O O14 0.500000 0.541744 0.843291
O O15 0.750000 0.500000 0.812175
O O16 0.171175 0.750000 0.444888
O O17 0.250000 0.826315 0.500000
O O18 0.000000 0.825465 0.443402
#
# Coordination Sequence:
#
# PCOD9501037 Si02
#       6
#    16  16  16  16  16  16
#     4   9  18  32  48  66  91 124 156 185 221 265
#     4  10  20  34  51  71  95 120 149 185 223 267
#     4  10  19  29  43  65  94 129 165 196 227 266
#     4  10  20  32  47  69  94 118 149 190 231 273
#     4  10  21  37  55  73  92 115 145 183 231 282
#     4   9  16  26  40  59  87 124 164 202 236 269
#
# _framework density 16.013666000000001
#
# number of rings (size 3 to 8) (size 9 to 14) (size 15 to 20)
#    0.000    2.333    0.000    3.000    0.000    8.667 
#    0.000    1.667    0.000    0.000    0.000    0.000 
#    0.000    0.667    0.000    7.000    0.000    4.167 
#
# Total GULP energy -267808.359651 kJ/mol
# GULP energy per Si atom -5579.340826 kJ/mol
# Density = 1.597722 g / cm^3
# Si number density = 16.013666 Si / 1000 Ang^3
#
#
#
# Elastic Constant Matrix: (Units=GPa)
#
#
# Indices 1 2 3 4 5 6 
#
# 1 79.3066 17.3253 47.2477 0.0000 0.0000 0.0000
# 2 17.3253 30.6935 -10.6002 0.0000 0.0000 0.0000
# 3 47.2477 -10.6002 91.3295 0.0000 0.0000 0.0000
# 4 0.0000 0.0000 0.0000 7.1741 0.0000 0.0000
# 5 0.0000 0.0000 0.0000 0.0000 30.3889 0.0000
# 6 0.0000 0.0000 0.0000 0.0000 0.0000 21.5213
#
#
#
# Elastic Compliance Matrix: (Units=1/GPa)
#
#
# Indices 1 2 3 4 5 6 
#
# 1 0.026877 -0.020807 -0.016320 0.000000 0.000000 0.000000
# 2 -0.020807 0.050049 0.016573 0.000000 0.000000 0.000000
# 3 -0.016320 0.016573 0.021316 0.000000 0.000000 0.000000
# 4 0.000000 0.000000 0.000000 0.139390 0.000000 0.000000
# 5 0.000000 0.000000 0.000000 0.000000 0.032907 0.000000
# 6 0.000000 0.000000 0.000000 0.000000 0.000000 0.046465
#
#
# Mechanical properties :
#
#
# Convention : Reuss Voigt Hill
#
# Bulk Modulus (GPa) = 17.50257 34.36391 25.93324
# Shear Modulus (GPa) = 13.25710 21.64064 17.44887
#
# Velocity S-wave (km/s) = 2.88038 3.68011 3.30453
# Velocity P-wave (km/s) = 4.69208 6.28994 5.54882
#
# Compressibility (1/GPa) = 0.05713446
#
# Stress axis : x y z
#
# Youngs Moduli (GPa) = 37.20593 19.98050 46.91401
#
# Poissons Ratio (x) = 0.41574 0.76562
# Poissons Ratio (y) = 0.77416 -0.77752
# Poissons Ratio (z) = 0.60719 -0.33114
#
# Static dielectric constant tensor:
#      x y z
#    x 1.531550 0.000000 0.000000 
#    y 0.000000 1.539330 0.000000 
#    z 0.000000 0.000000 1.506640 
# 
# From -- ./inp_files/37138.got.cif
#   From: 2010.05.17/outbox.cif.g08.bks.cpg/sg67_19_cif.got.tgz:37138.got - 2010.06.03 18:28:57.
