data_PCOD9501622
_publ_section_title
;
Structure prediction by ZEFSAII (Michael W. Deem and Ramdas Pophale) SiO2 
 PCOD9501622
Probable space group: C M M A
;
_chemical_formula_sum "Si O2"
_cell_formula_units_Z 80
_cell_length_a 15.064052
_cell_length_b 16.706603
_cell_length_c 14.518723
_cell_angle_alpha 90.000000
_cell_angle_beta 90.000000
_cell_angle_gamma 90.000000
_cell_volume 3653.914478
_symmetry_space_group_name_H-M "C M M A"
_symmetry_group_IT_number 67
_symmetry_cell_setting 'orthorhombic'
loop_
_space_group_symop_operation_xyz
x,y,z
-x,1/2-y,z
x,-y,-z
-x,1/2+y,-z
-x,-y,-z
x,1/2+y,-z
-x,y,z
x,1/2-y,z
1/2+x,1/2+y,z
1/2-x,-y,z
1/2+x,1/2-y,-z
1/2-x,y,-z
1/2-x,1/2-y,-z
1/2+x,y,-z
1/2-x,1/2+y,z
1/2+x,-y,z
loop_
_atom_site_type_symbol
_atom_site_label
_atom_site_fract_x
_atom_site_fract_y
_atom_site_fract_z
Si Si1 0.641678 0.507653 0.104641
Si Si2 0.345909 0.592488 0.728437
Si Si3 0.896283 0.663751 0.455536
Si Si4 0.101564 0.057182 0.386567
Si Si5 0.650817 0.657310 0.224787
O O1 0.750000 0.500000 0.105112
O O2 0.611208 0.438757 0.176196
O O3 0.619647 0.594202 0.147427
O O4 0.611487 0.500000 0.000000
O O5 0.390368 0.649527 0.653413
O O6 0.344694 0.509826 0.669162
O O7 0.253446 0.634119 0.754535
O O8 0.856117 0.750000 0.478416
O O9 0.861027 0.590708 0.517487
O O10 0.000000 0.665421 0.480227
O O11 0.101875 0.133686 0.318953
O O12 0.000000 0.026673 0.396214
O O13 0.641236 0.750000 0.201081
#
# Coordination Sequence:
#
# PCOD9501622 Si02
#       5
#    16  16  16  16  16
#     4   8  16  33  53  74 102 134 173 214 257 318
#     4  10  19  33  53  77 104 136 174 217 265 315
#     4  10  20  33  50  75 107 141 178 219 262 312
#     4  10  20  35  55  76 103 144 186 216 250 309
#     4  10  20  34  54  82 111 136 170 221 272 311
#
# _framework density 21.894327000000001
#
# number of rings (size 3 to 8) (size 9 to 14) (size 15 to 20)
#    0.000    2.400    0.000    4.200    0.000    3.600 
#    0.000   17.000    0.000   15.000    0.000    0.000 
#    0.000    0.000    0.000    0.000    0.000    0.000 
#
# Total GULP energy -223064.475968 kJ/mol
# GULP energy per Si atom -5576.611899 kJ/mol
# Density = 2.184449 g / cm^3
# Si number density = 21.894327 Si / 1000 Ang^3
#
#
#
# Elastic Constant Matrix: (Units=GPa)
#
#
# Indices 1 2 3 4 5 6 
#
# 1 52.8349 -0.0575 2.9129 0.0000 0.0000 0.0000
# 2 -0.0575 104.2578 24.6234 0.0000 0.0000 0.0000
# 3 2.9129 24.6234 155.6373 0.0000 0.0000 0.0000
# 4 0.0000 0.0000 0.0000 21.2263 0.0000 0.0000
# 5 0.0000 0.0000 0.0000 0.0000 22.3964 0.0000
# 6 0.0000 0.0000 0.0000 0.0000 0.0000 16.9167
#
#
#
# Elastic Compliance Matrix: (Units=1/GPa)
#
#
# Indices 1 2 3 4 5 6 
#
# 1 0.018947 0.000098 -0.000370 0.000000 0.000000 0.000000
# 2 0.000098 0.009964 -0.001578 0.000000 0.000000 0.000000
# 3 -0.000370 -0.001578 0.006682 0.000000 0.000000 0.000000
# 4 0.000000 0.000000 0.000000 0.047111 0.000000 0.000000
# 5 0.000000 0.000000 0.000000 0.000000 0.044650 0.000000
# 6 0.000000 0.000000 0.000000 0.000000 0.000000 0.059113
#
#
# Mechanical properties :
#
#
# Convention : Reuss Voigt Hill
#
# Bulk Modulus (GPa) = 31.35528 40.85418 36.10473
# Shear Modulus (GPa) = 24.90039 31.12463 28.01251
#
# Velocity S-wave (km/s) = 3.37604 3.77448 3.58081
# Velocity P-wave (km/s) = 5.43592 6.13969 5.79849
#
# Compressibility (1/GPa) = 0.03189256
#
# Stress axis : x y z
#
# Youngs Moduli (GPa) = 52.77770 100.35708 149.65967
#
# Poissons Ratio (x) = -0.00982 0.05539
# Poissons Ratio (y) = -0.00517 0.23621
# Poissons Ratio (z) = 0.01953 0.15839
#
# Static dielectric constant tensor:
#      x y z
#    x 1.833900 0.000000 0.000000 
#    y 0.000000 1.859800 0.000000 
#    z 0.000000 0.000000 1.824460 
# 
# From -- ./inp_files/28395.got.cif
#   From: 2010.05.17/outbox.cif.g08.bks.cpg/sg67_15_cif.got.tgz:28395.got - 2010.06.03 18:28:57.
