data_PCOD9501688
_publ_section_title
;
Structure prediction by ZEFSAII (Michael W. Deem and Ramdas Pophale) SiO2 
 PCOD9501688
Probable space group: C M M A
;
_chemical_formula_sum "Si O2"
_cell_formula_units_Z 96
_cell_length_a 8.686804
_cell_length_b 26.379555
_cell_length_c 23.983350
_cell_angle_alpha 90.000000
_cell_angle_beta 90.000000
_cell_angle_gamma 90.000000
_cell_volume 5495.881159
_symmetry_space_group_name_H-M "C M M A"
_symmetry_group_IT_number 67
_symmetry_cell_setting 'orthorhombic'
loop_
_space_group_symop_operation_xyz
x,y,z
-x,1/2-y,z
x,-y,-z
-x,1/2+y,-z
-x,-y,-z
x,1/2+y,-z
-x,y,z
x,1/2-y,z
1/2+x,1/2+y,z
1/2-x,-y,z
1/2+x,1/2-y,-z
1/2-x,y,-z
1/2-x,1/2-y,-z
1/2+x,y,-z
1/2-x,1/2+y,z
1/2+x,-y,z
loop_
_atom_site_type_symbol
_atom_site_label
_atom_site_fract_x
_atom_site_fract_y
_atom_site_fract_z
Si Si1 0.683618 0.750000 0.130824
Si Si2 0.185753 0.151273 0.672634
Si Si3 0.814695 0.054573 0.873131
Si Si4 0.314225 0.554687 0.744107
Si Si5 0.314206 0.250000 0.254899
Si Si6 0.814510 0.344497 0.937908
Si Si7 0.315933 0.190941 0.559863
O O1 0.500000 0.750000 0.126617
O O2 0.736329 0.750000 0.194876
O O3 0.751172 0.700630 0.100239
O O4 0.236064 0.100381 0.704343
O O5 0.228024 0.200068 0.710029
O O6 0.254197 0.158783 0.611473
O O7 0.000000 0.150700 0.668583
O O8 0.767106 0.063768 0.808633
O O9 0.766891 0.101494 0.911435
O O10 0.000000 0.052096 0.874096
O O11 0.750000 0.000000 0.890594
O O12 0.500000 0.553148 0.743238
O O13 0.250000 0.500000 0.727264
O O14 0.500000 0.250000 0.247428
O O15 0.000000 0.342125 0.938647
O O16 0.750000 0.339236 0.000000
O O17 0.500000 0.189342 0.558282
O O18 0.267769 0.250000 0.568522
O O19 0.250000 0.174918 0.500000
#
# Coordination Sequence:
#
# PCOD9501688 Si02
#       7
#     8  16  16  16   8  16  16
#     4  12  25  39  56  79 108 142 181 224 268 320
#     4  10  19  33  55  80 109 143 181 219 264 318
#     4   9  19  36  58  81 108 139 175 219 269 322
#     4   9  18  33  53  78 105 139 178 215 260 315
#     4  10  20  35  56  81 110 142 173 216 271 324
#     4  11  23  40  59  79 106 141 180 221 268 325
#     4  10  20  33  51  76 110 146 182 221 264 315
#
# _framework density 17.467627
#
# number of rings (size 3 to 8) (size 9 to 14) (size 15 to 20)
#    0.000    2.000    0.833    3.000    0.000    6.333 
#    0.000    5.000    0.000    0.500    0.000    3.500 
#    0.000    0.000    0.000    0.000    0.000    0.000 
#
# Total GULP energy -268060.776568 kJ/mol
# GULP energy per Si atom -5584.599512 kJ/mol
# Density = 1.742787 g / cm^3
# Si number density = 17.467627 Si / 1000 Ang^3
#
#
#
# Elastic Constant Matrix: (Units=GPa)
#
#
# Indices 1 2 3 4 5 6 
#
# 1 33.0554 31.8403 36.5855 0.0000 0.0000 0.0000
# 2 31.8403 109.5187 69.9424 0.0000 0.0000 0.0000
# 3 36.5855 69.9424 130.4999 0.0000 0.0000 0.0000
# 4 0.0000 0.0000 0.0000 -91.0430 0.0000 0.0000
# 5 0.0000 0.0000 0.0000 0.0000 32.7438 0.0000
# 6 0.0000 0.0000 0.0000 0.0000 0.0000 28.7587
#
#
#
# Elastic Compliance Matrix: (Units=1/GPa)
#
#
# Indices 1 2 3 4 5 6 
#
# 1 0.048259 -0.008195 -0.009137 0.000000 0.000000 0.000000
# 2 -0.008195 0.015274 -0.005889 0.000000 0.000000 0.000000
# 3 -0.009137 -0.005889 0.013381 0.000000 0.000000 0.000000
# 4 0.000000 0.000000 0.000000 -0.010984 0.000000 0.000000
# 5 0.000000 0.000000 0.000000 0.000000 0.030540 0.000000
# 6 0.000000 0.000000 0.000000 0.000000 0.000000 0.034772
#
#
# Mechanical properties :
#
#
# Convention : Reuss Voigt Hill
#
# Bulk Modulus (GPa) = 32.81736 61.09003 46.95370
# Shear Modulus (GPa) = 26.61822 3.07229 14.84525
#
# Velocity S-wave (km/s) = 3.90790 1.32765 2.91842
# Velocity P-wave (km/s) = 6.26024 6.11551 6.18830
#
# Compressibility (1/GPa) = 0.03047167
#
# Stress axis : x y z
#
# Youngs Moduli (GPa) = 20.72160 65.46983 74.73503
#
# Poissons Ratio (x) = 0.53652 0.68286
# Poissons Ratio (y) = 0.16981 0.44011
# Poissons Ratio (z) = 0.18934 0.38554
#
# Static dielectric constant tensor:
#      x y z
#    x 1.591390 0.000000 0.000000 
#    y 0.000000 1.576570 0.000000 
#    z 0.000000 0.000000 1.568080 
# 
# From -- ./inp_files/40802.got.cif
#   From: 2010.05.17/outbox.cif.g08.bks.cpg/sg67_21_cif.got.tgz:40802.got - 2010.06.03 18:28:57.
