data_PCOD9501184
_publ_section_title
;
Structure prediction by ZEFSAII (Michael W. Deem and Ramdas Pophale) SiO2 
 PCOD9501184
Probable space group: C M M A
;
_chemical_formula_sum "Si O2"
_cell_formula_units_Z 96
_cell_length_a 24.422480
_cell_length_b 7.562702
_cell_length_c 26.646207
_cell_angle_alpha 90.000000
_cell_angle_beta 90.000000
_cell_angle_gamma 90.000000
_cell_volume 4921.552790
_symmetry_space_group_name_H-M "C M M A"
_symmetry_group_IT_number 67
_symmetry_cell_setting 'orthorhombic'
loop_
_space_group_symop_operation_xyz
x,y,z
-x,1/2-y,z
x,-y,-z
-x,1/2+y,-z
-x,-y,-z
x,1/2+y,-z
-x,y,z
x,1/2-y,z
1/2+x,1/2+y,z
1/2-x,-y,z
1/2+x,1/2-y,-z
1/2-x,y,-z
1/2-x,1/2-y,-z
1/2+x,y,-z
1/2-x,1/2+y,z
1/2+x,-y,z
loop_
_atom_site_type_symbol
_atom_site_label
_atom_site_fract_x
_atom_site_fract_y
_atom_site_fract_z
Si Si1 0.685733 0.542271 0.556250
Si Si2 0.121130 0.032658 0.652518
Si Si3 0.000000 0.535287 0.211193
Si Si4 0.387516 0.534255 0.842444
Si Si5 0.814130 0.038069 0.752320
Si Si6 0.062809 0.038067 0.942819
Si Si7 0.500000 0.465488 0.326368
O O1 0.666269 0.500000 0.500000
O O2 0.680825 0.750000 0.561135
O O3 0.750000 0.500000 0.559387
O O4 0.653196 0.466590 0.603509
O O5 0.121893 0.250000 0.653424
O O6 0.151132 0.975059 0.703986
O O7 0.057736 0.978068 0.650756
O O8 0.055304 0.482591 0.183686
O O9 0.000000 0.750000 0.211061
O O10 0.000000 0.478012 0.268452
O O11 0.384356 0.750000 0.843254
O O12 0.339594 0.472597 0.805113
O O13 0.395414 0.474512 0.899930
O O14 0.820448 0.250000 0.752517
O O15 0.750000 0.000000 0.747078
O O16 0.059697 0.250000 0.937573
O O17 0.000000 0.971507 0.935279
O O18 0.078734 0.000000 0.000000
O O19 0.500000 0.250000 0.327044
#
# Coordination Sequence:
#
# PCOD9501184 Si02
#       7
#    16  16   8  16  16  16   8
#     4  10  19  32  49  70  93 122 158 194 229 266
#     4   9  17  28  46  71  97 120 148 188 232 273
#     4   9  12  20  41  68  92 116 146 185 226 263
#     4   9  15  25  44  68  93 118 149 187 226 268
#     4  10  19  31  47  70  95 120 150 187 229 271
#     4   9  16  26  42  66  93 118 145 181 225 270
#     4   9  14  24  43  70  98 120 146 185 228 271
#
# _framework density 19.506039000000001
#
# number of rings (size 3 to 8) (size 9 to 14) (size 15 to 20)
#    0.000    2.667    2.500    1.500    0.000    0.000 
#    0.000    2.083    0.000    0.500    0.000    9.333 
#    0.000    0.000    0.000    0.000    0.000    0.000 
#
# Total GULP energy -267617.395385 kJ/mol
# GULP energy per Si atom -5575.362404 kJ/mol
# Density = 1.946164 g / cm^3
# Si number density = 19.506039 Si / 1000 Ang^3
#
#
#
# Elastic Constant Matrix: (Units=GPa)
#
#
# Indices 1 2 3 4 5 6 
#
# 1 125.1677 0.1458 88.3751 0.0000 0.0000 0.0000
# 2 0.1458 43.0080 8.2460 0.0000 0.0000 0.0000
# 3 88.3751 8.2460 185.8269 0.0000 0.0000 0.0000
# 4 0.0000 0.0000 0.0000 3.6691 0.0000 0.0000
# 5 0.0000 0.0000 0.0000 0.0000 25.7175 0.0000
# 6 0.0000 0.0000 0.0000 0.0000 0.0000 5.1968
#
#
#
# Elastic Compliance Matrix: (Units=1/GPa)
#
#
# Indices 1 2 3 4 5 6 
#
# 1 0.012077 0.001069 -0.005791 0.000000 0.000000 0.000000
# 2 0.001069 0.023546 -0.001553 0.000000 0.000000 0.000000
# 3 -0.005791 -0.001553 0.008204 0.000000 0.000000 0.000000
# 4 0.000000 0.000000 0.000000 0.272548 0.000000 0.000000
# 5 0.000000 0.000000 0.000000 0.000000 0.038884 0.000000
# 6 0.000000 0.000000 0.000000 0.000000 0.000000 0.192425
#
#
# Mechanical properties :
#
#
# Convention : Reuss Voigt Hill
#
# Bulk Modulus (GPa) = 31.97250 60.83738 46.40494
# Shear Modulus (GPa) = 8.76180 24.06573 16.41376
#
# Velocity S-wave (km/s) = 2.12170 3.51630 2.90396
# Velocity P-wave (km/s) = 4.73590 6.90960 5.92331
#
# Compressibility (1/GPa) = 0.03127688
#
# Stress axis : x y z
#
# Youngs Moduli (GPa) = 82.80421 42.47060 121.88763
#
# Poissons Ratio (x) = -0.04542 0.70583
# Poissons Ratio (y) = -0.08855 0.18934
# Poissons Ratio (z) = 0.47951 0.06597
#
# Static dielectric constant tensor:
#      x y z
#    x 1.629530 0.000000 0.000000 
#    y 0.000000 1.746610 0.000000 
#    z 0.000000 0.000000 1.720090 
# 
# From -- ./inp_files/44804.got.cif
#   From: 2010.05.17/outbox.cif.g08.bks.cpg/sg67_23_cif.got.tgz:44804.got - 2010.06.03 18:28:57.
