data_PCOD9501581
_publ_section_title
;
Structure prediction by ZEFSAII (Michael W. Deem and Ramdas Pophale) SiO2 
 PCOD9501581
Probable space group: C M M A
;
_chemical_formula_sum "Si O2"
_cell_formula_units_Z 88
_cell_length_a 27.488717
_cell_length_b 8.760881
_cell_length_c 19.109570
_cell_angle_alpha 90.000000
_cell_angle_beta 90.000000
_cell_angle_gamma 90.000000
_cell_volume 4602.069428
_symmetry_space_group_name_H-M "C M M A"
_symmetry_group_IT_number 67
_symmetry_cell_setting 'orthorhombic'
loop_
_space_group_symop_operation_xyz
x,y,z
-x,1/2-y,z
x,-y,-z
-x,1/2+y,-z
-x,-y,-z
x,1/2+y,-z
-x,y,z
x,1/2-y,z
1/2+x,1/2+y,z
1/2-x,-y,z
1/2+x,1/2-y,-z
1/2-x,y,-z
1/2-x,1/2-y,-z
1/2+x,y,-z
1/2-x,1/2+y,z
1/2+x,-y,z
loop_
_atom_site_type_symbol
_atom_site_label
_atom_site_fract_x
_atom_site_fract_y
_atom_site_fract_z
Si Si1 0.055146 0.432246 0.218762
Si Si2 0.850760 0.069863 0.711105
Si Si3 0.608661 0.566511 0.421856
Si Si4 0.500000 0.066678 0.577916
Si Si5 0.698649 0.433208 0.843290
Si Si6 0.101868 0.931328 0.924963
O O1 0.064526 0.250000 0.231161
O O2 0.096619 0.528635 0.255927
O O3 0.062631 0.460381 0.135958
O O4 0.000000 0.464057 0.240466
O O5 0.843044 0.250000 0.708831
O O6 0.853264 0.999880 0.633548
O O7 0.813538 0.992724 0.765281
O O8 0.614390 0.500000 0.500000
O O9 0.611433 0.750000 0.424016
O O10 0.553651 0.523196 0.395304
O O11 0.500000 0.250000 0.577008
O O12 0.500000 0.000000 0.500000
O O13 0.699729 0.250000 0.842504
O O14 0.750000 0.500000 0.866703
O O15 0.653919 0.483531 0.893075
O O16 0.105096 0.750000 0.932964
O O17 0.091138 0.000000 0.000000
#
# Coordination Sequence:
#
# PCOD9501581 Si02
#       6
#    16  16  16   8  16  16
#     4   9  19  36  54  73 104 147 189 226 268 316
#     4  11  22  35  53  80 109 141 181 225 270 322
#     4  10  19  33  51  75 106 144 183 224 271 318
#     4   8  16  28  44  66  96 134 173 210 255 304
#     4  10  21  39  60  82 107 138 175 219 271 325
#     4   9  19  34  53  79 110 142 177 218 265 318
#
# _framework density 19.121832999999999
#
# number of rings (size 3 to 8) (size 9 to 14) (size 15 to 20)
#    0.000    2.364    0.000    3.818    1.273    5.455 
#    0.000    1.818    0.000    0.545    0.000    3.818 
#    0.000    0.000    0.000    0.000    0.000    0.000 
#
# Total GULP energy -245451.053983 kJ/mol
# GULP energy per Si atom -5578.433045 kJ/mol
# Density = 1.907831 g / cm^3
# Si number density = 19.121833 Si / 1000 Ang^3
#
#
#
# Elastic Constant Matrix: (Units=GPa)
#
#
# Indices 1 2 3 4 5 6 
#
# 1 26.1170 2.3262 -20.8618 0.0000 0.0000 0.0000
# 2 2.3262 45.7831 13.1845 0.0000 0.0000 0.0000
# 3 -20.8618 13.1845 70.1439 0.0000 0.0000 0.0000
# 4 0.0000 0.0000 0.0000 31.1218 0.0000 0.0000
# 5 0.0000 0.0000 0.0000 0.0000 13.9370 0.0000
# 6 0.0000 0.0000 0.0000 0.0000 0.0000 21.2567
#
#
#
# Elastic Compliance Matrix: (Units=1/GPa)
#
#
# Indices 1 2 3 4 5 6 
#
# 1 0.052601 -0.007589 0.017071 0.000000 0.000000 0.000000
# 2 -0.007589 0.024187 -0.006803 0.000000 0.000000 0.000000
# 3 0.017071 -0.006803 0.020612 0.000000 0.000000 0.000000
# 4 0.000000 0.000000 0.000000 0.032132 0.000000 0.000000
# 5 0.000000 0.000000 0.000000 0.000000 0.071751 0.000000
# 6 0.000000 0.000000 0.000000 0.000000 0.000000 0.047044
#
#
# Mechanical properties :
#
#
# Convention : Reuss Voigt Hill
#
# Bulk Modulus (GPa) = 9.73164 14.59355 12.16259
# Shear Modulus (GPa) = 18.03609 23.08945 20.56277
#
# Velocity S-wave (km/s) = 3.07452 3.47867 3.28282
# Velocity P-wave (km/s) = 4.20760 4.87681 4.55451
#
# Compressibility (1/GPa) = 0.10275762
#
# Stress axis : x y z
#
# Youngs Moduli (GPa) = 19.01109 41.34476 48.51489
#
# Poissons Ratio (x) = 0.31375 -0.82818
# Poissons Ratio (y) = 0.14427 0.33006
# Poissons Ratio (z) = -0.32453 0.28128
#
# Static dielectric constant tensor:
#      x y z
#    x 1.674390 0.000000 0.000000 
#    y 0.000000 1.632990 0.000000 
#    z 0.000000 0.000000 1.688900 
# 
# From -- ./inp_files/32398.got.cif
#   From: 2010.05.17/outbox.cif.g08.bks.cpg/sg67_17_cif.got.tgz:32398.got - 2010.06.03 18:28:57.
