data_PCOD9501906
_publ_section_title
;
Structure prediction by ZEFSAII (Michael W. Deem and Ramdas Pophale) SiO2 
 PCOD9501906
Probable space group: C M M A
;
_chemical_formula_sum "Si O2"
_cell_formula_units_Z 104
_cell_length_a 30.677186
_cell_length_b 9.025784
_cell_length_c 20.468121
_cell_angle_alpha 90.000000
_cell_angle_beta 90.000000
_cell_angle_gamma 90.000000
_cell_volume 5667.329081
_symmetry_space_group_name_H-M "C M M A"
_symmetry_group_IT_number 67
_symmetry_cell_setting 'orthorhombic'
loop_
_space_group_symop_operation_xyz
x,y,z
-x,1/2-y,z
x,-y,-z
-x,1/2+y,-z
-x,-y,-z
x,1/2+y,-z
-x,y,z
x,1/2-y,z
1/2+x,1/2+y,z
1/2-x,-y,z
1/2+x,1/2-y,-z
1/2-x,y,-z
1/2-x,1/2-y,-z
1/2+x,y,-z
1/2-x,1/2+y,z
1/2+x,-y,z
loop_
_atom_site_type_symbol
_atom_site_label
_atom_site_fract_x
_atom_site_fract_y
_atom_site_fract_z
Si Si1 0.296843 0.573321 0.567695
Si Si2 0.950467 0.077707 0.716370
Si Si3 0.500000 0.916701 0.066445
Si Si4 0.170508 0.575353 0.071602
Si Si5 0.795358 0.071725 0.200689
Si Si6 0.073662 0.914234 0.131474
Si Si7 0.857621 0.570876 0.307807
O O1 0.312338 0.500000 0.500000
O O2 0.291753 0.750000 0.559300
O O3 0.250000 0.500000 0.582012
O O4 0.329104 0.546573 0.627719
O O5 0.954439 0.250000 0.696713
O O6 0.932921 0.078157 0.790960
O O7 0.907439 0.017009 0.680630
O O8 0.000000 0.014813 0.712393
O O9 0.500000 0.750000 0.050405
O O10 0.457240 0.960712 0.104863
O O11 0.500000 0.000000 0.000000
O O12 0.182916 0.750000 0.067848
O O13 0.197498 0.488084 0.126861
O O14 0.121430 0.570351 0.101221
O O15 0.172638 0.500000 0.000000
O O16 0.793901 0.250000 0.202108
O O17 0.750000 0.000000 0.224697
O O18 0.833836 0.009969 0.247305
O O19 0.057525 0.750000 0.111748
O O20 0.858237 0.750000 0.294429
#
# Coordination Sequence:
#
# PCOD9501906 Si02
#       7
#    16  16   8  16  16  16  16
#     4  10  20  34  57  87 124 158 194 232 278 336
#     4   9  16  31  58  85 110 144 187 232 280 333
#     4  12  24  34  48  72 104 136 179 232 287 354
#     4  11  23  40  59  79 107 142 187 240 292 353
#     4  12  25  40  60  85 113 148 190 236 290 349
#     4  10  19  35  57  77 102 138 180 230 289 347
#     4  10  20  37  60  89 119 153 193 238 285 335
#
# _framework density 18.350795000000002
#
# number of rings (size 3 to 8) (size 9 to 14) (size 15 to 20)
#    0.000    1.538    2.308    4.385    0.000    5.231 
#    0.000    1.538    0.000    0.462    0.000    0.000 
#    0.000    0.000    0.000    0.000    0.000    0.615 
#
# Total GULP energy -289981.292226 kJ/mol
# GULP energy per Si atom -5576.563312 kJ/mol
# Density = 1.830903 g / cm^3
# Si number density = 18.350795 Si / 1000 Ang^3
#
#
#
# Elastic Constant Matrix: (Units=GPa)
#
#
# Indices 1 2 3 4 5 6 
#
# 1 116.8414 41.8191 49.1792 0.0000 0.0000 0.0000
# 2 41.8191 108.7221 43.3175 0.0000 0.0000 0.0000
# 3 49.1792 43.3175 93.7396 0.0000 0.0000 0.0000
# 4 0.0000 0.0000 0.0000 22.1602 0.0000 0.0000
# 5 0.0000 0.0000 0.0000 0.0000 26.7252 0.0000
# 6 0.0000 0.0000 0.0000 0.0000 0.0000 36.0578
#
#
#
# Elastic Compliance Matrix: (Units=1/GPa)
#
#
# Indices 1 2 3 4 5 6 
#
# 1 0.011503 -0.002476 -0.004891 0.000000 0.000000 0.000000
# 2 -0.002476 0.011806 -0.004157 0.000000 0.000000 0.000000
# 3 -0.004891 -0.004157 0.015155 0.000000 0.000000 0.000000
# 4 0.000000 0.000000 0.000000 0.045126 0.000000 0.000000
# 5 0.000000 0.000000 0.000000 0.000000 0.037418 0.000000
# 6 0.000000 0.000000 0.000000 0.000000 0.000000 0.027733
#
#
# Mechanical properties :
#
#
# Convention : Reuss Voigt Hill
#
# Bulk Modulus (GPa) = 64.86351 65.32609 65.09480
# Shear Modulus (GPa) = 28.26013 29.32114 28.79064
#
# Velocity S-wave (km/s) = 3.92853 4.00160 3.96524
# Velocity P-wave (km/s) = 7.48338 7.55157 7.51755
#
# Compressibility (1/GPa) = 0.01541699
#
# Stress axis : x y z
#
# Youngs Moduli (GPa) = 86.93054 84.70063 65.98638
#
# Poissons Ratio (x) = 0.20972 0.32273
# Poissons Ratio (y) = 0.21524 0.27429
# Poissons Ratio (z) = 0.42517 0.35208
#
# Static dielectric constant tensor:
#      x y z
#    x 1.676180 0.000000 0.000000 
#    y 0.000000 1.619810 0.000000 
#    z 0.000000 0.000000 1.565370 
# 
# From -- ./inp_files/40186.got.cif
#   From: 2010.05.17/outbox.cif.g08.bks.cpg/sg67_21_cif.got.tgz:40186.got - 2010.06.03 18:28:57.
