data_PCOD9501782
_publ_section_title
;
Structure prediction by ZEFSAII (Michael W. Deem and Ramdas Pophale) SiO2 
 PCOD9501782
Probable space group: C M M A
;
_chemical_formula_sum "Si O2"
_cell_formula_units_Z 96
_cell_length_a 23.566863
_cell_length_b 14.023799
_cell_length_c 11.704959
_cell_angle_alpha 90.000000
_cell_angle_beta 90.000000
_cell_angle_gamma 90.000000
_cell_volume 3868.453247
_symmetry_space_group_name_H-M "C M M A"
_symmetry_group_IT_number 67
_symmetry_cell_setting 'orthorhombic'
loop_
_space_group_symop_operation_xyz
x,y,z
-x,1/2-y,z
x,-y,-z
-x,1/2+y,-z
-x,-y,-z
x,1/2+y,-z
-x,y,z
x,1/2-y,z
1/2+x,1/2+y,z
1/2-x,-y,z
1/2+x,1/2-y,-z
1/2-x,y,-z
1/2-x,1/2-y,-z
1/2+x,y,-z
1/2-x,1/2+y,z
1/2+x,-y,z
loop_
_atom_site_type_symbol
_atom_site_label
_atom_site_fract_x
_atom_site_fract_y
_atom_site_fract_z
Si Si1 0.937447 0.135160 0.531460
Si Si2 0.687288 0.136331 0.464456
Si Si3 0.852749 0.638047 0.055781
Si Si4 0.264790 0.136013 0.227571
Si Si5 0.359463 0.138748 0.782164
Si Si6 0.563780 0.966833 0.775431
O O1 0.936802 0.250000 0.530248
O O2 0.874099 0.105001 0.488400
O O3 0.937380 0.097470 0.661667
O O4 0.000000 0.106403 0.481547
O O5 0.688965 0.250000 0.486578
O O6 0.750000 0.101431 0.500000
O O7 0.690258 0.120787 0.328108
O O8 0.858640 0.750000 0.085650
O O9 0.793127 0.604577 0.110173
O O10 0.900354 0.580942 0.123369
O O11 0.855318 0.632623 0.920199
O O12 0.255175 0.250000 0.218543
O O13 0.202154 0.100809 0.258267
O O14 0.368335 0.250000 0.750316
O O15 0.409072 0.068832 0.747113
O O16 0.500000 0.979909 0.815655
#
# Coordination Sequence:
#
# PCOD9501782 Si02
#       6
#    16  16  16  16  16  16
#     4   9  17  32  55  84 119 157 191 231 291 354
#     4   9  16  29  55  89 119 145 178 230 290 345
#     4  10  19  34  55  80 110 144 183 231 291 347
#     4   9  17  33  54  78 110 144 182 229 284 344
#     4  10  22  36  52  74 107 152 195 238 284 333
#     4  11  22  35  53  78 111 150 195 238 277 331
#
# _framework density 24.816120999999999
#
# number of rings (size 3 to 8) (size 9 to 14) (size 15 to 20)
#    0.000    2.333    1.667    1.500    0.000    5.333 
#    0.000    3.333    0.000    3.000    0.000    7.000 
#    0.000    0.000    0.000    0.000    0.000    0.000 
#
# Total GULP energy -268398.961275 kJ/mol
# GULP energy per Si atom -5591.645027 kJ/mol
# Density = 2.475964 g / cm^3
# Si number density = 24.816121 Si / 1000 Ang^3
#
#
#
# Elastic Constant Matrix: (Units=GPa)
#
#
# Indices 1 2 3 4 5 6 
#
# 1 232.9370 35.3057 24.3087 0.0000 0.0000 0.0000
# 2 35.3057 118.1566 7.4016 0.0000 0.0000 0.0000
# 3 24.3087 7.4016 63.0985 0.0000 0.0000 0.0000
# 4 0.0000 0.0000 0.0000 14.9876 0.0000 0.0000
# 5 0.0000 0.0000 0.0000 0.0000 27.1506 0.0000
# 6 0.0000 0.0000 0.0000 0.0000 0.0000 50.8005
#
#
#
# Elastic Compliance Matrix: (Units=1/GPa)
#
#
# Indices 1 2 3 4 5 6 
#
# 1 0.004660 -0.001289 -0.001644 0.000000 0.000000 0.000000
# 2 -0.001289 0.008883 -0.000545 0.000000 0.000000 0.000000
# 3 -0.001644 -0.000545 0.016546 0.000000 0.000000 0.000000
# 4 0.000000 0.000000 0.000000 0.066722 0.000000 0.000000
# 5 0.000000 0.000000 0.000000 0.000000 0.036832 0.000000
# 6 0.000000 0.000000 0.000000 0.000000 0.000000 0.019685
#
#
# Mechanical properties :
#
#
# Convention : Reuss Voigt Hill
#
# Bulk Modulus (GPa) = 43.23206 60.91382 52.07294
# Shear Modulus (GPa) = 29.76288 41.73279 35.74783
#
# Velocity S-wave (km/s) = 3.46690 4.10528 3.79952
# Velocity P-wave (km/s) = 5.78659 6.86079 6.34646
#
# Compressibility (1/GPa) = 0.02313098
#
# Stress axis : x y z
#
# Youngs Moduli (GPa) = 214.59178 112.57724 60.43925
#
# Poissons Ratio (x) = 0.14516 0.09936
# Poissons Ratio (y) = 0.27670 0.03295
# Poissons Ratio (z) = 0.35279 0.06138
#
# Static dielectric constant tensor:
#      x y z
#    x 1.975780 0.000000 0.000000 
#    y 0.000000 1.956760 0.000000 
#    z 0.000000 0.000000 2.018760 
# 
# From -- ./inp_files/27220.got.cif
#   From: 2010.05.17/outbox.cif.g08.bks.cpg/sg67_14_cif.got.tgz:27220.got - 2010.06.03 18:28:57.
