data_PCOD9501807
_publ_section_title
;
Structure prediction by ZEFSAII (Michael W. Deem and Ramdas Pophale) SiO2 
 PCOD9501807
Probable space group: C M M A
;
_chemical_formula_sum "Si O2"
_cell_formula_units_Z 80
_cell_length_a 17.396291
_cell_length_b 18.173475
_cell_length_c 13.792992
_cell_angle_alpha 90.000000
_cell_angle_beta 90.000000
_cell_angle_gamma 90.000000
_cell_volume 4360.669036
_symmetry_space_group_name_H-M "C M M A"
_symmetry_group_IT_number 67
_symmetry_cell_setting 'orthorhombic'
loop_
_space_group_symop_operation_xyz
x,y,z
-x,1/2-y,z
x,-y,-z
-x,1/2+y,-z
-x,-y,-z
x,1/2+y,-z
-x,y,z
x,1/2-y,z
1/2+x,1/2+y,z
1/2-x,-y,z
1/2+x,1/2-y,-z
1/2-x,y,-z
1/2-x,1/2-y,-z
1/2+x,y,-z
1/2-x,1/2+y,z
1/2+x,-y,z
loop_
_atom_site_type_symbol
_atom_site_label
_atom_site_fract_x
_atom_site_fract_y
_atom_site_fract_z
Si Si1 0.192823 0.162412 0.180977
Si Si2 0.834958 0.084837 0.531671
Si Si3 0.409783 0.540120 0.102306
Si Si4 0.182128 0.059613 0.750886
Si Si5 0.084468 0.162679 0.363751
O O1 0.193857 0.250000 0.163184
O O2 0.141574 0.113908 0.108058
O O3 0.276398 0.125431 0.190781
O O4 0.149453 0.147727 0.283840
O O5 0.750000 0.112095 0.500000
O O6 0.845692 0.088123 0.646752
O O7 0.895123 0.127456 0.465963
O O8 0.838956 0.000000 0.500000
O O9 0.500000 0.556280 0.113616
O O10 0.379752 0.484425 0.185761
O O11 0.397900 0.500000 0.000000
O O12 0.250000 0.000000 0.730559
O O13 0.082572 0.250000 0.374426
O O14 0.000000 0.137502 0.330048
#
# Coordination Sequence:
#
# PCOD9501807 Si02
#       5
#    16  16  16  16  16
#     4  10  20  35  59  86 110 140 182 234 280 329
#     4  11  18  31  51  78 110 146 183 219 263 322
#     4  10  22  40  60  82 110 146 186 234 289 335
#     4  10  19  34  56  81 112 145 188 228 273 332
#     4  10  21  34  50  78 112 145 183 226 274 328
#
# _framework density 18.345808000000002
#
# number of rings (size 3 to 8) (size 9 to 14) (size 15 to 20)
#    0.000    1.800    4.000    1.800    0.000    7.200 
#    0.000    2.000    0.000    1.800    0.000    0.000 
#    0.000    0.000    0.000    0.000    0.000    0.000 
#
# Total GULP energy -223197.931880 kJ/mol
# GULP energy per Si atom -5579.948297 kJ/mol
# Density = 1.830405 g / cm^3
# Si number density = 18.345808 Si / 1000 Ang^3
#
#
#
# Elastic Constant Matrix: (Units=GPa)
#
#
# Indices 1 2 3 4 5 6 
#
# 1 30.0561 31.6195 -0.2960 0.0000 0.0000 0.0000
# 2 31.6195 93.3620 27.9122 0.0000 0.0000 0.0000
# 3 -0.2960 27.9122 61.1593 0.0000 0.0000 0.0000
# 4 0.0000 0.0000 0.0000 27.9266 0.0000 0.0000
# 5 0.0000 0.0000 0.0000 0.0000 9.7939 0.0000
# 6 0.0000 0.0000 0.0000 0.0000 0.0000 14.0398
#
#
#
# Elastic Compliance Matrix: (Units=1/GPa)
#
#
# Indices 1 2 3 4 5 6 
#
# 1 0.056988 -0.022445 0.010520 0.000000 0.000000 0.000000
# 2 -0.022445 0.021244 -0.009804 0.000000 0.000000 0.000000
# 3 0.010520 -0.009804 0.020876 0.000000 0.000000 0.000000
# 4 0.000000 0.000000 0.000000 0.035808 0.000000 0.000000
# 5 0.000000 0.000000 0.000000 0.000000 0.102104 0.000000
# 6 0.000000 0.000000 0.000000 0.000000 0.000000 0.071226
#
#
# Mechanical properties :
#
#
# Convention : Reuss Voigt Hill
#
# Bulk Modulus (GPa) = 17.97013 33.67208 25.82110
# Shear Modulus (GPa) = 13.50420 18.70817 16.10619
#
# Velocity S-wave (km/s) = 2.71604 3.19682 2.96619
# Velocity P-wave (km/s) = 4.43310 5.65864 5.08294
#
# Compressibility (1/GPa) = 0.05564790
#
# Stress axis : x y z
#
# Youngs Moduli (GPa) = 17.54763 47.07253 47.90179
#
# Poissons Ratio (x) = 1.05656 -0.50390
# Poissons Ratio (y) = 0.39386 0.46963
# Poissons Ratio (z) = -0.18459 0.46150
#
# Static dielectric constant tensor:
#      x y z
#    x 1.648100 0.000000 0.000000 
#    y 0.000000 1.631640 0.000000 
#    z 0.000000 0.000000 1.632680 
# 
# From -- ./inp_files/28381.got.cif
#   From: 2010.05.17/outbox.cif.g08.bks.cpg/sg67_15_cif.got.tgz:28381.got - 2010.06.03 18:28:57.
