data_PCOD9501438
_publ_section_title
;
Structure prediction by ZEFSAII (Michael W. Deem and Ramdas Pophale) SiO2 
 PCOD9501438
Probable space group: C M M A
;
_chemical_formula_sum "Si O2"
_cell_formula_units_Z 120
_cell_length_a 27.127512
_cell_length_b 8.758239
_cell_length_c 28.359865
_cell_angle_alpha 90.000000
_cell_angle_beta 90.000000
_cell_angle_gamma 90.000000
_cell_volume 6737.998590
_symmetry_space_group_name_H-M "C M M A"
_symmetry_group_IT_number 67
_symmetry_cell_setting 'orthorhombic'
loop_
_space_group_symop_operation_xyz
x,y,z
-x,1/2-y,z
x,-y,-z
-x,1/2+y,-z
-x,-y,-z
x,1/2+y,-z
-x,y,z
x,1/2-y,z
1/2+x,1/2+y,z
1/2-x,-y,z
1/2+x,1/2-y,-z
1/2-x,y,-z
1/2-x,1/2-y,-z
1/2+x,y,-z
1/2-x,1/2+y,z
1/2+x,-y,z
loop_
_atom_site_type_symbol
_atom_site_label
_atom_site_fract_x
_atom_site_fract_y
_atom_site_fract_z
Si Si1 0.600242 0.067506 0.144492
Si Si2 0.059434 0.426621 0.049370
Si Si3 0.801621 0.568600 0.815587
Si Si4 0.803664 0.933262 0.384769
Si Si5 0.659119 0.065638 0.280793
Si Si6 0.554324 0.935111 0.755767
Si Si7 0.500000 0.933571 0.447154
Si Si8 0.108144 0.934023 0.553012
O O1 0.604773 0.250000 0.145567
O O2 0.566788 0.023546 0.189917
O O3 0.578341 0.013775 0.095258
O O4 0.653120 0.992849 0.153701
O O5 0.074478 0.250000 0.051603
O O6 0.000000 0.432904 0.049875
O O7 0.076066 0.500000 0.000000
O O8 0.800153 0.750000 0.815929
O O9 0.750000 0.500000 0.831784
O O10 0.812298 0.509443 0.762567
O O11 0.802531 0.750000 0.388634
O O12 0.817777 0.974385 0.330894
O O13 0.750000 0.000000 0.396552
O O14 0.846933 0.998839 0.417370
O O15 0.661326 0.250000 0.275250
O O16 0.601594 0.018321 0.275209
O O17 0.500000 0.992089 0.742203
O O18 0.552964 0.750000 0.753809
O O19 0.500000 0.750000 0.449890
O O20 0.446434 0.977739 0.426641
O O21 0.500000 0.000000 0.500000
O O22 0.111336 0.750000 0.551615
O O23 0.110578 0.000000 0.500000
#
# Coordination Sequence:
#
# PCOD9501438 Si02
#       8
#    16  16  16  16  16  16   8  16
#     4  10  19  32  51  76 105 139 178 220 267 317
#     4  10  20  33  50  75 107 142 180 220 263 314
#     4  11  21  34  54  78 103 134 174 221 269 317
#     4  11  23  38  55  79 109 145 185 227 273 324
#     4   9  19  35  53  77 107 140 179 219 263 316
#     4   8  14  27  49  75 104 137 172 211 256 309
#     4   8  16  32  56  82 108 138 170 208 256 308
#     4  10  20  37  60  85 112 142 177 219 266 320
#
# _framework density 17.809443000000002
#
# number of rings (size 3 to 8) (size 9 to 14) (size 15 to 20)
#    0.000    2.267    0.000    4.400    0.000    4.267 
#    1.200    1.333    0.000    4.000    0.000    2.800 
#    0.000    0.000    0.000    0.000    0.000    0.000 
#
# Total GULP energy -334721.694818 kJ/mol
# GULP energy per Si atom -5578.694914 kJ/mol
# Density = 1.776891 g / cm^3
# Si number density = 17.809443 Si / 1000 Ang^3
#
#
#
# Elastic Constant Matrix: (Units=GPa)
#
#
# Indices 1 2 3 4 5 6 
#
# 1 123.3003 30.6370 26.5799 0.0000 0.0000 0.0000
# 2 30.6370 55.0207 21.8490 0.0000 0.0000 0.0000
# 3 26.5799 21.8490 51.5399 0.0000 0.0000 0.0000
# 4 0.0000 0.0000 0.0000 25.7825 0.0000 0.0000
# 5 0.0000 0.0000 0.0000 0.0000 -184.3302 0.0000
# 6 0.0000 0.0000 0.0000 0.0000 0.0000 18.3373
#
#
#
# Elastic Compliance Matrix: (Units=1/GPa)
#
#
# Indices 1 2 3 4 5 6 
#
# 1 0.009863 -0.004175 -0.003316 0.000000 0.000000 0.000000
# 2 -0.004175 0.023621 -0.007861 0.000000 0.000000 0.000000
# 3 -0.003316 -0.007861 0.024445 0.000000 0.000000 0.000000
# 4 0.000000 0.000000 0.000000 0.038786 0.000000 0.000000
# 5 0.000000 0.000000 0.000000 0.000000 -0.005425 0.000000
# 6 0.000000 0.000000 0.000000 0.000000 0.000000 0.054534
#
#
# Mechanical properties :
#
#
# Convention : Reuss Voigt Hill
#
# Bulk Modulus (GPa) = 36.73079 43.11030 39.92054
# Shear Modulus (GPa) = 26.93938 -17.98908 4.47515
#
# Velocity S-wave (km/s) = 3.89349 -3.18163 1.58690
# Velocity P-wave (km/s) = 6.39386 3.28054 5.08151
#
# Compressibility (1/GPa) = 0.02722512
#
# Stress axis : x y z
#
# Youngs Moduli (GPa) = 101.39384 42.33508 40.90799
#
# Poissons Ratio (x) = 0.17674 0.13567
# Poissons Ratio (y) = 0.42329 0.32156
# Poissons Ratio (z) = 0.33627 0.33278
#
# Static dielectric constant tensor:
#      x y z
#    x 1.629330 0.000000 0.000000 
#    y 0.000000 1.596150 0.000000 
#    z 0.000000 0.000000 1.576210 
# 
# From -- ./inp_files/44988.got.cif
#   From: 2010.05.17/outbox.cif.g08.bks.cpg/sg67_23_cif.got.tgz:44988.got - 2010.06.03 18:28:57.
