data_PCOD9501597
_publ_section_title
;
Structure prediction by ZEFSAII (Michael W. Deem and Ramdas Pophale) SiO2 
 PCOD9501597
Probable space group: C M M A
;
_chemical_formula_sum "Si O2"
_cell_formula_units_Z 96
_cell_length_a 16.590868
_cell_length_b 26.212569
_cell_length_c 12.120419
_cell_angle_alpha 90.000000
_cell_angle_beta 90.000000
_cell_angle_gamma 90.000000
_cell_volume 5271.040198
_symmetry_space_group_name_H-M "C M M A"
_symmetry_group_IT_number 67
_symmetry_cell_setting 'orthorhombic'
loop_
_space_group_symop_operation_xyz
x,y,z
-x,1/2-y,z
x,-y,-z
-x,1/2+y,-z
-x,-y,-z
x,1/2+y,-z
-x,y,z
x,1/2-y,z
1/2+x,1/2+y,z
1/2-x,-y,z
1/2+x,1/2-y,-z
1/2-x,y,-z
1/2-x,1/2-y,-z
1/2+x,y,-z
1/2-x,1/2+y,z
1/2+x,-y,z
loop_
_atom_site_type_symbol
_atom_site_label
_atom_site_fract_x
_atom_site_fract_y
_atom_site_fract_z
Si Si1 0.331620 0.926994 0.265362
Si Si2 0.097433 0.190808 0.669564
Si Si3 0.404647 0.058611 0.971448
Si Si4 0.344557 0.604082 0.815865
Si Si5 0.903833 0.885926 0.523364
Si Si6 0.591493 0.526699 0.650896
O O1 0.242145 0.914545 0.226209
O O2 0.359727 0.888104 0.360159
O O3 0.346960 0.982043 0.321126
O O4 0.384884 0.928738 0.154735
O O5 0.119464 0.250000 0.665098
O O6 0.136412 0.160152 0.770921
O O7 0.120203 0.159763 0.558613
O O8 0.000000 0.187116 0.679042
O O9 0.500000 0.063344 0.990289
O O10 0.357147 0.094970 0.055388
O O11 0.381118 0.000000 0.000000
O O12 0.406062 0.566100 0.752830
O O13 0.888828 0.938296 0.454519
O O14 0.000000 0.882957 0.540590
O O15 0.500000 0.506216 0.639899
#
# Coordination Sequence:
#
# PCOD9501597 Si02
#       6
#    16  16  16  16  16  16
#     4  12  22  32  51  80 116 154 182 220 287 339
#     4   9  19  39  66  86 105 144 194 240 282 327
#     4  11  22  36  57  78 109 157 201 230 267 332
#     4  11  22  35  53  84 117 143 185 240 280 328
#     4   9  19  35  55  81 112 146 192 235 273 332
#     4  10  19  33  52  75 110 155 191 221 260 327
#
# _framework density 18.212724000000001
#
# number of rings (size 3 to 8) (size 9 to 14) (size 15 to 20)
#    0.000    1.667    1.667    5.500    0.000    4.667 
#    0.000    5.000    0.000    3.000    0.000    2.333 
#    0.000    0.000    0.000    0.000    0.000    0.000 
#
# Total GULP energy -268112.748454 kJ/mol
# GULP energy per Si atom -5585.682259 kJ/mol
# Density = 1.817127 g / cm^3
# Si number density = 18.212724 Si / 1000 Ang^3
#
#
#
# Elastic Constant Matrix: (Units=GPa)
#
#
# Indices 1 2 3 4 5 6 
#
# 1 67.5464 41.5515 36.5878 0.0000 0.0000 0.0000
# 2 41.5515 121.1467 47.6197 0.0000 0.0000 0.0000
# 3 36.5878 47.6197 117.5888 0.0000 0.0000 0.0000
# 4 0.0000 0.0000 0.0000 10.5545 0.0000 0.0000
# 5 0.0000 0.0000 0.0000 0.0000 21.8067 0.0000
# 6 0.0000 0.0000 0.0000 0.0000 0.0000 16.9325
#
#
#
# Elastic Compliance Matrix: (Units=1/GPa)
#
#
# Indices 1 2 3 4 5 6 
#
# 1 0.020348 -0.005340 -0.004169 0.000000 0.000000 0.000000
# 2 -0.005340 0.011219 -0.002882 0.000000 0.000000 0.000000
# 3 -0.004169 -0.002882 0.010968 0.000000 0.000000 0.000000
# 4 0.000000 0.000000 0.000000 0.094746 0.000000 0.000000
# 5 0.000000 0.000000 0.000000 0.000000 0.045858 0.000000
# 6 0.000000 0.000000 0.000000 0.000000 0.000000 0.059058
#
#
# Mechanical properties :
#
#
# Convention : Reuss Voigt Hill
#
# Bulk Modulus (GPa) = 56.32623 61.97777 59.15200
# Shear Modulus (GPa) = 18.32203 21.89360 20.10781
#
# Velocity S-wave (km/s) = 3.17519 3.47090 3.32633
# Velocity P-wave (km/s) = 6.66607 7.08284 6.87761
#
# Compressibility (1/GPa) = 0.01775372
#
# Stress axis : x y z
#
# Youngs Moduli (GPa) = 49.14539 89.13585 91.17268
#
# Poissons Ratio (x) = 0.47603 0.38005
# Poissons Ratio (y) = 0.26246 0.26272
# Poissons Ratio (z) = 0.20486 0.25685
#
# Static dielectric constant tensor:
#      x y z
#    x 1.644360 0.000000 0.000000 
#    y 0.000000 1.620540 0.000000 
#    z 0.000000 0.000000 1.653370 
# 
# From -- ./inp_files/19627.got.cif
#   From: 2010.05.17/outbox.cif.g08.bks.cpg/sg67_10_cif.got.tgz:19627.got - 2010.06.03 18:28:57.
