data_PCOD9501070
_publ_section_title
;
Structure prediction by ZEFSAII (Michael W. Deem and Ramdas Pophale) SiO2 
 PCOD9501070
Probable space group: C M M A
;
_chemical_formula_sum "Si O2"
_cell_formula_units_Z 96
_cell_length_a 8.434763
_cell_length_b 28.270745
_cell_length_c 24.759398
_cell_angle_alpha 90.000000
_cell_angle_beta 90.000000
_cell_angle_gamma 90.000000
_cell_volume 5904.052608
_symmetry_space_group_name_H-M "C M M A"
_symmetry_group_IT_number 67
_symmetry_cell_setting 'orthorhombic'
loop_
_space_group_symop_operation_xyz
x,y,z
-x,1/2-y,z
x,-y,-z
-x,1/2+y,-z
-x,-y,-z
x,1/2+y,-z
-x,y,z
x,1/2-y,z
1/2+x,1/2+y,z
1/2-x,-y,z
1/2+x,1/2-y,-z
1/2-x,y,-z
1/2-x,1/2-y,-z
1/2+x,y,-z
1/2-x,1/2+y,z
1/2+x,-y,z
loop_
_atom_site_type_symbol
_atom_site_label
_atom_site_fract_x
_atom_site_fract_y
_atom_site_fract_z
Si Si1 0.310320 0.051934 0.226562
Si Si2 0.691581 0.303051 0.726130
Si Si3 0.190237 0.446342 0.441431
Si Si4 0.308217 0.646225 0.832292
Si Si5 0.808359 0.603008 0.667511
Si Si6 0.191256 0.195229 0.941291
O O1 0.500000 0.051527 0.227742
O O2 0.257835 0.093518 0.185550
O O3 0.249242 0.067773 0.285536
O O4 0.250000 0.000000 0.212624
O O5 0.500000 0.303082 0.726012
O O6 0.746321 0.250000 0.713346
O O7 0.748453 0.318896 0.785358
O O8 0.744702 0.344462 0.685274
O O9 0.250000 0.500000 0.433539
O O10 0.250000 0.430034 0.500000
O O11 0.244834 0.414540 0.391133
O O12 0.000000 0.447144 0.442208
O O13 0.500000 0.647360 0.831808
O O14 0.253882 0.663782 0.890870
O O15 0.000000 0.602474 0.667842
O O16 0.242430 0.250000 0.933617
O O17 0.000000 0.194823 0.941620
O O18 0.250000 0.179405 0.000000
#
# Coordination Sequence:
#
# PCOD9501070 Si02
#       6
#    16  16  16  16  16  16
#     4  10  19  30  46  67  90 117 147 180 219 262
#     4   9  17  29  46  68  92 117 146 180 217 258
#     4  10  19  30  45  64  87 114 144 179 218 260
#     4   9  18  31  46  65  90 119 148 179 218 262
#     4   9  18  31  46  66  91 118 147 179 217 260
#     4   9  17  29  45  65  89 115 143 177 216 258
#
# _framework density 16.260017000000001
#
# number of rings (size 3 to 8) (size 9 to 14) (size 15 to 20)
#    0.000    2.667    0.000    2.500    0.000    5.000 
#    0.000    1.667    0.000    1.000    0.000    3.500 
#    0.000    0.000    0.000    0.000    0.000    0.667 
#
# Total GULP energy -267568.547622 kJ/mol
# GULP energy per Si atom -5574.344742 kJ/mol
# Density = 1.622301 g / cm^3
# Si number density = 16.260017 Si / 1000 Ang^3
#
#
#
# Elastic Constant Matrix: (Units=GPa)
#
#
# Indices 1 2 3 4 5 6 
#
# 1 8.6292 15.7355 19.6113 0.0000 0.0000 0.0000
# 2 15.7355 109.4166 79.6352 0.0000 0.0000 0.0000
# 3 19.6113 79.6352 162.8747 0.0000 0.0000 0.0000
# 4 0.0000 0.0000 0.0000 37.0164 0.0000 0.0000
# 5 0.0000 0.0000 0.0000 0.0000 17.4577 0.0000
# 6 0.0000 0.0000 0.0000 0.0000 0.0000 15.6903
#
#
#
# Elastic Compliance Matrix: (Units=1/GPa)
#
#
# Indices 1 2 3 4 5 6 
#
# 1 0.174467 -0.015216 -0.013567 0.000000 0.000000 0.000000
# 2 -0.015216 0.015515 -0.005754 0.000000 0.000000 0.000000
# 3 -0.013567 -0.005754 0.010587 0.000000 0.000000 0.000000
# 4 0.000000 0.000000 0.000000 0.027015 0.000000 0.000000
# 5 0.000000 0.000000 0.000000 0.000000 0.057281 0.000000
# 6 0.000000 0.000000 0.000000 0.000000 0.000000 0.063734
#
#
# Mechanical properties :
#
#
# Convention : Reuss Voigt Hill
#
# Bulk Modulus (GPa) = 7.60489 56.76494 32.18492
# Shear Modulus (GPa) = 10.83411 25.09546 17.96478
#
# Velocity S-wave (km/s) = 2.58409 3.93285 3.32753
# Velocity P-wave (km/s) = 3.68654 7.45719 5.88219
#
# Compressibility (1/GPa) = 0.13149438
#
# Stress axis : x y z
#
# Youngs Moduli (GPa) = 5.73174 64.45195 94.45898
#
# Poissons Ratio (x) = 0.98070 1.28157
# Poissons Ratio (y) = 0.08721 0.54351
# Poissons Ratio (z) = 0.07777 0.37085
#
# Static dielectric constant tensor:
#      x y z
#    x 1.554200 0.000000 0.000000 
#    y 0.000000 1.551030 0.000000 
#    z 0.000000 0.000000 1.534140 
# 
# From -- ./inp_files/40895.got.cif
#   From: 2010.05.17/outbox.cif.g08.bks.cpg/sg67_21_cif.got.tgz:40895.got - 2010.06.03 18:28:57.
