data_PCOD9501000
_publ_section_title
;
Structure prediction by ZEFSAII (Michael W. Deem and Ramdas Pophale) SiO2 
 PCOD9501000
Probable space group: C M M A
;
_chemical_formula_sum "Si O2"
_cell_formula_units_Z 88
_cell_length_a 33.557143
_cell_length_b 24.945528
_cell_length_c 5.358295
_cell_angle_alpha 90.000000
_cell_angle_beta 90.000000
_cell_angle_gamma 90.000000
_cell_volume 4485.432229
_symmetry_space_group_name_H-M "C M M A"
_symmetry_group_IT_number 67
_symmetry_cell_setting 'orthorhombic'
loop_
_space_group_symop_operation_xyz
x,y,z
-x,1/2-y,z
x,-y,-z
-x,1/2+y,-z
-x,-y,-z
x,1/2+y,-z
-x,y,z
x,1/2-y,z
1/2+x,1/2+y,z
1/2-x,-y,z
1/2+x,1/2-y,-z
1/2-x,y,-z
1/2-x,1/2-y,-z
1/2+x,y,-z
1/2-x,1/2+y,z
1/2+x,-y,z
loop_
_atom_site_type_symbol
_atom_site_label
_atom_site_fract_x
_atom_site_fract_y
_atom_site_fract_z
Si Si1 0.953288 0.337653 0.580413
Si Si2 0.723984 0.188279 0.750664
Si Si3 0.090095 0.444449 0.601134
Si Si4 0.653703 0.394228 0.785312
Si Si5 0.406901 0.690721 0.068090
Si Si6 0.146852 0.500000 0.000000
O O1 0.943603 0.400280 0.633162
O O2 0.931975 0.320639 0.321314
O O3 0.000000 0.327390 0.561693
O O4 0.934140 0.310116 0.822633
O O5 0.709646 0.250000 0.780482
O O6 0.750000 0.186691 0.500000
O O7 0.688700 0.145841 0.712657
O O8 0.750000 0.176039 0.000000
O O9 0.072289 0.500000 0.500000
O O10 0.122635 0.415880 0.421558
O O11 0.116792 0.466709 0.825314
O O12 0.625896 0.356163 0.958699
O O13 0.671043 0.450786 0.883821
O O14 0.388771 0.750000 0.092040
#
# Coordination Sequence:
#
# PCOD9501000 Si02
#       6
#    16  16  16  16  16   8
#     4  11  23  39  57  87 123 158 200 252 308 360
#     4  10  23  41  64  94 127 159 194 246 303 353
#     4   9  20  37  60  87 117 159 205 251 299 352
#     4  10  21  38  65  88 120 158 205 246 295 360
#     4  11  23  39  61  88 118 160 206 247 296 362
#     4  10  18  38  64  86 116 158 200 256 294 344
#
# _framework density 19.619069
#
# number of rings (size 3 to 8) (size 9 to 14) (size 15 to 20)
#    0.000    1.818    1.818    1.636    2.545    2.545 
#    0.000    4.545    0.000    0.000    0.000    0.000 
#    0.000    0.000    0.000    0.000    0.000    0.000 
#
# Total GULP energy -245061.670017 kJ/mol
# GULP energy per Si atom -5569.583409 kJ/mol
# Density = 1.957442 g / cm^3
# Si number density = 19.619069 Si / 1000 Ang^3
#
#
#
# Elastic Constant Matrix: (Units=GPa)
#
#
# Indices 1 2 3 4 5 6 
#
# 1 61.0002 44.3858 10.0662 0.0000 0.0000 0.0000
# 2 44.3858 169.2856 28.1662 0.0000 0.0000 0.0000
# 3 10.0662 28.1662 74.6811 0.0000 0.0000 0.0000
# 4 0.0000 0.0000 0.0000 108.1351 0.0000 0.0000
# 5 0.0000 0.0000 0.0000 0.0000 9.3531 0.0000
# 6 0.0000 0.0000 0.0000 0.0000 0.0000 17.9036
#
#
#
# Elastic Compliance Matrix: (Units=1/GPa)
#
#
# Indices 1 2 3 4 5 6 
#
# 1 0.020301 -0.005193 -0.000778 0.000000 0.000000 0.000000
# 2 -0.005193 0.007631 -0.002178 0.000000 0.000000 0.000000
# 3 -0.000778 -0.002178 0.014317 0.000000 0.000000 0.000000
# 4 0.000000 0.000000 0.000000 0.009248 0.000000 0.000000
# 5 0.000000 0.000000 0.000000 0.000000 0.106916 0.000000
# 6 0.000000 0.000000 0.000000 0.000000 0.000000 0.055855
#
#
# Mechanical properties :
#
#
# Convention : Reuss Voigt Hill
#
# Bulk Modulus (GPa) = 38.53532 52.24482 45.39007
# Shear Modulus (GPa) = 20.90170 41.90161 31.40165
#
# Velocity S-wave (km/s) = 3.26755 4.62644 4.00505
# Velocity P-wave (km/s) = 5.82411 7.43142 6.67631
#
# Compressibility (1/GPa) = 0.02595022
#
# Stress axis : x y z
#
# Youngs Moduli (GPa) = 49.25974 131.04022 69.84910
#
# Poissons Ratio (x) = 0.68053 0.05432
# Poissons Ratio (y) = 0.25582 0.15214
# Poissons Ratio (z) = 0.03830 0.28542
#
# Static dielectric constant tensor:
#      x y z
#    x 1.659010 0.000000 0.000000 
#    y 0.000000 1.738900 0.000000 
#    z 0.000000 0.000000 1.760430 
# 
# From -- ./inp_files/4753.got.cif
#   From: 2010.05.17/outbox.cif.g08.bks.cpg/sg67_3_cif.got.tgz:4753.got - 2010.06.03 18:28:57.
