data_PCOD9501423
_publ_section_title
;
Structure prediction by ZEFSAII (Michael W. Deem and Ramdas Pophale) SiO2 
 PCOD9501423
Probable space group: C M M A
;
_chemical_formula_sum "Si O2"
_cell_formula_units_Z 96
_cell_length_a 8.411641
_cell_length_b 29.678992
_cell_length_c 21.323845
_cell_angle_alpha 90.000000
_cell_angle_beta 90.000000
_cell_angle_gamma 90.000000
_cell_volume 5323.477134
_symmetry_space_group_name_H-M "C M M A"
_symmetry_group_IT_number 67
_symmetry_cell_setting 'orthorhombic'
loop_
_space_group_symop_operation_xyz
x,y,z
-x,1/2-y,z
x,-y,-z
-x,1/2+y,-z
-x,-y,-z
x,1/2+y,-z
-x,y,z
x,1/2-y,z
1/2+x,1/2+y,z
1/2-x,-y,z
1/2+x,1/2-y,-z
1/2-x,y,-z
1/2-x,1/2-y,-z
1/2+x,y,-z
1/2-x,1/2+y,z
1/2+x,-y,z
loop_
_atom_site_type_symbol
_atom_site_label
_atom_site_fract_x
_atom_site_fract_y
_atom_site_fract_z
Si Si1 0.310845 0.393968 0.066707
Si Si2 0.307618 0.051096 0.188510
Si Si3 0.690885 0.550794 0.569144
Si Si4 0.807727 0.199781 0.744372
Si Si5 0.310021 0.699739 0.112904
Si Si6 0.306161 0.893135 0.688632
O O1 0.500000 0.396193 0.067082
O O2 0.251194 0.422446 0.126452
O O3 0.260905 0.342085 0.075789
O O4 0.250000 0.411074 0.000000
O O5 0.500000 0.051579 0.188112
O O6 0.255972 0.077307 0.251278
O O7 0.250000 0.000000 0.188859
O O8 0.500000 0.550108 0.568642
O O9 0.750000 0.500000 0.581805
O O10 0.750000 0.563786 0.500000
O O11 0.747189 0.583942 0.624206
O O12 0.763964 0.250000 0.722117
O O13 0.739421 0.194087 0.814287
O O14 0.756254 0.158274 0.701172
O O15 0.000000 0.197923 0.749730
O O16 0.500000 0.698309 0.107979
O O17 0.255246 0.750000 0.093324
O O18 0.500000 0.893527 0.687726
#
# Coordination Sequence:
#
# PCOD9501423 Si02
#       6
#    16  16  16  16  16  16
#     4  11  23  39  57  75 102 136 174 217 261 315
#     4  10  21  37  55  76 102 131 171 216 260 308
#     4  10  19  32  51  74 108 141 174 214 253 306
#     4   9  16  30  54  79 104 135 171 211 257 306
#     4  10  20  34  53  79 108 135 168 211 261 315
#     4   9  17  32  53  79 106 134 171 214 255 302
#
# _framework density 18.033325999999999
#
# number of rings (size 3 to 8) (size 9 to 14) (size 15 to 20)
#    0.000    2.167    1.667    2.500    0.000    3.000 
#    0.000    4.167    0.000    0.500    0.000    0.000 
#    0.000    0.000    0.000    0.000    0.000    0.667 
#
# Total GULP energy -267888.345686 kJ/mol
# GULP energy per Si atom -5581.007202 kJ/mol
# Density = 1.799228 g / cm^3
# Si number density = 18.033326 Si / 1000 Ang^3
#
#
#
# Elastic Constant Matrix: (Units=GPa)
#
#
# Indices 1 2 3 4 5 6 
#
# 1 22.1499 15.2142 17.6488 0.0000 0.0000 0.0000
# 2 15.2142 125.8576 78.4197 0.0000 0.0000 0.0000
# 3 17.6488 78.4197 127.9398 0.0000 0.0000 0.0000
# 4 0.0000 0.0000 0.0000 14.6328 0.0000 0.0000
# 5 0.0000 0.0000 0.0000 0.0000 14.1518 0.0000
# 6 0.0000 0.0000 0.0000 0.0000 0.0000 19.5955
#
#
#
# Elastic Compliance Matrix: (Units=1/GPa)
#
#
# Indices 1 2 3 4 5 6 
#
# 1 0.051369 -0.002903 -0.005307 0.000000 0.000000 0.000000
# 2 -0.002903 0.013019 -0.007579 0.000000 0.000000 0.000000
# 3 -0.005307 -0.007579 0.013194 0.000000 0.000000 0.000000
# 4 0.000000 0.000000 0.000000 0.068340 0.000000 0.000000
# 5 0.000000 0.000000 0.000000 0.000000 0.070663 0.000000
# 6 0.000000 0.000000 0.000000 0.000000 0.000000 0.051032
#
#
# Mechanical properties :
#
#
# Convention : Reuss Voigt Hill
#
# Bulk Modulus (GPa) = 21.73737 55.39028 38.56383
# Shear Modulus (GPa) = 15.89674 20.65366 18.27520
#
# Velocity S-wave (km/s) = 2.97226 3.38791 3.18687
# Velocity P-wave (km/s) = 4.88460 6.78867 5.91377
#
# Compressibility (1/GPa) = 0.04600373
#
# Stress axis : x y z
#
# Youngs Moduli (GPa) = 19.46683 76.81038 75.79209
#
# Poissons Ratio (x) = 0.22300 0.40221
# Poissons Ratio (y) = 0.05652 0.57446
# Poissons Ratio (z) = 0.10330 0.58218
#
# Static dielectric constant tensor:
#      x y z
#    x 1.618700 0.000000 0.000000 
#    y 0.000000 1.620390 0.000000 
#    z 0.000000 0.000000 1.610730 
# 
# From -- ./inp_files/37148.got.cif
#   From: 2010.05.17/outbox.cif.g08.bks.cpg/sg67_19_cif.got.tgz:37148.got - 2010.06.03 18:28:57.
