data_PCOD9501545
_publ_section_title
;
Structure prediction by ZEFSAII (Michael W. Deem and Ramdas Pophale) SiO2 
 PCOD9501545
Probable space group: C M M A
;
_chemical_formula_sum "Si O2"
_cell_formula_units_Z 88
_cell_length_a 28.533346
_cell_length_b 15.826609
_cell_length_c 11.364207
_cell_angle_alpha 90.000000
_cell_angle_beta 90.000000
_cell_angle_gamma 90.000000
_cell_volume 5131.918039
_symmetry_space_group_name_H-M "C M M A"
_symmetry_group_IT_number 67
_symmetry_cell_setting 'orthorhombic'
loop_
_space_group_symop_operation_xyz
x,y,z
-x,1/2-y,z
x,-y,-z
-x,1/2+y,-z
-x,-y,-z
x,1/2+y,-z
-x,y,z
x,1/2-y,z
1/2+x,1/2+y,z
1/2-x,-y,z
1/2+x,1/2-y,-z
1/2-x,y,-z
1/2-x,1/2-y,-z
1/2+x,y,-z
1/2-x,1/2+y,z
1/2+x,-y,z
loop_
_atom_site_type_symbol
_atom_site_label
_atom_site_fract_x
_atom_site_fract_y
_atom_site_fract_z
Si Si1 0.551576 0.348346 0.822225
Si Si2 0.290302 0.654703 0.910722
Si Si3 0.853969 0.918140 0.917537
Si Si4 0.874660 0.500000 0.500000
Si Si5 0.553855 0.847695 0.461578
Si Si6 0.696788 0.489005 0.282173
O O1 0.500000 0.378827 0.858804
O O2 0.556030 0.250000 0.856706
O O3 0.594435 0.400183 0.872302
O O4 0.553484 0.350196 0.680538
O O5 0.277579 0.750000 0.875585
O O6 0.300666 0.594949 0.799939
O O7 0.250000 0.620307 0.000000
O O8 0.334804 0.654161 0.997384
O O9 0.819917 0.937199 0.807465
O O10 0.852986 0.000000 0.000000
O O11 0.908585 0.582189 0.501058
O O12 0.840784 0.509542 0.386789
O O13 0.500000 0.866072 0.500455
O O14 0.564829 0.750000 0.495784
O O15 0.750000 0.500000 0.325678
#
# Coordination Sequence:
#
# PCOD9501545 Si02
#       6
#    16  16  16   8  16  16
#     4   9  17  32  53  78 108 138 177 229 278 331
#     4  10  20  35  59  80 103 146 192 234 276 328
#     4  10  19  32  55  79 107 144 180 232 277 326
#     4  12  22  36  60  82 114 160 182 224 296 338
#     4   9  19  36  58  83 108 141 191 239 277 335
#     4  11  22  37  52  79 115 146 185 230 275 332
#
# _framework density 17.147584999999999
#
# number of rings (size 3 to 8) (size 9 to 14) (size 15 to 20)
#    0.000    2.000    3.636    2.182    0.000    1.091 
#    0.000    0.909    0.000    2.182    0.000   10.182 
#    0.000    0.000    0.000    0.000    0.000    0.000 
#
# Total GULP energy -245025.968034 kJ/mol
# GULP energy per Si atom -5568.772001 kJ/mol
# Density = 1.710856 g / cm^3
# Si number density = 17.147585 Si / 1000 Ang^3
#
#
#
# Elastic Constant Matrix: (Units=GPa)
#
#
# Indices 1 2 3 4 5 6 
#
# 1 138.2111 50.7469 43.4496 0.0000 0.0000 0.0000
# 2 50.7469 79.9520 37.3362 0.0000 0.0000 0.0000
# 3 43.4496 37.3362 71.8302 0.0000 0.0000 0.0000
# 4 0.0000 0.0000 0.0000 6.2602 0.0000 0.0000
# 5 0.0000 0.0000 0.0000 0.0000 29.3252 0.0000
# 6 0.0000 0.0000 0.0000 0.0000 0.0000 25.5482
#
#
#
# Elastic Compliance Matrix: (Units=1/GPa)
#
#
# Indices 1 2 3 4 5 6 
#
# 1 0.010118 -0.004707 -0.003674 0.000000 0.000000 0.000000
# 2 -0.004707 0.018706 -0.006876 0.000000 0.000000 0.000000
# 3 -0.003674 -0.006876 0.019718 0.000000 0.000000 0.000000
# 4 0.000000 0.000000 0.000000 0.159738 0.000000 0.000000
# 5 0.000000 0.000000 0.000000 0.000000 0.034100 0.000000
# 6 0.000000 0.000000 0.000000 0.000000 0.000000 0.039142
#
#
# Mechanical properties :
#
#
# Convention : Reuss Voigt Hill
#
# Bulk Modulus (GPa) = 55.46626 61.45098 58.45862
# Shear Modulus (GPa) = 15.72099 22.79078 19.25588
#
# Velocity S-wave (km/s) = 3.03116 3.64963 3.35468
# Velocity P-wave (km/s) = 6.68335 7.32626 7.01218
#
# Compressibility (1/GPa) = 0.01802898
#
# Stress axis : x y z
#
# Youngs Moduli (GPa) = 98.82910 53.45926 50.71446
#
# Poissons Ratio (x) = 0.25161 0.18633
# Poissons Ratio (y) = 0.46515 0.34871
# Poissons Ratio (z) = 0.36312 0.36759
#
# Static dielectric constant tensor:
#      x y z
#    x 1.602370 0.000000 0.000000 
#    y 0.000000 1.600850 0.000000 
#    z 0.000000 0.000000 1.559590 
# 
# From -- ./inp_files/22834.got.cif
#   From: 2010.05.17/outbox.cif.g08.bks.cpg/sg67_12_cif.got.tgz:22834.got - 2010.06.03 18:28:57.
