data_PCOD9501816
_publ_section_title
;
Structure prediction by ZEFSAII (Michael W. Deem and Ramdas Pophale) SiO2 
 PCOD9501816
Probable space group: C M M A
;
_chemical_formula_sum "Si O2"
_cell_formula_units_Z 112
_cell_length_a 20.968164
_cell_length_b 23.288235
_cell_length_c 11.204169
_cell_angle_alpha 90.000000
_cell_angle_beta 90.000000
_cell_angle_gamma 90.000000
_cell_volume 5471.124915
_symmetry_space_group_name_H-M "C M M A"
_symmetry_group_IT_number 67
_symmetry_cell_setting 'orthorhombic'
loop_
_space_group_symop_operation_xyz
x,y,z
-x,1/2-y,z
x,-y,-z
-x,1/2+y,-z
-x,-y,-z
x,1/2+y,-z
-x,y,z
x,1/2-y,z
1/2+x,1/2+y,z
1/2-x,-y,z
1/2+x,1/2-y,-z
1/2-x,y,-z
1/2-x,1/2-y,-z
1/2+x,y,-z
1/2-x,1/2+y,z
1/2+x,-y,z
loop_
_atom_site_type_symbol
_atom_site_label
_atom_site_fract_x
_atom_site_fract_y
_atom_site_fract_z
Si Si1 0.750537 0.815322 0.856027
Si Si2 0.070139 0.418426 0.046008
Si Si3 0.425164 0.612576 0.439033
Si Si4 0.923971 0.685008 0.339849
Si Si5 0.859804 0.399333 0.814076
Si Si6 0.100929 0.684131 0.796147
Si Si7 0.575636 0.006461 0.712894
O O1 0.727477 0.750000 0.826915
O O2 0.707997 0.867742 0.807490
O O3 0.822645 0.819719 0.810270
O O4 0.750000 0.819388 0.000000
O O5 0.072305 0.354698 0.099715
O O6 0.078612 0.458989 0.161188
O O7 0.000000 0.430389 0.992975
O O8 0.123963 0.422061 0.946173
O O9 0.500000 0.602996 0.462960
O O10 0.397350 0.644923 0.553583
O O11 0.419172 0.656206 0.328521
O O12 0.402551 0.551012 0.389504
O O13 0.899749 0.750000 0.346761
O O14 0.907230 0.653064 0.217830
O O15 0.000000 0.687447 0.353173
O O16 0.879806 0.451340 0.727607
O O17 0.081783 0.750000 0.803269
O O18 0.500000 0.991514 0.695008
#
# Coordination Sequence:
#
# PCOD9501816 Si02
#       7
#    16  16  16  16  16  16  16
#     4  10  21  38  55  76 111 151 188 231 277 328
#     4  10  20  33  52  81 115 144 178 229 287 342
#     4   9  19  37  58  81 113 146 183 233 283 333
#     4  10  21  35  54  85 119 147 181 232 290 342
#     4  12  21  34  55  78 112 152 186 225 280 342
#     4  10  19  34  57  79 104 143 193 238 275 326
#     4   9  19  35  56  82 111 146 188 232 276 331
#
# _framework density 20.471109999999999
#
# number of rings (size 3 to 8) (size 9 to 14) (size 15 to 20)
#    0.000    2.000    1.429    3.857    0.000    4.000 
#    0.000    5.714    0.000    2.571    0.000    4.000 
#    0.000    0.000    0.000    0.000    0.000    0.000 
#
# Total GULP energy -312468.068213 kJ/mol
# GULP energy per Si atom -5579.786932 kJ/mol
# Density = 2.042452 g / cm^3
# Si number density = 20.471110 Si / 1000 Ang^3
#
#
#
# Elastic Constant Matrix: (Units=GPa)
#
#
# Indices 1 2 3 4 5 6 
#
# 1 50.5064 41.6677 1.5118 0.0000 0.0000 0.0000
# 2 41.6677 153.9195 20.2761 0.0000 0.0000 0.0000
# 3 1.5118 20.2761 41.2156 0.0000 0.0000 0.0000
# 4 0.0000 0.0000 0.0000-1051.2734 0.0000 0.0000
# 5 0.0000 0.0000 0.0000 0.0000 6.5324 0.0000
# 6 0.0000 0.0000 0.0000 0.0000 0.0000 28.1535
#
#
#
# Elastic Compliance Matrix: (Units=1/GPa)
#
#
# Indices 1 2 3 4 5 6 
#
# 1 0.025762 -0.007324 0.002658 0.000000 0.000000 0.000000
# 2 -0.007324 0.009029 -0.004173 0.000000 0.000000 0.000000
# 3 0.002658 -0.004173 0.026218 0.000000 0.000000 0.000000
# 4 0.000000 0.000000 0.000000 -0.000951 0.000000 0.000000
# 5 0.000000 0.000000 0.000000 0.000000 0.153084 0.000000
# 6 0.000000 0.000000 0.000000 0.000000 0.000000 0.035520
#
#
# Mechanical properties :
#
#
# Convention : Reuss Voigt Hill
#
# Bulk Modulus (GPa) = 23.07805 41.39475 32.23640
# Shear Modulus (GPa) = 17.80722 -191.17177 -86.68228
#
# Velocity S-wave (km/s) = 2.95256 -9.67413 -6.51426
# Velocity P-wave (km/s) = 4.78763 10.22351 6.38744
#
# Compressibility (1/GPa) = 0.04333122
#
# Stress axis : x y z
#
# Youngs Moduli (GPa) = 38.81611 110.74847 38.14136
#
# Poissons Ratio (x) = 0.81116 -0.10139
# Poissons Ratio (y) = 0.28430 0.15918
# Poissons Ratio (z) = -0.10318 0.46220
#
# Static dielectric constant tensor:
#      x y z
#    x 1.707820 0.000000 0.000000 
#    y 0.000000 1.757490 0.000000 
#    z 0.000000 0.000000 1.743220 
# 
# From -- ./inp_files/21118.got.cif
#   From: 2010.05.17/outbox.cif.g08.bks.cpg/sg67_11_cif.got.tgz:21118.got - 2010.06.03 18:28:57.
