data_PCOD9501189
_publ_section_title
;
Structure prediction by ZEFSAII (Michael W. Deem and Ramdas Pophale) SiO2 
 PCOD9501189
Probable space group: C M M A
;
_chemical_formula_sum "Si O2"
_cell_formula_units_Z 104
_cell_length_a 25.863301
_cell_length_b 9.155775
_cell_length_c 20.012711
_cell_angle_alpha 90.000000
_cell_angle_beta 90.000000
_cell_angle_gamma 90.000000
_cell_volume 4738.981241
_symmetry_space_group_name_H-M "C M M A"
_symmetry_group_IT_number 67
_symmetry_cell_setting 'orthorhombic'
loop_
_space_group_symop_operation_xyz
x,y,z
-x,1/2-y,z
x,-y,-z
-x,1/2+y,-z
-x,-y,-z
x,1/2+y,-z
-x,y,z
x,1/2-y,z
1/2+x,1/2+y,z
1/2-x,-y,z
1/2+x,1/2-y,-z
1/2-x,y,-z
1/2-x,1/2-y,-z
1/2+x,y,-z
1/2-x,1/2+y,z
1/2+x,-y,z
loop_
_atom_site_type_symbol
_atom_site_label
_atom_site_fract_x
_atom_site_fract_y
_atom_site_fract_z
Si Si1 0.750000 0.000000 0.151779
Si Si2 0.300716 0.085119 0.584517
Si Si3 0.176190 0.595569 0.735647
Si Si4 0.410182 0.925470 0.566396
Si Si5 0.421680 0.920916 0.718520
Si Si6 0.943679 0.424257 0.147604
Si Si7 0.650084 0.418758 0.070451
O O1 0.715387 0.907911 0.203431
O O2 0.794001 0.926767 0.106474
O O3 0.305088 0.250000 0.556901
O O4 0.296604 0.098950 0.664514
O O5 0.250000 0.000000 0.564212
O O6 0.352448 0.993269 0.570877
O O7 0.145721 0.750000 0.739692
O O8 0.138962 0.456357 0.731490
O O9 0.409373 0.750000 0.559080
O O10 0.433211 0.956952 0.640643
O O11 0.433938 0.000000 0.500000
O O12 0.432722 0.750000 0.728676
O O13 0.445831 0.019312 0.776050
O O14 0.937411 0.250000 0.144117
O O15 0.894853 0.502185 0.113189
O O16 0.000000 0.461172 0.116725
O O17 0.635940 0.250000 0.061423
O O18 0.654070 0.500000 0.000000
#
# Coordination Sequence:
#
# PCOD9501189 Si02
#       7
#     8  16  16  16  16  16  16
#     4  12  23  38  66 100 137 178 226 268 325 390
#     4  10  19  31  47  72 107 152 205 263 320 379
#     4  10  20  33  55  86 124 167 211 263 322 384
#     4  10  21  36  54  80 116 160 208 259 318 387
#     4  10  21  38  63  95 129 165 213 270 328 392
#     4  11  25  46  74 105 135 170 218 277 337 397
#     4  12  28  47  70 100 138 183 227 275 333 397
#
# _framework density 21.945644999999999
#
# number of rings (size 3 to 8) (size 9 to 14) (size 15 to 20)
#    0.000    1.385    2.308    3.000    0.000    7.385 
#    0.000    1.538    0.000    0.462    0.000    0.000 
#    0.000    0.000    0.000    0.000    0.000    0.000 
#
# Total GULP energy -290235.022119 kJ/mol
# GULP energy per Si atom -5581.442733 kJ/mol
# Density = 2.189570 g / cm^3
# Si number density = 21.945645 Si / 1000 Ang^3
#
#
#
# Elastic Constant Matrix: (Units=GPa)
#
#
# Indices 1 2 3 4 5 6 
#
# 1 99.7820 32.7190 40.6310 0.0000 0.0000 0.0000
# 2 32.7190 127.4018 52.8183 0.0000 0.0000 0.0000
# 3 40.6310 52.8183 159.0564 0.0000 0.0000 0.0000
# 4 0.0000 0.0000 0.0000 26.0113 0.0000 0.0000
# 5 0.0000 0.0000 0.0000 0.0000 -1.9383 0.0000
# 6 0.0000 0.0000 0.0000 0.0000 0.0000 -1.6470
#
#
#
# Elastic Compliance Matrix: (Units=1/GPa)
#
#
# Indices 1 2 3 4 5 6 
#
# 1 0.011623 -0.002034 -0.002294 0.000000 0.000000 0.000000
# 2 -0.002034 0.009458 -0.002621 0.000000 0.000000 0.000000
# 3 -0.002294 -0.002621 0.007743 0.000000 0.000000 0.000000
# 4 0.000000 0.000000 0.000000 0.038445 0.000000 0.000000
# 5 0.000000 0.000000 0.000000 0.000000 -0.515919 0.000000
# 6 0.000000 0.000000 0.000000 0.000000 0.000000 -0.607176
#
#
# Mechanical properties :
#
#
# Convention : Reuss Voigt Hill
#
# Bulk Modulus (GPa) = 66.99399 70.95297 68.97348
# Shear Modulus (GPa) = -4.82182 21.82334 8.50076
#
# Velocity S-wave (km/s) = -1.48389 3.15687 1.97027
# Velocity P-wave (km/s) = 5.25905 6.75938 6.05586
#
# Compressibility (1/GPa) = 0.01492671
#
# Stress axis : x y z
#
# Youngs Moduli (GPa) = 86.03807 105.72753 129.14200
#
# Poissons Ratio (x) = 0.21505 0.29620
# Poissons Ratio (y) = 0.17501 0.33851
# Poissons Ratio (z) = 0.19734 0.27714
#
# Static dielectric constant tensor:
#      x y z
#    x 1.817660 0.000000 0.000000 
#    y 0.000000 1.772000 0.000000 
#    z 0.000000 0.000000 1.825020 
# 
# From -- ./inp_files/39969.got.cif
#   From: 2010.05.17/outbox.cif.g08.bks.cpg/sg67_20_cif.got.tgz:39969.got - 2010.06.03 18:28:57.
