data_PCOD9501692
_publ_section_title
;
Structure prediction by ZEFSAII (Michael W. Deem and Ramdas Pophale) SiO2 
 PCOD9501692
Probable space group: C M M A
;
_chemical_formula_sum "Si O2"
_cell_formula_units_Z 104
_cell_length_a 16.129246
_cell_length_b 14.414269
_cell_length_c 18.093798
_cell_angle_alpha 90.000000
_cell_angle_beta 90.000000
_cell_angle_gamma 90.000000
_cell_volume 4206.650449
_symmetry_space_group_name_H-M "C M M A"
_symmetry_group_IT_number 67
_symmetry_cell_setting 'orthorhombic'
loop_
_space_group_symop_operation_xyz
x,y,z
-x,1/2-y,z
x,-y,-z
-x,1/2+y,-z
-x,-y,-z
x,1/2+y,-z
-x,y,z
x,1/2-y,z
1/2+x,1/2+y,z
1/2-x,-y,z
1/2+x,1/2-y,-z
1/2-x,y,-z
1/2-x,1/2-y,-z
1/2+x,y,-z
1/2-x,1/2+y,z
1/2+x,-y,z
loop_
_atom_site_type_symbol
_atom_site_label
_atom_site_fract_x
_atom_site_fract_y
_atom_site_fract_z
Si Si1 0.348523 0.136653 0.637610
Si Si2 0.000000 0.620072 0.746961
Si Si3 0.843716 0.117814 0.146382
Si Si4 0.660444 0.604145 0.834139
Si Si5 0.334603 0.638661 0.675348
Si Si6 0.094126 0.387319 0.991977
Si Si7 0.905075 0.137133 0.520290
O O1 0.353873 0.250000 0.640783
O O2 0.426726 0.103316 0.684336
O O3 0.261061 0.106982 0.671700
O O4 0.352694 0.109848 0.551418
O O5 0.925335 0.643256 0.807783
O O6 0.752549 0.146035 0.172530
O O7 0.851532 0.144923 0.060676
O O8 0.840029 0.006002 0.152734
O O9 0.621689 0.616101 0.753026
O O10 0.619689 0.640330 0.909375
O O11 0.333430 0.750000 0.670871
O O12 0.377075 0.603485 0.600588
O O13 0.000000 0.359272 0.004730
O O14 0.096660 0.500000 0.000000
O O15 0.901004 0.250000 0.522721
O O16 0.000000 0.111862 0.506528
#
# Coordination Sequence:
#
# PCOD9501692 Si02
#       7
#    16   8  16  16  16  16  16
#     4  10  19  33  55  82 109 136 173 225 277 316
#     4  12  19  32  57  83 105 132 172 233 268 319
#     4  10  20  34  53  80 107 135 177 220 268 307
#     4  10  20  34  53  78 108 142 171 218 263 316
#     4  10  20  34  54  81 110 142 177 217 268 324
#     4   9  17  31  53  78 100 129 177 222 260 301
#     4   9  17  31  51  77 105 137 180 224 263 309
#
# _framework density 24.722757000000001
#
# number of rings (size 3 to 8) (size 9 to 14) (size 15 to 20)
#    0.000    2.154    3.077    1.154    1.077    4.308 
#    0.000    0.000    0.000    5.538    0.000    0.000 
#    0.000    0.000    0.000    0.000    0.000    0.000 
#
# Total GULP energy -289638.141162 kJ/mol
# GULP energy per Si atom -5569.964253 kJ/mol
# Density = 2.466649 g / cm^3
# Si number density = 24.722757 Si / 1000 Ang^3
#
#
#
# Elastic Constant Matrix: (Units=GPa)
#
#
# Indices 1 2 3 4 5 6 
#
# 1 34.4243 3.7911 28.8205 0.0000 0.0000 0.0000
# 2 3.7911 100.6302 4.3534 0.0000 0.0000 0.0000
# 3 28.8205 4.3534 233.6971 0.0000 0.0000 0.0000
# 4 0.0000 0.0000 0.0000 4.8130 0.0000 0.0000
# 5 0.0000 0.0000 0.0000 0.0000 41.0083 0.0000
# 6 0.0000 0.0000 0.0000 0.0000 0.0000 -29.5158
#
#
#
# Elastic Compliance Matrix: (Units=1/GPa)
#
#
# Indices 1 2 3 4 5 6 
#
# 1 0.032505 -0.001052 -0.003989 0.000000 0.000000 0.000000
# 2 -0.001052 0.009979 -0.000056 0.000000 0.000000 0.000000
# 3 -0.003989 -0.000056 0.004772 0.000000 0.000000 0.000000
# 4 0.000000 0.000000 0.000000 0.207769 0.000000 0.000000
# 5 0.000000 0.000000 0.000000 0.000000 0.024385 0.000000
# 6 0.000000 0.000000 0.000000 0.000000 0.000000 -0.033880
#
#
# Mechanical properties :
#
#
# Convention : Reuss Voigt Hill
#
# Bulk Modulus (GPa) = 26.98192 49.18684 38.08438
# Shear Modulus (GPa) = 18.65125 25.38021 22.01573
#
# Velocity S-wave (km/s) = 2.74964 3.20752 2.98737
# Velocity P-wave (km/s) = 4.58456 5.80139 5.22850
#
# Compressibility (1/GPa) = 0.03706185
#
# Stress axis : x y z
#
# Youngs Moduli (GPa) = 30.76472 100.20607 209.55429
#
# Poissons Ratio (x) = 0.10542 0.83592
# Poissons Ratio (y) = 0.03236 0.01177
# Poissons Ratio (z) = 0.12272 0.00563
#
# Static dielectric constant tensor:
#      x y z
#    x 1.887350 0.000000 0.000000 
#    y 0.000000 2.039650 0.000000 
#    z 0.000000 0.000000 1.945270 
# 
# From -- ./inp_files/33732.got.cif
#   From: 2010.05.17/outbox.cif.g08.bks.cpg/sg67_17_cif.got.tgz:33732.got - 2010.06.03 18:28:57.
