data_PCOD9501666
_publ_section_title
;
Structure prediction by ZEFSAII (Michael W. Deem and Ramdas Pophale) SiO2 
 PCOD9501666
Probable space group: C M M A
;
_chemical_formula_sum "Si O2"
_cell_formula_units_Z 88
_cell_length_a 16.273192
_cell_length_b 24.096235
_cell_length_c 11.647858
_cell_angle_alpha 90.000000
_cell_angle_beta 90.000000
_cell_angle_gamma 90.000000
_cell_volume 4567.389046
_symmetry_space_group_name_H-M "C M M A"
_symmetry_group_IT_number 67
_symmetry_cell_setting 'orthorhombic'
loop_
_space_group_symop_operation_xyz
x,y,z
-x,1/2-y,z
x,-y,-z
-x,1/2+y,-z
-x,-y,-z
x,1/2+y,-z
-x,y,z
x,1/2-y,z
1/2+x,1/2+y,z
1/2-x,-y,z
1/2+x,1/2-y,-z
1/2-x,y,-z
1/2-x,1/2-y,-z
1/2+x,y,-z
1/2-x,1/2+y,z
1/2+x,-y,z
loop_
_atom_site_type_symbol
_atom_site_label
_atom_site_fract_x
_atom_site_fract_y
_atom_site_fract_z
Si Si1 0.401283 0.465952 0.886457
Si Si2 0.653257 0.363666 0.009470
Si Si3 0.313638 0.155799 0.394271
Si Si4 0.592442 0.250000 0.514604
Si Si5 0.092139 0.750000 0.931994
Si Si6 0.400904 0.571285 0.759909
Si Si7 0.782072 0.250000 0.274995
O O1 0.500000 0.462297 0.890398
O O2 0.379401 0.506461 0.781819
O O3 0.374057 0.500000 0.000000
O O4 0.367653 0.404398 0.902084
O O5 0.624750 0.395872 0.123872
O O6 0.750000 0.353579 0.000000
O O7 0.605335 0.306049 0.002898
O O8 0.250000 0.147273 0.500000
O O9 0.385646 0.195559 0.441597
O O10 0.351362 0.100501 0.341487
O O11 0.270799 0.194324 0.296363
O O12 0.500000 0.250000 0.553794
O O13 0.654745 0.250000 0.619558
O O14 0.164701 0.750000 0.838619
O O15 0.000000 0.750000 0.882220
O O16 0.500000 0.575361 0.746628
#
# Coordination Sequence:
#
# PCOD9501666 Si02
#       7
#    16  16  16   8   8  16   8
#     4   8  16  32  51  73 105 142 178 215 258 318
#     4  11  22  35  52  79 115 147 180 221 268 323
#     4   9  18  32  51  77 109 142 184 240 288 323
#     4   9  16  29  50  74 102 143 195 238 280 339
#     4  12  23  35  52  76 110 148 182 218 269 331
#     4  10  19  33  54  80 112 149 188 228 272 324
#     4   9  19  34  47  70 108 149 184 226 281 336
#
# _framework density 19.267025
#
# number of rings (size 3 to 8) (size 9 to 14) (size 15 to 20)
#    0.000    2.364    0.000    6.000    0.000    4.727 
#    0.000    2.727    0.000    0.000    0.000   25.455 
#    0.000   49.455    0.000    0.000    0.000    0.000 
#
# Total GULP energy -245403.319102 kJ/mol
# GULP energy per Si atom -5577.348161 kJ/mol
# Density = 1.922317 g / cm^3
# Si number density = 19.267025 Si / 1000 Ang^3
#
#
#
# Elastic Constant Matrix: (Units=GPa)
#
#
# Indices 1 2 3 4 5 6 
#
# 1 68.9325 30.3622 2.4053 0.0000 0.0000 0.0000
# 2 30.3622 122.2995 23.7274 0.0000 0.0000 0.0000
# 3 2.4053 23.7274 34.9225 0.0000 0.0000 0.0000
# 4 0.0000 0.0000 0.0000 26.8684 0.0000 0.0000
# 5 0.0000 0.0000 0.0000 0.0000 17.1935 0.0000
# 6 0.0000 0.0000 0.0000 0.0000 0.0000 -8.0676
#
#
#
# Elastic Compliance Matrix: (Units=1/GPa)
#
#
# Indices 1 2 3 4 5 6 
#
# 1 0.016395 -0.004436 0.001885 0.000000 0.000000 0.000000
# 2 -0.004436 0.010618 -0.006909 0.000000 0.000000 0.000000
# 3 0.001885 -0.006909 0.033199 0.000000 0.000000 0.000000
# 4 0.000000 0.000000 0.000000 0.037218 0.000000 0.000000
# 5 0.000000 0.000000 0.000000 0.000000 0.058162 0.000000
# 6 0.000000 0.000000 0.000000 0.000000 0.000000 -0.123952
#
#
# Mechanical properties :
#
#
# Convention : Reuss Voigt Hill
#
# Bulk Modulus (GPa) = 24.21760 37.68270 30.95015
# Shear Modulus (GPa) = 77.73038 18.50949 48.11994
#
# Velocity S-wave (km/s) = 6.35856 3.10285 5.00295
# Velocity P-wave (km/s) = 8.15507 5.69539 7.03359
#
# Compressibility (1/GPa) = 0.04129229
#
# Stress axis : x y z
#
# Youngs Moduli (GPa) = 60.99411 94.17699 30.12127
#
# Poissons Ratio (x) = 0.41776 -0.05677
# Poissons Ratio (y) = 0.27056 0.20810
# Poissons Ratio (z) = -0.11495 0.65066
#
# Static dielectric constant tensor:
#      x y z
#    x 1.662020 0.000000 0.000000 
#    y 0.000000 1.694680 0.000000 
#    z 0.000000 0.000000 1.684370 
# 
# From -- ./inp_files/18173.got.cif
#   From: 2010.05.17/outbox.cif.g08.bks.cpg/sg67_10_cif.got.tgz:18173.got - 2010.06.03 18:28:57.
