data_PCOD9501560
_publ_section_title
;
Structure prediction by ZEFSAII (Michael W. Deem and Ramdas Pophale) SiO2 
 PCOD9501560
Probable space group: C M M A
;
_chemical_formula_sum "Si O2"
_cell_formula_units_Z 88
_cell_length_a 17.005446
_cell_length_b 22.273762
_cell_length_c 11.073904
_cell_angle_alpha 90.000000
_cell_angle_beta 90.000000
_cell_angle_gamma 90.000000
_cell_volume 4194.520833
_symmetry_space_group_name_H-M "C M M A"
_symmetry_group_IT_number 67
_symmetry_cell_setting 'orthorhombic'
loop_
_space_group_symop_operation_xyz
x,y,z
-x,1/2-y,z
x,-y,-z
-x,1/2+y,-z
-x,-y,-z
x,1/2+y,-z
-x,y,z
x,1/2-y,z
1/2+x,1/2+y,z
1/2-x,-y,z
1/2+x,1/2-y,-z
1/2-x,y,-z
1/2-x,1/2-y,-z
1/2+x,y,-z
1/2-x,1/2+y,z
1/2+x,-y,z
loop_
_atom_site_type_symbol
_atom_site_label
_atom_site_fract_x
_atom_site_fract_y
_atom_site_fract_z
Si Si1 0.088140 0.145426 0.942197
Si Si2 0.272563 0.250000 0.665478
Si Si3 0.292386 0.881854 0.380076
Si Si4 0.588821 0.519643 0.360415
Si Si5 0.409792 0.250000 0.257073
Si Si6 0.195543 0.555220 0.177070
Si Si7 0.908049 0.250000 0.136779
O O1 0.091811 0.190584 0.827147
O O2 0.150758 0.092797 0.924668
O O3 0.000000 0.119843 0.947186
O O4 0.098374 0.190276 0.054296
O O5 0.298116 0.188609 0.603159
O O6 0.176898 0.250000 0.680260
O O7 0.329862 0.250000 0.782274
O O8 0.250000 0.907792 0.500000
O O9 0.374164 0.914532 0.359726
O O10 0.243360 0.897940 0.260486
O O11 0.593186 0.500000 0.500000
O O12 0.500000 0.519870 0.319961
O O13 0.636450 0.475911 0.272712
O O14 0.500000 0.250000 0.313998
O O15 0.250000 0.500000 0.136723
O O16 0.000000 0.250000 0.185055
#
# Coordination Sequence:
#
# PCOD9501560 Si02
#       7
#    16   8  16  16   8  16   8
#     4   9  17  35  59  89 119 148 198 259 307 359
#     4  12  23  39  63  90 119 164 199 249 321 368
#     4  11  22  38  55  86 125 159 198 245 300 364
#     4  10  20  35  59  85 114 163 206 243 295 359
#     4   9  18  33  55  87 113 141 192 247 298 360
#     4  10  19  32  58  88 120 158 201 253 301 360
#     4   9  22  41  66  91 119 159 205 256 317 380
#
# _framework density 20.979749999999999
#
# number of rings (size 3 to 8) (size 9 to 14) (size 15 to 20)
#    0.000    2.000    3.636    1.909    0.000    2.182 
#    0.000    0.909    0.000    8.727    0.000   12.727 
#    0.000    0.000    0.000    0.000    0.000    0.000 
#
# Total GULP energy -245438.628560 kJ/mol
# GULP energy per Si atom -5578.150649 kJ/mol
# Density = 2.093200 g / cm^3
# Si number density = 20.979750 Si / 1000 Ang^3
#
#
#
# Elastic Constant Matrix: (Units=GPa)
#
#
# Indices 1 2 3 4 5 6 
#
# 1 120.3087 50.5826 26.0619 0.0000 0.0000 0.0000
# 2 50.5826 110.3184 2.4569 0.0000 0.0000 0.0000
# 3 26.0619 2.4569 38.3097 0.0000 0.0000 0.0000
# 4 0.0000 0.0000 0.0000 17.2521 0.0000 0.0000
# 5 0.0000 0.0000 0.0000 0.0000 13.9857 0.0000
# 6 0.0000 0.0000 0.0000 0.0000 0.0000 13.4106
#
#
#
# Elastic Compliance Matrix: (Units=1/GPa)
#
#
# Indices 1 2 3 4 5 6 
#
# 1 0.012367 -0.005491 -0.008061 0.000000 0.000000 0.000000
# 2 -0.005491 0.011516 0.002997 0.000000 0.000000 0.000000
# 3 -0.008061 0.002997 0.031395 0.000000 0.000000 0.000000
# 4 0.000000 0.000000 0.000000 0.057964 0.000000 0.000000
# 5 0.000000 0.000000 0.000000 0.000000 0.071502 0.000000
# 6 0.000000 0.000000 0.000000 0.000000 0.000000 0.074568
#
#
# Mechanical properties :
#
#
# Convention : Reuss Voigt Hill
#
# Bulk Modulus (GPa) = 29.26780 47.45994 38.36387
# Shear Modulus (GPa) = 17.13450 21.58538 19.35994
#
# Velocity S-wave (km/s) = 2.86093 3.21108 3.04104
# Velocity P-wave (km/s) = 4.98939 6.03481 5.53683
#
# Compressibility (1/GPa) = 0.03416724
#
# Stress axis : x y z
#
# Youngs Moduli (GPa) = 80.86252 86.83929 31.85259
#
# Poissons Ratio (x) = 0.47681 0.25676
# Poissons Ratio (y) = 0.44400 -0.09546
# Poissons Ratio (z) = 0.65182 -0.26024
#
# Static dielectric constant tensor:
#      x y z
#    x 1.770250 0.000000 0.000000 
#    y 0.000000 1.723260 0.000000 
#    z 0.000000 0.000000 1.797510 
# 
# From -- ./inp_files/27097.got.cif
#   From: 2010.05.17/outbox.cif.g08.bks.cpg/sg67_14_cif.got.tgz:27097.got - 2010.06.03 18:28:57.
