data_PCOD9501196
_publ_section_title
;
Structure prediction by ZEFSAII (Michael W. Deem and Ramdas Pophale) SiO2 
 PCOD9501196
Probable space group: C M M A
;
_chemical_formula_sum "Si O2"
_cell_formula_units_Z 64
_cell_length_a 14.464014
_cell_length_b 36.380757
_cell_length_c 5.209118
_cell_angle_alpha 90.000000
_cell_angle_beta 90.000000
_cell_angle_gamma 90.000000
_cell_volume 2741.099248
_symmetry_space_group_name_H-M "C M M A"
_symmetry_group_IT_number 67
_symmetry_cell_setting 'orthorhombic'
loop_
_space_group_symop_operation_xyz
x,y,z
-x,1/2-y,z
x,-y,-z
-x,1/2+y,-z
-x,-y,-z
x,1/2+y,-z
-x,y,z
x,1/2-y,z
1/2+x,1/2+y,z
1/2-x,-y,z
1/2+x,1/2-y,-z
1/2-x,y,-z
1/2-x,1/2-y,-z
1/2+x,y,-z
1/2-x,1/2+y,z
1/2+x,-y,z
loop_
_atom_site_type_symbol
_atom_site_label
_atom_site_fract_x
_atom_site_fract_y
_atom_site_fract_z
Si Si1 0.139363 0.634253 0.435517
Si Si2 0.815181 0.790316 0.248901
Si Si3 0.853544 0.602979 0.935727
Si Si4 0.110880 0.976662 0.746055
O O1 0.250000 0.630628 0.500000
O O2 0.124001 0.673821 0.305347
O O3 0.100900 0.628441 0.720222
O O4 0.106274 0.604638 0.223570
O O5 0.860416 0.750000 0.220787
O O6 0.750000 0.788536 0.500000
O O7 0.750000 0.795853 0.000000
O O8 0.848306 0.563360 0.801551
O O9 0.750000 0.615881 0.000000
O O10 0.000000 0.971388 0.721842
O O11 0.142027 0.000000 0.500000
O O12 0.129179 0.000000 0.000000
#
# Coordination Sequence:
#
# PCOD9501196 Si02
#       4
#    16  16  16  16
#     4   9  16  27  42  64  94 123 152 189 232 274
#     4   9  15  23  37  58  88 126 159 185 222 275
#     4  10  19  31  48  69  94 122 152 192 239 284
#     4  10  21  37  54  71  94 124 159 201 244 287
#
# _framework density 23.348299000000001
#
# number of rings (size 3 to 8) (size 9 to 14) (size 15 to 20)
#    0.000    2.500    0.000    5.250    0.000    0.500 
#    0.000    1.250    0.000    0.000    0.000    0.000 
#    0.000    6.000    0.000    0.000    0.000    2.500 
#
# Total GULP energy -178398.563426 kJ/mol
# GULP energy per Si atom -5574.955107 kJ/mol
# Density = 2.329516 g / cm^3
# Si number density = 23.348299 Si / 1000 Ang^3
#
#
#
# Elastic Constant Matrix: (Units=GPa)
#
#
# Indices 1 2 3 4 5 6 
#
# 1 68.6566 -4.7614 15.7160 0.0000 0.0000 0.0000
# 2 -4.7614 140.6473 67.7163 0.0000 0.0000 0.0000
# 3 15.7160 67.7163 227.7930 0.0000 0.0000 0.0000
# 4 0.0000 0.0000 0.0000 142.9283 0.0000 0.0000
# 5 0.0000 0.0000 0.0000 0.0000 -71.9752 0.0000
# 6 0.0000 0.0000 0.0000 0.0000 0.0000 -70.4377
#
#
#
# Elastic Compliance Matrix: (Units=1/GPa)
#
#
# Indices 1 2 3 4 5 6 
#
# 1 0.014962 0.001171 -0.001380 0.000000 0.000000 0.000000
# 2 0.001171 0.008389 -0.002575 0.000000 0.000000 0.000000
# 3 -0.001380 -0.002575 0.005251 0.000000 0.000000 0.000000
# 4 0.000000 0.000000 0.000000 0.006997 0.000000 0.000000
# 5 0.000000 0.000000 0.000000 0.000000 -0.013894 0.000000
# 6 0.000000 0.000000 0.000000 0.000000 0.000000 -0.014197
#
#
# Mechanical properties :
#
#
# Convention : Reuss Voigt Hill
#
# Bulk Modulus (GPa) = 43.41345 66.04873 54.73109
# Shear Modulus (GPa) = 240.91519 23.99816 132.45668
#
# Velocity S-wave (km/s) = 10.16893 3.20946 7.54015
# Velocity P-wave (km/s) = 12.51041 6.48722 9.96480
#
# Compressibility (1/GPa) = 0.02303434
#
# Stress axis : x y z
#
# Youngs Moduli (GPa) = 66.83398 119.20025 190.45547
#
# Poissons Ratio (x) = -0.13960 0.26291
# Poissons Ratio (y) = -0.07827 0.49036
# Poissons Ratio (z) = 0.09226 0.30690
#
# Static dielectric constant tensor:
#      x y z
#    x 1.900280 0.000000 0.000000 
#    y 0.000000 1.930740 0.000000 
#    z 0.000000 0.000000 1.918540 
# 
# From -- ./inp_files/3500.got.cif
#   From: 2010.05.17/outbox.cif.g08.bks.cpg/sg67_2_cif.got.tgz:3500.got - 2010.06.03 18:28:57.
