data_PCOD9501412
_publ_section_title
;
Structure prediction by ZEFSAII (Michael W. Deem and Ramdas Pophale) SiO2 
 PCOD9501412
Probable space group: C M M A
;
_chemical_formula_sum "Si O2"
_cell_formula_units_Z 96
_cell_length_a 28.091021
_cell_length_b 8.784188
_cell_length_c 24.150203
_cell_angle_alpha 90.000000
_cell_angle_beta 90.000000
_cell_angle_gamma 90.000000
_cell_volume 5959.227043
_symmetry_space_group_name_H-M "C M M A"
_symmetry_group_IT_number 67
_symmetry_cell_setting 'orthorhombic'
loop_
_space_group_symop_operation_xyz
x,y,z
-x,1/2-y,z
x,-y,-z
-x,1/2+y,-z
-x,-y,-z
x,1/2+y,-z
-x,y,z
x,1/2-y,z
1/2+x,1/2+y,z
1/2-x,-y,z
1/2+x,1/2-y,-z
1/2-x,y,-z
1/2-x,1/2-y,-z
1/2+x,y,-z
1/2-x,1/2+y,z
1/2+x,-y,z
loop_
_atom_site_type_symbol
_atom_site_label
_atom_site_fract_x
_atom_site_fract_y
_atom_site_fract_z
Si Si1 0.302287 0.067978 0.275314
Si Si2 0.143002 0.931394 0.161595
Si Si3 0.945018 0.567032 0.777837
Si Si4 0.055582 0.567796 0.440090
Si Si5 0.697706 0.068101 0.940303
Si Si6 0.391226 0.568007 0.335614
O O1 0.301204 0.250000 0.280777
O O2 0.322791 0.031599 0.213974
O O3 0.250000 0.000000 0.281972
O O4 0.340167 0.998707 0.318225
O O5 0.144043 0.750000 0.153202
O O6 0.090790 0.985742 0.180102
O O7 0.162207 0.015702 0.107631
O O8 0.941033 0.750000 0.784627
O O9 0.926380 0.530947 0.715909
O O10 0.000000 0.523590 0.784368
O O11 0.068308 0.500000 0.500000
O O12 0.059195 0.750000 0.441644
O O13 0.087800 0.501653 0.391404
O O14 0.000000 0.527186 0.429525
O O15 0.700783 0.250000 0.943513
O O16 0.750000 0.000000 0.927498
O O17 0.683827 0.000000 0.000000
O O18 0.388435 0.750000 0.340158
#
# Coordination Sequence:
#
# PCOD9501412 Si02
#       6
#    16  16  16  16  16  16
#     4  10  20  33  50  73 101 132 166 204 245 291
#     4  10  20  33  50  74 102 132 166 203 245 292
#     4   9  18  32  50  73 101 133 167 203 245 292
#     4  10  20  33  50  73 101 132 166 204 246 292
#     4  11  21  34  52  74 101 131 164 202 245 293
#     4  10  19  32  51  74 101 132 165 203 247 293
#
# _framework density 16.109472
#
# number of rings (size 3 to 8) (size 9 to 14) (size 15 to 20)
#    0.000    2.000    0.000    5.000    0.000    6.000 
#    0.000    0.000    0.000    1.000    0.000    3.500 
#    0.000    0.000    0.000    0.000    0.000    0.000 
#
# Total GULP energy -268020.803466 kJ/mol
# GULP energy per Si atom -5583.766739 kJ/mol
# Density = 1.607281 g / cm^3
# Si number density = 16.109472 Si / 1000 Ang^3
#
#
#
# Elastic Constant Matrix: (Units=GPa)
#
#
# Indices 1 2 3 4 5 6 
#
# 1 136.6976 63.0881 85.4934 0.0000 0.0000 0.0000
# 2 63.0881 84.3783 64.9770 0.0000 0.0000 0.0000
# 3 85.4934 64.9770 122.0434 0.0000 0.0000 0.0000
# 4 0.0000 0.0000 0.0000 27.8385 0.0000 0.0000
# 5 0.0000 0.0000 0.0000 0.0000 23.6743 0.0000
# 6 0.0000 0.0000 0.0000 0.0000 0.0000 29.6572
#
#
#
# Elastic Compliance Matrix: (Units=1/GPa)
#
#
# Indices 1 2 3 4 5 6 
#
# 1 0.014163 -0.004999 -0.007260 0.000000 0.000000 0.000000
# 2 -0.004999 0.021851 -0.008132 0.000000 0.000000 0.000000
# 3 -0.007260 -0.008132 0.017609 0.000000 0.000000 0.000000
# 4 0.000000 0.000000 0.000000 0.035921 0.000000 0.000000
# 5 0.000000 0.000000 0.000000 0.000000 0.042240 0.000000
# 6 0.000000 0.000000 0.000000 0.000000 0.000000 0.033719
#
#
# Mechanical properties :
#
#
# Convention : Reuss Voigt Hill
#
# Bulk Modulus (GPa) = 77.87166 85.58180 81.72673
# Shear Modulus (GPa) = 23.74563 24.87140 24.30851
#
# Velocity S-wave (km/s) = 3.84346 3.93351 3.88874
# Velocity P-wave (km/s) = 8.25471 8.59479 8.42647
#
# Compressibility (1/GPa) = 0.01284164
#
# Stress axis : x y z
#
# Youngs Moduli (GPa) = 70.60671 45.76457 56.78859
#
# Poissons Ratio (x) = 0.22876 0.41229
# Poissons Ratio (y) = 0.35294 0.46181
# Poissons Ratio (z) = 0.51261 0.37216
#
# Static dielectric constant tensor:
#      x y z
#    x 1.517360 0.000000 0.000000 
#    y 0.000000 1.535720 0.000000 
#    z 0.000000 0.000000 1.516000 
# 
# From -- ./inp_files/37154.got.cif
#   From: 2010.05.17/outbox.cif.g08.bks.cpg/sg67_19_cif.got.tgz:37154.got - 2010.06.03 18:28:57.
