data_PCOD9501291
_publ_section_title
;
Structure prediction by ZEFSAII (Michael W. Deem and Ramdas Pophale) SiO2 
 PCOD9501291
Probable space group: C M M A
;
_chemical_formula_sum "Si O2"
_cell_formula_units_Z 96
_cell_length_a 15.582855
_cell_length_b 24.592769
_cell_length_c 12.271670
_cell_angle_alpha 90.000000
_cell_angle_beta 90.000000
_cell_angle_gamma 90.000000
_cell_volume 4702.817527
_symmetry_space_group_name_H-M "C M M A"
_symmetry_group_IT_number 67
_symmetry_cell_setting 'orthorhombic'
loop_
_space_group_symop_operation_xyz
x,y,z
-x,1/2-y,z
x,-y,-z
-x,1/2+y,-z
-x,-y,-z
x,1/2+y,-z
-x,y,z
x,1/2-y,z
1/2+x,1/2+y,z
1/2-x,-y,z
1/2+x,1/2-y,-z
1/2-x,y,-z
1/2-x,1/2-y,-z
1/2+x,y,-z
1/2-x,1/2+y,z
1/2+x,-y,z
loop_
_atom_site_type_symbol
_atom_site_label
_atom_site_fract_x
_atom_site_fract_y
_atom_site_fract_z
Si Si1 0.814653 0.310035 0.786176
Si Si2 0.405874 0.920367 0.259907
Si Si3 0.267044 0.579922 0.877697
Si Si4 0.854072 0.189155 0.366787
Si Si5 0.100993 0.461711 0.700865
Si Si6 0.098947 0.645944 0.412523
O O1 0.822595 0.250000 0.833095
O O2 0.801522 0.357969 0.872091
O O3 0.733247 0.311312 0.703400
O O4 0.891142 0.324810 0.703975
O O5 0.500000 0.926033 0.206670
O O6 0.325028 0.920368 0.180702
O O7 0.403736 0.863511 0.322618
O O8 0.394557 0.975076 0.332078
O O9 0.336270 0.547236 0.804479
O O10 0.250000 0.561922 0.000000
O O11 0.891125 0.250000 0.353377
O O12 0.847969 0.176645 0.495010
O O13 0.126893 0.416248 0.612270
O O14 0.000000 0.450399 0.726423
O O15 0.000000 0.646481 0.446730
#
# Coordination Sequence:
#
# PCOD9501291 Si02
#       6
#    16  16  16  16  16  16
#     4   9  19  35  52  73 105 140 173 214 261 308
#     4  10  21  36  54  78 108 139 172 213 261 312
#     4  10  21  37  57  79 103 134 175 221 266 313
#     4  10  20  34  53  77 106 141 178 212 250 302
#     4   9  20  37  54  77 108 138 171 214 263 312
#     4  10  19  31  51  78 106 137 174 214 255 304
#
# _framework density 20.413295000000002
#
# number of rings (size 3 to 8) (size 9 to 14) (size 15 to 20)
#    0.000    2.333    0.000    2.000    0.000    6.667 
#    0.000    4.167    0.000    6.000    0.000    4.667 
#    0.000    0.000    0.000    0.000    0.000    0.000 
#
# Total GULP energy -267504.702884 kJ/mol
# GULP energy per Si atom -5573.014643 kJ/mol
# Density = 2.036683 g / cm^3
# Si number density = 20.413295 Si / 1000 Ang^3
#
#
#
# Elastic Constant Matrix: (Units=GPa)
#
#
# Indices 1 2 3 4 5 6 
#
# 1 65.8381 19.9247 13.4552 0.0000 0.0000 0.0000
# 2 19.9247 181.8875 20.3053 0.0000 0.0000 0.0000
# 3 13.4552 20.3053 41.7537 0.0000 0.0000 0.0000
# 4 0.0000 0.0000 0.0000 0.5611 0.0000 0.0000
# 5 0.0000 0.0000 0.0000 0.0000 11.4578 0.0000
# 6 0.0000 0.0000 0.0000 0.0000 0.0000 12.4193
#
#
#
# Elastic Compliance Matrix: (Units=1/GPa)
#
#
# Indices 1 2 3 4 5 6 
#
# 1 0.016540 -0.001287 -0.004704 0.000000 0.000000 0.000000
# 2 -0.001287 0.005914 -0.002461 0.000000 0.000000 0.000000
# 3 -0.004704 -0.002461 0.026663 0.000000 0.000000 0.000000
# 4 0.000000 0.000000 0.000000 1.782219 0.000000 0.000000
# 5 0.000000 0.000000 0.000000 0.000000 0.087277 0.000000
# 6 0.000000 0.000000 0.000000 0.000000 0.000000 0.080520
#
#
# Mechanical properties :
#
#
# Convention : Reuss Voigt Hill
#
# Bulk Modulus (GPa) = 31.04449 44.09443 37.56946
# Shear Modulus (GPa) = 2.46698 20.60725 11.53711
#
# Velocity S-wave (km/s) = 1.10052 3.18071 2.37992
# Velocity P-wave (km/s) = 4.10559 5.92765 5.09867
#
# Compressibility (1/GPa) = 0.03221183
#
# Stress axis : x y z
#
# Youngs Moduli (GPa) = 60.46124 169.10139 37.50545
#
# Poissons Ratio (x) = 0.21757 0.17643
# Poissons Ratio (y) = 0.07779 0.09231
# Poissons Ratio (z) = 0.28442 0.41620
#
# Static dielectric constant tensor:
#      x y z
#    x 1.761880 0.000000 0.000000 
#    y 0.000000 1.789410 0.000000 
#    z 0.000000 0.000000 1.699930 
# 
# From -- ./inp_files/19646.got.cif
#   From: 2010.05.17/outbox.cif.g08.bks.cpg/sg67_10_cif.got.tgz:19646.got - 2010.06.03 18:28:57.
