data_PCOD9501331
_publ_section_title
;
Structure prediction by ZEFSAII (Michael W. Deem and Ramdas Pophale) SiO2 
 PCOD9501331
Probable space group: C M M A
;
_chemical_formula_sum "Si O2"
_cell_formula_units_Z 104
_cell_length_a 27.943161
_cell_length_b 8.293781
_cell_length_c 24.625061
_cell_angle_alpha 90.000000
_cell_angle_beta 90.000000
_cell_angle_gamma 90.000000
_cell_volume 5706.967660
_symmetry_space_group_name_H-M "C M M A"
_symmetry_group_IT_number 67
_symmetry_cell_setting 'orthorhombic'
loop_
_space_group_symop_operation_xyz
x,y,z
-x,1/2-y,z
x,-y,-z
-x,1/2+y,-z
-x,-y,-z
x,1/2+y,-z
-x,y,z
x,1/2-y,z
1/2+x,1/2+y,z
1/2-x,-y,z
1/2+x,1/2-y,-z
1/2-x,y,-z
1/2-x,1/2-y,-z
1/2+x,y,-z
1/2-x,1/2+y,z
1/2+x,-y,z
loop_
_atom_site_type_symbol
_atom_site_label
_atom_site_fract_x
_atom_site_fract_y
_atom_site_fract_z
Si Si1 0.352586 0.442581 0.665969
Si Si2 0.947861 0.055749 0.274343
Si Si3 0.602425 0.945413 0.830181
Si Si4 0.500000 0.055414 0.437408
Si Si5 0.555228 0.944404 0.940417
Si Si6 0.394634 0.057164 0.438131
Si Si7 0.801979 0.441905 0.769337
O O1 0.352313 0.250000 0.667452
O O2 0.402527 0.506151 0.692029
O O3 0.354757 0.498071 0.603928
O O4 0.312615 0.503176 0.707560
O O5 0.947933 0.250000 0.278217
O O6 0.000000 0.995224 0.292018
O O7 0.936962 0.006518 0.212567
O O8 0.602187 0.750000 0.829130
O O9 0.588175 0.999081 0.890481
O O10 0.653902 0.001389 0.806929
O O11 0.500000 0.250000 0.433633
O O12 0.447709 0.996950 0.418143
O O13 0.500000 0.000000 0.500000
O O14 0.500000 0.999052 0.932484
O O15 0.554858 0.750000 0.939847
O O16 0.570935 0.000000 0.000000
O O17 0.395577 0.250000 0.438089
O O18 0.387787 0.000000 0.500000
O O19 0.802949 0.250000 0.770598
O O20 0.750000 0.500000 0.787074
#
# Coordination Sequence:
#
# PCOD9501331 Si02
#       7
#    16  16  16   8  16  16  16
#     4  10  20  33  50  73 100 130 164 203 249 300
#     4   9  18  30  44  67  99 132 164 201 245 292
#     4   9  18  32  50  72  98 130 168 208 249 297
#     4   8  16  28  42  62  90 126 168 204 235 276
#     4   9  17  29  46  71 104 140 175 207 241 283
#     4  10  19  32  48  69  97 132 171 209 248 293
#     4  10  20  36  57  78  99 124 160 207 259 310
#
# _framework density 18.223337000000001
#
# number of rings (size 3 to 8) (size 9 to 14) (size 15 to 20)
#    0.000    2.615    0.000    1.846    1.077    3.385 
#    0.000    1.538    0.000    0.923    0.000    6.462 
#    0.000    0.000    0.000    0.000    0.000    0.000 
#
# Total GULP energy -289848.318597 kJ/mol
# GULP energy per Si atom -5574.006127 kJ/mol
# Density = 1.818186 g / cm^3
# Si number density = 18.223337 Si / 1000 Ang^3
#
#
#
# Elastic Constant Matrix: (Units=GPa)
#
#
# Indices 1 2 3 4 5 6 
#
# 1 65.2286 8.3431 23.1586 0.0000 0.0000 0.0000
# 2 8.3431 19.3412 3.6105 0.0000 0.0000 0.0000
# 3 23.1586 3.6105 97.4310 0.0000 0.0000 0.0000
# 4 0.0000 0.0000 0.0000 22.9939 0.0000 0.0000
# 5 0.0000 0.0000 0.0000 0.0000 -0.9093 0.0000
# 6 0.0000 0.0000 0.0000 0.0000 0.0000 19.4009
#
#
#
# Elastic Compliance Matrix: (Units=1/GPa)
#
#
# Indices 1 2 3 4 5 6 
#
# 1 0.017603 -0.006860 -0.003930 0.000000 0.000000 0.000000
# 2 -0.006860 0.054736 -0.000398 0.000000 0.000000 0.000000
# 3 -0.003930 -0.000398 0.011213 0.000000 0.000000 0.000000
# 4 0.000000 0.000000 0.000000 0.043490 0.000000 0.000000
# 5 0.000000 0.000000 0.000000 0.000000 -1.099803 0.000000
# 6 0.000000 0.000000 0.000000 0.000000 0.000000 0.051544
#
#
# Mechanical properties :
#
#
# Convention : Reuss Voigt Hill
#
# Bulk Modulus (GPa) = 16.34601 28.02501 22.18551
# Shear Modulus (GPa) = -5.69185 18.08968 6.19892
#
# Velocity S-wave (km/s) = -1.76923 3.15408 1.84635
# Velocity P-wave (km/s) = 2.19448 5.35503 4.09219
#
# Compressibility (1/GPa) = 0.06117702
#
# Stress axis : x y z
#
# Youngs Moduli (GPa) = 56.80723 18.26940 89.18582
#
# Poissons Ratio (x) = 0.12532 0.35050
# Poissons Ratio (y) = 0.38969 0.03548
# Poissons Ratio (z) = 0.22325 0.00727
#
# Static dielectric constant tensor:
#      x y z
#    x 1.651780 0.000000 0.000000 
#    y 0.000000 1.630290 0.000000 
#    z 0.000000 0.000000 1.631710 
# 
# From -- ./inp_files/42759.got.cif
#   From: 2010.05.17/outbox.cif.g08.bks.cpg/sg67_22_cif.got.tgz:42759.got - 2010.06.03 18:28:57.
