data_PCOD9501041
_publ_section_title
;
Structure prediction by ZEFSAII (Michael W. Deem and Ramdas Pophale) SiO2 
 PCOD9501041
Probable space group: C M M A
;
_chemical_formula_sum "Si O2"
_cell_formula_units_Z 96
_cell_length_a 27.392385
_cell_length_b 9.103260
_cell_length_c 24.167588
_cell_angle_alpha 90.000000
_cell_angle_beta 90.000000
_cell_angle_gamma 90.000000
_cell_volume 6026.429808
_symmetry_space_group_name_H-M "C M M A"
_symmetry_group_IT_number 67
_symmetry_cell_setting 'orthorhombic'
loop_
_space_group_symop_operation_xyz
x,y,z
-x,1/2-y,z
x,-y,-z
-x,1/2+y,-z
-x,-y,-z
x,1/2+y,-z
-x,y,z
x,1/2-y,z
1/2+x,1/2+y,z
1/2-x,-y,z
1/2+x,1/2-y,-z
1/2-x,y,-z
1/2-x,1/2-y,-z
1/2+x,y,-z
1/2-x,1/2+y,z
1/2+x,-y,z
loop_
_atom_site_type_symbol
_atom_site_label
_atom_site_fract_x
_atom_site_fract_y
_atom_site_fract_z
Si Si1 0.555901 0.425149 0.105928
Si Si2 0.558860 0.077834 0.669661
Si Si3 0.395454 0.925025 0.776245
Si Si4 0.198344 0.425403 0.172865
Si Si5 0.149144 0.423961 0.055535
Si Si6 0.440570 0.080367 0.443873
O O1 0.500000 0.468141 0.095144
O O2 0.560799 0.250000 0.096018
O O3 0.569654 0.450788 0.170395
O O4 0.595919 0.510519 0.070310
O O5 0.500000 0.066122 0.673134
O O6 0.571477 0.250000 0.670878
O O7 0.581752 0.993728 0.721395
O O8 0.574212 0.005062 0.611555
O O9 0.389374 0.750000 0.770639
O O10 0.344382 0.002173 0.790882
O O11 0.200021 0.250000 0.181121
O O12 0.250000 0.500000 0.184121
O O13 0.182701 0.453202 0.108994
O O14 0.145660 0.250000 0.047720
O O15 0.167662 0.500000 0.000000
O O16 0.500000 0.079499 0.444590
O O17 0.425064 0.250000 0.442630
O O18 0.424429 0.000000 0.500000
#
# Coordination Sequence:
#
# PCOD9501041 Si02
#       6
#    16  16  16  16  16  16
#     4   9  18  32  49  68  92 123 156 189 227 271
#     4  10  19  29  43  66  97 132 167 201 236 276
#     4  10  19  32  50  71  95 122 155 195 236 280
#     4  10  21  37  55  74  94 118 148 185 234 286
#     4  10  21  35  51  71  94 119 150 187 226 273
#     4   9  16  26  40  59  87 125 167 206 241 277
#
# _framework density 15.929830000000001
#
# number of rings (size 3 to 8) (size 9 to 14) (size 15 to 20)
#    0.000    2.333    0.000    3.000    0.000    7.333 
#    0.000    1.667    0.000    0.000    0.000    0.000 
#    0.000    0.667    0.000    6.667    0.000    4.333 
#
# Total GULP energy -267851.539201 kJ/mol
# GULP energy per Si atom -5580.240400 kJ/mol
# Density = 1.589357 g / cm^3
# Si number density = 15.929830 Si / 1000 Ang^3
#
#
#
# Elastic Constant Matrix: (Units=GPa)
#
#
# Indices 1 2 3 4 5 6 
#
# 1 35.0298 18.2425 -4.8823 0.0000 0.0000 0.0000
# 2 18.2425 85.7902 48.8934 0.0000 0.0000 0.0000
# 3 -4.8823 48.8934 87.7515 0.0000 0.0000 0.0000
# 4 0.0000 0.0000 0.0000 32.4416 0.0000 0.0000
# 5 0.0000 0.0000 0.0000 0.0000 7.0359 0.0000
# 6 0.0000 0.0000 0.0000 0.0000 0.0000 22.5338
#
#
#
# Elastic Compliance Matrix: (Units=1/GPa)
#
#
# Indices 1 2 3 4 5 6 
#
# 1 0.036694 -0.013138 0.009362 0.000000 0.000000 0.000000
# 2 -0.013138 0.021784 -0.012869 0.000000 0.000000 0.000000
# 3 0.009362 -0.012869 0.019087 0.000000 0.000000 0.000000
# 4 0.000000 0.000000 0.000000 0.030825 0.000000 0.000000
# 5 0.000000 0.000000 0.000000 0.000000 0.142129 0.000000
# 6 0.000000 0.000000 0.000000 0.000000 0.000000 0.044378
#
#
# Mechanical properties :
#
#
# Convention : Reuss Voigt Hill
#
# Bulk Modulus (GPa) = 22.58608 37.00875 29.79742
# Shear Modulus (GPa) = 14.57962 22.15678 18.36820
#
# Velocity S-wave (km/s) = 3.02858 3.73352 3.39937
# Velocity P-wave (km/s) = 5.14188 6.47058 5.84411
#
# Compressibility (1/GPa) = 0.04427506
#
# Stress axis : x y z
#
# Youngs Moduli (GPa) = 27.25247 45.90485 52.39195
#
# Poissons Ratio (x) = 0.60311 -0.49049
# Poissons Ratio (y) = 0.35805 0.67422
# Poissons Ratio (z) = -0.25514 0.59074
#
# Static dielectric constant tensor:
#      x y z
#    x 1.502500 0.000000 0.000000 
#    y 0.000000 1.527620 0.000000 
#    z 0.000000 0.000000 1.522580 
# 
# From -- ./inp_files/37123.got.cif
#   From: 2010.05.17/outbox.cif.g08.bks.cpg/sg67_19_cif.got.tgz:37123.got - 2010.06.03 18:28:57.
