data_PCOD9501759
_publ_section_title
;
Structure prediction by ZEFSAII (Michael W. Deem and Ramdas Pophale) SiO2 
 PCOD9501759
Probable space group: C M M A
;
_chemical_formula_sum "Si O2"
_cell_formula_units_Z 104
_cell_length_a 7.869975
_cell_length_b 22.110721
_cell_length_c 29.332554
_cell_angle_alpha 90.000000
_cell_angle_beta 90.000000
_cell_angle_gamma 90.000000
_cell_volume 5104.181818
_symmetry_space_group_name_H-M "C M M A"
_symmetry_group_IT_number 67
_symmetry_cell_setting 'orthorhombic'
loop_
_space_group_symop_operation_xyz
x,y,z
-x,1/2-y,z
x,-y,-z
-x,1/2+y,-z
-x,-y,-z
x,1/2+y,-z
-x,y,z
x,1/2-y,z
1/2+x,1/2+y,z
1/2-x,-y,z
1/2+x,1/2-y,-z
1/2-x,y,-z
1/2-x,1/2-y,-z
1/2+x,y,-z
1/2-x,1/2+y,z
1/2+x,-y,z
loop_
_atom_site_type_symbol
_atom_site_label
_atom_site_fract_x
_atom_site_fract_y
_atom_site_fract_z
Si Si1 0.704842 0.432971 0.889555
Si Si2 0.198822 0.152658 0.378058
Si Si3 0.300529 0.430811 0.450710
Si Si4 0.295289 0.567264 0.215221
Si Si5 0.204897 0.182450 0.053087
Si Si6 0.795061 0.750000 0.552133
Si Si7 0.291635 0.819443 0.276441
O O1 0.500000 0.429736 0.888755
O O2 0.750000 0.500000 0.907524
O O3 0.766693 0.429419 0.837162
O O4 0.767712 0.375287 0.918279
O O5 0.216135 0.089502 0.403255
O O6 0.271536 0.194389 0.418133
O O7 0.267853 0.164514 0.327869
O O8 0.000000 0.167626 0.373564
O O9 0.500000 0.423549 0.446246
O O10 0.250000 0.500000 0.455094
O O11 0.250000 0.401632 0.500000
O O12 0.500000 0.570142 0.214497
O O13 0.250000 0.500000 0.233190
O O14 0.235472 0.625709 0.243663
O O15 0.265119 0.250000 0.067476
O O16 0.000000 0.182996 0.056941
O O17 0.250000 0.175149 0.000000
O O18 0.750000 0.750000 0.500000
O O19 0.000000 0.750000 0.553045
O O20 0.500000 0.819915 0.275519
O O21 0.241254 0.750000 0.265178
#
# Coordination Sequence:
#
# PCOD9501759 Si02
#       7
#    16  16  16  16  16   8  16
#     4   9  18  32  50  74 103 135 173 219 267 313
#     4  10  19  34  53  75 102 132 164 202 246 295
#     4  11  22  37  55  76 101 131 165 204 247 296
#     4   9  18  33  54  78 104 136 174 217 264 316
#     4   9  18  32  49  71 102 138 176 219 265 314
#     4  10  20  32  50  72  98 130 162 196 237 286
#     4   9  17  32  55  80 105 135 173 215 258 305
#
# _framework density 20.375450000000001
#
# number of rings (size 3 to 8) (size 9 to 14) (size 15 to 20)
#    0.000    2.462    0.769    2.308    0.000    4.000 
#    0.000    6.923    0.000    1.385    0.000    4.308 
#    0.000    0.000    0.000    0.000    0.000    0.000 
#
# Total GULP energy -289661.911149 kJ/mol
# GULP energy per Si atom -5570.421368 kJ/mol
# Density = 2.032907 g / cm^3
# Si number density = 20.375450 Si / 1000 Ang^3
#
#
#
# Elastic Constant Matrix: (Units=GPa)
#
#
# Indices 1 2 3 4 5 6 
#
# 1 25.3205 -0.1754 5.0234 0.0000 0.0000 0.0000
# 2 -0.1754 189.7613 99.6905 0.0000 0.0000 0.0000
# 3 5.0234 99.6905 99.9656 0.0000 0.0000 0.0000
# 4 0.0000 0.0000 0.0000 24.8207 0.0000 0.0000
# 5 0.0000 0.0000 0.0000 0.0000 5.2585 0.0000
# 6 0.0000 0.0000 0.0000 0.0000 0.0000 14.4780
#
#
#
# Elastic Compliance Matrix: (Units=1/GPa)
#
#
# Indices 1 2 3 4 5 6 
#
# 1 0.040371 0.002317 -0.004339 0.000000 0.000000 0.000000
# 2 0.002317 0.011202 -0.011287 0.000000 0.000000 0.000000
# 3 -0.004339 -0.011287 0.021478 0.000000 0.000000 0.000000
# 4 0.000000 0.000000 0.000000 0.040289 0.000000 0.000000
# 5 0.000000 0.000000 0.000000 0.000000 0.190167 0.000000
# 6 0.000000 0.000000 0.000000 0.000000 0.000000 0.069070
#
#
# Mechanical properties :
#
#
# Convention : Reuss Voigt Hill
#
# Bulk Modulus (GPa) = 21.53738 58.23604 39.88671
# Shear Modulus (GPa) = 12.05771 22.94538 17.50155
#
# Velocity S-wave (km/s) = 2.43528 3.35942 2.93397
# Velocity P-wave (km/s) = 4.30124 6.60993 5.57637
#
# Compressibility (1/GPa) = 0.04643090
#
# Stress axis : x y z
#
# Youngs Moduli (GPa) = 24.77044 89.27276 46.56000
#
# Poissons Ratio (x) = -0.20684 0.20203
# Poissons Ratio (y) = -0.05739 0.52553
# Poissons Ratio (z) = 0.10748 1.00764
#
# Static dielectric constant tensor:
#      x y z
#    x 1.754100 0.000000 0.000000 
#    y 0.000000 1.926830 0.000000 
#    z 0.000000 0.000000 1.715630 
# 
# From -- ./inp_files/43717.got.cif
#   From: 2010.05.17/outbox.cif.g08.bks.cpg/sg67_22_cif.got.tgz:43717.got - 2010.06.03 18:28:57.
