data_PCOD9501030
_publ_section_title
;
Structure prediction by ZEFSAII (Michael W. Deem and Ramdas Pophale) SiO2 
 PCOD9501030
Probable space group: C M M A
;
_chemical_formula_sum "Si O2"
_cell_formula_units_Z 96
_cell_length_a 8.633884
_cell_length_b 28.115580
_cell_length_c 24.898096
_cell_angle_alpha 90.000000
_cell_angle_beta 90.000000
_cell_angle_gamma 90.000000
_cell_volume 6043.929553
_symmetry_space_group_name_H-M "C M M A"
_symmetry_group_IT_number 67
_symmetry_cell_setting 'orthorhombic'
loop_
_space_group_symop_operation_xyz
x,y,z
-x,1/2-y,z
x,-y,-z
-x,1/2+y,-z
-x,-y,-z
x,1/2+y,-z
-x,y,z
x,1/2-y,z
1/2+x,1/2+y,z
1/2-x,-y,z
1/2+x,1/2-y,-z
1/2-x,y,-z
1/2-x,1/2-y,-z
1/2+x,y,-z
1/2-x,1/2+y,z
1/2+x,-y,z
loop_
_atom_site_type_symbol
_atom_site_label
_atom_site_fract_x
_atom_site_fract_y
_atom_site_fract_z
Si Si1 0.813648 0.899347 0.779257
Si Si2 0.314018 0.553836 0.673352
Si Si3 0.184870 0.553829 0.445468
Si Si4 0.814167 0.143828 0.057778
Si Si5 0.315008 0.448136 0.114964
Si Si6 0.188096 0.303006 0.165487
O O1 0.755616 0.915734 0.721503
O O2 0.744188 0.932959 0.825772
O O3 0.765234 0.845537 0.794722
O O4 0.000000 0.902435 0.782158
O O5 0.500000 0.552153 0.677685
O O6 0.250000 0.500000 0.677640
O O7 0.273939 0.573218 0.613601
O O8 0.250000 0.500000 0.444559
O O9 0.250000 0.576836 0.500000
O O10 0.000000 0.551870 0.449575
O O11 0.748679 0.092452 0.075243
O O12 0.768531 0.179868 0.105562
O O13 0.000000 0.141342 0.056476
O O14 0.750000 0.157750 0.000000
O O15 0.500000 0.448487 0.114072
O O16 0.250000 0.500000 0.101566
O O17 0.245197 0.250000 0.177443
O O18 0.000000 0.301799 0.166798
#
# Coordination Sequence:
#
# PCOD9501030 Si02
#       6
#    16  16  16  16  16  16
#     4  10  19  31  48  69  92 118 150 186 224 267
#     4  10  19  29  42  63  92 125 159 191 224 261
#     4   9  16  25  38  56  82 118 156 192 224 257
#     4  10  20  34  51  72  95 118 147 180 217 262
#     4  11  21  34  50  67  91 121 152 185 222 262
#     4   8  16  32  52  71  91 115 143 179 223 269
#
# _framework density 15.883706
#
# number of rings (size 3 to 8) (size 9 to 14) (size 15 to 20)
#    0.000    2.333    0.000    5.500    0.000    2.667 
#    0.000    1.667    0.000   17.500    0.000    0.000 
#    0.000    0.667    0.000    1.500    0.000    2.667 
#
# Total GULP energy -267625.708999 kJ/mol
# GULP energy per Si atom -5575.535604 kJ/mol
# Density = 1.584755 g / cm^3
# Si number density = 15.883706 Si / 1000 Ang^3
#
#
#
# Elastic Constant Matrix: (Units=GPa)
#
#
# Indices 1 2 3 4 5 6 
#
# 1 67.1945 14.3683 28.9466 0.0000 0.0000 0.0000
# 2 14.3683 71.3120 27.5600 0.0000 0.0000 0.0000
# 3 28.9466 27.5600 118.8275 0.0000 0.0000 0.0000
# 4 0.0000 0.0000 0.0000 8.8930 0.0000 0.0000
# 5 0.0000 0.0000 0.0000 0.0000 30.1241 0.0000
# 6 0.0000 0.0000 0.0000 0.0000 0.0000 8.6379
#
#
#
# Elastic Compliance Matrix: (Units=1/GPa)
#
#
# Indices 1 2 3 4 5 6 
#
# 1 0.016880 -0.001990 -0.003650 0.000000 0.000000 0.000000
# 2 -0.001990 0.015638 -0.003142 0.000000 0.000000 0.000000
# 3 -0.003650 -0.003142 0.010034 0.000000 0.000000 0.000000
# 4 0.000000 0.000000 0.000000 0.112449 0.000000 0.000000
# 5 0.000000 0.000000 0.000000 0.000000 0.033196 0.000000
# 6 0.000000 0.000000 0.000000 0.000000 0.000000 0.115769
#
#
# Mechanical properties :
#
#
# Convention : Reuss Voigt Hill
#
# Bulk Modulus (GPa) = 40.02202 44.34266 42.18234
# Shear Modulus (GPa) = 15.15791 21.96159 18.55975
#
# Velocity S-wave (km/s) = 3.09253 3.72243 3.42201
# Velocity P-wave (km/s) = 6.16468 6.81565 6.49832
#
# Compressibility (1/GPa) = 0.02498624
#
# Stress axis : x y z
#
# Youngs Moduli (GPa) = 59.24050 63.94566 99.66518
#
# Poissons Ratio (x) = 0.12727 0.36382
# Poissons Ratio (y) = 0.11791 0.31317
# Poissons Ratio (z) = 0.21625 0.20093
#
# Static dielectric constant tensor:
#      x y z
#    x 1.534920 0.000000 0.000000 
#    y 0.000000 1.511680 0.000000 
#    z 0.000000 0.000000 1.555230 
# 
# From -- ./inp_files/40798.got.cif
#   From: 2010.05.17/outbox.cif.g08.bks.cpg/sg67_21_cif.got.tgz:40798.got - 2010.06.03 18:28:57.
