data_PCOD9501019
_publ_section_title
;
Structure prediction by ZEFSAII (Michael W. Deem and Ramdas Pophale) SiO2 
 PCOD9501019
Probable space group: C M M A
;
_chemical_formula_sum "Si O2"
_cell_formula_units_Z 104
_cell_length_a 8.899966
_cell_length_b 26.420575
_cell_length_c 28.756784
_cell_angle_alpha 90.000000
_cell_angle_beta 90.000000
_cell_angle_gamma 90.000000
_cell_volume 6761.934007
_symmetry_space_group_name_H-M "C M M A"
_symmetry_group_IT_number 67
_symmetry_cell_setting 'orthorhombic'
loop_
_space_group_symop_operation_xyz
x,y,z
-x,1/2-y,z
x,-y,-z
-x,1/2+y,-z
-x,-y,-z
x,1/2+y,-z
-x,y,z
x,1/2-y,z
1/2+x,1/2+y,z
1/2-x,-y,z
1/2+x,1/2-y,-z
1/2-x,y,-z
1/2-x,1/2-y,-z
1/2+x,y,-z
1/2-x,1/2+y,z
1/2+x,-y,z
loop_
_atom_site_type_symbol
_atom_site_label
_atom_site_fract_x
_atom_site_fract_y
_atom_site_fract_z
Si Si1 0.180020 0.056615 0.953699
Si Si2 0.181497 0.836258 0.623780
Si Si3 0.825617 0.807792 0.279763
Si Si4 0.680395 0.946077 0.341853
Si Si5 0.820782 0.555581 0.148108
Si Si6 0.677792 0.097395 0.758909
Si Si7 0.319916 0.250000 0.550806
O O1 0.214626 0.079397 0.902727
O O2 0.000000 0.053136 0.958621
O O3 0.250000 0.000000 0.952115
O O4 0.250000 0.081153 0.000000
O O5 0.266913 0.812504 0.667591
O O6 0.218087 0.896543 0.626557
O O7 0.220473 0.801042 0.579785
O O8 0.000000 0.832482 0.630666
O O9 0.815518 0.750000 0.264581
O O10 0.721018 0.844910 0.250900
O O11 0.000000 0.824018 0.277185
O O12 0.500000 0.950600 0.342236
O O13 0.726266 0.932171 0.288457
O O14 0.750000 0.000000 0.355380
O O15 0.750000 0.500000 0.147938
O O16 0.757854 0.581352 0.194026
O O17 0.000000 0.551858 0.151215
O O18 0.500000 0.090246 0.763384
O O19 0.500000 0.250000 0.546914
O O20 0.250000 0.250000 0.500000
#
# Coordination Sequence:
#
# PCOD9501019 Si02
#       7
#    16  16  16  16  16  16   8
#     4   9  16  25  38  55  76 106 144 186 229 273
#     4   9  18  33  51  70  95 128 158 187 231 282
#     4  10  19  30  47  70  94 119 149 188 228 271
#     4   9  18  30  45  67  92 121 158 190 222 268
#     4  10  19  29  41  59  86 118 152 191 232 273
#     4  10  20  31  44  63  89 124 159 189 226 274
#     4  10  20  34  54  76 100 124 152 198 243 282
#
# _framework density 15.380215
#
# number of rings (size 3 to 8) (size 9 to 14) (size 15 to 20)
#    0.000    2.462    0.769    3.692    0.000    7.692 
#    0.000    0.000    0.000    0.462    0.000    3.231 
#    0.000    0.615    0.000    2.000    0.000    2.769 
#
# Total GULP energy -289475.554531 kJ/mol
# GULP energy per Si atom -5566.837587 kJ/mol
# Density = 1.534521 g / cm^3
# Si number density = 15.380215 Si / 1000 Ang^3
#
#
#
# Elastic Constant Matrix: (Units=GPa)
#
#
# Indices 1 2 3 4 5 6 
#
# 1 32.1101 19.2018 33.0596 0.0000 0.0000 0.0000
# 2 19.2018 78.7324 46.0134 0.0000 0.0000 0.0000
# 3 33.0596 46.0134 122.7899 0.0000 0.0000 0.0000
# 4 0.0000 0.0000 0.0000 246.3915 0.0000 0.0000
# 5 0.0000 0.0000 0.0000 0.0000 27.3636 0.0000
# 6 0.0000 0.0000 0.0000 0.0000 0.0000 23.6566
#
#
#
# Elastic Compliance Matrix: (Units=1/GPa)
#
#
# Indices 1 2 3 4 5 6 
#
# 1 0.044535 -0.004935 -0.010141 0.000000 0.000000 0.000000
# 2 -0.004935 0.016810 -0.004971 0.000000 0.000000 0.000000
# 3 -0.010141 -0.004971 0.012737 0.000000 0.000000 0.000000
# 4 0.000000 0.000000 0.000000 0.004059 0.000000 0.000000
# 5 0.000000 0.000000 0.000000 0.000000 0.036545 0.000000
# 6 0.000000 0.000000 0.000000 0.000000 0.000000 0.042271
#
#
# Mechanical properties :
#
#
# Convention : Reuss Voigt Hill
#
# Bulk Modulus (GPa) = 29.42157 47.79802 38.60979
# Shear Modulus (GPa) = 23.99475 68.50619 46.25047
#
# Velocity S-wave (km/s) = 3.95410 6.68120 5.48969
# Velocity P-wave (km/s) = 6.32594 9.52171 8.08333
#
# Compressibility (1/GPa) = 0.03398867
#
# Stress axis : x y z
#
# Youngs Moduli (GPa) = 22.45431 59.48959 78.51112
#
# Poissons Ratio (x) = 0.29356 0.79621
# Poissons Ratio (y) = 0.11080 0.39024
# Poissons Ratio (z) = 0.22772 0.29570
#
# Static dielectric constant tensor:
#      x y z
#    x 1.489750 0.000000 0.000000 
#    y 0.000000 1.389860 0.000000 
#    z 0.000000 0.000000 1.540610 
# 
# From -- ./inp_files/43834.got.cif
#   From: 2010.05.17/outbox.cif.g08.bks.cpg/sg67_22_cif.got.tgz:43834.got - 2010.06.03 18:28:57.
