data_PCOD9501647
_publ_section_title
;
Structure prediction by ZEFSAII (Michael W. Deem and Ramdas Pophale) SiO2 
 PCOD9501647
Probable space group: C M M A
;
_chemical_formula_sum "Si O2"
_cell_formula_units_Z 80
_cell_length_a 18.768699
_cell_length_b 8.477271
_cell_length_c 26.499813
_cell_angle_alpha 90.000000
_cell_angle_beta 90.000000
_cell_angle_gamma 90.000000
_cell_volume 4216.314962
_symmetry_space_group_name_H-M "C M M A"
_symmetry_group_IT_number 67
_symmetry_cell_setting 'orthorhombic'
loop_
_space_group_symop_operation_xyz
x,y,z
-x,1/2-y,z
x,-y,-z
-x,1/2+y,-z
-x,-y,-z
x,1/2+y,-z
-x,y,z
x,1/2-y,z
1/2+x,1/2+y,z
1/2-x,-y,z
1/2+x,1/2-y,-z
1/2-x,y,-z
1/2-x,1/2-y,-z
1/2+x,y,-z
1/2-x,1/2+y,z
1/2+x,-y,z
loop_
_atom_site_type_symbol
_atom_site_label
_atom_site_fract_x
_atom_site_fract_y
_atom_site_fract_z
Si Si1 0.330436 0.939340 0.445207
Si Si2 0.830308 0.439163 0.945083
Si Si3 0.582039 0.940886 0.847095
Si Si4 0.581786 0.057497 0.652579
Si Si5 0.169432 0.439199 0.248908
O O1 0.328849 0.750000 0.446261
O O2 0.380566 0.992017 0.399362
O O3 0.354306 0.000000 0.500000
O O4 0.250000 0.000000 0.436975
O O5 0.828460 0.250000 0.946375
O O6 0.750000 0.500000 0.936192
O O7 0.881194 0.490614 0.899553
O O8 0.853447 0.500000 0.000000
O O9 0.500000 0.993082 0.844006
O O10 0.583070 0.750000 0.845838
O O11 0.627366 0.002959 0.800221
O O12 0.500000 0.004871 0.655932
O O13 0.581400 0.250000 0.652773
O O14 0.627660 0.006410 0.700867
O O15 0.170534 0.250000 0.248957
O O16 0.250000 0.500000 0.248781
#
# Coordination Sequence:
#
# PCOD9501647 Si02
#       5
#    16  16  16  16  16
#     4  10  19  33  54  77 105 139 176 219 263 312
#     4  10  20  35  56  80 108 143 182 224 268 316
#     4  10  22  39  57  81 114 146 178 223 276 324
#     4   9  19  35  54  78 108 140 175 219 270 320
#     4  11  22  37  59  83 108 142 184 225 268 323
#
# _framework density 18.973915000000002
#
# number of rings (size 3 to 8) (size 9 to 14) (size 15 to 20)
#    0.000    2.000    0.000    4.800    0.000    5.200 
#    0.000    3.000    0.000    6.600    0.000    0.000 
#    0.000    0.000    0.000    0.000    0.000    0.000 
#
# Total GULP energy -223462.867969 kJ/mol
# GULP energy per Si atom -5586.571699 kJ/mol
# Density = 1.893073 g / cm^3
# Si number density = 18.973915 Si / 1000 Ang^3
#
#
#
# Elastic Constant Matrix: (Units=GPa)
#
#
# Indices 1 2 3 4 5 6 
#
# 1 176.3122 28.9659 144.8392 0.0000 0.0000 0.0000
# 2 28.9659 32.0227 35.3581 0.0000 0.0000 0.0000
# 3 144.8392 35.3581 211.8171 0.0000 0.0000 0.0000
# 4 0.0000 0.0000 0.0000 -29.0925 0.0000 0.0000
# 5 0.0000 0.0000 0.0000 0.0000 45.8235 0.0000
# 6 0.0000 0.0000 0.0000 0.0000 0.0000 3.2118
#
#
#
# Elastic Compliance Matrix: (Units=1/GPa)
#
#
# Indices 1 2 3 4 5 6 
#
# 1 0.013090 -0.002400 -0.008550 0.000000 0.000000 0.000000
# 2 -0.002400 0.038724 -0.004823 0.000000 0.000000 0.000000
# 3 -0.008550 -0.004823 0.011373 0.000000 0.000000 0.000000
# 4 0.000000 0.000000 0.000000 -0.034373 0.000000 0.000000
# 5 0.000000 0.000000 0.000000 0.000000 0.021823 0.000000
# 6 0.000000 0.000000 0.000000 0.000000 0.000000 0.311352
#
#
# Mechanical properties :
#
#
# Convention : Reuss Voigt Hill
#
# Bulk Modulus (GPa) = 31.60505 93.16426 62.38465
# Shear Modulus (GPa) = 12.37374 18.05448 15.21411
#
# Velocity S-wave (km/s) = 2.55648 3.08805 2.83476
# Velocity P-wave (km/s) = 5.04058 7.86909 6.60795
#
# Compressibility (1/GPa) = 0.03164051
#
# Stress axis : x y z
#
# Youngs Moduli (GPa) = 76.39436 25.82378 87.92894
#
# Poissons Ratio (x) = 0.06197 0.75182
# Poissons Ratio (y) = 0.18331 0.42411
# Poissons Ratio (z) = 0.65319 0.12456
#
# Static dielectric constant tensor:
#      x y z
#    x 1.627870 0.000000 0.000000 
#    y 0.000000 1.650550 0.000000 
#    z 0.000000 0.000000 1.643270 
# 
# From -- ./inp_files/43306.got.cif
#   From: 2010.05.17/outbox.cif.g08.bks.cpg/sg67_22_cif.got.tgz:43306.got - 2010.06.03 18:28:57.
