data_PCOD9501799
_publ_section_title
;
Structure prediction by ZEFSAII (Michael W. Deem and Ramdas Pophale) SiO2 
 PCOD9501799
Probable space group: C M M A
;
_chemical_formula_sum "Si O2"
_cell_formula_units_Z 96
_cell_length_a 14.769288
_cell_length_b 29.264869
_cell_length_c 10.180338
_cell_angle_alpha 90.000000
_cell_angle_beta 90.000000
_cell_angle_gamma 90.000000
_cell_volume 4400.158706
_symmetry_space_group_name_H-M "C M M A"
_symmetry_group_IT_number 67
_symmetry_cell_setting 'orthorhombic'
loop_
_space_group_symop_operation_xyz
x,y,z
-x,1/2-y,z
x,-y,-z
-x,1/2+y,-z
-x,-y,-z
x,1/2+y,-z
-x,y,z
x,1/2-y,z
1/2+x,1/2+y,z
1/2-x,-y,z
1/2+x,1/2-y,-z
1/2-x,y,-z
1/2-x,1/2-y,-z
1/2+x,y,-z
1/2-x,1/2+y,z
1/2+x,-y,z
loop_
_atom_site_type_symbol
_atom_site_label
_atom_site_fract_x
_atom_site_fract_y
_atom_site_fract_z
Si Si1 0.891105 0.952808 0.707914
Si Si2 0.610450 0.388801 0.471930
Si Si3 0.894602 0.053895 0.761548
Si Si4 0.109341 0.698531 0.632116
Si Si5 0.643695 0.399036 0.974233
Si Si6 0.151091 0.199649 0.066388
O O1 0.861878 0.928160 0.574752
O O2 0.871049 0.920946 0.832392
O O3 0.000000 0.955367 0.699870
O O4 0.855530 0.003964 0.731647
O O5 0.500000 0.385844 0.470216
O O6 0.643508 0.405532 0.329744
O O7 0.639648 0.340382 0.531219
O O8 0.000000 0.050591 0.725029
O O9 0.891067 0.067629 0.912739
O O10 0.125530 0.750000 0.583215
O O11 0.000000 0.693786 0.653749
O O12 0.154481 0.694013 0.775494
O O13 0.750000 0.395721 0.000000
O O14 0.606243 0.347376 0.982815
O O15 0.109144 0.250000 0.042257
O O16 0.250000 0.201263 0.000000
#
# Coordination Sequence:
#
# PCOD9501799 Si02
#       6
#    16  16  16  16  16  16
#     4  10  19  34  56  77 101 140 184 216 253 315
#     4   9  17  32  53  77 104 135 173 216 260 311
#     4  10  21  35  53  78 107 138 174 217 263 314
#     4   9  16  28  52  83 108 135 176 224 270 317
#     4  11  22  35  53  78 107 140 173 221 269 309
#     4   9  18  33  53  75 102 138 178 215 255 309
#
# _framework density 21.817395000000001
#
# number of rings (size 3 to 8) (size 9 to 14) (size 15 to 20)
#    0.000    2.333    1.667    1.500    0.000    5.333 
#    0.000    1.667    0.000    3.000    0.000    5.833 
#    0.000    0.000    0.000    0.000    0.000    0.000 
#
# Total GULP energy -267869.654825 kJ/mol
# GULP energy per Si atom -5580.617809 kJ/mol
# Density = 2.176774 g / cm^3
# Si number density = 21.817395 Si / 1000 Ang^3
#
#
#
# Elastic Constant Matrix: (Units=GPa)
#
#
# Indices 1 2 3 4 5 6 
#
# 1 55.8457 1.8848 -6.3136 0.0000 0.0000 0.0000
# 2 1.8848 120.6548 -4.1081 0.0000 0.0000 0.0000
# 3 -6.3136 -4.1081 46.3789 0.0000 0.0000 0.0000
# 4 0.0000 0.0000 0.0000 18.3086 0.0000 0.0000
# 5 0.0000 0.0000 0.0000 0.0000 154.6646 0.0000
# 6 0.0000 0.0000 0.0000 0.0000 0.0000 187.7179
#
#
#
# Elastic Compliance Matrix: (Units=1/GPa)
#
#
# Indices 1 2 3 4 5 6 
#
# 1 0.018191 -0.000200 0.002459 0.000000 0.000000 0.000000
# 2 -0.000200 0.008315 0.000709 0.000000 0.000000 0.000000
# 3 0.002459 0.000709 0.021959 0.000000 0.000000 0.000000
# 4 0.000000 0.000000 0.000000 0.054619 0.000000 0.000000
# 5 0.000000 0.000000 0.000000 0.000000 0.006466 0.000000
# 6 0.000000 0.000000 0.000000 0.000000 0.000000 0.005327
#
#
# Mechanical properties :
#
#
# Convention : Reuss Voigt Hill
#
# Bulk Modulus (GPa) = 18.38220 22.86730 20.62475
# Shear Modulus (GPa) = 39.34647 87.56596 63.45621
#
# Velocity S-wave (km/s) = 4.25131 6.34216 5.39892
# Velocity P-wave (km/s) = 5.70455 8.00841 6.95257
#
# Compressibility (1/GPa) = 0.05440045
#
# Stress axis : x y z
#
# Youngs Moduli (GPa) = 54.97161 120.25893 45.53936
#
# Poissons Ratio (x) = 0.02411 -0.11196
# Poissons Ratio (y) = 0.01102 -0.03230
# Poissons Ratio (z) = -0.13515 -0.08529
#
# Static dielectric constant tensor:
#      x y z
#    x 1.887060 0.000000 0.000000 
#    y 0.000000 1.835570 0.000000 
#    z 0.000000 0.000000 1.579870 
# 
# From -- ./inp_files/11481.got.cif
#   From: 2010.05.17/outbox.cif.g08.bks.cpg/sg67_6_cif.got.tgz:11481.got - 2010.06.03 18:28:57.
