data_PCOD9501250
_publ_section_title
;
Structure prediction by ZEFSAII (Michael W. Deem and Ramdas Pophale) SiO2 
 PCOD9501250
Probable space group: C M M A
;
_chemical_formula_sum "Si O2"
_cell_formula_units_Z 116
_cell_length_a 7.757828
_cell_length_b 31.119641
_cell_length_c 24.971811
_cell_angle_alpha 90.000000
_cell_angle_beta 90.000000
_cell_angle_gamma 90.000000
_cell_volume 6028.715146
_symmetry_space_group_name_H-M "C M M A"
_symmetry_group_IT_number 67
_symmetry_cell_setting 'orthorhombic'
loop_
_space_group_symop_operation_xyz
x,y,z
-x,1/2-y,z
x,-y,-z
-x,1/2+y,-z
-x,-y,-z
x,1/2+y,-z
-x,y,z
x,1/2-y,z
1/2+x,1/2+y,z
1/2-x,-y,z
1/2+x,1/2-y,-z
1/2-x,y,-z
1/2-x,1/2-y,-z
1/2+x,y,-z
1/2-x,1/2+y,z
1/2+x,-y,z
loop_
_atom_site_type_symbol
_atom_site_label
_atom_site_fract_x
_atom_site_fract_y
_atom_site_fract_z
Si Si1 0.792480 0.048473 0.869681
Si Si2 0.206036 0.951100 0.252648
Si Si3 0.210904 0.799465 0.735471
Si Si4 0.750000 0.000000 0.500000
Si Si5 0.292664 0.201393 0.856348
Si Si6 0.708819 0.082969 0.555204
Si Si7 0.297033 0.872953 0.938318
Si Si8 0.297933 0.122679 0.665319
O O1 0.729987 0.055065 0.808525
O O2 0.721877 0.084601 0.909550
O O3 0.000000 0.051463 0.867340
O O4 0.750000 0.000000 0.886320
O O5 0.281483 0.916059 0.292507
O O6 0.000000 0.946309 0.253184
O O7 0.250000 0.000000 0.268309
O O8 0.260815 0.750000 0.725046
O O9 0.265879 0.810953 0.796266
O O10 0.274760 0.834508 0.693143
O O11 0.000000 0.800552 0.735226
O O12 0.801444 0.037071 0.543331
O O13 0.500000 0.202736 0.854517
O O14 0.231365 0.250000 0.867310
O O15 0.243851 0.167870 0.901583
O O16 0.500000 0.074826 0.558458
O O17 0.750000 0.107904 0.500000
O O18 0.770796 0.106447 0.608319
O O19 0.500000 0.878615 0.937506
O O20 0.250000 0.867585 0.000000
O O21 0.500000 0.131163 0.655768
#
# Coordination Sequence:
#
# PCOD9501250 Si02
#       8
#    16  16  16   4  16  16  16  16
#     4   9  20  37  54  72  98 131 168 207 248 299
#     4  10  20  33  49  73 103 134 165 200 249 302
#     4   8  15  30  54  80 104 130 162 205 254 303
#     4   8  18  32  46  60  92 132 174 208 240 288
#     4   9  18  34  56  80 103 130 163 199 248 307
#     4   9  19  31  46  67  95 132 172 210 248 290
#     4  11  23  37  53  75 101 131 168 208 251 297
#     4  10  19  31  49  77 104 129 170 213 251 300
#
# _framework density 19.241247999999999
#
# number of rings (size 3 to 8) (size 9 to 14) (size 15 to 20)
#    0.414    2.207    0.000    2.690    0.966    3.034 
#    0.000    1.379    0.000    1.655    0.000    0.000 
#    0.000    0.000    0.000    0.000    0.000    0.000 
#
# Total GULP energy -322940.097727 kJ/mol
# GULP energy per Si atom -5567.932719 kJ/mol
# Density = 1.919745 g / cm^3
# Si number density = 19.241248 Si / 1000 Ang^3
#
#
#
# Elastic Constant Matrix: (Units=GPa)
#
#
# Indices 1 2 3 4 5 6 
#
# 1 34.2388 -3.4976 5.6664 0.0000 0.0000 0.0000
# 2 -3.4976 129.0838 123.6097 0.0000 0.0000 0.0000
# 3 5.6664 123.6097 167.2715 0.0000 0.0000 0.0000
# 4 0.0000 0.0000 0.0000 -17.5160 0.0000 0.0000
# 5 0.0000 0.0000 0.0000 0.0000 -11.0033 0.0000
# 6 0.0000 0.0000 0.0000 0.0000 0.0000 1.7633
#
#
#
# Elastic Compliance Matrix: (Units=1/GPa)
#
#
# Indices 1 2 3 4 5 6 
#
# 1 0.030786 0.006269 -0.005676 0.000000 0.000000 0.000000
# 2 0.006269 0.027774 -0.020737 0.000000 0.000000 0.000000
# 3 -0.005676 -0.020737 0.021495 0.000000 0.000000 0.000000
# 4 0.000000 0.000000 0.000000 -0.057091 0.000000 0.000000
# 5 0.000000 0.000000 0.000000 0.000000 -0.090882 0.000000
# 6 0.000000 0.000000 0.000000 0.000000 0.000000 0.567129
#
#
# Mechanical properties :
#
#
# Convention : Reuss Voigt Hill
#
# Bulk Modulus (GPa) = 25.14556 64.68346 44.91451
# Shear Modulus (GPa) = 9.04560 8.30316 8.67438
#
# Velocity S-wave (km/s) = 2.17057 2.07958 2.12556
# Velocity P-wave (km/s) = 4.40213 6.28142 5.42379
#
# Compressibility (1/GPa) = 0.03976846
#
# Stress axis : x y z
#
# Youngs Moduli (GPa) = 32.48194 36.00440 46.52303
#
# Poissons Ratio (x) = -0.22572 0.26405
# Poissons Ratio (y) = -0.20364 0.96475
# Poissons Ratio (z) = 0.18436 0.74662
#
# Static dielectric constant tensor:
#      x y z
#    x 1.723500 0.000000 0.000000 
#    y 0.000000 1.677770 0.000000 
#    z 0.000000 0.000000 0.568950 
# 
# From -- ./inp_files/41195.got.cif
#   From: 2010.05.17/outbox.cif.g08.bks.cpg/sg67_21_cif.got.tgz:41195.got - 2010.06.03 18:28:57.
