data_PCOD9501025
_publ_section_title
;
Structure prediction by ZEFSAII (Michael W. Deem and Ramdas Pophale) SiO2 
 PCOD9501025
Probable space group: C M M A
;
_chemical_formula_sum "Si O2"
_cell_formula_units_Z 88
_cell_length_a 9.136535
_cell_length_b 25.817761
_cell_length_c 25.454131
_cell_angle_alpha 90.000000
_cell_angle_beta 90.000000
_cell_angle_gamma 90.000000
_cell_volume 6004.244560
_symmetry_space_group_name_H-M "C M M A"
_symmetry_group_IT_number 67
_symmetry_cell_setting 'orthorhombic'
loop_
_space_group_symop_operation_xyz
x,y,z
-x,1/2-y,z
x,-y,-z
-x,1/2+y,-z
-x,-y,-z
x,1/2+y,-z
-x,y,z
x,1/2-y,z
1/2+x,1/2+y,z
1/2-x,-y,z
1/2+x,1/2-y,-z
1/2-x,y,-z
1/2-x,1/2-y,-z
1/2+x,y,-z
1/2-x,1/2+y,z
1/2+x,-y,z
loop_
_atom_site_type_symbol
_atom_site_label
_atom_site_fract_x
_atom_site_fract_y
_atom_site_fract_z
Si Si1 0.324294 0.945242 0.444699
Si Si2 0.668988 0.186858 0.053230
Si Si3 0.324286 0.250000 0.556561
Si Si4 0.174541 0.347974 0.371053
Si Si5 0.825823 0.688369 0.267175
Si Si6 0.168655 0.313019 0.159326
O O1 0.500000 0.950928 0.451453
O O2 0.250000 0.929404 0.500000
O O3 0.297583 0.901493 0.401268
O O4 0.250000 0.000000 0.430705
O O5 0.500000 0.170864 0.053348
O O6 0.670963 0.250000 0.053343
O O7 0.751022 0.169844 0.106120
O O8 0.750000 0.170302 0.000000
O O9 0.500000 0.250000 0.549829
O O10 0.250000 0.250000 0.500000
O O11 0.284263 0.300736 0.590186
O O12 0.259208 0.341188 0.316751
O O13 0.000000 0.343710 0.361174
O O14 0.794538 0.750000 0.274396
O O15 0.752224 0.671832 0.212390
O O16 0.000000 0.682253 0.264233
O O17 0.169967 0.250000 0.158412
O O18 0.000000 0.329578 0.160231
#
# Coordination Sequence:
#
# PCOD9501025 Si02
#       6
#    16  16   8  16  16  16
#     4  10  20  34  52  71  89 112 141 175 215 259
#     4   9  15  22  32  47  68  94 130 175 217 255
#     4  10  20  32  46  64  88 112 137 170 209 254
#     4  10  20  33  48  65  87 115 143 173 213 259
#     4  10  19  29  42  61  83 109 141 176 213 255
#     4   9  16  25  37  51  71 102 136 172 213 254
#
# _framework density 14.656298
#
# number of rings (size 3 to 8) (size 9 to 14) (size 15 to 20)
#    0.000    2.364    0.909    3.273    0.000    7.273 
#    0.000    0.000    0.000    0.000    0.000    0.000 
#    0.000    0.000    0.000    0.000    0.000    0.909 
#
# Total GULP energy -245322.022712 kJ/mol
# GULP energy per Si atom -5575.500516 kJ/mol
# Density = 1.462294 g / cm^3
# Si number density = 14.656298 Si / 1000 Ang^3
#
#
#
# Elastic Constant Matrix: (Units=GPa)
#
#
# Indices 1 2 3 4 5 6 
#
# 1 103.5366 37.2777 89.6601 0.0000 0.0000 0.0000
# 2 37.2777 37.6079 47.4234 0.0000 0.0000 0.0000
# 3 89.6601 47.4234 165.9558 0.0000 0.0000 0.0000
# 4 0.0000 0.0000 0.0000 9.9862 0.0000 0.0000
# 5 0.0000 0.0000 0.0000 0.0000 34.3269 0.0000
# 6 0.0000 0.0000 0.0000 0.0000 0.0000 13.5830
#
#
#
# Elastic Compliance Matrix: (Units=1/GPa)
#
#
# Indices 1 2 3 4 5 6 
#
# 1 0.020223 -0.009799 -0.008126 0.000000 0.000000 0.000000
# 2 -0.009799 0.046318 -0.007942 0.000000 0.000000 0.000000
# 3 -0.008126 -0.007942 0.012685 0.000000 0.000000 0.000000
# 4 0.000000 0.000000 0.000000 0.100138 0.000000 0.000000
# 5 0.000000 0.000000 0.000000 0.000000 0.029132 0.000000
# 6 0.000000 0.000000 0.000000 0.000000 0.000000 0.073622
#
#
# Mechanical properties :
#
#
# Convention : Reuss Voigt Hill
#
# Bulk Modulus (GPa) = 36.37280 72.86919 54.62100
# Shear Modulus (GPa) = 14.57666 20.42849 17.50258
#
# Velocity S-wave (km/s) = 3.15710 3.73746 3.45947
# Velocity P-wave (km/s) = 6.17744 8.27354 7.30110
#
# Compressibility (1/GPa) = 0.02749307
#
# Stress axis : x y z
#
# Youngs Moduli (GPa) = 49.44821 21.59008 78.83285
#
# Poissons Ratio (x) = 0.21157 0.64057
# Poissons Ratio (y) = 0.48455 0.62605
# Poissons Ratio (z) = 0.40180 0.17146
#
# Static dielectric constant tensor:
#      x y z
#    x 1.491030 0.000000 0.000000 
#    y 0.000000 1.458170 0.000000 
#    z 0.000000 0.000000 1.472720 
# 
# From -- ./inp_files/41111.got.cif
#   From: 2010.05.17/outbox.cif.g08.bks.cpg/sg67_21_cif.got.tgz:41111.got - 2010.06.03 18:28:57.
