data_PCOD9501559
_publ_section_title
;
Structure prediction by ZEFSAII (Michael W. Deem and Ramdas Pophale) SiO2 
 PCOD9501559
Probable space group: C M M A
;
_chemical_formula_sum "Si O2"
_cell_formula_units_Z 88
_cell_length_a 25.168342
_cell_length_b 20.694813
_cell_length_c 7.353563
_cell_angle_alpha 90.000000
_cell_angle_beta 90.000000
_cell_angle_gamma 90.000000
_cell_volume 3830.133668
_symmetry_space_group_name_H-M "C M M A"
_symmetry_group_IT_number 67
_symmetry_cell_setting 'orthorhombic'
loop_
_space_group_symop_operation_xyz
x,y,z
-x,1/2-y,z
x,-y,-z
-x,1/2+y,-z
-x,-y,-z
x,1/2+y,-z
-x,y,z
x,1/2-y,z
1/2+x,1/2+y,z
1/2-x,-y,z
1/2+x,1/2-y,-z
1/2-x,y,-z
1/2-x,1/2-y,-z
1/2+x,y,-z
1/2-x,1/2+y,z
1/2+x,-y,z
loop_
_atom_site_type_symbol
_atom_site_label
_atom_site_fract_x
_atom_site_fract_y
_atom_site_fract_z
Si Si1 0.376956 0.118009 0.324324
Si Si2 0.355874 0.111191 0.757384
Si Si3 0.259199 0.608659 0.702478
Si Si4 0.938739 0.750000 0.253502
Si Si5 0.776963 0.750000 0.194719
Si Si6 0.124260 0.250000 0.058774
Si Si7 0.939386 0.496446 0.277167
O O1 0.361049 0.113476 0.537278
O O2 0.319746 0.100288 0.232409
O O3 0.408435 0.185360 0.316560
O O4 0.416869 0.066858 0.237063
O O5 0.295131 0.090854 0.805580
O O6 0.365791 0.183206 0.835268
O O7 0.400461 0.058210 0.801065
O O8 0.250000 0.581714 0.500000
O O9 0.259474 0.686887 0.699737
O O10 0.000000 0.750000 0.311715
O O11 0.933178 0.750000 0.033841
O O12 0.750000 0.750000 0.000000
O O13 0.836829 0.750000 0.119046
O O14 0.937545 0.500000 0.500000
O O15 0.000000 0.485569 0.223511
#
# Coordination Sequence:
#
# PCOD9501559 Si02
#       7
#    16  16  16   8   8   8  16
#     4  10  20  38  61  87 118 151 194 246 296 353
#     4  10  21  36  60  90 118 152 193 242 299 359
#     4  10  19  32  56  90 119 147 191 241 291 349
#     4  12  25  39  58  85 115 154 202 244 287 347
#     4  12  19  32  56  81 120 159 182 222 292 358
#     4  12  23  37  56  86 122 156 194 239 302 353
#     4   9  19  37  59  82 113 156 201 244 295 349
#
# _framework density 22.975701000000001
#
# number of rings (size 3 to 8) (size 9 to 14) (size 15 to 20)
#    0.000    1.636    3.636    1.364    0.000    5.091 
#    0.000    5.455    0.000    2.182    0.000    0.000 
#    0.000    0.000    0.000    0.000    0.000    0.000 
#
# Total GULP energy -245128.414127 kJ/mol
# GULP energy per Si atom -5571.100321 kJ/mol
# Density = 2.292341 g / cm^3
# Si number density = 22.975701 Si / 1000 Ang^3
#
#
#
# Elastic Constant Matrix: (Units=GPa)
#
#
# Indices 1 2 3 4 5 6 
#
# 1 219.0801 87.2794 9.0193 0.0000 0.0000 0.0000
# 2 87.2794 116.1107 -1.7750 0.0000 0.0000 0.0000
# 3 9.0193 -1.7750 68.4414 0.0000 0.0000 0.0000
# 4 0.0000 0.0000 0.0000 -54.7583 0.0000 0.0000
# 5 0.0000 0.0000 0.0000 0.0000 18.4829 0.0000
# 6 0.0000 0.0000 0.0000 0.0000 0.0000 18.9247
#
#
#
# Elastic Compliance Matrix: (Units=1/GPa)
#
#
# Indices 1 2 3 4 5 6 
#
# 1 0.006583 -0.004964 -0.000996 0.000000 0.000000 0.000000
# 2 -0.004964 0.012358 0.000975 0.000000 0.000000 0.000000
# 3 -0.000996 0.000975 0.014768 0.000000 0.000000 0.000000
# 4 0.000000 0.000000 0.000000 -0.018262 0.000000 0.000000
# 5 0.000000 0.000000 0.000000 0.000000 0.054104 0.000000
# 6 0.000000 0.000000 0.000000 0.000000 0.000000 0.052841
#
#
# Mechanical properties :
#
#
# Convention : Reuss Voigt Hill
#
# Bulk Modulus (GPa) = 42.12544 65.85326 53.98935
# Shear Modulus (GPa) = 35.64420 17.13711 26.39065
#
# Velocity S-wave (km/s) = 3.94304 2.73404 3.39283
# Velocity P-wave (km/s) = 6.25337 6.22021 6.23681
#
# Compressibility (1/GPa) = 0.02373863
#
# Stress axis : x y z
#
# Youngs Moduli (GPa) = 151.90613 80.91611 67.71576
#
# Poissons Ratio (x) = 0.40164 0.06746
# Poissons Ratio (y) = 0.75400 -0.06600
# Poissons Ratio (z) = 0.15134 -0.07886
#
# Static dielectric constant tensor:
#      x y z
#    x 1.754110 0.000000 0.000000 
#    y 0.000000 1.871860 0.000000 
#    z 0.000000 0.000000 1.919910 
# 
# From -- ./inp_files/12481.got.cif
#   From: 2010.05.17/outbox.cif.g08.bks.cpg/sg67_7_cif.got.tgz:12481.got - 2010.06.03 18:28:57.
