data_PCOD9501882
_publ_section_title
;
Structure prediction by ZEFSAII (Michael W. Deem and Ramdas Pophale) SiO2 
 PCOD9501882
Probable space group: C M M A
;
_chemical_formula_sum "Si O2"
_cell_formula_units_Z 96
_cell_length_a 8.594828
_cell_length_b 24.248003
_cell_length_c 26.802683
_cell_angle_alpha 90.000000
_cell_angle_beta 90.000000
_cell_angle_gamma 90.000000
_cell_volume 5585.877883
_symmetry_space_group_name_H-M "C M M A"
_symmetry_group_IT_number 67
_symmetry_cell_setting 'orthorhombic'
loop_
_space_group_symop_operation_xyz
x,y,z
-x,1/2-y,z
x,-y,-z
-x,1/2+y,-z
-x,-y,-z
x,1/2+y,-z
-x,y,z
x,1/2-y,z
1/2+x,1/2+y,z
1/2-x,-y,z
1/2+x,1/2-y,-z
1/2-x,y,-z
1/2-x,1/2-y,-z
1/2+x,y,-z
1/2-x,1/2+y,z
1/2+x,-y,z
loop_
_atom_site_type_symbol
_atom_site_label
_atom_site_fract_x
_atom_site_fract_y
_atom_site_fract_z
Si Si1 0.186763 0.438174 0.148750
Si Si2 0.189217 0.750000 0.209174
Si Si3 0.313974 0.562619 0.550896
Si Si4 0.188590 0.630261 0.242674
Si Si5 0.312069 0.937627 0.660977
Si Si6 0.813079 0.250000 0.907377
Si Si7 0.186316 0.865480 0.946404
O O1 0.250000 0.500000 0.149069
O O2 0.251987 0.404911 0.195941
O O3 0.233824 0.406333 0.098237
O O4 0.000000 0.438949 0.151343
O O5 0.240476 0.693463 0.235281
O O6 0.235993 0.750000 0.150929
O O7 0.000000 0.750000 0.209560
O O8 0.500000 0.561197 0.547630
O O9 0.250000 0.500000 0.551487
O O10 0.250000 0.589165 0.500000
O O11 0.268405 0.584390 0.605703
O O12 0.240192 0.601307 0.293926
O O13 0.000000 0.629722 0.241983
O O14 0.500000 0.940634 0.662234
O O15 0.250000 0.000000 0.667162
O O16 0.750218 0.304890 0.933361
O O17 0.000000 0.250000 0.909379
O O18 0.000000 0.863317 0.948054
O O19 0.250000 0.883222 0.000000
#
# Coordination Sequence:
#
# PCOD9501882 Si02
#       7
#    16   8  16  16  16   8  16
#     4  11  24  39  56  78 104 135 168 205 249 300
#     4   9  18  32  56  81 100 129 165 204 250 297
#     4   9  15  24  38  61  91 128 165 202 244 286
#     4  10  19  35  55  77 103 132 168 208 251 302
#     4   9  18  29  45  69 101 133 166 205 245 294
#     4  11  20  36  61  85 106 133 167 208 254 300
#     4  11  24  40  58  81 107 135 168 208 252 300
#
# _framework density 17.186198000000001
#
# number of rings (size 3 to 8) (size 9 to 14) (size 15 to 20)
#    0.000    2.000    1.667    3.000    0.000    5.000 
#    0.000    2.083    0.000    0.000    0.000    0.583 
#    0.000    0.000    0.000    0.000    0.000    0.000 
#
# Total GULP energy -267803.712939 kJ/mol
# GULP energy per Si atom -5579.244020 kJ/mol
# Density = 1.714708 g / cm^3
# Si number density = 17.186198 Si / 1000 Ang^3
#
#
#
# Elastic Constant Matrix: (Units=GPa)
#
#
# Indices 1 2 3 4 5 6 
#
# 1 27.2373 20.5268 35.7074 0.0000 0.0000 0.0000
# 2 20.5268 112.3673 76.4421 0.0000 0.0000 0.0000
# 3 35.7074 76.4421 195.6354 0.0000 0.0000 0.0000
# 4 0.0000 0.0000 0.0000 -8.8452 0.0000 0.0000
# 5 0.0000 0.0000 0.0000 0.0000 1123.6032 0.0000
# 6 0.0000 0.0000 0.0000 0.0000 0.0000 4.3840
#
#
#
# Elastic Compliance Matrix: (Units=1/GPa)
#
#
# Indices 1 2 3 4 5 6 
#
# 1 0.049515 -0.003946 -0.007496 0.000000 0.000000 0.000000
# 2 -0.003946 0.012436 -0.004139 0.000000 0.000000 0.000000
# 3 -0.007496 -0.004139 0.008097 0.000000 0.000000 0.000000
# 4 0.000000 0.000000 0.000000 -0.113056 0.000000 0.000000
# 5 0.000000 0.000000 0.000000 0.000000 0.000890 0.000000
# 6 0.000000 0.000000 0.000000 0.000000 0.000000 0.228103
#
#
# Mechanical properties :
#
#
# Convention : Reuss Voigt Hill
#
# Bulk Modulus (GPa) = 25.71592 66.73252 46.22422
# Shear Modulus (GPa) = 21.72899 237.33266 129.53083
#
# Velocity S-wave (km/s) = 3.55960 11.76413 8.69096
# Velocity P-wave (km/s) = 5.64712 14.94790 11.29889
#
# Compressibility (1/GPa) = 0.03888641
#
# Stress axis : x y z
#
# Youngs Moduli (GPa) = 20.19605 80.41239 123.50427
#
# Poissons Ratio (x) = 0.31731 0.92574
# Poissons Ratio (y) = 0.07969 0.51118
# Poissons Ratio (z) = 0.15138 0.33282
#
# Static dielectric constant tensor:
#      x y z
#    x 1.583100 0.000000 0.000000 
#    y 0.000000 1.547770 0.000000 
#    z 0.000000 0.000000 1.615770 
# 
# From -- ./inp_files/43697.got.cif
#   From: 2010.05.17/outbox.cif.g08.bks.cpg/sg67_22_cif.got.tgz:43697.got - 2010.06.03 18:28:57.
