data_PCOD9501794
_publ_section_title
;
Structure prediction by ZEFSAII (Michael W. Deem and Ramdas Pophale) SiO2 
 PCOD9501794
Probable space group: C M M A
;
_chemical_formula_sum "Si O2"
_cell_formula_units_Z 96
_cell_length_a 15.431072
_cell_length_b 24.310619
_cell_length_c 13.515658
_cell_angle_alpha 90.000000
_cell_angle_beta 90.000000
_cell_angle_gamma 90.000000
_cell_volume 5070.249239
_symmetry_space_group_name_H-M "C M M A"
_symmetry_group_IT_number 67
_symmetry_cell_setting 'orthorhombic'
loop_
_space_group_symop_operation_xyz
x,y,z
-x,1/2-y,z
x,-y,-z
-x,1/2+y,-z
-x,-y,-z
x,1/2+y,-z
-x,y,z
x,1/2-y,z
1/2+x,1/2+y,z
1/2-x,-y,z
1/2+x,1/2-y,-z
1/2-x,y,-z
1/2-x,1/2-y,-z
1/2+x,y,-z
1/2-x,1/2+y,z
1/2+x,-y,z
loop_
_atom_site_type_symbol
_atom_site_label
_atom_site_fract_x
_atom_site_fract_y
_atom_site_fract_z
Si Si1 0.402025 0.644170 0.904628
Si Si2 0.232222 0.871361 0.616746
Si Si3 0.346044 0.944282 0.044478
Si Si4 0.606318 0.250000 0.216034
Si Si5 0.097382 0.421786 0.710567
Si Si6 0.752917 0.750000 0.380114
Si Si7 0.897589 0.550414 0.728649
O O1 0.500000 0.662132 0.919088
O O2 0.363315 0.696690 0.847639
O O3 0.398398 0.594076 0.826128
O O4 0.375577 0.615340 0.005728
O O5 0.250000 0.874138 0.500000
O O6 0.323942 0.889764 0.662300
O O7 0.211482 0.808557 0.647315
O O8 0.157313 0.911471 0.655451
O O9 0.355626 0.946123 0.162068
O O10 0.250000 0.946359 0.000000
O O11 0.390325 0.000000 0.000000
O O12 0.500000 0.250000 0.229236
O O13 0.654341 0.250000 0.322395
O O14 0.108124 0.486677 0.696545
O O15 0.000000 0.405356 0.677003
O O16 0.750000 0.750000 0.500000
O O17 0.000000 0.564440 0.733733
#
# Coordination Sequence:
#
# PCOD9501794 Si02
#       7
#    16  16  16   8  16   8  16
#     4  10  19  34  55  84 117 151 192 245 300 354
#     4  11  24  42  63  87 121 163 208 262 318 375
#     4  11  22  34  58  91 124 162 203 247 299 363
#     4  10  20  36  62  88 119 155 201 262 313 364
#     4  10  20  35  61  91 120 156 201 253 311 370
#     4  10  22  40  63  87 112 156 210 263 315 367
#     4  11  24  40  61  92 131 170 208 251 308 376
#
# _framework density 18.933980999999999
#
# number of rings (size 3 to 8) (size 9 to 14) (size 15 to 20)
#    0.000    1.500    3.333    2.000    2.333    2.667 
#    0.000    5.833    0.000    0.000    0.000    0.000 
#    0.000    0.000    0.000    0.000    0.000    0.000 
#
# Total GULP energy -267321.985032 kJ/mol
# GULP energy per Si atom -5569.208022 kJ/mol
# Density = 1.889089 g / cm^3
# Si number density = 18.933981 Si / 1000 Ang^3
#
#
#
# Elastic Constant Matrix: (Units=GPa)
#
#
# Indices 1 2 3 4 5 6 
#
# 1 57.8617 31.3137 17.4667 0.0000 0.0000 0.0000
# 2 31.3137 124.6396 24.0456 0.0000 0.0000 0.0000
# 3 17.4667 24.0456 62.9557 0.0000 0.0000 0.0000
# 4 0.0000 0.0000 0.0000 39.5765 0.0000 0.0000
# 5 0.0000 0.0000 0.0000 0.0000 9.6998 0.0000
# 6 0.0000 0.0000 0.0000 0.0000 0.0000 39.1773
#
#
#
# Elastic Compliance Matrix: (Units=1/GPa)
#
#
# Indices 1 2 3 4 5 6 
#
# 1 0.020940 -0.004469 -0.004103 0.000000 0.000000 0.000000
# 2 -0.004469 0.009615 -0.002433 0.000000 0.000000 0.000000
# 3 -0.004103 -0.002433 0.017952 0.000000 0.000000 0.000000
# 4 0.000000 0.000000 0.000000 0.025268 0.000000 0.000000
# 5 0.000000 0.000000 0.000000 0.000000 0.103095 0.000000
# 6 0.000000 0.000000 0.000000 0.000000 0.000000 0.025525
#
#
# Mechanical properties :
#
#
# Convention : Reuss Voigt Hill
#
# Bulk Modulus (GPa) = 37.73911 43.45656 40.59784
# Shear Modulus (GPa) = 21.43758 29.19944 25.31851
#
# Velocity S-wave (km/s) = 3.36851 3.93131 3.66074
# Velocity P-wave (km/s) = 5.92489 6.60366 6.27347
#
# Compressibility (1/GPa) = 0.02649771
#
# Stress axis : x y z
#
# Youngs Moduli (GPa) = 47.75607 104.00132 55.70564
#
# Poissons Ratio (x) = 0.46481 0.22854
# Poissons Ratio (y) = 0.21344 0.13551
# Poissons Ratio (z) = 0.19592 0.25299
#
# Static dielectric constant tensor:
#      x y z
#    x 1.660970 0.000000 0.000000 
#    y 0.000000 1.734960 0.000000 
#    z 0.000000 0.000000 1.697490 
# 
# From -- ./inp_files/27439.got.cif
#   From: 2010.05.17/outbox.cif.g08.bks.cpg/sg67_14_cif.got.tgz:27439.got - 2010.06.03 18:28:57.
