data_PCOD9501353
_publ_section_title
;
Structure prediction by ZEFSAII (Michael W. Deem and Ramdas Pophale) SiO2 
 PCOD9501353
Probable space group: C M M A
;
_chemical_formula_sum "Si O2"
_cell_formula_units_Z 120
_cell_length_a 28.864624
_cell_length_b 8.086968
_cell_length_c 26.066215
_cell_angle_alpha 90.000000
_cell_angle_beta 90.000000
_cell_angle_gamma 90.000000
_cell_volume 6084.565944
_symmetry_space_group_name_H-M "C M M A"
_symmetry_group_IT_number 67
_symmetry_cell_setting 'orthorhombic'
loop_
_space_group_symop_operation_xyz
x,y,z
-x,1/2-y,z
x,-y,-z
-x,1/2+y,-z
-x,-y,-z
x,1/2+y,-z
-x,y,z
x,1/2-y,z
1/2+x,1/2+y,z
1/2-x,-y,z
1/2+x,1/2-y,-z
1/2-x,y,-z
1/2-x,1/2-y,-z
1/2+x,y,-z
1/2-x,1/2+y,z
1/2+x,-y,z
loop_
_atom_site_type_symbol
_atom_site_label
_atom_site_fract_x
_atom_site_fract_y
_atom_site_fract_z
Si Si1 0.500000 0.050534 0.559048
Si Si2 0.803152 0.445187 0.054530
Si Si3 0.197787 0.447543 0.626179
Si Si4 0.097058 0.050379 0.387774
Si Si5 0.053253 0.054618 0.284741
Si Si6 0.450563 0.056061 0.170283
Si Si7 0.646351 0.948645 0.843758
Si Si8 0.801615 0.449495 0.743577
O O1 0.500000 0.250000 0.564910
O O2 0.449859 0.993817 0.582322
O O3 0.500000 0.000000 0.500000
O O4 0.805789 0.250000 0.057191
O O5 0.750000 0.500000 0.053335
O O6 0.823772 0.516790 0.106561
O O7 0.824640 0.500000 0.000000
O O8 0.198341 0.250000 0.626948
O O9 0.250000 0.500000 0.608490
O O10 0.149691 0.498839 0.597916
O O11 0.192564 0.512245 0.685185
O O12 0.096142 0.250000 0.388768
O O13 0.087184 0.995026 0.329118
O O14 0.061139 0.250000 0.275050
O O15 0.000000 0.040278 0.303844
O O16 0.056196 0.959016 0.231628
O O17 0.500000 0.977961 0.157961
O O18 0.452791 0.250000 0.157239
O O19 0.404816 0.982055 0.146368
O O20 0.643512 0.750000 0.837818
O O21 0.665487 0.012073 0.789123
O O22 0.805070 0.250000 0.741447
O O23 0.750000 0.500000 0.759394
#
# Coordination Sequence:
#
# PCOD9501353 Si02
#       8
#     8  16  16  16  16  16  16  16
#     4  10  22  40  60  84 114 144 180 226 281 332
#     4  11  22  37  56  77  99 123 156 200 253 308
#     4  10  20  34  52  78 111 148 188 224 261 314
#     4  10  19  34  55  78 108 145 181 223 273 323
#     4   9  16  28  47  72 103 140 179 214 255 308
#     4   9  18  31  47  70 103 140 174 211 252 295
#     4  10  19  32  49  71 101 135 170 209 254 302
#     4   9  18  30  45  68 103 140 174 211 250 297
#
# _framework density 19.722031000000001
#
# number of rings (size 3 to 8) (size 9 to 14) (size 15 to 20)
#    0.000    2.267    0.667    3.200    0.000    4.800 
#    0.000    0.000    0.000    0.800    0.000    2.800 
#    0.000    0.000    0.000    0.000    0.000    0.000 
#
# Total GULP energy -334287.821950 kJ/mol
# GULP energy per Si atom -5571.463699 kJ/mol
# Density = 1.967714 g / cm^3
# Si number density = 19.722031 Si / 1000 Ang^3
#
#
#
# Elastic Constant Matrix: (Units=GPa)
#
#
# Indices 1 2 3 4 5 6 
#
# 1 156.3456 8.2297 33.7195 0.0000 0.0000 0.0000
# 2 8.2297 18.1675 -6.3273 0.0000 0.0000 0.0000
# 3 33.7195 -6.3273 29.4169 0.0000 0.0000 0.0000
# 4 0.0000 0.0000 0.0000 47.5740 0.0000 0.0000
# 5 0.0000 0.0000 0.0000 0.0000 -66.4556 0.0000
# 6 0.0000 0.0000 0.0000 0.0000 0.0000 19.2503
#
#
#
# Elastic Compliance Matrix: (Units=1/GPa)
#
#
# Indices 1 2 3 4 5 6 
#
# 1 0.009668 -0.008906 -0.012998 0.000000 0.000000 0.000000
# 2 -0.008906 0.067705 0.024772 0.000000 0.000000 0.000000
# 3 -0.012998 0.024772 0.054221 0.000000 0.000000 0.000000
# 4 0.000000 0.000000 0.000000 0.021020 0.000000 0.000000
# 5 0.000000 0.000000 0.000000 0.000000 -0.015048 0.000000
# 6 0.000000 0.000000 0.000000 0.000000 0.000000 0.051947
#
#
# Mechanical properties :
#
#
# Convention : Reuss Voigt Hill
#
# Bulk Modulus (GPa) = 7.28175 30.57488 18.92832
# Shear Modulus (GPa) = 21.78116 11.29427 16.53771
#
# Velocity S-wave (km/s) = 3.32687 2.39565 2.89890
# Velocity P-wave (km/s) = 4.29623 4.81547 4.56324
#
# Compressibility (1/GPa) = 0.13732960
#
# Stress axis : x y z
#
# Youngs Moduli (GPa) = 103.43153 14.76990 18.44291
#
# Poissons Ratio (x) = 0.13155 0.23972
# Poissons Ratio (y) = 0.92121 -0.45687
# Poissons Ratio (z) = 1.34441 -0.36588
#
# Static dielectric constant tensor:
#      x y z
#    x 1.775100 0.000000 0.000000 
#    y 0.000000 1.690740 0.000000 
#    z 0.000000 0.000000 1.727780 
# 
# From -- ./inp_files/43897.got.cif
#   From: 2010.05.17/outbox.cif.g08.bks.cpg/sg67_22_cif.got.tgz:43897.got - 2010.06.03 18:28:57.
