data_PCOD9501866
_publ_section_title
;
Structure prediction by ZEFSAII (Michael W. Deem and Ramdas Pophale) SiO2 
 PCOD9501866
Probable space group: C M M A
;
_chemical_formula_sum "Si O2"
_cell_formula_units_Z 112
_cell_length_a 20.445476
_cell_length_b 18.378848
_cell_length_c 17.402361
_cell_angle_alpha 90.000000
_cell_angle_beta 90.000000
_cell_angle_gamma 90.000000
_cell_volume 6539.185925
_symmetry_space_group_name_H-M "C M M A"
_symmetry_group_IT_number 67
_symmetry_cell_setting 'orthorhombic'
loop_
_space_group_symop_operation_xyz
x,y,z
-x,1/2-y,z
x,-y,-z
-x,1/2+y,-z
-x,-y,-z
x,1/2+y,-z
-x,y,z
x,1/2-y,z
1/2+x,1/2+y,z
1/2-x,-y,z
1/2+x,1/2-y,-z
1/2-x,y,-z
1/2-x,1/2-y,-z
1/2+x,y,-z
1/2-x,1/2+y,z
1/2+x,-y,z
loop_
_atom_site_type_symbol
_atom_site_label
_atom_site_fract_x
_atom_site_fract_y
_atom_site_fract_z
Si Si1 0.315987 0.080974 0.462711
Si Si2 0.606460 0.168062 0.724665
Si Si3 0.424632 0.663740 0.450573
Si Si4 0.763623 0.666560 0.825219
Si Si5 0.073849 0.979940 0.796446
Si Si6 0.314650 0.961430 0.082924
Si Si7 0.191342 0.440878 0.717970
O O1 0.250000 0.113638 0.500000
O O2 0.379938 0.123438 0.488770
O O3 0.309389 0.081549 0.371085
O O4 0.320866 0.000000 0.500000
O O5 0.579705 0.250000 0.735138
O O6 0.605359 0.152219 0.634257
O O7 0.678144 0.167155 0.762177
O O8 0.570190 0.102731 0.766391
O O9 0.500000 0.639027 0.449996
O O10 0.424098 0.750000 0.464761
O O11 0.746693 0.750000 0.843956
O O12 0.793543 0.622239 0.898671
O O13 0.707170 0.622413 0.780042
O O14 0.118312 0.977090 0.872921
O O15 0.000000 0.008287 0.805053
O O16 0.121492 0.023367 0.738616
O O17 0.250000 0.000000 0.116883
O O18 0.320392 0.000000 0.000000
O O19 0.250000 0.500000 0.722915
#
# Coordination Sequence:
#
# PCOD9501866 Si02
#       7
#    16  16  16  16  16  16  16
#     4  11  22  33  52  76 106 145 190 241 291 325
#     4   9  17  31  53  81 112 144 184 235 286 330
#     4  10  21  36  51  72 108 150 188 230 284 341
#     4  10  19  34  60  89 110 139 185 232 275 324
#     4  11  21  33  55  84 111 146 184 219 271 334
#     4  10  19  37  62  83 115 146 171 217 271 323
#     4  12  19  37  57  76 112 146 190 239 278 326
#
# _framework density 17.127514000000001
#
# number of rings (size 3 to 8) (size 9 to 14) (size 15 to 20)
#    0.000    1.571    5.714    2.143    0.000    2.857 
#    0.000    1.429    0.000    0.429    0.000    0.000 
#    0.000    0.000    0.000    0.000    0.000    0.000 
#
# Total GULP energy -311797.896010 kJ/mol
# GULP energy per Si atom -5567.819572 kJ/mol
# Density = 1.708853 g / cm^3
# Si number density = 17.127514 Si / 1000 Ang^3
#
#
#
# Elastic Constant Matrix: (Units=GPa)
#
#
# Indices 1 2 3 4 5 6 
#
# 1 101.3396 35.4675 31.8110 0.0000 0.0000 0.0000
# 2 35.4675 72.0606 46.7638 0.0000 0.0000 0.0000
# 3 31.8110 46.7638 123.7849 0.0000 0.0000 0.0000
# 4 0.0000 0.0000 0.0000 22.0041 0.0000 0.0000
# 5 0.0000 0.0000 0.0000 0.0000 5.2113 0.0000
# 6 0.0000 0.0000 0.0000 0.0000 0.0000 16.5415
#
#
#
# Elastic Compliance Matrix: (Units=1/GPa)
#
#
# Indices 1 2 3 4 5 6 
#
# 1 0.012040 -0.005191 -0.001133 0.000000 0.000000 0.000000
# 2 -0.005191 0.020622 -0.006457 0.000000 0.000000 0.000000
# 3 -0.001133 -0.006457 0.010809 0.000000 0.000000 0.000000
# 4 0.000000 0.000000 0.000000 0.045446 0.000000 0.000000
# 5 0.000000 0.000000 0.000000 0.000000 0.191892 0.000000
# 6 0.000000 0.000000 0.000000 0.000000 0.000000 0.060454
#
#
# Mechanical properties :
#
#
# Convention : Reuss Voigt Hill
#
# Bulk Modulus (GPa) = 55.83458 58.36329 57.09893
# Shear Modulus (GPa) = 13.41221 20.96090 17.18655
#
# Velocity S-wave (km/s) = 2.80139 3.50210 3.17116
# Velocity P-wave (km/s) = 6.56764 7.10652 6.84239
#
# Compressibility (1/GPa) = 0.01791005
#
# Stress axis : x y z
#
# Youngs Moduli (GPa) = 83.05516 48.49162 92.51539
#
# Poissons Ratio (x) = 0.25170 0.10484
# Poissons Ratio (y) = 0.43111 0.59735
# Poissons Ratio (z) = 0.09412 0.31310
#
# Static dielectric constant tensor:
#      x y z
#    x 1.596750 0.000000 0.000000 
#    y 0.000000 1.622580 0.000000 
#    z 0.000000 0.000000 1.613070 
# 
# From -- ./inp_files/35131.got.cif
#   From: 2010.05.17/outbox.cif.g08.bks.cpg/sg67_18_cif.got.tgz:35131.got - 2010.06.03 18:28:57.
