data_PCOD9501739
_publ_section_title
;
Structure prediction by ZEFSAII (Michael W. Deem and Ramdas Pophale) SiO2 
 PCOD9501739
Probable space group: C M M A
;
_chemical_formula_sum "Si O2"
_cell_formula_units_Z 112
_cell_length_a 16.003605
_cell_length_b 29.058656
_cell_length_c 11.934164
_cell_angle_alpha 90.000000
_cell_angle_beta 90.000000
_cell_angle_gamma 90.000000
_cell_volume 5549.902442
_symmetry_space_group_name_H-M "C M M A"
_symmetry_group_IT_number 67
_symmetry_cell_setting 'orthorhombic'
loop_
_space_group_symop_operation_xyz
x,y,z
-x,1/2-y,z
x,-y,-z
-x,1/2+y,-z
-x,-y,-z
x,1/2+y,-z
-x,y,z
x,1/2-y,z
1/2+x,1/2+y,z
1/2-x,-y,z
1/2+x,1/2-y,-z
1/2-x,y,-z
1/2-x,1/2-y,-z
1/2+x,y,-z
1/2-x,1/2+y,z
1/2+x,-y,z
loop_
_atom_site_type_symbol
_atom_site_label
_atom_site_fract_x
_atom_site_fract_y
_atom_site_fract_z
Si Si1 0.397926 0.528852 0.335966
Si Si2 0.347946 0.698104 0.026380
Si Si3 0.600279 0.803869 0.277655
Si Si4 0.398504 0.542236 0.077940
Si Si5 0.843506 0.879480 0.541534
Si Si6 0.900629 0.386528 0.902928
Si Si7 0.402063 0.074368 0.330251
O O1 0.500000 0.533313 0.351983
O O2 0.375404 0.535140 0.205526
O O3 0.355297 0.571318 0.397815
O O4 0.371174 0.476592 0.365806
O O5 0.381170 0.750000 0.020417
O O6 0.365210 0.682664 0.154530
O O7 0.250000 0.698422 0.000000
O O8 0.387149 0.666201 0.931564
O O9 0.500000 0.806300 0.271270
O O10 0.623620 0.750000 0.298923
O O11 0.628949 0.839045 0.374418
O O12 0.500000 0.543359 0.080336
O O13 0.373404 0.500000 0.000000
O O14 0.367193 0.586693 0.011988
O O15 0.750000 0.871935 0.500000
O O16 0.893863 0.887656 0.426397
O O17 0.865538 0.406778 0.786921
O O18 0.000000 0.394661 0.899078
O O19 0.500000 0.065892 0.310672
#
# Coordination Sequence:
#
# PCOD9501739 Si02
#       7
#    16  16  16  16  16  16  16
#     4  10  19  35  60  85 118 161 209 258 303 369
#     4  10  22  39  64  94 127 159 193 248 318 390
#     4  10  22  44  71  95 120 158 215 268 309 375
#     4   9  15  29  55  88 115 144 194 249 304 360
#     4  12  26  39  59  87 121 168 210 264 313 364
#     4  10  19  33  58  87 121 158 196 251 308 373
#     4  10  21  37  57  84 120 162 208 255 301 366
#
# _framework density 20.180536
#
# number of rings (size 3 to 8) (size 9 to 14) (size 15 to 20)
#    0.000    1.857    1.429    3.000    2.000    4.571 
#    0.000    0.714    0.000    1.286    0.000    0.000 
#    0.000    0.000    0.000    0.000    0.000    0.000 
#
# Total GULP energy -312414.867909 kJ/mol
# GULP energy per Si atom -5578.836927 kJ/mol
# Density = 2.013460 g / cm^3
# Si number density = 20.180536 Si / 1000 Ang^3
#
#
#
# Elastic Constant Matrix: (Units=GPa)
#
#
# Indices 1 2 3 4 5 6 
#
# 1 33.5786 20.0632 23.8042 0.0000 0.0000 0.0000
# 2 20.0632 113.8359 72.0871 0.0000 0.0000 0.0000
# 3 23.8042 72.0871 108.5486 0.0000 0.0000 0.0000
# 4 0.0000 0.0000 0.0000 17.4803 0.0000 0.0000
# 5 0.0000 0.0000 0.0000 0.0000 37.2181 0.0000
# 6 0.0000 0.0000 0.0000 0.0000 0.0000 30.6583
#
#
#
# Elastic Compliance Matrix: (Units=1/GPa)
#
#
# Indices 1 2 3 4 5 6 
#
# 1 0.035608 -0.002297 -0.006283 0.000000 0.000000 0.000000
# 2 -0.002297 0.015308 -0.009662 0.000000 0.000000 0.000000
# 3 -0.006283 -0.009662 0.017007 0.000000 0.000000 0.000000
# 4 0.000000 0.000000 0.000000 0.057207 0.000000 0.000000
# 5 0.000000 0.000000 0.000000 0.000000 0.026869 0.000000
# 6 0.000000 0.000000 0.000000 0.000000 0.000000 0.032618
#
#
# Mechanical properties :
#
#
# Convention : Reuss Voigt Hill
#
# Bulk Modulus (GPa) = 31.80882 54.20799 43.00840
# Shear Modulus (GPa) = 21.59074 26.40525 23.99799
#
# Velocity S-wave (km/s) = 3.27445 3.62118 3.45217
# Velocity P-wave (km/s) = 5.48565 6.66361 6.10312
#
# Compressibility (1/GPa) = 0.03143782
#
# Stress axis : x y z
#
# Youngs Moduli (GPa) = 28.08395 65.32449 58.79857
#
# Poissons Ratio (x) = 0.15004 0.36945
# Poissons Ratio (y) = 0.06450 0.56814
# Poissons Ratio (z) = 0.17646 0.63120
#
# Static dielectric constant tensor:
#      x y z
#    x 1.788660 0.000000 0.000000 
#    y 0.000000 1.750500 0.000000 
#    z 0.000000 0.000000 1.738500 
# 
# From -- ./inp_files/18565.got.cif
#   From: 2010.05.17/outbox.cif.g08.bks.cpg/sg67_10_cif.got.tgz:18565.got - 2010.06.03 18:28:57.
