data_PCOD9501507
_publ_section_title
;
Structure prediction by ZEFSAII (Michael W. Deem and Ramdas Pophale) SiO2 
 PCOD9501507
Probable space group: C M M A
;
_chemical_formula_sum "Si O2"
_cell_formula_units_Z 116
_cell_length_a 8.688303
_cell_length_b 29.909904
_cell_length_c 22.408475
_cell_angle_alpha 90.000000
_cell_angle_beta 90.000000
_cell_angle_gamma 90.000000
_cell_volume 5823.207681
_symmetry_space_group_name_H-M "C M M A"
_symmetry_group_IT_number 67
_symmetry_cell_setting 'orthorhombic'
loop_
_space_group_symop_operation_xyz
x,y,z
-x,1/2-y,z
x,-y,-z
-x,1/2+y,-z
-x,-y,-z
x,1/2+y,-z
-x,y,z
x,1/2-y,z
1/2+x,1/2+y,z
1/2-x,-y,z
1/2+x,1/2-y,-z
1/2-x,y,-z
1/2-x,1/2-y,-z
1/2+x,y,-z
1/2-x,1/2+y,z
1/2+x,-y,z
loop_
_atom_site_type_symbol
_atom_site_label
_atom_site_fract_x
_atom_site_fract_y
_atom_site_fract_z
Si Si1 0.677052 0.829902 0.443064
Si Si2 0.684963 0.924598 0.592057
Si Si3 0.750000 0.500000 0.500000
Si Si4 0.819993 0.451064 0.939564
Si Si5 0.179173 0.890417 0.278327
Si Si6 0.682231 0.383006 0.849759
Si Si7 0.814550 0.198423 0.065664
Si Si8 0.677918 0.799512 0.312051
O O1 0.500000 0.842352 0.454127
O O2 0.750000 0.806801 0.500000
O O3 0.772389 0.875405 0.431725
O O4 0.680042 0.800830 0.383653
O O5 0.500000 0.933223 0.585293
O O6 0.775146 0.961176 0.552269
O O7 0.721904 0.920183 0.663192
O O8 0.750000 0.500000 0.931332
O O9 0.774096 0.419647 0.886315
O O10 0.000000 0.455302 0.946657
O O11 0.750000 0.431338 0.000000
O O12 0.278807 0.893207 0.218778
O O13 0.206607 0.838487 0.294783
O O14 0.000000 0.898954 0.265917
O O15 0.500000 0.387751 0.858963
O O16 0.727211 0.335240 0.880146
O O17 0.765897 0.250000 0.077009
O O18 0.000000 0.197862 0.061418
O O19 0.750000 0.185369 0.000000
O O20 0.500000 0.810412 0.293855
O O21 0.714274 0.750000 0.289687
#
# Coordination Sequence:
#
# PCOD9501507 Si02
#       8
#    16  16   4  16  16  16  16  16
#     4  10  19  32  53  78 109 142 173 217 275 334
#     4  10  22  39  58  84 114 143 181 232 287 349
#     4  12  22  36  68  94 108 140 184 232 294 372
#     4  11  22  39  63  92 124 158 201 255 307 362
#     4  10  22  40  58  81 118 155 192 245 300 351
#     4  11  22  38  61  88 120 165 211 251 305 367
#     4   9  19  35  56  86 124 163 206 255 302 351
#     4   9  19  36  56  78 106 145 190 232 278 339
#
# _framework density 19.920293000000001
#
# number of rings (size 3 to 8) (size 9 to 14) (size 15 to 20)
#    0.000    1.931    0.690    3.517    0.000    4.966 
#    1.241    1.379    0.000    0.000    0.000    0.000 
#    0.000    0.000    0.000    0.000    0.000    0.000 
#
# Total GULP energy -322988.655616 kJ/mol
# GULP energy per Si atom -5568.769924 kJ/mol
# Density = 1.987495 g / cm^3
# Si number density = 19.920293 Si / 1000 Ang^3
#
#
#
# Elastic Constant Matrix: (Units=GPa)
#
#
# Indices 1 2 3 4 5 6 
#
# 1 51.3242 4.0121 19.8772 0.0000 0.0000 0.0000
# 2 4.0121 63.2674 16.6243 0.0000 0.0000 0.0000
# 3 19.8772 16.6243 78.8375 0.0000 0.0000 0.0000
# 4 0.0000 0.0000 0.0000 -17.3851 0.0000 0.0000
# 5 0.0000 0.0000 0.0000 0.0000 32.0589 0.0000
# 6 0.0000 0.0000 0.0000 0.0000 0.0000 13.7559
#
#
#
# Elastic Compliance Matrix: (Units=1/GPa)
#
#
# Indices 1 2 3 4 5 6 
#
# 1 0.021593 0.000065 -0.005458 0.000000 0.000000 0.000000
# 2 0.000065 0.016733 -0.003545 0.000000 0.000000 0.000000
# 3 -0.005458 -0.003545 0.014808 0.000000 0.000000 0.000000
# 4 0.000000 0.000000 0.000000 -0.057520 0.000000 0.000000
# 5 0.000000 0.000000 0.000000 0.000000 0.031193 0.000000
# 6 0.000000 0.000000 0.000000 0.000000 0.000000 0.072696
#
#
# Mechanical properties :
#
#
# Convention : Reuss Voigt Hill
#
# Bulk Modulus (GPa) = 28.36226 30.49516 29.42871
# Shear Modulus (GPa) = 38.72055 15.88031 27.30043
#
# Velocity S-wave (km/s) = 4.41361 2.82652 3.70602
# Velocity P-wave (km/s) = 6.34366 5.09844 5.75483
#
# Compressibility (1/GPa) = 0.03525812
#
# Stress axis : x y z
#
# Youngs Moduli (GPa) = 46.31208 59.76118 67.53157
#
# Poissons Ratio (x) = -0.00387 0.36857
# Poissons Ratio (y) = -0.00300 0.23939
# Poissons Ratio (z) = 0.25276 0.21185
#
# Static dielectric constant tensor:
#      x y z
#    x 1.705870 0.000000 0.000000 
#    y 0.000000 1.701550 0.000000 
#    z 0.000000 0.000000 1.657350 
# 
# From -- ./inp_files/41239.got.cif
#   From: 2010.05.17/outbox.cif.g08.bks.cpg/sg67_21_cif.got.tgz:41239.got - 2010.06.03 18:28:57.
