data_PCOD9501770
_publ_section_title
;
Structure prediction by ZEFSAII (Michael W. Deem and Ramdas Pophale) SiO2 
 PCOD9501770
Probable space group: C M M A
;
_chemical_formula_sum "Si O2"
_cell_formula_units_Z 96
_cell_length_a 24.696810
_cell_length_b 18.759140
_cell_length_c 12.020228
_cell_angle_alpha 90.000000
_cell_angle_beta 90.000000
_cell_angle_gamma 90.000000
_cell_volume 5568.862445
_symmetry_space_group_name_H-M "C M M A"
_symmetry_group_IT_number 67
_symmetry_cell_setting 'orthorhombic'
loop_
_space_group_symop_operation_xyz
x,y,z
-x,1/2-y,z
x,-y,-z
-x,1/2+y,-z
-x,-y,-z
x,1/2+y,-z
-x,y,z
x,1/2-y,z
1/2+x,1/2+y,z
1/2-x,-y,z
1/2+x,1/2-y,-z
1/2-x,y,-z
1/2-x,1/2-y,-z
1/2+x,y,-z
1/2-x,1/2+y,z
1/2+x,-y,z
loop_
_atom_site_type_symbol
_atom_site_label
_atom_site_fract_x
_atom_site_fract_y
_atom_site_fract_z
Si Si1 0.065797 0.668884 0.422856
Si Si2 0.563903 0.890017 0.336273
Si Si3 0.738871 0.169536 0.133171
Si Si4 0.359678 0.165975 0.856540
Si Si5 0.649722 0.568025 0.934017
Si Si6 0.436181 0.047241 0.251786
O O1 0.084564 0.750000 0.407290
O O2 0.081685 0.638638 0.543537
O O3 0.081382 0.614922 0.325249
O O4 0.000000 0.669495 0.422668
O O5 0.500000 0.873246 0.323022
O O6 0.598346 0.854973 0.238214
O O7 0.569670 0.975155 0.323524
O O8 0.722729 0.250000 0.167665
O O9 0.797695 0.150842 0.182002
O O10 0.693275 0.109634 0.141736
O O11 0.750000 0.172565 0.000000
O O12 0.362110 0.250000 0.880283
O O13 0.369246 0.122406 0.969764
O O14 0.600370 0.542833 0.857581
O O15 0.673411 0.500000 0.000000
O O16 0.500000 0.054186 0.224146
#
# Coordination Sequence:
#
# PCOD9501770 Si02
#       6
#    16  16  16  16  16  16
#     4   9  18  33  54  77 100 136 184 221 254 308
#     4  10  19  34  54  78 108 140 176 219 265 310
#     4   8  17  33  51  71 101 135 173 219 260 304
#     4  10  20  34  52  78 107 137 176 221 267 309
#     4  11  20  33  51  78 103 141 178 213 255 318
#     4  10  21  35  51  75 110 143 171 213 265 314
#
# _framework density 17.238709
#
# number of rings (size 3 to 8) (size 9 to 14) (size 15 to 20)
#    0.000    2.333    1.667    2.500    0.000    8.333 
#    0.000    0.000    0.000    1.000    0.000    5.833 
#    0.000    0.000    0.000    0.000    0.000    0.000 
#
# Total GULP energy -267544.207841 kJ/mol
# GULP energy per Si atom -5573.837663 kJ/mol
# Density = 1.719947 g / cm^3
# Si number density = 17.238709 Si / 1000 Ang^3
#
#
#
# Elastic Constant Matrix: (Units=GPa)
#
#
# Indices 1 2 3 4 5 6 
#
# 1 49.7924 30.2317 15.5245 0.0000 0.0000 0.0000
# 2 30.2317 89.5609 18.7889 0.0000 0.0000 0.0000
# 3 15.5245 18.7889 36.1734 0.0000 0.0000 0.0000
# 4 0.0000 0.0000 0.0000 26.1053 0.0000 0.0000
# 5 0.0000 0.0000 0.0000 0.0000 2.2376 0.0000
# 6 0.0000 0.0000 0.0000 0.0000 0.0000 24.6715
#
#
#
# Elastic Compliance Matrix: (Units=1/GPa)
#
#
# Indices 1 2 3 4 5 6 
#
# 1 0.027048 -0.007514 -0.007705 0.000000 0.000000 0.000000
# 2 -0.007514 0.014618 -0.004368 0.000000 0.000000 0.000000
# 3 -0.007705 -0.004368 0.033221 0.000000 0.000000 0.000000
# 4 0.000000 0.000000 0.000000 0.038306 0.000000 0.000000
# 5 0.000000 0.000000 0.000000 0.000000 0.446911 0.000000
# 6 0.000000 0.000000 0.000000 0.000000 0.000000 0.040533
#
#
# Mechanical properties :
#
#
# Convention : Reuss Voigt Hill
#
# Bulk Modulus (GPa) = 28.00186 33.84632 30.92409
# Shear Modulus (GPa) = 7.67207 18.00165 12.83686
#
# Velocity S-wave (km/s) = 2.11191 3.23500 2.73179
# Velocity P-wave (km/s) = 4.71442 5.79915 5.28469
#
# Compressibility (1/GPa) = 0.03571191
#
# Stress axis : x y z
#
# Youngs Moduli (GPa) = 36.97172 68.40764 30.10188
#
# Poissons Ratio (x) = 0.51399 0.23195
# Poissons Ratio (y) = 0.27779 0.13149
# Poissons Ratio (z) = 0.28488 0.29883
#
# Static dielectric constant tensor:
#      x y z
#    x 1.596470 0.000000 0.000000 
#    y 0.000000 1.618480 0.000000 
#    z 0.000000 0.000000 1.548120 
# 
# From -- ./inp_files/19795.got.cif
#   From: 2010.05.17/outbox.cif.g08.bks.cpg/sg67_10_cif.got.tgz:19795.got - 2010.06.03 18:28:57.
