data_PCOD9501393
_publ_section_title
;
Structure prediction by ZEFSAII (Michael W. Deem and Ramdas Pophale) SiO2 
 PCOD9501393
Probable space group: C M M A
;
_chemical_formula_sum "Si O2"
_cell_formula_units_Z 112
_cell_length_a 17.739607
_cell_length_b 14.923789
_cell_length_c 18.602307
_cell_angle_alpha 90.000000
_cell_angle_beta 90.000000
_cell_angle_gamma 90.000000
_cell_volume 4924.814784
_symmetry_space_group_name_H-M "C M M A"
_symmetry_group_IT_number 67
_symmetry_cell_setting 'orthorhombic'
loop_
_space_group_symop_operation_xyz
x,y,z
-x,1/2-y,z
x,-y,-z
-x,1/2+y,-z
-x,-y,-z
x,1/2+y,-z
-x,y,z
x,1/2-y,z
1/2+x,1/2+y,z
1/2-x,-y,z
1/2+x,1/2-y,-z
1/2-x,y,-z
1/2-x,1/2-y,-z
1/2+x,y,-z
1/2-x,1/2+y,z
1/2+x,-y,z
loop_
_atom_site_type_symbol
_atom_site_label
_atom_site_fract_x
_atom_site_fract_y
_atom_site_fract_z
Si Si1 0.823485 0.642055 0.098521
Si Si2 0.834834 0.890519 0.508817
Si Si3 0.623741 0.648541 0.205900
Si Si4 0.079640 0.090281 0.357754
Si Si5 0.585790 0.877189 0.634392
Si Si6 0.787999 0.095849 0.750218
Si Si7 0.648440 0.641894 0.053979
O O1 0.834534 0.750000 0.109244
O O2 0.833062 0.591219 0.173835
O O3 0.736684 0.628230 0.073603
O O4 0.868156 0.610786 0.027029
O O5 0.750000 0.860769 0.500000
O O6 0.858777 0.869278 0.589938
O O7 0.887233 0.852235 0.445686
O O8 0.836141 0.000000 0.500000
O O9 0.596697 0.750000 0.204435
O O10 0.587844 0.602146 0.273583
O O11 0.713159 0.649781 0.226347
O O12 0.609276 0.608909 0.126808
O O13 0.000000 0.127642 0.382578
O O14 0.080613 0.984505 0.368459
O O15 0.500000 0.846477 0.651800
O O16 0.654549 0.863521 0.691545
O O17 0.750000 0.000000 0.727817
O O18 0.638680 0.750000 0.051582
#
# Coordination Sequence:
#
# PCOD9501393 Si02
#       7
#    16  16  16  16  16  16  16
#     4   8  14  27  47  71 100 132 168 216 267 311
#     4   9  17  29  52  78 102 131 170 216 256 298
#     4  10  19  32  52  77 106 138 171 217 270 315
#     4  10  19  32  50  75 106 138 174 212 255 311
#     4  10  20  33  50  74 108 142 170 208 259 310
#     4  11  19  30  51  77 105 134 177 223 260 304
#     4   7  12  25  45  69  99 132 167 210 263 316
#
# _framework density 22.741973000000002
#
# number of rings (size 3 to 8) (size 9 to 14) (size 15 to 20)
#    0.000    2.714    1.429    3.429    2.000    2.000 
#    0.000    5.714    0.000    7.286    0.000    4.000 
#    0.000    0.000    0.000    0.000    0.000    0.000 
#
# Total GULP energy -311915.339760 kJ/mol
# GULP energy per Si atom -5569.916781 kJ/mol
# Density = 2.269021 g / cm^3
# Si number density = 22.741973 Si / 1000 Ang^3
#
#
#
# Elastic Constant Matrix: (Units=GPa)
#
#
# Indices 1 2 3 4 5 6 
#
# 1 73.7869 2.7564 33.2239 0.0000 0.0000 0.0000
# 2 2.7564 51.4753 2.7897 0.0000 0.0000 0.0000
# 3 33.2239 2.7897 136.4824 0.0000 0.0000 0.0000
# 4 0.0000 0.0000 0.0000 8.7118 0.0000 0.0000
# 5 0.0000 0.0000 0.0000 0.0000 -0.9204 0.0000
# 6 0.0000 0.0000 0.0000 0.0000 0.0000 -24.8088
#
#
#
# Elastic Compliance Matrix: (Units=1/GPa)
#
#
# Indices 1 2 3 4 5 6 
#
# 1 0.015240 -0.000616 -0.003697 0.000000 0.000000 0.000000
# 2 -0.000616 0.019473 -0.000248 0.000000 0.000000 0.000000
# 3 -0.003697 -0.000248 0.008232 0.000000 0.000000 0.000000
# 4 0.000000 0.000000 0.000000 0.114787 0.000000 0.000000
# 5 0.000000 0.000000 0.000000 0.000000 -1.086529 0.000000
# 6 0.000000 0.000000 0.000000 0.000000 0.000000 -0.040308
#
#
# Mechanical properties :
#
#
# Convention : Reuss Voigt Hill
#
# Bulk Modulus (GPa) = 29.56554 37.69830 33.63192
# Shear Modulus (GPa) = -5.27032 11.46151 3.09559
#
# Velocity S-wave (km/s) = -1.52397 2.24739 1.16796
# Velocity P-wave (km/s) = 3.15151 4.83186 4.07915
#
# Compressibility (1/GPa) = 0.03382317
#
# Stress axis : x y z
#
# Youngs Moduli (GPa) = 65.61525 51.35265 121.47605
#
# Poissons Ratio (x) = 0.03162 0.44914
# Poissons Ratio (y) = 0.04040 0.03015
# Poissons Ratio (z) = 0.24260 0.01274
#
# Static dielectric constant tensor:
#      x y z
#    x 1.867260 0.000000 0.000000 
#    y 0.000000 1.881310 0.000000 
#    z 0.000000 0.000000 1.899100 
# 
# From -- ./inp_files/34455.got.cif
#   From: 2010.05.17/outbox.cif.g08.bks.cpg/sg67_18_cif.got.tgz:34455.got - 2010.06.03 18:28:57.
