data_PCOD9501601
_publ_section_title
;
Structure prediction by ZEFSAII (Michael W. Deem and Ramdas Pophale) SiO2 
 PCOD9501601
Probable space group: C M M A
;
_chemical_formula_sum "Si O2"
_cell_formula_units_Z 96
_cell_length_a 8.579158
_cell_length_b 26.469981
_cell_length_c 24.205502
_cell_angle_alpha 90.000000
_cell_angle_beta 90.000000
_cell_angle_gamma 90.000000
_cell_volume 5496.831062
_symmetry_space_group_name_H-M "C M M A"
_symmetry_group_IT_number 67
_symmetry_cell_setting 'orthorhombic'
loop_
_space_group_symop_operation_xyz
x,y,z
-x,1/2-y,z
x,-y,-z
-x,1/2+y,-z
-x,-y,-z
x,1/2+y,-z
-x,y,z
x,1/2-y,z
1/2+x,1/2+y,z
1/2-x,-y,z
1/2+x,1/2-y,-z
1/2-x,y,-z
1/2-x,1/2-y,-z
1/2+x,y,-z
1/2-x,1/2+y,z
1/2+x,-y,z
loop_
_atom_site_type_symbol
_atom_site_label
_atom_site_fract_x
_atom_site_fract_y
_atom_site_fract_z
Si Si1 0.311597 0.750000 0.368463
Si Si2 0.811382 0.849327 0.176009
Si Si3 0.687792 0.808842 0.940902
Si Si4 0.688133 0.250000 0.244299
Si Si5 0.686665 0.555052 0.241135
Si Si6 0.188527 0.348166 0.438039
Si Si7 0.687937 0.445189 0.631065
O O1 0.500000 0.750000 0.365912
O O2 0.248447 0.750000 0.306549
O O3 0.262039 0.700124 0.401878
O O4 0.761236 0.839976 0.112746
O O5 0.761672 0.800444 0.211800
O O6 0.748151 0.900100 0.203115
O O7 0.000000 0.850731 0.176824
O O8 0.500000 0.809418 0.942246
O O9 0.736061 0.750000 0.933811
O O10 0.750000 0.826659 0.000000
O O11 0.500000 0.250000 0.244600
O O12 0.500000 0.554295 0.239824
O O13 0.750000 0.500000 0.224811
O O14 0.736376 0.563833 0.305148
O O15 0.250000 0.344805 0.500000
O O16 0.240708 0.399605 0.407896
O O17 0.000000 0.348242 0.439376
O O18 0.500000 0.446428 0.630121
O O19 0.750000 0.500000 0.613975
#
# Coordination Sequence:
#
# PCOD9501601 Si02
#       7
#     8  16  16   8  16  16  16
#     4  10  21  37  53  71 101 134 166 210 257 300
#     4  10  19  33  52  77 110 142 173 213 259 306
#     4   9  17  31  50  73 106 144 178 213 254 300
#     4  10  20  33  52  79 108 138 171 208 257 312
#     4  10  20  35  55  78 104 137 175 214 259 311
#     4  10  21  36  53  73  98 129 165 206 251 301
#     4   9  19  35  53  74 100 128 161 205 255 303
#
# _framework density 17.464607999999998
#
# number of rings (size 3 to 8) (size 9 to 14) (size 15 to 20)
#    0.000    2.333    0.833    1.750    0.000    5.000 
#    0.000    1.667    0.000    0.500    0.000    3.500 
#    0.000    0.000    0.000    0.000    0.000    0.000 
#
# Total GULP energy -267885.482601 kJ/mol
# GULP energy per Si atom -5580.947554 kJ/mol
# Density = 1.742486 g / cm^3
# Si number density = 17.464608 Si / 1000 Ang^3
#
#
#
# Elastic Constant Matrix: (Units=GPa)
#
#
# Indices 1 2 3 4 5 6 
#
# 1 10.3751 28.3326 27.6080 0.0000 0.0000 0.0000
# 2 28.3326 147.2744 106.5258 0.0000 0.0000 0.0000
# 3 27.6080 106.5258 162.7522 0.0000 0.0000 0.0000
# 4 0.0000 0.0000 0.0000 4.2786 0.0000 0.0000
# 5 0.0000 0.0000 0.0000 0.0000 28.0355 0.0000
# 6 0.0000 0.0000 0.0000 0.0000 0.0000 26.4877
#
#
#
# Elastic Compliance Matrix: (Units=1/GPa)
#
#
# Indices 1 2 3 4 5 6 
#
# 1 0.230743 -0.030535 -0.019156 0.000000 0.000000 0.000000
# 2 -0.030535 0.016936 -0.005905 0.000000 0.000000 0.000000
# 3 -0.019156 -0.005905 0.013259 0.000000 0.000000 0.000000
# 4 0.000000 0.000000 0.000000 0.233719 0.000000 0.000000
# 5 0.000000 0.000000 0.000000 0.000000 0.035669 0.000000
# 6 0.000000 0.000000 0.000000 0.000000 0.000000 0.037753
#
#
# Mechanical properties :
#
#
# Convention : Reuss Voigt Hill
#
# Bulk Modulus (GPa) = 6.67797 71.70383 39.19090
# Shear Modulus (GPa) = 6.85698 22.28939 14.57318
#
# Velocity S-wave (km/s) = 1.98362 3.57635 2.89180
# Velocity P-wave (km/s) = 3.01303 7.62886 5.79991
#
# Compressibility (1/GPa) = 0.14974614
#
# Stress axis : x y z
#
# Youngs Moduli (GPa) = 4.33383 59.04733 75.42171
#
# Poissons Ratio (x) = 1.80299 1.44475
# Poissons Ratio (y) = 0.13233 0.44537
# Poissons Ratio (z) = 0.08302 0.34868
#
# Static dielectric constant tensor:
#      x y z
#    x 1.601150 0.000000 0.000000 
#    y 0.000000 1.572890 0.000000 
#    z 0.000000 0.000000 1.576860 
# 
# From -- ./inp_files/40861.got.cif
#   From: 2010.05.17/outbox.cif.g08.bks.cpg/sg67_21_cif.got.tgz:40861.got - 2010.06.03 18:28:57.
