data_PCOD9501335
_publ_section_title
;
Structure prediction by ZEFSAII (Michael W. Deem and Ramdas Pophale) SiO2 
 PCOD9501335
Probable space group: C M M A
;
_chemical_formula_sum "Si O2"
_cell_formula_units_Z 112
_cell_length_a 25.420485
_cell_length_b 14.398027
_cell_length_c 14.001143
_cell_angle_alpha 90.000000
_cell_angle_beta 90.000000
_cell_angle_gamma 90.000000
_cell_volume 5124.485955
_symmetry_space_group_name_H-M "C M M A"
_symmetry_group_IT_number 67
_symmetry_cell_setting 'orthorhombic'
loop_
_space_group_symop_operation_xyz
x,y,z
-x,1/2-y,z
x,-y,-z
-x,1/2+y,-z
-x,-y,-z
x,1/2+y,-z
-x,y,z
x,1/2-y,z
1/2+x,1/2+y,z
1/2-x,-y,z
1/2+x,1/2-y,-z
1/2-x,y,-z
1/2-x,1/2-y,-z
1/2+x,y,-z
1/2-x,1/2+y,z
1/2+x,-y,z
loop_
_atom_site_type_symbol
_atom_site_label
_atom_site_fract_x
_atom_site_fract_y
_atom_site_fract_z
Si Si1 0.663577 0.898020 0.030234
Si Si2 0.559232 0.137182 0.488107
Si Si3 0.664772 0.854376 0.817141
Si Si4 0.440371 0.137246 0.858553
Si Si5 0.878569 0.136529 0.331461
Si Si6 0.941644 0.636381 0.266870
Si Si7 0.276822 0.639981 0.225219
O O1 0.603525 0.896255 0.067103
O O2 0.698201 0.865958 0.119323
O O3 0.669252 0.846034 0.930754
O O4 0.680034 0.000000 0.000000
O O5 0.500000 0.109715 0.517029
O O6 0.560375 0.250000 0.489562
O O7 0.600793 0.104143 0.566157
O O8 0.567109 0.111674 0.377877
O O9 0.662740 0.750000 0.776218
O O10 0.608595 0.898346 0.791984
O O11 0.717981 0.900538 0.777818
O O12 0.500000 0.106561 0.875957
O O13 0.439444 0.250000 0.864095
O O14 0.420003 0.112886 0.752280
O O15 0.876784 0.250000 0.333380
O O16 0.821101 0.103705 0.297761
O O17 0.943565 0.750000 0.260052
O O18 0.000000 0.604051 0.237356
O O19 0.271388 0.750000 0.245453
#
# Coordination Sequence:
#
# PCOD9501335 Si02
#       7
#    16  16  16  16  16  16  16
#     4  11  22  33  47  68  93 121 156 199 241 280
#     4   8  12  20  38  65  95 122 147 180 223 271
#     4  10  19  32  49  66  89 124 159 192 233 279
#     4   9  17  30  48  70  96 126 160 194 230 277
#     4   8  13  23  41  66  94 121 148 184 231 274
#     4   8  15  27  43  66  94 122 153 184 218 272
#     4   9  18  32  48  67  91 119 156 198 236 281
#
# _framework density 21.855851000000001
#
# number of rings (size 3 to 8) (size 9 to 14) (size 15 to 20)
#    0.000    3.000    0.000    3.857    0.000    4.857 
#    0.000    2.143    0.000    4.286    0.000    4.000 
#    0.000   14.857    0.000    0.000    0.000    0.000 
#
# Total GULP energy -312529.988111 kJ/mol
# GULP energy per Si atom -5580.892645 kJ/mol
# Density = 2.180611 g / cm^3
# Si number density = 21.855851 Si / 1000 Ang^3
#
#
#
# Elastic Constant Matrix: (Units=GPa)
#
#
# Indices 1 2 3 4 5 6 
#
# 1 179.0706 0.2230 46.6608 0.0000 0.0000 0.0000
# 2 0.2230 51.1250 -1.3092 0.0000 0.0000 0.0000
# 3 46.6608 -1.3092 47.2725 0.0000 0.0000 0.0000
# 4 0.0000 0.0000 0.0000 -2.4494 0.0000 0.0000
# 5 0.0000 0.0000 0.0000 0.0000 14.4065 0.0000
# 6 0.0000 0.0000 0.0000 0.0000 0.0000 0.3095
#
#
#
# Elastic Compliance Matrix: (Units=1/GPa)
#
#
# Indices 1 2 3 4 5 6 
#
# 1 0.007521 -0.000223 -0.007429 0.000000 0.000000 0.000000
# 2 -0.000223 0.019580 0.000762 0.000000 0.000000 0.000000
# 3 -0.007429 0.000762 0.028508 0.000000 0.000000 0.000000
# 4 0.000000 0.000000 0.000000 -0.408271 0.000000 0.000000
# 5 0.000000 0.000000 0.000000 0.000000 0.069413 0.000000
# 6 0.000000 0.000000 0.000000 0.000000 0.000000 3.231120
#
#
# Mechanical properties :
#
#
# Convention : Reuss Voigt Hill
#
# Bulk Modulus (GPa) = 23.90672 40.95748 32.43210
# Shear Modulus (GPa) = 1.68034 17.91290 9.79662
#
# Velocity S-wave (km/s) = 0.87778 2.86596 2.11946
# Velocity P-wave (km/s) = 3.46258 5.45272 4.56736
#
# Compressibility (1/GPa) = 0.04182924
#
# Stress axis : x y z
#
# Youngs Moduli (GPa) = 132.96861 51.07148 35.07746
#
# Poissons Ratio (x) = 0.01139 0.26061
# Poissons Ratio (y) = 0.02966 -0.02675
# Poissons Ratio (z) = 0.98788 -0.03894
#
# Static dielectric constant tensor:
#      x y z
#    x 1.821870 0.000000 0.000000 
#    y 0.000000 24.228080 0.000000 
#    z 0.000000 0.000000 1.748550 
# 
# From -- ./inp_files/30179.got.cif
#   From: 2010.05.17/outbox.cif.g08.bks.cpg/sg67_16_cif.got.tgz:30179.got - 2010.06.03 18:28:57.
