data_PCOD9501568
_publ_section_title
;
Structure prediction by ZEFSAII (Michael W. Deem and Ramdas Pophale) SiO2 
 PCOD9501568
Probable space group: C M M A
;
_chemical_formula_sum "Si O2"
_cell_formula_units_Z 104
_cell_length_a 8.797229
_cell_length_b 28.296880
_cell_length_c 23.844702
_cell_angle_alpha 90.000000
_cell_angle_beta 90.000000
_cell_angle_gamma 90.000000
_cell_volume 5935.760227
_symmetry_space_group_name_H-M "C M M A"
_symmetry_group_IT_number 67
_symmetry_cell_setting 'orthorhombic'
loop_
_space_group_symop_operation_xyz
x,y,z
-x,1/2-y,z
x,-y,-z
-x,1/2+y,-z
-x,-y,-z
x,1/2+y,-z
-x,y,z
x,1/2-y,z
1/2+x,1/2+y,z
1/2-x,-y,z
1/2+x,1/2-y,-z
1/2-x,y,-z
1/2-x,1/2-y,-z
1/2+x,y,-z
1/2-x,1/2+y,z
1/2+x,-y,z
loop_
_atom_site_type_symbol
_atom_site_label
_atom_site_fract_x
_atom_site_fract_y
_atom_site_fract_z
Si Si1 0.815724 0.694539 0.261761
Si Si2 0.818470 0.050093 0.437658
Si Si3 0.173147 0.622671 0.354840
Si Si4 0.317516 0.146315 0.062471
Si Si5 0.181844 0.250000 0.938237
Si Si6 0.172666 0.451846 0.746211
Si Si7 0.679563 0.119985 0.826410
O O1 0.774589 0.750000 0.258769
O O2 0.772206 0.669500 0.321166
O O3 0.748764 0.663125 0.210994
O O4 0.000000 0.691110 0.258094
O O5 0.750000 0.055052 0.500000
O O6 0.770565 0.096152 0.401950
O O7 0.000000 0.045717 0.439471
O O8 0.750000 0.000000 0.415306
O O9 0.166556 0.584125 0.305308
O O10 0.000000 0.630878 0.375287
O O11 0.500000 0.143046 0.059264
O O12 0.273474 0.199270 0.084674
O O13 0.250290 0.115172 0.111743
O O14 0.250000 0.139840 0.000000
O O15 0.000000 0.250000 0.940814
O O16 0.250000 0.250000 0.000000
O O17 0.250000 0.500000 0.728402
O O18 0.274168 0.426776 0.792863
O O19 0.000000 0.459119 0.766082
O O20 0.500000 0.126196 0.829984
#
# Coordination Sequence:
#
# PCOD9501568 Si02
#       7
#    16  16  16  16   8  16  16
#     4   9  19  36  56  76 102 138 176 216 262 308
#     4  11  21  33  51  76 108 142 175 213 257 306
#     4   9  18  33  53  78 106 136 172 210 255 308
#     4  10  19  33  50  71  98 132 169 209 256 309
#     4   8  16  28  44  64  88 120 156 194 237 288
#     4  10  20  35  55  78 104 135 169 212 259 307
#     4  11  22  34  50  76 105 136 172 211 255 307
#
# _framework density 17.520924000000001
#
# number of rings (size 3 to 8) (size 9 to 14) (size 15 to 20)
#    0.000    2.154    0.000    5.538    1.077    5.231 
#    0.000    0.000    0.000    0.923    0.000    3.231 
#    0.000    0.000    0.000    0.000    0.000    0.000 
#
# Total GULP energy -289725.773514 kJ/mol
# GULP energy per Si atom -5571.649491 kJ/mol
# Density = 1.748105 g / cm^3
# Si number density = 17.520924 Si / 1000 Ang^3
#
#
#
# Elastic Constant Matrix: (Units=GPa)
#
#
# Indices 1 2 3 4 5 6 
#
# 1 83.9612 17.8243 36.7418 0.0000 0.0000 0.0000
# 2 17.8243 52.9245 12.2800 0.0000 0.0000 0.0000
# 3 36.7418 12.2800 76.2797 0.0000 0.0000 0.0000
# 4 0.0000 0.0000 0.0000 -21.4132 0.0000 0.0000
# 5 0.0000 0.0000 0.0000 0.0000 25.2117 0.0000
# 6 0.0000 0.0000 0.0000 0.0000 0.0000 19.4694
#
#
#
# Elastic Compliance Matrix: (Units=1/GPa)
#
#
# Indices 1 2 3 4 5 6 
#
# 1 0.015753 -0.003682 -0.006995 0.000000 0.000000 0.000000
# 2 -0.003682 0.020489 -0.001525 0.000000 0.000000 0.000000
# 3 -0.006995 -0.001525 0.016724 0.000000 0.000000 0.000000
# 4 0.000000 0.000000 0.000000 -0.046700 0.000000 0.000000
# 5 0.000000 0.000000 0.000000 0.000000 0.039664 0.000000
# 6 0.000000 0.000000 0.000000 0.000000 0.000000 0.051363
#
#
# Mechanical properties :
#
#
# Convention : Reuss Voigt Hill
#
# Bulk Modulus (GPa) = 35.01150 38.53974 36.77562
# Shear Modulus (GPa) = 38.10457 14.40819 26.25638
#
# Velocity S-wave (km/s) = 4.66854 2.87076 3.87534
# Velocity P-wave (km/s) = 7.00617 5.74739 6.40777
#
# Compressibility (1/GPa) = 0.02856205
#
# Stress axis : x y z
#
# Youngs Moduli (GPa) = 63.47978 48.80712 59.79291
#
# Poissons Ratio (x) = 0.17973 0.41825
# Poissons Ratio (y) = 0.23376 0.09117
# Poissons Ratio (z) = 0.44404 0.07442
#
# Static dielectric constant tensor:
#      x y z
#    x 1.598960 0.000000 0.000000 
#    y 0.000000 1.667250 0.000000 
#    z 0.000000 0.000000 1.589340 
# 
# From -- ./inp_files/41012.got.cif
#   From: 2010.05.17/outbox.cif.g08.bks.cpg/sg67_21_cif.got.tgz:41012.got - 2010.06.03 18:28:57.
