data_PCOD9501741
_publ_section_title
;
Structure prediction by ZEFSAII (Michael W. Deem and Ramdas Pophale) SiO2 
 PCOD9501741
Probable space group: C M M A
;
_chemical_formula_sum "Si O2"
_cell_formula_units_Z 72
_cell_length_a 27.693426
_cell_length_b 18.185769
_cell_length_c 7.760292
_cell_angle_alpha 90.000000
_cell_angle_beta 90.000000
_cell_angle_gamma 90.000000
_cell_volume 3908.286744
_symmetry_space_group_name_H-M "C M M A"
_symmetry_group_IT_number 67
_symmetry_cell_setting 'orthorhombic'
loop_
_space_group_symop_operation_xyz
x,y,z
-x,1/2-y,z
x,-y,-z
-x,1/2+y,-z
-x,-y,-z
x,1/2+y,-z
-x,y,z
x,1/2-y,z
1/2+x,1/2+y,z
1/2-x,-y,z
1/2+x,1/2-y,-z
1/2-x,y,-z
1/2-x,1/2-y,-z
1/2+x,y,-z
1/2-x,1/2+y,z
1/2+x,-y,z
loop_
_atom_site_type_symbol
_atom_site_label
_atom_site_fract_x
_atom_site_fract_y
_atom_site_fract_z
Si Si1 0.779148 0.090036 0.682815
Si Si2 0.180361 0.929169 0.778251
Si Si3 0.392112 0.500000 0.000000
Si Si4 0.136434 0.164979 0.533563
Si Si5 0.943268 0.557542 0.342462
O O1 0.750000 0.085651 0.500000
O O2 0.734135 0.101046 0.809901
O O3 0.819057 0.152203 0.665114
O O4 0.807439 0.013516 0.717713
O O5 0.144378 0.936122 0.937459
O O6 0.153380 0.882855 0.631559
O O7 0.423381 0.476857 0.164724
O O8 0.130463 0.250000 0.491829
O O9 0.088728 0.128118 0.610614
O O10 0.936458 0.500000 0.500000
O O11 0.000000 0.573413 0.327947
#
# Coordination Sequence:
#
# PCOD9501741 Si02
#       5
#    16  16   8  16  16
#     4   9  17  32  57  87 118 159 206 234 283 344
#     4  10  19  33  58  91 119 152 201 241 284 351
#     4  12  21  37  68  92 120 148 202 262 302 344
#     4  11  20  37  61  87 125 164 198 242 300 364
#     4  11  23  42  66  89 114 151 206 261 304 353
#
# _framework density 18.422394000000001
#
# number of rings (size 3 to 8) (size 9 to 14) (size 15 to 20)
#    0.000    1.556    4.444    5.000    0.000    6.222 
#    0.000    1.111    0.000    1.333    0.000    0.000 
#    0.000    0.000    0.000    0.000    0.000    0.000 
#
# Total GULP energy -200721.095517 kJ/mol
# GULP energy per Si atom -5575.585987 kJ/mol
# Density = 1.838046 g / cm^3
# Si number density = 18.422394 Si / 1000 Ang^3
#
#
#
# Elastic Constant Matrix: (Units=GPa)
#
#
# Indices 1 2 3 4 5 6 
#
# 1 156.2135 61.6996 67.0622 0.0000 0.0000 0.0000
# 2 61.6996 74.8213 35.1729 0.0000 0.0000 0.0000
# 3 67.0622 35.1729 109.0974 0.0000 0.0000 0.0000
# 4 0.0000 0.0000 0.0000 6.7054 0.0000 0.0000
# 5 0.0000 0.0000 0.0000 0.0000 6.7055 0.0000
# 6 0.0000 0.0000 0.0000 0.0000 0.0000 8.1226
#
#
#
# Elastic Compliance Matrix: (Units=1/GPa)
#
#
# Indices 1 2 3 4 5 6 
#
# 1 0.011150 -0.007039 -0.004584 0.000000 0.000000 0.000000
# 2 -0.007039 0.020197 -0.002184 0.000000 0.000000 0.000000
# 3 -0.004584 -0.002184 0.012688 0.000000 0.000000 0.000000
# 4 0.000000 0.000000 0.000000 0.149133 0.000000 0.000000
# 5 0.000000 0.000000 0.000000 0.000000 0.149132 0.000000
# 6 0.000000 0.000000 0.000000 0.000000 0.000000 0.123113
#
#
# Mechanical properties :
#
#
# Convention : Reuss Voigt Hill
#
# Bulk Modulus (GPa) = 60.90523 74.22240 67.56381
# Shear Modulus (GPa) = 10.03003 16.05320 13.04161
#
# Velocity S-wave (km/s) = 2.33587 2.95514 2.66357
# Velocity P-wave (km/s) = 6.35667 7.21253 6.79808
#
# Compressibility (1/GPa) = 0.01641895
#
# Stress axis : x y z
#
# Youngs Moduli (GPa) = 89.68675 49.51249 78.81251
#
# Poissons Ratio (x) = 0.34854 0.36130
# Poissons Ratio (y) = 0.63135 0.17215
# Poissons Ratio (z) = 0.41115 0.10815
#
# Static dielectric constant tensor:
#      x y z
#    x 1.671490 0.000000 0.000000 
#    y 0.000000 1.603520 0.000000 
#    z 0.000000 0.000000 1.735080 
# 
# From -- ./inp_files/13434.got.cif
#   From: 2010.05.17/outbox.cif.g08.bks.cpg/sg67_7_cif.got.tgz:13434.got - 2010.06.03 18:28:57.
