data_PCOD9501327
_publ_section_title
;
Structure prediction by ZEFSAII (Michael W. Deem and Ramdas Pophale) SiO2 
 PCOD9501327
Probable space group: C M M A
;
_chemical_formula_sum "Si O2"
_cell_formula_units_Z 80
_cell_length_a 18.654844
_cell_length_b 7.695418
_cell_length_c 30.555615
_cell_angle_alpha 90.000000
_cell_angle_beta 90.000000
_cell_angle_gamma 90.000000
_cell_volume 4386.466993
_symmetry_space_group_name_H-M "C M M A"
_symmetry_group_IT_number 67
_symmetry_cell_setting 'orthorhombic'
loop_
_space_group_symop_operation_xyz
x,y,z
-x,1/2-y,z
x,-y,-z
-x,1/2+y,-z
-x,-y,-z
x,1/2+y,-z
-x,y,z
x,1/2-y,z
1/2+x,1/2+y,z
1/2-x,-y,z
1/2+x,1/2-y,-z
1/2-x,y,-z
1/2-x,1/2-y,-z
1/2+x,y,-z
1/2-x,1/2+y,z
1/2+x,-y,z
loop_
_atom_site_type_symbol
_atom_site_label
_atom_site_fract_x
_atom_site_fract_y
_atom_site_fract_z
Si Si1 0.586236 0.250000 0.604366
Si Si2 0.333759 0.544987 0.951731
Si Si3 0.412779 0.750000 0.294206
Si Si4 0.087523 0.949753 0.229185
Si Si5 0.082589 0.037399 0.867680
Si Si6 0.166276 0.544868 0.449018
O O1 0.500000 0.250000 0.601725
O O2 0.608543 0.250000 0.655315
O O3 0.618135 0.419641 0.580545
O O4 0.339803 0.750000 0.948227
O O5 0.250000 0.500000 0.950614
O O6 0.373591 0.471165 0.909330
O O7 0.362489 0.500000 0.000000
O O8 0.500000 0.750000 0.293701
O O9 0.389429 0.580394 0.267055
O O10 0.109915 0.750000 0.236225
O O11 0.110080 0.011536 0.180613
O O12 0.000000 0.949521 0.228008
O O13 0.083055 0.250000 0.867373
O O14 0.000000 0.983217 0.871925
O O15 0.152345 0.500000 0.500000
O O16 0.154564 0.750000 0.441841
O O17 0.250000 0.500000 0.441076
#
# Coordination Sequence:
#
# PCOD9501327 Si02
#       6
#     8  16   8  16  16  16
#     4  11  24  37  55  93 128 153 196 252 300 339
#     4  10  19  32  47  65  93 127 160 192 241 306
#     4   9  18  32  49  77 115 143 176 224 273 325
#     4   8  14  28  50  72  98 134 173 214 262 319
#     4   8  15  29  50  73  93 120 161 206 252 297
#     4  11  20  39  65  87 115 162 210 242 287 356
#
# _framework density 18.237912999999999
#
# number of rings (size 3 to 8) (size 9 to 14) (size 15 to 20)
#    0.000    2.600    2.000    3.000    0.000    2.000 
#    3.600    2.000    0.000    1.200    0.000    0.000 
#    0.000    0.000    0.000    0.000    0.000    0.000 
#
# Total GULP energy -222963.966036 kJ/mol
# GULP energy per Si atom -5574.099151 kJ/mol
# Density = 1.819640 g / cm^3
# Si number density = 18.237913 Si / 1000 Ang^3
#
#
#
# Elastic Constant Matrix: (Units=GPa)
#
#
# Indices 1 2 3 4 5 6 
#
# 1 37.6238 28.7700 63.5384 0.0000 0.0000 0.0000
# 2 28.7700 124.8861 78.9403 0.0000 0.0000 0.0000
# 3 63.5384 78.9403 188.4007 0.0000 0.0000 0.0000
# 4 0.0000 0.0000 0.0000 -21.2167 0.0000 0.0000
# 5 0.0000 0.0000 0.0000 0.0000 -25.0340 0.0000
# 6 0.0000 0.0000 0.0000 0.0000 0.0000 9.3664
#
#
#
# Elastic Compliance Matrix: (Units=1/GPa)
#
#
# Indices 1 2 3 4 5 6 
#
# 1 0.061938 -0.001449 -0.020282 0.000000 0.000000 0.000000
# 2 -0.001449 0.010926 -0.004089 0.000000 0.000000 0.000000
# 3 -0.020282 -0.004089 0.013861 0.000000 0.000000 0.000000
# 4 0.000000 0.000000 0.000000 -0.047133 0.000000 0.000000
# 5 0.000000 0.000000 0.000000 0.000000 -0.039946 0.000000
# 6 0.000000 0.000000 0.000000 0.000000 0.000000 0.106765
#
#
# Mechanical properties :
#
#
# Convention : Reuss Voigt Hill
#
# Bulk Modulus (GPa) = 28.50158 77.04534 52.77346
# Shear Modulus (GPa) = 29.45574 4.60061 17.02817
#
# Velocity S-wave (km/s) = 4.02317 1.58998 3.05891
# Velocity P-wave (km/s) = 6.10269 6.76070 6.44010
#
# Compressibility (1/GPa) = 0.03508578
#
# Stress axis : x y z
#
# Youngs Moduli (GPa) = 16.14518 91.52521 72.14291
#
# Poissons Ratio (x) = 0.13258 1.46318
# Poissons Ratio (y) = 0.02339 0.29503
# Poissons Ratio (z) = 0.32745 0.37429
#
# Static dielectric constant tensor:
#      x y z
#    x 1.546350 0.000000 0.000000 
#    y 0.000000 1.643500 0.000000 
#    z 0.000000 0.000000 1.648020 
# 
# From -- ./inp_files/44452.got.cif
#   From: 2010.05.17/outbox.cif.g08.bks.cpg/sg67_23_cif.got.tgz:44452.got - 2010.06.03 18:28:57.
