data_PCOD9501768
_publ_section_title
;
Structure prediction by ZEFSAII (Michael W. Deem and Ramdas Pophale) SiO2 
 PCOD9501768
Probable space group: C M M A
;
_chemical_formula_sum "Si O2"
_cell_formula_units_Z 104
_cell_length_a 21.995021
_cell_length_b 8.767872
_cell_length_c 28.822692
_cell_angle_alpha 90.000000
_cell_angle_beta 90.000000
_cell_angle_gamma 90.000000
_cell_volume 5558.442570
_symmetry_space_group_name_H-M "C M M A"
_symmetry_group_IT_number 67
_symmetry_cell_setting 'orthorhombic'
loop_
_space_group_symop_operation_xyz
x,y,z
-x,1/2-y,z
x,-y,-z
-x,1/2+y,-z
-x,-y,-z
x,1/2+y,-z
-x,y,z
x,1/2-y,z
1/2+x,1/2+y,z
1/2-x,-y,z
1/2+x,1/2-y,-z
1/2-x,y,-z
1/2-x,1/2-y,-z
1/2+x,y,-z
1/2-x,1/2+y,z
1/2+x,-y,z
loop_
_atom_site_type_symbol
_atom_site_label
_atom_site_fract_x
_atom_site_fract_y
_atom_site_fract_z
Si Si1 0.315336 0.932804 0.105947
Si Si2 0.185314 0.433189 0.215524
Si Si3 0.107208 0.933022 0.620719
Si Si4 0.430979 0.564255 0.274953
Si Si5 0.931157 0.933334 0.051934
Si Si6 0.000000 0.569673 0.550280
Si Si7 0.683538 0.569903 0.546362
O O1 0.314367 0.750000 0.100365
O O2 0.320297 0.969185 0.160846
O O3 0.250000 0.000000 0.089768
O O4 0.374588 0.000155 0.080678
O O5 0.188358 0.250000 0.220191
O O6 0.250000 0.500000 0.232192
O O7 0.124745 0.486900 0.242372
O O8 0.117927 0.750000 0.620669
O O9 0.085761 0.975653 0.672011
O O10 0.056200 0.969790 0.582813
O O11 0.161746 0.022398 0.597481
O O12 0.500000 0.512353 0.263667
O O13 0.432351 0.750000 0.272617
O O14 0.926618 0.750000 0.050589
O O15 0.000000 0.971963 0.069488
O O16 0.927236 0.000000 0.000000
O O17 0.000000 0.500000 0.500000
O O18 0.000000 0.750000 0.544225
O O19 0.651127 0.500000 0.500000
O O20 0.682645 0.750000 0.540932
O O21 0.750000 0.500000 0.544634
#
# Coordination Sequence:
#
# PCOD9501768 Si02
#       7
#    16  16  16  16  16   8  16
#     4  10  20  35  56  83 115 151 194 243 291 343
#     4   9  19  35  57  83 111 146 187 234 284 336
#     4  10  19  34  54  77 104 136 172 211 258 311
#     4   9  17  33  57  82 109 143 184 228 272 325
#     4  10  21  37  57  83 117 156 196 240 291 346
#     4  10  20  32  50  74 100 134 170 206 251 304
#     4  11  22  37  55  76 102 133 168 210 256 310
#
# _framework density 18.710276
#
# number of rings (size 3 to 8) (size 9 to 14) (size 15 to 20)
#    0.000    2.154    0.769    3.231    0.000    4.923 
#    0.000    5.385    0.000    1.385    0.000    0.000 
#    0.000    0.000    0.000    0.000    0.000    0.000 
#
# Total GULP energy -289785.755514 kJ/mol
# GULP energy per Si atom -5572.802991 kJ/mol
# Density = 1.866769 g / cm^3
# Si number density = 18.710276 Si / 1000 Ang^3
#
#
#
# Elastic Constant Matrix: (Units=GPa)
#
#
# Indices 1 2 3 4 5 6 
#
# 1 175.1752 50.9739 83.6434 0.0000 0.0000 0.0000
# 2 50.9739 33.5429 32.3705 0.0000 0.0000 0.0000
# 3 83.6434 32.3705 82.4639 0.0000 0.0000 0.0000
# 4 0.0000 0.0000 0.0000 28.9850 0.0000 0.0000
# 5 0.0000 0.0000 0.0000 0.0000 18.3595 0.0000
# 6 0.0000 0.0000 0.0000 0.0000 0.0000 21.7074
#
#
#
# Elastic Compliance Matrix: (Units=1/GPa)
#
#
# Indices 1 2 3 4 5 6 
#
# 1 0.013415 -0.011680 -0.009022 0.000000 0.000000 0.000000
# 2 -0.011680 0.058162 -0.010984 0.000000 0.000000 0.000000
# 3 -0.009022 -0.010984 0.025590 0.000000 0.000000 0.000000
# 4 0.000000 0.000000 0.000000 0.034501 0.000000 0.000000
# 5 0.000000 0.000000 0.000000 0.000000 0.054468 0.000000
# 6 0.000000 0.000000 0.000000 0.000000 0.000000 0.046067
#
#
# Mechanical properties :
#
#
# Convention : Reuss Voigt Hill
#
# Bulk Modulus (GPa) = 29.59077 69.46196 49.52637
# Shear Modulus (GPa) = 16.29514 22.08999 19.19256
#
# Velocity S-wave (km/s) = 2.95434 3.43976 3.20625
# Velocity P-wave (km/s) = 5.24281 7.27885 6.34305
#
# Compressibility (1/GPa) = 0.03379432
#
# Stress axis : x y z
#
# Youngs Moduli (GPa) = 74.54208 17.19336 39.07811
#
# Poissons Ratio (x) = 0.20081 0.35258
# Poissons Ratio (y) = 0.87062 0.42925
# Poissons Ratio (z) = 0.67255 0.18886
#
# Static dielectric constant tensor:
#      x y z
#    x 1.679510 0.000000 0.000000 
#    y 0.000000 1.603770 0.000000 
#    z 0.000000 0.000000 1.633730 
# 
# From -- ./inp_files/44697.got.cif
#   From: 2010.05.17/outbox.cif.g08.bks.cpg/sg67_23_cif.got.tgz:44697.got - 2010.06.03 18:28:57.
