data_PCOD9501295
_publ_section_title
;
Structure prediction by ZEFSAII (Michael W. Deem and Ramdas Pophale) SiO2 
 PCOD9501295
Probable space group: C M M A
;
_chemical_formula_sum "Si O2"
_cell_formula_units_Z 100
_cell_length_a 15.196698
_cell_length_b 18.707450
_cell_length_c 17.455415
_cell_angle_alpha 90.000000
_cell_angle_beta 90.000000
_cell_angle_gamma 90.000000
_cell_volume 4962.425555
_symmetry_space_group_name_H-M "C M M A"
_symmetry_group_IT_number 67
_symmetry_cell_setting 'orthorhombic'
loop_
_space_group_symop_operation_xyz
x,y,z
-x,1/2-y,z
x,-y,-z
-x,1/2+y,-z
-x,-y,-z
x,1/2+y,-z
-x,y,z
x,1/2-y,z
1/2+x,1/2+y,z
1/2-x,-y,z
1/2+x,1/2-y,-z
1/2-x,y,-z
1/2-x,1/2-y,-z
1/2+x,y,-z
1/2-x,1/2+y,z
1/2+x,-y,z
loop_
_atom_site_type_symbol
_atom_site_label
_atom_site_fract_x
_atom_site_fract_y
_atom_site_fract_z
Si Si1 0.750000 0.000000 0.500000
Si Si2 0.605115 0.053963 0.064096
Si Si3 0.398811 0.507759 0.390551
Si Si4 0.603257 0.335455 0.946296
Si Si5 0.214741 0.668345 0.801779
Si Si6 0.164277 0.547217 0.234690
Si Si7 0.105341 0.829984 0.648003
O O1 0.676553 0.031604 0.440659
O O2 0.500000 0.050336 0.064148
O O3 0.631769 0.034435 0.149065
O O4 0.628460 0.130992 0.028210
O O5 0.639647 0.000000 0.000000
O O6 0.500000 0.501587 0.416835
O O7 0.396165 0.475341 0.304921
O O8 0.372656 0.592873 0.390144
O O9 0.500000 0.354763 0.929852
O O10 0.607286 0.250000 0.948547
O O11 0.667482 0.361297 0.878260
O O12 0.237349 0.750000 0.817418
O O13 0.299453 0.627461 0.770234
O O14 0.143552 0.665728 0.733636
O O15 0.250000 0.500000 0.247851
O O16 0.132908 0.750000 0.617586
O O17 0.000000 0.829327 0.650452
#
# Coordination Sequence:
#
# PCOD9501295 Si02
#       7
#     4  16  16  16  16  16  16
#     4  12  22  44  66  98 126 156 198 242 292 374
#     4  10  22  36  51  72 104 150 201 249 300 352
#     4  11  23  40  66  94 125 160 195 244 301 361
#     4   9  18  33  51  73 105 151 208 265 313 358
#     4  10  19  31  51  80 114 155 201 254 303 343
#     4  12  22  37  54  82 117 155 195 249 296 358
#     4   9  17  32  56  87 119 153 193 237 290 349
#
# _framework density 20.151436
#
# number of rings (size 3 to 8) (size 9 to 14) (size 15 to 20)
#    0.000    1.760    2.400    2.160    0.000    4.800 
#    0.000    2.000    0.000    2.400    0.000    0.000 
#    0.000    0.000    0.000    0.000    0.000    0.000 
#
# Total GULP energy -278456.271681 kJ/mol
# GULP energy per Si atom -5569.125434 kJ/mol
# Density = 2.010557 g / cm^3
# Si number density = 20.151436 Si / 1000 Ang^3
#
#
#
# Elastic Constant Matrix: (Units=GPa)
#
#
# Indices 1 2 3 4 5 6 
#
# 1 75.6389 23.1824 36.5903 0.0000 0.0000 0.0000
# 2 23.1824 75.0273 31.7893 0.0000 0.0000 0.0000
# 3 36.5903 31.7893 106.5081 0.0000 0.0000 0.0000
# 4 0.0000 0.0000 0.0000 14.7478 0.0000 0.0000
# 5 0.0000 0.0000 0.0000 0.0000 62.7249 0.0000
# 6 0.0000 0.0000 0.0000 0.0000 0.0000 18.2525
#
#
#
# Elastic Compliance Matrix: (Units=1/GPa)
#
#
# Indices 1 2 3 4 5 6 
#
# 1 0.016454 -0.003078 -0.004734 0.000000 0.000000 0.000000
# 2 -0.003078 0.015834 -0.003668 0.000000 0.000000 0.000000
# 3 -0.004734 -0.003668 0.012110 0.000000 0.000000 0.000000
# 4 0.000000 0.000000 0.000000 0.067807 0.000000 0.000000
# 5 0.000000 0.000000 0.000000 0.000000 0.015943 0.000000
# 6 0.000000 0.000000 0.000000 0.000000 0.000000 0.054787
#
#
# Mechanical properties :
#
#
# Convention : Reuss Voigt Hill
#
# Bulk Modulus (GPa) = 46.64839 48.92205 47.78522
# Shear Modulus (GPa) = 23.46956 30.18586 26.82771
#
# Velocity S-wave (km/s) = 3.41641 3.87454 3.65266
# Velocity P-wave (km/s) = 6.22589 6.65928 6.44622
#
# Compressibility (1/GPa) = 0.02143697
#
# Stress axis : x y z
#
# Youngs Moduli (GPa) = 60.77458 63.15544 82.57504
#
# Poissons Ratio (x) = 0.19441 0.39091
# Poissons Ratio (y) = 0.18708 0.30292
# Poissons Ratio (z) = 0.28771 0.23168
#
# Static dielectric constant tensor:
#      x y z
#    x 1.754370 0.000000 0.000000 
#    y 0.000000 1.620360 0.000000 
#    z 0.000000 0.000000 1.741280 
# 
# From -- ./inp_files/33690.got.cif
#   From: 2010.05.17/outbox.cif.g08.bks.cpg/sg67_17_cif.got.tgz:33690.got - 2010.06.03 18:28:57.
