data_PCOD9501081
_publ_section_title
;
Structure prediction by ZEFSAII (Michael W. Deem and Ramdas Pophale) SiO2 
 PCOD9501081
Probable space group: C M M A
;
_chemical_formula_sum "Si O2"
_cell_formula_units_Z 96
_cell_length_a 25.912203
_cell_length_b 23.085361
_cell_length_c 9.506465
_cell_angle_alpha 90.000000
_cell_angle_beta 90.000000
_cell_angle_gamma 90.000000
_cell_volume 5686.696640
_symmetry_space_group_name_H-M "C M M A"
_symmetry_group_IT_number 67
_symmetry_cell_setting 'orthorhombic'
loop_
_space_group_symop_operation_xyz
x,y,z
-x,1/2-y,z
x,-y,-z
-x,1/2+y,-z
-x,-y,-z
x,1/2+y,-z
-x,y,z
x,1/2-y,z
1/2+x,1/2+y,z
1/2-x,-y,z
1/2+x,1/2-y,-z
1/2-x,y,-z
1/2-x,1/2-y,-z
1/2+x,y,-z
1/2-x,1/2+y,z
1/2+x,-y,z
loop_
_atom_site_type_symbol
_atom_site_label
_atom_site_fract_x
_atom_site_fract_y
_atom_site_fract_z
Si Si1 0.636049 0.181559 0.989950
Si Si2 0.059710 0.319609 0.757122
Si Si3 0.150969 0.132715 0.596767
Si Si4 0.331614 0.886145 0.266543
Si Si5 0.809583 0.990718 0.331528
Si Si6 0.271458 0.816207 0.796479
O O1 0.633544 0.250000 0.961334
O O2 0.633445 0.145984 0.847017
O O3 0.590698 0.167107 0.099350
O O4 0.690748 0.171333 0.071279
O O5 0.062555 0.250000 0.738370
O O6 0.093118 0.349999 0.636322
O O7 0.000000 0.336454 0.761166
O O8 0.158679 0.127885 0.430315
O O9 0.167216 0.073328 0.678603
O O10 0.190092 0.179294 0.663196
O O11 0.274426 0.861391 0.229890
O O12 0.337120 0.955530 0.256843
O O13 0.811000 0.000000 0.500000
O O14 0.750000 0.000000 0.289825
O O15 0.251899 0.750000 0.809628
#
# Coordination Sequence:
#
# PCOD9501081 Si02
#       6
#    16  16  16  16  16  16
#     4   9  19  33  49  72 103 136 170 208 257 312
#     4   9  19  38  59  74  96 134 173 213 268 321
#     4  10  19  32  52  76 102 133 174 216 253 300
#     4  11  19  29  50  74 104 136 172 212 249 301
#     4   9  17  31  48  70 104 143 174 201 248 304
#     4  10  19  30  45  70 107 144 167 196 252 317
#
# _framework density 16.881506000000002
#
# number of rings (size 3 to 8) (size 9 to 14) (size 15 to 20)
#    0.000    2.333    1.667    3.000    0.000    4.667 
#    0.000    4.167    0.000    8.500    0.000    0.000 
#    0.000    0.000    0.000    0.000    0.000    0.000 
#
# Total GULP energy -267420.138665 kJ/mol
# GULP energy per Si atom -5571.252889 kJ/mol
# Density = 1.684308 g / cm^3
# Si number density = 16.881506 Si / 1000 Ang^3
#
#
#
# Elastic Constant Matrix: (Units=GPa)
#
#
# Indices 1 2 3 4 5 6 
#
# 1 94.2241 32.5884 21.3230 0.0000 0.0000 0.0000
# 2 32.5884 77.8856 43.3528 0.0000 0.0000 0.0000
# 3 21.3230 43.3528 77.7304 0.0000 0.0000 0.0000
# 4 0.0000 0.0000 0.0000 22.7403 0.0000 0.0000
# 5 0.0000 0.0000 0.0000 0.0000 9.4064 0.0000
# 6 0.0000 0.0000 0.0000 0.0000 0.0000 14.6425
#
#
#
# Elastic Compliance Matrix: (Units=1/GPa)
#
#
# Indices 1 2 3 4 5 6 
#
# 1 0.012438 -0.004793 -0.000739 0.000000 0.000000 0.000000
# 2 -0.004793 0.020467 -0.010100 0.000000 0.000000 0.000000
# 3 -0.000739 -0.010100 0.018701 0.000000 0.000000 0.000000
# 4 0.000000 0.000000 0.000000 0.043975 0.000000 0.000000
# 5 0.000000 0.000000 0.000000 0.000000 0.106311 0.000000
# 6 0.000000 0.000000 0.000000 0.000000 0.000000 0.068294
#
#
# Mechanical properties :
#
#
# Convention : Reuss Voigt Hill
#
# Bulk Modulus (GPa) = 49.16020 49.37429 49.26724
# Shear Modulus (GPa) = 16.22168 19.52957 17.87563
#
# Velocity S-wave (km/s) = 3.10322 3.40496 3.25759
# Velocity P-wave (km/s) = 6.48259 6.69099 6.58761
#
# Compressibility (1/GPa) = 0.02034166
#
# Stress axis : x y z
#
# Youngs Moduli (GPa) = 80.39961 48.85975 53.47356
#
# Poissons Ratio (x) = 0.23418 0.03950
# Poissons Ratio (y) = 0.38535 0.54009
# Poissons Ratio (z) = 0.05940 0.49349
#
# Static dielectric constant tensor:
#      x y z
#    x 1.574520 0.000000 0.000000 
#    y 0.000000 1.620910 0.000000 
#    z 0.000000 0.000000 1.579260 
# 
# From -- ./inp_files/12754.got.cif
#   From: 2010.05.17/outbox.cif.g08.bks.cpg/sg67_7_cif.got.tgz:12754.got - 2010.06.03 18:28:57.
