data_PCOD9501840
_publ_section_title
;
Structure prediction by ZEFSAII (Michael W. Deem and Ramdas Pophale) SiO2 
 PCOD9501840
Probable space group: C M M A
;
_chemical_formula_sum "Si O2"
_cell_formula_units_Z 112
_cell_length_a 15.326567
_cell_length_b 25.167457
_cell_length_c 13.429235
_cell_angle_alpha 90.000000
_cell_angle_beta 90.000000
_cell_angle_gamma 90.000000
_cell_volume 5180.068431
_symmetry_space_group_name_H-M "C M M A"
_symmetry_group_IT_number 67
_symmetry_cell_setting 'orthorhombic'
loop_
_space_group_symop_operation_xyz
x,y,z
-x,1/2-y,z
x,-y,-z
-x,1/2+y,-z
-x,-y,-z
x,1/2+y,-z
-x,y,z
x,1/2-y,z
1/2+x,1/2+y,z
1/2-x,-y,z
1/2+x,1/2-y,-z
1/2-x,y,-z
1/2-x,1/2-y,-z
1/2+x,y,-z
1/2-x,1/2+y,z
1/2+x,-y,z
loop_
_atom_site_type_symbol
_atom_site_label
_atom_site_fract_x
_atom_site_fract_y
_atom_site_fract_z
Si Si1 0.902740 0.043186 0.149145
Si Si2 0.762073 0.690238 0.360944
Si Si3 0.273770 0.343779 0.153957
Si Si4 0.104922 0.852435 0.966053
Si Si5 0.402507 0.613053 0.351613
Si Si6 0.600467 0.605930 0.571160
Si Si7 0.810763 0.044434 0.746427
O O1 0.886433 0.085331 0.062500
O O2 0.899747 0.075144 0.255334
O O3 0.847554 0.990996 0.164150
O O4 0.000000 0.023703 0.135678
O O5 0.749838 0.750000 0.395297
O O6 0.797200 0.691170 0.248205
O O7 0.671971 0.657464 0.351109
O O8 0.831631 0.654901 0.421309
O O9 0.178183 0.328416 0.109952
O O10 0.271733 0.403679 0.199781
O O11 0.349842 0.341860 0.071772
O O12 0.000000 0.839263 0.957603
O O13 0.500000 0.636978 0.350912
O O14 0.392041 0.583826 0.458375
O O15 0.500000 0.622589 0.584728
O O16 0.626073 0.566532 0.660742
O O17 0.750000 0.000000 0.694725
#
# Coordination Sequence:
#
# PCOD9501840 Si02
#       7
#    16  16  16  16  16  16  16
#     4  10  19  34  58  84 115 156 198 240 289 347
#     4  11  23  41  65  90 117 155 201 253 311 371
#     4  10  22  39  59  85 119 154 194 247 305 356
#     4  10  20  38  62  84 115 156 195 240 296 358
#     4  10  21  40  62  89 123 158 200 252 304 355
#     4  10  23  40  60  88 126 165 203 250 301 357
#     4  11  20  36  56  86 123 163 203 247 286 348
#
# _framework density 21.621335999999999
#
# number of rings (size 3 to 8) (size 9 to 14) (size 15 to 20)
#    0.000    1.714    2.857    1.714    0.000    5.714 
#    0.000    8.571    0.000    0.857    0.000    0.000 
#    0.000    0.000    0.000    0.000    0.000    0.000 
#
# Total GULP energy -312003.327043 kJ/mol
# GULP energy per Si atom -5571.487983 kJ/mol
# Density = 2.157212 g / cm^3
# Si number density = 21.621336 Si / 1000 Ang^3
#
#
#
# Elastic Constant Matrix: (Units=GPa)
#
#
# Indices 1 2 3 4 5 6 
#
# 1 112.3788 11.9774 16.3895 0.0000 0.0000 0.0000
# 2 11.9774 32.7267 -11.9311 0.0000 0.0000 0.0000
# 3 16.3895 -11.9311 107.9941 0.0000 0.0000 0.0000
# 4 0.0000 0.0000 0.0000 -0.2331 0.0000 0.0000
# 5 0.0000 0.0000 0.0000 0.0000 25.3599 0.0000
# 6 0.0000 0.0000 0.0000 0.0000 0.0000 6.3977
#
#
#
# Elastic Compliance Matrix: (Units=1/GPa)
#
#
# Indices 1 2 3 4 5 6 
#
# 1 0.009630 -0.004228 -0.001929 0.000000 0.000000 0.000000
# 2 -0.004228 0.033694 0.004364 0.000000 0.000000 0.000000
# 3 -0.001929 0.004364 0.010035 0.000000 0.000000 0.000000
# 4 0.000000 0.000000 0.000000 -4.289717 0.000000 0.000000
# 5 0.000000 0.000000 0.000000 0.000000 0.039432 0.000000
# 6 0.000000 0.000000 0.000000 0.000000 0.000000 0.156306
#
#
# Mechanical properties :
#
#
# Convention : Reuss Voigt Hill
#
# Bulk Modulus (GPa) = 20.09037 31.77457 25.93247
# Shear Modulus (GPa) = -1.24364 22.08248 10.41942
#
# Velocity S-wave (km/s) = -0.75924 3.19929 2.19761
# Velocity P-wave (km/s) = 2.92293 5.32683 4.29643
#
# Compressibility (1/GPa) = 0.04977509
#
# Stress axis : x y z
#
# Youngs Moduli (GPa) = 103.83867 29.67854 99.65525
#
# Poissons Ratio (x) = 0.12547 0.19219
# Poissons Ratio (y) = 0.43899 -0.43491
# Poissons Ratio (z) = 0.20026 -0.12952
#
# Static dielectric constant tensor:
#      x y z
#    x 1.849230 0.000000 0.000000 
#    y 0.000000 1.772260 0.000000 
#    z 0.000000 0.000000 1.832360 
# 
# From -- ./inp_files/27683.got.cif
#   From: 2010.05.17/outbox.cif.g08.bks.cpg/sg67_14_cif.got.tgz:27683.got - 2010.06.03 18:28:57.
