data_PCOD9501973
_publ_section_title
;
Structure prediction by ZEFSAII (Michael W. Deem and Ramdas Pophale) SiO2 
 PCOD9501973
Probable space group: C M M A
;
_chemical_formula_sum "Si O2"
_cell_formula_units_Z 64
_cell_length_a 30.630079
_cell_length_b 10.324643
_cell_length_c 9.954412
_cell_angle_alpha 90.000000
_cell_angle_beta 90.000000
_cell_angle_gamma 90.000000
_cell_volume 3148.029347
_symmetry_space_group_name_H-M "C M M A"
_symmetry_group_IT_number 67
_symmetry_cell_setting 'orthorhombic'
loop_
_space_group_symop_operation_xyz
x,y,z
-x,1/2-y,z
x,-y,-z
-x,1/2+y,-z
-x,-y,-z
x,1/2+y,-z
-x,y,z
x,1/2-y,z
1/2+x,1/2+y,z
1/2-x,-y,z
1/2+x,1/2-y,-z
1/2-x,y,-z
1/2-x,1/2-y,-z
1/2+x,y,-z
1/2-x,1/2+y,z
1/2+x,-y,z
loop_
_atom_site_type_symbol
_atom_site_label
_atom_site_fract_x
_atom_site_fract_y
_atom_site_fract_z
Si Si1 0.300618 0.496513 0.292045
Si Si2 0.500000 0.390048 0.387777
Si Si3 0.352327 0.250000 0.377617
Si Si4 0.334033 0.000000 0.000000
Si Si5 0.360240 0.750000 0.332692
Si Si6 0.893857 0.750000 0.946124
Si Si7 0.064245 0.750000 0.211066
O O1 0.250000 0.500000 0.328713
O O2 0.323108 0.377012 0.366459
O O3 0.328469 0.625946 0.318833
O O4 0.305466 0.475453 0.131923
O O5 0.500000 0.250000 0.461460
O O6 0.500000 0.500000 0.500000
O O7 0.540771 0.372703 0.283788
O O8 0.378514 0.250000 0.517079
O O9 0.386000 0.250000 0.256031
O O10 0.365091 0.876869 0.022977
O O11 0.396619 0.750000 0.216110
O O12 0.934551 0.750000 0.049525
#
# Coordination Sequence:
#
# PCOD9501973 Si02
#       7
#    16   8   8   8   8   8   8
#     4  11  22  36  56  82 122 166 221 278 328 377
#     4   8  20  40  70 106 135 164 197 250 314 380
#     4  12  22  40  59  89 121 175 209 266 331 376
#     4  10  19  36  58  85 118 164 226 265 324 368
#     4  10  25  35  54  87 118 156 223 269 316 379
#     4  10  19  40  59  87 117 166 210 267 302 382
#     4   9  20  39  71  89 131 164 206 246 319 375
#
# _framework density 20.330179000000001
#
# number of rings (size 3 to 8) (size 9 to 14) (size 15 to 20)
#    0.750    1.000    2.500    1.875    0.000    5.000 
#    0.000    5.000    0.000    6.000    0.000    0.000 
#    0.000    0.000    0.000    0.000    0.000    0.000 
#
# Total GULP energy -178362.152378 kJ/mol
# GULP energy per Si atom -5573.817262 kJ/mol
# Density = 2.028391 g / cm^3
# Si number density = 20.330179 Si / 1000 Ang^3
#
#
#
# Elastic Constant Matrix: (Units=GPa)
#
#
# Indices 1 2 3 4 5 6 
#
# 1 55.4982 13.7642 17.5156 0.0000 0.0000 0.0000
# 2 13.7642 125.1356 26.1658 0.0000 0.0000 0.0000
# 3 17.5156 26.1658 159.3235 0.0000 0.0000 0.0000
# 4 0.0000 0.0000 0.0000 33.8738 0.0000 0.0000
# 5 0.0000 0.0000 0.0000 0.0000 440.0820 0.0000
# 6 0.0000 0.0000 0.0000 0.0000 0.0000 4.3935
#
#
#
# Elastic Compliance Matrix: (Units=1/GPa)
#
#
# Indices 1 2 3 4 5 6 
#
# 1 0.019014 -0.001713 -0.001809 0.000000 0.000000 0.000000
# 2 -0.001713 0.008430 -0.001196 0.000000 0.000000 0.000000
# 3 -0.001809 -0.001196 0.006672 0.000000 0.000000 0.000000
# 4 0.000000 0.000000 0.000000 0.029521 0.000000 0.000000
# 5 0.000000 0.000000 0.000000 0.000000 0.002272 0.000000
# 6 0.000000 0.000000 0.000000 0.000000 0.000000 0.227611
#
#
# Mechanical properties :
#
#
# Convention : Reuss Voigt Hill
#
# Bulk Modulus (GPa) = 40.51950 50.53874 45.52912
# Shear Modulus (GPa) = 16.06764 114.50395 65.28580
#
# Velocity S-wave (km/s) = 2.81434 7.51295 5.67296
# Velocity P-wave (km/s) = 5.52582 10.00861 8.08415
#
# Compressibility (1/GPa) = 0.02467947
#
# Stress axis : x y z
#
# Youngs Moduli (GPa) = 52.59161 118.62566 149.88331
#
# Poissons Ratio (x) = 0.20323 0.27114
# Poissons Ratio (y) = 0.09010 0.17928
# Poissons Ratio (z) = 0.09514 0.14189
#
# Static dielectric constant tensor:
#      x y z
#    x 1.695860 0.000000 0.000000 
#    y 0.000000 1.713740 0.000000 
#    z 0.000000 0.000000 1.770690 
# 
# From -- ./inp_files/14407.got.cif
#   From: 2010.05.17/outbox.cif.g08.bks.cpg/sg67_8_cif.got.tgz:14407.got - 2010.06.03 18:28:57.
