data_PCOD9501454
_publ_section_title
;
Structure prediction by ZEFSAII (Michael W. Deem and Ramdas Pophale) SiO2 
 PCOD9501454
Probable space group: C M M A
;
_chemical_formula_sum "Si O2"
_cell_formula_units_Z 88
_cell_length_a 38.998244
_cell_length_b 24.759090
_cell_length_c 5.278076
_cell_angle_alpha 90.000000
_cell_angle_beta 90.000000
_cell_angle_gamma 90.000000
_cell_volume 5096.304515
_symmetry_space_group_name_H-M "C M M A"
_symmetry_group_IT_number 67
_symmetry_cell_setting 'orthorhombic'
loop_
_space_group_symop_operation_xyz
x,y,z
-x,1/2-y,z
x,-y,-z
-x,1/2+y,-z
-x,-y,-z
x,1/2+y,-z
-x,y,z
x,1/2-y,z
1/2+x,1/2+y,z
1/2-x,-y,z
1/2+x,1/2-y,-z
1/2-x,y,-z
1/2-x,1/2-y,-z
1/2+x,y,-z
1/2-x,1/2+y,z
1/2+x,-y,z
loop_
_atom_site_type_symbol
_atom_site_label
_atom_site_fract_x
_atom_site_fract_y
_atom_site_fract_z
Si Si1 0.581963 0.684563 0.562434
Si Si2 0.750000 0.098326 0.000000
Si Si3 0.782883 0.691821 0.326594
Si Si4 0.345384 0.874744 0.564447
Si Si5 0.460866 0.315350 0.937589
Si Si6 0.323607 0.061329 0.927092
O O1 0.587543 0.750000 0.563022
O O2 0.617660 0.652963 0.563798
O O3 0.559891 0.670048 0.810410
O O4 0.560141 0.670067 0.313316
O O5 0.728940 0.140293 0.169597
O O6 0.781852 0.064915 0.112487
O O7 0.788824 0.750000 0.194056
O O8 0.750000 0.698716 0.500000
O O9 0.816984 0.672770 0.468837
O O10 0.339958 0.916058 0.331944
O O11 0.337340 0.903210 0.834567
O O12 0.500000 0.335593 0.936672
O O13 0.462758 0.250000 0.937454
O O14 0.331791 0.000000 0.000000
#
# Coordination Sequence:
#
# PCOD9501454 Si02
#       6
#    16   8  16  16  16  16
#     4  10  19  32  51  79 113 147 173 205 254 306
#     4  10  20  36  52  76  98 134 180 228 272 320
#     4  10  19  33  51  74 106 141 177 214 255 309
#     4  11  22  37  53  78 106 137 179 221 265 318
#     4   9  17  30  50  77 112 149 178 201 236 298
#     4  11  23  38  56  73  98 132 179 234 282 316
#
# _framework density 17.267413000000001
#
# number of rings (size 3 to 8) (size 9 to 14) (size 15 to 20)
#    0.000    1.818    1.818    3.273    0.000    2.182 
#    0.000    3.636    0.000    0.000    0.000    0.000 
#    0.000   50.909    0.000    0.000    0.000    0.000 
#
# Total GULP energy -244998.580899 kJ/mol
# GULP energy per Si atom -5568.149566 kJ/mol
# Density = 1.722811 g / cm^3
# Si number density = 17.267413 Si / 1000 Ang^3
#
#
#
# Elastic Constant Matrix: (Units=GPa)
#
#
# Indices 1 2 3 4 5 6 
#
# 1 178.1921 41.2990 67.4755 0.0000 0.0000 0.0000
# 2 41.2990 42.6795 12.8495 0.0000 0.0000 0.0000
# 3 67.4755 12.8495 109.9342 0.0000 0.0000 0.0000
# 4 0.0000 0.0000 0.0000 14.1846 0.0000 0.0000
# 5 0.0000 0.0000 0.0000 0.0000 23.1249 0.0000
# 6 0.0000 0.0000 0.0000 0.0000 0.0000 23.1591
#
#
#
# Elastic Compliance Matrix: (Units=1/GPa)
#
#
# Indices 1 2 3 4 5 6 
#
# 1 0.009119 -0.007399 -0.004732 0.000000 0.000000 0.000000
# 2 -0.007399 0.030289 0.001001 0.000000 0.000000 0.000000
# 3 -0.004732 0.001001 0.011884 0.000000 0.000000 0.000000
# 4 0.000000 0.000000 0.000000 0.070499 0.000000 0.000000
# 5 0.000000 0.000000 0.000000 0.000000 0.043243 0.000000
# 6 0.000000 0.000000 0.000000 0.000000 0.000000 0.043180
#
#
# Mechanical properties :
#
#
# Convention : Reuss Voigt Hill
#
# Bulk Modulus (GPa) = 34.44555 63.78377 49.11466
# Shear Modulus (GPa) = 20.82032 26.03916 23.42974
#
# Velocity S-wave (km/s) = 3.47617 3.88750 3.68758
# Velocity P-wave (km/s) = 6.00860 7.56103 6.82907
#
# Compressibility (1/GPa) = 0.02903132
#
# Stress axis : x y z
#
# Youngs Moduli (GPa) = 109.66552 33.01551 84.14840
#
# Poissons Ratio (x) = 0.24428 0.39819
# Poissons Ratio (y) = 0.81142 -0.08424
# Poissons Ratio (z) = 0.51894 -0.03305
#
# Static dielectric constant tensor:
#      x y z
#    x 1.602770 0.000000 0.000000 
#    y 0.000000 1.679450 0.000000 
#    z 0.000000 0.000000 1.591910 
# 
# From -- ./inp_files/3630.got.cif
#   From: 2010.05.17/outbox.cif.g08.bks.cpg/sg67_2_cif.got.tgz:3630.got - 2010.06.03 18:28:57.
