data_PCOD9501188
_publ_section_title
;
Structure prediction by ZEFSAII (Michael W. Deem and Ramdas Pophale) SiO2 
 PCOD9501188
Probable space group: C M M A
;
_chemical_formula_sum "Si O2"
_cell_formula_units_Z 80
_cell_length_a 26.394770
_cell_length_b 9.836976
_cell_length_c 18.237951
_cell_angle_alpha 90.000000
_cell_angle_beta 90.000000
_cell_angle_gamma 90.000000
_cell_volume 4735.387663
_symmetry_space_group_name_H-M "C M M A"
_symmetry_group_IT_number 67
_symmetry_cell_setting 'orthorhombic'
loop_
_space_group_symop_operation_xyz
x,y,z
-x,1/2-y,z
x,-y,-z
-x,1/2+y,-z
-x,-y,-z
x,1/2+y,-z
-x,y,z
x,1/2-y,z
1/2+x,1/2+y,z
1/2-x,-y,z
1/2+x,1/2-y,-z
1/2-x,y,-z
1/2-x,1/2-y,-z
1/2+x,y,-z
1/2-x,1/2+y,z
1/2+x,-y,z
loop_
_atom_site_type_symbol
_atom_site_label
_atom_site_fract_x
_atom_site_fract_y
_atom_site_fract_z
Si Si1 0.201311 0.914306 0.075250
Si Si2 0.061212 0.750000 0.616945
Si Si3 0.100462 0.899946 0.169818
Si Si4 0.439041 0.250000 0.450698
Si Si5 0.438720 0.540974 0.674660
Si Si6 0.059737 0.399636 0.062248
O O1 0.209983 0.750000 0.062278
O O2 0.155790 0.919974 0.134155
O O3 0.250000 0.000000 0.103550
O O4 0.189916 0.000000 0.000000
O O5 0.081112 0.750000 0.533296
O O6 0.074286 0.614902 0.660441
O O7 0.000000 0.750000 0.611626
O O8 0.082430 0.750000 0.143981
O O9 0.092763 0.904618 0.256628
O O10 0.067758 0.022768 0.137769
O O11 0.500000 0.250000 0.457300
O O12 0.426648 0.378909 0.400157
O O13 0.500000 0.556940 0.687960
O O14 0.083132 0.250000 0.059901
O O15 0.000000 0.386105 0.049686
O O16 0.079805 0.500000 0.000000
#
# Coordination Sequence:
#
# PCOD9501188 Si02
#       6
#    16   8  16   8  16  16
#     4  10  21  38  58  78  98 124 162 207 256 309
#     4   9  18  30  46  70 100 137 180 214 242 285
#     4  11  22  34  50  73 102 132 165 205 254 303
#     4   9  16  30  50  68  96 141 178 208 246 287
#     4  10  19  31  47  72 106 140 173 208 247 290
#     4  10  21  34  48  67  94 132 173 206 237 282
#
# _framework density 16.894075999999998
#
# number of rings (size 3 to 8) (size 9 to 14) (size 15 to 20)
#    0.000    2.000    1.000    3.600    1.400    7.600 
#    0.000    0.000    0.000    0.000    0.000    0.000 
#    0.000    4.800    0.000    0.000    0.000    0.000 
#
# Total GULP energy -222768.754225 kJ/mol
# GULP energy per Si atom -5569.218856 kJ/mol
# Density = 1.685562 g / cm^3
# Si number density = 16.894076 Si / 1000 Ang^3
#
#
#
# Elastic Constant Matrix: (Units=GPa)
#
#
# Indices 1 2 3 4 5 6 
#
# 1 45.0239 24.0181 18.0916 0.0000 0.0000 0.0000
# 2 24.0181 158.3553 34.3421 0.0000 0.0000 0.0000
# 3 18.0916 34.3421 77.6942 0.0000 0.0000 0.0000
# 4 0.0000 0.0000 0.0000 -10.1261 0.0000 0.0000
# 5 0.0000 0.0000 0.0000 0.0000 18.5059 0.0000
# 6 0.0000 0.0000 0.0000 0.0000 0.0000 3.2596
#
#
#
# Elastic Compliance Matrix: (Units=1/GPa)
#
#
# Indices 1 2 3 4 5 6 
#
# 1 0.025629 -0.002868 -0.004700 0.000000 0.000000 0.000000
# 2 -0.002868 0.007305 -0.002561 0.000000 0.000000 0.000000
# 3 -0.004700 -0.002561 0.015098 0.000000 0.000000 0.000000
# 4 0.000000 0.000000 0.000000 -0.098755 0.000000 0.000000
# 5 0.000000 0.000000 0.000000 0.000000 0.054037 0.000000
# 6 0.000000 0.000000 0.000000 0.000000 0.000000 0.306788
#
#
# Mechanical properties :
#
#
# Convention : Reuss Voigt Hill
#
# Bulk Modulus (GPa) = 36.00603 48.21967 42.11285
# Shear Modulus (GPa) = 14.72243 15.96933 15.34588
#
# Velocity S-wave (km/s) = 2.95525 3.07785 3.01717
# Velocity P-wave (km/s) = 5.74489 6.42146 6.09257
#
# Compressibility (1/GPa) = 0.02777312
#
# Stress axis : x y z
#
# Youngs Moduli (GPa) = 39.01840 136.88603 66.23578
#
# Poissons Ratio (x) = 0.39257 0.31132
# Poissons Ratio (y) = 0.11190 0.16965
# Poissons Ratio (z) = 0.18339 0.35060
#
# Static dielectric constant tensor:
#      x y z
#    x 1.574030 0.000000 0.000000 
#    y 0.000000 1.633440 0.000000 
#    z 0.000000 0.000000 1.598910 
# 
# From -- ./inp_files/32154.got.cif
#   From: 2010.05.17/outbox.cif.g08.bks.cpg/sg67_17_cif.got.tgz:32154.got - 2010.06.03 18:28:57.
