data_PCOD9501841
_publ_section_title
;
Structure prediction by ZEFSAII (Michael W. Deem and Ramdas Pophale) SiO2 
 PCOD9501841
Probable space group: C M M A
;
_chemical_formula_sum "Si O2"
_cell_formula_units_Z 80
_cell_length_a 25.020497
_cell_length_b 13.978650
_cell_length_c 9.733675
_cell_angle_alpha 90.000000
_cell_angle_beta 90.000000
_cell_angle_gamma 90.000000
_cell_volume 3404.379797
_symmetry_space_group_name_H-M "C M M A"
_symmetry_group_IT_number 67
_symmetry_cell_setting 'orthorhombic'
loop_
_space_group_symop_operation_xyz
x,y,z
-x,1/2-y,z
x,-y,-z
-x,1/2+y,-z
-x,-y,-z
x,1/2+y,-z
-x,y,z
x,1/2-y,z
1/2+x,1/2+y,z
1/2-x,-y,z
1/2+x,1/2-y,-z
1/2-x,y,-z
1/2-x,1/2-y,-z
1/2+x,y,-z
1/2-x,1/2+y,z
1/2+x,-y,z
loop_
_atom_site_type_symbol
_atom_site_label
_atom_site_fract_x
_atom_site_fract_y
_atom_site_fract_z
Si Si1 0.500000 0.133010 0.942005
Si Si2 0.273631 0.133998 0.850956
Si Si3 0.705712 0.403032 0.409214
Si Si4 0.500000 0.132965 0.256877
Si Si5 0.394509 0.866842 0.227427
Si Si6 0.410821 0.641605 0.537039
O O1 0.500000 0.250000 0.940459
O O2 0.444949 0.105050 0.865909
O O3 0.500000 0.100237 0.099957
O O4 0.273337 0.250000 0.837672
O O5 0.232697 0.093691 0.738438
O O6 0.335184 0.102502 0.822557
O O7 0.250000 0.111032 0.000000
O O8 0.697755 0.500000 0.500000
O O9 0.750000 0.349771 0.500000
O O10 0.648399 0.356869 0.402936
O O11 0.500000 0.250000 0.247365
O O12 0.550144 0.101116 0.348244
O O13 0.392582 0.750000 0.228472
O O14 0.405590 0.899829 0.383891
O O15 0.430385 0.750000 0.514046
#
# Coordination Sequence:
#
# PCOD9501841 Si02
#       6
#     8  16  16   8  16  16
#     4   9  17  29  47  79 124 152 183 240 309 377
#     4  10  21  36  60  93 124 156 201 258 318 372
#     4  11  23  39  58  85 122 161 207 249 304 372
#     4   9  19  31  52  87 117 151 193 251 315 358
#     4   9  17  30  50  79 115 154 189 237 304 367
#     4  10  19  34  58  85 115 153 203 254 304 361
#
# _framework density 23.499141999999999
#
# number of rings (size 3 to 8) (size 9 to 14) (size 15 to 20)
#    0.000    2.200    2.000    1.200    2.800    3.200 
#    0.000    2.500    0.000    0.000    0.000    2.100 
#    0.000    0.000    0.000    0.000    0.000    0.000 
#
# Total GULP energy -223487.811757 kJ/mol
# GULP energy per Si atom -5587.195294 kJ/mol
# Density = 2.344566 g / cm^3
# Si number density = 23.499142 Si / 1000 Ang^3
#
#
#
# Elastic Constant Matrix: (Units=GPa)
#
#
# Indices 1 2 3 4 5 6 
#
# 1 227.3673 24.3608 147.2773 0.0000 0.0000 0.0000
# 2 24.3608 79.1973 19.2227 0.0000 0.0000 0.0000
# 3 147.2773 19.2227 276.9727 0.0000 0.0000 0.0000
# 4 0.0000 0.0000 0.0000 3.1353 0.0000 0.0000
# 5 0.0000 0.0000 0.0000 0.0000 43.5989 0.0000
# 6 0.0000 0.0000 0.0000 0.0000 0.0000 19.1551
#
#
#
# Elastic Compliance Matrix: (Units=1/GPa)
#
#
# Indices 1 2 3 4 5 6 
#
# 1 0.006827 -0.001240 -0.003544 0.000000 0.000000 0.000000
# 2 -0.001240 0.013068 -0.000248 0.000000 0.000000 0.000000
# 3 -0.003544 -0.000248 0.005512 0.000000 0.000000 0.000000
# 4 0.000000 0.000000 0.000000 0.318953 0.000000 0.000000
# 5 0.000000 0.000000 0.000000 0.000000 0.022936 0.000000
# 6 0.000000 0.000000 0.000000 0.000000 0.000000 0.052205
#
#
# Mechanical properties :
#
#
# Convention : Reuss Voigt Hill
#
# Bulk Modulus (GPa) = 65.17165 107.25098 86.21131
# Shear Modulus (GPa) = 11.50273 39.35630 25.42952
#
# Velocity S-wave (km/s) = 2.21486 4.09687 3.29317
# Velocity P-wave (km/s) = 5.85957 8.25340 7.15728
#
# Compressibility (1/GPa) = 0.01534409
#
# Stress axis : x y z
#
# Youngs Moduli (GPa) = 146.48658 76.52189 181.41900
#
# Poissons Ratio (x) = 0.09486 0.64293
# Poissons Ratio (y) = 0.18159 0.04495
# Poissons Ratio (z) = 0.51914 0.01896
#
# Static dielectric constant tensor:
#      x y z
#    x 1.856950 0.000000 0.000000 
#    y 0.000000 1.982810 0.000000 
#    z 0.000000 0.000000 1.875340 
# 
# From -- ./inp_files/12350.got.cif
#   From: 2010.05.17/outbox.cif.g08.bks.cpg/sg67_7_cif.got.tgz:12350.got - 2010.06.03 18:28:57.
