data_PCOD9501813
_publ_section_title
;
Structure prediction by ZEFSAII (Michael W. Deem and Ramdas Pophale) SiO2 
 PCOD9501813
Probable space group: C M M A
;
_chemical_formula_sum "Si O2"
_cell_formula_units_Z 96
_cell_length_a 22.917198
_cell_length_b 14.396011
_cell_length_c 15.617313
_cell_angle_alpha 90.000000
_cell_angle_beta 90.000000
_cell_angle_gamma 90.000000
_cell_volume 5152.405098
_symmetry_space_group_name_H-M "C M M A"
_symmetry_group_IT_number 67
_symmetry_cell_setting 'orthorhombic'
loop_
_space_group_symop_operation_xyz
x,y,z
-x,1/2-y,z
x,-y,-z
-x,1/2+y,-z
-x,-y,-z
x,1/2+y,-z
-x,y,z
x,1/2-y,z
1/2+x,1/2+y,z
1/2-x,-y,z
1/2+x,1/2-y,-z
1/2-x,y,-z
1/2-x,1/2-y,-z
1/2+x,y,-z
1/2-x,1/2+y,z
1/2+x,-y,z
loop_
_atom_site_type_symbol
_atom_site_label
_atom_site_fract_x
_atom_site_fract_y
_atom_site_fract_z
Si Si1 0.859742 0.572432 0.076849
Si Si2 0.432858 0.250000 0.806176
Si Si3 0.252751 0.356278 0.822081
Si Si4 0.242707 0.645189 0.378720
Si Si5 0.152519 0.014327 0.409980
Si Si6 0.568582 0.750000 0.988168
Si Si7 0.374531 0.554614 0.222684
O O1 0.798564 0.610294 0.115819
O O2 0.897543 0.659259 0.044834
O O3 0.895013 0.517785 0.151264
O O4 0.849225 0.500000 0.000000
O O5 0.500000 0.250000 0.780911
O O6 0.404151 0.345046 0.774505
O O7 0.428426 0.250000 0.908926
O O8 0.269995 0.250000 0.844709
O O9 0.231765 0.355556 0.723486
O O10 0.309065 0.421861 0.812759
O O11 0.234619 0.750000 0.408048
O O12 0.198349 0.570399 0.414991
O O13 0.307492 0.607063 0.398976
O O14 0.122365 0.011132 0.317370
O O15 0.119082 0.000000 0.500000
O O16 0.500000 0.750000 0.964058
#
# Coordination Sequence:
#
# PCOD9501813 Si02
#       7
#    16   8  16  16  16   8  16
#     4  12  23  38  61  88 122 166 196 244 306 368
#     4  11  24  45  67  88 113 150 208 265 308 355
#     4  10  19  34  56  83 126 161 188 237 288 366
#     4   9  17  30  49  76 117 164 196 230 280 345
#     4  10  20  32  50  81 120 158 200 240 284 353
#     4  11  26  45  63  88 116 153 212 267 303 355
#     4  11  22  40  60  90 123 159 202 242 306 366
#
# _framework density 18.632076000000001
#
# number of rings (size 3 to 8) (size 9 to 14) (size 15 to 20)
#    0.000    1.500    5.000    1.500    1.167    3.667 
#    0.000    1.667    0.000    0.500    0.000    1.167 
#    0.000    0.000    0.000    0.000    0.000    0.000 
#
# Total GULP energy -267688.610630 kJ/mol
# GULP energy per Si atom -5576.846055 kJ/mol
# Density = 1.858967 g / cm^3
# Si number density = 18.632076 Si / 1000 Ang^3
#
#
#
# Elastic Constant Matrix: (Units=GPa)
#
#
# Indices 1 2 3 4 5 6 
#
# 1 51.1892 12.8713 24.5752 0.0000 0.0000 0.0000
# 2 12.8713 104.3221 31.4691 0.0000 0.0000 0.0000
# 3 24.5752 31.4691 132.5073 0.0000 0.0000 0.0000
# 4 0.0000 0.0000 0.0000 -2.3240 0.0000 0.0000
# 5 0.0000 0.0000 0.0000 0.0000 7.4346 0.0000
# 6 0.0000 0.0000 0.0000 0.0000 0.0000 -1.3040
#
#
#
# Elastic Compliance Matrix: (Units=1/GPa)
#
#
# Indices 1 2 3 4 5 6 
#
# 1 0.021682 -0.001575 -0.003647 0.000000 0.000000 0.000000
# 2 -0.001575 0.010440 -0.002187 0.000000 0.000000 0.000000
# 3 -0.003647 -0.002187 0.008743 0.000000 0.000000 0.000000
# 4 0.000000 0.000000 0.000000 -0.430291 0.000000 0.000000
# 5 0.000000 0.000000 0.000000 0.000000 0.134505 0.000000
# 6 0.000000 0.000000 0.000000 0.000000 0.000000 -0.766879
#
#
# Mechanical properties :
#
#
# Convention : Reuss Voigt Hill
#
# Bulk Modulus (GPa) = 38.39378 47.31664 42.85521
# Shear Modulus (GPa) = -5.00852 15.36819 5.17984
#
# Velocity S-wave (km/s) = -1.64133 2.87509 1.66916
# Velocity P-wave (km/s) = 4.13026 6.03920 5.17354
#
# Compressibility (1/GPa) = 0.02604589
#
# Stress axis : x y z
#
# Youngs Moduli (GPa) = 46.12041 95.78719 114.38202
#
# Poissons Ratio (x) = 0.15086 0.41718
# Poissons Ratio (y) = 0.07264 0.25018
# Poissons Ratio (z) = 0.16821 0.20951
#
# Static dielectric constant tensor:
#      x y z
#    x 1.631470 0.000000 0.000000 
#    y 0.000000 1.668450 0.000000 
#    z 0.000000 0.000000 1.711170 
# 
# From -- ./inp_files/30086.got.cif
#   From: 2010.05.17/outbox.cif.g08.bks.cpg/sg67_16_cif.got.tgz:30086.got - 2010.06.03 18:28:57.
