data_PCOD9501613
_publ_section_title
;
Structure prediction by ZEFSAII (Michael W. Deem and Ramdas Pophale) SiO2 
 PCOD9501613
Probable space group: C M M A
;
_chemical_formula_sum "Si O2"
_cell_formula_units_Z 104
_cell_length_a 26.915469
_cell_length_b 7.826717
_cell_length_c 22.888939
_cell_angle_alpha 90.000000
_cell_angle_beta 90.000000
_cell_angle_gamma 90.000000
_cell_volume 4821.778369
_symmetry_space_group_name_H-M "C M M A"
_symmetry_group_IT_number 67
_symmetry_cell_setting 'orthorhombic'
loop_
_space_group_symop_operation_xyz
x,y,z
-x,1/2-y,z
x,-y,-z
-x,1/2+y,-z
-x,-y,-z
x,1/2+y,-z
-x,y,z
x,1/2-y,z
1/2+x,1/2+y,z
1/2-x,-y,z
1/2+x,1/2-y,-z
1/2-x,y,-z
1/2-x,1/2-y,-z
1/2+x,y,-z
1/2-x,1/2+y,z
1/2+x,-y,z
loop_
_atom_site_type_symbol
_atom_site_label
_atom_site_fract_x
_atom_site_fract_y
_atom_site_fract_z
Si Si1 0.161461 0.540967 0.223624
Si Si2 0.107407 0.456355 0.568265
Si Si3 0.445730 0.551464 0.811457
Si Si4 0.304956 0.044511 0.349582
Si Si5 0.804832 0.046123 0.903456
Si Si6 0.586959 0.554489 0.063882
Si Si7 0.000000 0.455355 0.568803
O O1 0.160761 0.750000 0.223585
O O2 0.104330 0.479834 0.217621
O O3 0.185897 0.481599 0.283522
O O4 0.189939 0.490490 0.164580
O O5 0.112935 0.500000 0.500000
O O6 0.106948 0.250000 0.571992
O O7 0.152524 0.521106 0.607235
O O8 0.053353 0.518695 0.590637
O O9 0.500000 0.474839 0.799181
O O10 0.447732 0.750000 0.793722
O O11 0.435124 0.545697 0.881059
O O12 0.308938 0.250000 0.347866
O O13 0.250000 0.000000 0.369655
O O14 0.810873 0.250000 0.906843
O O15 0.750000 0.000000 0.925228
O O16 0.853063 0.966378 0.933910
O O17 0.573959 0.750000 0.073957
O O18 0.569540 0.500000 0.000000
O O19 0.000000 0.500000 0.500000
O O20 0.000000 0.250000 0.575195
#
# Coordination Sequence:
#
# PCOD9501613 Si02
#       7
#    16  16  16  16  16  16   8
#     4   8  16  32  52  75 103 132 168 210 254 308
#     4   9  18  32  51  74 103 136 175 218 263 314
#     4   9  18  35  57  79 104 134 167 209 261 313
#     4  10  20  34  51  75 106 139 176 217 260 312
#     4  10  19  33  53  76 102 133 171 213 260 313
#     4  11  22  36  53  75 104 137 173 213 257 306
#     4   8  14  28  48  70  94 126 164 208 255 300
#
# _framework density 21.568807
#
# number of rings (size 3 to 8) (size 9 to 14) (size 15 to 20)
#    0.000    2.615    0.000    3.231    0.000    1.846 
#    1.385    6.154    0.000    0.000    0.000    0.000 
#    0.000    0.000    0.000    0.000    0.000    0.000 
#
# Total GULP energy -290195.218171 kJ/mol
# GULP energy per Si atom -5580.677273 kJ/mol
# Density = 2.151972 g / cm^3
# Si number density = 21.568807 Si / 1000 Ang^3
#
#
#
# Elastic Constant Matrix: (Units=GPa)
#
#
# Indices 1 2 3 4 5 6 
#
# 1 143.4160 -7.6060 29.2036 0.0000 0.0000 0.0000
# 2 -7.6060 35.9442 -4.5858 0.0000 0.0000 0.0000
# 3 29.2036 -4.5858 59.2923 0.0000 0.0000 0.0000
# 4 0.0000 0.0000 0.0000 11.9899 0.0000 0.0000
# 5 0.0000 0.0000 0.0000 0.0000 -32.4857 0.0000
# 6 0.0000 0.0000 0.0000 0.0000 0.0000 14.4478
#
#
#
# Elastic Compliance Matrix: (Units=1/GPa)
#
#
# Indices 1 2 3 4 5 6 
#
# 1 0.007799 0.001172 -0.003750 0.000000 0.000000 0.000000
# 2 0.001172 0.028274 0.001610 0.000000 0.000000 0.000000
# 3 -0.003750 0.001610 0.018837 0.000000 0.000000 0.000000
# 4 0.000000 0.000000 0.000000 0.083403 0.000000 0.000000
# 5 0.000000 0.000000 0.000000 0.000000 -0.030783 0.000000
# 6 0.000000 0.000000 0.000000 0.000000 0.000000 0.069215
#
#
# Mechanical properties :
#
#
# Convention : Reuss Voigt Hill
#
# Bulk Modulus (GPa) = 18.87790 30.29735 24.58762
# Shear Modulus (GPa) = 25.46590 13.56645 19.51618
#
# Velocity S-wave (km/s) = 3.43983 2.51068 3.01131
# Velocity P-wave (km/s) = 4.95459 4.74152 4.84923
#
# Compressibility (1/GPa) = 0.05297201
#
# Stress axis : x y z
#
# Youngs Moduli (GPa) = 128.22866 35.36789 53.08613
#
# Poissons Ratio (x) = -0.04144 0.19910
# Poissons Ratio (y) = -0.15025 -0.08545
# Poissons Ratio (z) = 0.48092 -0.05693
#
# Static dielectric constant tensor:
#      x y z
#    x 1.814840 0.000000 0.000000 
#    y 0.000000 1.830380 0.000000 
#    z 0.000000 0.000000 1.756380 
# 
# From -- ./inp_files/40222.got.cif
#   From: 2010.05.17/outbox.cif.g08.bks.cpg/sg67_21_cif.got.tgz:40222.got - 2010.06.03 18:28:57.
