data_PCOD9501298
_publ_section_title
;
Structure prediction by ZEFSAII (Michael W. Deem and Ramdas Pophale) SiO2 
 PCOD9501298
Probable space group: C M M A
;
_chemical_formula_sum "Si O2"
_cell_formula_units_Z 112
_cell_length_a 30.260579
_cell_length_b 15.431454
_cell_length_c 12.312821
_cell_angle_alpha 90.000000
_cell_angle_beta 90.000000
_cell_angle_gamma 90.000000
_cell_volume 5749.653169
_symmetry_space_group_name_H-M "C M M A"
_symmetry_group_IT_number 67
_symmetry_cell_setting 'orthorhombic'
loop_
_space_group_symop_operation_xyz
x,y,z
-x,1/2-y,z
x,-y,-z
-x,1/2+y,-z
-x,-y,-z
x,1/2+y,-z
-x,y,z
x,1/2-y,z
1/2+x,1/2+y,z
1/2-x,-y,z
1/2+x,1/2-y,-z
1/2-x,y,-z
1/2-x,1/2-y,-z
1/2+x,y,-z
1/2-x,1/2+y,z
1/2+x,-y,z
loop_
_atom_site_type_symbol
_atom_site_label
_atom_site_fract_x
_atom_site_fract_y
_atom_site_fract_z
Si Si1 0.863344 0.609411 0.384037
Si Si2 0.372573 0.097175 0.966149
Si Si3 0.050931 0.044014 0.193886
Si Si4 0.261311 0.147599 0.381668
Si Si5 0.918902 0.345312 0.823663
Si Si6 0.383257 0.591771 0.372850
Si Si7 0.691366 0.152929 0.781979
O O1 0.813490 0.640423 0.370120
O O2 0.892678 0.649356 0.289387
O O3 0.883063 0.625459 0.504188
O O4 0.863184 0.505288 0.372040
O O5 0.416782 0.090852 0.891933
O O6 0.331030 0.122143 0.892784
O O7 0.385350 0.149012 0.074079
O O8 0.363425 0.000000 0.000000
O O9 0.070597 0.075773 0.310053
O O10 0.000000 0.066871 0.180799
O O11 0.055861 0.939030 0.176504
O O12 0.249252 0.250000 0.386580
O O13 0.250000 0.109412 0.500000
O O14 0.232028 0.109580 0.283241
O O15 0.941427 0.250000 0.829847
O O16 0.349568 0.648525 0.302633
O O17 0.705716 0.250000 0.805587
#
# Coordination Sequence:
#
# PCOD9501298 Si02
#       7
#    16  16  16  16  16  16  16
#     4  10  19  34  51  76 112 146 181 215 262 317
#     4   9  19  36  57  77 106 145 187 227 268 327
#     4   9  19  37  60  81 102 134 179 230 276 323
#     4  10  19  31  51  82 112 140 177 224 269 310
#     4  10  20  33  53  80 109 145 180 217 270 328
#     4   9  19  34  53  78 106 142 179 217 268 324
#     4  10  19  33  54  80 109 142 181 225 273 317
#
# _framework density 19.479436
#
# number of rings (size 3 to 8) (size 9 to 14) (size 15 to 20)
#    0.000    2.429    1.429    1.714    0.000    4.000 
#    0.000    6.429    0.000   17.143    0.000    0.000 
#    0.000    0.000    0.000    0.000    0.000    0.000 
#
# Total GULP energy -311803.276731 kJ/mol
# GULP energy per Si atom -5567.915656 kJ/mol
# Density = 1.943510 g / cm^3
# Si number density = 19.479436 Si / 1000 Ang^3
#
#
#
# Elastic Constant Matrix: (Units=GPa)
#
#
# Indices 1 2 3 4 5 6 
#
# 1 23.8530 5.1160 34.5035 0.0000 0.0000 0.0000
# 2 5.1160 33.9032 17.2330 0.0000 0.0000 0.0000
# 3 34.5035 17.2330 128.5423 0.0000 0.0000 0.0000
# 4 0.0000 0.0000 0.0000 -6.5055 0.0000 0.0000
# 5 0.0000 0.0000 0.0000 0.0000 13.3656 0.0000
# 6 0.0000 0.0000 0.0000 0.0000 0.0000 -14.7284
#
#
#
# Elastic Compliance Matrix: (Units=1/GPa)
#
#
# Indices 1 2 3 4 5 6 
#
# 1 0.068569 -0.001064 -0.018263 0.000000 0.000000 0.000000
# 2 -0.001064 0.031669 -0.003960 0.000000 0.000000 0.000000
# 3 -0.018263 -0.003960 0.013213 0.000000 0.000000 0.000000
# 4 0.000000 0.000000 0.000000 -0.153716 0.000000 0.000000
# 5 0.000000 0.000000 0.000000 0.000000 0.074819 0.000000
# 6 0.000000 0.000000 0.000000 0.000000 0.000000 -0.067896
#
#
# Mechanical properties :
#
#
# Convention : Reuss Voigt Hill
#
# Bulk Modulus (GPa) = 14.95292 33.33373 24.14333
# Shear Modulus (GPa) = 140.74982 7.05605 73.90294
#
# Velocity S-wave (km/s) = 8.50955 1.90530 6.16614
# Velocity P-wave (km/s) = 10.20994 4.68931 7.94457
#
# Compressibility (1/GPa) = 0.06687656
#
# Stress axis : x y z
#
# Youngs Moduli (GPa) = 14.58394 31.57640 75.68581
#
# Poissons Ratio (x) = 0.03360 1.38222
# Poissons Ratio (y) = 0.01552 0.29972
# Poissons Ratio (z) = 0.26634 0.12504
#
# Static dielectric constant tensor:
#      x y z
#    x 1.648740 0.000000 0.000000 
#    y 0.000000 1.732090 0.000000 
#    z 0.000000 0.000000 1.746680 
# 
# From -- ./inp_files/23807.got.cif
#   From: 2010.05.17/outbox.cif.g08.bks.cpg/sg67_12_cif.got.tgz:23807.got - 2010.06.03 18:28:57.
