data_PCOD9501942
_publ_section_title
;
Structure prediction by ZEFSAII (Michael W. Deem and Ramdas Pophale) SiO2 
 PCOD9501942
Probable space group: C M M A
;
_chemical_formula_sum "Si O2"
_cell_formula_units_Z 100
_cell_length_a 19.835813
_cell_length_b 14.883714
_cell_length_c 18.187899
_cell_angle_alpha 90.000000
_cell_angle_beta 90.000000
_cell_angle_gamma 90.000000
_cell_volume 5369.623746
_symmetry_space_group_name_H-M "C M M A"
_symmetry_group_IT_number 67
_symmetry_cell_setting 'orthorhombic'
loop_
_space_group_symop_operation_xyz
x,y,z
-x,1/2-y,z
x,-y,-z
-x,1/2+y,-z
-x,-y,-z
x,1/2+y,-z
-x,y,z
x,1/2-y,z
1/2+x,1/2+y,z
1/2-x,-y,z
1/2+x,1/2-y,-z
1/2-x,y,-z
1/2-x,1/2-y,-z
1/2+x,y,-z
1/2-x,1/2+y,z
1/2+x,-y,z
loop_
_atom_site_type_symbol
_atom_site_label
_atom_site_fract_x
_atom_site_fract_y
_atom_site_fract_z
Si Si1 0.682620 0.443960 0.323112
Si Si2 0.825968 0.480876 0.849302
Si Si3 0.698221 0.750000 0.607146
Si Si4 0.646893 0.250000 0.554762
Si Si5 0.420715 0.645853 0.186053
Si Si6 0.078412 0.908711 0.642564
Si Si7 0.500000 0.750000 0.018820
Si Si8 0.571931 0.910301 0.953084
O O1 0.750000 0.500000 0.343836
O O2 0.677870 0.448183 0.234802
O O3 0.685342 0.341989 0.349429
O O4 0.620498 0.499554 0.356405
O O5 0.750000 0.500000 0.874888
O O6 0.871220 0.571866 0.847998
O O7 0.865501 0.409299 0.898866
O O8 0.654453 0.750000 0.532745
O O9 0.777065 0.750000 0.585710
O O10 0.609442 0.337276 0.586408
O O11 0.500000 0.632738 0.165808
O O12 0.405115 0.750000 0.169234
O O13 0.415758 0.632020 0.274515
O O14 0.000000 0.923383 0.627711
O O15 0.558171 0.828288 0.007301
O O16 0.500000 0.914379 0.909496
O O17 0.578003 0.000000 0.000000
#
# Coordination Sequence:
#
# PCOD9501942 Si02
#       8
#    16  16   8   8  16  16   4  16
#     4  10  21  40  59  82 120 155 199 243 290 364
#     4  10  21  35  56  89 122 158 187 238 300 346
#     4  11  24  39  58  84 111 159 199 250 291 360
#     4  11  21  36  60  87 111 145 209 250 301 351
#     4   9  17  32  55  83 111 148 198 239 288 343
#     4  10  19  35  60  83 111 148 186 251 305 349
#     4   8  18  38  64  86 106 164 196 224 292 328
#     4   9  19  39  62  87 117 154 199 242 275 345
#
# _framework density 18.623277999999999
#
# number of rings (size 3 to 8) (size 9 to 14) (size 15 to 20)
#    0.480    1.760    2.400    0.720    0.000    2.240 
#    2.880    2.800    0.000    0.960    0.000    0.000 
#    0.000    0.000    0.000    0.000    0.000    0.000 
#
# Total GULP energy -278411.615100 kJ/mol
# GULP energy per Si atom -5568.232302 kJ/mol
# Density = 1.858089 g / cm^3
# Si number density = 18.623278 Si / 1000 Ang^3
#
#
#
# Elastic Constant Matrix: (Units=GPa)
#
#
# Indices 1 2 3 4 5 6 
#
# 1 108.2340 34.9050 40.8340 0.0000 0.0000 0.0000
# 2 34.9050 141.7345 39.1855 0.0000 0.0000 0.0000
# 3 40.8340 39.1855 52.0761 0.0000 0.0000 0.0000
# 4 0.0000 0.0000 0.0000 -46.2381 0.0000 0.0000
# 5 0.0000 0.0000 0.0000 0.0000 26.6294 0.0000
# 6 0.0000 0.0000 0.0000 0.0000 0.0000 30.6307
#
#
#
# Elastic Compliance Matrix: (Units=1/GPa)
#
#
# Indices 1 2 3 4 5 6 
#
# 1 0.013148 -0.000489 -0.009941 0.000000 0.000000 0.000000
# 2 -0.000489 0.008927 -0.006333 0.000000 0.000000 0.000000
# 3 -0.009941 -0.006333 0.031763 0.000000 0.000000 0.000000
# 4 0.000000 0.000000 0.000000 -0.021627 0.000000 0.000000
# 5 0.000000 0.000000 0.000000 0.000000 0.037552 0.000000
# 6 0.000000 0.000000 0.000000 0.000000 0.000000 0.032647
#
#
# Mechanical properties :
#
#
# Convention : Reuss Voigt Hill
#
# Bulk Modulus (GPa) = 49.23668 59.09929 54.16798
# Shear Modulus (GPa) = 35.03656 14.67908 24.85782
#
# Velocity S-wave (km/s) = 4.34214 2.81056 3.65742
# Velocity P-wave (km/s) = 7.18572 6.50656 6.85455
#
# Compressibility (1/GPa) = 0.02031006
#
# Stress axis : x y z
#
# Youngs Moduli (GPa) = 76.05956 112.01962 31.48281
#
# Poissons Ratio (x) = 0.05483 0.31297
# Poissons Ratio (y) = 0.03723 0.19940
# Poissons Ratio (z) = 0.75611 0.70947
#
# Static dielectric constant tensor:
#      x y z
#    x 1.650410 0.000000 0.000000 
#    y 0.000000 1.635430 0.000000 
#    z 0.000000 0.000000 1.680410 
# 
# From -- ./inp_files/39024.got.cif
#   From: 2010.05.17/outbox.cif.g08.bks.cpg/sg67_20_cif.got.tgz:39024.got - 2010.06.03 18:28:57.
