data_PCOD9501083
_publ_section_title
;
Structure prediction by ZEFSAII (Michael W. Deem and Ramdas Pophale) SiO2 
 PCOD9501083
Probable space group: C M M A
;
_chemical_formula_sum "Si O2"
_cell_formula_units_Z 80
_cell_length_a 14.817440
_cell_length_b 9.058978
_cell_length_c 27.619510
_cell_angle_alpha 90.000000
_cell_angle_beta 90.000000
_cell_angle_gamma 90.000000
_cell_volume 3707.390662
_symmetry_space_group_name_H-M "C M M A"
_symmetry_group_IT_number 67
_symmetry_cell_setting 'orthorhombic'
loop_
_space_group_symop_operation_xyz
x,y,z
-x,1/2-y,z
x,-y,-z
-x,1/2+y,-z
-x,-y,-z
x,1/2+y,-z
-x,y,z
x,1/2-y,z
1/2+x,1/2+y,z
1/2-x,-y,z
1/2+x,1/2-y,-z
1/2-x,y,-z
1/2-x,1/2-y,-z
1/2+x,y,-z
1/2-x,1/2+y,z
1/2+x,-y,z
loop_
_atom_site_type_symbol
_atom_site_label
_atom_site_fract_x
_atom_site_fract_y
_atom_site_fract_z
Si Si1 0.850023 0.072960 0.154129
Si Si2 0.110657 0.416435 0.451427
Si Si3 0.150068 0.573192 0.952619
Si Si4 0.348968 0.071644 0.249175
Si Si5 0.893498 0.085908 0.642711
O O1 0.843059 0.250000 0.160812
O O2 0.890938 0.046711 0.100743
O O3 0.750000 0.000000 0.151710
O O4 0.893697 0.998561 0.201332
O O5 0.138023 0.500000 0.500000
O O6 0.142316 0.250000 0.453927
O O7 0.141667 0.488495 0.401175
O O8 0.000000 0.415461 0.451247
O O9 0.157047 0.750000 0.959000
O O10 0.250000 0.500000 0.950529
O O11 0.106368 0.500000 0.000000
O O12 0.348273 0.250000 0.244795
O O13 0.386046 0.031871 0.302142
O O14 0.250000 0.000000 0.249819
O O15 0.852532 0.250000 0.641101
O O16 0.000000 0.099158 0.633484
#
# Coordination Sequence:
#
# PCOD9501083 Si02
#       5
#    16  16  16  16  16
#     4   9  16  25  37  54  78 108 142 177 212 255
#     4   9  16  26  43  67  92 117 144 176 216 259
#     4   9  15  21  31  48  71 101 134 170 211 252
#     4  10  19  30  46  65  87 118 150 181 217 257
#     4   9  18  32  48  67  91 117 147 182 217 255
#
# _framework density 21.578519
#
# number of rings (size 3 to 8) (size 9 to 14) (size 15 to 20)
#    0.000    2.800    0.000    4.200    0.000    6.400 
#    0.000    0.000    0.000    0.600    0.000    4.200 
#    0.000    0.800    0.000    1.800    0.000    8.200 
#
# Total GULP energy -222907.520028 kJ/mol
# GULP energy per Si atom -5572.688001 kJ/mol
# Density = 2.152940 g / cm^3
# Si number density = 21.578519 Si / 1000 Ang^3
#
#
#
# Elastic Constant Matrix: (Units=GPa)
#
#
# Indices 1 2 3 4 5 6 
#
# 1 46.1501 11.9014 9.2083 0.0000 0.0000 0.0000
# 2 11.9014 130.1205 128.5773 0.0000 0.0000 0.0000
# 3 9.2083 128.5773 273.8639 0.0000 0.0000 0.0000
# 4 0.0000 0.0000 0.0000 47.0183 0.0000 0.0000
# 5 0.0000 0.0000 0.0000 0.0000 12.4131 0.0000
# 6 0.0000 0.0000 0.0000 0.0000 0.0000 -3.5983
#
#
#
# Elastic Compliance Matrix: (Units=1/GPa)
#
#
# Indices 1 2 3 4 5 6 
#
# 1 0.022214 -0.002413 0.000386 0.000000 0.000000 0.000000
# 2 -0.002413 0.014598 -0.006773 0.000000 0.000000 0.000000
# 3 0.000386 -0.006773 0.006818 0.000000 0.000000 0.000000
# 4 0.000000 0.000000 0.000000 0.021268 0.000000 0.000000
# 5 0.000000 0.000000 0.000000 0.000000 0.080560 0.000000
# 6 0.000000 0.000000 0.000000 0.000000 0.000000 -0.277911
#
#
# Mechanical properties :
#
#
# Convention : Reuss Voigt Hill
#
# Bulk Modulus (GPa) = 38.41644 83.27871 60.84757
# Shear Modulus (GPa) = -47.09156 31.19646 -7.94755
#
# Velocity S-wave (km/s) = -4.67662 3.80639 -1.92122
# Velocity P-wave (km/s) = 3.36441 7.61546 4.83094
#
# Compressibility (1/GPa) = 0.02603052
#
# Stress axis : x y z
#
# Youngs Moduli (GPa) = 45.01715 68.50154 146.66698
#
# Poissons Ratio (x) = 0.16532 -0.05663
# Poissons Ratio (y) = 0.10864 0.99332
# Poissons Ratio (z) = -0.01738 0.46393
#
# Static dielectric constant tensor:
#      x y z
#    x 1.853220 0.000000 0.000000 
#    y 0.000000 1.746870 0.000000 
#    z 0.000000 0.000000 1.867500 
# 
# From -- ./inp_files/44435.got.cif
#   From: 2010.05.17/outbox.cif.g08.bks.cpg/sg67_23_cif.got.tgz:44435.got - 2010.06.03 18:28:57.
