data_PCOD9501399
_publ_section_title
;
Structure prediction by ZEFSAII (Michael W. Deem and Ramdas Pophale) SiO2 
 PCOD9501399
Probable space group: C M M A
;
_chemical_formula_sum "Si O2"
_cell_formula_units_Z 80
_cell_length_a 7.752571
_cell_length_b 18.711374
_cell_length_c 27.332626
_cell_angle_alpha 90.000000
_cell_angle_beta 90.000000
_cell_angle_gamma 90.000000
_cell_volume 3964.905042
_symmetry_space_group_name_H-M "C M M A"
_symmetry_group_IT_number 67
_symmetry_cell_setting 'orthorhombic'
loop_
_space_group_symop_operation_xyz
x,y,z
-x,1/2-y,z
x,-y,-z
-x,1/2+y,-z
-x,-y,-z
x,1/2+y,-z
-x,y,z
x,1/2-y,z
1/2+x,1/2+y,z
1/2-x,-y,z
1/2+x,1/2-y,-z
1/2-x,y,-z
1/2-x,1/2-y,-z
1/2+x,y,-z
1/2-x,1/2+y,z
1/2+x,-y,z
loop_
_atom_site_type_symbol
_atom_site_label
_atom_site_fract_x
_atom_site_fract_y
_atom_site_fract_z
Si Si1 0.706682 0.832431 0.552259
Si Si2 0.710563 0.833738 0.658920
Si Si3 0.707512 0.083225 0.245576
Si Si4 0.703905 0.583439 0.945168
Si Si5 0.211728 0.167570 0.850711
O O1 0.500000 0.829760 0.554320
O O2 0.771466 0.750000 0.550581
O O3 0.750000 0.866902 0.500000
O O4 0.766269 0.860985 0.605024
O O5 0.500000 0.835386 0.659589
O O6 0.758365 0.750000 0.663767
O O7 0.772818 0.879538 0.704758
O O8 0.500000 0.090135 0.245945
O O9 0.769291 0.123991 0.197029
O O10 0.750000 0.000000 0.243854
O O11 0.500000 0.587939 0.941818
O O12 0.750000 0.500000 0.940010
O O13 0.774821 0.629800 0.900406
O O14 0.750000 0.607224 0.000000
O O15 0.263963 0.250000 0.848239
O O16 0.000000 0.166505 0.850886
#
# Coordination Sequence:
#
# PCOD9501399 Si02
#       5
#    16  16  16  16  16
#     4   8  13  22  38  62  89 114 144 183 225 268
#     4   8  14  26  46  69  90 117 155 192 224 267
#     4  10  19  32  51  71  93 121 153 191 233 278
#     4  10  19  32  51  73  99 129 160 193 228 272
#     4   9  18  32  51  74  96 121 157 197 233 272
#
# _framework density 20.177026999999999
#
# number of rings (size 3 to 8) (size 9 to 14) (size 15 to 20)
#    0.000    3.000    0.000    3.600    0.000    2.800 
#    0.000    2.000    0.000    8.400    0.000    4.200 
#    0.000    0.000    0.000    0.000    0.000    0.000 
#
# Total GULP energy -222966.252912 kJ/mol
# GULP energy per Si atom -5574.156323 kJ/mol
# Density = 2.013110 g / cm^3
# Si number density = 20.177027 Si / 1000 Ang^3
#
#
#
# Elastic Constant Matrix: (Units=GPa)
#
#
# Indices 1 2 3 4 5 6 
#
# 1 27.4722 0.8300 12.8495 0.0000 0.0000 0.0000
# 2 0.8300 106.4086 119.6712 0.0000 0.0000 0.0000
# 3 12.8495 119.6712 269.3855 0.0000 0.0000 0.0000
# 4 0.0000 0.0000 0.0000 -7.4063 0.0000 0.0000
# 5 0.0000 0.0000 0.0000 0.0000 26.1819 0.0000
# 6 0.0000 0.0000 0.0000 0.0000 0.0000 13.5543
#
#
#
# Elastic Compliance Matrix: (Units=1/GPa)
#
#
# Indices 1 2 3 4 5 6 
#
# 1 0.037861 0.003469 -0.003347 0.000000 0.000000 0.000000
# 2 0.003469 0.019098 -0.008650 0.000000 0.000000 0.000000
# 3 -0.003347 -0.008650 0.007714 0.000000 0.000000 0.000000
# 4 0.000000 0.000000 0.000000 -0.135020 0.000000 0.000000
# 5 0.000000 0.000000 0.000000 0.000000 0.038194 0.000000
# 6 0.000000 0.000000 0.000000 0.000000 0.000000 0.073777
#
#
# Mechanical properties :
#
#
# Convention : Reuss Voigt Hill
#
# Bulk Modulus (GPa) = 21.00039 74.44085 47.72062
# Shear Modulus (GPa) = 67.06529 24.46035 45.76282
#
# Velocity S-wave (km/s) = 5.77153 3.48557 4.76759
# Velocity P-wave (km/s) = 7.40573 7.29197 7.34907
#
# Compressibility (1/GPa) = 0.04761815
#
# Stress axis : x y z
#
# Youngs Moduli (GPa) = 26.41232 52.36015 129.62891
#
# Poissons Ratio (x) = -0.18162 0.43385
# Poissons Ratio (y) = -0.09162 1.12125
# Poissons Ratio (z) = 0.08840 0.45290
#
# Static dielectric constant tensor:
#      x y z
#    x 1.755530 0.000000 0.000000 
#    y 0.000000 1.680960 0.000000 
#    z 0.000000 0.000000 1.769640 
# 
# From -- ./inp_files/43246.got.cif
#   From: 2010.05.17/outbox.cif.g08.bks.cpg/sg67_22_cif.got.tgz:43246.got - 2010.06.03 18:28:57.
