data_PCOD9501577
_publ_section_title
;
Structure prediction by ZEFSAII (Michael W. Deem and Ramdas Pophale) SiO2 
 PCOD9501577
Probable space group: C M M A
;
_chemical_formula_sum "Si O2"
_cell_formula_units_Z 128
_cell_length_a 16.209674
_cell_length_b 26.037128
_cell_length_c 17.502544
_cell_angle_alpha 90.000000
_cell_angle_beta 90.000000
_cell_angle_gamma 90.000000
_cell_volume 7387.007447
_symmetry_space_group_name_H-M "C M M A"
_symmetry_group_IT_number 67
_symmetry_cell_setting 'orthorhombic'
loop_
_space_group_symop_operation_xyz
x,y,z
-x,1/2-y,z
x,-y,-z
-x,1/2+y,-z
-x,-y,-z
x,1/2+y,-z
-x,y,z
x,1/2-y,z
1/2+x,1/2+y,z
1/2-x,-y,z
1/2+x,1/2-y,-z
1/2-x,y,-z
1/2-x,1/2-y,-z
1/2+x,y,-z
1/2-x,1/2+y,z
1/2+x,-y,z
loop_
_atom_site_type_symbol
_atom_site_label
_atom_site_fract_x
_atom_site_fract_y
_atom_site_fract_z
Si Si1 0.904584 0.806104 0.098375
Si Si2 0.900900 0.946059 0.340057
Si Si3 0.348284 0.059211 0.502459
Si Si4 0.671082 0.689780 0.055355
Si Si5 0.599144 0.435321 0.667210
Si Si6 0.900803 0.596023 0.183413
Si Si7 0.849197 0.497110 0.088693
Si Si8 0.900864 0.891657 0.830023
O O1 0.866216 0.750000 0.112309
O O2 0.865914 0.852987 0.144223
O O3 0.000000 0.803144 0.120529
O O4 0.900473 0.815983 0.008074
O O5 0.878127 0.920966 0.420773
O O6 0.869183 0.913976 0.268415
O O7 0.000000 0.948894 0.336292
O O8 0.869932 0.005132 0.330265
O O9 0.250000 0.058054 0.500000
O O10 0.376235 0.083388 0.582417
O O11 0.380359 0.000000 0.500000
O O12 0.675811 0.750000 0.077342
O O13 0.650155 0.652284 0.125155
O O14 0.750000 0.677694 0.000000
O O15 0.500000 0.437341 0.670514
O O16 0.624665 0.402909 0.741660
O O17 0.882576 0.546286 0.133210
O O18 0.000000 0.600626 0.187181
O O19 0.750000 0.500000 0.093438
O O20 0.882984 0.445150 0.126235
O O21 0.873081 0.500000 0.000000
O O22 0.000000 0.881038 0.832094
#
# Coordination Sequence:
#
# PCOD9501577 Si02
#       8
#    16  16  16  16  16  16  16  16
#     4   9  18  33  53  74  96 128 173 220 257 296
#     4   9  16  29  46  66  95 132 167 201 249 309
#     4   9  17  28  44  68  96 129 168 205 253 306
#     4  10  22  38  56  77 103 135 177 225 271 314
#     4   9  17  31  47  69  99 133 171 213 257 312
#     4  10  19  33  51  72 100 134 172 211 255 310
#     4  11  24  34  46  70 104 142 174 212 261 320
#     4  11  22  36  55  77 104 139 180 221 267 323
#
# _framework density 17.327719999999999
#
# number of rings (size 3 to 8) (size 9 to 14) (size 15 to 20)
#    0.000    2.250    1.250    1.875    3.500    5.250 
#    0.000    0.000    0.000    0.000    0.000    0.875 
#    0.000    5.000    0.000    0.000    0.000    0.000 
#
# Total GULP energy -356595.536909 kJ/mol
# GULP energy per Si atom -5571.805264 kJ/mol
# Density = 1.728828 g / cm^3
# Si number density = 17.327720 Si / 1000 Ang^3
#
#
#
# Elastic Constant Matrix: (Units=GPa)
#
#
# Indices 1 2 3 4 5 6 
#
# 1 31.2244 15.6744 23.1797 0.0000 0.0000 0.0000
# 2 15.6744 93.3060 74.8631 0.0000 0.0000 0.0000
# 3 23.1797 74.8631 176.8479 0.0000 0.0000 0.0000
# 4 0.0000 0.0000 0.0000 -16.9781 0.0000 0.0000
# 5 0.0000 0.0000 0.0000 0.0000 14.2067 0.0000
# 6 0.0000 0.0000 0.0000 0.0000 0.0000 186.8950
#
#
#
# Elastic Compliance Matrix: (Units=1/GPa)
#
#
# Indices 1 2 3 4 5 6 
#
# 1 0.036195 -0.003444 -0.003286 0.000000 0.000000 0.000000
# 2 -0.003444 0.016557 -0.006558 0.000000 0.000000 0.000000
# 3 -0.003286 -0.006558 0.008861 0.000000 0.000000 0.000000
# 4 0.000000 0.000000 0.000000 -0.058899 0.000000 0.000000
# 5 0.000000 0.000000 0.000000 0.000000 0.070389 0.000000
# 6 0.000000 0.000000 0.000000 0.000000 0.000000 0.005351
#
#
# Mechanical properties :
#
#
# Convention : Reuss Voigt Hill
#
# Bulk Modulus (GPa) = 28.54036 58.75698 43.64867
# Shear Modulus (GPa) = 42.84184 49.33546 46.08865
#
# Velocity S-wave (km/s) = 4.97776 5.34170 5.16294
# Velocity P-wave (km/s) = 7.03876 8.48693 7.79654
#
# Compressibility (1/GPa) = 0.03503810
#
# Stress axis : x y z
#
# Youngs Moduli (GPa) = 27.62845 60.39588 112.84976
#
# Poissons Ratio (x) = 0.20797 0.37087
# Poissons Ratio (y) = 0.09514 0.74004
# Poissons Ratio (z) = 0.09080 0.39606
#
# Static dielectric constant tensor:
#      x y z
#    x 1.653530 0.000000 0.000000 
#    y 0.000000 1.589150 0.000000 
#    z 0.000000 0.000000 1.616870 
# 
# From -- ./inp_files/34568.got.cif
#   From: 2010.05.17/outbox.cif.g08.bks.cpg/sg67_18_cif.got.tgz:34568.got - 2010.06.03 18:28:57.
