data_PCOD9501537
_publ_section_title
;
Structure prediction by ZEFSAII (Michael W. Deem and Ramdas Pophale) SiO2 
 PCOD9501537
Probable space group: C M M A
;
_chemical_formula_sum "Si O2"
_cell_formula_units_Z 56
_cell_length_a 9.118009
_cell_length_b 15.311487
_cell_length_c 20.282364
_cell_angle_alpha 90.000000
_cell_angle_beta 90.000000
_cell_angle_gamma 90.000000
_cell_volume 2831.626441
_symmetry_space_group_name_H-M "C M M A"
_symmetry_group_IT_number 67
_symmetry_cell_setting 'orthorhombic'
loop_
_space_group_symop_operation_xyz
x,y,z
-x,1/2-y,z
x,-y,-z
-x,1/2+y,-z
-x,-y,-z
x,1/2+y,-z
-x,y,z
x,1/2-y,z
1/2+x,1/2+y,z
1/2-x,-y,z
1/2+x,1/2-y,-z
1/2-x,y,-z
1/2-x,1/2-y,-z
1/2+x,y,-z
1/2-x,1/2+y,z
1/2+x,-y,z
loop_
_atom_site_type_symbol
_atom_site_label
_atom_site_fract_x
_atom_site_fract_y
_atom_site_fract_z
Si Si1 0.669532 0.355981 0.299494
Si Si2 0.175353 0.750000 0.929292
Si Si3 0.831080 0.143133 0.433298
Si Si4 0.824337 0.088945 0.165022
O O1 0.500000 0.384219 0.295971
O O2 0.671796 0.250000 0.298022
O O3 0.744126 0.383966 0.367901
O O4 0.759625 0.389137 0.236913
O O5 0.214124 0.666040 0.885389
O O6 0.000000 0.750000 0.938043
O O7 0.250000 0.750000 0.000000
O O8 0.831457 0.250000 0.433584
O O9 0.750000 0.115120 0.500000
O O10 0.000000 0.114643 0.431803
O O11 0.000000 0.081612 0.168876
O O12 0.750000 0.000000 0.142134
#
# Coordination Sequence:
#
# PCOD9501537 Si02
#       4
#    16   8  16  16
#     4  10  19  32  54  83 115 156 203 252 305 362
#     4  10  24  44  68  94 127 162 199 244 298 358
#     4   9  16  26  43  71 109 152 199 253 306 360
#     4  11  23  41  63  92 125 162 204 250 301 358
#
# _framework density 19.776620000000001
#
# number of rings (size 3 to 8) (size 9 to 14) (size 15 to 20)
#    0.000    2.000    1.429    2.571    0.000    7.429 
#    0.000    2.857    0.000    0.857    0.000    6.000 
#    0.000    0.000    0.000    0.000    0.000    0.000 
#
# Total GULP energy -156553.794283 kJ/mol
# GULP energy per Si atom -5591.206939 kJ/mol
# Density = 1.973161 g / cm^3
# Si number density = 19.776620 Si / 1000 Ang^3
#
#
#
# Elastic Constant Matrix: (Units=GPa)
#
#
# Indices 1 2 3 4 5 6 
#
# 1 140.9197 60.0349 92.2767 0.0000 0.0000 0.0000
# 2 60.0349 94.8453 73.8108 0.0000 0.0000 0.0000
# 3 92.2767 73.8108 192.4517 0.0000 0.0000 0.0000
# 4 0.0000 0.0000 0.0000 -15.5693 0.0000 0.0000
# 5 0.0000 0.0000 0.0000 0.0000 43.6655 0.0000
# 6 0.0000 0.0000 0.0000 0.0000 0.0000 22.7856
#
#
#
# Elastic Compliance Matrix: (Units=1/GPa)
#
#
# Indices 1 2 3 4 5 6 
#
# 1 0.011422 -0.004231 -0.003854 0.000000 0.000000 0.000000
# 2 -0.004231 0.016596 -0.004337 0.000000 0.000000 0.000000
# 3 -0.003854 -0.004337 0.008707 0.000000 0.000000 0.000000
# 4 0.000000 0.000000 0.000000 -0.064229 0.000000 0.000000
# 5 0.000000 0.000000 0.000000 0.000000 0.022901 0.000000
# 6 0.000000 0.000000 0.000000 0.000000 0.000000 0.043887
#
#
# Mechanical properties :
#
#
# Convention : Reuss Voigt Hill
#
# Bulk Modulus (GPa) = 84.15401 97.82906 90.99153
# Shear Modulus (GPa) = 73.43239 23.64932 48.54085
#
# Velocity S-wave (km/s) = 6.10012 3.46182 4.95962
# Velocity P-wave (km/s) = 9.60521 8.09650 8.88294
#
# Compressibility (1/GPa) = 0.01188298
#
# Stress axis : x y z
#
# Youngs Moduli (GPa) = 87.54717 60.25458 114.84538
#
# Poissons Ratio (x) = 0.25492 0.44264
# Poissons Ratio (y) = 0.37038 0.49804
# Poissons Ratio (z) = 0.33743 0.26130
#
# Static dielectric constant tensor:
#      x y z
#    x 1.659600 0.000000 0.000000 
#    y 0.000000 1.746480 0.000000 
#    z 0.000000 0.000000 1.641490 
# 
# From -- ./inp_files/31605.got.cif
#   From: 2010.05.17/outbox.cif.g08.bks.cpg/sg67_16_cif.got.tgz:31605.got - 2010.06.03 18:28:57.
