data_PCOD9501924
_publ_section_title
;
Structure prediction by ZEFSAII (Michael W. Deem and Ramdas Pophale) SiO2 
 PCOD9501924
Probable space group: C M M A
;
_chemical_formula_sum "Si O2"
_cell_formula_units_Z 104
_cell_length_a 8.739002
_cell_length_b 30.303033
_cell_length_c 20.737601
_cell_angle_alpha 90.000000
_cell_angle_beta 90.000000
_cell_angle_gamma 90.000000
_cell_volume 5491.695538
_symmetry_space_group_name_H-M "C M M A"
_symmetry_group_IT_number 67
_symmetry_cell_setting 'orthorhombic'
loop_
_space_group_symop_operation_xyz
x,y,z
-x,1/2-y,z
x,-y,-z
-x,1/2+y,-z
-x,-y,-z
x,1/2+y,-z
-x,y,z
x,1/2-y,z
1/2+x,1/2+y,z
1/2-x,-y,z
1/2+x,1/2-y,-z
1/2-x,y,-z
1/2-x,1/2-y,-z
1/2+x,y,-z
1/2-x,1/2+y,z
1/2+x,-y,z
loop_
_atom_site_type_symbol
_atom_site_label
_atom_site_fract_x
_atom_site_fract_y
_atom_site_fract_z
Si Si1 0.327771 0.954276 0.912359
Si Si2 0.680535 0.630186 0.300435
Si Si3 0.325731 0.545409 0.757323
Si Si4 0.816306 0.250000 0.571592
Si Si5 0.685478 0.698179 0.191108
Si Si6 0.317128 0.846477 0.571629
Si Si7 0.814624 0.645456 0.067871
O O1 0.500000 0.954365 0.938493
O O2 0.333465 0.955939 0.834744
O O3 0.260133 0.905943 0.927443
O O4 0.250000 0.000000 0.931986
O O5 0.500000 0.634973 0.309984
O O6 0.722185 0.586492 0.261331
O O7 0.733744 0.671147 0.255365
O O8 0.758309 0.624316 0.370082
O O9 0.500000 0.550692 0.733466
O O10 0.250000 0.500000 0.734444
O O11 0.750000 0.250000 0.500000
O O12 0.767417 0.297407 0.596848
O O13 0.000000 0.250000 0.570324
O O14 0.500000 0.695713 0.187315
O O15 0.728366 0.750000 0.193574
O O16 0.754417 0.673420 0.128725
O O17 0.500000 0.847987 0.566437
O O18 0.250000 0.853787 0.500000
O O19 0.000000 0.645783 0.068750
O O20 0.750000 0.663087 0.000000
#
# Coordination Sequence:
#
# PCOD9501924 Si02
#       7
#    16  16  16   8  16  16  16
#     4   9  19  34  55  82 114 147 183 227 282 342
#     4  11  22  36  59  88 118 153 192 238 291 344
#     4  10  19  35  58  86 117 149 189 235 286 344
#     4   8  16  30  48  72 104 144 187 228 275 330
#     4  10  23  42  61  84 114 150 195 244 290 339
#     4  10  20  35  54  80 115 155 196 240 288 344
#     4  11  23  40  60  85 114 151 193 238 289 346
#
# _framework density 18.937684000000001
#
# number of rings (size 3 to 8) (size 9 to 14) (size 15 to 20)
#    0.000    2.000    1.538    1.846    1.077    4.000 
#    0.000    1.538    0.000    0.462    0.000    3.231 
#    0.000    0.000    0.000    0.000    0.000    0.000 
#
# Total GULP energy -289876.926314 kJ/mol
# GULP energy per Si atom -5574.556275 kJ/mol
# Density = 1.889458 g / cm^3
# Si number density = 18.937684 Si / 1000 Ang^3
#
#
#
# Elastic Constant Matrix: (Units=GPa)
#
#
# Indices 1 2 3 4 5 6 
#
# 1 38.8164 17.3895 34.5525 0.0000 0.0000 0.0000
# 2 17.3895 102.7436 41.1581 0.0000 0.0000 0.0000
# 3 34.5525 41.1581 117.4025 0.0000 0.0000 0.0000
# 4 0.0000 0.0000 0.0000 -7.7395 0.0000 0.0000
# 5 0.0000 0.0000 0.0000 0.0000 10.8309 0.0000
# 6 0.0000 0.0000 0.0000 0.0000 0.0000 28.3607
#
#
#
# Elastic Compliance Matrix: (Units=1/GPa)
#
#
# Indices 1 2 3 4 5 6 
#
# 1 0.035296 -0.002109 -0.009649 0.000000 0.000000 0.000000
# 2 -0.002109 0.011449 -0.003393 0.000000 0.000000 0.000000
# 3 -0.009649 -0.003393 0.012547 0.000000 0.000000 0.000000
# 4 0.000000 0.000000 0.000000 -0.129208 0.000000 0.000000
# 5 0.000000 0.000000 0.000000 0.000000 0.092328 0.000000
# 6 0.000000 0.000000 0.000000 0.000000 0.000000 0.035260
#
#
# Mechanical properties :
#
#
# Convention : Reuss Voigt Hill
#
# Bulk Modulus (GPa) = 34.49362 49.46251 41.97806
# Shear Modulus (GPa) = 51.21025 17.34793 34.27909
#
# Velocity S-wave (km/s) = 5.20578 3.02992 4.25914
# Velocity P-wave (km/s) = 7.37478 6.19805 6.81187
#
# Compressibility (1/GPa) = 0.02899087
#
# Stress axis : x y z
#
# Youngs Moduli (GPa) = 28.33214 87.34289 79.70116
#
# Poissons Ratio (x) = 0.18418 0.76900
# Poissons Ratio (y) = 0.05975 0.27044
# Poissons Ratio (z) = 0.27336 0.29637
#
# Static dielectric constant tensor:
#      x y z
#    x 1.723600 0.000000 0.000000 
#    y 0.000000 1.692070 0.000000 
#    z 0.000000 0.000000 1.635590 
# 
# From -- ./inp_files/37490.got.cif
#   From: 2010.05.17/outbox.cif.g08.bks.cpg/sg67_19_cif.got.tgz:37490.got - 2010.06.03 18:28:57.
