data_PCOD9501029
_publ_section_title
;
Structure prediction by ZEFSAII (Michael W. Deem and Ramdas Pophale) SiO2 
 PCOD9501029
Probable space group: C M M A
;
_chemical_formula_sum "Si O2"
_cell_formula_units_Z 96
_cell_length_a 8.840634
_cell_length_b 27.853859
_cell_length_c 24.789418
_cell_angle_alpha 90.000000
_cell_angle_beta 90.000000
_cell_angle_gamma 90.000000
_cell_volume 6104.289395
_symmetry_space_group_name_H-M "C M M A"
_symmetry_group_IT_number 67
_symmetry_cell_setting 'orthorhombic'
loop_
_space_group_symop_operation_xyz
x,y,z
-x,1/2-y,z
x,-y,-z
-x,1/2+y,-z
-x,-y,-z
x,1/2+y,-z
-x,y,z
x,1/2-y,z
1/2+x,1/2+y,z
1/2-x,-y,z
1/2+x,1/2-y,-z
1/2-x,y,-z
1/2-x,1/2-y,-z
1/2+x,y,-z
1/2-x,1/2+y,z
1/2+x,-y,z
loop_
_atom_site_type_symbol
_atom_site_label
_atom_site_fract_x
_atom_site_fract_y
_atom_site_fract_z
Si Si1 0.819061 0.949490 0.382707
Si Si2 0.681590 0.599622 0.278424
Si Si3 0.681205 0.446390 0.173642
Si Si4 0.180300 0.350973 0.558073
Si Si5 0.680512 0.946365 0.946325
Si Si6 0.181873 0.696284 0.662151
O O1 0.748631 0.934767 0.324980
O O2 0.783018 0.905495 0.422876
O O3 0.000000 0.953077 0.377826
O O4 0.750000 0.000000 0.400430
O O5 0.500000 0.595128 0.277815
O O6 0.749197 0.584967 0.221215
O O7 0.723225 0.653720 0.296659
O O8 0.500000 0.449660 0.179269
O O9 0.750000 0.500000 0.177661
O O10 0.714472 0.426468 0.113348
O O11 0.250000 0.340985 0.500000
O O12 0.246108 0.317121 0.604741
O O13 0.000000 0.346267 0.556189
O O14 0.500000 0.949459 0.952327
O O15 0.750000 0.000000 0.944646
O O16 0.750000 0.922702 0.000000
O O17 0.225931 0.750000 0.678865
O O18 0.000000 0.694797 0.656468
#
# Coordination Sequence:
#
# PCOD9501029 Si02
#       6
#    16  16  16  16  16  16
#     4  10  20  33  48  66  90 120 151 182 218 259
#     4  10  19  31  48  68  90 116 147 184 223 264
#     4  10  19  29  42  63  92 125 158 189 221 258
#     4  10  21  35  51  71  93 117 146 180 217 261
#     4   9  16  25  38  56  82 118 156 191 222 253
#     4   9  19  36  55  72  90 113 142 179 224 271
#
# _framework density 15.726646000000001
#
# number of rings (size 3 to 8) (size 9 to 14) (size 15 to 20)
#    0.000    2.333    0.000    3.500    0.000    5.667 
#    0.000    1.667    0.000    0.000    0.000    0.000 
#    0.000    0.667    0.000    1.500    0.000    2.667 
#
# Total GULP energy -267662.650327 kJ/mol
# GULP energy per Si atom -5576.305215 kJ/mol
# Density = 1.569085 g / cm^3
# Si number density = 15.726646 Si / 1000 Ang^3
#
#
#
# Elastic Constant Matrix: (Units=GPa)
#
#
# Indices 1 2 3 4 5 6 
#
# 1 42.5066 18.6596 34.2966 0.0000 0.0000 0.0000
# 2 18.6596 64.8204 24.9059 0.0000 0.0000 0.0000
# 3 34.2966 24.9059 120.5036 0.0000 0.0000 0.0000
# 4 0.0000 0.0000 0.0000 9.4875 0.0000 0.0000
# 5 0.0000 0.0000 0.0000 0.0000 16.6315 0.0000
# 6 0.0000 0.0000 0.0000 0.0000 0.0000 13.4843
#
#
#
# Elastic Compliance Matrix: (Units=1/GPa)
#
#
# Indices 1 2 3 4 5 6 
#
# 1 0.032785 -0.006357 -0.008017 0.000000 0.000000 0.000000
# 2 -0.006357 0.017991 -0.001909 0.000000 0.000000 0.000000
# 3 -0.008017 -0.001909 0.010975 0.000000 0.000000 0.000000
# 4 0.000000 0.000000 0.000000 0.105402 0.000000 0.000000
# 5 0.000000 0.000000 0.000000 0.000000 0.060127 0.000000
# 6 0.000000 0.000000 0.000000 0.000000 0.000000 0.074161
#
#
# Mechanical properties :
#
#
# Convention : Reuss Voigt Hill
#
# Bulk Modulus (GPa) = 34.26543 42.61721 38.44132
# Shear Modulus (GPa) = 14.54610 17.91855 16.23233
#
# Velocity S-wave (km/s) = 3.04457 3.37913 3.21620
# Velocity P-wave (km/s) = 5.84762 6.51016 6.18776
#
# Compressibility (1/GPa) = 0.02918393
#
# Stress axis : x y z
#
# Youngs Moduli (GPa) = 30.50165 55.58394 91.11780
#
# Poissons Ratio (x) = 0.35337 0.73050
# Poissons Ratio (y) = 0.19391 0.17394
# Poissons Ratio (z) = 0.24453 0.10611
#
# Static dielectric constant tensor:
#      x y z
#    x 1.522130 0.000000 0.000000 
#    y 0.000000 1.515000 0.000000 
#    z 0.000000 0.000000 1.536480 
# 
# From -- ./inp_files/37167.got.cif
#   From: 2010.05.17/outbox.cif.g08.bks.cpg/sg67_19_cif.got.tgz:37167.got - 2010.06.03 18:28:57.
