data_PCOD9501209
_publ_section_title
;
Structure prediction by ZEFSAII (Michael W. Deem and Ramdas Pophale) SiO2 
 PCOD9501209
Probable space group: C M M A
;
_chemical_formula_sum "Si O2"
_cell_formula_units_Z 112
_cell_length_a 24.884294
_cell_length_b 16.585560
_cell_length_c 15.858456
_cell_angle_alpha 90.000000
_cell_angle_beta 90.000000
_cell_angle_gamma 90.000000
_cell_volume 6545.101186
_symmetry_space_group_name_H-M "C M M A"
_symmetry_group_IT_number 67
_symmetry_cell_setting 'orthorhombic'
loop_
_space_group_symop_operation_xyz
x,y,z
-x,1/2-y,z
x,-y,-z
-x,1/2+y,-z
-x,-y,-z
x,1/2+y,-z
-x,y,z
x,1/2-y,z
1/2+x,1/2+y,z
1/2-x,-y,z
1/2+x,1/2-y,-z
1/2-x,y,-z
1/2-x,1/2-y,-z
1/2+x,y,-z
1/2-x,1/2+y,z
1/2+x,-y,z
loop_
_atom_site_type_symbol
_atom_site_label
_atom_site_fract_x
_atom_site_fract_y
_atom_site_fract_z
Si Si1 0.190154 0.906048 0.978006
Si Si2 0.743124 0.593447 0.364403
Si Si3 0.228052 0.845292 0.813968
Si Si4 0.438184 0.845843 0.724716
Si Si5 0.060485 0.589584 0.460578
Si Si6 0.673489 0.843354 0.513516
Si Si7 0.348418 0.346075 0.142066
O O1 0.187739 0.888941 0.878726
O O2 0.250000 0.872078 0.000000
O O3 0.148368 0.867501 0.043126
O O4 0.190388 0.000000 0.000000
O O5 0.750000 0.500000 0.344494
O O6 0.719256 0.638528 0.284004
O O7 0.703051 0.604387 0.442698
O O8 0.799620 0.630753 0.397401
O O9 0.225964 0.750000 0.831653
O O10 0.289448 0.876287 0.829022
O O11 0.500000 0.849637 0.754927
O O12 0.428012 0.750000 0.702900
O O13 0.434681 0.900442 0.640907
O O14 0.395964 0.872448 0.796008
O O15 0.065898 0.500000 0.500000
O O16 0.110479 0.641395 0.491952
O O17 0.000000 0.618171 0.481754
O O18 0.686021 0.750000 0.499645
O O19 0.347056 0.250000 0.149226
#
# Coordination Sequence:
#
# PCOD9501209 Si02
#       7
#    16  16  16  16  16  16  16
#     4   9  18  30  46  67 100 126 160 197 242 295
#     4  11  22  33  52  74 104 138 176 214 258 307
#     4  10  19  31  48  71  99 134 167 201 245 302
#     4   9  17  30  50  75  99 123 159 206 253 301
#     4  10  20  34  51  74 103 133 169 213 260 308
#     4  11  21  36  52  72 105 139 175 215 257 312
#     4   9  17  29  48  71  96 125 157 199 252 299
#
# _framework density 17.112034999999999
#
# number of rings (size 3 to 8) (size 9 to 14) (size 15 to 20)
#    0.000    2.143    0.000    5.143    4.000    3.714 
#    0.000    0.000    0.000    0.429    0.000    1.000 
#    0.000    3.429    0.000    0.000    0.000    0.000 
#
# Total GULP energy -311990.713145 kJ/mol
# GULP energy per Si atom -5571.262735 kJ/mol
# Density = 1.707309 g / cm^3
# Si number density = 17.112035 Si / 1000 Ang^3
#
#
#
# Elastic Constant Matrix: (Units=GPa)
#
#
# Indices 1 2 3 4 5 6 
#
# 1 76.9855 15.6194 31.5020 0.0000 0.0000 0.0000
# 2 15.6194 47.6950 20.1214 0.0000 0.0000 0.0000
# 3 31.5020 20.1214 105.1561 0.0000 0.0000 0.0000
# 4 0.0000 0.0000 0.0000 26.1903 0.0000 0.0000
# 5 0.0000 0.0000 0.0000 0.0000 26.1441 0.0000
# 6 0.0000 0.0000 0.0000 0.0000 0.0000 14.1882
#
#
#
# Elastic Compliance Matrix: (Units=1/GPa)
#
#
# Indices 1 2 3 4 5 6 
#
# 1 0.015279 -0.003342 -0.003938 0.000000 0.000000 0.000000
# 2 -0.003342 0.023539 -0.003503 0.000000 0.000000 0.000000
# 3 -0.003938 -0.003503 0.011360 0.000000 0.000000 0.000000
# 4 0.000000 0.000000 0.000000 0.038182 0.000000 0.000000
# 5 0.000000 0.000000 0.000000 0.000000 0.038250 0.000000
# 6 0.000000 0.000000 0.000000 0.000000 0.000000 0.070481
#
#
# Mechanical properties :
#
#
# Convention : Reuss Voigt Hill
#
# Bulk Modulus (GPa) = 34.95083 40.48024 37.71553
# Shear Modulus (GPa) = 21.91131 24.14411 23.02771
#
# Velocity S-wave (km/s) = 3.58224 3.76033 3.67236
# Velocity P-wave (km/s) = 6.13017 6.52386 6.33008
#
# Compressibility (1/GPa) = 0.02861163
#
# Stress axis : x y z
#
# Youngs Moduli (GPa) = 65.45009 42.48287 88.03185
#
# Poissons Ratio (x) = 0.14200 0.34663
# Poissons Ratio (y) = 0.21876 0.30836
# Poissons Ratio (z) = 0.25771 0.14881
#
# Static dielectric constant tensor:
#      x y z
#    x 1.592730 0.000000 0.000000 
#    y 0.000000 1.581480 0.000000 
#    z 0.000000 0.000000 1.639930 
# 
# From -- ./inp_files/30135.got.cif
#   From: 2010.05.17/outbox.cif.g08.bks.cpg/sg67_16_cif.got.tgz:30135.got - 2010.06.03 18:28:57.
