data_PCOD9501055
_publ_section_title
;
Structure prediction by ZEFSAII (Michael W. Deem and Ramdas Pophale) SiO2 
 PCOD9501055
Probable space group: C M M A
;
_chemical_formula_sum "Si O2"
_cell_formula_units_Z 84
_cell_length_a 14.208930
_cell_length_b 26.211437
_cell_length_c 12.232528
_cell_angle_alpha 90.000000
_cell_angle_beta 90.000000
_cell_angle_gamma 90.000000
_cell_volume 4555.839591
_symmetry_space_group_name_H-M "C M M A"
_symmetry_group_IT_number 67
_symmetry_cell_setting 'orthorhombic'
loop_
_space_group_symop_operation_xyz
x,y,z
-x,1/2-y,z
x,-y,-z
-x,1/2+y,-z
-x,-y,-z
x,1/2+y,-z
-x,y,z
x,1/2-y,z
1/2+x,1/2+y,z
1/2-x,-y,z
1/2+x,1/2-y,-z
1/2-x,y,-z
1/2-x,1/2-y,-z
1/2+x,y,-z
1/2-x,1/2+y,z
1/2+x,-y,z
loop_
_atom_site_type_symbol
_atom_site_label
_atom_site_fract_x
_atom_site_fract_y
_atom_site_fract_z
Si Si1 0.154298 0.473346 0.154149
Si Si2 0.894627 0.190237 0.170932
Si Si3 0.750000 0.000000 0.500000
Si Si4 0.261263 0.120429 0.225166
Si Si5 0.893823 0.054017 0.662913
Si Si6 0.396572 0.392145 0.022000
O O1 0.250000 0.500000 0.117691
O O2 0.187773 0.426787 0.232087
O O3 0.106092 0.516246 0.229706
O O4 0.109175 0.443670 0.051812
O O5 0.885882 0.250000 0.146684
O O6 0.803687 0.169820 0.236193
O O7 0.893139 0.154934 0.062743
O O8 0.000000 0.182089 0.219977
O O9 0.820777 0.031138 0.576996
O O10 0.347428 0.107927 0.304053
O O11 0.311885 0.114997 0.106623
O O12 0.000000 0.057683 0.622738
O O13 0.500000 0.391922 0.076145
#
# Coordination Sequence:
#
# PCOD9501055 Si02
#       6
#    16  16   4  16  16  16
#     4   9  17  31  46  71 102 137 174 211 253 308
#     4   9  18  32  51  76 107 146 184 215 252 302
#     4  12  22  44  52  80 102 136 182 224 272 312
#     4  10  19  33  47  76 108 139 179 216 260 309
#     4  11  22  37  56  75 105 138 174 219 265 318
#     4  10  19  29  46  72 109 146 177 214 256 307
#
# _framework density 18.437874999999998
#
# number of rings (size 3 to 8) (size 9 to 14) (size 15 to 20)
#    0.000    2.095    2.857    3.714    0.000    7.619 
#    0.000    4.762    0.000    2.857    0.000    0.667 
#    0.000    0.000    0.000    0.000    0.000    0.000 
#
# Total GULP energy -233888.883321 kJ/mol
# GULP energy per Si atom -5568.782936 kJ/mol
# Density = 1.839591 g / cm^3
# Si number density = 18.437875 Si / 1000 Ang^3
#
#
#
# Elastic Constant Matrix: (Units=GPa)
#
#
# Indices 1 2 3 4 5 6 
#
# 1 155.8511 47.7811 37.8309 0.0000 0.0000 0.0000
# 2 47.7811 102.2326 13.6084 0.0000 0.0000 0.0000
# 3 37.8309 13.6084 47.9545 0.0000 0.0000 0.0000
# 4 0.0000 0.0000 0.0000 6.9260 0.0000 0.0000
# 5 0.0000 0.0000 0.0000 0.0000 15.3761 0.0000
# 6 0.0000 0.0000 0.0000 0.0000 0.0000 26.4424
#
#
#
# Elastic Compliance Matrix: (Units=1/GPa)
#
#
# Indices 1 2 3 4 5 6 
#
# 1 0.008924 -0.003361 -0.006086 0.000000 0.000000 0.000000
# 2 -0.003361 0.011431 -0.000593 0.000000 0.000000 0.000000
# 3 -0.006086 -0.000593 0.025823 0.000000 0.000000 0.000000
# 4 0.000000 0.000000 0.000000 0.144383 0.000000 0.000000
# 5 0.000000 0.000000 0.000000 0.000000 0.065036 0.000000
# 6 0.000000 0.000000 0.000000 0.000000 0.000000 0.037818
#
#
# Mechanical properties :
#
#
# Convention : Reuss Voigt Hill
#
# Bulk Modulus (GPa) = 38.31642 56.05323 47.18482
# Shear Modulus (GPa) = 15.51858 23.53676 19.52767
#
# Velocity S-wave (km/s) = 2.90430 3.57675 3.25792
# Velocity P-wave (km/s) = 5.66331 6.89381 6.30864
#
# Compressibility (1/GPa) = 0.02609847
#
# Stress axis : x y z
#
# Youngs Moduli (GPa) = 112.05564 87.47952 38.72536
#
# Poissons Ratio (x) = 0.29400 0.23570
# Poissons Ratio (y) = 0.37659 0.02295
# Poissons Ratio (z) = 0.68202 0.05185
#
# Static dielectric constant tensor:
#      x y z
#    x 1.702620 0.000000 0.000000 
#    y 0.000000 1.644600 0.000000 
#    z 0.000000 0.000000 1.685990 
# 
# From -- ./inp_files/18454.got.cif
#   From: 2010.05.17/outbox.cif.g08.bks.cpg/sg67_10_cif.got.tgz:18454.got - 2010.06.03 18:28:57.
