data_PCOD9501059
_publ_section_title
;
Structure prediction by ZEFSAII (Michael W. Deem and Ramdas Pophale) SiO2 
 PCOD9501059
Probable space group: C M M A
;
_chemical_formula_sum "Si O2"
_cell_formula_units_Z 96
_cell_length_a 26.066976
_cell_length_b 22.794908
_cell_length_c 9.773248
_cell_angle_alpha 90.000000
_cell_angle_beta 90.000000
_cell_angle_gamma 90.000000
_cell_volume 5807.208447
_symmetry_space_group_name_H-M "C M M A"
_symmetry_group_IT_number 67
_symmetry_cell_setting 'orthorhombic'
loop_
_space_group_symop_operation_xyz
x,y,z
-x,1/2-y,z
x,-y,-z
-x,1/2+y,-z
-x,-y,-z
x,1/2+y,-z
-x,y,z
x,1/2-y,z
1/2+x,1/2+y,z
1/2-x,-y,z
1/2+x,1/2-y,-z
1/2-x,y,-z
1/2-x,1/2-y,-z
1/2+x,y,-z
1/2-x,1/2+y,z
1/2+x,-y,z
loop_
_atom_site_type_symbol
_atom_site_label
_atom_site_fract_x
_atom_site_fract_y
_atom_site_fract_z
Si Si1 0.688421 0.991596 0.842659
Si Si2 0.139036 0.180606 0.527816
Si Si3 0.330686 0.114766 0.743764
Si Si4 0.861329 0.681523 0.011497
Si Si5 0.290864 0.862214 0.764166
Si Si6 0.558244 0.678857 0.755739
O O1 0.682960 0.926381 0.784224
O O2 0.750000 0.000000 0.846494
O O3 0.665913 0.044337 0.753176
O O4 0.670672 0.000000 0.000000
O O5 0.136512 0.250000 0.496241
O O6 0.146569 0.142760 0.392603
O O7 0.186514 0.168565 0.630238
O O8 0.089479 0.163353 0.618635
O O9 0.270014 0.130528 0.754312
O O10 0.356832 0.142929 0.876839
O O11 0.867339 0.750000 0.976992
O O12 0.810148 0.673118 0.103285
O O13 0.907637 0.662794 0.112344
O O14 0.500000 0.657264 0.759426
O O15 0.557148 0.750000 0.756970
#
# Coordination Sequence:
#
# PCOD9501059 Si02
#       6
#    16  16  16  16  16  16
#     4   9  17  31  48  67  94 133 179 210 228 265
#     4  10  21  33  47  74 104 131 165 196 244 311
#     4  11  20  30  47  72 106 133 159 208 244 273
#     4  10  19  29  47  75  97 124 167 200 243 303
#     4  10  19  32  48  67 100 143 171 192 231 286
#     4   8  16  34  54  68  91 128 166 205 248 302
#
# _framework density 16.531178000000001
#
# number of rings (size 3 to 8) (size 9 to 14) (size 15 to 20)
#    0.000    2.333    1.667    3.000    0.000    4.667 
#    0.000    3.333    0.000    4.000    0.000   18.667 
#    0.000    0.000    0.000    0.000    0.000    0.000 
#
# Total GULP energy -267541.865995 kJ/mol
# GULP energy per Si atom -5573.788875 kJ/mol
# Density = 1.649355 g / cm^3
# Si number density = 16.531178 Si / 1000 Ang^3
#
#
#
# Elastic Constant Matrix: (Units=GPa)
#
#
# Indices 1 2 3 4 5 6 
#
# 1 82.8382 18.9613 31.5492 0.0000 0.0000 0.0000
# 2 18.9613 77.0410 32.0014 0.0000 0.0000 0.0000
# 3 31.5492 32.0014 106.5616 0.0000 0.0000 0.0000
# 4 0.0000 0.0000 0.0000 24.4892 0.0000 0.0000
# 5 0.0000 0.0000 0.0000 0.0000 -2.5747 0.0000
# 6 0.0000 0.0000 0.0000 0.0000 0.0000 7.8639
#
#
#
# Elastic Compliance Matrix: (Units=1/GPa)
#
#
# Indices 1 2 3 4 5 6 
#
# 1 0.013858 -0.001950 -0.003517 0.000000 0.000000 0.000000
# 2 -0.001950 0.015104 -0.003959 0.000000 0.000000 0.000000
# 3 -0.003517 -0.003959 0.011614 0.000000 0.000000 0.000000
# 4 0.000000 0.000000 0.000000 0.040834 0.000000 0.000000
# 5 0.000000 0.000000 0.000000 0.000000 -0.388399 0.000000
# 6 0.000000 0.000000 0.000000 0.000000 0.000000 0.127164
#
#
# Mechanical properties :
#
#
# Convention : Reuss Voigt Hill
#
# Bulk Modulus (GPa) = 46.02978 47.94052 46.98515
# Shear Modulus (GPa) = -32.52413 18.21762 -7.15326
#
# Velocity S-wave (km/s) = -4.44040 3.32326 -2.08243
# Velocity P-wave (km/s) = 1.27089 6.61729 4.76464
#
# Compressibility (1/GPa) = 0.02172506
#
# Stress axis : x y z
#
# Youngs Moduli (GPa) = 72.16288 66.20619 86.09982
#
# Poissons Ratio (x) = 0.12908 0.30284
# Poissons Ratio (y) = 0.14069 0.34085
# Poissons Ratio (z) = 0.25382 0.26209
#
# Static dielectric constant tensor:
#      x y z
#    x 1.551520 0.000000 0.000000 
#    y 0.000000 1.567130 0.000000 
#    z 0.000000 0.000000 1.547680 
# 
# From -- ./inp_files/11438.got.cif
#   From: 2010.05.17/outbox.cif.g08.bks.cpg/sg67_6_cif.got.tgz:11438.got - 2010.06.03 18:28:57.
