data_PCOD9501479
_publ_section_title
;
Structure prediction by ZEFSAII (Michael W. Deem and Ramdas Pophale) SiO2 
 PCOD9501479
Probable space group: C M M A
;
_chemical_formula_sum "Si O2"
_cell_formula_units_Z 76
_cell_length_a 25.581624
_cell_length_b 9.426041
_cell_length_c 18.063700
_cell_angle_alpha 90.000000
_cell_angle_beta 90.000000
_cell_angle_gamma 90.000000
_cell_volume 4355.762060
_symmetry_space_group_name_H-M "C M M A"
_symmetry_group_IT_number 67
_symmetry_cell_setting 'orthorhombic'
loop_
_space_group_symop_operation_xyz
x,y,z
-x,1/2-y,z
x,-y,-z
-x,1/2+y,-z
-x,-y,-z
x,1/2+y,-z
-x,y,z
x,1/2-y,z
1/2+x,1/2+y,z
1/2-x,-y,z
1/2+x,1/2-y,-z
1/2-x,y,-z
1/2-x,1/2-y,-z
1/2+x,y,-z
1/2-x,1/2+y,z
1/2+x,-y,z
loop_
_atom_site_type_symbol
_atom_site_label
_atom_site_fract_x
_atom_site_fract_y
_atom_site_fract_z
Si Si1 0.416369 0.418359 0.200104
Si Si2 0.750000 0.000000 0.500000
Si Si3 0.000000 0.080390 0.922901
Si Si4 0.557033 0.580262 0.351248
Si Si5 0.828738 0.589027 0.621866
Si Si6 0.299793 0.417521 0.233035
O O1 0.424192 0.250000 0.215038
O O2 0.450079 0.455289 0.128404
O O3 0.435117 0.505083 0.271854
O O4 0.354463 0.441753 0.191089
O O5 0.789375 0.083238 0.446392
O O6 0.000000 0.250000 0.935185
O O7 0.000000 0.000000 0.000000
O O8 0.500000 0.536753 0.381884
O O9 0.555554 0.750000 0.341081
O O10 0.610699 0.551553 0.395885
O O11 0.828148 0.750000 0.652227
O O12 0.809975 0.480855 0.684931
O O13 0.289854 0.250000 0.237273
O O14 0.250000 0.500000 0.201781
#
# Coordination Sequence:
#
# PCOD9501479 Si02
#       6
#    16   4   8  16  16  16
#     4   9  18  32  51  75 104 137 167 204 251 296
#     4  12  22  32  50  70 102 136 176 210 254 312
#     4  10  20  34  52  78 112 141 170 203 244 299
#     4   9  17  31  52  75  97 124 166 215 258 299
#     4  10  21  34  49  70  98 132 168 210 256 306
#     4  10  19  32  52  77 102 129 168 212 255 298
#
# _framework density 17.448152
#
# number of rings (size 3 to 8) (size 9 to 14) (size 15 to 20)
#    0.000    2.316    2.105    0.947    0.000    2.526 
#    0.000    0.526    0.000    0.632    0.000    4.421 
#    0.000    0.000    0.000    0.000    0.000    0.000 
#
# Total GULP energy -211688.088942 kJ/mol
# GULP energy per Si atom -5570.739183 kJ/mol
# Density = 1.740844 g / cm^3
# Si number density = 17.448152 Si / 1000 Ang^3
#
#
#
# Elastic Constant Matrix: (Units=GPa)
#
#
# Indices 1 2 3 4 5 6 
#
# 1 185.1550 46.7450 50.6336 0.0000 0.0000 0.0000
# 2 46.7450 47.9425 18.4156 0.0000 0.0000 0.0000
# 3 50.6336 18.4156 61.1957 0.0000 0.0000 0.0000
# 4 0.0000 0.0000 0.0000 15.9581 0.0000 0.0000
# 5 0.0000 0.0000 0.0000 0.0000 20.3719 0.0000
# 6 0.0000 0.0000 0.0000 0.0000 0.0000 26.0687
#
#
#
# Elastic Compliance Matrix: (Units=1/GPa)
#
#
# Indices 1 2 3 4 5 6 
#
# 1 0.008344 -0.006200 -0.005038 0.000000 0.000000 0.000000
# 2 -0.006200 0.028192 -0.003354 0.000000 0.000000 0.000000
# 3 -0.005038 -0.003354 0.021519 0.000000 0.000000 0.000000
# 4 0.000000 0.000000 0.000000 0.062664 0.000000 0.000000
# 5 0.000000 0.000000 0.000000 0.000000 0.049087 0.000000
# 6 0.000000 0.000000 0.000000 0.000000 0.000000 0.038360
#
#
# Mechanical properties :
#
#
# Convention : Reuss Voigt Hill
#
# Bulk Modulus (GPa) = 34.63713 58.43132 46.53422
# Shear Modulus (GPa) = 20.24509 24.37968 22.31238
#
# Velocity S-wave (km/s) = 3.41001 3.74206 3.57989
# Velocity P-wave (km/s) = 5.94969 7.22716 6.61932
#
# Compressibility (1/GPa) = 0.02887075
#
# Stress axis : x y z
#
# Youngs Moduli (GPa) = 119.84709 35.47105 46.47134
#
# Poissons Ratio (x) = 0.21993 0.23412
# Poissons Ratio (y) = 0.74310 0.15585
# Poissons Ratio (z) = 0.60378 0.11896
#
# Static dielectric constant tensor:
#      x y z
#    x 1.671190 0.000000 0.000000 
#    y 0.000000 1.597480 0.000000 
#    z 0.000000 0.000000 1.545210 
# 
# From -- ./inp_files/35793.got.cif
#   From: 2010.05.17/outbox.cif.g08.bks.cpg/sg67_18_cif.got.tgz:35793.got - 2010.06.03 18:28:57.
