data_PCOD9501966
_publ_section_title
;
Structure prediction by ZEFSAII (Michael W. Deem and Ramdas Pophale) SiO2 
 PCOD9501966
Probable space group: C M M A
;
_chemical_formula_sum "Si O2"
_cell_formula_units_Z 80
_cell_length_a 16.253356
_cell_length_b 17.937037
_cell_length_c 15.535597
_cell_angle_alpha 90.000000
_cell_angle_beta 90.000000
_cell_angle_gamma 90.000000
_cell_volume 4529.202087
_symmetry_space_group_name_H-M "C M M A"
_symmetry_group_IT_number 67
_symmetry_cell_setting 'orthorhombic'
loop_
_space_group_symop_operation_xyz
x,y,z
-x,1/2-y,z
x,-y,-z
-x,1/2+y,-z
-x,-y,-z
x,1/2+y,-z
-x,y,z
x,1/2-y,z
1/2+x,1/2+y,z
1/2-x,-y,z
1/2+x,1/2-y,-z
1/2-x,y,-z
1/2-x,1/2-y,-z
1/2+x,y,-z
1/2-x,1/2+y,z
1/2+x,-y,z
loop_
_atom_site_type_symbol
_atom_site_label
_atom_site_fract_x
_atom_site_fract_y
_atom_site_fract_z
Si Si1 0.633709 0.121031 0.325738
Si Si2 0.820824 0.335708 0.326747
Si Si3 0.594558 0.416222 0.514619
Si Si4 0.500000 0.169296 0.190757
Si Si5 0.500000 0.983627 0.899580
Si Si6 0.842415 0.476961 0.213346
O O1 0.722421 0.158158 0.330351
O O2 0.596739 0.121018 0.420825
O O3 0.577223 0.159243 0.254435
O O4 0.642110 0.035682 0.291503
O O5 0.846372 0.250000 0.314184
O O6 0.856425 0.369131 0.415393
O O7 0.844657 0.393934 0.251767
O O8 0.628511 0.500000 0.500000
O O9 0.500000 0.423705 0.544455
O O10 0.500000 0.250000 0.150156
O O11 0.500000 0.104146 0.121590
O O12 0.416669 0.013303 0.853731
O O13 0.500000 0.000000 0.000000
O O14 0.750000 0.500000 0.181688
#
# Coordination Sequence:
#
# PCOD9501966 Si02
#       6
#    16  16  16   8   8  16
#     4  10  19  36  57  76 107 155 197 228 276 327
#     4  11  23  35  52  81 114 149 194 238 276 321
#     4  11  22  34  53  75 109 157 199 235 274 322
#     4  10  20  36  60  86 113 139 182 241 280 317
#     4  10  22  40  65  91 112 144 184 216 274 366
#     4   9  20  38  61  83 111 150 185 226 280 336
#
# _framework density 17.663155
#
# number of rings (size 3 to 8) (size 9 to 14) (size 15 to 20)
#    0.000    1.800    3.000    1.200    1.400    4.000 
#    0.000    1.000    0.000    0.000    0.000    8.400 
#    0.000    0.000    0.000    0.000    0.000    0.000 
#
# Total GULP energy -223203.303518 kJ/mol
# GULP energy per Si atom -5580.082588 kJ/mol
# Density = 1.762295 g / cm^3
# Si number density = 17.663155 Si / 1000 Ang^3
#
#
#
# Elastic Constant Matrix: (Units=GPa)
#
#
# Indices 1 2 3 4 5 6 
#
# 1 110.4682 43.6911 60.1038 0.0000 0.0000 0.0000
# 2 43.6911 154.8961 54.8797 0.0000 0.0000 0.0000
# 3 60.1038 54.8797 113.0395 0.0000 0.0000 0.0000
# 4 0.0000 0.0000 0.0000 8.1109 0.0000 0.0000
# 5 0.0000 0.0000 0.0000 0.0000 11.7926 0.0000
# 6 0.0000 0.0000 0.0000 0.0000 0.0000 8.4742
#
#
#
# Elastic Compliance Matrix: (Units=1/GPa)
#
#
# Indices 1 2 3 4 5 6 
#
# 1 0.013009 -0.001472 -0.006202 0.000000 0.000000 0.000000
# 2 -0.001472 0.007964 -0.003084 0.000000 0.000000 0.000000
# 3 -0.006202 -0.003084 0.013641 0.000000 0.000000 0.000000
# 4 0.000000 0.000000 0.000000 0.123291 0.000000 0.000000
# 5 0.000000 0.000000 0.000000 0.000000 0.084799 0.000000
# 6 0.000000 0.000000 0.000000 0.000000 0.000000 0.118006
#
#
# Mechanical properties :
#
#
# Convention : Reuss Voigt Hill
#
# Bulk Modulus (GPa) = 76.34637 77.30591 76.82614
# Shear Modulus (GPa) = 12.93352 20.32414 16.62883
#
# Velocity S-wave (km/s) = 2.70891 3.39581 3.07162
# Velocity P-wave (km/s) = 7.28709 7.69656 7.49462
#
# Compressibility (1/GPa) = 0.01309820
#
# Stress axis : x y z
#
# Youngs Moduli (GPa) = 76.86877 125.57032 73.30607
#
# Poissons Ratio (x) = 0.18483 0.45468
# Poissons Ratio (y) = 0.11315 0.22605
# Poissons Ratio (z) = 0.47677 0.38722
#
# Static dielectric constant tensor:
#      x y z
#    x 1.624610 0.000000 0.000000 
#    y 0.000000 1.632700 0.000000 
#    z 0.000000 0.000000 1.551480 
# 
# From -- ./inp_files/28434.got.cif
#   From: 2010.05.17/outbox.cif.g08.bks.cpg/sg67_15_cif.got.tgz:28434.got - 2010.06.03 18:28:57.
