data_PCOD9501237
_publ_section_title
;
Structure prediction by ZEFSAII (Michael W. Deem and Ramdas Pophale) SiO2 
 PCOD9501237
Probable space group: C M M A
;
_chemical_formula_sum "Si O2"
_cell_formula_units_Z 80
_cell_length_a 22.732447
_cell_length_b 13.418044
_cell_length_c 11.374460
_cell_angle_alpha 90.000000
_cell_angle_beta 90.000000
_cell_angle_gamma 90.000000
_cell_volume 3469.494367
_symmetry_space_group_name_H-M "C M M A"
_symmetry_group_IT_number 67
_symmetry_cell_setting 'orthorhombic'
loop_
_space_group_symop_operation_xyz
x,y,z
-x,1/2-y,z
x,-y,-z
-x,1/2+y,-z
-x,-y,-z
x,1/2+y,-z
-x,y,z
x,1/2-y,z
1/2+x,1/2+y,z
1/2-x,-y,z
1/2+x,1/2-y,-z
1/2-x,y,-z
1/2-x,1/2-y,-z
1/2+x,y,-z
1/2-x,1/2+y,z
1/2+x,-y,z
loop_
_atom_site_type_symbol
_atom_site_label
_atom_site_fract_x
_atom_site_fract_y
_atom_site_fract_z
Si Si1 0.184418 0.250000 0.955463
Si Si2 0.062852 0.952073 0.167271
Si Si3 0.563122 0.131722 0.431880
Si Si4 0.309751 0.631742 0.570128
Si Si5 0.062264 0.250000 0.989268
Si Si6 0.187616 0.543382 0.177056
O O1 0.128080 0.250000 0.042498
O O2 0.180737 0.348137 0.877737
O O3 0.250000 0.250000 0.000000
O O4 0.063920 0.920718 0.304591
O O5 0.061208 0.849256 0.092685
O O6 0.124956 0.007803 0.145274
O O7 0.000000 0.004283 0.143948
O O8 0.500000 0.108319 0.491332
O O9 0.562171 0.250000 0.409221
O O10 0.626601 0.113418 0.491503
O O11 0.309229 0.750000 0.602830
O O12 0.250000 0.615209 0.500000
O O13 0.308740 0.562738 0.684250
O O14 0.000000 0.250000 0.056937
O O15 0.250000 0.500000 0.137341
#
# Coordination Sequence:
#
# PCOD9501237 Si02
#       6
#     8  16  16  16   8  16
#     4  10  20  34  51  73 100 125 154 195 239 284
#     4   8  12  21  40  66  93 115 144 193 244 277
#     4   8  11  17  33  59  88 115 146 190 236 271
#     4   9  16  27  44  67  96 127 156 189 230 277
#     4   8  12  22  44  71  92 111 142 191 246 286
#     4  10  19  31  49  73  99 127 158 191 235 286
#
# _framework density 23.058115000000001
#
# number of rings (size 3 to 8) (size 9 to 14) (size 15 to 20)
#    0.000    3.200    2.000    0.000    0.000    0.800 
#    0.000    0.000    0.000    2.400    0.000   11.200 
#    0.000    0.000    0.000    0.000    0.000    0.000 
#
# Total GULP energy -222720.661995 kJ/mol
# GULP energy per Si atom -5568.016550 kJ/mol
# Density = 2.300563 g / cm^3
# Si number density = 23.058115 Si / 1000 Ang^3
#
#
#
# Elastic Constant Matrix: (Units=GPa)
#
#
# Indices 1 2 3 4 5 6 
#
# 1 327.7939 20.4033 32.2955 0.0000 0.0000 0.0000
# 2 20.4033 62.6078 1.6079 0.0000 0.0000 0.0000
# 3 32.2955 1.6079 26.4613 0.0000 0.0000 0.0000
# 4 0.0000 0.0000 0.0000 476.5521 0.0000 0.0000
# 5 0.0000 0.0000 0.0000 0.0000 9.1661 0.0000
# 6 0.0000 0.0000 0.0000 0.0000 0.0000 12.1013
#
#
#
# Elastic Compliance Matrix: (Units=1/GPa)
#
#
# Indices 1 2 3 4 5 6 
#
# 1 0.003534 -0.001043 -0.004250 0.000000 0.000000 0.000000
# 2 -0.001043 0.016305 0.000282 0.000000 0.000000 0.000000
# 3 -0.004250 0.000282 0.042961 0.000000 0.000000 0.000000
# 4 0.000000 0.000000 0.000000 0.002098 0.000000 0.000000
# 5 0.000000 0.000000 0.000000 0.000000 0.109098 0.000000
# 6 0.000000 0.000000 0.000000 0.000000 0.000000 0.082636
#
#
# Mechanical properties :
#
#
# Convention : Reuss Voigt Hill
#
# Bulk Modulus (GPa) = 18.94715 58.38627 38.66671
# Shear Modulus (GPa) = 17.59028 123.73430 70.66229
#
# Velocity S-wave (km/s) = 2.76500 7.33338 5.54183
# Velocity P-wave (km/s) = 4.29286 9.85296 7.59965
#
# Compressibility (1/GPa) = 0.05277838
#
# Stress axis : x y z
#
# Youngs Moduli (GPa) = 282.93761 61.33088 23.27679
#
# Poissons Ratio (x) = 0.06395 0.09893
# Poissons Ratio (y) = 0.29501 -0.00656
# Poissons Ratio (z) = 1.20256 -0.01728
#
# Static dielectric constant tensor:
#      x y z
#    x 2.113740 0.000000 0.000000 
#    y 0.000000 1.822520 0.000000 
#    z 0.000000 0.000000 1.881260 
# 
# From -- ./inp_files/29415.got.cif
#   From: 2010.05.17/outbox.cif.g08.bks.cpg/sg67_15_cif.got.tgz:29415.got - 2010.06.03 18:28:57.
