data_PCOD9501585
_publ_section_title
;
Structure prediction by ZEFSAII (Michael W. Deem and Ramdas Pophale) SiO2 
 PCOD9501585
Probable space group: C M M A
;
_chemical_formula_sum "Si O2"
_cell_formula_units_Z 120
_cell_length_a 18.929665
_cell_length_b 27.690393
_cell_length_c 9.953052
_cell_angle_alpha 90.000000
_cell_angle_beta 90.000000
_cell_angle_gamma 90.000000
_cell_volume 5217.089905
_symmetry_space_group_name_H-M "C M M A"
_symmetry_group_IT_number 67
_symmetry_cell_setting 'orthorhombic'
loop_
_space_group_symop_operation_xyz
x,y,z
-x,1/2-y,z
x,-y,-z
-x,1/2+y,-z
-x,-y,-z
x,1/2+y,-z
-x,y,z
x,1/2-y,z
1/2+x,1/2+y,z
1/2-x,-y,z
1/2+x,1/2-y,-z
1/2-x,y,-z
1/2-x,1/2-y,-z
1/2+x,y,-z
1/2-x,1/2+y,z
1/2+x,-y,z
loop_
_atom_site_type_symbol
_atom_site_label
_atom_site_fract_x
_atom_site_fract_y
_atom_site_fract_z
Si Si1 0.581277 0.852249 0.536182
Si Si2 0.916665 0.942053 0.645211
Si Si3 0.182242 0.524435 0.287753
Si Si4 0.415953 0.197690 0.008704
Si Si5 0.149935 0.303980 0.284540
Si Si6 0.418443 0.399399 0.926226
Si Si7 0.218724 0.866305 0.346888
Si Si8 0.631778 0.500000 0.000000
O O1 0.500000 0.846922 0.578539
O O2 0.593437 0.907545 0.483337
O O3 0.599529 0.821097 0.404959
O O4 0.642704 0.840090 0.641171
O O5 0.889123 0.910963 0.775524
O O6 0.000000 0.947824 0.663251
O O7 0.882846 0.994930 0.647843
O O8 0.250000 0.500000 0.351847
O O9 0.198549 0.580888 0.294040
O O10 0.175888 0.507735 0.133655
O O11 0.500000 0.198897 0.036863
O O12 0.387495 0.250000 0.060394
O O13 0.397103 0.197878 0.849416
O O14 0.389317 0.142135 0.027235
O O15 0.175423 0.250000 0.314563
O O16 0.220007 0.337021 0.271483
O O17 0.500000 0.386357 0.904183
O O18 0.413655 0.451621 0.992099
O O19 0.250000 0.870435 0.500000
#
# Coordination Sequence:
#
# PCOD9501585 Si02
#       8
#    16  16  16  16  16  16  16   8
#     4  10  19  33  51  79 110 141 179 223 278 334
#     4   9  18  32  53  76 105 138 172 223 280 331
#     4  11  22  37  53  76 107 141 191 232 276 331
#     4   9  16  27  51  83 108 137 178 230 285 331
#     4  10  19  33  53  78 109 145 183 226 281 339
#     4   9  16  30  51  78 110 138 174 224 279 342
#     4  10  23  36  53  77 108 148 186 229 282 338
#     4  10  22  34  54  78 105 150 185 230 285 342
#
# _framework density 23.001329999999999
#
# number of rings (size 3 to 8) (size 9 to 14) (size 15 to 20)
#    0.000    2.267    1.333    2.400    1.867    6.133 
#    0.000    1.333    0.000    0.800    0.000    1.867 
#    0.000    4.267    0.000    0.000    0.000    0.000 
#
# Total GULP energy -334160.489719 kJ/mol
# GULP energy per Si atom -5569.341495 kJ/mol
# Density = 2.294898 g / cm^3
# Si number density = 23.001330 Si / 1000 Ang^3
#
#
#
# Elastic Constant Matrix: (Units=GPa)
#
#
# Indices 1 2 3 4 5 6 
#
# 1 106.5788 19.8538 4.5211 0.0000 0.0000 0.0000
# 2 19.8538 150.3339 -5.1023 0.0000 0.0000 0.0000
# 3 4.5211 -5.1023 38.0041 0.0000 0.0000 0.0000
# 4 0.0000 0.0000 0.0000 16.9150 0.0000 0.0000
# 5 0.0000 0.0000 0.0000 0.0000 -11.0857 0.0000
# 6 0.0000 0.0000 0.0000 0.0000 0.0000 27.6882
#
#
#
# Elastic Compliance Matrix: (Units=1/GPa)
#
#
# Indices 1 2 3 4 5 6 
#
# 1 0.009686 -0.001324 -0.001330 0.000000 0.000000 0.000000
# 2 -0.001324 0.006863 0.001079 0.000000 0.000000 0.000000
# 3 -0.001330 0.001079 0.026616 0.000000 0.000000 0.000000
# 4 0.000000 0.000000 0.000000 0.059119 0.000000 0.000000
# 5 0.000000 0.000000 0.000000 0.000000 -0.090206 0.000000
# 6 0.000000 0.000000 0.000000 0.000000 0.000000 0.036116
#
#
# Mechanical properties :
#
#
# Convention : Reuss Voigt Hill
#
# Bulk Modulus (GPa) = 24.99090 37.05132 31.02111
# Shear Modulus (GPa) = 77.29949 25.07977 51.18963
#
# Velocity S-wave (km/s) = 5.80340 3.30565 4.72265
# Velocity P-wave (km/s) = 7.46957 5.54193 6.57676
#
# Compressibility (1/GPa) = 0.04001457
#
# Stress axis : x y z
#
# Youngs Moduli (GPa) = 103.24341 145.70091 37.57132
#
# Poissons Ratio (x) = 0.19295 0.04997
# Poissons Ratio (y) = 0.13673 -0.04054
# Poissons Ratio (z) = 0.13732 -0.15721
#
# Static dielectric constant tensor:
#      x y z
#    x 1.943580 0.000000 0.000000 
#    y 0.000000 1.951700 0.000000 
#    z 0.000000 0.000000 1.925130 
# 
# From -- ./inp_files/21279.got.cif
#   From: 2010.05.17/outbox.cif.g08.bks.cpg/sg67_11_cif.got.tgz:21279.got - 2010.06.03 18:28:57.
