data_PCOD9501378
_publ_section_title
;
Structure prediction by ZEFSAII (Michael W. Deem and Ramdas Pophale) SiO2 
 PCOD9501378
Probable space group: C M M A
;
_chemical_formula_sum "Si O2"
_cell_formula_units_Z 96
_cell_length_a 28.645881
_cell_length_b 20.782175
_cell_length_c 9.310415
_cell_angle_alpha 90.000000
_cell_angle_beta 90.000000
_cell_angle_gamma 90.000000
_cell_volume 5542.710818
_symmetry_space_group_name_H-M "C M M A"
_symmetry_group_IT_number 67
_symmetry_cell_setting 'orthorhombic'
loop_
_space_group_symop_operation_xyz
x,y,z
-x,1/2-y,z
x,-y,-z
-x,1/2+y,-z
-x,-y,-z
x,1/2+y,-z
-x,y,z
x,1/2-y,z
1/2+x,1/2+y,z
1/2-x,-y,z
1/2+x,1/2-y,-z
1/2-x,y,-z
1/2-x,1/2-y,-z
1/2+x,y,-z
1/2-x,1/2+y,z
1/2+x,-y,z
loop_
_atom_site_type_symbol
_atom_site_label
_atom_site_fract_x
_atom_site_fract_y
_atom_site_fract_z
Si Si1 0.885264 0.176197 0.862922
Si Si2 0.302115 0.893600 0.010303
Si Si3 0.944022 0.436025 0.342208
Si Si4 0.105829 0.941175 0.351576
Si Si5 0.802483 0.998572 0.758670
Si Si6 0.944292 0.679118 0.864566
O O1 0.881478 0.250000 0.813762
O O2 0.890281 0.124554 0.736628
O O3 0.841118 0.156211 0.961457
O O4 0.928298 0.170154 0.972378
O O5 0.310687 0.929849 0.162200
O O6 0.250000 0.865722 0.000000
O O7 0.302243 0.949927 0.889673
O O8 0.929040 0.505842 0.282161
O O9 0.915898 0.429251 0.491586
O O10 0.929230 0.379399 0.235659
O O11 0.000000 0.433992 0.366414
O O12 0.156190 0.976556 0.342653
O O13 0.750000 0.000000 0.696568
O O14 0.926881 0.750000 0.817834
O O15 0.000000 0.679905 0.857528
#
# Coordination Sequence:
#
# PCOD9501378 Si02
#       6
#    16  16  16  16  16  16
#     4  10  20  32  49  75 101 125 160 205 245 280
#     4   8  14  26  45  70  99 128 158 193 237 289
#     4  10  21  36  52  70  96 130 164 197 239 295
#     4  10  19  32  50  73 100 127 160 204 243 281
#     4   8  14  26  46  71  97 125 158 198 241 284
#     4   9  19  35  52  71  97 129 163 197 238 291
#
# _framework density 17.320043999999999
#
# number of rings (size 3 to 8) (size 9 to 14) (size 15 to 20)
#    0.000    2.833    0.000    3.000    0.000    4.333 
#    0.000    3.333    0.000    0.000    0.000    0.000 
#    0.000   26.667    0.000    0.000    0.000    0.000 
#
# Total GULP energy -267216.052270 kJ/mol
# GULP energy per Si atom -5567.001089 kJ/mol
# Density = 1.728062 g / cm^3
# Si number density = 17.320044 Si / 1000 Ang^3
#
#
#
# Elastic Constant Matrix: (Units=GPa)
#
#
# Indices 1 2 3 4 5 6 
#
# 1 71.9264 32.3480 29.0358 0.0000 0.0000 0.0000
# 2 32.3480 124.8948 48.7210 0.0000 0.0000 0.0000
# 3 29.0358 48.7210 45.9753 0.0000 0.0000 0.0000
# 4 0.0000 0.0000 0.0000 25.3518 0.0000 0.0000
# 5 0.0000 0.0000 0.0000 0.0000 25.0056 0.0000
# 6 0.0000 0.0000 0.0000 0.0000 0.0000 17.4983
#
#
#
# Elastic Compliance Matrix: (Units=1/GPa)
#
#
# Indices 1 2 3 4 5 6 
#
# 1 0.018672 -0.000402 -0.011366 0.000000 0.000000 0.000000
# 2 -0.000402 0.013658 -0.014220 0.000000 0.000000 0.000000
# 3 -0.011366 -0.014220 0.043998 0.000000 0.000000 0.000000
# 4 0.000000 0.000000 0.000000 0.039445 0.000000 0.000000
# 5 0.000000 0.000000 0.000000 0.000000 0.039991 0.000000
# 6 0.000000 0.000000 0.000000 0.000000 0.000000 0.057148
#
#
# Mechanical properties :
#
#
# Convention : Reuss Voigt Hill
#
# Bulk Modulus (GPa) = 41.06429 51.44514 46.25471
# Shear Modulus (GPa) = 18.31458 22.41725 20.36592
#
# Velocity S-wave (km/s) = 3.25533 3.60153 3.43280
# Velocity P-wave (km/s) = 6.15550 6.86017 6.51736
#
# Compressibility (1/GPa) = 0.02435206
#
# Stress axis : x y z
#
# Youngs Moduli (GPa) = 53.55478 73.21765 22.72828
#
# Poissons Ratio (x) = 0.02945 0.25834
# Poissons Ratio (y) = 0.02154 0.32319
# Poissons Ratio (z) = 0.60873 1.04112
#
# Static dielectric constant tensor:
#      x y z
#    x 1.629220 0.000000 0.000000 
#    y 0.000000 1.605970 0.000000 
#    z 0.000000 0.000000 1.585350 
# 
# From -- ./inp_files/13738.got.cif
#   From: 2010.05.17/outbox.cif.g08.bks.cpg/sg67_7_cif.got.tgz:13738.got - 2010.06.03 18:28:57.
