data_PCOD9501131
_publ_section_title
;
Structure prediction by ZEFSAII (Michael W. Deem and Ramdas Pophale) SiO2 
 PCOD9501131
Probable space group: C M M A
;
_chemical_formula_sum "Si O2"
_cell_formula_units_Z 100
_cell_length_a 9.061449
_cell_length_b 26.463647
_cell_length_c 21.323780
_cell_angle_alpha 90.000000
_cell_angle_beta 90.000000
_cell_angle_gamma 90.000000
_cell_volume 5113.420857
_symmetry_space_group_name_H-M "C M M A"
_symmetry_group_IT_number 67
_symmetry_cell_setting 'orthorhombic'
loop_
_space_group_symop_operation_xyz
x,y,z
-x,1/2-y,z
x,-y,-z
-x,1/2+y,-z
-x,-y,-z
x,1/2+y,-z
-x,y,z
x,1/2-y,z
1/2+x,1/2+y,z
1/2-x,-y,z
1/2+x,1/2-y,-z
1/2-x,y,-z
1/2-x,1/2-y,-z
1/2+x,y,-z
1/2-x,1/2+y,z
1/2+x,-y,z
loop_
_atom_site_type_symbol
_atom_site_label
_atom_site_fract_x
_atom_site_fract_y
_atom_site_fract_z
Si Si1 0.831186 0.594961 0.414678
Si Si2 0.250000 0.500000 0.500000
Si Si3 0.173086 0.693460 0.593842
Si Si4 0.673547 0.376348 0.817259
Si Si5 0.165699 0.692906 0.274834
Si Si6 0.178049 0.192189 0.067743
Si Si7 0.173959 0.053019 0.723412
O O1 0.821797 0.541600 0.452430
O O2 0.721584 0.639894 0.435904
O O3 0.797812 0.584096 0.340991
O O4 0.000000 0.612882 0.420392
O O5 0.189304 0.750000 0.564201
O O6 0.279291 0.694793 0.654183
O O7 0.000000 0.689531 0.610270
O O8 0.500000 0.387296 0.820613
O O9 0.710943 0.334176 0.765611
O O10 0.723015 0.350655 0.882368
O O11 0.761042 0.422702 0.786804
O O12 0.155254 0.750000 0.252060
O O13 0.000000 0.670010 0.269463
O O14 0.216658 0.250000 0.087831
O O15 0.000000 0.190384 0.062932
O O16 0.250000 0.184010 0.000000
O O17 0.000000 0.047053 0.729065
O O18 0.250000 0.000000 0.713307
#
# Coordination Sequence:
#
# PCOD9501131 Si02
#       7
#    16   4  16  16  16  16  16
#     4  11  24  42  66  95 125 160 205 258 313 374
#     4  12  26  48  70  94 122 160 210 256 314 376
#     4  10  21  37  60  89 123 162 199 243 305 371
#     4  11  21  34  55  84 118 159 203 250 304 360
#     4  10  19  30  48  79 117 154 194 239 288 346
#     4   9  19  35  55  83 122 166 209 251 297 355
#     4  11  23  40  61  88 121 156 199 254 317 373
#
# _framework density 19.556379
#
# number of rings (size 3 to 8) (size 9 to 14) (size 15 to 20)
#    0.000    1.600    2.400    2.640    0.000    5.760 
#    0.000    2.000    0.000    0.480    0.000    3.360 
#    0.000    0.000    0.000    0.000    0.000    0.000 
#
# Total GULP energy -278589.200460 kJ/mol
# GULP energy per Si atom -5571.784009 kJ/mol
# Density = 1.951187 g / cm^3
# Si number density = 19.556379 Si / 1000 Ang^3
#
#
#
# Elastic Constant Matrix: (Units=GPa)
#
#
# Indices 1 2 3 4 5 6 
#
# 1 68.5925 50.9324 31.5732 0.0000 0.0000 0.0000
# 2 50.9324 117.6861 15.1527 0.0000 0.0000 0.0000
# 3 31.5732 15.1527 83.9292 0.0000 0.0000 0.0000
# 4 0.0000 0.0000 0.0000 48.6241 0.0000 0.0000
# 5 0.0000 0.0000 0.0000 0.0000 -28.9382 0.0000
# 6 0.0000 0.0000 0.0000 0.0000 0.0000 4.4344
#
#
#
# Elastic Compliance Matrix: (Units=1/GPa)
#
#
# Indices 1 2 3 4 5 6 
#
# 1 0.025696 -0.010111 -0.007841 0.000000 0.000000 0.000000
# 2 -0.010111 0.012678 0.001515 0.000000 0.000000 0.000000
# 3 -0.007841 0.001515 0.014591 0.000000 0.000000 0.000000
# 4 0.000000 0.000000 0.000000 0.020566 0.000000 0.000000
# 5 0.000000 0.000000 0.000000 0.000000 -0.034556 0.000000
# 6 0.000000 0.000000 0.000000 0.000000 0.000000 0.225508
#
#
# Mechanical properties :
#
#
# Convention : Reuss Voigt Hill
#
# Bulk Modulus (GPa) = 49.77545 51.72495 50.75020
# Shear Modulus (GPa) = 16.44441 16.32736 16.38588
#
# Velocity S-wave (km/s) = 2.90292 2.89258 2.89775
# Velocity P-wave (km/s) = 6.06164 6.13698 6.09943
#
# Compressibility (1/GPa) = 0.02009023
#
# Stress axis : x y z
#
# Youngs Moduli (GPa) = 38.91648 78.87623 68.53525
#
# Poissons Ratio (x) = 0.79753 0.53739
# Poissons Ratio (y) = 0.39349 -0.10382
# Poissons Ratio (z) = 0.30515 -0.11948
#
# Static dielectric constant tensor:
#      x y z
#    x 1.668520 0.000000 0.000000 
#    y 0.000000 1.772660 0.000000 
#    z 0.000000 0.000000 1.684250 
# 
# From -- ./inp_files/37345.got.cif
#   From: 2010.05.17/outbox.cif.g08.bks.cpg/sg67_19_cif.got.tgz:37345.got - 2010.06.03 18:28:57.
