data_PCOD9501013
_publ_section_title
;
Structure prediction by ZEFSAII (Michael W. Deem and Ramdas Pophale) SiO2 
 PCOD9501013
Probable space group: C M M A
;
_chemical_formula_sum "Si O2"
_cell_formula_units_Z 96
_cell_length_a 18.662040
_cell_length_b 11.157831
_cell_length_c 20.294654
_cell_angle_alpha 90.000000
_cell_angle_beta 90.000000
_cell_angle_gamma 90.000000
_cell_volume 4225.912949
_symmetry_space_group_name_H-M "C M M A"
_symmetry_group_IT_number 67
_symmetry_cell_setting 'orthorhombic'
loop_
_space_group_symop_operation_xyz
x,y,z
-x,1/2-y,z
x,-y,-z
-x,1/2+y,-z
-x,-y,-z
x,1/2+y,-z
-x,y,z
x,1/2-y,z
1/2+x,1/2+y,z
1/2-x,-y,z
1/2+x,1/2-y,-z
1/2-x,y,-z
1/2-x,1/2-y,-z
1/2+x,y,-z
1/2-x,1/2+y,z
1/2+x,-y,z
loop_
_atom_site_type_symbol
_atom_site_label
_atom_site_fract_x
_atom_site_fract_y
_atom_site_fract_z
Si Si1 0.918085 0.482194 0.375499
Si Si2 0.084939 0.250000 0.448856
Si Si3 0.916385 0.750000 0.393792
Si Si4 0.257782 0.875395 0.715112
Si Si5 0.397646 0.615492 0.229652
Si Si6 0.668718 0.379014 0.027049
Si Si7 0.122188 0.620258 0.173610
O O1 0.885291 0.375458 0.419894
O O2 0.887308 0.618092 0.372866
O O3 0.920400 0.424959 0.302897
O O4 0.000000 0.500325 0.400299
O O5 0.087928 0.250000 0.527263
O O6 0.000000 0.250000 0.429541
O O7 0.000000 0.750000 0.370813
O O8 0.253665 0.750000 0.677658
O O9 0.188871 0.877433 0.763949
O O10 0.325534 0.875193 0.763278
O O11 0.250000 0.000000 0.676896
O O12 0.421798 0.750000 0.214119
O O13 0.417665 0.505834 0.182334
O O14 0.636091 0.250000 0.007888
O O15 0.633638 0.500000 0.000000
O O16 0.750000 0.377553 0.000000
O O17 0.666603 0.385512 0.106022
O O18 0.083773 0.750000 0.173126
#
# Coordination Sequence:
#
# PCOD9501013 Si02
#       7
#    16   8   8  16  16  16  16
#     4  10  19  31  46  68  99 125 153 189 227 275
#     4   9  16  30  50  68  93 123 149 184 233 281
#     4   9  18  30  48  70  91 123 155 182 229 287
#     4   8  15  26  40  57  81 110 148 183 222 257
#     4  10  19  28  43  64  89 124 158 191 228 270
#     4   9  18  27  40  61  87 120 153 181 223 278
#     4   9  18  31  44  62  91 124 156 193 231 269
#
# _framework density 22.716982999999999
#
# number of rings (size 3 to 8) (size 9 to 14) (size 15 to 20)
#    0.000    2.833    0.833    0.500    8.167    2.667 
#    0.000    0.000    0.000    0.000    0.000    0.000 
#    0.000   36.667    0.000    1.333    0.000    1.333 
#
# Total GULP energy -267283.077292 kJ/mol
# GULP energy per Si atom -5568.397444 kJ/mol
# Density = 2.266528 g / cm^3
# Si number density = 22.716983 Si / 1000 Ang^3
#
#
#
# Elastic Constant Matrix: (Units=GPa)
#
#
# Indices 1 2 3 4 5 6 
#
# 1 46.4581 11.3822 5.1431 0.0000 0.0000 0.0000
# 2 11.3822 321.9188 49.9841 0.0000 0.0000 0.0000
# 3 5.1431 49.9841 77.1282 0.0000 0.0000 0.0000
# 4 0.0000 0.0000 0.0000 38.5735 0.0000 0.0000
# 5 0.0000 0.0000 0.0000 0.0000 19.3997 0.0000
# 6 0.0000 0.0000 0.0000 0.0000 0.0000 -6.0034
#
#
#
# Elastic Compliance Matrix: (Units=1/GPa)
#
#
# Indices 1 2 3 4 5 6 
#
# 1 0.021791 -0.000606 -0.001060 0.000000 0.000000 0.000000
# 2 -0.000606 0.003471 -0.002209 0.000000 0.000000 0.000000
# 3 -0.001060 -0.002209 0.014468 0.000000 0.000000 0.000000
# 4 0.000000 0.000000 0.000000 0.025925 0.000000 0.000000
# 5 0.000000 0.000000 0.000000 0.000000 0.051547 0.000000
# 6 0.000000 0.000000 0.000000 0.000000 0.000000 -0.166573
#
#
# Mechanical properties :
#
#
# Convention : Reuss Voigt Hill
#
# Bulk Modulus (GPa) = 31.27079 64.28043 47.77561
# Shear Modulus (GPa) = -161.48361 35.66036 -62.91163
#
# Velocity S-wave (km/s) = -8.44034 3.96633 -5.26819
# Velocity P-wave (km/s) = 9.01057 7.02377 3.99106
#
# Compressibility (1/GPa) = 0.03197872
#
# Stress axis : x y z
#
# Youngs Moduli (GPa) = 45.89141 288.12098 69.11981
#
# Poissons Ratio (x) = 0.17455 0.07330
# Poissons Ratio (y) = 0.02780 0.15268
# Poissons Ratio (z) = 0.04866 0.63643
#
# Static dielectric constant tensor:
#      x y z
#    x 1.887770 0.000000 0.000000 
#    y 0.000000 2.008880 0.000000 
#    z 0.000000 0.000000 1.772160 
# 
# From -- ./inp_files/35458.got.cif
#   From: 2010.05.17/outbox.cif.g08.bks.cpg/sg67_18_cif.got.tgz:35458.got - 2010.06.03 18:28:57.
