data_PCOD9501150
_publ_section_title
;
Structure prediction by ZEFSAII (Michael W. Deem and Ramdas Pophale) SiO2 
 PCOD9501150
Probable space group: C M M A
;
_chemical_formula_sum "Si O2"
_cell_formula_units_Z 96
_cell_length_a 18.592074
_cell_length_b 11.162531
_cell_length_c 20.687516
_cell_angle_alpha 90.000000
_cell_angle_beta 90.000000
_cell_angle_gamma 90.000000
_cell_volume 4293.375407
_symmetry_space_group_name_H-M "C M M A"
_symmetry_group_IT_number 67
_symmetry_cell_setting 'orthorhombic'
loop_
_space_group_symop_operation_xyz
x,y,z
-x,1/2-y,z
x,-y,-z
-x,1/2+y,-z
-x,-y,-z
x,1/2+y,-z
-x,y,z
x,1/2-y,z
1/2+x,1/2+y,z
1/2-x,-y,z
1/2+x,1/2-y,-z
1/2-x,y,-z
1/2-x,1/2-y,-z
1/2+x,y,-z
1/2-x,1/2+y,z
1/2+x,-y,z
loop_
_atom_site_type_symbol
_atom_site_label
_atom_site_fract_x
_atom_site_fract_y
_atom_site_fract_z
Si Si1 0.326466 0.750000 0.090931
Si Si2 0.500000 0.375317 0.785122
Si Si3 0.157668 0.385255 0.737933
Si Si4 0.843930 0.250000 0.938595
Si Si5 0.872363 0.380911 0.320607
Si Si6 0.000000 0.874384 0.209461
Si Si7 0.084909 0.380169 0.468398
Si Si8 0.828645 0.013607 0.879316
O O1 0.238532 0.750000 0.090011
O O2 0.353570 0.624831 0.122005
O O3 0.345492 0.750000 0.015413
O O4 0.500000 0.250000 0.821179
O O5 0.567803 0.378001 0.736032
O O6 0.500000 0.497762 0.825088
O O7 0.183073 0.250000 0.724740
O O8 0.170394 0.496103 0.690366
O O9 0.182422 0.432428 0.807946
O O10 0.071079 0.374210 0.746740
O O11 0.872001 0.120534 0.914225
O O12 0.835624 0.250000 0.316919
O O13 0.907659 0.387633 0.391121
O O14 0.000000 0.750000 0.171322
O O15 0.116492 0.500000 0.500000
O O16 0.115250 0.250000 0.488951
O O17 0.000000 0.377828 0.484459
O O18 0.750000 0.000000 0.912518
#
# Coordination Sequence:
#
# PCOD9501150 Si02
#       8
#     8   8  16   8  16   8  16  16
#     4   9  18  28  50  73  95 121 158 182 230 294
#     4   8  12  22  37  53  75 105 143 185 224 253
#     4  10  19  31  45  66  94 125 160 197 237 273
#     4   9  16  32  48  71  97 125 148 190 234 280
#     4   9  16  26  41  58  83 117 155 193 230 274
#     4   8  16  28  42  59  82 118 156 191 221 262
#     4   9  16  26  39  58  85 118 155 195 240 283
#     4  10  19  31  48  71 100 125 150 191 236 284
#
# _framework density 22.360029999999998
#
# number of rings (size 3 to 8) (size 9 to 14) (size 15 to 20)
#    0.000    2.833    1.667    0.500    1.167    2.667 
#    0.000    0.000    0.000    0.000    0.000    3.500 
#    0.000    0.667    0.000    5.167    0.000    2.167 
#
# Total GULP energy -267218.408041 kJ/mol
# GULP energy per Si atom -5567.050168 kJ/mol
# Density = 2.230914 g / cm^3
# Si number density = 22.360030 Si / 1000 Ang^3
#
#
#
# Elastic Constant Matrix: (Units=GPa)
#
#
# Indices 1 2 3 4 5 6 
#
# 1 59.7307 8.2970 -1.9507 0.0000 0.0000 0.0000
# 2 8.2970 327.0619 46.1480 0.0000 0.0000 0.0000
# 3 -1.9507 46.1480 32.9385 0.0000 0.0000 0.0000
# 4 0.0000 0.0000 0.0000 41.4761 0.0000 0.0000
# 5 0.0000 0.0000 0.0000 0.0000 16.2385 0.0000
# 6 0.0000 0.0000 0.0000 0.0000 0.0000 0.1638
#
#
#
# Elastic Compliance Matrix: (Units=1/GPa)
#
#
# Indices 1 2 3 4 5 6 
#
# 1 0.016906 -0.000711 0.001997 0.000000 0.000000 0.000000
# 2 -0.000711 0.003841 -0.005423 0.000000 0.000000 0.000000
# 3 0.001997 -0.005423 0.038076 0.000000 0.000000 0.000000
# 4 0.000000 0.000000 0.000000 0.024110 0.000000 0.000000
# 5 0.000000 0.000000 0.000000 0.000000 0.061582 0.000000
# 6 0.000000 0.000000 0.000000 0.000000 0.000000 6.103680
#
#
# Mechanical properties :
#
#
# Convention : Reuss Voigt Hill
#
# Bulk Modulus (GPa) = 19.78301 58.30218 39.04259
# Shear Modulus (GPa) = 0.79703 36.05813 18.42758
#
# Velocity S-wave (km/s) = 0.59768 4.02010 2.87388
# Velocity P-wave (km/s) = 3.05663 6.90501 5.33957
#
# Compressibility (1/GPa) = 0.05054843
#
# Stress axis : x y z
#
# Youngs Moduli (GPa) = 59.15149 260.36630 26.26344
#
# Poissons Ratio (x) = 0.18502 -0.05244
# Poissons Ratio (y) = 0.04203 0.14243
# Poissons Ratio (z) = -0.11811 1.41199
#
# Static dielectric constant tensor:
#      x y z
#    x 1.923820 0.000000 0.000000 
#    y 0.000000 1.978780 0.000000 
#    z 0.000000 0.000000 1.756280 
# 
# From -- ./inp_files/39697.got.cif
#   From: 2010.05.17/outbox.cif.g08.bks.cpg/sg67_20_cif.got.tgz:39697.got - 2010.06.03 18:28:57.
