data_PCOD9501147
_publ_section_title
;
Structure prediction by ZEFSAII (Michael W. Deem and Ramdas Pophale) SiO2 
 PCOD9501147
Probable space group: C M M A
;
_chemical_formula_sum "Si O2"
_cell_formula_units_Z 80
_cell_length_a 26.067541
_cell_length_b 18.242699
_cell_length_c 9.320959
_cell_angle_alpha 90.000000
_cell_angle_beta 90.000000
_cell_angle_gamma 90.000000
_cell_volume 4432.510320
_symmetry_space_group_name_H-M "C M M A"
_symmetry_group_IT_number 67
_symmetry_cell_setting 'orthorhombic'
loop_
_space_group_symop_operation_xyz
x,y,z
-x,1/2-y,z
x,-y,-z
-x,1/2+y,-z
-x,-y,-z
x,1/2+y,-z
-x,y,z
x,1/2-y,z
1/2+x,1/2+y,z
1/2-x,-y,z
1/2+x,1/2-y,-z
1/2-x,y,-z
1/2-x,1/2-y,-z
1/2+x,y,-z
1/2-x,1/2+y,z
1/2+x,-y,z
loop_
_atom_site_type_symbol
_atom_site_label
_atom_site_fract_x
_atom_site_fract_y
_atom_site_fract_z
Si Si1 0.652272 0.905871 0.151303
Si Si2 0.557484 0.663094 0.316586
Si Si3 0.440512 0.571545 0.593884
Si Si4 0.248585 0.410466 0.665587
Si Si5 0.853960 0.418080 0.824322
O O1 0.602167 0.875833 0.229615
O O2 0.703635 0.883656 0.238000
O O3 0.652234 0.994152 0.158228
O O4 0.648626 0.885310 0.983855
O O5 0.500000 0.640461 0.268643
O O6 0.561796 0.750000 0.303453
O O7 0.561819 0.637756 0.481210
O O8 0.423057 0.500000 0.500000
O O9 0.500000 0.558192 0.634167
O O10 0.405180 0.588560 0.729595
O O11 0.250000 0.500000 0.665238
O O12 0.250000 0.386813 0.500000
O O13 0.194646 0.389515 0.735592
#
# Coordination Sequence:
#
# PCOD9501147 Si02
#       5
#    16  16  16  16  16
#     4  10  19  32  50  79 112 141 177 224 276 328
#     4  10  21  37  56  77 107 148 185 220 271 331
#     4  10  19  33  54  79 105 137 183 231 270 315
#     4   9  17  28  49  77 107 141 177 219 271 325
#     4  10  19  30  52  81 111 138 174 230 282 319
#
# _framework density 18.048463999999999
#
# number of rings (size 3 to 8) (size 9 to 14) (size 15 to 20)
#    0.000    2.200    2.000    1.800    2.800    3.200 
#    0.000    3.000    0.000   10.200    0.000    0.000 
#    0.000    0.000    0.000    0.000    0.000    0.000 
#
# Total GULP energy -222979.978520 kJ/mol
# GULP energy per Si atom -5574.499463 kJ/mol
# Density = 1.800738 g / cm^3
# Si number density = 18.048464 Si / 1000 Ang^3
#
#
#
# Elastic Constant Matrix: (Units=GPa)
#
#
# Indices 1 2 3 4 5 6 
#
# 1 146.6739 17.2512 103.6068 0.0000 0.0000 0.0000
# 2 17.2512 12.9095 11.4950 0.0000 0.0000 0.0000
# 3 103.6068 11.4950 164.3790 0.0000 0.0000 0.0000
# 4 0.0000 0.0000 0.0000 7.0016 0.0000 0.0000
# 5 0.0000 0.0000 0.0000 0.0000 -2.3811 0.0000
# 6 0.0000 0.0000 0.0000 0.0000 0.0000 5.8010
#
#
#
# Elastic Compliance Matrix: (Units=1/GPa)
#
#
# Indices 1 2 3 4 5 6 
#
# 1 0.013680 -0.011307 -0.007832 0.000000 0.000000 0.000000
# 2 -0.011307 0.091952 0.000697 0.000000 0.000000 0.000000
# 3 -0.007832 0.000697 0.010971 0.000000 0.000000 0.000000
# 4 0.000000 0.000000 0.000000 0.142825 0.000000 0.000000
# 5 0.000000 0.000000 0.000000 0.000000 -0.419979 0.000000
# 6 0.000000 0.000000 0.000000 0.000000 0.000000 0.172385
#
#
# Mechanical properties :
#
#
# Convention : Reuss Voigt Hill
#
# Bulk Modulus (GPa) = 12.54410 65.40761 38.97585
# Shear Modulus (GPa) = 66.40876 14.85825 40.63350
#
# Velocity S-wave (km/s) = 6.07244 2.87233 4.74999
# Velocity P-wave (km/s) = 7.49209 6.87888 7.19203
#
# Compressibility (1/GPa) = 0.07971877
#
# Stress axis : x y z
#
# Youngs Moduli (GPa) = 73.10073 10.87521 91.14985
#
# Poissons Ratio (x) = 0.12297 0.71384
# Poissons Ratio (y) = 0.82656 -0.06350
# Poissons Ratio (z) = 0.57249 -0.00758
#
# Static dielectric constant tensor:
#      x y z
#    x 1.623590 0.000000 0.000000 
#    y 0.000000 1.608300 0.000000 
#    z 0.000000 0.000000 1.621730 
# 
# From -- ./inp_files/9956.got.cif
#   From: 2010.05.17/outbox.cif.g08.bks.cpg/sg67_5_cif.got.tgz:9956.got - 2010.06.03 18:28:57.
