data_PCOD9501633
_publ_section_title
;
Structure prediction by ZEFSAII (Michael W. Deem and Ramdas Pophale) SiO2 
 PCOD9501633
Probable space group: C M M A
;
_chemical_formula_sum "Si O2"
_cell_formula_units_Z 80
_cell_length_a 24.846081
_cell_length_b 16.739898
_cell_length_c 9.473849
_cell_angle_alpha 90.000000
_cell_angle_beta 90.000000
_cell_angle_gamma 90.000000
_cell_volume 3940.371439
_symmetry_space_group_name_H-M "C M M A"
_symmetry_group_IT_number 67
_symmetry_cell_setting 'orthorhombic'
loop_
_space_group_symop_operation_xyz
x,y,z
-x,1/2-y,z
x,-y,-z
-x,1/2+y,-z
-x,-y,-z
x,1/2+y,-z
-x,y,z
x,1/2-y,z
1/2+x,1/2+y,z
1/2-x,-y,z
1/2+x,1/2-y,-z
1/2-x,y,-z
1/2-x,1/2-y,-z
1/2+x,y,-z
1/2-x,1/2+y,z
1/2+x,-y,z
loop_
_atom_site_type_symbol
_atom_site_label
_atom_site_fract_x
_atom_site_fract_y
_atom_site_fract_z
Si Si1 0.841937 0.659223 0.496197
Si Si2 0.648101 0.029594 0.247916
Si Si3 0.284685 0.621290 0.214937
Si Si4 0.939456 0.427898 0.385926
Si Si5 0.169208 0.336981 0.926654
O O1 0.836093 0.750000 0.442262
O O2 0.837354 0.586006 0.383853
O O3 0.800358 0.648951 0.627354
O O4 0.902424 0.643680 0.554928
O O5 0.633569 0.090564 0.124986
O O6 0.697528 0.971312 0.212891
O O7 0.598681 0.970317 0.272484
O O8 0.225652 0.644475 0.156781
O O9 0.320961 0.660260 0.092704
O O10 0.943275 0.500000 0.500000
O O11 0.000000 0.405279 0.346236
O O12 0.149706 0.250000 0.885725
#
# Coordination Sequence:
#
# PCOD9501633 Si02
#       5
#    16  16  16  16  16
#     4  10  19  33  53  80 109 134 169 217 264 306
#     4  10  20  33  53  78 105 137 173 216 263 315
#     4  10  20  36  53  74 104 144 178 210 258 316
#     4   8  16  32  52  74 101 134 170 208 255 311
#     4  11  21  34  53  77 104 137 181 223 260 306
#
# _framework density 20.302654
#
# number of rings (size 3 to 8) (size 9 to 14) (size 15 to 20)
#    0.000    2.200    0.000    6.000    0.000    2.800 
#    0.000    8.000    0.000   11.400    0.000    0.000 
#    0.000    0.000    0.000    0.000    0.000    0.000 
#
# Total GULP energy -222837.848308 kJ/mol
# GULP energy per Si atom -5570.946208 kJ/mol
# Density = 2.025644 g / cm^3
# Si number density = 20.302654 Si / 1000 Ang^3
#
#
#
# Elastic Constant Matrix: (Units=GPa)
#
#
# Indices 1 2 3 4 5 6 
#
# 1 54.2688 -4.4035 3.5358 0.0000 0.0000 0.0000
# 2 -4.4035 122.4986 8.5635 0.0000 0.0000 0.0000
# 3 3.5358 8.5635 71.5131 0.0000 0.0000 0.0000
# 4 0.0000 0.0000 0.0000 53.7228 0.0000 0.0000
# 5 0.0000 0.0000 0.0000 0.0000 8.7175 0.0000
# 6 0.0000 0.0000 0.0000 0.0000 0.0000 17.6486
#
#
#
# Elastic Compliance Matrix: (Units=1/GPa)
#
#
# Indices 1 2 3 4 5 6 
#
# 1 0.018552 0.000737 -0.001006 0.000000 0.000000 0.000000
# 2 0.000737 0.008262 -0.001026 0.000000 0.000000 0.000000
# 3 -0.001006 -0.001026 0.014156 0.000000 0.000000 0.000000
# 4 0.000000 0.000000 0.000000 0.018614 0.000000 0.000000
# 5 0.000000 0.000000 0.000000 0.000000 0.114711 0.000000
# 6 0.000000 0.000000 0.000000 0.000000 0.000000 0.056662
#
#
# Mechanical properties :
#
#
# Convention : Reuss Voigt Hill
#
# Bulk Modulus (GPa) = 26.05422 29.29690 27.67556
# Shear Modulus (GPa) = 20.29725 32.05678 26.17701
#
# Velocity S-wave (km/s) = 3.16529 3.97791 3.59463
# Velocity P-wave (km/s) = 5.12050 5.96320 5.55784
#
# Compressibility (1/GPa) = 0.03838150
#
# Stress axis : x y z
#
# Youngs Moduli (GPa) = 53.90215 121.04248 70.64140
#
# Poissons Ratio (x) = -0.08923 0.07103
# Poissons Ratio (y) = -0.03974 0.07246
# Poissons Ratio (z) = 0.05420 0.12416
#
# Static dielectric constant tensor:
#      x y z
#    x 1.764080 0.000000 0.000000 
#    y 0.000000 1.741270 0.000000 
#    z 0.000000 0.000000 1.800430 
# 
# From -- ./inp_files/14587.got.cif
#   From: 2010.05.17/outbox.cif.g08.bks.cpg/sg67_8_cif.got.tgz:14587.got - 2010.06.03 18:28:57.
