data_PCOD9501518
_publ_section_title
;
Structure prediction by ZEFSAII (Michael W. Deem and Ramdas Pophale) SiO2 
 PCOD9501518
Probable space group: C M M A
;
_chemical_formula_sum "Si O2"
_cell_formula_units_Z 112
_cell_length_a 16.447722
_cell_length_b 19.594601
_cell_length_c 19.197252
_cell_angle_alpha 90.000000
_cell_angle_beta 90.000000
_cell_angle_gamma 90.000000
_cell_volume 6187.016116
_symmetry_space_group_name_H-M "C M M A"
_symmetry_group_IT_number 67
_symmetry_cell_setting 'orthorhombic'
loop_
_space_group_symop_operation_xyz
x,y,z
-x,1/2-y,z
x,-y,-z
-x,1/2+y,-z
-x,-y,-z
x,1/2+y,-z
-x,y,z
x,1/2-y,z
1/2+x,1/2+y,z
1/2-x,-y,z
1/2+x,1/2-y,-z
1/2-x,y,-z
1/2-x,1/2-y,-z
1/2+x,y,-z
1/2-x,1/2+y,z
1/2+x,-y,z
loop_
_atom_site_type_symbol
_atom_site_label
_atom_site_fract_x
_atom_site_fract_y
_atom_site_fract_z
Si Si1 0.091227 0.564769 0.669852
Si Si2 0.753362 0.916932 0.580932
Si Si3 0.838071 0.566022 0.963013
Si Si4 0.339049 0.832550 0.794867
Si Si5 0.304402 0.933157 0.199781
Si Si6 0.095444 0.325979 0.943900
Si Si7 0.090501 0.400022 0.659910
O O1 0.161933 0.596945 0.621289
O O2 0.119480 0.572917 0.749451
O O3 0.089590 0.482499 0.660667
O O4 0.000000 0.590229 0.656125
O O5 0.750000 0.897566 0.500000
O O6 0.673237 0.885258 0.617146
O O7 0.750000 0.000000 0.583884
O O8 0.827758 0.559104 0.880935
O O9 0.876270 0.500000 0.000000
O O10 0.750000 0.573141 0.000000
O O11 0.886910 0.631030 0.987984
O O12 0.340840 0.750000 0.789898
O O13 0.251015 0.866804 0.787830
O O14 0.366616 0.854059 0.872572
O O15 0.395003 0.866757 0.735759
O O16 0.250000 0.000000 0.219646
O O17 0.128814 0.250000 0.953186
O O18 0.000000 0.322814 0.931757
O O19 0.000000 0.378632 0.634320
#
# Coordination Sequence:
#
# PCOD9501518 Si02
#       7
#    16  16  16  16  16  16  16
#     4  10  20  33  55  83 112 149 186 221 272 330
#     4   9  17  32  54  82 118 148 176 223 270 318
#     4  11  21  34  53  78 102 138 182 231 280 327
#     4  11  21  34  56  81 106 142 182 228 281 331
#     4  12  19  36  58  77 111 146 186 231 277 330
#     4  10  22  38  53  74 106 141 179 228 283 336
#     4  10  19  32  53  82 112 144 178 220 273 325
#
# _framework density 18.102425
#
# number of rings (size 3 to 8) (size 9 to 14) (size 15 to 20)
#    0.000    1.571    5.714    0.857    0.000    3.143 
#    0.000    2.857    0.000    0.857    0.000    0.000 
#    0.000    0.000    0.000    0.000    0.000    0.000 
#
# Total GULP energy -312054.085143 kJ/mol
# GULP energy per Si atom -5572.394378 kJ/mol
# Density = 1.806122 g / cm^3
# Si number density = 18.102425 Si / 1000 Ang^3
#
#
#
# Elastic Constant Matrix: (Units=GPa)
#
#
# Indices 1 2 3 4 5 6 
#
# 1 121.4199 13.8903 55.2564 0.0000 0.0000 0.0000
# 2 13.8903 25.5166 8.6132 0.0000 0.0000 0.0000
# 3 55.2564 8.6132 101.1036 0.0000 0.0000 0.0000
# 4 0.0000 0.0000 0.0000 10.1616 0.0000 0.0000
# 5 0.0000 0.0000 0.0000 0.0000 11.9868 0.0000
# 6 0.0000 0.0000 0.0000 0.0000 0.0000 15.6261
#
#
#
# Elastic Compliance Matrix: (Units=1/GPa)
#
#
# Indices 1 2 3 4 5 6 
#
# 1 0.011387 -0.004219 -0.005864 0.000000 0.000000 0.000000
# 2 -0.004219 0.041914 -0.001265 0.000000 0.000000 0.000000
# 3 -0.005864 -0.001265 0.013203 0.000000 0.000000 0.000000
# 4 0.000000 0.000000 0.000000 0.098410 0.000000 0.000000
# 5 0.000000 0.000000 0.000000 0.000000 0.083425 0.000000
# 6 0.000000 0.000000 0.000000 0.000000 0.000000 0.063995
#
#
# Mechanical properties :
#
#
# Convention : Reuss Voigt Hill
#
# Bulk Modulus (GPa) = 22.82666 44.83997 33.83331
# Shear Modulus (GPa) = 14.30068 18.90692 16.60380
#
# Velocity S-wave (km/s) = 2.81372 3.23529 3.03184
# Velocity P-wave (km/s) = 4.81592 6.22736 5.56656
#
# Compressibility (1/GPa) = 0.04380843
#
# Stress axis : x y z
#
# Youngs Moduli (GPa) = 87.81792 23.85843 75.73773
#
# Poissons Ratio (x) = 0.10067 0.44413
# Poissons Ratio (y) = 0.37054 0.09578
# Poissons Ratio (z) = 0.51497 0.03017
#
# Static dielectric constant tensor:
#      x y z
#    x 1.657920 0.000000 0.000000 
#    y 0.000000 1.644100 0.000000 
#    z 0.000000 0.000000 1.620630 
# 
# From -- ./inp_files/34413.got.cif
#   From: 2010.05.17/outbox.cif.g08.bks.cpg/sg67_18_cif.got.tgz:34413.got - 2010.06.03 18:28:57.
