data_PCOD9501829
_publ_section_title
;
Structure prediction by ZEFSAII (Michael W. Deem and Ramdas Pophale) SiO2 
 PCOD9501829
Probable space group: C M M A
;
_chemical_formula_sum "Si O2"
_cell_formula_units_Z 96
_cell_length_a 30.744211
_cell_length_b 14.524981
_cell_length_c 11.455328
_cell_angle_alpha 90.000000
_cell_angle_beta 90.000000
_cell_angle_gamma 90.000000
_cell_volume 5115.480740
_symmetry_space_group_name_H-M "C M M A"
_symmetry_group_IT_number 67
_symmetry_cell_setting 'orthorhombic'
loop_
_space_group_symop_operation_xyz
x,y,z
-x,1/2-y,z
x,-y,-z
-x,1/2+y,-z
-x,-y,-z
x,1/2+y,-z
-x,y,z
x,1/2-y,z
1/2+x,1/2+y,z
1/2-x,-y,z
1/2+x,1/2-y,-z
1/2-x,y,-z
1/2-x,1/2-y,-z
1/2+x,y,-z
1/2-x,1/2+y,z
1/2+x,-y,z
loop_
_atom_site_type_symbol
_atom_site_label
_atom_site_fract_x
_atom_site_fract_y
_atom_site_fract_z
Si Si1 0.334237 0.146353 0.491453
Si Si2 0.547724 0.959085 0.689240
Si Si3 0.142075 0.585522 0.229022
Si Si4 0.279488 0.250000 0.835225
Si Si5 0.065166 0.356409 0.446258
Si Si6 0.206825 0.560349 0.705669
Si Si7 0.820482 0.250000 0.919295
O O1 0.316870 0.250000 0.497138
O O2 0.341493 0.121751 0.356391
O O3 0.382479 0.143358 0.547143
O O4 0.306450 0.080091 0.572397
O O5 0.500000 0.945351 0.743199
O O6 0.590512 0.932418 0.762131
O O7 0.550114 0.895930 0.571971
O O8 0.551554 0.065332 0.645881
O O9 0.168989 0.491290 0.222182
O O10 0.155648 0.660313 0.133300
O O11 0.285979 0.340874 0.761034
O O12 0.229362 0.250000 0.875349
O O13 0.313550 0.250000 0.942242
O O14 0.051516 0.250000 0.427827
O O15 0.250000 0.500000 0.712875
#
# Coordination Sequence:
#
# PCOD9501829 Si02
#       7
#    16  16  16   8  16  16   8
#     4  10  19  34  57  84 128 165 193 240 293 370
#     4  10  20  32  50  83 122 159 207 244 286 364
#     4  11  22  40  60  90 125 163 197 245 309 358
#     4  11  26  45  65  89 110 154 209 255 308 349
#     4   9  17  30  49  76 120 169 200 239 289 347
#     4  12  23  39  62  89 122 159 202 246 302 369
#     4  11  24  47  64  85 118 146 206 263 300 359
#
# _framework density 18.766563999999999
#
# number of rings (size 3 to 8) (size 9 to 14) (size 15 to 20)
#    0.000    1.500    5.000    1.500    1.167    3.333 
#    0.000    1.667    0.000    0.000    0.000    3.500 
#    0.000    0.000    0.000    0.000    0.000    0.000 
#
# Total GULP energy -267980.171745 kJ/mol
# GULP energy per Si atom -5582.920245 kJ/mol
# Density = 1.872385 g / cm^3
# Si number density = 18.766564 Si / 1000 Ang^3
#
#
#
# Elastic Constant Matrix: (Units=GPa)
#
#
# Indices 1 2 3 4 5 6 
#
# 1 122.4066 52.7120 37.3578 0.0000 0.0000 0.0000
# 2 52.7120 155.5800 40.7523 0.0000 0.0000 0.0000
# 3 37.3578 40.7523 50.5235 0.0000 0.0000 0.0000
# 4 0.0000 0.0000 0.0000 -12.3513 0.0000 0.0000
# 5 0.0000 0.0000 0.0000 0.0000 11.9338 0.0000
# 6 0.0000 0.0000 0.0000 0.0000 0.0000 7.2646
#
#
#
# Elastic Compliance Matrix: (Units=1/GPa)
#
#
# Indices 1 2 3 4 5 6 
#
# 1 0.011034 -0.002030 -0.006521 0.000000 0.000000 0.000000
# 2 -0.002030 0.008523 -0.005373 0.000000 0.000000 0.000000
# 3 -0.006521 -0.005373 0.028949 0.000000 0.000000 0.000000
# 4 0.000000 0.000000 0.000000 -0.080963 0.000000 0.000000
# 5 0.000000 0.000000 0.000000 0.000000 0.083795 0.000000
# 6 0.000000 0.000000 0.000000 0.000000 0.000000 0.137653
#
#
# Mechanical properties :
#
#
# Convention : Reuss Voigt Hill
#
# Bulk Modulus (GPa) = 48.41169 65.57270 56.99219
# Shear Modulus (GPa) = 22.34876 14.54863 18.44870
#
# Velocity S-wave (km/s) = 3.45466 2.78734 3.13878
# Velocity P-wave (km/s) = 6.46264 6.73618 6.60082
#
# Compressibility (1/GPa) = 0.02065617
#
# Stress axis : x y z
#
# Youngs Moduli (GPa) = 90.62903 117.33035 34.54391
#
# Poissons Ratio (x) = 0.23822 0.22526
# Poissons Ratio (y) = 0.18401 0.18562
# Poissons Ratio (z) = 0.59099 0.63046
#
# Static dielectric constant tensor:
#      x y z
#    x 1.675950 0.000000 0.000000 
#    y 0.000000 1.664650 0.000000 
#    z 0.000000 0.000000 1.622800 
# 
# From -- ./inp_files/23747.got.cif
#   From: 2010.05.17/outbox.cif.g08.bks.cpg/sg67_12_cif.got.tgz:23747.got - 2010.06.03 18:28:57.
