data_PCOD9501203
_publ_section_title
;
Structure prediction by ZEFSAII (Michael W. Deem and Ramdas Pophale) SiO2 
 PCOD9501203
Probable space group: C M M A
;
_chemical_formula_sum "Si O2"
_cell_formula_units_Z 120
_cell_length_a 27.162905
_cell_length_b 9.113396
_cell_length_c 29.966939
_cell_angle_alpha 90.000000
_cell_angle_beta 90.000000
_cell_angle_gamma 90.000000
_cell_volume 7418.205165
_symmetry_space_group_name_H-M "C M M A"
_symmetry_group_IT_number 67
_symmetry_cell_setting 'orthorhombic'
loop_
_space_group_symop_operation_xyz
x,y,z
-x,1/2-y,z
x,-y,-z
-x,1/2+y,-z
-x,-y,-z
x,1/2+y,-z
-x,y,z
x,1/2-y,z
1/2+x,1/2+y,z
1/2-x,-y,z
1/2+x,1/2-y,-z
1/2-x,y,-z
1/2-x,1/2-y,-z
1/2+x,y,-z
1/2-x,1/2+y,z
1/2+x,-y,z
loop_
_atom_site_type_symbol
_atom_site_label
_atom_site_fract_x
_atom_site_fract_y
_atom_site_fract_z
Si Si1 0.698026 0.425840 0.117482
Si Si2 0.800433 0.925126 0.223200
Si Si3 0.603061 0.424569 0.277694
Si Si4 0.000000 0.927059 0.951812
Si Si5 0.942595 0.583659 0.185155
Si Si6 0.940098 0.919095 0.454975
Si Si7 0.598759 0.075688 0.897060
Si Si8 0.941711 0.424771 0.363101
O O1 0.700287 0.250000 0.112158
O O2 0.750000 0.500000 0.104166
O O3 0.691605 0.459246 0.170679
O O4 0.650007 0.492707 0.093330
O O5 0.795962 0.750000 0.225885
O O6 0.845501 0.969047 0.254745
O O7 0.750000 0.000000 0.237197
O O8 0.604290 0.250000 0.287393
O O9 0.564703 0.447399 0.237232
O O10 0.587901 0.510989 0.321466
O O11 0.050691 0.968071 0.926159
O O12 0.000000 0.750000 0.954981
O O13 0.000000 0.000000 0.000000
O O14 0.922466 0.750000 0.177320
O O15 0.916081 0.470115 0.153138
O O16 0.000000 0.583896 0.174392
O O17 0.924391 0.750000 0.454344
O O18 0.000000 0.920608 0.455883
O O19 0.923416 0.000000 0.500000
O O20 0.925823 0.001868 0.409701
O O21 0.605712 0.250000 0.900898
O O22 0.936656 0.250000 0.365953
O O23 0.000000 0.458431 0.356686
#
# Coordination Sequence:
#
# PCOD9501203 Si02
#       8
#    16  16  16   8  16  16  16  16
#     4  10  19  34  54  80 108 139 176 215 259 307
#     4   9  18  31  47  67  94 125 164 205 243 289
#     4  10  19  32  46  64  93 130 168 203 241 292
#     4  10  24  42  60  84 112 142 178 218 265 312
#     4  10  19  31  48  70  98 136 175 208 246 297
#     4   9  16  27  44  63  84 115 155 200 247 293
#     4  11  21  35  54  80 110 138 171 215 258 306
#     4  10  20  31  42  62  92 126 164 203 245 293
#
# _framework density 16.176418999999999
#
# number of rings (size 3 to 8) (size 9 to 14) (size 15 to 20)
#    0.000    2.133    2.000    2.000    0.000    5.600 
#    0.000    0.000    0.000    0.400    0.000    2.800 
#    0.000    0.533    0.000    5.600    0.000    3.333 
#
# Total GULP energy -334556.667347 kJ/mol
# GULP energy per Si atom -5575.944456 kJ/mol
# Density = 1.613960 g / cm^3
# Si number density = 16.176419 Si / 1000 Ang^3
#
#
#
# Elastic Constant Matrix: (Units=GPa)
#
#
# Indices 1 2 3 4 5 6 
#
# 1 108.3442 48.5570 37.2747 0.0000 0.0000 0.0000
# 2 48.5570 57.8300 37.5324 0.0000 0.0000 0.0000
# 3 37.2747 37.5324 72.2058 0.0000 0.0000 0.0000
# 4 0.0000 0.0000 0.0000 26.2010 0.0000 0.0000
# 5 0.0000 0.0000 0.0000 0.0000 10.4134 0.0000
# 6 0.0000 0.0000 0.0000 0.0000 0.0000 26.5701
#
#
#
# Elastic Compliance Matrix: (Units=1/GPa)
#
#
# Indices 1 2 3 4 5 6 
#
# 1 0.014952 -0.011386 -0.001800 0.000000 0.000000 0.000000
# 2 -0.011386 0.034766 -0.012193 0.000000 0.000000 0.000000
# 3 -0.001800 -0.012193 0.021117 0.000000 0.000000 0.000000
# 4 0.000000 0.000000 0.000000 0.038166 0.000000 0.000000
# 5 0.000000 0.000000 0.000000 0.000000 0.096030 0.000000
# 6 0.000000 0.000000 0.000000 0.000000 0.000000 0.037636
#
#
# Mechanical properties :
#
#
# Convention : Reuss Voigt Hill
#
# Bulk Modulus (GPa) = 49.81245 53.90092 51.85669
# Shear Modulus (GPa) = 16.66002 20.30464 18.48233
#
# Velocity S-wave (km/s) = 3.21268 3.54672 3.38383
# Velocity P-wave (km/s) = 6.67996 7.08275 6.88430
#
# Compressibility (1/GPa) = 0.02007530
#
# Stress axis : x y z
#
# Youngs Moduli (GPa) = 66.87970 28.76350 47.35578
#
# Poissons Ratio (x) = 0.32751 0.08525
# Poissons Ratio (y) = 0.76151 0.57743
# Poissons Ratio (z) = 0.12040 0.35073
#
# Static dielectric constant tensor:
#      x y z
#    x 1.557550 0.000000 0.000000 
#    y 0.000000 1.547990 0.000000 
#    z 0.000000 0.000000 1.519500 
# 
# From -- ./inp_files/44998.got.cif
#   From: 2010.05.17/outbox.cif.g08.bks.cpg/sg67_23_cif.got.tgz:44998.got - 2010.06.03 18:28:57.
