data_PCOD9501212
_publ_section_title
;
Structure prediction by ZEFSAII (Michael W. Deem and Ramdas Pophale) SiO2 
 PCOD9501212
Probable space group: C M M A
;
_chemical_formula_sum "Si O2"
_cell_formula_units_Z 104
_cell_length_a 8.758466
_cell_length_b 27.269645
_cell_length_c 24.810084
_cell_angle_alpha 90.000000
_cell_angle_beta 90.000000
_cell_angle_gamma 90.000000
_cell_volume 5925.646878
_symmetry_space_group_name_H-M "C M M A"
_symmetry_group_IT_number 67
_symmetry_cell_setting 'orthorhombic'
loop_
_space_group_symop_operation_xyz
x,y,z
-x,1/2-y,z
x,-y,-z
-x,1/2+y,-z
-x,-y,-z
x,1/2+y,-z
-x,y,z
x,1/2-y,z
1/2+x,1/2+y,z
1/2-x,-y,z
1/2+x,1/2-y,-z
1/2-x,y,-z
1/2-x,1/2-y,-z
1/2+x,y,-z
1/2-x,1/2+y,z
1/2+x,-y,z
loop_
_atom_site_type_symbol
_atom_site_label
_atom_site_fract_x
_atom_site_fract_y
_atom_site_fract_z
Si Si1 0.182088 0.550795 0.233031
Si Si2 0.816490 0.192899 0.942769
Si Si3 0.314969 0.250000 0.440153
Si Si4 0.181764 0.552155 0.646711
Si Si5 0.819748 0.651970 0.376172
Si Si6 0.682810 0.350107 0.170174
Si Si7 0.173384 0.692598 0.727436
O O1 0.250000 0.500000 0.211685
O O2 0.258440 0.558441 0.291629
O O3 0.212430 0.595433 0.192589
O O4 0.000000 0.546936 0.241077
O O5 0.771006 0.250000 0.934306
O O6 0.770026 0.161334 0.890843
O O7 0.000000 0.191607 0.946124
O O8 0.750000 0.176579 0.000000
O O9 0.500000 0.250000 0.440311
O O10 0.250000 0.250000 0.500000
O O11 0.266917 0.199586 0.410159
O O12 0.250000 0.500000 0.627737
O O13 0.237640 0.600084 0.614349
O O14 0.000000 0.549523 0.646894
O O15 0.784439 0.666152 0.314314
O O16 0.000000 0.645766 0.384009
O O17 0.500000 0.341258 0.174060
O O18 0.769568 0.315586 0.212202
O O19 0.174601 0.750000 0.714989
O O20 0.000000 0.673894 0.720630
#
# Coordination Sequence:
#
# PCOD9501212 Si02
#       7
#    16  16   8  16  16  16  16
#     4  10  19  31  48  72 103 139 175 216 264 323
#     4   9  18  33  51  71  95 128 170 215 265 319
#     4  10  24  42  64  88 116 156 197 234 277 328
#     4  11  21  34  54  82 114 151 188 231 280 332
#     4  11  21  37  57  82 114 152 189 227 275 329
#     4  10  20  33  51  72 100 138 176 214 266 332
#     4  11  22  32  47  77 111 142 176 220 271 323
#
# _framework density 17.550827000000002
#
# number of rings (size 3 to 8) (size 9 to 14) (size 15 to 20)
#    0.000    1.692    2.308    4.154    0.000    4.000 
#    0.000    1.538    0.000    0.923    0.000    6.462 
#    0.000    0.000    0.000    0.000    0.000    0.000 
#
# Total GULP energy -290201.614760 kJ/mol
# GULP energy per Si atom -5580.800284 kJ/mol
# Density = 1.751088 g / cm^3
# Si number density = 17.550827 Si / 1000 Ang^3
#
#
#
# Elastic Constant Matrix: (Units=GPa)
#
#
# Indices 1 2 3 4 5 6 
#
# 1 59.7043 50.6485 17.5376 0.0000 0.0000 0.0000
# 2 50.6485 127.5398 40.7847 0.0000 0.0000 0.0000
# 3 17.5376 40.7847 69.2225 0.0000 0.0000 0.0000
# 4 0.0000 0.0000 0.0000 12.4939 0.0000 0.0000
# 5 0.0000 0.0000 0.0000 0.0000 24.6598 0.0000
# 6 0.0000 0.0000 0.0000 0.0000 0.0000 27.0325
#
#
#
# Elastic Compliance Matrix: (Units=1/GPa)
#
#
# Indices 1 2 3 4 5 6 
#
# 1 0.025279 -0.009846 -0.000604 0.000000 0.000000 0.000000
# 2 -0.009846 0.013496 -0.005457 0.000000 0.000000 0.000000
# 3 -0.000604 -0.005457 0.017814 0.000000 0.000000 0.000000
# 4 0.000000 0.000000 0.000000 0.080039 0.000000 0.000000
# 5 0.000000 0.000000 0.000000 0.000000 0.040552 0.000000
# 6 0.000000 0.000000 0.000000 0.000000 0.000000 0.036992
#
#
# Mechanical properties :
#
#
# Convention : Reuss Voigt Hill
#
# Bulk Modulus (GPa) = 40.36114 52.71201 46.53657
# Shear Modulus (GPa) = 19.66623 22.67031 21.16827
#
# Velocity S-wave (km/s) = 3.35106 3.59791 3.47668
# Velocity P-wave (km/s) = 6.16599 6.88179 6.53370
#
# Compressibility (1/GPa) = 0.02477631
#
# Stress axis : x y z
#
# Youngs Moduli (GPa) = 39.55878 74.09797 56.13489
#
# Poissons Ratio (x) = 0.72955 0.03388
# Poissons Ratio (y) = 0.38948 0.30633
# Poissons Ratio (z) = 0.02387 0.40435
#
# Static dielectric constant tensor:
#      x y z
#    x 1.599450 0.000000 0.000000 
#    y 0.000000 1.635760 0.000000 
#    z 0.000000 0.000000 1.567530 
# 
# From -- ./inp_files/40996.got.cif
#   From: 2010.05.17/outbox.cif.g08.bks.cpg/sg67_21_cif.got.tgz:40996.got - 2010.06.03 18:28:57.
