data_PCOD9501061
_publ_section_title
;
Structure prediction by ZEFSAII (Michael W. Deem and Ramdas Pophale) SiO2 
 PCOD9501061
Probable space group: C M M A
;
_chemical_formula_sum "Si O2"
_cell_formula_units_Z 104
_cell_length_a 8.457168
_cell_length_b 27.368858
_cell_length_c 22.633592
_cell_angle_alpha 90.000000
_cell_angle_beta 90.000000
_cell_angle_gamma 90.000000
_cell_volume 5238.839786
_symmetry_space_group_name_H-M "C M M A"
_symmetry_group_IT_number 67
_symmetry_cell_setting 'orthorhombic'
loop_
_space_group_symop_operation_xyz
x,y,z
-x,1/2-y,z
x,-y,-z
-x,1/2+y,-z
-x,-y,-z
x,1/2+y,-z
-x,y,z
x,1/2-y,z
1/2+x,1/2+y,z
1/2-x,-y,z
1/2+x,1/2-y,-z
1/2-x,y,-z
1/2-x,1/2-y,-z
1/2+x,y,-z
1/2-x,1/2+y,z
1/2+x,-y,z
loop_
_atom_site_type_symbol
_atom_site_label
_atom_site_fract_x
_atom_site_fract_y
_atom_site_fract_z
Si Si1 0.690369 0.944213 0.813004
Si Si2 0.307249 0.750000 0.933002
Si Si3 0.309749 0.694820 0.615676
Si Si4 0.188057 0.554971 0.684471
Si Si5 0.687922 0.402179 0.438295
Si Si6 0.184572 0.845448 0.137899
Si Si7 0.179717 0.691181 0.743864
O O1 0.500000 0.945604 0.813579
O O2 0.744533 0.926958 0.747400
O O3 0.745972 0.901641 0.858703
O O4 0.750000 0.000000 0.823006
O O5 0.500000 0.750000 0.929649
O O6 0.249834 0.800488 0.901492
O O7 0.250000 0.750000 0.000000
O O8 0.500000 0.694891 0.622862
O O9 0.257963 0.750000 0.602420
O O10 0.268717 0.655136 0.566894
O O11 0.235412 0.678779 0.678059
O O12 0.250000 0.500000 0.683108
O O13 0.244917 0.576609 0.622464
O O14 0.000000 0.557380 0.687446
O O15 0.500000 0.407555 0.437148
O O16 0.750000 0.422990 0.500000
O O17 0.206680 0.826741 0.204759
O O18 0.000000 0.849233 0.122607
O O19 0.179314 0.750000 0.746187
O O20 0.000000 0.673856 0.754108
#
# Coordination Sequence:
#
# PCOD9501061 Si02
#       7
#    16   8  16  16  16  16  16
#     4  10  20  35  57  87 117 149 186 230 283 341
#     4  10  22  40  60  86 120 160 201 240 277 322
#     4   9  19  35  53  72 100 139 177 217 271 334
#     4  11  22  38  59  82 109 140 175 221 278 335
#     4  11  23  38  54  74 100 134 180 228 276 334
#     4  10  20  35  57  81 114 156 194 229 277 336
#     4  10  19  29  47  79 111 137 175 226 279 331
#
# _framework density 19.851723
#
# number of rings (size 3 to 8) (size 9 to 14) (size 15 to 20)
#    0.000    1.846    0.769    4.615    0.000    8.000 
#    0.000    1.538    0.000    0.462    0.000    3.231 
#    0.000    0.000    0.000    0.000    0.000    0.000 
#
# Total GULP energy -290001.787818 kJ/mol
# GULP energy per Si atom -5576.957458 kJ/mol
# Density = 1.980654 g / cm^3
# Si number density = 19.851723 Si / 1000 Ang^3
#
#
#
# Elastic Constant Matrix: (Units=GPa)
#
#
# Indices 1 2 3 4 5 6 
#
# 1 25.5099 26.2693 15.7617 0.0000 0.0000 0.0000
# 2 26.2693 112.0174 71.8469 0.0000 0.0000 0.0000
# 3 15.7617 71.8469 88.2420 0.0000 0.0000 0.0000
# 4 0.0000 0.0000 0.0000 20.7277 0.0000 0.0000
# 5 0.0000 0.0000 0.0000 0.0000 20.8488 0.0000
# 6 0.0000 0.0000 0.0000 0.0000 0.0000 17.9373
#
#
#
# Elastic Compliance Matrix: (Units=1/GPa)
#
#
# Indices 1 2 3 4 5 6 
#
# 1 0.051756 -0.012993 0.001335 0.000000 0.000000 0.000000
# 2 -0.012993 0.021947 -0.015548 0.000000 0.000000 0.000000
# 3 0.001335 -0.015548 0.023754 0.000000 0.000000 0.000000
# 4 0.000000 0.000000 0.000000 0.048245 0.000000 0.000000
# 5 0.000000 0.000000 0.000000 0.000000 0.047964 0.000000
# 6 0.000000 0.000000 0.000000 0.000000 0.000000 0.055750
#
#
# Mechanical properties :
#
#
# Convention : Reuss Voigt Hill
#
# Bulk Modulus (GPa) = 23.23292 50.39166 36.81229
# Shear Modulus (GPa) = 15.71454 19.36219 17.53836
#
# Velocity S-wave (km/s) = 2.81658 3.12643 2.97554
# Velocity P-wave (km/s) = 4.72294 6.20257 5.51262
#
# Compressibility (1/GPa) = 0.04304238
#
# Stress axis : x y z
#
# Youngs Moduli (GPa) = 19.32139 45.56464 42.09894
#
# Poissons Ratio (x) = 0.59204 -0.05619
# Poissons Ratio (y) = 0.25105 0.65457
# Poissons Ratio (z) = -0.02579 0.70845
#
# Static dielectric constant tensor:
#      x y z
#    x 1.688400 0.000000 0.000000 
#    y 0.000000 1.785560 0.000000 
#    z 0.000000 0.000000 1.658590 
# 
# From -- ./inp_files/37315.got.cif
#   From: 2010.05.17/outbox.cif.g08.bks.cpg/sg67_19_cif.got.tgz:37315.got - 2010.06.03 18:28:57.
