data_PCOD9501951
_publ_section_title
;
Structure prediction by ZEFSAII (Michael W. Deem and Ramdas Pophale) SiO2 
 PCOD9501951
Probable space group: C M M A
;
_chemical_formula_sum "Si O2"
_cell_formula_units_Z 88
_cell_length_a 21.048203
_cell_length_b 10.532102
_cell_length_c 20.854636
_cell_angle_alpha 90.000000
_cell_angle_beta 90.000000
_cell_angle_gamma 90.000000
_cell_volume 4623.093683
_symmetry_space_group_name_H-M "C M M A"
_symmetry_group_IT_number 67
_symmetry_cell_setting 'orthorhombic'
loop_
_space_group_symop_operation_xyz
x,y,z
-x,1/2-y,z
x,-y,-z
-x,1/2+y,-z
-x,-y,-z
x,1/2+y,-z
-x,y,z
x,1/2-y,z
1/2+x,1/2+y,z
1/2-x,-y,z
1/2+x,1/2-y,-z
1/2-x,y,-z
1/2-x,1/2-y,-z
1/2+x,y,-z
1/2-x,1/2+y,z
1/2+x,-y,z
loop_
_atom_site_type_symbol
_atom_site_label
_atom_site_fract_x
_atom_site_fract_y
_atom_site_fract_z
Si Si1 0.803081 0.607540 0.758391
Si Si2 0.071696 0.250000 0.576928
Si Si3 0.576042 0.391747 0.047128
Si Si4 0.801239 0.392888 0.392832
Si Si5 0.076940 0.250000 0.717735
Si Si6 0.891451 0.000000 0.500000
Si Si7 0.575440 0.513391 0.807335
O O1 0.777572 0.750000 0.769944
O O2 0.750000 0.500000 0.773027
O O3 0.818455 0.598948 0.682111
O O4 0.869732 0.589321 0.795235
O O5 0.106738 0.250000 0.646196
O O6 0.079056 0.379119 0.536890
O O7 0.000000 0.250000 0.598462
O O8 0.500000 0.384533 0.035071
O O9 0.602049 0.250000 0.036651
O O10 0.582207 0.432125 0.121046
O O11 0.602063 0.500000 0.000000
O O12 0.777605 0.250000 0.405362
O O13 0.750000 0.500000 0.405453
O O14 0.855430 0.427473 0.442720
O O15 0.093576 0.376117 0.756849
O O16 0.000000 0.250000 0.721022
O O17 0.500000 0.478200 0.798700
#
# Coordination Sequence:
#
# PCOD9501951 Si02
#       7
#    16   8  16  16   8   8  16
#     4  10  23  40  59  85 118 156 197 244 301 357
#     4  11  24  38  55  79 111 152 194 239 295 355
#     4   9  17  30  51  83 122 160 196 238 290 347
#     4  10  22  39  58  83 110 141 186 239 296 354
#     4   9  18  34  58  85 111 151 202 245 293 353
#     4  12  22  38  58  78 108 144 188 240 292 352
#     4  10  19  35  61  90 120 154 200 248 291 348
#
# _framework density 19.034872
#
# number of rings (size 3 to 8) (size 9 to 14) (size 15 to 20)
#    0.000    2.000    1.818    1.636    2.545    1.818 
#    0.000    2.727    0.000    0.545    0.000    2.545 
#    0.000    0.000    0.000    0.000    0.000    0.000 
#
# Total GULP energy -244999.146010 kJ/mol
# GULP energy per Si atom -5568.162409 kJ/mol
# Density = 1.899155 g / cm^3
# Si number density = 19.034872 Si / 1000 Ang^3
#
#
#
# Elastic Constant Matrix: (Units=GPa)
#
#
# Indices 1 2 3 4 5 6 
#
# 1 44.7759 36.7471 15.6726 0.0000 0.0000 0.0000
# 2 36.7471 149.6607 45.7555 0.0000 0.0000 0.0000
# 3 15.6726 45.7555 61.9037 0.0000 0.0000 0.0000
# 4 0.0000 0.0000 0.0000 19.5767 0.0000 0.0000
# 5 0.0000 0.0000 0.0000 0.0000 24.2399 0.0000
# 6 0.0000 0.0000 0.0000 0.0000 0.0000 45.8277
#
#
#
# Elastic Compliance Matrix: (Units=1/GPa)
#
#
# Indices 1 2 3 4 5 6 
#
# 1 0.028295 -0.006146 -0.002621 0.000000 0.000000 0.000000
# 2 -0.006146 0.009968 -0.005811 0.000000 0.000000 0.000000
# 3 -0.002621 -0.005811 0.021113 0.000000 0.000000 0.000000
# 4 0.000000 0.000000 0.000000 0.051081 0.000000 0.000000
# 5 0.000000 0.000000 0.000000 0.000000 0.041254 0.000000
# 6 0.000000 0.000000 0.000000 0.000000 0.000000 0.021821
#
#
# Mechanical properties :
#
#
# Convention : Reuss Voigt Hill
#
# Bulk Modulus (GPa) = 33.09180 50.29896 41.69538
# Shear Modulus (GPa) = 23.50048 28.47317 25.98683
#
# Velocity S-wave (km/s) = 3.51750 3.87181 3.69890
# Velocity P-wave (km/s) = 5.82406 6.81688 6.33993
#
# Compressibility (1/GPa) = 0.03021896
#
# Stress axis : x y z
#
# Youngs Moduli (GPa) = 35.34205 100.32506 47.36401
#
# Poissons Ratio (x) = 0.61662 0.12413
# Poissons Ratio (y) = 0.21722 0.27525
# Poissons Ratio (z) = 0.09262 0.58303
#
# Static dielectric constant tensor:
#      x y z
#    x 1.663370 0.000000 0.000000 
#    y 0.000000 1.821750 0.000000 
#    z 0.000000 0.000000 1.724000 
# 
# From -- ./inp_files/39625.got.cif
#   From: 2010.05.17/outbox.cif.g08.bks.cpg/sg67_20_cif.got.tgz:39625.got - 2010.06.03 18:28:57.
