data_PCOD9501052
_publ_section_title
;
Structure prediction by ZEFSAII (Michael W. Deem and Ramdas Pophale) SiO2 
 PCOD9501052
Probable space group: C M M A
;
_chemical_formula_sum "Si O2"
_cell_formula_units_Z 104
_cell_length_a 27.887875
_cell_length_b 7.647867
_cell_length_c 25.013082
_cell_angle_alpha 90.000000
_cell_angle_beta 90.000000
_cell_angle_gamma 90.000000
_cell_volume 5334.859138
_symmetry_space_group_name_H-M "C M M A"
_symmetry_group_IT_number 67
_symmetry_cell_setting 'orthorhombic'
loop_
_space_group_symop_operation_xyz
x,y,z
-x,1/2-y,z
x,-y,-z
-x,1/2+y,-z
-x,-y,-z
x,1/2+y,-z
-x,y,z
x,1/2-y,z
1/2+x,1/2+y,z
1/2-x,-y,z
1/2+x,1/2-y,-z
1/2-x,y,-z
1/2-x,1/2-y,-z
1/2+x,y,-z
1/2-x,1/2+y,z
1/2+x,-y,z
loop_
_atom_site_type_symbol
_atom_site_label
_atom_site_fract_x
_atom_site_fract_y
_atom_site_fract_z
Si Si1 0.803990 0.542576 0.726661
Si Si2 0.944355 0.538602 0.224777
Si Si3 0.304466 0.460745 0.849157
Si Si4 0.444963 0.960043 0.559498
Si Si5 0.602089 0.044032 0.333155
Si Si6 0.500000 0.539503 0.062435
Si Si7 0.097780 0.449733 0.114604
O O1 0.809754 0.750000 0.729489
O O2 0.750000 0.500000 0.710107
O O3 0.809895 0.472688 0.787650
O O4 0.843257 0.475435 0.685318
O O5 0.937584 0.750000 0.221839
O O6 0.928176 0.474342 0.282888
O O7 0.914636 0.452645 0.177508
O O8 0.000000 0.501532 0.216059
O O9 0.308993 0.250000 0.847541
O O10 0.250000 0.500000 0.866213
O O11 0.348413 0.526959 0.885911
O O12 0.500000 0.025327 0.563846
O O13 0.446916 0.750000 0.562680
O O14 0.413624 0.026883 0.609288
O O15 0.426791 0.000000 0.500000
O O16 0.591142 0.250000 0.334921
O O17 0.500000 0.750000 0.072126
O O18 0.449825 0.470372 0.087324
O O19 0.500000 0.500000 0.000000
O O20 0.100898 0.250000 0.094549
#
# Coordination Sequence:
#
# PCOD9501052 Si02
#       7
#    16  16  16  16  16   8  16
#     4  10  19  31  48  71 101 134 167 205 249 306
#     4  10  19  29  45  73 105 135 165 202 249 305
#     4   9  18  31  49  74 104 136 172 208 253 307
#     4   9  18  33  51  70  96 131 170 211 252 299
#     4  10  19  31  48  71 101 134 167 205 254 305
#     4  10  22  38  58  78 106 142 179 218 257 302
#     4  10  19  34  53  75 104 139 171 210 258 303
#
# _framework density 19.494423000000001
#
# number of rings (size 3 to 8) (size 9 to 14) (size 15 to 20)
#    0.000    2.308    2.308    0.923    0.000    4.308 
#    0.000    0.000    0.000    3.692    0.000    6.462 
#    0.000    0.000    0.000    0.000    0.000    0.000 
#
# Total GULP energy -289921.387243 kJ/mol
# GULP energy per Si atom -5575.411293 kJ/mol
# Density = 1.945005 g / cm^3
# Si number density = 19.494423 Si / 1000 Ang^3
#
#
#
# Elastic Constant Matrix: (Units=GPa)
#
#
# Indices 1 2 3 4 5 6 
#
# 1 145.9471 -5.4629 59.4371 0.0000 0.0000 0.0000
# 2 -5.4629 37.2419 -1.3419 0.0000 0.0000 0.0000
# 3 59.4371 -1.3419 69.5834 0.0000 0.0000 0.0000
# 4 0.0000 0.0000 0.0000 16.3324 0.0000 0.0000
# 5 0.0000 0.0000 0.0000 0.0000 15.2866 0.0000
# 6 0.0000 0.0000 0.0000 0.0000 0.0000 13.3909
#
#
#
# Elastic Compliance Matrix: (Units=1/GPa)
#
#
# Indices 1 2 3 4 5 6 
#
# 1 0.010562 0.001225 -0.008999 0.000000 0.000000 0.000000
# 2 0.001225 0.027012 -0.000526 0.000000 0.000000 0.000000
# 3 -0.008999 -0.000526 0.022048 0.000000 0.000000 0.000000
# 4 0.000000 0.000000 0.000000 0.061228 0.000000 0.000000
# 5 0.000000 0.000000 0.000000 0.000000 0.065417 0.000000
# 6 0.000000 0.000000 0.000000 0.000000 0.000000 0.074677
#
#
# Mechanical properties :
#
#
# Convention : Reuss Voigt Hill
#
# Bulk Modulus (GPa) = 23.24275 39.78188 31.51232
# Shear Modulus (GPa) = 17.13013 22.34468 19.73740
#
# Velocity S-wave (km/s) = 2.96754 3.38924 3.18538
# Velocity P-wave (km/s) = 4.86727 5.98056 5.45240
#
# Compressibility (1/GPa) = 0.04302416
#
# Stress axis : x y z
#
# Youngs Moduli (GPa) = 94.67621 37.02023 45.35658
#
# Poissons Ratio (x) = -0.04535 0.40814
# Poissons Ratio (y) = -0.11599 0.02384
# Poissons Ratio (z) = 0.85195 0.01946
#
# Static dielectric constant tensor:
#      x y z
#    x 1.715070 0.000000 0.000000 
#    y 0.000000 1.717160 0.000000 
#    z 0.000000 0.000000 1.671400 
# 
# From -- ./inp_files/37519.got.cif
#   From: 2010.05.17/outbox.cif.g08.bks.cpg/sg67_19_cif.got.tgz:37519.got - 2010.06.03 18:28:57.
