data_PCOD9501810
_publ_section_title
;
Structure prediction by ZEFSAII (Michael W. Deem and Ramdas Pophale) SiO2 
 PCOD9501810
Probable space group: C M M A
;
_chemical_formula_sum "Si O2"
_cell_formula_units_Z 84
_cell_length_a 14.570596
_cell_length_b 16.365044
_cell_length_c 19.608158
_cell_angle_alpha 90.000000
_cell_angle_beta 90.000000
_cell_angle_gamma 90.000000
_cell_volume 4675.534777
_symmetry_space_group_name_H-M "C M M A"
_symmetry_group_IT_number 67
_symmetry_cell_setting 'orthorhombic'
loop_
_space_group_symop_operation_xyz
x,y,z
-x,1/2-y,z
x,-y,-z
-x,1/2+y,-z
-x,-y,-z
x,1/2+y,-z
-x,y,z
x,1/2-y,z
1/2+x,1/2+y,z
1/2-x,-y,z
1/2+x,1/2-y,-z
1/2-x,y,-z
1/2-x,1/2-y,-z
1/2+x,y,-z
1/2-x,1/2+y,z
1/2+x,-y,z
loop_
_atom_site_type_symbol
_atom_site_label
_atom_site_fract_x
_atom_site_fract_y
_atom_site_fract_z
Si Si1 0.500000 0.250000 0.864428
Si Si2 0.000000 0.931868 0.442018
Si Si3 0.704893 0.415860 0.850728
Si Si4 0.693204 0.348026 0.435986
Si Si5 0.500000 0.423575 0.822160
Si Si6 0.698256 0.849235 0.718565
Si Si7 0.000000 0.566344 0.285965
Si Si8 0.202539 0.250000 0.073468
O O1 0.500000 0.326241 0.813023
O O2 0.591269 0.250000 0.912113
O O3 0.909993 0.876940 0.446698
O O4 0.000000 0.963199 0.364207
O O5 0.000000 0.000000 0.500000
O O6 0.750000 0.500000 0.872560
O O7 0.596955 0.433473 0.859053
O O8 0.736328 0.393974 0.773177
O O9 0.732601 0.334408 0.890966
O O10 0.696675 0.250000 0.437211
O O11 0.750000 0.380873 0.500000
O O12 0.724517 0.371396 0.359572
O O13 0.500000 0.486818 0.760929
O O14 0.702307 0.750000 0.726529
O O15 0.592791 0.880820 0.727040
O O16 0.250000 0.250000 0.000000
#
# Coordination Sequence:
#
# PCOD9501810 Si02
#       8
#     4   8  16  16   8  16   8   8
#     4   8  20  40  62  84 120 158 176 228 282 330
#     4  10  21  33  50  75 108 144 185 234 296 343
#     4  11  21  37  62  87 118 155 190 239 280 339
#     4   9  19  36  55  74 104 147 190 239 289 341
#     4  10  20  35  55  84 118 148 187 223 285 328
#     4  10  19  35  57  84 110 145 196 243 295 338
#     4  10  19  34  56  82 111 144 188 249 291 343
#     4  10  22  42  64  90 121 155 193 228 284 344
#
# _framework density 17.965858999999998
#
# number of rings (size 3 to 8) (size 9 to 14) (size 15 to 20)
#    0.000    2.095    2.857    0.571    0.000    4.571 
#    0.000    1.905    2.095    3.429    0.000    0.000 
#    0.000    0.000    0.000    0.000    0.000    0.000 
#
# Total GULP energy -233816.511774 kJ/mol
# GULP energy per Si atom -5567.059804 kJ/mol
# Density = 1.792497 g / cm^3
# Si number density = 17.965859 Si / 1000 Ang^3
#
#
#
# Elastic Constant Matrix: (Units=GPa)
#
#
# Indices 1 2 3 4 5 6 
#
# 1 55.4735 37.1383 32.5156 0.0000 0.0000 0.0000
# 2 37.1383 97.8063 40.9722 0.0000 0.0000 0.0000
# 3 32.5156 40.9722 96.6890 0.0000 0.0000 0.0000
# 4 0.0000 0.0000 0.0000 15.3944 0.0000 0.0000
# 5 0.0000 0.0000 0.0000 0.0000 14.9245 0.0000
# 6 0.0000 0.0000 0.0000 0.0000 0.0000 62.6059
#
#
#
# Elastic Compliance Matrix: (Units=1/GPa)
#
#
# Indices 1 2 3 4 5 6 
#
# 1 0.026486 -0.007691 -0.005648 0.000000 0.000000 0.000000
# 2 -0.007691 0.014664 -0.003628 0.000000 0.000000 0.000000
# 3 -0.005648 -0.003628 0.013779 0.000000 0.000000 0.000000
# 4 0.000000 0.000000 0.000000 0.064959 0.000000 0.000000
# 5 0.000000 0.000000 0.000000 0.000000 0.067004 0.000000
# 6 0.000000 0.000000 0.000000 0.000000 0.000000 0.015973
#
#
# Mechanical properties :
#
#
# Convention : Reuss Voigt Hill
#
# Bulk Modulus (GPa) = 47.62767 52.35788 49.99278
# Shear Modulus (GPa) = 20.50882 27.87446 24.19164
#
# Velocity S-wave (km/s) = 3.38234 3.94321 3.67350
# Velocity P-wave (km/s) = 6.46694 7.06669 6.77346
#
# Compressibility (1/GPa) = 0.02099620
#
# Stress axis : x y z
#
# Youngs Moduli (GPa) = 37.75553 68.19248 72.57434
#
# Poissons Ratio (x) = 0.52448 0.40989
# Poissons Ratio (y) = 0.29038 0.26327
# Poissons Ratio (z) = 0.21324 0.24737
#
# Static dielectric constant tensor:
#      x y z
#    x 1.639250 0.000000 0.000000 
#    y 0.000000 1.618300 0.000000 
#    z 0.000000 0.000000 1.617140 
# 
# From -- ./inp_files/38353.got.cif
#   From: 2010.05.17/outbox.cif.g08.bks.cpg/sg67_20_cif.got.tgz:38353.got - 2010.06.03 18:28:57.
