data_PCOD9501445
_publ_section_title
;
Structure prediction by ZEFSAII (Michael W. Deem and Ramdas Pophale) SiO2 
 PCOD9501445
Probable space group: C M M A
;
_chemical_formula_sum "Si O2"
_cell_formula_units_Z 88
_cell_length_a 28.597949
_cell_length_b 25.169393
_cell_length_c 6.557955
_cell_angle_alpha 90.000000
_cell_angle_beta 90.000000
_cell_angle_gamma 90.000000
_cell_volume 4720.370217
_symmetry_space_group_name_H-M "C M M A"
_symmetry_group_IT_number 67
_symmetry_cell_setting 'orthorhombic'
loop_
_space_group_symop_operation_xyz
x,y,z
-x,1/2-y,z
x,-y,-z
-x,1/2+y,-z
-x,-y,-z
x,1/2+y,-z
-x,y,z
x,1/2-y,z
1/2+x,1/2+y,z
1/2-x,-y,z
1/2+x,1/2-y,-z
1/2-x,y,-z
1/2-x,1/2-y,-z
1/2+x,y,-z
1/2-x,1/2+y,z
1/2+x,-y,z
loop_
_atom_site_type_symbol
_atom_site_label
_atom_site_fract_x
_atom_site_fract_y
_atom_site_fract_z
Si Si1 0.136637 0.382634 0.620940
Si Si2 0.880497 0.692114 0.760194
Si Si3 0.127521 0.000000 0.500000
Si Si4 0.049853 0.037846 0.193947
Si Si5 0.200240 0.311528 0.905584
Si Si6 0.446563 0.356799 0.063604
O O1 0.124146 0.353256 0.409455
O O2 0.149896 0.445000 0.586684
O O3 0.089698 0.375035 0.760160
O O4 0.177881 0.350248 0.736131
O O5 0.882221 0.750000 0.657615
O O6 0.835494 0.688438 0.905384
O O7 0.922867 0.687855 0.922819
O O8 0.093530 0.977238 0.672814
O O9 0.000000 0.032502 0.304677
O O10 0.052029 0.095465 0.097746
O O11 0.049316 0.000000 0.000000
O O12 0.203861 0.250000 0.830838
O O13 0.250000 0.327712 0.000000
O O14 0.500000 0.346340 0.133448
#
# Coordination Sequence:
#
# PCOD9501445 Si02
#       6
#    16  16   8  16  16  16
#     4  11  22  35  57  89 117 152 192 237 292 351
#     4  10  21  38  59  84 114 147 188 240 295 350
#     4  12  21  32  54  85 114 152 188 234 286 342
#     4  10  19  32  51  77 107 147 201 243 271 310
#     4   9  20  41  67  90 109 139 189 248 299 346
#     4  10  21  36  53  79 117 157 197 239 279 330
#
# _framework density 18.642607000000002
#
# number of rings (size 3 to 8) (size 9 to 14) (size 15 to 20)
#    0.000    1.818    3.636    0.818    0.000    3.273 
#    0.000    2.727    0.000    3.273    0.000    0.000 
#    0.000    0.000    0.000    0.000    0.000    0.000 
#
# Total GULP energy -245000.727383 kJ/mol
# GULP energy per Si atom -5568.198350 kJ/mol
# Density = 1.860018 g / cm^3
# Si number density = 18.642607 Si / 1000 Ang^3
#
#
#
# Elastic Constant Matrix: (Units=GPa)
#
#
# Indices 1 2 3 4 5 6 
#
# 1 93.4116 36.2755 17.8201 0.0000 0.0000 0.0000
# 2 36.2755 125.9595 35.1401 0.0000 0.0000 0.0000
# 3 17.8201 35.1401 52.7919 0.0000 0.0000 0.0000
# 4 0.0000 0.0000 0.0000 34.1964 0.0000 0.0000
# 5 0.0000 0.0000 0.0000 0.0000 18.1754 0.0000
# 6 0.0000 0.0000 0.0000 0.0000 0.0000 13.5783
#
#
#
# Elastic Compliance Matrix: (Units=1/GPa)
#
#
# Indices 1 2 3 4 5 6 
#
# 1 0.012257 -0.002917 -0.002195 0.000000 0.000000 0.000000
# 2 -0.002917 0.010444 -0.005967 0.000000 0.000000 0.000000
# 3 -0.002195 -0.005967 0.023655 0.000000 0.000000 0.000000
# 4 0.000000 0.000000 0.000000 0.029243 0.000000 0.000000
# 5 0.000000 0.000000 0.000000 0.000000 0.055019 0.000000
# 6 0.000000 0.000000 0.000000 0.000000 0.000000 0.073647
#
#
# Mechanical properties :
#
#
# Convention : Reuss Voigt Hill
#
# Bulk Modulus (GPa) = 41.32853 50.07047 45.69950
# Shear Modulus (GPa) = 21.32281 25.38519 23.35400
#
# Velocity S-wave (km/s) = 3.38563 3.69409 3.54322
# Velocity P-wave (km/s) = 6.12375 6.71651 6.42697
#
# Compressibility (1/GPa) = 0.02419636
#
# Stress axis : x y z
#
# Youngs Moduli (GPa) = 81.58531 95.74917 42.27389
#
# Poissons Ratio (x) = 0.27935 0.09281
# Poissons Ratio (y) = 0.23802 0.25225
# Poissons Ratio (z) = 0.17912 0.57134
#
# Static dielectric constant tensor:
#      x y z
#    x 1.664930 0.000000 0.000000 
#    y 0.000000 1.673120 0.000000 
#    z 0.000000 0.000000 1.639650 
# 
# From -- ./inp_files/4765.got.cif
#   From: 2010.05.17/outbox.cif.g08.bks.cpg/sg67_3_cif.got.tgz:4765.got - 2010.06.03 18:28:57.
