data_PCOD9501152
_publ_section_title
;
Structure prediction by ZEFSAII (Michael W. Deem and Ramdas Pophale) SiO2 
 PCOD9501152
Probable space group: C M M A
;
_chemical_formula_sum "Si O2"
_cell_formula_units_Z 104
_cell_length_a 8.772211
_cell_length_b 25.697203
_cell_length_c 31.173297
_cell_angle_alpha 90.000000
_cell_angle_beta 90.000000
_cell_angle_gamma 90.000000
_cell_volume 7027.124724
_symmetry_space_group_name_H-M "C M M A"
_symmetry_group_IT_number 67
_symmetry_cell_setting 'orthorhombic'
loop_
_space_group_symop_operation_xyz
x,y,z
-x,1/2-y,z
x,-y,-z
-x,1/2+y,-z
-x,-y,-z
x,1/2+y,-z
-x,y,z
x,1/2-y,z
1/2+x,1/2+y,z
1/2-x,-y,z
1/2+x,1/2-y,-z
1/2-x,y,-z
1/2-x,1/2-y,-z
1/2+x,y,-z
1/2-x,1/2+y,z
1/2+x,-y,z
loop_
_atom_site_type_symbol
_atom_site_label
_atom_site_fract_x
_atom_site_fract_y
_atom_site_fract_z
Si Si1 0.316668 0.688506 0.456019
Si Si2 0.316670 0.557256 0.046731
Si Si3 0.325519 0.813255 0.726220
Si Si4 0.183535 0.250000 0.047938
Si Si5 0.678892 0.813321 0.362299
Si Si6 0.178390 0.812521 0.815193
Si Si7 0.318586 0.151292 0.098708
O O1 0.500000 0.685449 0.457269
O O2 0.275465 0.750000 0.455876
O O3 0.250000 0.665753 0.500000
O O4 0.266521 0.667933 0.409257
O O5 0.500000 0.555863 0.045036
O O6 0.250000 0.500000 0.055949
O O7 0.256709 0.599001 0.080602
O O8 0.250000 0.572405 0.000000
O O9 0.500000 0.828652 0.733055
O O10 0.320197 0.750000 0.724840
O O11 0.266079 0.831557 0.679971
O O12 0.225272 0.828599 0.767159
O O13 0.244836 0.199413 0.072807
O O14 0.000000 0.250000 0.047346
O O15 0.250000 0.250000 0.000000
O O16 0.500000 0.825704 0.357933
O O17 0.688965 0.750000 0.363244
O O18 0.202682 0.750000 0.818573
O O19 0.277694 0.839669 0.851625
O O20 0.000000 0.822352 0.822873
O O21 0.500000 0.150709 0.092212
#
# Coordination Sequence:
#
# PCOD9501152 Si02
#       7
#    16  16  16   8  16  16  16
#     4   8  13  19  26  36  51  72 100 138 185 236
#     4  11  22  39  59  79 100 123 153 185 219 258
#     4   9  16  24  35  51  70  93 124 160 198 241
#     4  12  24  38  52  72  98 126 154 182 217 260
#     4   8  13  21  30  40  56  80 111 146 188 237
#     4  10  19  31  46  63  86 114 143 173 211 258
#     4  12  23  36  53  74  98 124 151 184 221 261
#
# _framework density 14.799792999999999
#
# number of rings (size 3 to 8) (size 9 to 14) (size 15 to 20)
#    0.000    2.154    0.769    6.231    0.000    3.077 
#    0.000    3.077    0.000    0.000    0.000    0.000 
#    0.000    0.000    0.000    0.000    0.000    0.000 
#
# Total GULP energy -289820.160639 kJ/mol
# GULP energy per Si atom -5573.464628 kJ/mol
# Density = 1.476611 g / cm^3
# Si number density = 14.799793 Si / 1000 Ang^3
#
#
#
# Elastic Constant Matrix: (Units=GPa)
#
#
# Indices 1 2 3 4 5 6 
#
# 1 97.8577 20.0370 39.8789 0.0000 0.0000 0.0000
# 2 20.0370 21.6561 23.6634 0.0000 0.0000 0.0000
# 3 39.8789 23.6634 110.9093 0.0000 0.0000 0.0000
# 4 0.0000 0.0000 0.0000 3.6347 0.0000 0.0000
# 5 0.0000 0.0000 0.0000 0.0000 30.5107 0.0000
# 6 0.0000 0.0000 0.0000 0.0000 0.0000 13.3758
#
#
#
# Elastic Compliance Matrix: (Units=1/GPa)
#
#
# Indices 1 2 3 4 5 6 
#
# 1 0.013242 -0.009193 -0.002800 0.000000 0.000000 0.000000
# 2 -0.009193 0.066596 -0.010903 0.000000 0.000000 0.000000
# 3 -0.002800 -0.010903 0.012350 0.000000 0.000000 0.000000
# 4 0.000000 0.000000 0.000000 0.275124 0.000000 0.000000
# 5 0.000000 0.000000 0.000000 0.000000 0.032775 0.000000
# 6 0.000000 0.000000 0.000000 0.000000 0.000000 0.074762
#
#
# Mechanical properties :
#
#
# Convention : Reuss Voigt Hill
#
# Bulk Modulus (GPa) = 21.55394 44.17577 32.86486
# Shear Modulus (GPa) = 9.32652 19.29383 14.31018
#
# Velocity S-wave (km/s) = 2.51306 3.61453 3.11290
# Velocity P-wave (km/s) = 4.79749 6.87994 5.93083
#
# Compressibility (1/GPa) = 0.04639523
#
# Stress axis : x y z
#
# Youngs Moduli (GPa) = 75.51580 15.01599 80.97467
#
# Poissons Ratio (x) = 0.13804 0.22674
# Poissons Ratio (y) = 0.69418 0.88290
# Poissons Ratio (z) = 0.21145 0.16373
#
# Static dielectric constant tensor:
#      x y z
#    x 1.497400 0.000000 0.000000 
#    y 0.000000 1.457950 0.000000 
#    z 0.000000 0.000000 1.524380 
# 
# From -- ./inp_files/43726.got.cif
#   From: 2010.05.17/outbox.cif.g08.bks.cpg/sg67_22_cif.got.tgz:43726.got - 2010.06.03 18:28:57.
