data_PCOD9501402
_publ_section_title
;
Structure prediction by ZEFSAII (Michael W. Deem and Ramdas Pophale) SiO2 
 PCOD9501402
Probable space group: C M M A
;
_chemical_formula_sum "Si O2"
_cell_formula_units_Z 72
_cell_length_a 10.805847
_cell_length_b 21.775391
_cell_length_c 16.760601
_cell_angle_alpha 90.000000
_cell_angle_beta 90.000000
_cell_angle_gamma 90.000000
_cell_volume 3943.795285
_symmetry_space_group_name_H-M "C M M A"
_symmetry_group_IT_number 67
_symmetry_cell_setting 'orthorhombic'
loop_
_space_group_symop_operation_xyz
x,y,z
-x,1/2-y,z
x,-y,-z
-x,1/2+y,-z
-x,-y,-z
x,1/2+y,-z
-x,y,z
x,1/2-y,z
1/2+x,1/2+y,z
1/2-x,-y,z
1/2+x,1/2-y,-z
1/2-x,y,-z
1/2-x,1/2-y,-z
1/2+x,y,-z
1/2-x,1/2+y,z
1/2+x,-y,z
loop_
_atom_site_type_symbol
_atom_site_label
_atom_site_fract_x
_atom_site_fract_y
_atom_site_fract_z
Si Si1 0.859943 0.091603 0.777711
Si Si2 0.367386 0.067602 0.039335
Si Si3 0.638704 0.322726 0.729566
Si Si4 0.639598 0.112967 0.560774
Si Si5 0.750000 0.500000 0.348986
O O1 0.852335 0.062470 0.865788
O O2 0.751105 0.141393 0.770362
O O3 0.833465 0.041650 0.709227
O O4 0.000000 0.115989 0.767994
O O5 0.500000 0.098014 0.023694
O O6 0.250000 0.099868 0.000000
O O7 0.372671 0.000000 0.000000
O O8 0.500000 0.342114 0.757088
O O9 0.649698 0.250000 0.739209
O O10 0.644493 0.341255 0.636165
O O11 0.500000 0.114538 0.526810
O O12 0.750000 0.127142 0.500000
O O13 0.669178 0.045748 0.597302
#
# Coordination Sequence:
#
# PCOD9501402 Si02
#       5
#    16  16  16  16   8
#     4  10  20  33  53  81 108 137 176 218 256 300
#     4   9  17  29  46  72 106 138 166 198 240 292
#     4   9  20  39  58  75  99 134 175 218 267 318
#     4  10  21  34  50  73 101 134 171 212 259 313
#     4  10  19  32  51  72 106 142 172 206 257 318
#
# _framework density 18.256525
#
# number of rings (size 3 to 8) (size 9 to 14) (size 15 to 20)
#    0.000    2.444    0.000    2.333    0.000    8.000 
#    0.000    0.000    0.000    0.667    0.000    0.000 
#    0.000    0.000    0.000    0.000    0.000    0.000 
#
# Total GULP energy -200615.294653 kJ/mol
# GULP energy per Si atom -5572.647074 kJ/mol
# Density = 1.821497 g / cm^3
# Si number density = 18.256525 Si / 1000 Ang^3
#
#
#
# Elastic Constant Matrix: (Units=GPa)
#
#
# Indices 1 2 3 4 5 6 
#
# 1 195.2155 34.0414 53.9132 0.0000 0.0000 0.0000
# 2 34.0414 47.6884 7.9758 0.0000 0.0000 0.0000
# 3 53.9132 7.9758 54.0295 0.0000 0.0000 0.0000
# 4 0.0000 0.0000 0.0000 4.3789 0.0000 0.0000
# 5 0.0000 0.0000 0.0000 0.0000 29.6840 0.0000
# 6 0.0000 0.0000 0.0000 0.0000 0.0000 15.5103
#
#
#
# Elastic Compliance Matrix: (Units=1/GPa)
#
#
# Indices 1 2 3 4 5 6 
#
# 1 0.007887 -0.004423 -0.007217 0.000000 0.000000 0.000000
# 2 -0.004423 0.023981 0.000873 0.000000 0.000000 0.000000
# 3 -0.007217 0.000873 0.025581 0.000000 0.000000 0.000000
# 4 0.000000 0.000000 0.000000 0.228369 0.000000 0.000000
# 5 0.000000 0.000000 0.000000 0.000000 0.033688 0.000000
# 6 0.000000 0.000000 0.000000 0.000000 0.000000 0.064473
#
#
# Mechanical properties :
#
#
# Convention : Reuss Voigt Hill
#
# Bulk Modulus (GPa) = 27.84325 54.31046 41.07685
# Shear Modulus (GPa) = 11.97652 23.31485 17.64568
#
# Velocity S-wave (km/s) = 2.56405 3.57749 3.11230
# Velocity P-wave (km/s) = 4.90409 6.84673 5.95515
#
# Compressibility (1/GPa) = 0.03591535
#
# Stress axis : x y z
#
# Youngs Moduli (GPa) = 126.79161 41.70038 39.09146
#
# Poissons Ratio (x) = 0.18444 0.28213
# Poissons Ratio (y) = 0.56079 -0.03414
# Poissons Ratio (z) = 0.91506 -0.03642
#
# Static dielectric constant tensor:
#      x y z
#    x 1.711410 0.000000 0.000000 
#    y 0.000000 1.588760 0.000000 
#    z 0.000000 0.000000 1.623660 
# 
# From -- ./inp_files/26020.got.cif
#   From: 2010.05.17/outbox.cif.g08.bks.cpg/sg67_14_cif.got.tgz:26020.got - 2010.06.03 18:28:57.
