data_PCOD9501012
_publ_section_title
;
Structure prediction by ZEFSAII (Michael W. Deem and Ramdas Pophale) SiO2 
 PCOD9501012
Probable space group: C M M A
;
_chemical_formula_sum "Si O2"
_cell_formula_units_Z 120
_cell_length_a 8.984859
_cell_length_b 27.572767
_cell_length_c 29.862515
_cell_angle_alpha 90.000000
_cell_angle_beta 90.000000
_cell_angle_gamma 90.000000
_cell_volume 7398.062532
_symmetry_space_group_name_H-M "C M M A"
_symmetry_group_IT_number 67
_symmetry_cell_setting 'orthorhombic'
loop_
_space_group_symop_operation_xyz
x,y,z
-x,1/2-y,z
x,-y,-z
-x,1/2+y,-z
-x,-y,-z
x,1/2+y,-z
-x,y,z
x,1/2-y,z
1/2+x,1/2+y,z
1/2-x,-y,z
1/2+x,1/2-y,-z
1/2-x,y,-z
1/2-x,1/2-y,-z
1/2+x,y,-z
1/2-x,1/2+y,z
1/2+x,-y,z
loop_
_atom_site_type_symbol
_atom_site_label
_atom_site_fract_x
_atom_site_fract_y
_atom_site_fract_z
Si Si1 0.822679 0.602179 0.359927
Si Si2 0.676130 0.694714 0.316811
Si Si3 0.679612 0.142366 0.451092
Si Si4 0.324679 0.146707 0.776540
Si Si5 0.322523 0.693323 0.861516
Si Si6 0.178116 0.449558 0.278634
Si Si7 0.320758 0.250000 0.450869
Si Si8 0.328562 0.691000 0.045634
O O1 0.776689 0.654747 0.340461
O O2 0.779269 0.604454 0.412278
O O3 0.739732 0.564643 0.327747
O O4 0.000000 0.595448 0.356647
O O5 0.500000 0.685774 0.326627
O O6 0.712271 0.750000 0.328583
O O7 0.694358 0.685445 0.263669
O O8 0.500000 0.141876 0.455520
O O9 0.750000 0.134666 0.500000
O O10 0.723613 0.196726 0.433604
O O11 0.500000 0.145086 0.787529
O O12 0.234877 0.162265 0.819917
O O13 0.282752 0.095012 0.754468
O O14 0.500000 0.691528 0.864472
O O15 0.278539 0.750000 0.854573
O O16 0.253309 0.676716 0.908689
O O17 0.250000 0.500000 0.264328
O O18 0.000000 0.452783 0.280331
O O19 0.500000 0.250000 0.452371
O O20 0.250000 0.250000 0.500000
O O21 0.500000 0.675978 0.046462
O O22 0.324701 0.750000 0.044784
O O23 0.250000 0.674309 0.000000
#
# Coordination Sequence:
#
# PCOD9501012 Si02
#       8
#    16  16  16  16  16  16   8  16
#     4  10  20  32  49  73  97 123 155 190 231 279
#     4   9  18  31  45  64  93 128 162 195 231 274
#     4   9  18  30  46  66  93 125 157 191 225 265
#     4   9  18  32  48  67  92 121 154 191 234 284
#     4  10  19  28  41  65  97 132 169 205 239 278
#     4  10  21  38  58  76  95 119 150 191 239 291
#     4   8  14  26  40  58  86 120 156 186 214 248
#     4   9  16  26  40  58  85 125 171 213 249 282
#
# _framework density 16.220464
#
# number of rings (size 3 to 8) (size 9 to 14) (size 15 to 20)
#    0.000    2.667    0.000    2.800    0.933    6.933 
#    0.000    0.000    0.000    0.400    0.000    2.800 
#    0.000    0.533    0.000    5.600    0.000    3.333 
#
# Total GULP energy -334307.657478 kJ/mol
# GULP energy per Si atom -5571.794291 kJ/mol
# Density = 1.618355 g / cm^3
# Si number density = 16.220464 Si / 1000 Ang^3
#
#
#
# Elastic Constant Matrix: (Units=GPa)
#
#
# Indices 1 2 3 4 5 6 
#
# 1 43.3678 21.0199 43.3720 0.0000 0.0000 0.0000
# 2 21.0199 49.2888 23.0483 0.0000 0.0000 0.0000
# 3 43.3720 23.0483 108.1446 0.0000 0.0000 0.0000
# 4 0.0000 0.0000 0.0000 12.6576 0.0000 0.0000
# 5 0.0000 0.0000 0.0000 0.0000 28.1948 0.0000
# 6 0.0000 0.0000 0.0000 0.0000 0.0000 21.4139
#
#
#
# Elastic Compliance Matrix: (Units=1/GPa)
#
#
# Indices 1 2 3 4 5 6 
#
# 1 0.043767 -0.011615 -0.015078 0.000000 0.000000 0.000000
# 2 -0.011615 0.025617 -0.000801 0.000000 0.000000 0.000000
# 3 -0.015078 -0.000801 0.015465 0.000000 0.000000 0.000000
# 4 0.000000 0.000000 0.000000 0.079004 0.000000 0.000000
# 5 0.000000 0.000000 0.000000 0.000000 0.035468 0.000000
# 6 0.000000 0.000000 0.000000 0.000000 0.000000 0.046699
#
#
# Mechanical properties :
#
#
# Convention : Reuss Voigt Hill
#
# Bulk Modulus (GPa) = 33.48847 41.74240 37.61544
# Shear Modulus (GPa) = 16.07924 20.01067 18.04495
#
# Velocity S-wave (km/s) = 3.15190 3.51617 3.33901
# Velocity P-wave (km/s) = 5.82551 6.50191 6.17298
#
# Compressibility (1/GPa) = 0.02986102
#
# Stress axis : x y z
#
# Youngs Moduli (GPa) = 22.84809 39.03733 64.66332
#
# Poissons Ratio (x) = 0.45340 0.97498
# Poissons Ratio (y) = 0.26537 0.05182
# Poissons Ratio (z) = 0.34450 0.03129
#
# Static dielectric constant tensor:
#      x y z
#    x 1.540320 0.000000 0.000000 
#    y 0.000000 1.547650 0.000000 
#    z 0.000000 0.000000 1.542150 
# 
# From -- ./inp_files/43946.got.cif
#   From: 2010.05.17/outbox.cif.g08.bks.cpg/sg67_22_cif.got.tgz:43946.got - 2010.06.03 18:28:57.
