data_PCOD9501107
_publ_section_title
;
Structure prediction by ZEFSAII (Michael W. Deem and Ramdas Pophale) SiO2 
 PCOD9501107
Probable space group: C M M A
;
_chemical_formula_sum "Si O2"
_cell_formula_units_Z 84
_cell_length_a 14.955918
_cell_length_b 19.060370
_cell_length_c 15.769419
_cell_angle_alpha 90.000000
_cell_angle_beta 90.000000
_cell_angle_gamma 90.000000
_cell_volume 4495.314643
_symmetry_space_group_name_H-M "C M M A"
_symmetry_group_IT_number 67
_symmetry_cell_setting 'orthorhombic'
loop_
_space_group_symop_operation_xyz
x,y,z
-x,1/2-y,z
x,-y,-z
-x,1/2+y,-z
-x,-y,-z
x,1/2+y,-z
-x,y,z
x,1/2-y,z
1/2+x,1/2+y,z
1/2-x,-y,z
1/2+x,1/2-y,-z
1/2-x,y,-z
1/2-x,1/2-y,-z
1/2+x,y,-z
1/2-x,1/2+y,z
1/2+x,-y,z
loop_
_atom_site_type_symbol
_atom_site_label
_atom_site_fract_x
_atom_site_fract_y
_atom_site_fract_z
Si Si1 0.668396 0.445468 0.252136
Si Si2 0.805770 0.333968 0.234458
Si Si3 0.603231 0.333194 0.588170
Si Si4 0.250000 0.500000 0.000000
Si Si5 0.607318 0.565689 0.555553
Si Si6 0.599900 0.554153 0.123943
O O1 0.750000 0.500000 0.257139
O O2 0.710650 0.372305 0.220162
O O3 0.634619 0.435669 0.347243
O O4 0.604407 0.486543 0.187182
O O5 0.805165 0.250000 0.222724
O O6 0.835760 0.350390 0.331310
O O7 0.876662 0.375505 0.176407
O O8 0.500000 0.356580 0.605580
O O9 0.602052 0.250000 0.579698
O O10 0.633836 0.367543 0.500615
O O11 0.318544 0.543594 0.058494
O O12 0.640084 0.500000 0.500000
O O13 0.500000 0.563109 0.556128
O O14 0.500000 0.558383 0.087400
#
# Coordination Sequence:
#
# PCOD9501107 Si02
#       6
#    16  16  16   4  16  16
#     4  10  20  35  52  80 116 152 194 243 292 345
#     4  10  20  36  58  85 120 156 197 246 289 342
#     4   9  18  31  47  72 108 150 198 244 283 329
#     4  12  22  44  66 102 118 140 188 240 300 362
#     4  10  19  30  47  72 105 150 203 254 293 332
#     4  11  22  40  67  92 119 153 189 236 296 356
#
# _framework density 18.686122999999998
#
# number of rings (size 3 to 8) (size 9 to 14) (size 15 to 20)
#    0.000    1.905    2.857    3.714    0.000    6.095 
#    0.000    2.381    0.000    1.714    0.000    0.000 
#    0.000    0.000    0.000    0.000    0.000    0.000 
#
# Total GULP energy -234207.570376 kJ/mol
# GULP energy per Si atom -5576.370723 kJ/mol
# Density = 1.864359 g / cm^3
# Si number density = 18.686123 Si / 1000 Ang^3
#
#
#
# Elastic Constant Matrix: (Units=GPa)
#
#
# Indices 1 2 3 4 5 6 
#
# 1 88.2333 29.9291 28.2871 0.0000 0.0000 0.0000
# 2 29.9291 74.4253 26.9437 0.0000 0.0000 0.0000
# 3 28.2871 26.9437 79.9823 0.0000 0.0000 0.0000
# 4 0.0000 0.0000 0.0000 20.3727 0.0000 0.0000
# 5 0.0000 0.0000 0.0000 0.0000 15.3661 0.0000
# 6 0.0000 0.0000 0.0000 0.0000 0.0000 3.4357
#
#
#
# Elastic Compliance Matrix: (Units=1/GPa)
#
#
# Indices 1 2 3 4 5 6 
#
# 1 0.013916 -0.004344 -0.003458 0.000000 0.000000 0.000000
# 2 -0.004344 0.016659 -0.004075 0.000000 0.000000 0.000000
# 3 -0.003458 -0.004075 0.015099 0.000000 0.000000 0.000000
# 4 0.000000 0.000000 0.000000 0.049085 0.000000 0.000000
# 5 0.000000 0.000000 0.000000 0.000000 0.065078 0.000000
# 6 0.000000 0.000000 0.000000 0.000000 0.000000 0.291065
#
#
# Mechanical properties :
#
#
# Convention : Reuss Voigt Hill
#
# Bulk Modulus (GPa) = 45.62520 45.88453 45.75486
# Shear Modulus (GPa) = 10.37425 18.33364 14.35394
#
# Velocity S-wave (km/s) = 2.35879 3.13571 2.77458
# Velocity P-wave (km/s) = 5.64696 6.14157 5.89945
#
# Compressibility (1/GPa) = 0.02191771
#
# Stress axis : x y z
#
# Youngs Moduli (GPa) = 71.86076 60.02903 66.23094
#
# Poissons Ratio (x) = 0.26077 0.22904
# Poissons Ratio (y) = 0.31217 0.26992
# Poissons Ratio (z) = 0.24851 0.24464
#
# Static dielectric constant tensor:
#      x y z
#    x 1.702100 0.000000 0.000000 
#    y 0.000000 1.959200 0.000000 
#    z 0.000000 0.000000 1.673190 
# 
# From -- ./inp_files/27084.got.cif
#   From: 2010.05.17/outbox.cif.g08.bks.cpg/sg67_14_cif.got.tgz:27084.got - 2010.06.03 18:28:57.
