data_PCOD9501159
_publ_section_title
;
Structure prediction by ZEFSAII (Michael W. Deem and Ramdas Pophale) SiO2 
 PCOD9501159
Probable space group: C M M A
;
_chemical_formula_sum "Si O2"
_cell_formula_units_Z 80
_cell_length_a 44.356752
_cell_length_b 14.167213
_cell_length_c 5.331521
_cell_angle_alpha 90.000000
_cell_angle_beta 90.000000
_cell_angle_gamma 90.000000
_cell_volume 3350.389395
_symmetry_space_group_name_H-M "C M M A"
_symmetry_group_IT_number 67
_symmetry_cell_setting 'orthorhombic'
loop_
_space_group_symop_operation_xyz
x,y,z
-x,1/2-y,z
x,-y,-z
-x,1/2+y,-z
-x,-y,-z
x,1/2+y,-z
-x,y,z
x,1/2-y,z
1/2+x,1/2+y,z
1/2-x,-y,z
1/2+x,1/2-y,-z
1/2-x,y,-z
1/2-x,1/2-y,-z
1/2+x,y,-z
1/2-x,1/2+y,z
1/2+x,-y,z
loop_
_atom_site_type_symbol
_atom_site_label
_atom_site_fract_x
_atom_site_fract_y
_atom_site_fract_z
Si Si1 0.663820 0.865451 0.342171
Si Si2 0.731992 0.635106 0.249561
Si Si3 0.534204 0.886967 0.455533
Si Si4 0.871377 0.635525 0.157870
Si Si5 0.560302 0.394007 0.044886
O O1 0.664999 0.750000 0.351914
O O2 0.697768 0.898692 0.285733
O O3 0.648473 0.895402 0.603443
O O4 0.643780 0.891961 0.104114
O O5 0.730612 0.750000 0.236762
O O6 0.750000 0.610546 0.500000
O O7 0.750000 0.605552 0.000000
O O8 0.500000 0.866910 0.378316
O O9 0.541451 0.849257 0.731424
O O10 0.537286 0.000000 0.500000
O O11 0.556491 0.853975 0.234812
O O12 0.872405 0.750000 0.166279
O O13 0.905710 0.602088 0.147336
O O14 0.548840 0.500000 0.000000
#
# Coordination Sequence:
#
# PCOD9501159 Si02
#       5
#    16  16  16  16  16
#     4   9  17  28  42  62  89 123 156 183 222 274
#     4   9  15  23  37  58  85 115 147 185 225 261
#     4   9  17  30  49  71  92 115 146 186 231 273
#     4  10  19  31  46  64  92 126 154 182 222 275
#     4  10  19  31  49  71  92 116 150 190 225 265
#
# _framework density 23.877824
#
# number of rings (size 3 to 8) (size 9 to 14) (size 15 to 20)
#    0.000    2.600    0.000    3.000    0.000    7.200 
#    0.000    0.000    0.000    3.600    0.000    0.000 
#    0.000   12.000    0.000    0.000    0.000    0.000 
#
# Total GULP energy -223560.120247 kJ/mol
# GULP energy per Si atom -5589.003006 kJ/mol
# Density = 2.382348 g / cm^3
# Si number density = 23.877824 Si / 1000 Ang^3
#
#
#
# Elastic Constant Matrix: (Units=GPa)
#
#
# Indices 1 2 3 4 5 6 
#
# 1 97.6867 -21.3554 63.0892 0.0000 0.0000 0.0000
# 2 -21.3554 89.5233 2.9176 0.0000 0.0000 0.0000
# 3 63.0892 2.9176 217.9776 0.0000 0.0000 0.0000
# 4 0.0000 0.0000 0.0000 -28.3224 0.0000 0.0000
# 5 0.0000 0.0000 0.0000 0.0000 46.2205 0.0000
# 6 0.0000 0.0000 0.0000 0.0000 0.0000 20.6733
#
#
#
# Elastic Compliance Matrix: (Units=1/GPa)
#
#
# Indices 1 2 3 4 5 6 
#
# 1 0.013528 0.003356 -0.003960 0.000000 0.000000 0.000000
# 2 0.003356 0.012008 -0.001132 0.000000 0.000000 0.000000
# 3 -0.003960 -0.001132 0.005749 0.000000 0.000000 0.000000
# 4 0.000000 0.000000 0.000000 -0.035308 0.000000 0.000000
# 5 0.000000 0.000000 0.000000 0.000000 0.021635 0.000000
# 6 0.000000 0.000000 0.000000 0.000000 0.000000 0.048372
#
#
# Mechanical properties :
#
#
# Convention : Reuss Voigt Hill
#
# Bulk Modulus (GPa) = 35.95512 54.94335 45.44924
# Shear Modulus (GPa) = 63.50995 31.75003 47.62999
#
# Velocity S-wave (km/s) = 5.16291 3.65044 4.47109
# Velocity P-wave (km/s) = 7.11558 6.38966 6.76237
#
# Compressibility (1/GPa) = 0.02781245
#
# Stress axis : x y z
#
# Youngs Moduli (GPa) = 73.91932 83.27932 173.94210
#
# Poissons Ratio (x) = -0.27950 0.68888
# Poissons Ratio (y) = -0.24809 0.19692
# Poissons Ratio (z) = 0.29275 0.09428
#
# Static dielectric constant tensor:
#      x y z
#    x 1.848540 0.000000 0.000000 
#    y 0.000000 1.962070 0.000000 
#    z 0.000000 0.000000 1.875050 
# 
# From -- ./inp_files/4812.got.cif
#   From: 2010.05.17/outbox.cif.g08.bks.cpg/sg67_3_cif.got.tgz:4812.got - 2010.06.03 18:28:57.
