data_PCOD9501740
_publ_section_title
;
Structure prediction by ZEFSAII (Michael W. Deem and Ramdas Pophale) SiO2 
 PCOD9501740
Probable space group: C M M A
;
_chemical_formula_sum "Si O2"
_cell_formula_units_Z 72
_cell_length_a 25.046508
_cell_length_b 15.528553
_cell_length_c 7.887108
_cell_angle_alpha 90.000000
_cell_angle_beta 90.000000
_cell_angle_gamma 90.000000
_cell_volume 3067.580450
_symmetry_space_group_name_H-M "C M M A"
_symmetry_group_IT_number 67
_symmetry_cell_setting 'orthorhombic'
loop_
_space_group_symop_operation_xyz
x,y,z
-x,1/2-y,z
x,-y,-z
-x,1/2+y,-z
-x,-y,-z
x,1/2+y,-z
-x,y,z
x,1/2-y,z
1/2+x,1/2+y,z
1/2-x,-y,z
1/2+x,1/2-y,-z
1/2-x,y,-z
1/2-x,1/2-y,-z
1/2+x,y,-z
1/2-x,1/2+y,z
1/2+x,-y,z
loop_
_atom_site_type_symbol
_atom_site_label
_atom_site_fract_x
_atom_site_fract_y
_atom_site_fract_z
Si Si1 0.440171 0.887016 0.663162
Si Si2 0.250000 0.878507 0.000000
Si Si3 0.364779 0.848608 0.961494
Si Si4 0.206975 0.152424 0.365674
Si Si5 0.094502 0.584315 0.694200
O O1 0.500000 0.864052 0.715429
O O2 0.395861 0.848569 0.785769
O O3 0.432825 0.867199 0.463856
O O4 0.430534 0.989682 0.689520
O O5 0.188473 0.907604 0.042499
O O6 0.264146 0.842216 0.184718
O O7 0.347141 0.750000 0.995326
O O8 0.403490 0.877369 0.116006
O O9 0.188949 0.250000 0.410901
O O10 0.250000 0.122928 0.500000
O O11 0.157037 0.089217 0.354967
#
# Coordination Sequence:
#
# PCOD9501740 Si02
#       5
#    16   8  16  16  16
#     4  11  25  44  63  85 120 165 210 260 316 370
#     4  10  19  36  59  86 123 158 189 236 303 374
#     4  11  23  40  65  95 124 159 204 255 315 379
#     4  10  19  33  58  90 124 161 200 249 308 370
#     4  10  21  40  63  87 118 165 210 248 305 375
#
# _framework density 23.471267000000001
#
# number of rings (size 3 to 8) (size 9 to 14) (size 15 to 20)
#    0.000    1.556    0.000    7.333    0.000    6.667 
#    0.000   20.000    0.000    6.000    0.000    0.000 
#    0.000    0.000    0.000    0.000    0.000    0.000 
#
# Total GULP energy -200614.826505 kJ/mol
# GULP energy per Si atom -5572.634070 kJ/mol
# Density = 2.341785 g / cm^3
# Si number density = 23.471267 Si / 1000 Ang^3
#
#
#
# Elastic Constant Matrix: (Units=GPa)
#
#
# Indices 1 2 3 4 5 6 
#
# 1 101.8447 13.9567 33.5080 0.0000 0.0000 0.0000
# 2 13.9567 56.1132 0.2072 0.0000 0.0000 0.0000
# 3 33.5080 0.2072 89.1827 0.0000 0.0000 0.0000
# 4 0.0000 0.0000 0.0000 23.9058 0.0000 0.0000
# 5 0.0000 0.0000 0.0000 0.0000 36.5721 0.0000
# 6 0.0000 0.0000 0.0000 0.0000 0.0000 -16.8544
#
#
#
# Elastic Compliance Matrix: (Units=1/GPa)
#
#
# Indices 1 2 3 4 5 6 
#
# 1 0.011652 -0.002882 -0.004371 0.000000 0.000000 0.000000
# 2 -0.002882 0.018534 0.001040 0.000000 0.000000 0.000000
# 3 -0.004371 0.001040 0.012853 0.000000 0.000000 0.000000
# 4 0.000000 0.000000 0.000000 0.041831 0.000000 0.000000
# 5 0.000000 0.000000 0.000000 0.000000 0.027343 0.000000
# 6 0.000000 0.000000 0.000000 0.000000 0.000000 -0.059332
#
#
# Mechanical properties :
#
#
# Convention : Reuss Voigt Hill
#
# Bulk Modulus (GPa) = 32.66682 38.05381 35.36032
# Shear Modulus (GPa) = 66.21434 22.02262 44.11848
#
# Velocity S-wave (km/s) = 5.31715 3.06646 4.34023
# Velocity P-wave (km/s) = 7.18638 5.36523 6.34152
#
# Compressibility (1/GPa) = 0.03061210
#
# Stress axis : x y z
#
# Youngs Moduli (GPa) = 85.82226 53.95460 77.80355
#
# Poissons Ratio (x) = 0.15550 0.34010
# Poissons Ratio (y) = 0.24734 -0.08090
# Poissons Ratio (z) = 0.37515 -0.05610
#
# Static dielectric constant tensor:
#      x y z
#    x 1.847050 0.000000 0.000000 
#    y 0.000000 2.571710 0.000000 
#    z 0.000000 0.000000 1.889490 
# 
# From -- ./inp_files/12229.got.cif
#   From: 2010.05.17/outbox.cif.g08.bks.cpg/sg67_7_cif.got.tgz:12229.got - 2010.06.03 18:28:57.
