data_PCOD9501602
_publ_section_title
;
Structure prediction by ZEFSAII (Michael W. Deem and Ramdas Pophale) SiO2 
 PCOD9501602
Probable space group: C M M A
;
_chemical_formula_sum "Si O2"
_cell_formula_units_Z 112
_cell_length_a 24.088384
_cell_length_b 14.950626
_cell_length_c 15.970057
_cell_angle_alpha 90.000000
_cell_angle_beta 90.000000
_cell_angle_gamma 90.000000
_cell_volume 5751.399157
_symmetry_space_group_name_H-M "C M M A"
_symmetry_group_IT_number 67
_symmetry_cell_setting 'orthorhombic'
loop_
_space_group_symop_operation_xyz
x,y,z
-x,1/2-y,z
x,-y,-z
-x,1/2+y,-z
-x,-y,-z
x,1/2+y,-z
-x,y,z
x,1/2-y,z
1/2+x,1/2+y,z
1/2-x,-y,z
1/2+x,1/2-y,-z
1/2-x,y,-z
1/2-x,1/2-y,-z
1/2+x,y,-z
1/2-x,1/2+y,z
1/2+x,-y,z
loop_
_atom_site_type_symbol
_atom_site_label
_atom_site_fract_x
_atom_site_fract_y
_atom_site_fract_z
Si Si1 0.834882 0.398448 0.980120
Si Si2 0.330993 0.404331 0.722178
Si Si3 0.736587 0.349915 0.172005
Si Si4 0.062602 0.445887 0.863536
Si Si5 0.095692 0.151498 0.132974
Si Si6 0.162315 0.750000 0.418561
Si Si7 0.134884 0.099885 0.708272
Si Si8 0.203571 0.250000 0.399398
O O1 0.786943 0.360589 0.921044
O O2 0.891615 0.404040 0.925154
O O3 0.819467 0.500000 0.000000
O O4 0.853973 0.351552 0.065218
O O5 0.283509 0.415723 0.793359
O O6 0.380489 0.358497 0.773548
O O7 0.347063 0.499664 0.685699
O O8 0.309405 0.338607 0.652381
O O9 0.759260 0.250000 0.183084
O O10 0.683252 0.361161 0.231805
O O11 0.066046 0.554343 0.877021
O O12 0.082274 0.415630 0.770286
O O13 0.000000 0.416973 0.880642
O O14 0.068836 0.250000 0.123305
O O15 0.134684 0.834939 0.371383
O O16 0.163751 0.750000 0.519076
O O17 0.229496 0.750000 0.407305
#
# Coordination Sequence:
#
# PCOD9501602 Si02
#       8
#    16  16  16  16  16   8  16   8
#     4   9  20  33  48  77 109 153 197 237 278 327
#     4  11  20  35  54  81 113 153 183 222 274 331
#     4  11  18  32  54  74 111 154 190 230 269 323
#     4   9  20  37  56  78 109 146 187 240 290 327
#     4  10  19  33  52  77 111 148 192 235 275 332
#     4  11  22  38  57  87 115 145 177 224 273 339
#     4  10  20  35  58  80 112 148 183 223 280 337
#     4  11  22  36  58  86 120 142 179 218 269 341
#
# _framework density 19.473521999999999
#
# number of rings (size 3 to 8) (size 9 to 14) (size 15 to 20)
#    0.000    1.857    3.571    1.714    0.000    4.000 
#    0.000    6.786    0.000    0.000    0.000   12.000 
#    0.000    0.000    0.000    0.000    0.000    0.000 
#
# Total GULP energy -312290.285008 kJ/mol
# GULP energy per Si atom -5576.612232 kJ/mol
# Density = 1.942920 g / cm^3
# Si number density = 19.473522 Si / 1000 Ang^3
#
#
#
# Elastic Constant Matrix: (Units=GPa)
#
#
# Indices 1 2 3 4 5 6 
#
# 1 34.2936 6.3228 18.5484 0.0000 0.0000 0.0000
# 2 6.3228 107.1644 33.3800 0.0000 0.0000 0.0000
# 3 18.5484 33.3800 90.0431 0.0000 0.0000 0.0000
# 4 0.0000 0.0000 0.0000 9.3771 0.0000 0.0000
# 5 0.0000 0.0000 0.0000 0.0000 11.2929 0.0000
# 6 0.0000 0.0000 0.0000 0.0000 0.0000 7.2824
#
#
#
# Elastic Compliance Matrix: (Units=1/GPa)
#
#
# Indices 1 2 3 4 5 6 
#
# 1 0.032820 0.000192 -0.006832 0.000000 0.000000 0.000000
# 2 0.000192 0.010551 -0.003951 0.000000 0.000000 0.000000
# 3 -0.006832 -0.003951 0.013978 0.000000 0.000000 0.000000
# 4 0.000000 0.000000 0.000000 0.106643 0.000000 0.000000
# 5 0.000000 0.000000 0.000000 0.000000 0.088551 0.000000
# 6 0.000000 0.000000 0.000000 0.000000 0.000000 0.137317
#
#
# Mechanical properties :
#
#
# Convention : Reuss Voigt Hill
#
# Bulk Modulus (GPa) = 27.64999 38.66705 33.15852
# Shear Modulus (GPa) = 11.81763 17.14047 14.47905
#
# Velocity S-wave (km/s) = 2.46612 2.97002 2.72972
# Velocity P-wave (km/s) = 4.72637 5.62679 5.19612
#
# Compressibility (1/GPa) = 0.03616638
#
# Stress axis : x y z
#
# Youngs Moduli (GPa) = 30.46952 94.78002 71.54270
#
# Poissons Ratio (x) = -0.01816 0.48876
# Poissons Ratio (y) = -0.00584 0.28265
# Poissons Ratio (z) = 0.20816 0.37445
#
# Static dielectric constant tensor:
#      x y z
#    x 1.699110 0.000000 0.000000 
#    y 0.000000 1.710830 0.000000 
#    z 0.000000 0.000000 1.707340 
# 
# From -- ./inp_files/30860.got.cif
#   From: 2010.05.17/outbox.cif.g08.bks.cpg/sg67_16_cif.got.tgz:30860.got - 2010.06.03 18:28:57.
