data_PCOD9501736
_publ_section_title
;
Structure prediction by ZEFSAII (Michael W. Deem and Ramdas Pophale) SiO2 
 PCOD9501736
Probable space group: C M M A
;
_chemical_formula_sum "Si O2"
_cell_formula_units_Z 96
_cell_length_a 15.728390
_cell_length_b 19.080289
_cell_length_c 18.157376
_cell_angle_alpha 90.000000
_cell_angle_beta 90.000000
_cell_angle_gamma 90.000000
_cell_volume 5449.068969
_symmetry_space_group_name_H-M "C M M A"
_symmetry_group_IT_number 67
_symmetry_cell_setting 'orthorhombic'
loop_
_space_group_symop_operation_xyz
x,y,z
-x,1/2-y,z
x,-y,-z
-x,1/2+y,-z
-x,-y,-z
x,1/2+y,-z
-x,y,z
x,1/2-y,z
1/2+x,1/2+y,z
1/2-x,-y,z
1/2+x,1/2-y,-z
1/2-x,y,-z
1/2-x,1/2-y,-z
1/2+x,y,-z
1/2-x,1/2+y,z
1/2+x,-y,z
loop_
_atom_site_type_symbol
_atom_site_label
_atom_site_fract_x
_atom_site_fract_y
_atom_site_fract_z
Si Si1 0.273586 0.418444 0.330676
Si Si2 0.260304 0.583866 0.839449
Si Si3 0.671187 0.329729 0.558517
Si Si4 0.595599 0.434031 0.456270
Si Si5 0.402267 0.167502 0.893461
Si Si6 0.098895 0.832213 0.070623
O O1 0.250000 0.500000 0.334104
O O2 0.284564 0.400949 0.245414
O O3 0.201914 0.371412 0.369773
O O4 0.355293 0.412158 0.383093
O O5 0.250000 0.500000 0.849682
O O6 0.170331 0.620739 0.857066
O O7 0.333217 0.617769 0.890467
O O8 0.649833 0.250000 0.575180
O O9 0.750000 0.330661 0.500000
O O10 0.599506 0.371458 0.514826
O O11 0.636740 0.500000 0.500000
O O12 0.500000 0.453975 0.437062
O O13 0.500000 0.148791 0.873698
O O14 0.389892 0.250000 0.876047
O O15 0.394540 0.160760 0.982143
O O16 0.116117 0.750000 0.088178
O O17 0.000000 0.846963 0.090500
#
# Coordination Sequence:
#
# PCOD9501736 Si02
#       6
#    16  16  16  16  16  16
#     4  10  20  36  53  75 108 146 180 216 265 334
#     4  11  23  34  52  86 121 150 182 230 292 347
#     4   9  18  32  53  77 100 131 173 220 264 311
#     4  10  19  33  58  81  99 137 184 222 267 325
#     4   9  19  38  61  81 106 149 202 243 277 332
#     4   9  19  37  60  82 107 148 199 241 278 333
#
# _framework density 17.617688999999999
#
# number of rings (size 3 to 8) (size 9 to 14) (size 15 to 20)
#    0.000    2.333    1.667    2.000    0.000    5.667 
#    0.000    5.000    0.000    0.000    0.000    0.000 
#    0.000    0.000    0.000    0.000    0.000    0.000 
#
# Total GULP energy -267563.785178 kJ/mol
# GULP energy per Si atom -5574.245525 kJ/mol
# Density = 1.757759 g / cm^3
# Si number density = 17.617689 Si / 1000 Ang^3
#
#
#
# Elastic Constant Matrix: (Units=GPa)
#
#
# Indices 1 2 3 4 5 6 
#
# 1 100.2945 46.0819 47.3773 0.0000 0.0000 0.0000
# 2 46.0819 99.8205 44.3490 0.0000 0.0000 0.0000
# 3 47.3773 44.3490 67.4425 0.0000 0.0000 0.0000
# 4 0.0000 0.0000 0.0000 -47.6862 0.0000 0.0000
# 5 0.0000 0.0000 0.0000 0.0000 14.4573 0.0000
# 6 0.0000 0.0000 0.0000 0.0000 0.0000 23.4091
#
#
#
# Elastic Compliance Matrix: (Units=1/GPa)
#
#
# Indices 1 2 3 4 5 6 
#
# 1 0.015660 -0.003308 -0.008825 0.000000 0.000000 0.000000
# 2 -0.003308 0.014852 -0.007442 0.000000 0.000000 0.000000
# 3 -0.008825 -0.007442 0.025921 0.000000 0.000000 0.000000
# 4 0.000000 0.000000 0.000000 -0.020970 0.000000 0.000000
# 5 0.000000 0.000000 0.000000 0.000000 0.069169 0.000000
# 6 0.000000 0.000000 0.000000 0.000000 0.000000 0.042718
#
#
# Mechanical properties :
#
#
# Convention : Reuss Voigt Hill
#
# Bulk Modulus (GPa) = 57.86753 60.35267 59.11010
# Shear Modulus (GPa) = 26.00639 6.68601 16.34620
#
# Velocity S-wave (km/s) = 3.84624 1.95020 3.04933
# Velocity P-wave (km/s) = 7.25550 6.27712 6.78397
#
# Compressibility (1/GPa) = 0.01728085
#
# Stress axis : x y z
#
# Youngs Moduli (GPa) = 63.85898 67.33224 38.57909
#
# Poissons Ratio (x) = 0.22276 0.34046
# Poissons Ratio (y) = 0.21127 0.28711
# Poissons Ratio (z) = 0.56356 0.50110
#
# Static dielectric constant tensor:
#      x y z
#    x 1.610050 0.000000 0.000000 
#    y 0.000000 1.604360 0.000000 
#    z 0.000000 0.000000 1.586330 
# 
# From -- ./inp_files/27198.got.cif
#   From: 2010.05.17/outbox.cif.g08.bks.cpg/sg67_14_cif.got.tgz:27198.got - 2010.06.03 18:28:57.
