data_PCOD9501931
_publ_section_title
;
Structure prediction by ZEFSAII (Michael W. Deem and Ramdas Pophale) SiO2 
 PCOD9501931
Probable space group: C M M A
;
_chemical_formula_sum "Si O2"
_cell_formula_units_Z 64
_cell_length_a 13.905842
_cell_length_b 13.815654
_cell_length_c 14.967401
_cell_angle_alpha 90.000000
_cell_angle_beta 90.000000
_cell_angle_gamma 90.000000
_cell_volume 2875.511660
_symmetry_space_group_name_H-M "C M M A"
_symmetry_group_IT_number 67
_symmetry_cell_setting 'orthorhombic'
loop_
_space_group_symop_operation_xyz
x,y,z
-x,1/2-y,z
x,-y,-z
-x,1/2+y,-z
-x,-y,-z
x,1/2+y,-z
-x,y,z
x,1/2-y,z
1/2+x,1/2+y,z
1/2-x,-y,z
1/2+x,1/2-y,-z
1/2-x,y,-z
1/2-x,1/2-y,-z
1/2+x,y,-z
1/2-x,1/2+y,z
1/2+x,-y,z
loop_
_atom_site_type_symbol
_atom_site_label
_atom_site_fract_x
_atom_site_fract_y
_atom_site_fract_z
Si Si1 0.000000 0.641560 0.660259
Si Si2 0.117087 0.355400 0.050759
Si Si3 0.117121 0.441989 0.863851
Si Si4 0.500000 0.606635 0.540235
Si Si5 0.851244 0.532134 0.331298
O O1 0.088261 0.568348 0.681265
O O2 0.000000 0.750000 0.702535
O O3 0.000000 0.658840 0.553529
O O4 0.149401 0.250000 0.081379
O O5 0.145495 0.449093 0.107040
O O6 0.000000 0.356322 0.052522
O O7 0.144100 0.374680 0.947323
O O8 0.158295 0.421615 0.766614
O O9 0.000000 0.438399 0.856127
O O10 0.500000 0.500000 0.500000
O O11 0.591878 0.606102 0.604817
O O12 0.750000 0.500000 0.369927
#
# Coordination Sequence:
#
# PCOD9501931 Si02
#       5
#     8  16  16   8  16
#     4  10  22  40  62  88 114 142 186 239 284 339
#     4   8  15  26  45  71 102 146 190 234 282 328
#     4   9  15  29  49  74 107 142 191 235 278 335
#     4   8  18  36  56  78 106 143 178 216 280 346
#     4  10  19  35  59  83 112 151 187 227 284 347
#
# _framework density 22.256909
#
# number of rings (size 3 to 8) (size 9 to 14) (size 15 to 20)
#    0.000    3.250    2.500    1.500    0.000    5.500 
#    0.000    7.500    0.000    1.500    0.000    0.000 
#    0.000    0.000    0.000    0.000    0.000    0.000 
#
# Total GULP energy -178428.219010 kJ/mol
# GULP energy per Si atom -5575.881844 kJ/mol
# Density = 2.220625 g / cm^3
# Si number density = 22.256909 Si / 1000 Ang^3
#
#
#
# Elastic Constant Matrix: (Units=GPa)
#
#
# Indices 1 2 3 4 5 6 
#
# 1 88.4533 -15.3033 -10.5085 0.0000 0.0000 0.0000
# 2 -15.3033 65.1019 -28.5301 0.0000 0.0000 0.0000
# 3 -10.5085 -28.5301 101.7830 0.0000 0.0000 0.0000
# 4 0.0000 0.0000 0.0000 3.5044 0.0000 0.0000
# 5 0.0000 0.0000 0.0000 0.0000 -71.1053 0.0000
# 6 0.0000 0.0000 0.0000 0.0000 0.0000 -3.1244
#
#
#
# Elastic Compliance Matrix: (Units=1/GPa)
#
#
# Indices 1 2 3 4 5 6 
#
# 1 0.012264 0.003919 0.002365 0.000000 0.000000 0.000000
# 2 0.003919 0.018764 0.005664 0.000000 0.000000 0.000000
# 3 0.002365 0.005664 0.011657 0.000000 0.000000 0.000000
# 4 0.000000 0.000000 0.000000 0.285354 0.000000 0.000000
# 5 0.000000 0.000000 0.000000 0.000000 -0.014064 0.000000
# 6 0.000000 0.000000 0.000000 0.000000 0.000000 -0.320067
#
#
# Mechanical properties :
#
#
# Convention : Reuss Voigt Hill
#
# Bulk Modulus (GPa) = 15.01902 16.29491 15.65697
# Shear Modulus (GPa) = -641.56118 6.50030 -317.53044
#
# Velocity S-wave (km/s) = -16.99642 1.71082 -11.95725
# Velocity P-wave (km/s) = 19.45272 3.35257 13.54933
#
# Compressibility (1/GPa) = 0.06658225
#
# Stress axis : x y z
#
# Youngs Moduli (GPa) = 81.53658 53.29307 85.78753
#
# Poissons Ratio (x) = -0.20887 -0.20287
# Poissons Ratio (y) = -0.31957 -0.48593
# Poissons Ratio (z) = -0.19282 -0.30187
#
# Static dielectric constant tensor:
#      x y z
#    x 1.816000 0.000000 0.000000 
#    y 0.000000 1.857000 0.000000 
#    z 0.000000 0.000000 1.834490 
# 
# From -- ./inp_files/26811.got.cif
#   From: 2010.05.17/outbox.cif.g08.bks.cpg/sg67_14_cif.got.tgz:26811.got - 2010.06.03 18:28:57.
