data_PCOD9501970
_publ_section_title
;
Structure prediction by ZEFSAII (Michael W. Deem and Ramdas Pophale) SiO2 
 PCOD9501970
Probable space group: C M M A
;
_chemical_formula_sum "Si O2"
_cell_formula_units_Z 104
_cell_length_a 8.833478
_cell_length_b 30.648515
_cell_length_c 20.492013
_cell_angle_alpha 90.000000
_cell_angle_beta 90.000000
_cell_angle_gamma 90.000000
_cell_volume 5547.863807
_symmetry_space_group_name_H-M "C M M A"
_symmetry_group_IT_number 67
_symmetry_cell_setting 'orthorhombic'
loop_
_space_group_symop_operation_xyz
x,y,z
-x,1/2-y,z
x,-y,-z
-x,1/2+y,-z
-x,-y,-z
x,1/2+y,-z
-x,y,z
x,1/2-y,z
1/2+x,1/2+y,z
1/2-x,-y,z
1/2+x,1/2-y,-z
1/2-x,y,-z
1/2-x,1/2-y,-z
1/2+x,y,-z
1/2-x,1/2+y,z
1/2+x,-y,z
loop_
_atom_site_type_symbol
_atom_site_label
_atom_site_fract_x
_atom_site_fract_y
_atom_site_fract_z
Si Si1 0.831774 0.250000 0.066840
Si Si2 0.331615 0.675062 0.867318
Si Si3 0.676675 0.700259 0.716070
Si Si4 0.684734 0.892694 0.685274
Si Si5 0.183210 0.048285 0.429486
Si Si6 0.181725 0.953898 0.796201
Si Si7 0.821709 0.921610 0.072439
O O1 0.791647 0.207208 0.105856
O O2 0.000000 0.250000 0.048534
O O3 0.750000 0.250000 0.000000
O O4 0.500000 0.690830 0.886240
O O5 0.322494 0.681431 0.789852
O O6 0.313925 0.627723 0.898925
O O7 0.500000 0.704357 0.697790
O O8 0.740418 0.750000 0.712878
O O9 0.737314 0.657906 0.678169
O O10 0.500000 0.894079 0.686721
O O11 0.752844 0.920313 0.626142
O O12 0.746930 0.915740 0.751314
O O13 0.250000 0.061468 0.500000
O O14 0.000000 0.047170 0.430333
O O15 0.250000 0.000000 0.416889
O O16 0.233797 0.948081 0.871443
O O17 0.000000 0.953450 0.791257
O O18 0.250000 0.000000 0.772681
O O19 0.000000 0.933848 0.070116
O O20 0.750000 0.924543 0.000000
#
# Coordination Sequence:
#
# PCOD9501970 Si02
#       7
#     8  16  16  16  16  16  16
#     4  12  24  34  48  74 104 140 183 238 299 364
#     4  10  19  36  58  78 105 142 186 239 298 362
#     4   9  17  33  60  88 115 152 196 241 292 350
#     4  11  21  38  63  93 126 162 201 246 297 351
#     4  11  22  39  63  96 133 170 205 245 291 348
#     4  12  25  41  61  86 116 152 198 248 300 360
#     4  11  23  40  59  81 108 146 192 245 305 367
#
# _framework density 18.745953
#
# number of rings (size 3 to 8) (size 9 to 14) (size 15 to 20)
#    0.000    1.231    2.308    5.769    0.000    2.769 
#    0.000    1.538    0.000    0.462    0.000    0.000 
#    0.000    0.000    0.000    0.000    0.000    0.000 
#
# Total GULP energy -290056.108198 kJ/mol
# GULP energy per Si atom -5578.002081 kJ/mol
# Density = 1.870329 g / cm^3
# Si number density = 18.745953 Si / 1000 Ang^3
#
#
#
# Elastic Constant Matrix: (Units=GPa)
#
#
# Indices 1 2 3 4 5 6 
#
# 1 134.1277 43.9469 36.6460 0.0000 0.0000 0.0000
# 2 43.9469 114.9069 50.7858 0.0000 0.0000 0.0000
# 3 36.6460 50.7858 99.5907 0.0000 0.0000 0.0000
# 4 0.0000 0.0000 0.0000 25.7558 0.0000 0.0000
# 5 0.0000 0.0000 0.0000 0.0000 27.2684 0.0000
# 6 0.0000 0.0000 0.0000 0.0000 0.0000 42.0558
#
#
#
# Elastic Compliance Matrix: (Units=1/GPa)
#
#
# Indices 1 2 3 4 5 6 
#
# 1 0.008813 -0.002501 -0.001967 0.000000 0.000000 0.000000
# 2 -0.002501 0.011945 -0.005171 0.000000 0.000000 0.000000
# 3 -0.001967 -0.005171 0.013402 0.000000 0.000000 0.000000
# 4 0.000000 0.000000 0.000000 0.038826 0.000000 0.000000
# 5 0.000000 0.000000 0.000000 0.000000 0.036672 0.000000
# 6 0.000000 0.000000 0.000000 0.000000 0.000000 0.023778
#
#
# Mechanical properties :
#
#
# Convention : Reuss Voigt Hill
#
# Bulk Modulus (GPa) = 67.20094 67.93140 67.56617
# Shear Modulus (GPa) = 31.71100 33.49910 32.60505
#
# Velocity S-wave (km/s) = 4.11739 4.23188 4.17503
# Velocity P-wave (km/s) = 7.65049 7.75855 7.70471
#
# Compressibility (1/GPa) = 0.01488074
#
# Stress axis : x y z
#
# Youngs Moduli (GPa) = 113.47500 83.72033 74.61644
#
# Poissons Ratio (x) = 0.20937 0.14680
# Poissons Ratio (y) = 0.28379 0.38583
# Poissons Ratio (z) = 0.22325 0.43290
#
# Static dielectric constant tensor:
#      x y z
#    x 1.635180 0.000000 0.000000 
#    y 0.000000 1.681670 0.000000 
#    z 0.000000 0.000000 1.645250 
# 
# From -- ./inp_files/37553.got.cif
#   From: 2010.05.17/outbox.cif.g08.bks.cpg/sg67_19_cif.got.tgz:37553.got - 2010.06.03 18:28:57.
