data_PCOD9501793
_publ_section_title
;
Structure prediction by ZEFSAII (Michael W. Deem and Ramdas Pophale) SiO2 
 PCOD9501793
Probable space group: C M M A
;
_chemical_formula_sum "Si O2"
_cell_formula_units_Z 88
_cell_length_a 32.415821
_cell_length_b 25.565163
_cell_length_c 5.185401
_cell_angle_alpha 90.000000
_cell_angle_beta 90.000000
_cell_angle_gamma 90.000000
_cell_volume 4297.223467
_symmetry_space_group_name_H-M "C M M A"
_symmetry_group_IT_number 67
_symmetry_cell_setting 'orthorhombic'
loop_
_space_group_symop_operation_xyz
x,y,z
-x,1/2-y,z
x,-y,-z
-x,1/2+y,-z
-x,-y,-z
x,1/2+y,-z
-x,y,z
x,1/2-y,z
1/2+x,1/2+y,z
1/2-x,-y,z
1/2+x,1/2-y,-z
1/2-x,y,-z
1/2-x,1/2-y,-z
1/2+x,y,-z
1/2-x,1/2+y,z
1/2+x,-y,z
loop_
_atom_site_type_symbol
_atom_site_label
_atom_site_fract_x
_atom_site_fract_y
_atom_site_fract_z
Si Si1 0.318043 0.809869 0.436457
Si Si2 0.295703 0.875436 0.930365
Si Si3 0.648294 0.954973 0.649964
Si Si4 0.599373 0.141100 0.505694
Si Si5 0.078181 0.500000 0.000000
Si Si6 0.047949 0.615764 0.992387
O O1 0.304633 0.750000 0.417462
O O2 0.295822 0.839981 0.671498
O O3 0.367038 0.813222 0.500009
O O4 0.311083 0.840009 0.167571
O O5 0.325610 0.923741 0.862436
O O6 0.250000 0.893570 0.000000
O O7 0.628982 0.910011 0.470453
O O8 0.672753 0.000000 0.500000
O O9 0.609379 0.984303 0.773486
O O10 0.568671 0.142354 0.744651
O O11 0.573998 0.132822 0.243022
O O12 0.052556 0.447208 0.046797
O O13 0.000000 0.628558 0.021485
#
# Coordination Sequence:
#
# PCOD9501793 Si02
#       6
#    16  16  16  16   8  16
#     4  11  23  43  70  93 118 163 212 263 327 385
#     4  11  25  41  64  96 132 158 207 271 320 375
#     4  10  20  37  63  82 123 173 212 246 302 362
#     4  10  21  38  58  87 118 160 205 253 297 380
#     4  10  19  34  55  84 116 160 218 246 279 364
#     4  11  21  34  56  87 125 158 196 255 314 353
#
# _framework density 20.478338000000001
#
# number of rings (size 3 to 8) (size 9 to 14) (size 15 to 20)
#    0.000    1.455    1.818    5.182    2.545    2.182 
#    0.000    3.182    8.000    3.273    0.000    0.000 
#    0.000    0.000    0.000    0.000    0.000    0.000 
#
# Total GULP energy -245777.566068 kJ/mol
# GULP energy per Si atom -5585.853774 kJ/mol
# Density = 2.043173 g / cm^3
# Si number density = 20.478338 Si / 1000 Ang^3
#
#
#
# Elastic Constant Matrix: (Units=GPa)
#
#
# Indices 1 2 3 4 5 6 
#
# 1 103.9658 16.4915 30.4967 0.0000 0.0000 0.0000
# 2 16.4915 52.6719 35.5570 0.0000 0.0000 0.0000
# 3 30.4967 35.5570 131.2411 0.0000 0.0000 0.0000
# 4 0.0000 0.0000 0.0000 21.7544 0.0000 0.0000
# 5 0.0000 0.0000 0.0000 0.0000 29.7687 0.0000
# 6 0.0000 0.0000 0.0000 0.0000 0.0000 13.2684
#
#
#
# Elastic Compliance Matrix: (Units=1/GPa)
#
#
# Indices 1 2 3 4 5 6 
#
# 1 0.010493 -0.002006 -0.001895 0.000000 0.000000 0.000000
# 2 -0.002006 0.023619 -0.005933 0.000000 0.000000 0.000000
# 3 -0.001895 -0.005933 0.009667 0.000000 0.000000 0.000000
# 4 0.000000 0.000000 0.000000 0.045968 0.000000 0.000000
# 5 0.000000 0.000000 0.000000 0.000000 0.033592 0.000000
# 6 0.000000 0.000000 0.000000 0.000000 0.000000 0.075367
#
#
# Mechanical properties :
#
#
# Convention : Reuss Voigt Hill
#
# Bulk Modulus (GPa) = 41.47464 50.32990 45.90227
# Shear Modulus (GPa) = 22.08386 26.64720 24.36553
#
# Velocity S-wave (km/s) = 3.28746 3.61118 3.45312
# Velocity P-wave (km/s) = 5.89125 6.48213 6.19374
#
# Compressibility (1/GPa) = 0.02411112
#
# Stress axis : x y z
#
# Youngs Moduli (GPa) = 95.30584 42.33948 103.44273
#
# Poissons Ratio (x) = 0.08494 0.19599
# Poissons Ratio (y) = 0.19120 0.61370
# Poissons Ratio (z) = 0.18057 0.25119
#
# Static dielectric constant tensor:
#      x y z
#    x 1.719770 0.000000 0.000000 
#    y 0.000000 1.763920 0.000000 
#    z 0.000000 0.000000 1.752340 
# 
# From -- ./inp_files/4835.got.cif
#   From: 2010.05.17/outbox.cif.g08.bks.cpg/sg67_3_cif.got.tgz:4835.got - 2010.06.03 18:28:57.
