data_PCOD9501857
_publ_section_title
;
Structure prediction by ZEFSAII (Michael W. Deem and Ramdas Pophale) SiO2 
 PCOD9501857
Probable space group: C M M A
;
_chemical_formula_sum "Si O2"
_cell_formula_units_Z 88
_cell_length_a 21.825253
_cell_length_b 15.935681
_cell_length_c 12.059192
_cell_angle_alpha 90.000000
_cell_angle_beta 90.000000
_cell_angle_gamma 90.000000
_cell_volume 4194.190228
_symmetry_space_group_name_H-M "C M M A"
_symmetry_group_IT_number 67
_symmetry_cell_setting 'orthorhombic'
loop_
_space_group_symop_operation_xyz
x,y,z
-x,1/2-y,z
x,-y,-z
-x,1/2+y,-z
-x,-y,-z
x,1/2+y,-z
-x,y,z
x,1/2-y,z
1/2+x,1/2+y,z
1/2-x,-y,z
1/2+x,1/2-y,-z
1/2-x,y,-z
1/2-x,1/2-y,-z
1/2+x,y,-z
1/2-x,1/2+y,z
1/2+x,-y,z
loop_
_atom_site_type_symbol
_atom_site_label
_atom_site_fract_x
_atom_site_fract_y
_atom_site_fract_z
Si Si1 0.925693 0.841427 0.748116
Si Si2 0.101616 0.156718 0.711746
Si Si3 0.617647 0.007196 0.128272
Si Si4 0.930270 0.409681 0.480897
Si Si5 0.250000 0.500000 0.217272
Si Si6 0.756426 0.345169 0.631891
O O1 0.904314 0.750000 0.787223
O O2 0.904919 0.855956 0.620310
O O3 0.000000 0.840286 0.752992
O O4 0.902268 0.920541 0.815403
O O5 0.087743 0.250000 0.753124
O O6 0.089674 0.084766 0.801942
O O7 0.068153 0.137402 0.596662
O O8 0.172425 0.154275 0.670730
O O9 0.690745 0.019580 0.143675
O O10 0.601058 0.000000 0.000000
O O11 0.898674 0.500000 0.500000
O O12 0.000000 0.428299 0.445030
O O13 0.269163 0.578029 0.296096
O O14 0.733477 0.250000 0.653882
O O15 0.750000 0.360194 0.500000
#
# Coordination Sequence:
#
# PCOD9501857 Si02
#       6
#    16  16  16  16   8  16
#     4  10  22  40  63  92 122 154 197 246 300 363
#     4  10  21  36  56  83 117 150 188 238 293 353
#     4  11  24  41  61  83 116 160 210 255 296 344
#     4  10  19  34  59  90 121 151 184 232 297 364
#     4  10  22  38  58  82 114 157 203 246 294 350
#     4   9  19  33  52  82 115 145 182 231 291 358
#
# _framework density 20.981404999999999
#
# number of rings (size 3 to 8) (size 9 to 14) (size 15 to 20)
#    0.000    2.000    1.818    1.091    2.545    2.909 
#    0.000    0.000    0.000    5.455    0.000    0.000 
#    0.000    0.000    0.000    0.000    0.000    0.000 
#
# Total GULP energy -245613.998708 kJ/mol
# GULP energy per Si atom -5582.136334 kJ/mol
# Density = 2.093365 g / cm^3
# Si number density = 20.981405 Si / 1000 Ang^3
#
#
#
# Elastic Constant Matrix: (Units=GPa)
#
#
# Indices 1 2 3 4 5 6 
#
# 1 30.1424 9.4625 2.4199 0.0000 0.0000 0.0000
# 2 9.4625 181.4027 81.3571 0.0000 0.0000 0.0000
# 3 2.4199 81.3571 145.2260 0.0000 0.0000 0.0000
# 4 0.0000 0.0000 0.0000 -5.3575 0.0000 0.0000
# 5 0.0000 0.0000 0.0000 0.0000 13.5441 0.0000
# 6 0.0000 0.0000 0.0000 0.0000 0.0000 5.9914
#
#
#
# Elastic Compliance Matrix: (Units=1/GPa)
#
#
# Indices 1 2 3 4 5 6 
#
# 1 0.033763 -0.002015 0.000566 0.000000 0.000000 0.000000
# 2 -0.002015 0.007483 -0.004158 0.000000 0.000000 0.000000
# 3 0.000566 -0.004158 0.009206 0.000000 0.000000 0.000000
# 4 0.000000 0.000000 0.000000 -0.186655 0.000000 0.000000
# 5 0.000000 0.000000 0.000000 0.000000 0.073833 0.000000
# 6 0.000000 0.000000 0.000000 0.000000 0.000000 0.166907
#
#
# Mechanical properties :
#
#
# Convention : Reuss Voigt Hill
#
# Bulk Modulus (GPa) = 25.48597 60.36114 42.92355
# Shear Modulus (GPa) = 38.81083 20.40436 29.60760
#
# Velocity S-wave (km/s) = 4.30556 3.12187 3.76058
# Velocity P-wave (km/s) = 6.07375 6.46731 6.27362
#
# Compressibility (1/GPa) = 0.03923728
#
# Stress axis : x y z
#
# Youngs Moduli (GPa) = 29.61823 133.64236 108.62601
#
# Poissons Ratio (x) = 0.26931 -0.06152
# Poissons Ratio (y) = 0.05969 0.45170
# Poissons Ratio (z) = -0.01677 0.55572
#
# Static dielectric constant tensor:
#      x y z
#    x 1.838270 0.000000 0.000000 
#    y 0.000000 1.773800 0.000000 
#    z 0.000000 0.000000 1.707940 
# 
# From -- ./inp_files/18124.got.cif
#   From: 2010.05.17/outbox.cif.g08.bks.cpg/sg67_10_cif.got.tgz:18124.got - 2010.06.03 18:28:57.
