data_PCOD9501408
_publ_section_title
;
Structure prediction by ZEFSAII (Michael W. Deem and Ramdas Pophale) SiO2 
 PCOD9501408
Probable space group: C M M A
;
_chemical_formula_sum "Si O2"
_cell_formula_units_Z 96
_cell_length_a 18.709065
_cell_length_b 8.333047
_cell_length_c 31.902302
_cell_angle_alpha 90.000000
_cell_angle_beta 90.000000
_cell_angle_gamma 90.000000
_cell_volume 4973.681113
_symmetry_space_group_name_H-M "C M M A"
_symmetry_group_IT_number 67
_symmetry_cell_setting 'orthorhombic'
loop_
_space_group_symop_operation_xyz
x,y,z
-x,1/2-y,z
x,-y,-z
-x,1/2+y,-z
-x,-y,-z
x,1/2+y,-z
-x,y,z
x,1/2-y,z
1/2+x,1/2+y,z
1/2-x,-y,z
1/2+x,1/2-y,-z
1/2-x,y,-z
1/2-x,1/2-y,-z
1/2+x,y,-z
1/2-x,1/2+y,z
1/2+x,-y,z
loop_
_atom_site_type_symbol
_atom_site_label
_atom_site_fract_x
_atom_site_fract_y
_atom_site_fract_z
Si Si1 0.168504 0.443995 0.709531
Si Si2 0.917779 0.446194 0.627236
Si Si3 0.582447 0.446153 0.207905
Si Si4 0.168626 0.942149 0.454212
Si Si5 0.168876 0.558133 0.125979
Si Si6 0.417788 0.441934 0.953984
O O1 0.167958 0.250000 0.709484
O O2 0.250000 0.500000 0.710372
O O3 0.128024 0.498323 0.667436
O O4 0.125477 0.497707 0.750799
O O5 0.917688 0.250000 0.627307
O O6 0.880516 0.498563 0.584091
O O7 0.000000 0.497752 0.630121
O O8 0.500000 0.498130 0.208699
O O9 0.582156 0.250000 0.207878
O O10 0.622854 0.499886 0.165892
O O11 0.169013 0.750000 0.454362
O O12 0.144377 0.000000 0.500000
O O13 0.250000 0.000000 0.448057
O O14 0.168672 0.750000 0.126911
O O15 0.250000 0.500000 0.128867
O O16 0.131932 0.502836 0.083128
O O17 0.500000 0.498619 0.947562
O O18 0.417844 0.250000 0.953720
O O19 0.394757 0.500000 0.000000
#
# Coordination Sequence:
#
# PCOD9501408 Si02
#       6
#    16  16  16  16  16  16
#     4  10  19  33  55  79 105 136 171 213 258 308
#     4   9  18  32  51  75 101 132 172 214 255 303
#     4   9  18  33  55  81 106 137 178 219 260 310
#     4  10  19  32  51  73  99 131 168 211 257 308
#     4  11  22  36  55  80 112 146 182 223 266 316
#     4  10  21  38  60  85 112 143 181 224 271 322
#
# _framework density 19.301597999999998
#
# number of rings (size 3 to 8) (size 9 to 14) (size 15 to 20)
#    0.000    2.167    0.000    4.000    0.000    4.333 
#    0.000    3.333    0.000    7.500    0.000    0.000 
#    0.000    0.000    0.000    0.000    0.000    0.000 
#
# Total GULP energy -268115.651780 kJ/mol
# GULP energy per Si atom -5585.742745 kJ/mol
# Density = 1.925767 g / cm^3
# Si number density = 19.301598 Si / 1000 Ang^3
#
#
#
# Elastic Constant Matrix: (Units=GPa)
#
#
# Indices 1 2 3 4 5 6 
#
# 1 186.4752 19.3387 145.5726 0.0000 0.0000 0.0000
# 2 19.3387 25.6588 26.4308 0.0000 0.0000 0.0000
# 3 145.5726 26.4308 219.0527 0.0000 0.0000 0.0000
# 4 0.0000 0.0000 0.0000 20.0402 0.0000 0.0000
# 5 0.0000 0.0000 0.0000 0.0000 43.1481 0.0000
# 6 0.0000 0.0000 0.0000 0.0000 0.0000 21.9644
#
#
#
# Elastic Compliance Matrix: (Units=1/GPa)
#
#
# Indices 1 2 3 4 5 6 
#
# 1 0.011161 -0.000881 -0.007311 0.000000 0.000000 0.000000
# 2 -0.000881 0.044574 -0.004793 0.000000 0.000000 0.000000
# 3 -0.007311 -0.004793 0.010002 0.000000 0.000000 0.000000
# 4 0.000000 0.000000 0.000000 0.049900 0.000000 0.000000
# 5 0.000000 0.000000 0.000000 0.000000 0.023176 0.000000
# 6 0.000000 0.000000 0.000000 0.000000 0.000000 0.045528
#
#
# Mechanical properties :
#
#
# Convention : Reuss Voigt Hill
#
# Bulk Modulus (GPa) = 25.14609 90.43008 57.78809
# Shear Modulus (GPa) = 22.36464 33.02017 27.69241
#
# Velocity S-wave (km/s) = 3.40765 4.14061 3.79188
# Velocity P-wave (km/s) = 5.34220 8.35537 7.01254
#
# Compressibility (1/GPa) = 0.03976761
#
# Stress axis : x y z
#
# Youngs Moduli (GPa) = 89.59409 22.43458 99.97994
#
# Poissons Ratio (x) = 0.01977 0.73096
# Poissons Ratio (y) = 0.07895 0.47917
# Poissons Ratio (z) = 0.65503 0.10752
#
# Static dielectric constant tensor:
#      x y z
#    x 1.642340 0.000000 0.000000 
#    y 0.000000 1.678860 0.000000 
#    z 0.000000 0.000000 1.657690 
# 
# From -- ./inp_files/44627.got.cif
#   From: 2010.05.17/outbox.cif.g08.bks.cpg/sg67_23_cif.got.tgz:44627.got - 2010.06.03 18:28:57.
