data_PCOD9501456
_publ_section_title
;
Structure prediction by ZEFSAII (Michael W. Deem and Ramdas Pophale) SiO2 
 PCOD9501456
Probable space group: C M M A
;
_chemical_formula_sum "Si O2"
_cell_formula_units_Z 116
_cell_length_a 17.873883
_cell_length_b 15.256603
_cell_length_c 22.517349
_cell_angle_alpha 90.000000
_cell_angle_beta 90.000000
_cell_angle_gamma 90.000000
_cell_volume 6140.362563
_symmetry_space_group_name_H-M "C M M A"
_symmetry_group_IT_number 67
_symmetry_cell_setting 'orthorhombic'
loop_
_space_group_symop_operation_xyz
x,y,z
-x,1/2-y,z
x,-y,-z
-x,1/2+y,-z
-x,-y,-z
x,1/2+y,-z
-x,y,z
x,1/2-y,z
1/2+x,1/2+y,z
1/2-x,-y,z
1/2+x,1/2-y,-z
1/2-x,y,-z
1/2-x,1/2-y,-z
1/2+x,y,-z
1/2-x,1/2+y,z
1/2+x,-y,z
loop_
_atom_site_type_symbol
_atom_site_label
_atom_site_fract_x
_atom_site_fract_y
_atom_site_fract_z
Si Si1 0.000000 0.250000 0.025941
Si Si2 0.192542 0.848196 0.552857
Si Si3 0.623309 0.597062 0.009674
Si Si4 0.792353 0.094428 0.657281
Si Si5 0.256814 0.350063 0.085159
Si Si6 0.740315 0.603934 0.217771
Si Si7 0.585549 0.520895 0.389957
Si Si8 0.583723 0.851982 0.274875
O O1 0.935186 0.327589 0.024246
O O2 0.161202 0.750000 0.544570
O O3 0.250000 0.867807 0.500000
O O4 0.242970 0.849958 0.612285
O O5 0.131405 0.923929 0.561202
O O6 0.669430 0.622644 0.950321
O O7 0.687052 0.406259 0.938987
O O8 0.591550 0.500000 0.000000
O O9 0.788158 0.130519 0.723918
O O10 0.750000 0.000000 0.660102
O O11 0.871565 0.067544 0.629363
O O12 0.239250 0.250000 0.069117
O O13 0.264067 0.356070 0.155629
O O14 0.750000 0.500000 0.211269
O O15 0.653864 0.626364 0.233090
O O16 0.500000 0.506004 0.406586
O O17 0.587356 0.584500 0.331753
O O18 0.500000 0.862662 0.248108
O O19 0.590194 0.750000 0.293280
#
# Coordination Sequence:
#
# PCOD9501456 Si02
#       8
#     4  16  16  16  16  16  16  16
#     4  12  22  42  68  86 140 154 206 256 318 388
#     4  10  20  34  54  81 111 144 185 236 288 347
#     4  11  22  42  65  92 120 166 204 258 315 362
#     4   9  18  34  52  78 111 146 192 231 277 344
#     4  11  21  39  63  87 121 156 214 259 291 362
#     4  11  19  34  56  84 116 157 196 235 291 362
#     4  10  19  34  57  79 111 145 185 237 289 343
#     4  10  19  32  51  82 116 144 178 234 296 345
#
# _framework density 18.891392
#
# number of rings (size 3 to 8) (size 9 to 14) (size 15 to 20)
#    0.000    1.655    5.517    3.103    0.000    3.862 
#    1.241    1.379    3.034    1.241    0.000    0.000 
#    0.000    0.000    0.000    0.000    0.000    0.000 
#
# Total GULP energy -323058.240981 kJ/mol
# GULP energy per Si atom -5569.969672 kJ/mol
# Density = 1.884839 g / cm^3
# Si number density = 18.891392 Si / 1000 Ang^3
#
#
#
# Elastic Constant Matrix: (Units=GPa)
#
#
# Indices 1 2 3 4 5 6 
#
# 1 114.4458 15.6199 16.3222 0.0000 0.0000 0.0000
# 2 15.6199 58.2950 -9.3573 0.0000 0.0000 0.0000
# 3 16.3222 -9.3573 78.6303 0.0000 0.0000 0.0000
# 4 0.0000 0.0000 0.0000 -10.3305 0.0000 0.0000
# 5 0.0000 0.0000 0.0000 0.0000 -100.9020 0.0000
# 6 0.0000 0.0000 0.0000 0.0000 0.0000 18.7738
#
#
#
# Elastic Compliance Matrix: (Units=1/GPa)
#
#
# Indices 1 2 3 4 5 6 
#
# 1 0.009464 -0.002907 -0.002310 0.000000 0.000000 0.000000
# 2 -0.002907 0.018381 0.002791 0.000000 0.000000 0.000000
# 3 -0.002310 0.002791 0.013529 0.000000 0.000000 0.000000
# 4 0.000000 0.000000 0.000000 -0.096801 0.000000 0.000000
# 5 0.000000 0.000000 0.000000 0.000000 -0.009911 0.000000
# 6 0.000000 0.000000 0.000000 0.000000 0.000000 0.053266
#
#
# Mechanical properties :
#
#
# Convention : Reuss Voigt Hill
#
# Bulk Modulus (GPa) = 27.38106 32.94897 30.16502
# Shear Modulus (GPa) = 1009.04613 -3.23932 502.90340
#
# Velocity S-wave (km/s) = 23.13633 -1.31089 16.33357
# Velocity P-wave (km/s) = 26.98601 3.89716 19.27995
#
# Compressibility (1/GPa) = 0.03652159
#
# Stress axis : x y z
#
# Youngs Moduli (GPa) = 105.66365 54.40425 73.91277
#
# Poissons Ratio (x) = 0.15814 0.17077
# Poissons Ratio (y) = 0.30713 -0.20627
# Poissons Ratio (z) = 0.24413 -0.15183
#
# Static dielectric constant tensor:
#      x y z
#    x 1.667640 0.000000 0.000000 
#    y 0.000000 1.669480 0.000000 
#    z 0.000000 0.000000 1.676400 
# 
# From -- ./inp_files/44540.got.cif
#   From: 2010.05.17/outbox.cif.g08.bks.cpg/sg67_23_cif.got.tgz:44540.got - 2010.06.03 18:28:57.
