data_PCOD9501359
_publ_section_title
;
Structure prediction by ZEFSAII (Michael W. Deem and Ramdas Pophale) SiO2 
 PCOD9501359
Probable space group: C M M A
;
_chemical_formula_sum "Si O2"
_cell_formula_units_Z 72
_cell_length_a 16.519351
_cell_length_b 7.646008
_cell_length_c 26.562141
_cell_angle_alpha 90.000000
_cell_angle_beta 90.000000
_cell_angle_gamma 90.000000
_cell_volume 3354.986731
_symmetry_space_group_name_H-M "C M M A"
_symmetry_group_IT_number 67
_symmetry_cell_setting 'orthorhombic'
loop_
_space_group_symop_operation_xyz
x,y,z
-x,1/2-y,z
x,-y,-z
-x,1/2+y,-z
-x,-y,-z
x,1/2+y,-z
-x,y,z
x,1/2-y,z
1/2+x,1/2+y,z
1/2-x,-y,z
1/2+x,1/2-y,-z
1/2-x,y,-z
1/2-x,1/2-y,-z
1/2+x,y,-z
1/2-x,1/2+y,z
1/2+x,-y,z
loop_
_atom_site_type_symbol
_atom_site_label
_atom_site_fract_x
_atom_site_fract_y
_atom_site_fract_z
Si Si1 0.655377 0.455952 0.054710
Si Si2 0.500000 0.960120 0.558892
Si Si3 0.845368 0.539228 0.377647
Si Si4 0.595591 0.451383 0.159708
Si Si5 0.155559 0.459564 0.734758
O O1 0.643642 0.250000 0.058920
O O2 0.750000 0.500000 0.052176
O O3 0.625192 0.534824 0.107469
O O4 0.618764 0.500000 0.000000
O O5 0.500000 0.750000 0.564854
O O6 0.416192 0.023845 0.584928
O O7 0.500000 0.000000 0.500000
O O8 0.849009 0.750000 0.377059
O O9 0.750000 0.500000 0.388624
O O10 0.866767 0.474965 0.321002
O O11 0.500000 0.442419 0.156192
O O12 0.628223 0.250000 0.161457
O O13 0.617012 0.530883 0.213904
O O14 0.140342 0.250000 0.733624
O O15 0.250000 0.500000 0.739341
#
# Coordination Sequence:
#
# PCOD9501359 Si02
#       5
#    16   8  16  16  16
#     4  10  19  32  50  69  91 123 162 203 244 293
#     4  10  22  38  56  82 112 146 185 222 264 314
#     4   9  19  35  56  82 110 142 181 223 268 318
#     4   9  18  30  47  73  99 125 160 201 247 298
#     4   9  17  31  53  76 100 130 164 207 253 300
#
# _framework density 21.460591999999998
#
# number of rings (size 3 to 8) (size 9 to 14) (size 15 to 20)
#    0.000    2.667    0.000    2.000    1.556    1.778 
#    0.000    3.333    0.000    5.333    0.000    0.000 
#    0.000    0.000    0.000    0.000    0.000    0.000 
#
# Total GULP energy -200491.988925 kJ/mol
# GULP energy per Si atom -5569.221915 kJ/mol
# Density = 2.141175 g / cm^3
# Si number density = 21.460592 Si / 1000 Ang^3
#
#
#
# Elastic Constant Matrix: (Units=GPa)
#
#
# Indices 1 2 3 4 5 6 
#
# 1 82.6101 -1.3733 112.9916 0.0000 0.0000 0.0000
# 2 -1.3733 46.0224 9.9499 0.0000 0.0000 0.0000
# 3 112.9916 9.9499 242.1174 0.0000 0.0000 0.0000
# 4 0.0000 0.0000 0.0000 10.7985 0.0000 0.0000
# 5 0.0000 0.0000 0.0000 0.0000 314.0870 0.0000
# 6 0.0000 0.0000 0.0000 0.0000 0.0000 13.9000
#
#
#
# Elastic Compliance Matrix: (Units=1/GPa)
#
#
# Indices 1 2 3 4 5 6 
#
# 1 0.034382 0.004535 -0.016232 0.000000 0.000000 0.000000
# 2 0.004535 0.022522 -0.003042 0.000000 0.000000 0.000000
# 3 -0.016232 -0.003042 0.011830 0.000000 0.000000 0.000000
# 4 0.000000 0.000000 0.000000 0.092606 0.000000 0.000000
# 5 0.000000 0.000000 0.000000 0.000000 0.003184 0.000000
# 6 0.000000 0.000000 0.000000 0.000000 0.000000 0.071943
#
#
# Mechanical properties :
#
#
# Convention : Reuss Voigt Hill
#
# Bulk Modulus (GPa) = 25.47354 68.20961 46.84157
# Shear Modulus (GPa) = 17.91935 84.36920 51.14428
#
# Velocity S-wave (km/s) = 2.89275 6.27685 4.88707
# Velocity P-wave (km/s) = 4.80136 9.18610 7.32931
#
# Compressibility (1/GPa) = 0.03925643
#
# Stress axis : x y z
#
# Youngs Moduli (GPa) = 29.08537 44.40195 84.52928
#
# Poissons Ratio (x) = -0.20137 1.37205
# Poissons Ratio (y) = -0.13191 0.25714
# Poissons Ratio (z) = 0.47210 0.13507
#
# Static dielectric constant tensor:
#      x y z
#    x 1.729190 0.000000 0.000000 
#    y 0.000000 1.853460 0.000000 
#    z 0.000000 0.000000 1.852030 
# 
# From -- ./inp_files/40482.got.cif
#   From: 2010.05.17/outbox.cif.g08.bks.cpg/sg67_21_cif.got.tgz:40482.got - 2010.06.03 18:28:57.
