data_PCOD9501649
_publ_section_title
;
Structure prediction by ZEFSAII (Michael W. Deem and Ramdas Pophale) SiO2 
 PCOD9501649
Probable space group: C M M A
;
_chemical_formula_sum "Si O2"
_cell_formula_units_Z 80
_cell_length_a 8.988597
_cell_length_b 27.658065
_cell_length_c 18.904523
_cell_angle_alpha 90.000000
_cell_angle_beta 90.000000
_cell_angle_gamma 90.000000
_cell_volume 4699.800532
_symmetry_space_group_name_H-M "C M M A"
_symmetry_group_IT_number 67
_symmetry_cell_setting 'orthorhombic'
loop_
_space_group_symop_operation_xyz
x,y,z
-x,1/2-y,z
x,-y,-z
-x,1/2+y,-z
-x,-y,-z
x,1/2+y,-z
-x,y,z
x,1/2-y,z
1/2+x,1/2+y,z
1/2-x,-y,z
1/2+x,1/2-y,-z
1/2-x,y,-z
1/2-x,1/2-y,-z
1/2+x,y,-z
1/2-x,1/2+y,z
1/2+x,-y,z
loop_
_atom_site_type_symbol
_atom_site_label
_atom_site_fract_x
_atom_site_fract_y
_atom_site_fract_z
Si Si1 0.176049 0.307839 0.425411
Si Si2 0.321886 0.051762 0.779725
Si Si3 0.677638 0.644293 0.710932
Si Si4 0.823216 0.102382 0.072484
Si Si5 0.678006 0.805371 0.859769
O O1 0.196586 0.250000 0.417239
O O2 0.250000 0.321833 0.500000
O O3 0.253066 0.334006 0.359796
O O4 0.000000 0.317709 0.426630
O O5 0.500000 0.050454 0.771409
O O6 0.251494 0.093254 0.730830
O O7 0.288361 0.068448 0.860409
O O8 0.250000 0.000000 0.765847
O O9 0.500000 0.639385 0.704411
O O10 0.707198 0.679412 0.778245
O O11 0.759776 0.155308 0.092178
O O12 0.000000 0.104938 0.064684
O O13 0.750000 0.085235 0.000000
O O14 0.500000 0.809313 0.870894
O O15 0.722964 0.750000 0.872394
#
# Coordination Sequence:
#
# PCOD9501649 Si02
#       5
#    16  16  16  16  16
#     4  10  20  33  51  78 112 147 180 213 250 295
#     4  10  21  37  56  78 101 129 168 212 260 310
#     4  10  19  33  54  78 105 136 171 213 258 304
#     4  10  21  35  51  72  99 130 166 209 256 307
#     4   9  18  32  50  72  99 133 171 208 249 300
#
# _framework density 17.021998
#
# number of rings (size 3 to 8) (size 9 to 14) (size 15 to 20)
#    0.000    2.200    0.000    3.000    0.000    6.400 
#    0.000    2.000    0.000    0.600    0.000    4.200 
#    0.000    0.000    0.000    0.000    0.000    0.000 
#
# Total GULP energy -223346.968713 kJ/mol
# GULP energy per Si atom -5583.674218 kJ/mol
# Density = 1.698326 g / cm^3
# Si number density = 17.021998 Si / 1000 Ang^3
#
#
#
# Elastic Constant Matrix: (Units=GPa)
#
#
# Indices 1 2 3 4 5 6 
#
# 1 65.8865 29.3707 48.5485 0.0000 0.0000 0.0000
# 2 29.3707 48.9121 4.6974 0.0000 0.0000 0.0000
# 3 48.5485 4.6974 91.9080 0.0000 0.0000 0.0000
# 4 0.0000 0.0000 0.0000 8.0736 0.0000 0.0000
# 5 0.0000 0.0000 0.0000 0.0000 33.9146 0.0000
# 6 0.0000 0.0000 0.0000 0.0000 0.0000 27.9656
#
#
#
# Elastic Compliance Matrix: (Units=1/GPa)
#
#
# Indices 1 2 3 4 5 6 
#
# 1 0.039391 -0.021762 -0.019695 0.000000 0.000000 0.000000
# 2 -0.021762 0.032569 0.009831 0.000000 0.000000 0.000000
# 3 -0.019695 0.009831 0.020782 0.000000 0.000000 0.000000
# 4 0.000000 0.000000 0.000000 0.123861 0.000000 0.000000
# 5 0.000000 0.000000 0.000000 0.000000 0.029486 0.000000
# 6 0.000000 0.000000 0.000000 0.000000 0.000000 0.035758
#
#
# Mechanical properties :
#
#
# Convention : Reuss Voigt Hill
#
# Bulk Modulus (GPa) = 33.91207 41.32666 37.61937
# Shear Modulus (GPa) = 14.08731 22.26340 18.17536
#
# Velocity S-wave (km/s) = 2.87992 3.62044 3.27120
# Velocity P-wave (km/s) = 5.56995 6.46590 6.03457
#
# Compressibility (1/GPa) = 0.02948802
#
# Stress axis : x y z
#
# Youngs Moduli (GPa) = 25.38629 30.70451 48.11929
#
# Poissons Ratio (x) = 0.66820 0.94773
# Poissons Ratio (y) = 0.55246 -0.47305
# Poissons Ratio (z) = 0.49999 -0.30185
#
# Static dielectric constant tensor:
#      x y z
#    x 1.561480 0.000000 0.000000 
#    y 0.000000 1.549060 0.000000 
#    z 0.000000 0.000000 1.558270 
# 
# From -- ./inp_files/32106.got.cif
#   From: 2010.05.17/outbox.cif.g08.bks.cpg/sg67_17_cif.got.tgz:32106.got - 2010.06.03 18:28:57.
