data_PCOD9501424
_publ_section_title
;
Structure prediction by ZEFSAII (Michael W. Deem and Ramdas Pophale) SiO2 
 PCOD9501424
Probable space group: C M M A
;
_chemical_formula_sum "Si O2"
_cell_formula_units_Z 80
_cell_length_a 26.771448
_cell_length_b 14.622823
_cell_length_c 9.680262
_cell_angle_alpha 90.000000
_cell_angle_beta 90.000000
_cell_angle_gamma 90.000000
_cell_volume 3789.572295
_symmetry_space_group_name_H-M "C M M A"
_symmetry_group_IT_number 67
_symmetry_cell_setting 'orthorhombic'
loop_
_space_group_symop_operation_xyz
x,y,z
-x,1/2-y,z
x,-y,-z
-x,1/2+y,-z
-x,-y,-z
x,1/2+y,-z
-x,y,z
x,1/2-y,z
1/2+x,1/2+y,z
1/2-x,-y,z
1/2+x,1/2-y,-z
1/2-x,y,-z
1/2-x,1/2-y,-z
1/2+x,y,-z
1/2-x,1/2+y,z
1/2+x,-y,z
loop_
_atom_site_type_symbol
_atom_site_label
_atom_site_fract_x
_atom_site_fract_y
_atom_site_fract_z
Si Si1 0.000000 0.361633 0.610904
Si Si2 0.796612 0.138793 0.410241
Si Si3 0.090675 0.638267 0.584474
Si Si4 0.094584 0.143441 0.103526
Si Si5 0.295888 0.138494 0.908951
Si Si6 0.000000 0.097950 0.930210
O O1 0.048631 0.390416 0.523475
O O2 0.000000 0.398431 0.766087
O O3 0.000000 0.250000 0.621042
O O4 0.796521 0.250000 0.415432
O O5 0.750000 0.106734 0.500000
O O6 0.852652 0.111295 0.453745
O O7 0.789528 0.113007 0.250872
O O8 0.088536 0.750000 0.583792
O O9 0.081057 0.606208 0.743239
O O10 0.103692 0.250000 0.131272
O O11 0.148083 0.107587 0.051271
O O12 0.050533 0.139304 0.993704
O O13 0.294574 0.250000 0.917054
O O14 0.250000 0.105201 0.000000
O O15 0.000000 0.000000 0.000000
#
# Coordination Sequence:
#
# PCOD9501424 Si02
#       6
#     8  16  16  16  16   8
#     4  10  19  32  51  74  95 118 159 208 250 290
#     4   8  13  21  35  61  98 127 143 176 234 283
#     4   8  15  28  48  72  94 121 159 197 234 287
#     4   9  17  33  54  71  95 133 167 196 242 298
#     4   8  14  24  42  71  99 123 156 193 230 282
#     4  12  25  36  46  68 100 128 163 210 252 294
#
# _framework density 21.110562000000002
#
# number of rings (size 3 to 8) (size 9 to 14) (size 15 to 20)
#    0.000    3.200    0.000    3.900    0.000    3.200 
#    0.000    8.000    0.000    0.600    0.000    0.000 
#    0.000    1.600    0.000    0.000    0.000    0.000 
#
# Total GULP energy -223017.568434 kJ/mol
# GULP energy per Si atom -5575.439211 kJ/mol
# Density = 2.106251 g / cm^3
# Si number density = 21.110562 Si / 1000 Ang^3
#
#
#
# Elastic Constant Matrix: (Units=GPa)
#
#
# Indices 1 2 3 4 5 6 
#
# 1 240.3841 4.2137 152.4249 0.0000 0.0000 0.0000
# 2 4.2137 47.4125 11.3624 0.0000 0.0000 0.0000
# 3 152.4249 11.3624 142.7329 0.0000 0.0000 0.0000
# 4 0.0000 0.0000 0.0000 1.1001 0.0000 0.0000
# 5 0.0000 0.0000 0.0000 0.0000 37.6318 0.0000
# 6 0.0000 0.0000 0.0000 0.0000 0.0000 -73.8748
#
#
#
# Elastic Compliance Matrix: (Units=1/GPa)
#
#
# Indices 1 2 3 4 5 6 
#
# 1 0.013113 0.002233 -0.014181 0.000000 0.000000 0.000000
# 2 0.002233 0.021882 -0.004127 0.000000 0.000000 0.000000
# 3 -0.014181 -0.004127 0.022479 0.000000 0.000000 0.000000
# 4 0.000000 0.000000 0.000000 0.909033 0.000000 0.000000
# 5 0.000000 0.000000 0.000000 0.000000 0.026573 0.000000
# 6 0.000000 0.000000 0.000000 0.000000 0.000000 -0.013536
#
#
# Mechanical properties :
#
#
# Convention : Reuss Voigt Hill
#
# Bulk Modulus (GPa) = 39.48792 85.17018 62.32905
# Shear Modulus (GPa) = 4.90131 10.47332 7.68731
#
# Velocity S-wave (km/s) = 1.52538 2.22979 1.91033
# Velocity P-wave (km/s) = 4.67421 6.86015 5.86983
#
# Compressibility (1/GPa) = 0.02532420
#
# Stress axis : x y z
#
# Youngs Moduli (GPa) = 76.26029 45.69970 44.48654
#
# Poissons Ratio (x) = -0.10205 0.63087
# Poissons Ratio (y) = -0.17030 0.18358
# Poissons Ratio (z) = 1.08146 0.18859
#
# Static dielectric constant tensor:
#      x y z
#    x 1.184180 0.000000 0.000000 
#    y 0.000000 1.939080 0.000000 
#    z 0.000000 0.000000 1.722960 
# 
# From -- ./inp_files/10045.got.cif
#   From: 2010.05.17/outbox.cif.g08.bks.cpg/sg67_6_cif.got.tgz:10045.got - 2010.06.03 18:28:57.
