data_PCOD9501811
_publ_section_title
;
Structure prediction by ZEFSAII (Michael W. Deem and Ramdas Pophale) SiO2 
 PCOD9501811
Probable space group: C M M A
;
_chemical_formula_sum "Si O2"
_cell_formula_units_Z 80
_cell_length_a 18.065931
_cell_length_b 26.569483
_cell_length_c 9.315071
_cell_angle_alpha 90.000000
_cell_angle_beta 90.000000
_cell_angle_gamma 90.000000
_cell_volume 4471.256870
_symmetry_space_group_name_H-M "C M M A"
_symmetry_group_IT_number 67
_symmetry_cell_setting 'orthorhombic'
loop_
_space_group_symop_operation_xyz
x,y,z
-x,1/2-y,z
x,-y,-z
-x,1/2+y,-z
-x,-y,-z
x,1/2+y,-z
-x,y,z
x,1/2-y,z
1/2+x,1/2+y,z
1/2-x,-y,z
1/2+x,1/2-y,-z
1/2-x,y,-z
1/2-x,1/2-y,-z
1/2+x,y,-z
1/2-x,1/2+y,z
1/2+x,-y,z
loop_
_atom_site_type_symbol
_atom_site_label
_atom_site_fract_x
_atom_site_fract_y
_atom_site_fract_z
Si Si1 0.733487 0.942885 0.170677
Si Si2 0.915566 0.807974 0.505080
Si Si3 0.314971 0.193074 0.889004
Si Si4 0.216302 0.351795 0.654560
Si Si5 0.085109 0.383641 0.221716
O O1 0.784850 0.902351 0.251802
O O2 0.649193 0.926141 0.212535
O O3 0.750000 0.000000 0.214166
O O4 0.750000 0.939283 0.000000
O O5 0.899828 0.750000 0.553815
O O6 0.859675 0.824125 0.380485
O O7 0.912027 0.849900 0.632169
O O8 0.000000 0.808307 0.454285
O O9 0.338095 0.250000 0.909348
O O10 0.273020 0.184654 0.737750
O O11 0.384154 0.155958 0.895753
O O12 0.250000 0.180695 0.000000
O O13 0.250000 0.364696 0.500000
O O14 0.000000 0.399683 0.201171
#
# Coordination Sequence:
#
# PCOD9501811 Si02
#       5
#    16  16  16  16  16
#     4  10  22  42  61  80 108 142 183 231 285 341
#     4  10  20  33  51  82 121 153 180 219 272 323
#     4  10  20  33  51  80 116 152 190 224 263 323
#     4  11  19  33  56  82 106 141 189 229 268 322
#     4  10  19  34  56  83 110 142 185 227 274 331
#
# _framework density 17.892061000000002
#
# number of rings (size 3 to 8) (size 9 to 14) (size 15 to 20)
#    0.000    1.800    4.000    3.600    0.000    2.400 
#    0.000    7.000    0.000    3.600    0.000    0.000 
#    0.000    0.000    0.000    0.000    0.000    0.000 
#
# Total GULP energy -222720.097010 kJ/mol
# GULP energy per Si atom -5568.002425 kJ/mol
# Density = 1.785134 g / cm^3
# Si number density = 17.892061 Si / 1000 Ang^3
#
#
#
# Elastic Constant Matrix: (Units=GPa)
#
#
# Indices 1 2 3 4 5 6 
#
# 1 143.3058 56.2796 25.1014 0.0000 0.0000 0.0000
# 2 56.2796 110.3786 5.9814 0.0000 0.0000 0.0000
# 3 25.1014 5.9814 52.9778 0.0000 0.0000 0.0000
# 4 0.0000 0.0000 0.0000 21.0175 0.0000 0.0000
# 5 0.0000 0.0000 0.0000 0.0000 22.0642 0.0000
# 6 0.0000 0.0000 0.0000 0.0000 0.0000 19.7251
#
#
#
# Elastic Compliance Matrix: (Units=1/GPa)
#
#
# Indices 1 2 3 4 5 6 
#
# 1 0.009490 -0.004623 -0.003974 0.000000 0.000000 0.000000
# 2 -0.004623 0.011368 0.000907 0.000000 0.000000 0.000000
# 3 -0.003974 0.000907 0.020657 0.000000 0.000000 0.000000
# 4 0.000000 0.000000 0.000000 0.047579 0.000000 0.000000
# 5 0.000000 0.000000 0.000000 0.000000 0.045322 0.000000
# 6 0.000000 0.000000 0.000000 0.000000 0.000000 0.050697
#
#
# Mechanical properties :
#
#
# Convention : Reuss Voigt Hill
#
# Bulk Modulus (GPa) = 38.26575 53.48745 45.87660
# Shear Modulus (GPa) = 23.89998 27.18135 25.54066
#
# Velocity S-wave (km/s) = 3.65881 3.90190 3.78231
# Velocity P-wave (km/s) = 6.26758 7.08937 6.69111
#
# Compressibility (1/GPa) = 0.02613303
#
# Stress axis : x y z
#
# Youngs Moduli (GPa) = 105.37476 87.96693 48.41087
#
# Poissons Ratio (x) = 0.40670 0.19241
# Poissons Ratio (y) = 0.48718 -0.04391
# Poissons Ratio (z) = 0.41880 -0.07979
#
# Static dielectric constant tensor:
#      x y z
#    x 1.635720 0.000000 0.000000 
#    y 0.000000 1.629910 0.000000 
#    z 0.000000 0.000000 1.659480 
# 
# From -- ./inp_files/10143.got.cif
#   From: 2010.05.17/outbox.cif.g08.bks.cpg/sg67_6_cif.got.tgz:10143.got - 2010.06.03 18:28:57.
