data_PCOD9501443
_publ_section_title
;
Structure prediction by ZEFSAII (Michael W. Deem and Ramdas Pophale) SiO2 
 PCOD9501443
Probable space group: C M M A
;
_chemical_formula_sum "Si O2"
_cell_formula_units_Z 104
_cell_length_a 25.178695
_cell_length_b 8.666933
_cell_length_c 28.470059
_cell_angle_alpha 90.000000
_cell_angle_beta 90.000000
_cell_angle_gamma 90.000000
_cell_volume 6212.794997
_symmetry_space_group_name_H-M "C M M A"
_symmetry_group_IT_number 67
_symmetry_cell_setting 'orthorhombic'
loop_
_space_group_symop_operation_xyz
x,y,z
-x,1/2-y,z
x,-y,-z
-x,1/2+y,-z
-x,-y,-z
x,1/2+y,-z
-x,y,z
x,1/2-y,z
1/2+x,1/2+y,z
1/2-x,-y,z
1/2+x,1/2-y,-z
1/2-x,y,-z
1/2-x,1/2-y,-z
1/2+x,y,-z
1/2-x,1/2+y,z
1/2+x,-y,z
loop_
_atom_site_type_symbol
_atom_site_label
_atom_site_fract_x
_atom_site_fract_y
_atom_site_fract_z
Si Si1 0.912611 0.564896 0.372515
Si Si2 0.500000 0.935769 0.552194
Si Si3 0.500000 0.933259 0.304529
Si Si4 0.898142 0.562762 0.850628
Si Si5 0.809190 0.435276 0.329903
Si Si6 0.000000 0.932651 0.201584
Si Si7 0.308476 0.564381 0.222486
Si Si8 0.438307 0.435362 0.949445
O O1 0.910291 0.750000 0.371757
O O2 0.948614 0.504795 0.329627
O O3 0.853951 0.498018 0.365112
O O4 0.947374 0.517297 0.418200
O O5 0.500000 0.750000 0.550778
O O6 0.500000 0.000000 0.500000
O O7 0.500000 0.750000 0.310656
O O8 0.500000 0.978482 0.250644
O O9 0.902780 0.750000 0.847962
O O10 0.948870 0.486122 0.826972
O O11 0.848169 0.515772 0.818808
O O12 0.901287 0.519847 0.905603
O O13 0.807922 0.250000 0.332063
O O14 0.750000 0.500000 0.338727
O O15 0.824242 0.481629 0.275931
O O16 0.000000 0.750000 0.209434
O O17 0.306810 0.750000 0.222369
O O18 0.250000 0.500000 0.214287
O O19 0.500000 0.484028 0.940545
O O20 0.438501 0.250000 0.951971
O O21 0.422289 0.500000 0.000000
#
# Coordination Sequence:
#
# PCOD9501443 Si02
#       8
#    16   8   8  16  16   8  16  16
#     4  10  20  35  53  78 108 137 174 222 263 301
#     4   9  20  36  56  81 110 141 174 215 265 312
#     4  11  21  33  49  70 101 140 174 205 248 310
#     4  10  19  34  51  69  96 130 163 199 248 307
#     4  10  19  32  51  77 105 141 179 214 257 307
#     4  12  23  31  45  73 103 131 160 202 252 298
#     4   9  19  33  51  72  98 131 169 206 243 292
#     4   9  17  30  48  68  92 122 156 199 248 300
#
# _framework density 16.739647000000001
#
# number of rings (size 3 to 8) (size 9 to 14) (size 15 to 20)
#    0.000    2.154    0.769    3.692    0.000    4.923 
#    0.000    0.000    0.000    0.923    0.000    6.462 
#    0.000    0.000    0.000    0.000    0.000    0.000 
#
# Total GULP energy -290016.313509 kJ/mol
# GULP energy per Si atom -5577.236798 kJ/mol
# Density = 1.670155 g / cm^3
# Si number density = 16.739647 Si / 1000 Ang^3
#
#
#
# Elastic Constant Matrix: (Units=GPa)
#
#
# Indices 1 2 3 4 5 6 
#
# 1 115.1944 32.0926 72.5239 0.0000 0.0000 0.0000
# 2 32.0926 31.6713 30.2342 0.0000 0.0000 0.0000
# 3 72.5239 30.2342 122.7989 0.0000 0.0000 0.0000
# 4 0.0000 0.0000 0.0000 26.0546 0.0000 0.0000
# 5 0.0000 0.0000 0.0000 0.0000 26.9641 0.0000
# 6 0.0000 0.0000 0.0000 0.0000 0.0000 21.9653
#
#
#
# Elastic Compliance Matrix: (Units=1/GPa)
#
#
# Indices 1 2 3 4 5 6 
#
# 1 0.015626 -0.009182 -0.006968 0.000000 0.000000 0.000000
# 2 -0.009182 0.046671 -0.006068 0.000000 0.000000 0.000000
# 3 -0.006968 -0.006068 0.013752 0.000000 0.000000 0.000000
# 4 0.000000 0.000000 0.000000 0.038381 0.000000 0.000000
# 5 0.000000 0.000000 0.000000 0.000000 0.037086 0.000000
# 6 0.000000 0.000000 0.000000 0.000000 0.000000 0.045526
#
#
# Mechanical properties :
#
#
# Convention : Reuss Voigt Hill
#
# Bulk Modulus (GPa) = 31.63170 59.92954 45.78062
# Shear Modulus (GPa) = 19.83994 23.98439 21.91216
#
# Velocity S-wave (km/s) = 3.44642 3.78933 3.62193
# Velocity P-wave (km/s) = 5.89698 7.41782 6.70069
#
# Compressibility (1/GPa) = 0.03161385
#
# Stress axis : x y z
#
# Youngs Moduli (GPa) = 63.99671 21.42646 72.71414
#
# Poissons Ratio (x) = 0.19674 0.50665
# Poissons Ratio (y) = 0.58762 0.44123
# Poissons Ratio (z) = 0.44591 0.13002
#
# Static dielectric constant tensor:
#      x y z
#    x 1.556010 0.000000 0.000000 
#    y 0.000000 1.567800 0.000000 
#    z 0.000000 0.000000 1.567620 
# 
# From -- ./inp_files/44852.got.cif
#   From: 2010.05.17/outbox.cif.g08.bks.cpg/sg67_23_cif.got.tgz:44852.got - 2010.06.03 18:28:57.
