data_PCOD9501664
_publ_section_title
;
Structure prediction by ZEFSAII (Michael W. Deem and Ramdas Pophale) SiO2 
 PCOD9501664
Probable space group: C M M A
;
_chemical_formula_sum "Si O2"
_cell_formula_units_Z 88
_cell_length_a 8.572561
_cell_length_b 25.459981
_cell_length_c 22.497205
_cell_angle_alpha 90.000000
_cell_angle_beta 90.000000
_cell_angle_gamma 90.000000
_cell_volume 4910.177875
_symmetry_space_group_name_H-M "C M M A"
_symmetry_group_IT_number 67
_symmetry_cell_setting 'orthorhombic'
loop_
_space_group_symop_operation_xyz
x,y,z
-x,1/2-y,z
x,-y,-z
-x,1/2+y,-z
-x,-y,-z
x,1/2+y,-z
-x,y,z
x,1/2-y,z
1/2+x,1/2+y,z
1/2-x,-y,z
1/2+x,1/2-y,-z
1/2-x,y,-z
1/2-x,1/2-y,-z
1/2+x,y,-z
1/2-x,1/2+y,z
1/2+x,-y,z
loop_
_atom_site_type_symbol
_atom_site_label
_atom_site_fract_x
_atom_site_fract_y
_atom_site_fract_z
Si Si1 0.812808 0.557425 0.801360
Si Si2 0.312004 0.943082 0.335855
Si Si3 0.312857 0.665769 0.842388
Si Si4 0.188579 0.361833 0.436101
Si Si5 0.688090 0.250000 0.610565
Si Si6 0.687616 0.250000 0.256070
Si Si7 0.186055 0.250000 0.066575
O O1 0.750000 0.500000 0.819327
O O2 0.762074 0.566107 0.732380
O O3 0.749232 0.606751 0.837948
O O4 0.000000 0.556824 0.803525
O O5 0.500000 0.943802 0.335916
O O6 0.259433 0.899215 0.382257
O O7 0.250000 0.000000 0.353939
O O8 0.500000 0.665889 0.845423
O O9 0.266913 0.699109 0.783250
O O10 0.247015 0.699298 0.897178
O O11 0.250000 0.379140 0.500000
O O12 0.243042 0.302779 0.421714
O O13 0.000000 0.362241 0.437187
O O14 0.500000 0.250000 0.609317
O O15 0.739050 0.250000 0.679122
O O16 0.500000 0.250000 0.261491
O O17 0.000000 0.250000 0.066420
O O18 0.250000 0.250000 0.000000
#
# Coordination Sequence:
#
# PCOD9501664 Si02
#       7
#    16  16  16  16   8   8   8
#     4  10  19  33  54  80 109 143 178 218 268 321
#     4   9  19  34  51  72  98 127 165 209 258 313
#     4  10  20  35  54  82 116 146 180 222 263 312
#     4  10  21  35  49  67  90 121 161 207 256 313
#     4  10  20  34  51  69  94 124 159 205 258 316
#     4   9  19  32  50  77 106 133 166 212 265 314
#     4  11  22  38  60  86 116 153 191 227 265 304
#
# _framework density 17.921956000000002
#
# number of rings (size 3 to 8) (size 9 to 14) (size 15 to 20)
#    0.000    2.182    0.000    3.818    0.000    6.182 
#    0.000    1.818    0.000    0.545    0.000    3.818 
#    0.000    0.000    0.000    0.000    0.000    0.000 
#
# Total GULP energy -245648.558573 kJ/mol
# GULP energy per Si atom -5582.921786 kJ/mol
# Density = 1.788117 g / cm^3
# Si number density = 17.921956 Si / 1000 Ang^3
#
#
#
# Elastic Constant Matrix: (Units=GPa)
#
#
# Indices 1 2 3 4 5 6 
#
# 1 41.6058 36.8752 20.9444 0.0000 0.0000 0.0000
# 2 36.8752 155.4230 55.7083 0.0000 0.0000 0.0000
# 3 20.9444 55.7083 80.2851 0.0000 0.0000 0.0000
# 4 0.0000 0.0000 0.0000 -0.7318 0.0000 0.0000
# 5 0.0000 0.0000 0.0000 0.0000 28.8700 0.0000
# 6 0.0000 0.0000 0.0000 0.0000 0.0000 29.0174
#
#
#
# Elastic Compliance Matrix: (Units=1/GPa)
#
#
# Indices 1 2 3 4 5 6 
#
# 1 0.031380 -0.006004 -0.004020 0.000000 0.000000 0.000000
# 2 -0.006004 0.009713 -0.005173 0.000000 0.000000 0.000000
# 3 -0.004020 -0.005173 0.017094 0.000000 0.000000 0.000000
# 4 0.000000 0.000000 0.000000 -1.366525 0.000000 0.000000
# 5 0.000000 0.000000 0.000000 0.000000 0.034638 0.000000
# 6 0.000000 0.000000 0.000000 0.000000 0.000000 0.034462
#
#
# Mechanical properties :
#
#
# Convention : Reuss Voigt Hill
#
# Bulk Modulus (GPa) = 35.98156 56.04107 46.01132
# Shear Modulus (GPa) = -4.16813 22.35020 9.09103
#
# Velocity S-wave (km/s) = -1.52668 3.53524 2.25468
# Velocity P-wave (km/s) = 4.12465 6.92830 5.70149
#
# Compressibility (1/GPa) = 0.02779201
#
# Stress axis : x y z
#
# Youngs Moduli (GPa) = 31.86702 102.95648 58.50031
#
# Poissons Ratio (x) = 0.61818 0.23518
# Poissons Ratio (y) = 0.19134 0.30263
# Poissons Ratio (z) = 0.12811 0.53261
#
# Static dielectric constant tensor:
#      x y z
#    x 1.608150 0.000000 0.000000 
#    y 0.000000 1.610020 0.000000 
#    z 0.000000 0.000000 1.586750 
# 
# From -- ./inp_files/36995.got.cif
#   From: 2010.05.17/outbox.cif.g08.bks.cpg/sg67_19_cif.got.tgz:36995.got - 2010.06.03 18:28:57.
