data_PCOD9501957
_publ_section_title
;
Structure prediction by ZEFSAII (Michael W. Deem and Ramdas Pophale) SiO2 
 PCOD9501957
Probable space group: C M M A
;
_chemical_formula_sum "Si O2"
_cell_formula_units_Z 128
_cell_length_a 22.043660
_cell_length_b 24.265391
_cell_length_c 10.450911
_cell_angle_alpha 90.000000
_cell_angle_beta 90.000000
_cell_angle_gamma 90.000000
_cell_volume 5590.171695
_symmetry_space_group_name_H-M "C M M A"
_symmetry_group_IT_number 67
_symmetry_cell_setting 'orthorhombic'
loop_
_space_group_symop_operation_xyz
x,y,z
-x,1/2-y,z
x,-y,-z
-x,1/2+y,-z
-x,-y,-z
x,1/2+y,-z
-x,y,z
x,1/2-y,z
1/2+x,1/2+y,z
1/2-x,-y,z
1/2+x,1/2-y,-z
1/2-x,y,-z
1/2-x,1/2-y,-z
1/2+x,y,-z
1/2-x,1/2+y,z
1/2+x,-y,z
loop_
_atom_site_type_symbol
_atom_site_label
_atom_site_fract_x
_atom_site_fract_y
_atom_site_fract_z
Si Si1 0.616521 0.311809 0.330796
Si Si2 0.930244 0.578136 0.953054
Si Si3 0.754928 0.353030 0.356751
Si Si4 0.071067 0.191707 0.108766
Si Si5 0.098513 0.929468 0.229299
Si Si6 0.887546 0.338874 0.385185
Si Si7 0.573057 0.041947 0.678865
Si Si8 0.736860 0.064273 0.145481
O O1 0.604735 0.250000 0.279427
O O2 0.690345 0.323178 0.330672
O O3 0.585830 0.366152 0.268094
O O4 0.595317 0.314556 0.478354
O O5 0.901466 0.638910 0.960772
O O6 0.903578 0.550568 0.826779
O O7 0.000000 0.584592 0.914548
O O8 0.932483 0.554494 0.094522
O O9 0.750000 0.378003 0.500000
O O10 0.817785 0.320085 0.362952
O O11 0.768960 0.397810 0.248769
O O12 0.100236 0.250000 0.077745
O O13 0.075990 0.180236 0.260541
O O14 0.000000 0.194745 0.074754
O O15 0.167797 0.929913 0.187217
O O16 0.086568 0.976465 0.336165
O O17 0.896328 0.405880 0.391950
O O18 0.500000 0.047494 0.663283
O O19 0.750000 0.000000 0.155347
O O20 0.750000 0.081266 0.000000
#
# Coordination Sequence:
#
# PCOD9501957 Si02
#       8
#    16  16  16  16  16  16  16  16
#     4  10  23  41  57  83 116 154 200 247 294 350
#     4   9  19  34  55  81 109 146 192 236 284 350
#     4   9  20  37  58  83 112 153 201 245 288 360
#     4   9  18  32  52  80 110 141 187 244 288 332
#     4  11  22  36  58  79 118 160 189 235 302 366
#     4  10  19  35  63  85 112 146 192 242 301 352
#     4  10  21  37  61  91 119 148 195 251 298 355
#     4  10  22  33  52  84 121 155 192 247 298 357
#
# _framework density 22.89733
#
# number of rings (size 3 to 8) (size 9 to 14) (size 15 to 20)
#    0.000    2.250    0.000    3.000    7.000    5.000 
#    0.000    6.875    0.000    5.625    0.000    0.000 
#    0.000    0.000    0.000    0.000    0.000    0.000 
#
# Total GULP energy -356541.429210 kJ/mol
# GULP energy per Si atom -5570.959831 kJ/mol
# Density = 2.284521 g / cm^3
# Si number density = 22.897330 Si / 1000 Ang^3
#
#
#
# Elastic Constant Matrix: (Units=GPa)
#
#
# Indices 1 2 3 4 5 6 
#
# 1 41.1569 -5.8639 -16.8574 0.0000 0.0000 0.0000
# 2 -5.8639 136.8378 21.1468 0.0000 0.0000 0.0000
# 3 -16.8574 21.1468 48.5098 0.0000 0.0000 0.0000
# 4 0.0000 0.0000 0.0000 13.3436 0.0000 0.0000
# 5 0.0000 0.0000 0.0000 0.0000 22.8305 0.0000
# 6 0.0000 0.0000 0.0000 0.0000 0.0000 13.6490
#
#
#
# Elastic Compliance Matrix: (Units=1/GPa)
#
#
# Indices 1 2 3 4 5 6 
#
# 1 0.028343 -0.000330 0.009993 0.000000 0.000000 0.000000
# 2 -0.000330 0.007840 -0.003532 0.000000 0.000000 0.000000
# 3 0.009993 -0.003532 0.025627 0.000000 0.000000 0.000000
# 4 0.000000 0.000000 0.000000 0.074942 0.000000 0.000000
# 5 0.000000 0.000000 0.000000 0.000000 0.043801 0.000000
# 6 0.000000 0.000000 0.000000 0.000000 0.000000 0.073265
#
#
# Mechanical properties :
#
#
# Convention : Reuss Voigt Hill
#
# Bulk Modulus (GPa) = 13.50028 24.81728 19.15878
# Shear Modulus (GPa) = 18.77957 25.16989 21.97473
#
# Velocity S-wave (km/s) = 2.86696 3.31909 3.10127
# Velocity P-wave (km/s) = 4.10708 5.05475 4.60536
#
# Compressibility (1/GPa) = 0.07407253
#
# Stress axis : x y z
#
# Youngs Moduli (GPa) = 35.28162 127.55690 39.02161
#
# Poissons Ratio (x) = 0.04206 -0.38995
# Poissons Ratio (y) = 0.01163 0.13783
# Poissons Ratio (z) = -0.35258 0.45054
#
# Static dielectric constant tensor:
#      x y z
#    x 1.824330 0.000000 0.000000 
#    y 0.000000 1.983900 0.000000 
#    z 0.000000 0.000000 -0.195240 
# 
# From -- ./inp_files/22349.got.cif
#   From: 2010.05.17/outbox.cif.g08.bks.cpg/sg67_12_cif.got.tgz:22349.got - 2010.06.03 18:28:57.
