data_PCOD9501926
_publ_section_title
;
Structure prediction by ZEFSAII (Michael W. Deem and Ramdas Pophale) SiO2 
 PCOD9501926
Probable space group: C M M A
;
_chemical_formula_sum "Si O2"
_cell_formula_units_Z 80
_cell_length_a 29.577524
_cell_length_b 8.913642
_cell_length_c 15.749200
_cell_angle_alpha 90.000000
_cell_angle_beta 90.000000
_cell_angle_gamma 90.000000
_cell_volume 4152.173583
_symmetry_space_group_name_H-M "C M M A"
_symmetry_group_IT_number 67
_symmetry_cell_setting 'orthorhombic'
loop_
_space_group_symop_operation_xyz
x,y,z
-x,1/2-y,z
x,-y,-z
-x,1/2+y,-z
-x,-y,-z
x,1/2+y,-z
-x,y,z
x,1/2-y,z
1/2+x,1/2+y,z
1/2-x,-y,z
1/2+x,1/2-y,-z
1/2-x,y,-z
1/2-x,1/2-y,-z
1/2+x,y,-z
1/2-x,1/2+y,z
1/2+x,-y,z
loop_
_atom_site_type_symbol
_atom_site_label
_atom_site_fract_x
_atom_site_fract_y
_atom_site_fract_z
Si Si1 0.202517 0.429005 0.146687
Si Si2 0.296799 0.571561 0.349344
Si Si3 0.394478 0.569923 0.411633
Si Si4 0.946991 0.070286 0.745375
Si Si5 0.390240 0.429498 0.086795
O O1 0.202499 0.250000 0.133849
O O2 0.250000 0.500000 0.118363
O O3 0.198526 0.458967 0.248263
O O4 0.159592 0.503988 0.102918
O O5 0.293487 0.750000 0.359422
O O6 0.250000 0.500000 0.379507
O O7 0.342590 0.519379 0.394308
O O8 0.410291 0.500000 0.500000
O O9 0.395229 0.750000 0.415339
O O10 0.424213 0.513491 0.333258
O O11 0.942180 0.250000 0.732895
O O12 0.920933 0.031341 0.832088
O O13 0.000000 0.035619 0.751734
O O14 0.387911 0.250000 0.079830
O O15 0.408382 0.500000 0.000000
#
# Coordination Sequence:
#
# PCOD9501926 Si02
#       5
#    16  16  16  16  16
#     4  10  19  35  58  87 122 160 203 246 294 352
#     4   9  19  34  56  85 120 159 200 242 290 347
#     4  11  23  40  62  92 124 160 202 247 298 357
#     4  10  23  44  67  90 118 154 198 250 306 361
#     4  11  23  39  62  91 123 159 199 246 299 358
#
# _framework density 19.267018
#
# number of rings (size 3 to 8) (size 9 to 14) (size 15 to 20)
#    0.000    1.800    2.000    1.800    0.000    5.200 
#    0.000    4.000    0.000    0.000    0.000    0.000 
#    0.000    0.000    0.000    0.000    0.000    0.000 
#
# Total GULP energy -223573.797925 kJ/mol
# GULP energy per Si atom -5589.344948 kJ/mol
# Density = 1.922316 g / cm^3
# Si number density = 19.267018 Si / 1000 Ang^3
#
#
#
# Elastic Constant Matrix: (Units=GPa)
#
#
# Indices 1 2 3 4 5 6 
#
# 1 125.6212 49.5682 75.1012 0.0000 0.0000 0.0000
# 2 49.5682 52.4426 68.6600 0.0000 0.0000 0.0000
# 3 75.1012 68.6600 144.6346 0.0000 0.0000 0.0000
# 4 0.0000 0.0000 0.0000 22.7802 0.0000 0.0000
# 5 0.0000 0.0000 0.0000 0.0000 -5.9549 0.0000
# 6 0.0000 0.0000 0.0000 0.0000 0.0000 25.4317
#
#
#
# Elastic Compliance Matrix: (Units=1/GPa)
#
#
# Indices 1 2 3 4 5 6 
#
# 1 0.013009 -0.009121 -0.002425 0.000000 0.000000 0.000000
# 2 -0.009121 0.056776 -0.022216 0.000000 0.000000 0.000000
# 3 -0.002425 -0.022216 0.018720 0.000000 0.000000 0.000000
# 4 0.000000 0.000000 0.000000 0.043898 0.000000 0.000000
# 5 0.000000 0.000000 0.000000 0.000000 -0.167928 0.000000
# 6 0.000000 0.000000 0.000000 0.000000 0.000000 0.039321
#
#
# Mechanical properties :
#
#
# Convention : Reuss Voigt Hill
#
# Bulk Modulus (GPa) = 47.66460 78.81747 63.24103
# Shear Modulus (GPa) = 63.84479 17.07598 40.46038
#
# Velocity S-wave (km/s) = 5.76270 2.98028 4.58753
# Velocity P-wave (km/s) = 8.31090 7.26908 7.80739
#
# Compressibility (1/GPa) = 0.02097993
#
# Stress axis : x y z
#
# Youngs Moduli (GPa) = 76.86755 17.61295 53.42010
#
# Poissons Ratio (x) = 0.16065 0.12955
# Poissons Ratio (y) = 0.70114 1.18680
# Poissons Ratio (z) = 0.18641 0.39129
#
# Static dielectric constant tensor:
#      x y z
#    x 1.649480 0.000000 0.000000 
#    y 0.000000 1.638890 0.000000 
#    z 0.000000 0.000000 1.681690 
# 
# From -- ./inp_files/32292.got.cif
#   From: 2010.05.17/outbox.cif.g08.bks.cpg/sg67_17_cif.got.tgz:32292.got - 2010.06.03 18:28:57.
