data_PCOD9501407
_publ_section_title
;
Structure prediction by ZEFSAII (Michael W. Deem and Ramdas Pophale) SiO2 
 PCOD9501407
Probable space group: C M M A
;
_chemical_formula_sum "Si O2"
_cell_formula_units_Z 96
_cell_length_a 8.555112
_cell_length_b 19.141112
_cell_length_c 31.833439
_cell_angle_alpha 90.000000
_cell_angle_beta 90.000000
_cell_angle_gamma 90.000000
_cell_volume 5212.864333
_symmetry_space_group_name_H-M "C M M A"
_symmetry_group_IT_number 67
_symmetry_cell_setting 'orthorhombic'
loop_
_space_group_symop_operation_xyz
x,y,z
-x,1/2-y,z
x,-y,-z
-x,1/2+y,-z
-x,-y,-z
x,1/2+y,-z
-x,y,z
x,1/2-y,z
1/2+x,1/2+y,z
1/2-x,-y,z
1/2+x,1/2-y,-z
1/2-x,y,-z
1/2-x,1/2-y,-z
1/2+x,y,-z
1/2-x,1/2+y,z
1/2+x,-y,z
loop_
_atom_site_type_symbol
_atom_site_label
_atom_site_fract_x
_atom_site_fract_y
_atom_site_fract_z
Si Si1 0.187858 0.422010 0.954028
Si Si2 0.315235 0.078284 0.544295
Si Si3 0.809347 0.330206 0.874743
Si Si4 0.189328 0.578627 0.205604
Si Si5 0.687049 0.832650 0.620635
Si Si6 0.690573 0.830583 0.715136
O O1 0.250000 0.500000 0.944939
O O2 0.238019 0.369065 0.917520
O O3 0.000000 0.424429 0.955237
O O4 0.250000 0.401794 0.000000
O O5 0.500000 0.074553 0.541135
O O6 0.250000 0.106526 0.500000
O O7 0.265745 0.124172 0.583867
O O8 0.250000 0.000000 0.549403
O O9 0.756342 0.250000 0.872565
O O10 0.760211 0.375656 0.834569
O O11 0.000000 0.329085 0.874337
O O12 0.250000 0.500000 0.203215
O O13 0.241772 0.617868 0.248094
O O14 0.000000 0.577176 0.205663
O O15 0.500000 0.843294 0.618249
O O16 0.716346 0.750000 0.615684
O O17 0.739100 0.851690 0.668029
O O18 0.500000 0.830140 0.715136
O O19 0.738522 0.750000 0.722875
#
# Coordination Sequence:
#
# PCOD9501407 Si02
#       6
#    16  16  16  16  16  16
#     4  10  19  32  51  73  99 130 164 204 249 298
#     4  11  22  37  56  77 104 137 175 216 260 308
#     4   9  18  32  51  74  98 128 168 210 249 293
#     4  10  19  32  52  76 102 131 166 207 249 296
#     4   9  18  34  55  79 107 137 171 211 254 303
#     4   8  15  30  53  77 100 131 170 207 244 291
#
# _framework density 18.415977999999999
#
# number of rings (size 3 to 8) (size 9 to 14) (size 15 to 20)
#    0.000    2.500    0.000    5.000    0.000    3.667 
#    0.000    3.333    0.000    6.500    0.000    0.000 
#    0.000    0.000    0.000    0.000    0.000    0.000 
#
# Total GULP energy -267853.100923 kJ/mol
# GULP energy per Si atom -5580.272936 kJ/mol
# Density = 1.837406 g / cm^3
# Si number density = 18.415978 Si / 1000 Ang^3
#
#
#
# Elastic Constant Matrix: (Units=GPa)
#
#
# Indices 1 2 3 4 5 6 
#
# 1 38.9719 39.0926 48.1270 0.0000 0.0000 0.0000
# 2 39.0926 124.7981 125.9551 0.0000 0.0000 0.0000
# 3 48.1270 125.9551 198.3981 0.0000 0.0000 0.0000
# 4 0.0000 0.0000 0.0000 40.6108 0.0000 0.0000
# 5 0.0000 0.0000 0.0000 0.0000 14.3102 0.0000
# 6 0.0000 0.0000 0.0000 0.0000 0.0000 22.7247
#
#
#
# Elastic Compliance Matrix: (Units=1/GPa)
#
#
# Indices 1 2 3 4 5 6 
#
# 1 0.038954 -0.007419 -0.004739 0.000000 0.000000 0.000000
# 2 -0.007419 0.023717 -0.013258 0.000000 0.000000 0.000000
# 3 -0.004739 -0.013258 0.014607 0.000000 0.000000 0.000000
# 4 0.000000 0.000000 0.000000 0.024624 0.000000 0.000000
# 5 0.000000 0.000000 0.000000 0.000000 0.069880 0.000000
# 6 0.000000 0.000000 0.000000 0.000000 0.000000 0.044005
#
#
# Mechanical properties :
#
#
# Convention : Reuss Voigt Hill
#
# Bulk Modulus (GPa) = 37.81220 87.61306 62.71263
# Shear Modulus (GPa) = 18.15314 25.46205 21.80759
#
# Velocity S-wave (km/s) = 3.14304 3.72238 3.44491
# Velocity P-wave (km/s) = 5.80934 8.13342 7.06757
#
# Compressibility (1/GPa) = 0.02644649
#
# Stress axis : x y z
#
# Youngs Moduli (GPa) = 25.67122 42.16331 68.46149
#
# Poissons Ratio (x) = 0.31280 0.32447
# Poissons Ratio (y) = 0.19045 0.90763
# Poissons Ratio (z) = 0.12167 0.55898
#
# Static dielectric constant tensor:
#      x y z
#    x 1.634330 0.000000 0.000000 
#    y 0.000000 1.602810 0.000000 
#    z 0.000000 0.000000 1.634720 
# 
# From -- ./inp_files/43426.got.cif
#   From: 2010.05.17/outbox.cif.g08.bks.cpg/sg67_22_cif.got.tgz:43426.got - 2010.06.03 18:28:57.
