data_PCOD9501330
_publ_section_title
;
Structure prediction by ZEFSAII (Michael W. Deem and Ramdas Pophale) SiO2 
 PCOD9501330
Probable space group: C M M A
;
_chemical_formula_sum "Si O2"
_cell_formula_units_Z 120
_cell_length_a 27.767011
_cell_length_b 8.450266
_cell_length_c 30.213210
_cell_angle_alpha 90.000000
_cell_angle_beta 90.000000
_cell_angle_gamma 90.000000
_cell_volume 7089.186171
_symmetry_space_group_name_H-M "C M M A"
_symmetry_group_IT_number 67
_symmetry_cell_setting 'orthorhombic'
loop_
_space_group_symop_operation_xyz
x,y,z
-x,1/2-y,z
x,-y,-z
-x,1/2+y,-z
-x,-y,-z
x,1/2+y,-z
-x,y,z
x,1/2-y,z
1/2+x,1/2+y,z
1/2-x,-y,z
1/2+x,1/2-y,-z
1/2-x,y,-z
1/2-x,1/2-y,-z
1/2+x,y,-z
1/2-x,1/2+y,z
1/2+x,-y,z
loop_
_atom_site_type_symbol
_atom_site_label
_atom_site_fract_x
_atom_site_fract_y
_atom_site_fract_z
Si Si1 0.443941 0.440779 0.640008
Si Si2 0.393509 0.939724 0.050134
Si Si3 0.198345 0.438922 0.218900
Si Si4 0.648548 0.439492 0.134577
Si Si5 0.447705 0.559352 0.816590
Si Si6 0.898706 0.941544 0.731677
Si Si7 0.556056 0.061286 0.453844
Si Si8 0.000000 0.940978 0.949454
O O1 0.500000 0.493266 0.645176
O O2 0.444303 0.250000 0.639082
O O3 0.412870 0.492027 0.682324
O O4 0.424323 0.500722 0.592918
O O5 0.393483 0.750000 0.049703
O O6 0.447210 0.995795 0.066513
O O7 0.353748 0.000836 0.084441
O O8 0.386921 0.000000 0.000000
O O9 0.198280 0.250000 0.218572
O O10 0.250000 0.500000 0.234150
O O11 0.188008 0.498755 0.168976
O O12 0.153642 0.492729 0.249841
O O13 0.649613 0.250000 0.134850
O O14 0.598071 0.498991 0.155990
O O15 0.500000 0.500787 0.831735
O O16 0.447637 0.750000 0.818951
O O17 0.437496 0.507211 0.766444
O O18 0.900198 0.750000 0.733213
O O19 0.500000 0.005234 0.453560
O O20 0.556517 0.250000 0.454305
O O21 0.577703 0.000000 0.500000
O O22 0.000000 0.750000 0.947439
O O23 0.000000 0.000000 0.000000
#
# Coordination Sequence:
#
# PCOD9501330 Si02
#       8
#    16  16  16  16  16  16  16   8
#     4   9  16  26  41  62  91 126 160 194 232 272
#     4  10  19  32  48  69  96 127 160 194 229 267
#     4  10  20  36  56  75  95 119 151 192 238 286
#     4  10  20  33  50  72  96 124 157 191 230 275
#     4   9  18  30  43  63  93 126 156 188 225 267
#     4   9  18  31  47  68  92 120 155 192 232 281
#     4   9  16  25  37  55  82 120 165 205 237 268
#     4   8  16  28  42  62  90 124 160 190 220 256
#
# _framework density 16.927191000000001
#
# number of rings (size 3 to 8) (size 9 to 14) (size 15 to 20)
#    0.000    2.667    0.000    2.000    0.933    4.533 
#    0.000    1.333    0.000    0.400    0.000    2.800 
#    0.000    0.533    0.000    6.133    0.000    2.133 
#
# Total GULP energy -334276.166821 kJ/mol
# GULP energy per Si atom -5571.269447 kJ/mol
# Density = 1.688866 g / cm^3
# Si number density = 16.927191 Si / 1000 Ang^3
#
#
#
# Elastic Constant Matrix: (Units=GPa)
#
#
# Indices 1 2 3 4 5 6 
#
# 1 56.6133 9.2798 19.6752 0.0000 0.0000 0.0000
# 2 9.2798 17.6779 11.6332 0.0000 0.0000 0.0000
# 3 19.6752 11.6332 108.6700 0.0000 0.0000 0.0000
# 4 0.0000 0.0000 0.0000 24.5373 0.0000 0.0000
# 5 0.0000 0.0000 0.0000 0.0000 12.9328 0.0000
# 6 0.0000 0.0000 0.0000 0.0000 0.0000 16.6458
#
#
#
# Elastic Compliance Matrix: (Units=1/GPa)
#
#
# Indices 1 2 3 4 5 6 
#
# 1 0.020032 -0.008745 -0.002691 0.000000 0.000000 0.000000
# 2 -0.008745 0.064672 -0.005340 0.000000 0.000000 0.000000
# 3 -0.002691 -0.005340 0.010261 0.000000 0.000000 0.000000
# 4 0.000000 0.000000 0.000000 0.040754 0.000000 0.000000
# 5 0.000000 0.000000 0.000000 0.000000 0.077323 0.000000
# 6 0.000000 0.000000 0.000000 0.000000 0.000000 0.060075
#
#
# Mechanical properties :
#
#
# Convention : Reuss Voigt Hill
#
# Bulk Modulus (GPa) = 16.28288 29.34864 22.81576
# Shear Modulus (GPa) = 15.28392 20.31470 17.79931
#
# Velocity S-wave (km/s) = 3.00813 3.46804 3.24624
# Velocity P-wave (km/s) = 4.65890 5.78033 5.24964
#
# Compressibility (1/GPa) = 0.06141421
#
# Stress axis : x y z
#
# Youngs Moduli (GPa) = 49.91938 15.46255 97.45646
#
# Poissons Ratio (x) = 0.13522 0.26223
# Poissons Ratio (y) = 0.43655 0.52041
# Poissons Ratio (z) = 0.13432 0.08257
#
# Static dielectric constant tensor:
#      x y z
#    x 1.587880 0.000000 0.000000 
#    y 0.000000 1.568450 0.000000 
#    z 0.000000 0.000000 1.593570 
# 
# From -- ./inp_files/45028.got.cif
#   From: 2010.05.17/outbox.cif.g08.bks.cpg/sg67_23_cif.got.tgz:45028.got - 2010.06.03 18:28:57.
