data_PCOD9501431
_publ_section_title
;
Structure prediction by ZEFSAII (Michael W. Deem and Ramdas Pophale) SiO2 
 PCOD9501431
Probable space group: C M M A
;
_chemical_formula_sum "Si O2"
_cell_formula_units_Z 104
_cell_length_a 9.605586
_cell_length_b 21.544997
_cell_length_c 29.124585
_cell_angle_alpha 90.000000
_cell_angle_beta 90.000000
_cell_angle_gamma 90.000000
_cell_volume 6027.400480
_symmetry_space_group_name_H-M "C M M A"
_symmetry_group_IT_number 67
_symmetry_cell_setting 'orthorhombic'
loop_
_space_group_symop_operation_xyz
x,y,z
-x,1/2-y,z
x,-y,-z
-x,1/2+y,-z
-x,-y,-z
x,1/2+y,-z
-x,y,z
x,1/2-y,z
1/2+x,1/2+y,z
1/2-x,-y,z
1/2+x,1/2-y,-z
1/2-x,y,-z
1/2-x,1/2-y,-z
1/2+x,y,-z
1/2-x,1/2+y,z
1/2+x,-y,z
loop_
_atom_site_type_symbol
_atom_site_label
_atom_site_fract_x
_atom_site_fract_y
_atom_site_fract_z
Si Si1 0.000000 0.591015 0.541843
Si Si2 0.164502 0.825116 0.305699
Si Si3 0.828273 0.937814 0.951081
Si Si4 0.734974 0.868229 0.597691
Si Si5 0.168315 0.821040 0.885762
Si Si6 0.659902 0.174843 0.782265
Si Si7 0.500000 0.445681 0.438450
Si Si8 0.148216 0.750000 0.457676
O O1 0.130891 0.620786 0.566781
O O2 0.000000 0.592559 0.486642
O O3 0.000000 0.517798 0.551597
O O4 0.173113 0.750000 0.308833
O O5 0.247011 0.854074 0.348663
O O6 0.236967 0.844897 0.258189
O O7 0.000000 0.841196 0.308293
O O8 0.798926 0.876302 0.920906
O O9 0.000000 0.945296 0.954782
O O10 0.750000 0.000000 0.932176
O O11 0.750000 0.929014 0.000000
O O12 0.634889 0.926202 0.589560
O O13 0.663228 0.808532 0.575259
O O14 0.217446 0.750000 0.896304
O O15 0.210459 0.839299 0.833855
O O16 0.000000 0.817339 0.884423
O O17 0.500000 0.152735 0.775848
O O18 0.654228 0.250000 0.780626
O O19 0.250000 0.750000 0.500000
O O20 0.000000 0.750000 0.480740
#
# Coordination Sequence:
#
# PCOD9501431 Si02
#       8
#     8  16  16  16  16  16   8   8
#     4  11  26  39  61  83  97 136 185 221 246 305
#     4  10  19  34  51  76 110 142 167 201 264 326
#     4  10  19  32  51  75 108 150 189 227 269 323
#     4  12  23  38  58  82 110 136 169 213 265 318
#     4   8  15  30  52  79 107 138 179 227 279 319
#     4   8  15  29  52  78 103 131 172 221 261 311
#     4  11  22  45  61  75 103 138 179 215 258 307
#     4  12  24  38  56  80 114 144 162 206 271 326
#
# _framework density 17.254536000000002
#
# number of rings (size 3 to 8) (size 9 to 14) (size 15 to 20)
#    0.000    2.000    2.308    3.692    2.154    1.538 
#    0.000    1.538    0.000    5.077    0.000    0.000 
#    0.000    0.000    0.000    0.000    0.000    0.000 
#
# Total GULP energy -289647.483542 kJ/mol
# GULP energy per Si atom -5570.143914 kJ/mol
# Density = 1.721526 g / cm^3
# Si number density = 17.254536 Si / 1000 Ang^3
#
#
#
# Elastic Constant Matrix: (Units=GPa)
#
#
# Indices 1 2 3 4 5 6 
#
# 1 70.3316 19.4706 26.1729 0.0000 0.0000 0.0000
# 2 19.4706 73.6155 46.4403 0.0000 0.0000 0.0000
# 3 26.1729 46.4403 110.0872 0.0000 0.0000 0.0000
# 4 0.0000 0.0000 0.0000 14.2016 0.0000 0.0000
# 5 0.0000 0.0000 0.0000 0.0000 21.9582 0.0000
# 6 0.0000 0.0000 0.0000 0.0000 0.0000 21.4849
#
#
#
# Elastic Compliance Matrix: (Units=1/GPa)
#
#
# Indices 1 2 3 4 5 6 
#
# 1 0.015925 -0.002485 -0.002738 0.000000 0.000000 0.000000
# 2 -0.002485 0.018898 -0.007381 0.000000 0.000000 0.000000
# 3 -0.002738 -0.007381 0.012848 0.000000 0.000000 0.000000
# 4 0.000000 0.000000 0.000000 0.070414 0.000000 0.000000
# 5 0.000000 0.000000 0.000000 0.000000 0.045541 0.000000
# 6 0.000000 0.000000 0.000000 0.000000 0.000000 0.046544
#
#
# Mechanical properties :
#
#
# Convention : Reuss Voigt Hill
#
# Bulk Modulus (GPa) = 44.51707 48.68911 46.60309
# Shear Modulus (GPa) = 20.58739 22.32564 21.45651
#
# Velocity S-wave (km/s) = 3.45796 3.60098 3.53020
# Velocity P-wave (km/s) = 6.46526 6.75047 6.60940
#
# Compressibility (1/GPa) = 0.02246329
#
# Stress axis : x y z
#
# Youngs Moduli (GPa) = 62.79379 52.91627 77.83042
#
# Poissons Ratio (x) = 0.13149 0.21310
# Poissons Ratio (y) = 0.15603 0.57449
# Poissons Ratio (z) = 0.17193 0.39059
#
# Static dielectric constant tensor:
#      x y z
#    x 1.582510 0.000000 0.000000 
#    y 0.000000 1.595860 0.000000 
#    z 0.000000 0.000000 1.587590 
# 
# From -- ./inp_files/43767.got.cif
#   From: 2010.05.17/outbox.cif.g08.bks.cpg/sg67_22_cif.got.tgz:43767.got - 2010.06.03 18:28:57.
