data_PCOD9501720
_publ_section_title
;
Structure prediction by ZEFSAII (Michael W. Deem and Ramdas Pophale) SiO2 
 PCOD9501720
Probable space group: C M M A
;
_chemical_formula_sum "Si O2"
_cell_formula_units_Z 56
_cell_length_a 15.278080
_cell_length_b 8.848570
_cell_length_c 20.106934
_cell_angle_alpha 90.000000
_cell_angle_beta 90.000000
_cell_angle_gamma 90.000000
_cell_volume 2718.239525
_symmetry_space_group_name_H-M "C M M A"
_symmetry_group_IT_number 67
_symmetry_cell_setting 'orthorhombic'
loop_
_space_group_symop_operation_xyz
x,y,z
-x,1/2-y,z
x,-y,-z
-x,1/2+y,-z
-x,-y,-z
x,1/2+y,-z
-x,y,z
x,1/2-y,z
1/2+x,1/2+y,z
1/2-x,-y,z
1/2+x,1/2-y,-z
1/2-x,y,-z
1/2-x,1/2-y,-z
1/2+x,y,-z
1/2-x,1/2+y,z
1/2+x,-y,z
loop_
_atom_site_type_symbol
_atom_site_label
_atom_site_fract_x
_atom_site_fract_y
_atom_site_fract_z
Si Si1 0.157648 0.929588 0.157398
Si Si2 0.106267 0.576194 0.706295
Si Si3 0.500000 0.068942 0.926509
Si Si4 0.607054 0.423888 0.431204
O O1 0.155593 0.750000 0.149043
O O2 0.250000 0.000000 0.137628
O O3 0.140744 0.973152 0.234293
O O4 0.083177 0.008205 0.113884
O O5 0.133730 0.750000 0.716469
O O6 0.133930 0.515731 0.634180
O O7 0.000000 0.572327 0.708523
O O8 0.500000 0.250000 0.928596
O O9 0.500000 0.000000 0.000000
O O10 0.635658 0.500000 0.500000
O O11 0.500000 0.424696 0.431689
O O12 0.635141 0.250000 0.427322
#
# Coordination Sequence:
#
# PCOD9501720 Si02
#       4
#    16  16   8  16
#     4  12  25  43  68  99 134 174 218 266 320 380
#     4  10  19  33  56  85 121 164 212 265 322 381
#     4  12  26  48  74 104 137 172 213 260 316 380
#     4   9  16  26  43  72 111 155 207 263 321 380
#
# _framework density 20.601569999999999
#
# number of rings (size 3 to 8) (size 9 to 14) (size 15 to 20)
#    0.000    1.429    1.429    5.571    0.000    5.143 
#    0.000    2.857    0.000    0.857    0.000    6.000 
#    0.000    0.000    0.000    0.000    0.000    0.000 
#
# Total GULP energy -156714.799674 kJ/mol
# GULP energy per Si atom -5596.957131 kJ/mol
# Density = 2.055468 g / cm^3
# Si number density = 20.601570 Si / 1000 Ang^3
#
#
#
# Elastic Constant Matrix: (Units=GPa)
#
#
# Indices 1 2 3 4 5 6 
#
# 1 98.6835 57.5188 55.9475 0.0000 0.0000 0.0000
# 2 57.5188 208.3662 64.7841 0.0000 0.0000 0.0000
# 3 55.9475 64.7841 144.2241 0.0000 0.0000 0.0000
# 4 0.0000 0.0000 0.0000 42.6222 0.0000 0.0000
# 5 0.0000 0.0000 0.0000 0.0000 -30.2047 0.0000
# 6 0.0000 0.0000 0.0000 0.0000 0.0000 22.4382
#
#
#
# Elastic Compliance Matrix: (Units=1/GPa)
#
#
# Indices 1 2 3 4 5 6 
#
# 1 0.014059 -0.002540 -0.004313 0.000000 0.000000 0.000000
# 2 -0.002540 0.006037 -0.001727 0.000000 0.000000 0.000000
# 3 -0.004313 -0.001727 0.009382 0.000000 0.000000 0.000000
# 4 0.000000 0.000000 0.000000 0.023462 0.000000 0.000000
# 5 0.000000 0.000000 0.000000 0.000000 -0.033107 0.000000
# 6 0.000000 0.000000 0.000000 0.000000 0.000000 0.044567
#
#
# Mechanical properties :
#
#
# Convention : Reuss Voigt Hill
#
# Bulk Modulus (GPa) = 81.17088 89.75272 85.46180
# Shear Modulus (GPa) = 58.36682 25.17270 41.76976
#
# Velocity S-wave (km/s) = 5.32849 3.49934 4.50767
# Velocity P-wave (km/s) = 8.79448 7.74517 8.28645
#
# Compressibility (1/GPa) = 0.01231969
#
# Stress axis : x y z
#
# Youngs Moduli (GPa) = 71.12890 165.63941 106.58456
#
# Poissons Ratio (x) = 0.42073 0.45968
# Poissons Ratio (y) = 0.18067 0.18402
# Poissons Ratio (z) = 0.30677 0.28598
#
# Static dielectric constant tensor:
#      x y z
#    x 1.733100 0.000000 0.000000 
#    y 0.000000 1.686970 0.000000 
#    z 0.000000 0.000000 1.698740 
# 
# From -- ./inp_files/31612.got.cif
#   From: 2010.05.17/outbox.cif.g08.bks.cpg/sg67_16_cif.got.tgz:31612.got - 2010.06.03 18:28:57.
