data_PCOD9501014
_publ_section_title
;
Structure prediction by ZEFSAII (Michael W. Deem and Ramdas Pophale) SiO2 
 PCOD9501014
Probable space group: C M M A
;
_chemical_formula_sum "Si O2"
_cell_formula_units_Z 96
_cell_length_a 26.597647
_cell_length_b 10.373653
_cell_length_c 19.377723
_cell_angle_alpha 90.000000
_cell_angle_beta 90.000000
_cell_angle_gamma 90.000000
_cell_volume 5346.599802
_symmetry_space_group_name_H-M "C M M A"
_symmetry_group_IT_number 67
_symmetry_cell_setting 'orthorhombic'
loop_
_space_group_symop_operation_xyz
x,y,z
-x,1/2-y,z
x,-y,-z
-x,1/2+y,-z
-x,-y,-z
x,1/2+y,-z
-x,y,z
x,1/2-y,z
1/2+x,1/2+y,z
1/2-x,-y,z
1/2+x,1/2-y,-z
1/2-x,y,-z
1/2-x,1/2-y,-z
1/2+x,y,-z
1/2-x,1/2+y,z
1/2+x,-y,z
loop_
_atom_site_type_symbol
_atom_site_label
_atom_site_fract_x
_atom_site_fract_y
_atom_site_fract_z
Si Si1 0.667489 0.607912 0.549964
Si Si2 0.058601 0.603395 0.698646
Si Si3 0.941574 0.601641 0.060714
Si Si4 0.793543 0.396534 0.704411
Si Si5 0.389581 0.102169 0.204208
Si Si6 0.556008 0.391213 0.417788
O O1 0.688716 0.500000 0.500000
O O2 0.687576 0.750000 0.534252
O O3 0.677670 0.582386 0.631107
O O4 0.607025 0.612492 0.539094
O O5 0.078621 0.750000 0.691492
O O6 0.083836 0.513532 0.755539
O O7 0.060923 0.516254 0.629920
O O8 0.000000 0.613720 0.716006
O O9 0.937436 0.750000 0.036092
O O10 0.903267 0.585193 0.124111
O O11 0.000000 0.584919 0.084841
O O12 0.932820 0.500000 0.000000
O O13 0.773793 0.250000 0.702017
O O14 0.750000 0.500000 0.710477
O O15 0.832720 0.404349 0.767578
O O16 0.406845 0.250000 0.221142
O O17 0.500000 0.394247 0.450172
O O18 0.557370 0.250000 0.380189
#
# Coordination Sequence:
#
# PCOD9501014 Si02
#       6
#    16  16  16  16  16  16
#     4  10  21  37  55  78 105 137 177 221 272 331
#     4  10  19  28  44  76 110 136 169 216 262 303
#     4   9  18  32  53  83 118 154 184 213 252 302
#     4  10  22  40  59  80 104 132 177 233 285 334
#     4  10  19  35  57  78 105 145 187 220 261 323
#     4   9  17  32  52  71  99 140 177 209 254 317
#
# _framework density 17.955337
#
# number of rings (size 3 to 8) (size 9 to 14) (size 15 to 20)
#    0.000    2.333    1.667    1.000    0.000    5.000 
#    0.000    3.333    0.000    0.500    0.000    3.500 
#    0.000    0.000    0.000    0.000    0.000    0.000 
#
# Total GULP energy -267221.648291 kJ/mol
# GULP energy per Si atom -5567.117673 kJ/mol
# Density = 1.791447 g / cm^3
# Si number density = 17.955337 Si / 1000 Ang^3
#
#
#
# Elastic Constant Matrix: (Units=GPa)
#
#
# Indices 1 2 3 4 5 6 
#
# 1 58.0180 56.3932 34.2553 0.0000 0.0000 0.0000
# 2 56.3932 161.3248 59.3287 0.0000 0.0000 0.0000
# 3 34.2553 59.3287 68.0302 0.0000 0.0000 0.0000
# 4 0.0000 0.0000 0.0000 27.5111 0.0000 0.0000
# 5 0.0000 0.0000 0.0000 0.0000 -8.3424 0.0000
# 6 0.0000 0.0000 0.0000 0.0000 0.0000 20.0293
#
#
#
# Elastic Compliance Matrix: (Units=1/GPa)
#
#
# Indices 1 2 3 4 5 6 
#
# 1 0.029111 -0.007045 -0.008514 0.000000 0.000000 0.000000
# 2 -0.007045 0.010830 -0.005898 0.000000 0.000000 0.000000
# 3 -0.008514 -0.005898 0.024130 0.000000 0.000000 0.000000
# 4 0.000000 0.000000 0.000000 0.036349 0.000000 0.000000
# 5 0.000000 0.000000 0.000000 0.000000 -0.119869 0.000000
# 6 0.000000 0.000000 0.000000 0.000000 0.000000 0.049927
#
#
# Mechanical properties :
#
#
# Convention : Reuss Voigt Hill
#
# Bulk Modulus (GPa) = 47.26553 65.25859 56.26206
# Shear Modulus (GPa) = 62.15538 16.99932 39.57735
#
# Velocity S-wave (km/s) = 5.88998 3.08028 4.70000
# Velocity P-wave (km/s) = 8.52272 7.00533 7.80101
#
# Compressibility (1/GPa) = 0.02115707
#
# Stress axis : x y z
#
# Youngs Moduli (GPa) = 34.35176 92.33456 41.44226
#
# Poissons Ratio (x) = 0.65047 0.35286
# Poissons Ratio (y) = 0.24200 0.24441
# Poissons Ratio (z) = 0.29248 0.54456
#
# Static dielectric constant tensor:
#      x y z
#    x 1.633480 0.000000 0.000000 
#    y 0.000000 1.619090 0.000000 
#    z 0.000000 0.000000 1.610570 
# 
# From -- ./inp_files/39863.got.cif
#   From: 2010.05.17/outbox.cif.g08.bks.cpg/sg67_20_cif.got.tgz:39863.got - 2010.06.03 18:28:57.
