data_PCOD9501220
_publ_section_title
;
Structure prediction by ZEFSAII (Michael W. Deem and Ramdas Pophale) SiO2 
 PCOD9501220
Probable space group: C M M A
;
_chemical_formula_sum "Si O2"
_cell_formula_units_Z 96
_cell_length_a 24.436804
_cell_length_b 18.841882
_cell_length_c 12.539185
_cell_angle_alpha 90.000000
_cell_angle_beta 90.000000
_cell_angle_gamma 90.000000
_cell_volume 5773.484378
_symmetry_space_group_name_H-M "C M M A"
_symmetry_group_IT_number 67
_symmetry_cell_setting 'orthorhombic'
loop_
_space_group_symop_operation_xyz
x,y,z
-x,1/2-y,z
x,-y,-z
-x,1/2+y,-z
-x,-y,-z
x,1/2+y,-z
-x,y,z
x,1/2-y,z
1/2+x,1/2+y,z
1/2-x,-y,z
1/2+x,1/2-y,-z
1/2-x,y,-z
1/2-x,1/2-y,-z
1/2+x,y,-z
1/2-x,1/2+y,z
1/2+x,-y,z
loop_
_atom_site_type_symbol
_atom_site_label
_atom_site_fract_x
_atom_site_fract_y
_atom_site_fract_z
Si Si1 0.393382 0.076323 0.202510
Si Si2 0.000000 0.670844 0.161759
Si Si3 0.564352 0.165901 0.627676
Si Si4 0.395478 0.908955 0.172314
Si Si5 0.187914 0.414302 0.989573
Si Si6 0.435403 0.070742 0.428761
Si Si7 0.500000 0.671439 0.089414
O O1 0.445435 0.126616 0.184742
O O2 0.344410 0.100325 0.122115
O O3 0.392519 0.074378 0.331695
O O4 0.403190 0.993736 0.173211
O O5 0.000000 0.750000 0.211991
O O6 0.000000 0.679298 0.035817
O O7 0.500000 0.150359 0.654695
O O8 0.572962 0.250000 0.635074
O O9 0.603312 0.122843 0.708489
O O10 0.571364 0.136661 0.508469
O O11 0.447445 0.872067 0.120962
O O12 0.345866 0.890222 0.093616
O O13 0.189807 0.500000 0.000000
O O14 0.250000 0.387740 0.000000
O O15 0.500000 0.069237 0.392004
O O16 0.428283 0.000000 0.500000
O O17 0.500000 0.750000 0.139190
#
# Coordination Sequence:
#
# PCOD9501220 Si02
#       7
#    16   8  16  16  16  16   8
#     4  11  20  34  56  77 108 146 179 222 269 327
#     4  11  23  33  45  77 116 145 178 216 270 335
#     4  10  20  32  49  77 113 149 177 212 259 315
#     4  11  19  31  56  80 106 139 179 224 269 331
#     4   9  20  36  55  82 106 135 179 233 280 320
#     4  10  19  31  48  76 114 145 179 216 256 323
#     4  11  21  31  46  76 118 143 169 218 270 330
#
# _framework density 16.627739999999999
#
# number of rings (size 3 to 8) (size 9 to 14) (size 15 to 20)
#    0.000    1.667    5.000    1.000    0.000    1.333 
#    0.000    0.000    0.000    5.500    0.000    1.167 
#    0.000    0.000    0.000    0.000    0.000    0.000 
#
# Total GULP energy -267245.480515 kJ/mol
# GULP energy per Si atom -5567.614177 kJ/mol
# Density = 1.658989 g / cm^3
# Si number density = 16.627740 Si / 1000 Ang^3
#
#
#
# Elastic Constant Matrix: (Units=GPa)
#
#
# Indices 1 2 3 4 5 6 
#
# 1 108.7843 36.9390 51.7822 0.0000 0.0000 0.0000
# 2 36.9390 76.0737 27.6281 0.0000 0.0000 0.0000
# 3 51.7822 27.6281 106.7860 0.0000 0.0000 0.0000
# 4 0.0000 0.0000 0.0000 21.4827 0.0000 0.0000
# 5 0.0000 0.0000 0.0000 0.0000 10.2563 0.0000
# 6 0.0000 0.0000 0.0000 0.0000 0.0000 -3.6075
#
#
#
# Elastic Compliance Matrix: (Units=1/GPa)
#
#
# Indices 1 2 3 4 5 6 
#
# 1 0.013222 -0.004516 -0.005243 0.000000 0.000000 0.000000
# 2 -0.004516 0.016051 -0.001963 0.000000 0.000000 0.000000
# 3 -0.005243 -0.001963 0.012415 0.000000 0.000000 0.000000
# 4 0.000000 0.000000 0.000000 0.046549 0.000000 0.000000
# 5 0.000000 0.000000 0.000000 0.000000 0.097501 0.000000
# 6 0.000000 0.000000 0.000000 0.000000 0.000000 -0.277202
#
#
# Mechanical properties :
#
#
# Convention : Reuss Voigt Hill
#
# Bulk Modulus (GPa) = 54.81365 58.26029 56.53697
# Shear Modulus (GPa) = -80.72332 17.31263 -31.70535
#
# Velocity S-wave (km/s) = -6.97515 3.23025 -4.37140
# Velocity P-wave (km/s) = 5.64213 7.00191 2.93199
#
# Compressibility (1/GPa) = 0.01824363
#
# Stress axis : x y z
#
# Youngs Moduli (GPa) = 75.63360 62.30220 80.54907
#
# Poissons Ratio (x) = 0.28135 0.42232
# Poissons Ratio (y) = 0.34155 0.15811
# Poissons Ratio (z) = 0.39655 0.12229
#
# Static dielectric constant tensor:
#      x y z
#    x 1.531440 0.000000 0.000000 
#    y 0.000000 1.610450 0.000000 
#    z 0.000000 0.000000 1.634310 
# 
# From -- ./inp_files/21973.got.cif
#   From: 2010.05.17/outbox.cif.g08.bks.cpg/sg67_11_cif.got.tgz:21973.got - 2010.06.03 18:28:57.
