data_PCOD9501003
_publ_section_title
;
Structure prediction by ZEFSAII (Michael W. Deem and Ramdas Pophale) SiO2 
 PCOD9501003
Probable space group: C M M A
;
_chemical_formula_sum "Si O2"
_cell_formula_units_Z 64
_cell_length_a 13.043656
_cell_length_b 24.114498
_cell_length_c 8.955079
_cell_angle_alpha 90.000000
_cell_angle_beta 90.000000
_cell_angle_gamma 90.000000
_cell_volume 2816.741443
_symmetry_space_group_name_H-M "C M M A"
_symmetry_group_IT_number 67
_symmetry_cell_setting 'orthorhombic'
loop_
_space_group_symop_operation_xyz
x,y,z
-x,1/2-y,z
x,-y,-z
-x,1/2+y,-z
-x,-y,-z
x,1/2+y,-z
-x,y,z
x,1/2-y,z
1/2+x,1/2+y,z
1/2-x,-y,z
1/2+x,1/2-y,-z
1/2-x,y,-z
1/2-x,1/2-y,-z
1/2+x,y,-z
1/2-x,1/2+y,z
1/2+x,-y,z
loop_
_atom_site_type_symbol
_atom_site_label
_atom_site_fract_x
_atom_site_fract_y
_atom_site_fract_z
Si Si1 0.750000 0.650187 0.500000
Si Si2 0.827843 0.420599 0.261370
Si Si3 0.500000 0.654317 0.144723
Si Si4 0.662903 0.250000 0.346951
Si Si5 0.000000 0.750000 0.610030
Si Si6 0.615784 0.966371 0.842483
Si Si7 0.000000 0.750000 0.093237
O O1 0.829705 0.609283 0.578226
O O2 0.721637 0.692297 0.633567
O O3 0.900670 0.384667 0.154312
O O4 0.711576 0.426827 0.196825
O O5 0.872377 0.482354 0.271827
O O6 0.500000 0.696203 0.286044
O O7 0.500000 0.695153 0.005853
O O8 0.594104 0.250000 0.496621
O O9 0.597686 0.250000 0.199748
O O10 0.500000 0.943026 0.838694
O O11 0.629104 0.000000 0.000000
#
# Coordination Sequence:
#
# PCOD9501003 Si02
#       7
#     8  16   8   8   4  16   4
#     4  11  24  41  68  96 138 195 234 289 362 430
#     4  11  22  42  69 101 134 191 239 283 357 427
#     4  11  22  42  73 106 138 189 235 292 362 427
#     4  10  22  43  62 100 143 176 230 296 360 418
#     4  10  18  42  70  86 142 182 220 290 354 426
#     4  10  23  44  66  99 145 186 231 303 353 408
#     4  10  26  40  70 114 138 180 240 304 354 434
#
# _framework density 22.72129
#
# number of rings (size 3 to 8) (size 9 to 14) (size 15 to 20)
#    0.000    1.500    3.750    1.500    0.000    6.000 
#    6.750    2.500    0.000    0.000    0.000    0.000 
#    0.000    0.000    0.000    0.000    0.000    0.000 
#
# Total GULP energy -178708.007884 kJ/mol
# GULP energy per Si atom -5584.625246 kJ/mol
# Density = 2.266958 g / cm^3
# Si number density = 22.721290 Si / 1000 Ang^3
#
#
#
# Elastic Constant Matrix: (Units=GPa)
#
#
# Indices 1 2 3 4 5 6 
#
# 1 156.6417 52.9368 24.3473 0.0000 0.0000 0.0000
# 2 52.9368 131.4442 38.8692 0.0000 0.0000 0.0000
# 3 24.3473 38.8692 71.3091 0.0000 0.0000 0.0000
# 4 0.0000 0.0000 0.0000 4.5611 0.0000 0.0000
# 5 0.0000 0.0000 0.0000 0.0000 2322.4993 0.0000
# 6 0.0000 0.0000 0.0000 0.0000 0.0000 -0.7770
#
#
#
# Elastic Compliance Matrix: (Units=1/GPa)
#
#
# Indices 1 2 3 4 5 6 
#
# 1 0.007459 -0.002684 -0.001084 0.000000 0.000000 0.000000
# 2 -0.002684 0.010035 -0.004554 0.000000 0.000000 0.000000
# 3 -0.001084 -0.004554 0.016876 0.000000 0.000000 0.000000
# 4 0.000000 0.000000 0.000000 0.219248 0.000000 0.000000
# 5 0.000000 0.000000 0.000000 0.000000 0.000431 0.000000
# 6 0.000000 0.000000 0.000000 0.000000 0.000000 -1.286984
#
#
# Mechanical properties :
#
#
# Convention : Reuss Voigt Hill
#
# Bulk Modulus (GPa) = 56.40954 65.74463 61.07708
# Shear Modulus (GPa) = -4.94861 481.47279 238.26209
#
# Velocity S-wave (km/s) = -1.47739 14.57271 10.25137
# Velocity P-wave (km/s) = 4.68726 17.66776 12.92517
#
# Compressibility (1/GPa) = 0.01772750
#
# Stress axis : x y z
#
# Youngs Moduli (GPa) = 134.05889 99.65015 59.25666
#
# Poissons Ratio (x) = 0.26742 0.06424
# Poissons Ratio (y) = 0.35975 0.26984
# Poissons Ratio (z) = 0.14534 0.45378
#
# Static dielectric constant tensor:
#      x y z
#    x 2.090770 0.000000 0.000000 
#    y 0.000000 1.853160 0.000000 
#    z 0.000000 0.000000 1.869940 
# 
# From -- ./inp_files/8115.got.cif
#   From: 2010.05.17/outbox.cif.g08.bks.cpg/sg67_5_cif.got.tgz:8115.got - 2010.06.03 18:28:57.
