data_PCOD9501678
_publ_section_title
;
Structure prediction by ZEFSAII (Michael W. Deem and Ramdas Pophale) SiO2 
 PCOD9501678
Probable space group: C M M A
;
_chemical_formula_sum "Si O2"
_cell_formula_units_Z 48
_cell_length_a 14.132766
_cell_length_b 10.643874
_cell_length_c 13.303852
_cell_angle_alpha 90.000000
_cell_angle_beta 90.000000
_cell_angle_gamma 90.000000
_cell_volume 2001.263608
_symmetry_space_group_name_H-M "C M M A"
_symmetry_group_IT_number 67
_symmetry_cell_setting 'orthorhombic'
loop_
_space_group_symop_operation_xyz
x,y,z
-x,1/2-y,z
x,-y,-z
-x,1/2+y,-z
-x,-y,-z
x,1/2+y,-z
-x,y,z
x,1/2-y,z
1/2+x,1/2+y,z
1/2-x,-y,z
1/2+x,1/2-y,-z
1/2-x,y,-z
1/2-x,1/2-y,-z
1/2+x,y,-z
1/2-x,1/2+y,z
1/2+x,-y,z
loop_
_atom_site_type_symbol
_atom_site_label
_atom_site_fract_x
_atom_site_fract_y
_atom_site_fract_z
Si Si1 0.115129 0.250000 0.573803
Si Si2 0.851574 0.885561 0.055122
Si Si3 0.884928 0.750000 0.657448
Si Si4 0.615040 0.527919 0.724135
O O1 0.146690 0.250000 0.458607
O O2 0.141701 0.123796 0.634559
O O3 0.000000 0.250000 0.570990
O O4 0.896546 0.750000 0.043923
O O5 0.845483 0.918505 0.171956
O O6 0.750000 0.877171 0.000000
O O7 0.900996 0.000000 0.000000
O O8 0.856654 0.617191 0.706746
O O9 0.000000 0.750000 0.658344
O O10 0.500000 0.531038 0.730993
#
# Coordination Sequence:
#
# PCOD9501678 Si02
#       4
#     8  16   8  16
#     4   9  16  30  52  80 118 156 185 220 273 333
#     4  10  22  39  57  79 105 145 193 237 287 336
#     4   9  18  30  50  84 122 154 183 220 273 339
#     4  10  19  33  54  84 119 150 186 232 276 326
#
# _framework density 23.984846000000001
#
# number of rings (size 3 to 8) (size 9 to 14) (size 15 to 20)
#    0.000    2.333    1.667    1.000    2.333    4.667 
#    0.000    0.000    0.000    0.000    0.000   28.000 
#    0.000    0.000    0.000    0.000    0.000    2.000 
#
# Total GULP energy -134220.491001 kJ/mol
# GULP energy per Si atom -5592.520458 kJ/mol
# Density = 2.393026 g / cm^3
# Si number density = 23.984846 Si / 1000 Ang^3
#
#
#
# Elastic Constant Matrix: (Units=GPa)
#
#
# Indices 1 2 3 4 5 6 
#
# 1 115.8686 17.8258 19.7406 0.0000 0.0000 0.0000
# 2 17.8258 280.8665 83.4565 0.0000 0.0000 0.0000
# 3 19.7406 83.4565 134.9358 0.0000 0.0000 0.0000
# 4 0.0000 0.0000 0.0000 56.8453 0.0000 0.0000
# 5 0.0000 0.0000 0.0000 0.0000 31.4313 0.0000
# 6 0.0000 0.0000 0.0000 0.0000 0.0000 -22.7750
#
#
#
# Elastic Compliance Matrix: (Units=1/GPa)
#
#
# Indices 1 2 3 4 5 6 
#
# 1 0.008862 -0.000217 -0.001162 0.000000 0.000000 0.000000
# 2 -0.000217 0.004367 -0.002669 0.000000 0.000000 0.000000
# 3 -0.001162 -0.002669 0.009232 0.000000 0.000000 0.000000
# 4 0.000000 0.000000 0.000000 0.017592 0.000000 0.000000
# 5 0.000000 0.000000 0.000000 0.000000 0.031815 0.000000
# 6 0.000000 0.000000 0.000000 0.000000 0.000000 -0.043908
#
#
# Mechanical properties :
#
#
# Convention : Reuss Voigt Hill
#
# Bulk Modulus (GPa) = 69.61945 85.96852 77.79398
# Shear Modulus (GPa) = 122.41167 40.47685 81.44426
#
# Velocity S-wave (km/s) = 7.15178 4.11250 5.83355
# Velocity P-wave (km/s) = 9.86340 7.64662 8.82489
#
# Compressibility (1/GPa) = 0.01436380
#
# Stress axis : x y z
#
# Youngs Moduli (GPa) = 112.84298 228.97025 108.31926
#
# Poissons Ratio (x) = 0.04971 0.12589
# Poissons Ratio (y) = 0.02450 0.28915
# Poissons Ratio (z) = 0.13114 0.61122
#
# Static dielectric constant tensor:
#      x y z
#    x 1.989380 0.000000 0.000000 
#    y 0.000000 1.920680 0.000000 
#    z 0.000000 0.000000 1.841150 
# 
# From -- ./inp_files/16141.got.cif
#   From: 2010.05.17/outbox.cif.g08.bks.cpg/sg67_9_cif.got.tgz:16141.got - 2010.06.03 18:28:57.
