data_PCOD9501482
_publ_section_title
;
Structure prediction by ZEFSAII (Michael W. Deem and Ramdas Pophale) SiO2 
 PCOD9501482
Probable space group: C M M A
;
_chemical_formula_sum "Si O2"
_cell_formula_units_Z 88
_cell_length_a 8.437152
_cell_length_b 25.618705
_cell_length_c 22.632822
_cell_angle_alpha 90.000000
_cell_angle_beta 90.000000
_cell_angle_gamma 90.000000
_cell_volume 4892.059763
_symmetry_space_group_name_H-M "C M M A"
_symmetry_group_IT_number 67
_symmetry_cell_setting 'orthorhombic'
loop_
_space_group_symop_operation_xyz
x,y,z
-x,1/2-y,z
x,-y,-z
-x,1/2+y,-z
-x,-y,-z
x,1/2+y,-z
-x,y,z
x,1/2-y,z
1/2+x,1/2+y,z
1/2-x,-y,z
1/2+x,1/2-y,-z
1/2-x,y,-z
1/2-x,1/2-y,-z
1/2+x,y,-z
1/2-x,1/2+y,z
1/2+x,-y,z
loop_
_atom_site_type_symbol
_atom_site_label
_atom_site_fract_x
_atom_site_fract_y
_atom_site_fract_z
Si Si1 0.810700 0.556991 0.798321
Si Si2 0.308695 0.942982 0.337346
Si Si3 0.308931 0.665041 0.839107
Si Si4 0.191608 0.361342 0.435874
Si Si5 0.691040 0.250000 0.609535
Si Si6 0.308586 0.250000 0.256745
Si Si7 0.308765 0.250000 0.066551
O O1 0.750000 0.500000 0.817434
O O2 0.754187 0.565472 0.730274
O O3 0.754029 0.606580 0.835396
O O4 0.000000 0.555737 0.798090
O O5 0.500000 0.942629 0.336747
O O6 0.254328 0.899245 0.383194
O O7 0.250000 0.000000 0.355837
O O8 0.500000 0.663540 0.839095
O O9 0.260090 0.699224 0.781609
O O10 0.257756 0.699157 0.895736
O O11 0.250000 0.378318 0.500000
O O12 0.248198 0.302691 0.421816
O O13 0.000000 0.361396 0.435842
O O14 0.500000 0.250000 0.607088
O O15 0.739662 0.250000 0.678015
O O16 0.500000 0.250000 0.259930
O O17 0.500000 0.250000 0.066620
O O18 0.250000 0.250000 0.000000
#
# Coordination Sequence:
#
# PCOD9501482 Si02
#       7
#    16  16  16  16   8   8   8
#     4  10  19  32  52  77 104 135 168 205 251 303
#     4   9  19  34  50  70  95 122 156 198 245 294
#     4   9  18  33  51  76 109 139 168 206 249 293
#     4  10  21  35  49  66  89 119 156 199 245 296
#     4  10  20  34  50  68  94 122 153 200 251 298
#     4   9  18  31  50  75 101 129 161 200 250 303
#     4   9  19  35  55  79 110 145 178 212 248 285
#
# _framework density 17.988333999999998
#
# number of rings (size 3 to 8) (size 9 to 14) (size 15 to 20)
#    0.000    2.545    0.000    3.000    0.000    5.455 
#    0.000    3.636    0.000    0.545    0.000    3.818 
#    0.000    0.000    0.000    0.000    0.000    0.000 
#
# Total GULP energy -245487.683803 kJ/mol
# GULP energy per Si atom -5579.265541 kJ/mol
# Density = 1.794739 g / cm^3
# Si number density = 17.988334 Si / 1000 Ang^3
#
#
#
# Elastic Constant Matrix: (Units=GPa)
#
#
# Indices 1 2 3 4 5 6 
#
# 1 8.6902 22.0940 9.4597 0.0000 0.0000 0.0000
# 2 22.0940 157.8375 55.9283 0.0000 0.0000 0.0000
# 3 9.4597 55.9283 79.4899 0.0000 0.0000 0.0000
# 4 0.0000 0.0000 0.0000 0.2165 0.0000 0.0000
# 5 0.0000 0.0000 0.0000 0.0000 27.2348 0.0000
# 6 0.0000 0.0000 0.0000 0.0000 0.0000 25.8106
#
#
#
# Elastic Compliance Matrix: (Units=1/GPa)
#
#
# Indices 1 2 3 4 5 6 
#
# 1 0.180084 -0.023464 -0.004922 0.000000 0.000000 0.000000
# 2 -0.023464 0.011497 -0.005297 0.000000 0.000000 0.000000
# 3 -0.004922 -0.005297 0.016893 0.000000 0.000000 0.000000
# 4 0.000000 0.000000 0.000000 4.618128 0.000000 0.000000
# 5 0.000000 0.000000 0.000000 0.000000 0.036718 0.000000
# 6 0.000000 0.000000 0.000000 0.000000 0.000000 0.038744
#
#
# Mechanical properties :
#
#
# Convention : Reuss Voigt Hill
#
# Bulk Modulus (GPa) = 7.08675 46.77573 26.93124
# Shear Modulus (GPa) = 0.99672 21.22142 11.10907
#
# Velocity S-wave (km/s) = 0.74518 3.43845 2.48779
# Velocity P-wave (km/s) = 2.16531 6.46713 4.82246
#
# Compressibility (1/GPa) = 0.14110849
#
# Stress axis : x y z
#
# Youngs Moduli (GPa) = 5.55295 86.97920 59.19702
#
# Poissons Ratio (x) = 2.04089 0.29136
# Poissons Ratio (y) = 0.13029 0.31356
# Poissons Ratio (z) = 0.02733 0.46071
#
# Static dielectric constant tensor:
#      x y z
#    x 1.622000 0.000000 0.000000 
#    y 0.000000 1.617380 0.000000 
#    z 0.000000 0.000000 1.593650 
# 
# From -- ./inp_files/36994.got.cif
#   From: 2010.05.17/outbox.cif.g08.bks.cpg/sg67_19_cif.got.tgz:36994.got - 2010.06.03 18:28:57.
