data_PCOD9501151
_publ_section_title
;
Structure prediction by ZEFSAII (Michael W. Deem and Ramdas Pophale) SiO2 
 PCOD9501151
Probable space group: C M M A
;
_chemical_formula_sum "Si O2"
_cell_formula_units_Z 88
_cell_length_a 15.854168
_cell_length_b 7.508267
_cell_length_c 32.417391
_cell_angle_alpha 90.000000
_cell_angle_beta 90.000000
_cell_angle_gamma 90.000000
_cell_volume 3858.879554
_symmetry_space_group_name_H-M "C M M A"
_symmetry_group_IT_number 67
_symmetry_cell_setting 'orthorhombic'
loop_
_space_group_symop_operation_xyz
x,y,z
-x,1/2-y,z
x,-y,-z
-x,1/2+y,-z
-x,-y,-z
x,1/2+y,-z
-x,y,z
x,1/2-y,z
1/2+x,1/2+y,z
1/2-x,-y,z
1/2+x,1/2-y,-z
1/2-x,y,-z
1/2-x,1/2-y,-z
1/2+x,y,-z
1/2-x,1/2+y,z
1/2+x,-y,z
loop_
_atom_site_type_symbol
_atom_site_label
_atom_site_fract_x
_atom_site_fract_y
_atom_site_fract_z
Si Si1 0.651004 0.041514 0.545094
Si Si2 0.898670 0.957405 0.633127
Si Si3 0.400387 0.533267 0.189808
Si Si4 0.899385 0.465949 0.278804
Si Si5 0.000000 0.963728 0.951664
Si Si6 0.156555 0.463020 0.101667
O O1 0.636556 0.250000 0.549077
O O2 0.622437 0.959955 0.588711
O O3 0.613308 0.000000 0.500000
O O4 0.750000 0.000000 0.542578
O O5 0.870403 0.750000 0.632458
O O6 0.866728 0.034008 0.676900
O O7 0.000000 0.956835 0.635757
O O8 0.500000 0.488353 0.186294
O O9 0.396638 0.750000 0.190620
O O10 0.366170 0.471327 0.234403
O O11 0.355068 0.468753 0.148535
O O12 0.891987 0.250000 0.280000
O O13 0.000000 0.504060 0.277346
O O14 0.916937 0.031333 0.928074
O O15 0.000000 0.750000 0.947326
O O16 0.000000 0.000000 0.000000
O O17 0.146742 0.250000 0.104057
O O18 0.250000 0.500000 0.086247
#
# Coordination Sequence:
#
# PCOD9501151 Si02
#       6
#    16  16  16  16   8  16
#     4  10  19  31  46  61  82 112 147 186 229 280
#     4   8  14  25  41  64  91 115 145 189 235 275
#     4   8  12  23  46  71  96 130 169 203 239 289
#     4   7  10  18  37  65  92 119 153 191 230 276
#     4  10  22  40  60  80 108 144 182 222 265 314
#     4  10  20  35  55  81 111 141 176 220 265 309
#
# _framework density 22.804545000000001
#
# number of rings (size 3 to 8) (size 9 to 14) (size 15 to 20)
#    0.000    3.273    0.909    3.273    0.000    1.455 
#    0.000    2.727    0.000    1.636    0.000    1.273 
#    0.000    8.727    0.000    0.000    0.000    0.000 
#
# Total GULP energy -245148.482180 kJ/mol
# GULP energy per Si atom -5571.556413 kJ/mol
# Density = 2.275264 g / cm^3
# Si number density = 22.804545 Si / 1000 Ang^3
#
#
#
# Elastic Constant Matrix: (Units=GPa)
#
#
# Indices 1 2 3 4 5 6 
#
# 1 71.6569 -3.3762 74.0028 0.0000 0.0000 0.0000
# 2 -3.3762 61.7489 14.3928 0.0000 0.0000 0.0000
# 3 74.0028 14.3928 250.4474 0.0000 0.0000 0.0000
# 4 0.0000 0.0000 0.0000 9.4349 0.0000 0.0000
# 5 0.0000 0.0000 0.0000 0.0000 -86.7756 0.0000
# 6 0.0000 0.0000 0.0000 0.0000 0.0000 0.7963
#
#
#
# Elastic Compliance Matrix: (Units=1/GPa)
#
#
# Indices 1 2 3 4 5 6 
#
# 1 0.020477 0.002564 -0.006198 0.000000 0.000000 0.000000
# 2 0.002564 0.016736 -0.001719 0.000000 0.000000 0.000000
# 3 -0.006198 -0.001719 0.005923 0.000000 0.000000 0.000000
# 4 0.000000 0.000000 0.000000 0.105990 0.000000 0.000000
# 5 0.000000 0.000000 0.000000 0.000000 -0.011524 0.000000
# 6 0.000000 0.000000 0.000000 0.000000 0.000000 1.255747
#
#
# Mechanical properties :
#
#
# Convention : Reuss Voigt Hill
#
# Bulk Modulus (GPa) = 30.83620 61.54357 46.18988
# Shear Modulus (GPa) = 3.53391 4.61337 4.07364
#
# Velocity S-wave (km/s) = 1.24620 1.42387 1.33799
# Velocity P-wave (km/s) = 3.95247 5.45428 4.76294
#
# Compressibility (1/GPa) = 0.03242942
#
# Stress axis : x y z
#
# Youngs Moduli (GPa) = 48.83499 59.75283 168.83141
#
# Poissons Ratio (x) = -0.15322 1.04642
# Poissons Ratio (y) = -0.12523 0.29030
# Poissons Ratio (z) = 0.30268 0.10274
#
# Static dielectric constant tensor:
#      x y z
#    x 1.817320 0.000000 0.000000 
#    y 0.000000 1.924680 0.000000 
#    z 0.000000 0.000000 1.932950 
# 
# From -- ./inp_files/45796.got.cif
#   From: 2010.05.17/outbox.cif.g08.bks.cpg/sg67_23_cif.got.tgz:45796.got - 2010.06.03 18:28:57.
