data_PCOD9501143
_publ_section_title
;
Structure prediction by ZEFSAII (Michael W. Deem and Ramdas Pophale) SiO2 
 PCOD9501143
Probable space group: C M M A
;
_chemical_formula_sum "Si O2"
_cell_formula_units_Z 96
_cell_length_a 10.802209
_cell_length_b 14.811125
_cell_length_c 28.429065
_cell_angle_alpha 90.000000
_cell_angle_beta 90.000000
_cell_angle_gamma 90.000000
_cell_volume 4548.447638
_symmetry_space_group_name_H-M "C M M A"
_symmetry_group_IT_number 67
_symmetry_cell_setting 'orthorhombic'
loop_
_space_group_symop_operation_xyz
x,y,z
-x,1/2-y,z
x,-y,-z
-x,1/2+y,-z
-x,-y,-z
x,1/2+y,-z
-x,y,z
x,1/2-y,z
1/2+x,1/2+y,z
1/2-x,-y,z
1/2+x,1/2-y,-z
1/2-x,y,-z
1/2-x,1/2-y,-z
1/2+x,y,-z
1/2-x,1/2+y,z
1/2+x,-y,z
loop_
_atom_site_type_symbol
_atom_site_label
_atom_site_fract_x
_atom_site_fract_y
_atom_site_fract_z
Si Si1 0.858587 0.639720 0.034816
Si Si2 0.749363 0.139678 0.554448
Si Si3 0.000000 0.141306 0.393235
Si Si4 0.140272 0.141134 0.857857
Si Si5 0.500000 0.393207 0.283833
Si Si6 0.000000 0.858804 0.394295
Si Si7 0.000000 0.106864 0.282362
Si Si8 0.750615 0.105780 0.761480
O O1 0.858454 0.750000 0.034172
O O2 0.833128 0.611855 0.088783
O O3 0.000000 0.612417 0.022470
O O4 0.750000 0.609605 0.000000
O O5 0.749030 0.250000 0.555144
O O6 0.750000 0.112360 0.500000
O O7 0.625190 0.109656 0.581153
O O8 0.874536 0.109811 0.580398
O O9 0.000000 0.250000 0.396749
O O10 0.000000 0.118327 0.338320
O O11 0.138505 0.250000 0.858185
O O12 0.234357 0.112765 0.817474
O O13 0.000000 0.110255 0.845637
O O14 0.500000 0.383285 0.339691
O O15 0.500000 0.499668 0.272356
O O16 0.374638 0.354360 0.261634
O O17 0.000000 0.750000 0.397362
O O18 0.875267 0.144707 0.259318
O O19 0.750000 0.000000 0.748786
#
# Coordination Sequence:
#
# PCOD9501143 Si02
#       8
#    16  16   8  16   8   8   8  16
#     4   8  14  26  45  70 100 131 161 197 246 300
#     4   9  17  30  49  73  99 125 155 193 240 293
#     4  10  19  32  50  70  96 127 155 194 245 289
#     4   9  17  31  53  78 101 130 170 213 252 289
#     4  10  20  35  53  69  95 131 168 205 243 296
#     4  10  19  30  50  78  96 119 165 208 237 281
#     4  10  22  35  49  71  99 133 164 199 253 304
#     4  10  20  35  52  71  97 134 172 204 249 307
#
# _framework density 21.106100999999999
#
# number of rings (size 3 to 8) (size 9 to 14) (size 15 to 20)
#    0.000    2.667    0.833    2.500    0.000    3.333 
#    1.500    0.000    0.000    3.500    0.000    2.333 
#    0.000    0.000    0.000    0.000    0.000    0.000 
#
# Total GULP energy -267989.123398 kJ/mol
# GULP energy per Si atom -5583.106737 kJ/mol
# Density = 2.105806 g / cm^3
# Si number density = 21.106101 Si / 1000 Ang^3
#
#
#
# Elastic Constant Matrix: (Units=GPa)
#
#
# Indices 1 2 3 4 5 6 
#
# 1 229.9639 11.0000 128.2139 0.0000 0.0000 0.0000
# 2 11.0000 55.1160 -13.0784 0.0000 0.0000 0.0000
# 3 128.2139 -13.0784 153.3495 0.0000 0.0000 0.0000
# 4 0.0000 0.0000 0.0000 28.5258 0.0000 0.0000
# 5 0.0000 0.0000 0.0000 0.0000 45.2118 0.0000
# 6 0.0000 0.0000 0.0000 0.0000 0.0000 -12.0745
#
#
#
# Elastic Compliance Matrix: (Units=1/GPa)
#
#
# Indices 1 2 3 4 5 6 
#
# 1 0.008783 -0.003568 -0.007648 0.000000 0.000000 0.000000
# 2 -0.003568 0.019967 0.004686 0.000000 0.000000 0.000000
# 3 -0.007648 0.004686 0.013315 0.000000 0.000000 0.000000
# 4 0.000000 0.000000 0.000000 0.035056 0.000000 0.000000
# 5 0.000000 0.000000 0.000000 0.000000 0.022118 0.000000
# 6 0.000000 0.000000 0.000000 0.000000 0.000000 -0.082819
#
#
# Mechanical properties :
#
#
# Convention : Reuss Voigt Hill
#
# Bulk Modulus (GPa) = 34.47533 76.74448 55.60991
# Shear Modulus (GPa) = 127.72109 33.15221 80.43665
#
# Velocity S-wave (km/s) = 7.78750 3.96756 6.18008
# Velocity P-wave (km/s) = 9.86053 7.57819 8.79372
#
# Compressibility (1/GPa) = 0.02900625
#
# Stress axis : x y z
#
# Youngs Moduli (GPa) = 113.85587 50.08156 75.10433
#
# Poissons Ratio (x) = 0.17867 0.57437
# Poissons Ratio (y) = 0.40619 -0.35192
# Poissons Ratio (z) = 0.87073 -0.23467
#
# Static dielectric constant tensor:
#      x y z
#    x 1.756280 0.000000 0.000000 
#    y 0.000000 1.771750 0.000000 
#    z 0.000000 0.000000 1.715640 
# 
# From -- ./inp_files/37966.got.cif
#   From: 2010.05.17/outbox.cif.g08.bks.cpg/sg67_19_cif.got.tgz:37966.got - 2010.06.03 18:28:57.
