data_PCOD9501506
_publ_section_title
;
Structure prediction by ZEFSAII (Michael W. Deem and Ramdas Pophale) SiO2 
 PCOD9501506
Probable space group: C M M A
;
_chemical_formula_sum "Si O2"
_cell_formula_units_Z 104
_cell_length_a 9.979432
_cell_length_b 37.774013
_cell_length_c 15.849247
_cell_angle_alpha 90.000000
_cell_angle_beta 90.000000
_cell_angle_gamma 90.000000
_cell_volume 5974.582773
_symmetry_space_group_name_H-M "C M M A"
_symmetry_group_IT_number 67
_symmetry_cell_setting 'orthorhombic'
loop_
_space_group_symop_operation_xyz
x,y,z
-x,1/2-y,z
x,-y,-z
-x,1/2+y,-z
-x,-y,-z
x,1/2+y,-z
-x,y,z
x,1/2-y,z
1/2+x,1/2+y,z
1/2-x,-y,z
1/2+x,1/2-y,-z
1/2-x,y,-z
1/2-x,1/2-y,-z
1/2+x,y,-z
1/2-x,1/2+y,z
1/2+x,-y,z
loop_
_atom_site_type_symbol
_atom_site_label
_atom_site_fract_x
_atom_site_fract_y
_atom_site_fract_z
Si Si1 0.652024 0.391847 0.384563
Si Si2 0.658942 0.893423 0.917936
Si Si3 0.750000 0.833385 0.500000
Si Si4 0.838613 0.843232 0.235552
Si Si5 0.156119 0.292094 0.334299
Si Si6 0.345940 0.967976 0.827097
Si Si7 0.655507 0.967882 0.622691
O O1 0.500000 0.400917 0.361439
O O2 0.652096 0.361454 0.454801
O O3 0.710258 0.373257 0.301981
O O4 0.710566 0.429767 0.407432
O O5 0.500000 0.893790 0.938043
O O6 0.682577 0.860060 0.855884
O O7 0.687833 0.930092 0.868043
O O8 0.750000 0.891401 0.000000
O O9 0.810269 0.809665 0.574686
O O10 0.754522 0.809282 0.264765
O O11 0.000000 0.837775 0.247290
O O12 0.175381 0.250000 0.339558
O O13 0.000000 0.299262 0.314744
O O14 0.500000 0.976164 0.849327
O O15 0.339549 0.965420 0.725249
O O16 0.250000 0.000000 0.854149
O O17 0.500000 0.973862 0.597722
O O18 0.750000 0.000000 0.597128
#
# Coordination Sequence:
#
# PCOD9501506 Si02
#       7
#    16  16   8  16  16  16  16
#     4   9  16  30  51  70  95 133 173 211 251 297
#     4  10  20  34  52  76 106 139 175 220 265 311
#     4  10  19  32  53  78 108 140 168 198 249 308
#     4   9  18  35  56  76 101 138 178 210 251 310
#     4  10  21  36  55  83 115 138 163 206 255 305
#     4   9  17  30  48  69  99 133 173 218 264 310
#     4   9  16  29  48  68  91 127 173 218 258 296
#
# _framework density 17.407073
#
# number of rings (size 3 to 8) (size 9 to 14) (size 15 to 20)
#    0.000    2.615    1.538    0.692    0.000    2.462 
#    0.000    5.769    0.000    2.308    0.000    0.000 
#    0.000    0.000    0.000    0.000    0.000    0.000 
#
# Total GULP energy -289595.536531 kJ/mol
# GULP energy per Si atom -5569.144933 kJ/mol
# Density = 1.736745 g / cm^3
# Si number density = 17.407073 Si / 1000 Ang^3
#
#
#
# Elastic Constant Matrix: (Units=GPa)
#
#
# Indices 1 2 3 4 5 6 
#
# 1 74.8182 68.2736 46.6537 0.0000 0.0000 0.0000
# 2 68.2736 136.6086 43.3643 0.0000 0.0000 0.0000
# 3 46.6537 43.3643 84.4033 0.0000 0.0000 0.0000
# 4 0.0000 0.0000 0.0000 21.2058 0.0000 0.0000
# 5 0.0000 0.0000 0.0000 0.0000 8.6794 0.0000
# 6 0.0000 0.0000 0.0000 0.0000 0.0000 29.2367
#
#
#
# Elastic Compliance Matrix: (Units=1/GPa)
#
#
# Indices 1 2 3 4 5 6 
#
# 1 0.031385 -0.012162 -0.011099 0.000000 0.000000 0.000000
# 2 -0.012162 0.013460 -0.000193 0.000000 0.000000 0.000000
# 3 -0.011099 -0.000193 0.018082 0.000000 0.000000 0.000000
# 4 0.000000 0.000000 0.000000 0.047157 0.000000 0.000000
# 5 0.000000 0.000000 0.000000 0.000000 0.115216 0.000000
# 6 0.000000 0.000000 0.000000 0.000000 0.000000 0.034204
#
#
# Mechanical properties :
#
#
# Convention : Reuss Voigt Hill
#
# Bulk Modulus (GPa) = 62.42831 68.04594 65.23712
# Shear Modulus (GPa) = 16.03842 20.99362 18.51602
#
# Velocity S-wave (km/s) = 3.03871 3.47658 3.26499
# Velocity P-wave (km/s) = 6.94646 7.43581 7.19529
#
# Compressibility (1/GPa) = 0.01601837
#
# Stress axis : x y z
#
# Youngs Moduli (GPa) = 31.86212 74.29591 55.30345
#
# Poissons Ratio (x) = 0.90360 0.61384
# Poissons Ratio (y) = 0.38751 0.01065
# Poissons Ratio (z) = 0.35365 0.01431
#
# Static dielectric constant tensor:
#      x y z
#    x 1.599230 0.000000 0.000000 
#    y 0.000000 1.616090 0.000000 
#    z 0.000000 0.000000 1.600500 
# 
# From -- ./inp_files/26441.got.cif
#   From: 2010.05.17/outbox.cif.g08.bks.cpg/sg67_14_cif.got.tgz:26441.got - 2010.06.03 18:28:57.
