data_PCOD9501214
_publ_section_title
;
Structure prediction by ZEFSAII (Michael W. Deem and Ramdas Pophale) SiO2 
 PCOD9501214
Probable space group: C M M A
;
_chemical_formula_sum "Si O2"
_cell_formula_units_Z 96
_cell_length_a 32.869323
_cell_length_b 8.608588
_cell_length_c 19.139618
_cell_angle_alpha 90.000000
_cell_angle_beta 90.000000
_cell_angle_gamma 90.000000
_cell_volume 5415.716826
_symmetry_space_group_name_H-M "C M M A"
_symmetry_group_IT_number 67
_symmetry_cell_setting 'orthorhombic'
loop_
_space_group_symop_operation_xyz
x,y,z
-x,1/2-y,z
x,-y,-z
-x,1/2+y,-z
-x,-y,-z
x,1/2+y,-z
-x,y,z
x,1/2-y,z
1/2+x,1/2+y,z
1/2-x,-y,z
1/2+x,1/2-y,-z
1/2-x,y,-z
1/2-x,1/2-y,-z
1/2+x,y,-z
1/2-x,1/2+y,z
1/2+x,-y,z
loop_
_atom_site_type_symbol
_atom_site_label
_atom_site_fract_x
_atom_site_fract_y
_atom_site_fract_z
Si Si1 0.128766 0.936434 0.921123
Si Si2 0.956349 0.062471 0.579372
Si Si3 0.455631 0.063745 0.079483
Si Si4 0.632642 0.063277 0.420941
Si Si5 0.293407 0.937093 0.168032
Si Si6 0.206441 0.436059 0.330204
O O1 0.127722 0.750000 0.923536
O O2 0.167891 0.988098 0.876999
O O3 0.085875 0.995531 0.889652
O O4 0.132077 0.000000 0.000000
O O5 0.956374 0.250000 0.577607
O O6 0.912182 0.015430 0.608274
O O7 0.000000 0.012911 0.611354
O O8 0.956512 0.000000 0.500000
O O9 0.500000 0.022366 0.110750
O O10 0.452671 0.250000 0.077500
O O11 0.456355 0.000000 0.000000
O O12 0.634547 0.250000 0.422752
O O13 0.635774 0.000000 0.500000
O O14 0.669234 0.998815 0.375147
O O15 0.292057 0.750000 0.166108
O O16 0.298121 0.985208 0.249017
O O17 0.250000 0.000000 0.142337
O O18 0.207058 0.250000 0.332932
O O19 0.250000 0.500000 0.355178
#
# Coordination Sequence:
#
# PCOD9501214 Si02
#       6
#    16  16  16  16  16  16
#     4  10  19  31  48  73 100 126 158 196 239 283
#     4   8  14  25  42  65  94 125 155 187 224 269
#     4   9  16  26  42  66  95 126 159 194 234 280
#     4  10  19  31  49  75 102 128 159 196 239 281
#     4   9  20  36  53  71  93 124 160 196 237 287
#     4  10  20  36  54  71  93 123 160 199 239 286
#
# _framework density 17.726185000000001
#
# number of rings (size 3 to 8) (size 9 to 14) (size 15 to 20)
#    0.000    2.667    0.000    3.000    0.000    4.333 
#    0.000    3.333    0.000    1.000    0.000    4.667 
#    0.000    0.000    0.000    0.000    0.000    0.000 
#
# Total GULP energy -267316.247280 kJ/mol
# GULP energy per Si atom -5569.088485 kJ/mol
# Density = 1.768584 g / cm^3
# Si number density = 17.726185 Si / 1000 Ang^3
#
#
#
# Elastic Constant Matrix: (Units=GPa)
#
#
# Indices 1 2 3 4 5 6 
#
# 1 240.0412 45.1368 62.8008 0.0000 0.0000 0.0000
# 2 45.1368 41.0952 14.8784 0.0000 0.0000 0.0000
# 3 62.8008 14.8784 31.5890 0.0000 0.0000 0.0000
# 4 0.0000 0.0000 0.0000 15.5491 0.0000 0.0000
# 5 0.0000 0.0000 0.0000 0.0000 -12.0409 0.0000
# 6 0.0000 0.0000 0.0000 0.0000 0.0000 25.8893
#
#
#
# Elastic Compliance Matrix: (Units=1/GPa)
#
#
# Indices 1 2 3 4 5 6 
#
# 1 0.009252 -0.004223 -0.016404 0.000000 0.000000 0.000000
# 2 -0.004223 0.031263 -0.006330 0.000000 0.000000 0.000000
# 3 -0.016404 -0.006330 0.067250 0.000000 0.000000 0.000000
# 4 0.000000 0.000000 0.000000 0.064313 0.000000 0.000000
# 5 0.000000 0.000000 0.000000 0.000000 -0.083050 0.000000
# 6 0.000000 0.000000 0.000000 0.000000 0.000000 0.038626
#
#
# Mechanical properties :
#
#
# Convention : Reuss Voigt Hill
#
# Bulk Modulus (GPa) = 18.56957 62.03971 40.30464
# Shear Modulus (GPa) = 25.06037 18.54012 21.80024
#
# Velocity S-wave (km/s) = 3.76406 3.23757 3.51070
# Velocity P-wave (km/s) = 5.42120 7.00362 6.26259
#
# Compressibility (1/GPa) = 0.05385155
#
# Stress axis : x y z
#
# Youngs Moduli (GPa) = 108.08877 31.98624 14.86981
#
# Poissons Ratio (x) = 0.13506 0.24392
# Poissons Ratio (y) = 0.45641 0.09413
# Poissons Ratio (z) = 1.77309 0.20249
#
# Static dielectric constant tensor:
#      x y z
#    x 1.663210 0.000000 0.000000 
#    y 0.000000 1.236900 0.000000 
#    z 0.000000 0.000000 1.577970 
# 
# From -- ./inp_files/42699.got.cif
#   From: 2010.05.17/outbox.cif.g08.bks.cpg/sg67_22_cif.got.tgz:42699.got - 2010.06.03 18:28:57.
