data_PCOD9501769
_publ_section_title
;
Structure prediction by ZEFSAII (Michael W. Deem and Ramdas Pophale) SiO2 
 PCOD9501769
Probable space group: C M M A
;
_chemical_formula_sum "Si O2"
_cell_formula_units_Z 88
_cell_length_a 22.592276
_cell_length_b 8.654359
_cell_length_c 24.493287
_cell_angle_alpha 90.000000
_cell_angle_beta 90.000000
_cell_angle_gamma 90.000000
_cell_volume 4788.968308
_symmetry_space_group_name_H-M "C M M A"
_symmetry_group_IT_number 67
_symmetry_cell_setting 'orthorhombic'
loop_
_space_group_symop_operation_xyz
x,y,z
-x,1/2-y,z
x,-y,-z
-x,1/2+y,-z
-x,-y,-z
x,1/2+y,-z
-x,y,z
x,1/2-y,z
1/2+x,1/2+y,z
1/2-x,-y,z
1/2+x,1/2-y,-z
1/2-x,y,-z
1/2-x,1/2-y,-z
1/2+x,y,-z
1/2-x,1/2+y,z
1/2+x,-y,z
loop_
_atom_site_type_symbol
_atom_site_label
_atom_site_fract_x
_atom_site_fract_y
_atom_site_fract_z
Si Si1 0.893201 0.063234 0.641679
Si Si2 0.500000 0.435704 0.438701
Si Si3 0.429871 0.071758 0.239858
Si Si4 0.815106 0.067565 0.445909
Si Si5 0.430924 0.566201 0.121613
Si Si6 0.813755 0.435690 0.938293
O O1 0.890887 0.250000 0.642378
O O2 0.945218 0.018219 0.599729
O O3 0.901381 0.013594 0.704079
O O4 0.838425 0.989453 0.611749
O O5 0.500000 0.250000 0.443189
O O6 0.500000 0.500000 0.500000
O O7 0.500000 0.076202 0.251317
O O8 0.411078 0.250000 0.229236
O O9 0.421578 0.973171 0.185501
O O10 0.816023 0.250000 0.450401
O O11 0.847561 0.000000 0.500000
O O12 0.750000 0.000000 0.448115
O O13 0.500000 0.515636 0.108397
O O14 0.428768 0.750000 0.112383
O O15 0.375042 0.489274 0.090712
O O16 0.810986 0.250000 0.938192
O O17 0.750000 0.500000 0.915900
O O18 0.817125 0.500000 0.000000
#
# Coordination Sequence:
#
# PCOD9501769 Si02
#       6
#    16   8  16  16  16  16
#     4  10  19  34  54  77 106 138 174 217 267 325
#     4  10  20  32  48  74 106 138 169 210 263 320
#     4   9  17  33  56  80 109 148 188 228 278 333
#     4  11  22  37  55  74  97 130 171 218 271 329
#     4  10  21  37  58  87 122 158 200 248 292 343
#     4  11  22  39  63  90 123 161 200 243 295 353
#
# _framework density 18.375565000000002
#
# number of rings (size 3 to 8) (size 9 to 14) (size 15 to 20)
#    0.000    1.818    0.909    5.455    0.000    4.364 
#    0.000    0.909    0.000    4.364    0.000    0.000 
#    0.000    0.000    0.000    0.000    0.000    0.000 
#
# Total GULP energy -245166.376912 kJ/mol
# GULP energy per Si atom -5571.963112 kJ/mol
# Density = 1.833374 g / cm^3
# Si number density = 18.375565 Si / 1000 Ang^3
#
#
#
# Elastic Constant Matrix: (Units=GPa)
#
#
# Indices 1 2 3 4 5 6 
#
# 1 115.9897 49.4845 64.2137 0.0000 0.0000 0.0000
# 2 49.4845 46.8916 37.6287 0.0000 0.0000 0.0000
# 3 64.2137 37.6287 96.4612 0.0000 0.0000 0.0000
# 4 0.0000 0.0000 0.0000 42.2423 0.0000 0.0000
# 5 0.0000 0.0000 0.0000 0.0000 36.9104 0.0000
# 6 0.0000 0.0000 0.0000 0.0000 0.0000 19.5155
#
#
#
# Elastic Compliance Matrix: (Units=1/GPa)
#
#
# Indices 1 2 3 4 5 6 
#
# 1 0.018279 -0.013866 -0.006759 0.000000 0.000000 0.000000
# 2 -0.013866 0.041561 -0.006982 0.000000 0.000000 0.000000
# 3 -0.006759 -0.006982 0.017590 0.000000 0.000000 0.000000
# 4 0.000000 0.000000 0.000000 0.023673 0.000000 0.000000
# 5 0.000000 0.000000 0.000000 0.000000 0.027093 0.000000
# 6 0.000000 0.000000 0.000000 0.000000 0.000000 0.051241
#
#
# Mechanical properties :
#
#
# Convention : Reuss Voigt Hill
#
# Bulk Modulus (GPa) = 45.01318 62.44405 53.72862
# Shear Modulus (GPa) = 20.65626 26.93470 23.79548
#
# Velocity S-wave (km/s) = 3.35642 3.83272 3.60245
# Velocity P-wave (km/s) = 6.29048 7.32408 6.82687
#
# Compressibility (1/GPa) = 0.02221571
#
# Stress axis : x y z
#
# Youngs Moduli (GPa) = 54.70749 24.06092 56.84937
#
# Poissons Ratio (x) = 0.33362 0.38427
# Poissons Ratio (y) = 0.75855 0.39695
# Poissons Ratio (z) = 0.36979 0.16800
#
# Static dielectric constant tensor:
#      x y z
#    x 1.686290 0.000000 0.000000 
#    y 0.000000 1.627330 0.000000 
#    z 0.000000 0.000000 1.612830 
# 
# From -- ./inp_files/42374.got.cif
#   From: 2010.05.17/outbox.cif.g08.bks.cpg/sg67_22_cif.got.tgz:42374.got - 2010.06.03 18:28:57.
