data_PCOD9501347
_publ_section_title
;
Structure prediction by ZEFSAII (Michael W. Deem and Ramdas Pophale) SiO2 
 PCOD9501347
Probable space group: C M M A
;
_chemical_formula_sum "Si O2"
_cell_formula_units_Z 80
_cell_length_a 28.319554
_cell_length_b 14.925327
_cell_length_c 7.779179
_cell_angle_alpha 90.000000
_cell_angle_beta 90.000000
_cell_angle_gamma 90.000000
_cell_volume 3288.092520
_symmetry_space_group_name_H-M "C M M A"
_symmetry_group_IT_number 67
_symmetry_cell_setting 'orthorhombic'
loop_
_space_group_symop_operation_xyz
x,y,z
-x,1/2-y,z
x,-y,-z
-x,1/2+y,-z
-x,-y,-z
x,1/2+y,-z
-x,y,z
x,1/2-y,z
1/2+x,1/2+y,z
1/2-x,-y,z
1/2+x,1/2-y,-z
1/2-x,y,-z
1/2-x,1/2-y,-z
1/2+x,y,-z
1/2-x,1/2+y,z
1/2+x,-y,z
loop_
_atom_site_type_symbol
_atom_site_label
_atom_site_fract_x
_atom_site_fract_y
_atom_site_fract_z
Si Si1 0.596485 0.645999 0.276743
Si Si2 0.000000 0.084445 0.126711
Si Si3 0.500000 0.348279 0.218682
Si Si4 0.200056 0.640812 0.303345
Si Si5 0.400414 0.854027 0.689537
Si Si6 0.301497 0.141104 0.712082
O O1 0.591636 0.750000 0.222421
O O2 0.548726 0.595728 0.228290
O O3 0.601377 0.645848 0.483362
O O4 0.647936 0.611278 0.214285
O O5 0.000000 0.161332 0.983688
O O6 0.000000 0.000000 0.000000
O O7 0.500000 0.250000 0.307946
O O8 0.549155 0.394554 0.265333
O O9 0.199063 0.750000 0.292071
O O10 0.148937 0.608008 0.240407
O O11 0.249836 0.611470 0.222808
O O12 0.200307 0.619789 0.507679
O O13 0.402405 0.750000 0.748734
O O14 0.302571 0.250000 0.724613
#
# Coordination Sequence:
#
# PCOD9501347 Si02
#       6
#    16   8   8  16  16  16
#     4   9  16  30  51  71  90 121 160 196 236 296
#     4  12  25  36  44  60  90 128 169 208 240 272
#     4  10  19  32  49  70  93 120 153 194 240 284
#     4   7   9  16  33  66 103 120 129 169 232 283
#     4   8  14  25  47  75  99 119 147 190 241 290
#     4   7  10  17  36  66  96 118 139 172 224 281
#
# _framework density 24.330216
#
# number of rings (size 3 to 8) (size 9 to 14) (size 15 to 20)
#    0.000    3.600    0.000    5.100    0.000    1.600 
#    0.000    2.000    0.000    1.200    0.000    9.800 
#    0.000    6.400    0.000    0.400    0.000    0.000 
#
# Total GULP energy -222750.916836 kJ/mol
# GULP energy per Si atom -5568.772921 kJ/mol
# Density = 2.427484 g / cm^3
# Si number density = 24.330216 Si / 1000 Ang^3
#
#
#
# Elastic Constant Matrix: (Units=GPa)
#
#
# Indices 1 2 3 4 5 6 
#
# 1 343.7919 38.4053 28.7815 0.0000 0.0000 0.0000
# 2 38.4053 90.2084 3.3020 0.0000 0.0000 0.0000
# 3 28.7815 3.3020 28.6291 0.0000 0.0000 0.0000
# 4 0.0000 0.0000 0.0000 12.7618 0.0000 0.0000
# 5 0.0000 0.0000 0.0000 0.0000 -55.3464 0.0000
# 6 0.0000 0.0000 0.0000 0.0000 0.0000 -15.6485
#
#
#
# Elastic Compliance Matrix: (Units=1/GPa)
#
#
# Indices 1 2 3 4 5 6 
#
# 1 0.003321 -0.001297 -0.003189 0.000000 0.000000 0.000000
# 2 -0.001297 0.011639 -0.000039 0.000000 0.000000 0.000000
# 3 -0.003189 -0.000039 0.038140 0.000000 0.000000 0.000000
# 4 0.000000 0.000000 0.000000 0.078359 0.000000 0.000000
# 5 0.000000 0.000000 0.000000 0.000000 -0.018068 0.000000
# 6 0.000000 0.000000 0.000000 0.000000 0.000000 -0.063904
#
#
# Mechanical properties :
#
#
# Convention : Reuss Voigt Hill
#
# Bulk Modulus (GPa) = 22.70104 67.06743 44.88423
# Shear Modulus (GPa) = 68.28913 14.49609 41.39261
#
# Velocity S-wave (km/s) = 5.30364 2.44356 4.12914
# Velocity P-wave (km/s) = 6.84510 5.96546 6.42036
#
# Compressibility (1/GPa) = 0.04405085
#
# Stress axis : x y z
#
# Youngs Moduli (GPa) = 301.15317 85.91784 26.21946
#
# Poissons Ratio (x) = 0.11143 0.08360
# Poissons Ratio (y) = 0.39059 0.00101
# Poissons Ratio (z) = 0.96027 0.00331
#
# Static dielectric constant tensor:
#      x y z
#    x 2.059820 0.000000 0.000000 
#    y 0.000000 1.964200 0.000000 
#    z 0.000000 0.000000 1.888780 
# 
# From -- ./inp_files/14605.got.cif
#   From: 2010.05.17/outbox.cif.g08.bks.cpg/sg67_8_cif.got.tgz:14605.got - 2010.06.03 18:28:57.
