data_PCOD9501572
_publ_section_title
;
Structure prediction by ZEFSAII (Michael W. Deem and Ramdas Pophale) SiO2 
 PCOD9501572
Probable space group: C M M A
;
_chemical_formula_sum "Si O2"
_cell_formula_units_Z 88
_cell_length_a 27.905266
_cell_length_b 11.469225
_cell_length_c 11.410361
_cell_angle_alpha 90.000000
_cell_angle_beta 90.000000
_cell_angle_gamma 90.000000
_cell_volume 3651.906285
_symmetry_space_group_name_H-M "C M M A"
_symmetry_group_IT_number 67
_symmetry_cell_setting 'orthorhombic'
loop_
_space_group_symop_operation_xyz
x,y,z
-x,1/2-y,z
x,-y,-z
-x,1/2+y,-z
-x,-y,-z
x,1/2+y,-z
-x,y,z
x,1/2-y,z
1/2+x,1/2+y,z
1/2-x,-y,z
1/2+x,1/2-y,-z
1/2-x,y,-z
1/2-x,1/2-y,-z
1/2+x,y,-z
1/2-x,1/2+y,z
1/2+x,-y,z
loop_
_atom_site_type_symbol
_atom_site_label
_atom_site_fract_x
_atom_site_fract_y
_atom_site_fract_z
Si Si1 0.859058 0.000000 0.000000
Si Si2 0.000000 0.876802 0.809160
Si Si3 0.280889 0.118858 0.153010
Si Si4 0.893542 0.619268 0.772884
Si Si5 0.830380 0.049825 0.616254
Si Si6 0.567055 0.877123 0.562535
Si Si7 0.000000 0.875817 0.215269
O O1 0.825548 0.905230 0.066150
O O2 0.889830 0.059961 0.100481
O O3 0.050384 0.876967 0.739699
O O4 0.000000 0.750000 0.872325
O O5 0.000000 0.007846 0.861133
O O6 0.260938 0.250000 0.132712
O O7 0.298050 0.112044 0.287860
O O8 0.250000 0.000000 0.136605
O O9 0.875893 0.750000 0.782107
O O10 0.858263 0.551765 0.687244
O O11 0.875690 0.123505 0.572094
O O12 0.805981 0.000000 0.500000
O O13 0.552686 0.750000 0.512116
O O14 0.544470 0.879002 0.693092
O O15 0.554122 0.000000 0.500000
O O16 0.000000 0.750000 0.155237
#
# Coordination Sequence:
#
# PCOD9501572 Si02
#       7
#     8   8  16  16  16  16   8
#     4  10  23  43  70  98 126 164 212 265 327 394
#     4  10  20  36  58  91 130 171 219 267 317 370
#     4  11  25  45  70  99 129 162 206 263 329 399
#     4  10  21  39  64  95 132 174 219 270 320 372
#     4  10  22  40  63  92 131 173 219 259 316 378
#     4  10  20  33  52  79 116 161 214 263 307 357
#     4  10  19  33  50  77 117 164 212 261 310 358
#
# _framework density 24.097003999999998
#
# number of rings (size 3 to 8) (size 9 to 14) (size 15 to 20)
#    0.000    1.818    1.818    1.636    0.000    9.455 
#    0.000    2.273    0.000    0.000    0.000    0.000 
#    0.000    0.000    0.000    0.000    0.000    0.000 
#
# Total GULP energy -245474.394968 kJ/mol
# GULP energy per Si atom -5578.963522 kJ/mol
# Density = 2.404216 g / cm^3
# Si number density = 24.097004 Si / 1000 Ang^3
#
#
#
# Elastic Constant Matrix: (Units=GPa)
#
#
# Indices 1 2 3 4 5 6 
#
# 1 68.4222 29.7420 15.5502 0.0000 0.0000 0.0000
# 2 29.7420 271.5344 47.9039 0.0000 0.0000 0.0000
# 3 15.5502 47.9039 134.6789 0.0000 0.0000 0.0000
# 4 0.0000 0.0000 0.0000 2.6838 0.0000 0.0000
# 5 0.0000 0.0000 0.0000 0.0000 1273.3743 0.0000
# 6 0.0000 0.0000 0.0000 0.0000 0.0000 27.8726
#
#
#
# Elastic Compliance Matrix: (Units=1/GPa)
#
#
# Indices 1 2 3 4 5 6 
#
# 1 0.015546 -0.001479 -0.001269 0.000000 0.000000 0.000000
# 2 -0.001479 0.004070 -0.001277 0.000000 0.000000 0.000000
# 3 -0.001269 -0.001277 0.008026 0.000000 0.000000 0.000000
# 4 0.000000 0.000000 0.000000 0.372611 0.000000 0.000000
# 5 0.000000 0.000000 0.000000 0.000000 0.000785 0.000000
# 6 0.000000 0.000000 0.000000 0.000000 0.000000 0.035878
#
#
# Mechanical properties :
#
#
# Convention : Reuss Voigt Hill
#
# Bulk Modulus (GPa) = 51.03979 73.44750 62.24364
# Shear Modulus (GPa) = 11.07427 286.21542 148.64484
#
# Velocity S-wave (km/s) = 2.14608 10.91028 7.86257
# Velocity P-wave (km/s) = 5.23143 13.75712 10.40736
#
# Compressibility (1/GPa) = 0.01959256
#
# Stress axis : x y z
#
# Youngs Moduli (GPa) = 64.32349 245.69766 124.59877
#
# Poissons Ratio (x) = 0.36338 0.15811
# Poissons Ratio (y) = 0.09513 0.15910
# Poissons Ratio (z) = 0.08162 0.31373
#
# Static dielectric constant tensor:
#      x y z
#    x 1.952760 0.000000 0.000000 
#    y 0.000000 1.967390 0.000000 
#    z 0.000000 0.000000 1.909360 
# 
# From -- ./inp_files/23609.got.cif
#   From: 2010.05.17/outbox.cif.g08.bks.cpg/sg67_12_cif.got.tgz:23609.got - 2010.06.03 18:28:57.
