data_PCOD9501026
_publ_section_title
;
Structure prediction by ZEFSAII (Michael W. Deem and Ramdas Pophale) SiO2 
 PCOD9501026
Probable space group: C M M A
;
_chemical_formula_sum "Si O2"
_cell_formula_units_Z 88
_cell_length_a 25.860423
_cell_length_b 8.950427
_cell_length_c 25.730378
_cell_angle_alpha 90.000000
_cell_angle_beta 90.000000
_cell_angle_gamma 90.000000
_cell_volume 5955.600333
_symmetry_space_group_name_H-M "C M M A"
_symmetry_group_IT_number 67
_symmetry_cell_setting 'orthorhombic'
loop_
_space_group_symop_operation_xyz
x,y,z
-x,1/2-y,z
x,-y,-z
-x,1/2+y,-z
-x,-y,-z
x,1/2+y,-z
-x,y,z
x,1/2-y,z
1/2+x,1/2+y,z
1/2-x,-y,z
1/2+x,1/2-y,-z
1/2-x,y,-z
1/2-x,1/2-y,-z
1/2+x,y,-z
1/2-x,1/2+y,z
1/2+x,-y,z
loop_
_atom_site_type_symbol
_atom_site_label
_atom_site_fract_x
_atom_site_fract_y
_atom_site_fract_z
Si Si1 0.500000 0.428909 0.942818
Si Si2 0.561357 0.070756 0.447424
Si Si3 0.562889 0.424213 0.333389
Si Si4 0.406519 0.427600 0.121360
Si Si5 0.437892 0.926175 0.226315
Si Si6 0.304502 0.928306 0.943992
O O1 0.500000 0.250000 0.945827
O O2 0.449982 0.486376 0.911639
O O3 0.500000 0.500000 0.000000
O O4 0.500000 0.033669 0.447005
O O5 0.565465 0.250000 0.450043
O O6 0.581522 0.023836 0.390455
O O7 0.583622 0.000000 0.500000
O O8 0.500000 0.428917 0.335149
O O9 0.576976 0.250000 0.326475
O O10 0.578643 0.518663 0.283399
O O11 0.416613 0.250000 0.118608
O O12 0.410923 0.483570 0.180296
O O13 0.350810 0.457050 0.095895
O O14 0.500000 0.952109 0.221777
O O15 0.429062 0.750000 0.220283
O O16 0.298636 0.750000 0.950046
O O17 0.250000 0.000000 0.927589
O O18 0.317518 0.000000 0.000000
#
# Coordination Sequence:
#
# PCOD9501026 Si02
#       6
#     8  16  16  16  16  16
#     4  12  24  36  50  70  94 120 147 178 219 262
#     4   8  13  20  30  45  65  92 129 172 217 256
#     4   8  14  24  36  49  70 103 138 174 216 260
#     4  11  22  35  51  70  92 120 149 179 220 266
#     4  10  19  29  42  62  85 112 146 182 220 259
#     4  10  21  36  55  75  92 115 144 177 219 263
#
# _framework density 14.776007999999999
#
# number of rings (size 3 to 8) (size 9 to 14) (size 15 to 20)
#    0.000    2.364    0.909    4.636    0.000    5.818 
#    0.000    3.636    0.000    0.000    0.000    0.000 
#    0.000    0.000    0.000    0.000    0.000    0.909 
#
# Total GULP energy -245201.669010 kJ/mol
# GULP energy per Si atom -5572.765205 kJ/mol
# Density = 1.474238 g / cm^3
# Si number density = 14.776008 Si / 1000 Ang^3
#
#
#
# Elastic Constant Matrix: (Units=GPa)
#
#
# Indices 1 2 3 4 5 6 
#
# 1 45.3386 38.9209 44.8731 0.0000 0.0000 0.0000
# 2 38.9209 73.2763 59.0987 0.0000 0.0000 0.0000
# 3 44.8731 59.0987 138.2702 0.0000 0.0000 0.0000
# 4 0.0000 0.0000 0.0000 28.5219 0.0000 0.0000
# 5 0.0000 0.0000 0.0000 0.0000 5.4134 0.0000
# 6 0.0000 0.0000 0.0000 0.0000 0.0000 13.5989
#
#
#
# Elastic Compliance Matrix: (Units=1/GPa)
#
#
# Indices 1 2 3 4 5 6 
#
# 1 0.044132 -0.018144 -0.006567 0.000000 0.000000 0.000000
# 2 -0.018144 0.028286 -0.006201 0.000000 0.000000 0.000000
# 3 -0.006567 -0.006201 0.012014 0.000000 0.000000 0.000000
# 4 0.000000 0.000000 0.000000 0.035061 0.000000 0.000000
# 5 0.000000 0.000000 0.000000 0.000000 0.184727 0.000000
# 6 0.000000 0.000000 0.000000 0.000000 0.000000 0.073535
#
#
# Mechanical properties :
#
#
# Convention : Reuss Voigt Hill
#
# Bulk Modulus (GPa) = 44.23555 60.29670 52.26613
# Shear Modulus (GPa) = 11.18280 17.10635 14.14457
#
# Velocity S-wave (km/s) = 2.75402 3.40621 3.09733
# Velocity P-wave (km/s) = 6.33366 7.50769 6.94553
#
# Compressibility (1/GPa) = 0.02260625
#
# Stress axis : x y z
#
# Youngs Moduli (GPa) = 22.65941 35.35335 83.23619
#
# Poissons Ratio (x) = 0.64146 0.54662
# Poissons Ratio (y) = 0.41114 0.51618
# Poissons Ratio (z) = 0.14881 0.21924
#
# Static dielectric constant tensor:
#      x y z
#    x 1.460600 0.000000 0.000000 
#    y 0.000000 1.493290 0.000000 
#    z 0.000000 0.000000 1.516430 
# 
# From -- ./inp_files/42889.got.cif
#   From: 2010.05.17/outbox.cif.g08.bks.cpg/sg67_22_cif.got.tgz:42889.got - 2010.06.03 18:28:57.
