data_PCOD9501575
_publ_section_title
;
Structure prediction by ZEFSAII (Michael W. Deem and Ramdas Pophale) SiO2 
 PCOD9501575
Probable space group: C M M A
;
_chemical_formula_sum "Si O2"
_cell_formula_units_Z 120
_cell_length_a 8.957134
_cell_length_b 27.510034
_cell_length_c 29.684561
_cell_angle_alpha 90.000000
_cell_angle_beta 90.000000
_cell_angle_gamma 90.000000
_cell_volume 7314.604168
_symmetry_space_group_name_H-M "C M M A"
_symmetry_group_IT_number 67
_symmetry_cell_setting 'orthorhombic'
loop_
_space_group_symop_operation_xyz
x,y,z
-x,1/2-y,z
x,-y,-z
-x,1/2+y,-z
-x,-y,-z
x,1/2+y,-z
-x,y,z
x,1/2-y,z
1/2+x,1/2+y,z
1/2-x,-y,z
1/2+x,1/2-y,-z
1/2-x,y,-z
1/2-x,1/2-y,-z
1/2+x,y,-z
1/2-x,1/2+y,z
1/2+x,-y,z
loop_
_atom_site_type_symbol
_atom_site_label
_atom_site_fract_x
_atom_site_fract_y
_atom_site_fract_z
Si Si1 0.320201 0.948518 0.381860
Si Si2 0.821636 0.192530 0.140389
Si Si3 0.178752 0.551087 0.724506
Si Si4 0.832534 0.693069 0.698764
Si Si5 0.828301 0.690935 0.045977
Si Si6 0.321210 0.750000 0.549405
Si Si7 0.823382 0.657174 0.597991
Si Si8 0.675495 0.859047 0.774988
O O1 0.500000 0.951697 0.384643
O O2 0.282355 0.941917 0.328623
O O3 0.274759 0.899122 0.408091
O O4 0.250000 0.000000 0.396462
O O5 0.785691 0.250000 0.147501
O O6 0.760178 0.178147 0.091263
O O7 0.746738 0.160843 0.179221
O O8 0.000000 0.187858 0.141825
O O9 0.250000 0.500000 0.737968
O O10 0.246026 0.592983 0.755445
O O11 0.000000 0.550240 0.727677
O O12 0.830819 0.750000 0.689244
O O13 0.811204 0.666486 0.651553
O O14 0.712674 0.679874 0.735965
O O15 0.000000 0.680193 0.715965
O O16 0.828776 0.750000 0.044360
O O17 0.000000 0.674937 0.048256
O O18 0.750000 0.674051 0.000000
O O19 0.500000 0.750000 0.547808
O O20 0.250000 0.750000 0.500000
O O21 0.264163 0.799323 0.573867
O O22 0.000000 0.661320 0.586408
O O23 0.500000 0.866258 0.780147
#
# Coordination Sequence:
#
# PCOD9501575 Si02
#       8
#    16  16  16  16  16   8  16  16
#     4   9  18  32  54  80 109 141 175 215 261 307
#     4  10  20  33  47  64  91 131 173 212 258 308
#     4  10  19  34  51  71  98 132 172 211 255 302
#     4  10  19  33  51  70  99 140 177 210 253 303
#     4   9  16  27  44  65  89 119 159 207 255 305
#     4  12  26  42  62  88 114 144 178 222 269 316
#     4  10  19  37  59  81 109 144 178 216 262 313
#     4  12  23  32  45  68 100 136 172 212 255 304
#
# _framework density 16.405536000000001
#
# number of rings (size 3 to 8) (size 9 to 14) (size 15 to 20)
#    0.000    1.867    2.000    3.400    0.000    5.867 
#    0.000    0.000    0.000    0.400    0.000    2.800 
#    0.000    0.533    0.000    5.333    0.000    3.467 
#
# Total GULP energy -334699.195937 kJ/mol
# GULP energy per Si atom -5578.319932 kJ/mol
# Density = 1.636820 g / cm^3
# Si number density = 16.405536 Si / 1000 Ang^3
#
#
#
# Elastic Constant Matrix: (Units=GPa)
#
#
# Indices 1 2 3 4 5 6 
#
# 1 76.5504 40.6849 25.0155 0.0000 0.0000 0.0000
# 2 40.6849 118.8719 32.0266 0.0000 0.0000 0.0000
# 3 25.0155 32.0266 39.8092 0.0000 0.0000 0.0000
# 4 0.0000 0.0000 0.0000 4.1507 0.0000 0.0000
# 5 0.0000 0.0000 0.0000 0.0000 25.6309 0.0000
# 6 0.0000 0.0000 0.0000 0.0000 0.0000 26.4858
#
#
#
# Elastic Compliance Matrix: (Units=1/GPa)
#
#
# Indices 1 2 3 4 5 6 
#
# 1 0.017765 -0.003923 -0.008007 0.000000 0.000000 0.000000
# 2 -0.003923 0.011607 -0.006873 0.000000 0.000000 0.000000
# 3 -0.008007 -0.006873 0.035680 0.000000 0.000000 0.000000
# 4 0.000000 0.000000 0.000000 0.240925 0.000000 0.000000
# 5 0.000000 0.000000 0.000000 0.000000 0.039015 0.000000
# 6 0.000000 0.000000 0.000000 0.000000 0.000000 0.037756
#
#
# Mechanical properties :
#
#
# Convention : Reuss Voigt Hill
#
# Bulk Modulus (GPa) = 36.43425 47.85395 42.14410
# Shear Modulus (GPa) = 11.64137 20.42045 16.03091
#
# Velocity S-wave (km/s) = 2.66672 3.53190 3.12935
# Velocity P-wave (km/s) = 5.63370 6.77238 6.22911
#
# Compressibility (1/GPa) = 0.02744670
#
# Stress axis : x y z
#
# Youngs Moduli (GPa) = 56.29099 86.15757 28.02662
#
# Poissons Ratio (x) = 0.33798 0.22442
# Poissons Ratio (y) = 0.22082 0.19261
# Poissons Ratio (z) = 0.45073 0.59212
#
# Static dielectric constant tensor:
#      x y z
#    x 1.555510 0.000000 0.000000 
#    y 0.000000 1.579580 0.000000 
#    z 0.000000 0.000000 1.531010 
# 
# From -- ./inp_files/43939.got.cif
#   From: 2010.05.17/outbox.cif.g08.bks.cpg/sg67_22_cif.got.tgz:43939.got - 2010.06.03 18:28:57.
