data_PCOD9501983
_publ_section_title
;
Structure prediction by ZEFSAII (Michael W. Deem and Ramdas Pophale) SiO2 
 PCOD9501983
Probable space group: C M M A
;
_chemical_formula_sum "Si O2"
_cell_formula_units_Z 112
_cell_length_a 14.370142
_cell_length_b 28.141331
_cell_length_c 15.662795
_cell_angle_alpha 90.000000
_cell_angle_beta 90.000000
_cell_angle_gamma 90.000000
_cell_volume 6333.954771
_symmetry_space_group_name_H-M "C M M A"
_symmetry_group_IT_number 67
_symmetry_cell_setting 'orthorhombic'
loop_
_space_group_symop_operation_xyz
x,y,z
-x,1/2-y,z
x,-y,-z
-x,1/2+y,-z
-x,-y,-z
x,1/2+y,-z
-x,y,z
x,1/2-y,z
1/2+x,1/2+y,z
1/2-x,-y,z
1/2+x,1/2-y,-z
1/2-x,y,-z
1/2-x,1/2-y,-z
1/2+x,y,-z
1/2-x,1/2+y,z
1/2+x,-y,z
loop_
_atom_site_type_symbol
_atom_site_label
_atom_site_fract_x
_atom_site_fract_y
_atom_site_fract_z
Si Si1 0.306534 0.070032 0.161185
Si Si2 0.000000 0.304979 0.673951
Si Si3 0.895144 0.032355 0.148336
Si Si4 0.690131 0.161610 0.250947
Si Si5 0.308947 0.696293 0.087414
Si Si6 0.696207 0.193543 0.589220
Si Si7 0.103755 0.606594 0.997303
Si Si8 0.000000 0.808135 0.519873
O O1 0.199701 0.056647 0.182479
O O2 0.334960 0.107168 0.232258
O O3 0.368620 0.023068 0.150635
O O4 0.321739 0.098545 0.072219
O O5 0.092518 0.314642 0.727002
O O6 0.000000 0.326772 0.577956
O O7 0.000000 0.250000 0.654797
O O8 0.897916 0.057597 0.055888
O O9 0.000000 0.039642 0.184268
O O10 0.744884 0.183623 0.169438
O O11 0.755102 0.167460 0.333083
O O12 0.349238 0.750000 0.100661
O O13 0.375615 0.651277 0.065439
O O14 0.250000 0.699360 0.000000
O O15 0.697970 0.250000 0.609322
O O16 0.750000 0.187707 0.500000
O O17 0.591884 0.177600 0.570249
O O18 0.000000 0.613859 0.034623
O O19 0.000000 0.750000 0.518909
#
# Coordination Sequence:
#
# PCOD9501983 Si02
#       8
#    16   8  16  16  16  16  16   8
#     4  11  22  37  58  88 117 150 199 258 308 362
#     4  11  22  36  60  91 123 161 203 251 314 373
#     4  10  21  38  61  82 110 152 200 258 319 359
#     4  12  23  37  58  88 124 164 201 252 303 360
#     4  11  22  38  54  75 120 172 208 239 279 342
#     4  10  19  36  60  85 118 157 199 249 305 362
#     4  11  21  38  59  81 113 158 208 254 301 351
#     4   9  18  36  60  87 116 155 206 257 310 369
#
# _framework density 17.682475
#
# number of rings (size 3 to 8) (size 9 to 14) (size 15 to 20)
#    0.000    1.286    4.286    2.571    2.000    2.571 
#    2.571    0.000    0.000    0.000    0.000    2.000 
#    0.000    5.714    0.000    0.000    0.000    0.000 
#
# Total GULP energy -311894.681435 kJ/mol
# GULP energy per Si atom -5569.547883 kJ/mol
# Density = 1.764223 g / cm^3
# Si number density = 17.682475 Si / 1000 Ang^3
#
#
#
# Elastic Constant Matrix: (Units=GPa)
#
#
# Indices 1 2 3 4 5 6 
#
# 1 109.7617 26.6714 26.6624 0.0000 0.0000 0.0000
# 2 26.6714 96.2860 33.9519 0.0000 0.0000 0.0000
# 3 26.6624 33.9519 76.1066 0.0000 0.0000 0.0000
# 4 0.0000 0.0000 0.0000 8.7061 0.0000 0.0000
# 5 0.0000 0.0000 0.0000 0.0000 62.0824 0.0000
# 6 0.0000 0.0000 0.0000 0.0000 0.0000 14.4512
#
#
#
# Elastic Compliance Matrix: (Units=1/GPa)
#
#
# Indices 1 2 3 4 5 6 
#
# 1 0.010232 -0.001863 -0.002753 0.000000 0.000000 0.000000
# 2 -0.001863 0.012664 -0.004997 0.000000 0.000000 0.000000
# 3 -0.002753 -0.004997 0.016333 0.000000 0.000000 0.000000
# 4 0.000000 0.000000 0.000000 0.114861 0.000000 0.000000
# 5 0.000000 0.000000 0.000000 0.000000 0.016108 0.000000
# 6 0.000000 0.000000 0.000000 0.000000 0.000000 0.069199
#
#
# Mechanical properties :
#
#
# Convention : Reuss Voigt Hill
#
# Bulk Modulus (GPa) = 49.99434 50.74730 50.37082
# Shear Modulus (GPa) = 18.84723 30.03919 24.44321
#
# Velocity S-wave (km/s) = 3.26831 4.12614 3.72202
# Velocity P-wave (km/s) = 6.52512 7.17367 6.85707
#
# Compressibility (1/GPa) = 0.02000226
#
# Stress axis : x y z
#
# Youngs Moduli (GPa) = 97.72996 78.96530 61.22548
#
# Poissons Ratio (x) = 0.14715 0.16857
# Poissons Ratio (y) = 0.18212 0.30592
# Poissons Ratio (z) = 0.26908 0.39456
#
# Static dielectric constant tensor:
#      x y z
#    x 1.644820 0.000000 0.000000 
#    y 0.000000 1.635760 0.000000 
#    z 0.000000 0.000000 1.574810 
# 
# From -- ./inp_files/27788.got.cif
#   From: 2010.05.17/outbox.cif.g08.bks.cpg/sg67_14_cif.got.tgz:27788.got - 2010.06.03 18:28:57.
