data_PCOD9501774
_publ_section_title
;
Structure prediction by ZEFSAII (Michael W. Deem and Ramdas Pophale) SiO2 
 PCOD9501774
Probable space group: C M M A
;
_chemical_formula_sum "Si O2"
_cell_formula_units_Z 116
_cell_length_a 15.149721
_cell_length_b 23.337145
_cell_length_c 18.149833
_cell_angle_alpha 90.000000
_cell_angle_beta 90.000000
_cell_angle_gamma 90.000000
_cell_volume 6416.895885
_symmetry_space_group_name_H-M "C M M A"
_symmetry_group_IT_number 67
_symmetry_cell_setting 'orthorhombic'
loop_
_space_group_symop_operation_xyz
x,y,z
-x,1/2-y,z
x,-y,-z
-x,1/2+y,-z
-x,-y,-z
x,1/2+y,-z
-x,y,z
x,1/2-y,z
1/2+x,1/2+y,z
1/2-x,-y,z
1/2+x,1/2-y,-z
1/2-x,y,-z
1/2-x,1/2-y,-z
1/2+x,y,-z
1/2-x,1/2+y,z
1/2+x,-y,z
loop_
_atom_site_type_symbol
_atom_site_label
_atom_site_fract_x
_atom_site_fract_y
_atom_site_fract_z
Si Si1 0.100057 0.181292 0.809731
Si Si2 0.107839 0.816638 0.497788
Si Si3 0.847979 0.490095 0.611080
Si Si4 0.893094 0.373371 0.656662
Si Si5 0.894025 0.881029 0.645639
Si Si6 0.000000 0.500000 0.500000
Si Si7 0.895315 0.681532 0.794409
Si Si8 0.745398 0.180214 0.915796
O O1 0.098335 0.250000 0.813053
O O2 0.129099 0.163864 0.727936
O O3 0.168833 0.160916 0.870493
O O4 0.000000 0.160435 0.822170
O O5 0.133645 0.750000 0.502723
O O6 0.135679 0.844392 0.420252
O O7 0.138653 0.851875 0.569687
O O8 0.000000 0.818235 0.497905
O O9 0.750000 0.500000 0.582277
O O10 0.849814 0.435827 0.664678
O O11 0.877076 0.551229 0.643337
O O12 0.921971 0.473184 0.551807
O O13 0.000000 0.377601 0.655732
O O14 0.863678 0.850693 0.720434
O O15 0.000000 0.873702 0.643625
O O16 0.884490 0.750000 0.782941
O O17 0.839476 0.664603 0.866330
O O18 0.000000 0.670679 0.804290
O O19 0.745831 0.250000 0.917975
O O20 0.750000 0.160172 0.000000
#
# Coordination Sequence:
#
# PCOD9501774 Si02
#       8
#    16  16  16  16  16   4  16  16
#     4   9  18  32  53  80 111 146 178 217 270 324
#     4   9  17  29  51  77 101 138 180 216 260 315
#     4  12  25  37  57  78 101 142 187 231 282 314
#     4  10  19  34  55  76 109 142 180 226 269 315
#     4  10  19  34  55  76 109 142 180 226 269 315
#     4  12  22  44  52  70 106 132 184 240 272 312
#     4   9  18  32  53  80 111 146 178 217 270 324
#     4   9  18  32  52  80 112 145 178 216 266 326
#
# _framework density 18.077276999999999
#
# number of rings (size 3 to 8) (size 9 to 14) (size 15 to 20)
#    0.000    2.207    1.379    1.862    3.862    3.862 
#    0.000    2.759    0.000    0.828    0.000    1.931 
#    0.000    4.414    0.000    0.000    0.000    0.000 
#
# Total GULP energy -322976.600927 kJ/mol
# GULP energy per Si atom -5568.562085 kJ/mol
# Density = 1.803613 g / cm^3
# Si number density = 18.077277 Si / 1000 Ang^3
#
#
#
# Elastic Constant Matrix: (Units=GPa)
#
#
# Indices 1 2 3 4 5 6 
#
# 1 67.1188 -2.7375 34.4746 0.0000 0.0000 0.0000
# 2 -2.7375 57.8543 30.2274 0.0000 0.0000 0.0000
# 3 34.4746 30.2274 142.6322 0.0000 0.0000 0.0000
# 4 0.0000 0.0000 0.0000 57.0387 0.0000 0.0000
# 5 0.0000 0.0000 0.0000 0.0000 33.2050 0.0000
# 6 0.0000 0.0000 0.0000 0.0000 0.0000 3.9539
#
#
#
# Elastic Compliance Matrix: (Units=1/GPa)
#
#
# Indices 1 2 3 4 5 6 
#
# 1 0.017598 0.003435 -0.004981 0.000000 0.000000 0.000000
# 2 0.003435 0.020108 -0.005092 0.000000 0.000000 0.000000
# 3 -0.004981 -0.005092 0.009294 0.000000 0.000000 0.000000
# 4 0.000000 0.000000 0.000000 0.017532 0.000000 0.000000
# 5 0.000000 0.000000 0.000000 0.000000 0.030116 0.000000
# 6 0.000000 0.000000 0.000000 0.000000 0.000000 0.252913
#
#
# Mechanical properties :
#
#
# Convention : Reuss Voigt Hill
#
# Bulk Modulus (GPa) = 29.65255 43.50383 36.57819
# Shear Modulus (GPa) = 13.43807 32.54891 22.99349
#
# Velocity S-wave (km/s) = 2.72944 4.24788 3.57032
# Velocity P-wave (km/s) = 5.13536 6.94097 6.10528
#
# Compressibility (1/GPa) = 0.03372392
#
# Stress axis : x y z
#
# Youngs Moduli (GPa) = 56.82558 49.73246 107.59496
#
# Poissons Ratio (x) = -0.17085 0.53598
# Poissons Ratio (y) = -0.19522 0.54784
# Poissons Ratio (z) = 0.28307 0.25322
#
# Static dielectric constant tensor:
#      x y z
#    x 1.668620 0.000000 0.000000 
#    y 0.000000 1.646120 0.000000 
#    z 0.000000 0.000000 1.621730 
# 
# From -- ./inp_files/33810.got.cif
#   From: 2010.05.17/outbox.cif.g08.bks.cpg/sg67_17_cif.got.tgz:33810.got - 2010.06.03 18:28:57.
