data_PCOD9501123
_publ_section_title
;
Structure prediction by ZEFSAII (Michael W. Deem and Ramdas Pophale) SiO2 
 PCOD9501123
Probable space group: C M M A
;
_chemical_formula_sum "Si O2"
_cell_formula_units_Z 96
_cell_length_a 15.409023
_cell_length_b 13.958799
_cell_length_c 22.490681
_cell_angle_alpha 90.000000
_cell_angle_beta 90.000000
_cell_angle_gamma 90.000000
_cell_volume 4837.553297
_symmetry_space_group_name_H-M "C M M A"
_symmetry_group_IT_number 67
_symmetry_cell_setting 'orthorhombic'
loop_
_space_group_symop_operation_xyz
x,y,z
-x,1/2-y,z
x,-y,-z
-x,1/2+y,-z
-x,-y,-z
x,1/2+y,-z
-x,y,z
x,1/2-y,z
1/2+x,1/2+y,z
1/2-x,-y,z
1/2+x,1/2-y,-z
1/2-x,y,-z
1/2-x,1/2-y,-z
1/2+x,y,-z
1/2-x,1/2+y,z
1/2+x,-y,z
loop_
_atom_site_type_symbol
_atom_site_label
_atom_site_fract_x
_atom_site_fract_y
_atom_site_fract_z
Si Si1 0.151176 0.856104 0.479464
Si Si2 0.099532 0.528477 0.593384
Si Si3 0.805055 0.366497 0.940361
Si Si4 0.000000 0.366836 0.962412
Si Si5 0.176256 0.366625 0.163140
Si Si6 0.500000 0.366333 0.900155
Si Si7 0.604001 0.635239 0.286892
O O1 0.119200 0.750000 0.464466
O O2 0.250000 0.850243 0.500000
O O3 0.103313 0.900813 0.536602
O O4 0.147396 0.932283 0.426446
O O5 0.129053 0.581754 0.652631
O O6 0.000000 0.500868 0.602832
O O7 0.806435 0.250000 0.942579
O O8 0.754877 0.394176 0.880100
O O9 0.905475 0.398533 0.939175
O O10 0.750000 0.394061 0.000000
O O11 0.000000 0.250000 0.957725
O O12 0.000000 0.393100 0.031544
O O13 0.176918 0.250000 0.164160
O O14 0.163751 0.396041 0.231528
O O15 0.087408 0.397490 0.131437
O O16 0.500000 0.250000 0.898082
O O17 0.500000 0.618989 0.274560
O O18 0.612487 0.750000 0.294893
#
# Coordination Sequence:
#
# PCOD9501123 Si02
#       7
#    16  16  16   8  16   8  16
#     4  10  20  34  52  74 106 145 180 217 260 313
#     4  10  19  30  48  75 107 141 177 221 272 323
#     4   9  14  18  26  41  65 102 153 218 287 341
#     4   9  14  18  24  40  66  98 147 221 292 339
#     4   9  14  20  30  46  72 111 161 215 275 338
#     4   9  12  16  28  42  64 103 150 212 280 331
#     4   9  16  25  38  59  90 128 172 223 275 331
#
# _framework density 19.844743000000001
#
# number of rings (size 3 to 8) (size 9 to 14) (size 15 to 20)
#    0.000    2.667    2.500    2.500    0.000    2.000 
#    0.000    0.000    0.000    0.000    0.000    0.000 
#   20.000    0.000   16.000    0.000    0.000    4.167 
#
# Total GULP energy -267743.279541 kJ/mol
# GULP energy per Si atom -5577.984990 kJ/mol
# Density = 1.979958 g / cm^3
# Si number density = 19.844743 Si / 1000 Ang^3
#
#
#
# Elastic Constant Matrix: (Units=GPa)
#
#
# Indices 1 2 3 4 5 6 
#
# 1 117.1220 24.3718 64.6232 0.0000 0.0000 0.0000
# 2 24.3718 97.1177 48.5457 0.0000 0.0000 0.0000
# 3 64.6232 48.5457 159.2173 0.0000 0.0000 0.0000
# 4 0.0000 0.0000 0.0000 -6.6995 0.0000 0.0000
# 5 0.0000 0.0000 0.0000 0.0000 25.5696 0.0000
# 6 0.0000 0.0000 0.0000 0.0000 0.0000 15.0474
#
#
#
# Elastic Compliance Matrix: (Units=1/GPa)
#
#
# Indices 1 2 3 4 5 6 
#
# 1 0.011034 -0.000626 -0.004288 0.000000 0.000000 0.000000
# 2 -0.000626 0.012184 -0.003461 0.000000 0.000000 0.000000
# 3 -0.004288 -0.003461 0.009076 0.000000 0.000000 0.000000
# 4 0.000000 0.000000 0.000000 -0.149266 0.000000 0.000000
# 5 0.000000 0.000000 0.000000 0.000000 0.039109 0.000000
# 6 0.000000 0.000000 0.000000 0.000000 0.000000 0.066457
#
#
# Mechanical properties :
#
#
# Convention : Reuss Voigt Hill
#
# Bulk Modulus (GPa) = 64.32758 72.05985 68.19371
# Shear Modulus (GPa) = 475.07915 22.51126 248.79520
#
# Velocity S-wave (km/s) = 15.48928 3.37169 11.20906
# Velocity P-wave (km/s) = 18.77168 7.17972 14.21134
#
# Compressibility (1/GPa) = 0.01554543
#
# Stress axis : x y z
#
# Youngs Moduli (GPa) = 90.62800 82.07629 110.17738
#
# Poissons Ratio (x) = 0.05136 0.47241
# Poissons Ratio (y) = 0.05671 0.38131
# Poissons Ratio (z) = 0.38859 0.28406
#
# Static dielectric constant tensor:
#      x y z
#    x 1.727230 0.000000 0.000000 
#    y 0.000000 1.730720 0.000000 
#    z 0.000000 0.000000 1.684780 
# 
# From -- ./inp_files/38527.got.cif
#   From: 2010.05.17/outbox.cif.g08.bks.cpg/sg67_20_cif.got.tgz:38527.got - 2010.06.03 18:28:57.
