data_PCOD9501512
_publ_section_title
;
Structure prediction by ZEFSAII (Michael W. Deem and Ramdas Pophale) SiO2 
 PCOD9501512
Probable space group: C M M A
;
_chemical_formula_sum "Si O2"
_cell_formula_units_Z 72
_cell_length_a 15.023366
_cell_length_b 9.190102
_cell_length_c 25.700818
_cell_angle_alpha 90.000000
_cell_angle_beta 90.000000
_cell_angle_gamma 90.000000
_cell_volume 3548.415972
_symmetry_space_group_name_H-M "C M M A"
_symmetry_group_IT_number 67
_symmetry_cell_setting 'orthorhombic'
loop_
_space_group_symop_operation_xyz
x,y,z
-x,1/2-y,z
x,-y,-z
-x,1/2+y,-z
-x,-y,-z
x,1/2+y,-z
-x,y,z
x,1/2-y,z
1/2+x,1/2+y,z
1/2-x,-y,z
1/2+x,1/2-y,-z
1/2-x,y,-z
1/2-x,1/2-y,-z
1/2+x,y,-z
1/2-x,1/2+y,z
1/2+x,-y,z
loop_
_atom_site_type_symbol
_atom_site_label
_atom_site_fract_x
_atom_site_fract_y
_atom_site_fract_z
Si Si1 0.891063 0.582627 0.343111
Si Si2 0.500000 0.423176 0.055261
Si Si3 0.891067 0.082655 0.447706
Si Si4 0.839756 0.924102 0.132631
Si Si5 0.892177 0.917129 0.761284
O O1 0.861542 0.750000 0.341483
O O2 0.863219 0.502642 0.395951
O O3 0.863140 0.493913 0.292071
O O4 0.000000 0.583879 0.343093
O O5 0.500000 0.250000 0.046889
O O6 0.415692 0.459605 0.091049
O O7 0.500000 0.500000 0.000000
O O8 0.861556 0.250000 0.447191
O O9 0.000000 0.083958 0.447693
O O10 0.863213 0.000000 0.500000
O O11 0.831898 0.750000 0.136867
O O12 0.750000 0.000000 0.114759
O O13 0.862841 0.991331 0.188814
O O14 0.860835 0.750000 0.764440
O O15 0.000000 0.914769 0.760996
#
# Coordination Sequence:
#
# PCOD9501512 Si02
#       5
#    16   8  16  16  16
#     4   9  16  25  39  61  91 131 178 230 288 351
#     4  10  24  44  68  94 128 166 205 248 297 350
#     4   9  15  22  32  49  79 121 171 227 286 350
#     4  11  23  41  63  92 125 162 204 250 300 355
#     4  10  19  32  53  80 110 148 192 241 296 356
#
# _framework density 20.290744
#
# number of rings (size 3 to 8) (size 9 to 14) (size 15 to 20)
#    0.000    2.222    1.111    2.667    0.000    8.444 
#    0.000    2.222    0.000    0.000    0.000    0.000 
#    0.000    0.889    0.000    8.889    0.000   13.778 
#
# Total GULP energy -201281.627225 kJ/mol
# GULP energy per Si atom -5591.156312 kJ/mol
# Density = 2.024456 g / cm^3
# Si number density = 20.290744 Si / 1000 Ang^3
#
#
#
# Elastic Constant Matrix: (Units=GPa)
#
#
# Indices 1 2 3 4 5 6 
#
# 1 74.2148 52.6811 60.9184 0.0000 0.0000 0.0000
# 2 52.6811 175.2422 116.8175 0.0000 0.0000 0.0000
# 3 60.9184 116.8175 215.9084 0.0000 0.0000 0.0000
# 4 0.0000 0.0000 0.0000 45.1228 0.0000 0.0000
# 5 0.0000 0.0000 0.0000 0.0000 -22.1779 0.0000
# 6 0.0000 0.0000 0.0000 0.0000 0.0000 15.9483
#
#
#
# Elastic Compliance Matrix: (Units=1/GPa)
#
#
# Indices 1 2 3 4 5 6 
#
# 1 0.018672 -0.003287 -0.003490 0.000000 0.000000 0.000000
# 2 -0.003287 0.009504 -0.004215 0.000000 0.000000 0.000000
# 3 -0.003490 -0.004215 0.007897 0.000000 0.000000 0.000000
# 4 0.000000 0.000000 0.000000 0.022162 0.000000 0.000000
# 5 0.000000 0.000000 0.000000 0.000000 -0.045090 0.000000
# 6 0.000000 0.000000 0.000000 0.000000 0.000000 0.062702
#
#
# Mechanical properties :
#
#
# Convention : Reuss Voigt Hill
#
# Bulk Modulus (GPa) = 70.97327 102.91104 86.94216
# Shear Modulus (GPa) = 48.76748 23.44187 36.10468
#
# Velocity S-wave (km/s) = 4.90780 3.40266 4.22283
# Velocity P-wave (km/s) = 8.19570 8.14038 8.16808
#
# Compressibility (1/GPa) = 0.01408981
#
# Stress axis : x y z
#
# Youngs Moduli (GPa) = 53.55534 105.21796 126.63409
#
# Poissons Ratio (x) = 0.34582 0.44196
# Poissons Ratio (y) = 0.17602 0.53374
# Poissons Ratio (z) = 0.18691 0.44348
#
# Static dielectric constant tensor:
#      x y z
#    x 1.650860 0.000000 0.000000 
#    y 0.000000 1.675070 0.000000 
#    z 0.000000 0.000000 1.663420 
# 
# From -- ./inp_files/40519.got.cif
#   From: 2010.05.17/outbox.cif.g08.bks.cpg/sg67_21_cif.got.tgz:40519.got - 2010.06.03 18:28:57.
