data_PCOD9501458
_publ_section_title
;
Structure prediction by ZEFSAII (Michael W. Deem and Ramdas Pophale) SiO2 
 PCOD9501458
Probable space group: C M M A
;
_chemical_formula_sum "Si O2"
_cell_formula_units_Z 112
_cell_length_a 15.697996
_cell_length_b 27.595556
_cell_length_c 15.111909
_cell_angle_alpha 90.000000
_cell_angle_beta 90.000000
_cell_angle_gamma 90.000000
_cell_volume 6546.402327
_symmetry_space_group_name_H-M "C M M A"
_symmetry_group_IT_number 67
_symmetry_cell_setting 'orthorhombic'
loop_
_space_group_symop_operation_xyz
x,y,z
-x,1/2-y,z
x,-y,-z
-x,1/2+y,-z
-x,-y,-z
x,1/2+y,-z
-x,y,z
x,1/2-y,z
1/2+x,1/2+y,z
1/2-x,-y,z
1/2+x,1/2-y,-z
1/2-x,y,-z
1/2-x,1/2-y,-z
1/2+x,y,-z
1/2-x,1/2+y,z
1/2+x,-y,z
loop_
_atom_site_type_symbol
_atom_site_label
_atom_site_fract_x
_atom_site_fract_y
_atom_site_fract_z
Si Si1 0.404419 0.805117 0.917805
Si Si2 0.403095 0.438475 0.407957
Si Si3 0.597337 0.634533 0.093773
Si Si4 0.744264 0.100800 0.286810
Si Si5 0.727140 0.943112 0.101119
Si Si6 0.902563 0.554419 0.614534
Si Si7 0.236648 0.694173 0.797455
O O1 0.500000 0.809118 0.878060
O O2 0.399202 0.750000 0.956660
O O3 0.325492 0.808936 0.851651
O O4 0.397916 0.845624 0.993405
O O5 0.500000 0.423565 0.387891
O O6 0.333284 0.413582 0.348333
O O7 0.396977 0.496067 0.389026
O O8 0.388108 0.430209 0.512415
O O9 0.500000 0.638583 0.123052
O O10 0.631995 0.579734 0.106141
O O11 0.660830 0.670068 0.145938
O O12 0.728877 0.082514 0.185604
O O13 0.830300 0.075823 0.322697
O O14 0.754990 0.158384 0.284846
O O15 0.750000 0.000000 0.109043
O O16 0.750000 0.929225 0.000000
O O17 0.000000 0.567293 0.639552
O O18 0.219679 0.750000 0.778362
#
# Coordination Sequence:
#
# PCOD9501458 Si02
#       7
#    16  16  16  16  16  16  16
#     4   9  17  31  53  76  95 123 171 231 285 319
#     4   9  18  33  55  84 109 126 158 214 272 320
#     4  10  19  32  52  74  96 130 178 227 273 314
#     4  11  20  32  54  76 100 140 179 210 253 310
#     4  10  21  36  49  68 105 149 186 215 243 290
#     4   9  18  33  55  83 109 129 158 210 271 322
#     4  10  21  34  48  72 105 136 170 218 267 311
#
# _framework density 17.108633000000001
#
# number of rings (size 3 to 8) (size 9 to 14) (size 15 to 20)
#    0.000    2.286    0.000    5.143    0.000    6.000 
#    0.000    2.857    0.000    2.571    0.000    2.000 
#    0.000    0.000    0.000    0.000    0.000    0.000 
#
# Total GULP energy -311856.435636 kJ/mol
# GULP energy per Si atom -5568.864922 kJ/mol
# Density = 1.706969 g / cm^3
# Si number density = 17.108633 Si / 1000 Ang^3
#
#
#
# Elastic Constant Matrix: (Units=GPa)
#
#
# Indices 1 2 3 4 5 6 
#
# 1 104.7281 49.9285 43.9514 0.0000 0.0000 0.0000
# 2 49.9285 85.2058 28.7412 0.0000 0.0000 0.0000
# 3 43.9514 28.7412 61.1413 0.0000 0.0000 0.0000
# 4 0.0000 0.0000 0.0000 19.3189 0.0000 0.0000
# 5 0.0000 0.0000 0.0000 0.0000 1.6258 0.0000
# 6 0.0000 0.0000 0.0000 0.0000 0.0000 21.3355
#
#
#
# Elastic Compliance Matrix: (Units=1/GPa)
#
#
# Indices 1 2 3 4 5 6 
#
# 1 0.016344 -0.006672 -0.008612 0.000000 0.000000 0.000000
# 2 -0.006672 0.016672 -0.003041 0.000000 0.000000 0.000000
# 3 -0.008612 -0.003041 0.023976 0.000000 0.000000 0.000000
# 4 0.000000 0.000000 0.000000 0.051763 0.000000 0.000000
# 5 0.000000 0.000000 0.000000 0.000000 0.615099 0.000000
# 6 0.000000 0.000000 0.000000 0.000000 0.000000 0.046870
#
#
# Mechanical properties :
#
#
# Convention : Reuss Voigt Hill
#
# Bulk Modulus (GPa) = 49.16166 55.14638 52.15402
# Shear Modulus (GPa) = 6.14134 17.01964 11.58049
#
# Velocity S-wave (km/s) = 1.89668 3.15746 2.60451
# Velocity P-wave (km/s) = 5.79603 6.75247 6.29245
#
# Compressibility (1/GPa) = 0.02034105
#
# Stress axis : x y z
#
# Youngs Moduli (GPa) = 61.18563 59.98228 41.70845
#
# Poissons Ratio (x) = 0.40020 0.35921
# Poissons Ratio (y) = 0.40823 0.12683
# Poissons Ratio (z) = 0.52695 0.18239
#
# Static dielectric constant tensor:
#      x y z
#    x 1.592070 0.000000 0.000000 
#    y 0.000000 1.594250 0.000000 
#    z 0.000000 0.000000 1.585340 
# 
# From -- ./inp_files/27694.got.cif
#   From: 2010.05.17/outbox.cif.g08.bks.cpg/sg67_14_cif.got.tgz:27694.got - 2010.06.03 18:28:57.
