data_PCOD9501511
_publ_section_title
;
Structure prediction by ZEFSAII (Michael W. Deem and Ramdas Pophale) SiO2 
 PCOD9501511
Probable space group: C M M A
;
_chemical_formula_sum "Si O2"
_cell_formula_units_Z 88
_cell_length_a 14.797120
_cell_length_b 9.227253
_cell_length_c 31.096208
_cell_angle_alpha 90.000000
_cell_angle_beta 90.000000
_cell_angle_gamma 90.000000
_cell_volume 4245.775797
_symmetry_space_group_name_H-M "C M M A"
_symmetry_group_IT_number 67
_symmetry_cell_setting 'orthorhombic'
loop_
_space_group_symop_operation_xyz
x,y,z
-x,1/2-y,z
x,-y,-z
-x,1/2+y,-z
-x,-y,-z
x,1/2+y,-z
-x,y,z
x,1/2-y,z
1/2+x,1/2+y,z
1/2-x,-y,z
1/2+x,1/2-y,-z
1/2-x,y,-z
1/2-x,1/2-y,-z
1/2+x,y,-z
1/2-x,1/2+y,z
1/2+x,-y,z
loop_
_atom_site_type_symbol
_atom_site_label
_atom_site_fract_x
_atom_site_fract_y
_atom_site_fract_z
Si Si1 0.159334 0.076764 0.611226
Si Si2 0.389444 0.916408 0.956949
Si Si3 0.000000 0.421885 0.545396
Si Si4 0.109190 0.415682 0.301010
Si Si5 0.389397 0.083439 0.215322
Si Si6 0.610545 0.416439 0.870847
O O1 0.167260 0.250000 0.615432
O O2 0.084633 0.043152 0.575642
O O3 0.250000 0.000000 0.596733
O O4 0.135323 0.007788 0.657334
O O5 0.500000 0.914265 0.956936
O O6 0.358893 0.750000 0.956743
O O7 0.361552 0.001309 0.914123
O O8 0.361566 0.000000 0.000000
O O9 0.000000 0.500000 0.500000
O O10 0.000000 0.250000 0.537689
O O11 0.142811 0.250000 0.303803
O O12 0.139119 0.494480 0.257377
O O13 0.000000 0.410100 0.299750
O O14 0.500000 0.085448 0.215469
O O15 0.359012 0.250000 0.216568
O O16 0.361671 0.002953 0.171713
O O17 0.500000 0.414199 0.870838
O O18 0.641109 0.250000 0.870155
#
# Coordination Sequence:
#
# PCOD9501511 Si02
#       6
#    16  16   8  16  16  16
#     4  11  23  41  63  92 125 162 204 250 300 355
#     4   9  15  21  28  38  55  85 129 183 246 314
#     4  10  24  44  68  94 128 166 206 252 303 354
#     4  10  19  32  53  80 109 145 187 233 285 344
#     4   9  16  25  39  60  87 121 160 208 265 326
#     4   9  15  22  31  45  68  98 139 194 252 315
#
# _framework density 20.726483000000002
#
# number of rings (size 3 to 8) (size 9 to 14) (size 15 to 20)
#    0.000    2.364    0.909    2.727    0.000    9.091 
#    0.000    1.818    0.000    0.000    0.000    0.000 
#    0.000    0.000    0.000    0.000    0.000    0.909 
#
# Total GULP energy -246026.599365 kJ/mol
# GULP energy per Si atom -5591.513622 kJ/mol
# Density = 2.067931 g / cm^3
# Si number density = 20.726483 Si / 1000 Ang^3
#
#
#
# Elastic Constant Matrix: (Units=GPa)
#
#
# Indices 1 2 3 4 5 6 
#
# 1 66.2893 46.4347 51.3065 0.0000 0.0000 0.0000
# 2 46.4347 200.6274 134.7123 0.0000 0.0000 0.0000
# 3 51.3065 134.7123 233.9125 0.0000 0.0000 0.0000
# 4 0.0000 0.0000 0.0000 45.7275 0.0000 0.0000
# 5 0.0000 0.0000 0.0000 0.0000 -32.0494 0.0000
# 6 0.0000 0.0000 0.0000 0.0000 0.0000 11.1806
#
#
#
# Elastic Compliance Matrix: (Units=1/GPa)
#
#
# Indices 1 2 3 4 5 6 
#
# 1 0.018969 -0.002603 -0.002661 0.000000 0.000000 0.000000
# 2 -0.002603 0.008484 -0.004315 0.000000 0.000000 0.000000
# 3 -0.002661 -0.004315 0.007344 0.000000 0.000000 0.000000
# 4 0.000000 0.000000 0.000000 0.021869 0.000000 0.000000
# 5 0.000000 0.000000 0.000000 0.000000 -0.031202 0.000000
# 6 0.000000 0.000000 0.000000 0.000000 0.000000 0.089440
#
#
# Mechanical properties :
#
#
# Convention : Reuss Voigt Hill
#
# Bulk Modulus (GPa) = 63.94911 107.30402 85.62656
# Shear Modulus (GPa) = 35.89977 22.86346 29.38161
#
# Velocity S-wave (km/s) = 4.16633 3.32490 3.76917
# Velocity P-wave (km/s) = 7.35291 8.16234 7.76817
#
# Compressibility (1/GPa) = 0.01563743
#
# Stress axis : x y z
#
# Youngs Moduli (GPa) = 52.71816 117.86399 136.16539
#
# Poissons Ratio (x) = 0.30683 0.36239
# Poissons Ratio (y) = 0.13724 0.58758
# Poissons Ratio (z) = 0.14030 0.50861
#
# Static dielectric constant tensor:
#      x y z
#    x 1.297070 0.000000 0.000000 
#    y 0.000000 1.694830 0.000000 
#    z 0.000000 0.000000 1.682460 
# 
# From -- ./inp_files/45774.got.cif
#   From: 2010.05.17/outbox.cif.g08.bks.cpg/sg67_23_cif.got.tgz:45774.got - 2010.06.03 18:28:57.
