data_PCOD9501249
_publ_section_title
;
Structure prediction by ZEFSAII (Michael W. Deem and Ramdas Pophale) SiO2 
 PCOD9501249
Probable space group: C M M A
;
_chemical_formula_sum "Si O2"
_cell_formula_units_Z 104
_cell_length_a 20.741324
_cell_length_b 9.586269
_cell_length_c 28.507993
_cell_angle_alpha 90.000000
_cell_angle_beta 90.000000
_cell_angle_gamma 90.000000
_cell_volume 5668.298735
_symmetry_space_group_name_H-M "C M M A"
_symmetry_group_IT_number 67
_symmetry_cell_setting 'orthorhombic'
loop_
_space_group_symop_operation_xyz
x,y,z
-x,1/2-y,z
x,-y,-z
-x,1/2+y,-z
-x,-y,-z
x,1/2+y,-z
-x,y,z
x,1/2-y,z
1/2+x,1/2+y,z
1/2-x,-y,z
1/2+x,1/2-y,-z
1/2-x,y,-z
1/2-x,1/2-y,-z
1/2+x,y,-z
1/2-x,1/2+y,z
1/2+x,-y,z
loop_
_atom_site_type_symbol
_atom_site_label
_atom_site_fract_x
_atom_site_fract_y
_atom_site_fract_z
Si Si1 0.073338 0.080299 0.230486
Si Si2 0.125528 0.498057 0.400780
Si Si3 0.928153 0.581302 0.877480
Si Si4 0.696818 0.250000 0.432902
Si Si5 0.183983 0.421780 0.049084
Si Si6 0.342802 0.250000 0.534285
Si Si7 0.817367 0.085456 0.303513
Si Si8 0.000000 0.407693 0.548481
O O1 0.073285 0.250000 0.232018
O O2 0.083118 0.036672 0.176346
O O3 0.133091 0.035986 0.262840
O O4 0.000000 0.037248 0.244800
O O5 0.181485 0.612397 0.404870
O O6 0.129972 0.385468 0.441845
O O7 0.139742 0.429101 0.350961
O O8 0.059376 0.569887 0.415482
O O9 0.929965 0.750000 0.876210
O O10 0.871950 0.546502 0.913567
O O11 0.000000 0.533296 0.891793
O O12 0.652263 0.250000 0.478975
O O13 0.768382 0.250000 0.451212
O O14 0.190783 0.250000 0.044385
O O15 0.250000 0.500000 0.064162
O O16 0.168225 0.500000 0.000000
O O17 0.802384 0.250000 0.297393
O O18 0.750000 0.000000 0.304832
O O19 0.000000 0.500000 0.500000
O O20 0.000000 0.250000 0.530892
#
# Coordination Sequence:
#
# PCOD9501249 Si02
#       8
#    16  16  16   8  16   8  16   8
#     4   8  16  34  59  84 114 146 190 239 286 339
#     4  12  25  40  61  85 118 147 185 226 275 328
#     4   8  15  30  53  80 109 147 191 241 289 339
#     4  11  22  39  63  83 115 146 185 221 276 325
#     4  10  19  31  49  76 112 153 195 238 288 339
#     4  11  22  39  61  89 111 150 181 227 268 327
#     4  11  24  40  63  90 118 151 188 234 285 336
#     4  12  28  46  66  88 116 152 186 226 277 334
#
# _framework density 18.347656000000001
#
# number of rings (size 3 to 8) (size 9 to 14) (size 15 to 20)
#    0.000    1.846    1.538    4.615    3.231    2.154 
#    0.000    0.000    0.000    2.308    0.000    4.308 
#    0.000    0.000    0.000    0.000    0.000    0.000 
#
# Total GULP energy -289667.318708 kJ/mol
# GULP energy per Si atom -5570.525360 kJ/mol
# Density = 1.830590 g / cm^3
# Si number density = 18.347656 Si / 1000 Ang^3
#
#
#
# Elastic Constant Matrix: (Units=GPa)
#
#
# Indices 1 2 3 4 5 6 
#
# 1 130.3083 30.2534 74.6003 0.0000 0.0000 0.0000
# 2 30.2534 76.1798 18.9899 0.0000 0.0000 0.0000
# 3 74.6003 18.9899 90.1076 0.0000 0.0000 0.0000
# 4 0.0000 0.0000 0.0000 -83.5320 0.0000 0.0000
# 5 0.0000 0.0000 0.0000 0.0000 35.7507 0.0000
# 6 0.0000 0.0000 0.0000 0.0000 0.0000 20.0264
#
#
#
# Elastic Compliance Matrix: (Units=1/GPa)
#
#
# Indices 1 2 3 4 5 6 
#
# 1 0.015239 -0.003068 -0.011970 0.000000 0.000000 0.000000
# 2 -0.003068 0.014472 -0.000510 0.000000 0.000000 0.000000
# 3 -0.011970 -0.000510 0.021115 0.000000 0.000000 0.000000
# 4 0.000000 0.000000 0.000000 -0.011971 0.000000 0.000000
# 5 0.000000 0.000000 0.000000 0.000000 0.027971 0.000000
# 6 0.000000 0.000000 0.000000 0.000000 0.000000 0.049934
#
#
# Mechanical properties :
#
#
# Convention : Reuss Voigt Hill
#
# Bulk Modulus (GPa) = 50.68203 60.47588 55.57895
# Shear Modulus (GPa) = 32.37642 5.96583 19.17113
#
# Velocity S-wave (km/s) = 4.20528 1.80516 3.23597
# Velocity P-wave (km/s) = 7.15977 6.11371 6.65732
#
# Compressibility (1/GPa) = 0.01973086
#
# Stress axis : x y z
#
# Youngs Moduli (GPa) = 65.62098 69.09706 47.35933
#
# Poissons Ratio (x) = 0.21200 0.56688
# Poissons Ratio (y) = 0.20133 0.02415
# Poissons Ratio (z) = 0.78547 0.03524
#
# Static dielectric constant tensor:
#      x y z
#    x 1.679210 0.000000 0.000000 
#    y 0.000000 1.632150 0.000000 
#    z 0.000000 0.000000 1.625910 
# 
# From -- ./inp_files/45943.got.cif
#   From: 2010.05.17/outbox.cif.g08.bks.cpg/sg67_23_cif.got.tgz:45943.got - 2010.06.03 18:28:57.
