data_PCOD9501820
_publ_section_title
;
Structure prediction by ZEFSAII (Michael W. Deem and Ramdas Pophale) SiO2 
 PCOD9501820
Probable space group: C M M A
;
_chemical_formula_sum "Si O2"
_cell_formula_units_Z 80
_cell_length_a 14.416404
_cell_length_b 29.340050
_cell_length_c 8.209389
_cell_angle_alpha 90.000000
_cell_angle_beta 90.000000
_cell_angle_gamma 90.000000
_cell_volume 3472.391057
_symmetry_space_group_name_H-M "C M M A"
_symmetry_group_IT_number 67
_symmetry_cell_setting 'orthorhombic'
loop_
_space_group_symop_operation_xyz
x,y,z
-x,1/2-y,z
x,-y,-z
-x,1/2+y,-z
-x,-y,-z
x,1/2+y,-z
-x,y,z
x,1/2-y,z
1/2+x,1/2+y,z
1/2-x,-y,z
1/2+x,1/2-y,-z
1/2-x,y,-z
1/2-x,1/2-y,-z
1/2+x,y,-z
1/2-x,1/2+y,z
1/2+x,-y,z
loop_
_atom_site_type_symbol
_atom_site_label
_atom_site_fract_x
_atom_site_fract_y
_atom_site_fract_z
Si Si1 0.388092 0.451608 0.566001
Si Si2 0.605754 0.148588 0.063011
Si Si3 0.613797 0.642456 0.581520
Si Si4 0.386291 0.802686 0.261332
Si Si5 0.856417 0.049445 0.051985
O O1 0.354957 0.500000 0.500000
O O2 0.500000 0.451820 0.558990
O O3 0.357041 0.409271 0.456855
O O4 0.363814 0.445271 0.754436
O O5 0.500000 0.165802 0.071799
O O6 0.647713 0.157379 0.240707
O O7 0.646632 0.171428 0.901460
O O8 0.602628 0.094201 0.032842
O O9 0.500000 0.642855 0.586475
O O10 0.642546 0.672881 0.428333
O O11 0.500000 0.805022 0.261794
O O12 0.359402 0.750000 0.257949
O O13 0.750000 0.049371 0.000000
O O14 0.895378 0.000000 0.000000
#
# Coordination Sequence:
#
# PCOD9501820 Si02
#       5
#    16  16  16  16  16
#     4  10  19  34  58  84 110 144 190 241 289 339
#     4  10  19  34  57  81 110 146 189 232 277 337
#     4   9  17  30  50  80 109 138 179 226 276 331
#     4   9  17  30  51  81 115 145 177 231 290 331
#     4  11  23  37  52  79 115 150 189 229 286 346
#
# _framework density 23.038879000000001
#
# number of rings (size 3 to 8) (size 9 to 14) (size 15 to 20)
#    0.000    2.200    2.000    1.800    0.000    4.000 
#    0.000   11.000    0.000    0.600    0.000    1.400 
#    0.000    0.000    0.000    0.000    0.000    0.000 
#
# Total GULP energy -223702.534503 kJ/mol
# GULP energy per Si atom -5592.563363 kJ/mol
# Density = 2.298644 g / cm^3
# Si number density = 23.038879 Si / 1000 Ang^3
#
#
#
# Elastic Constant Matrix: (Units=GPa)
#
#
# Indices 1 2 3 4 5 6 
#
# 1 74.9174 1.3927 14.1622 0.0000 0.0000 0.0000
# 2 1.3927 145.4463 93.1769 0.0000 0.0000 0.0000
# 3 14.1622 93.1769 239.8885 0.0000 0.0000 0.0000
# 4 0.0000 0.0000 0.0000 31.3386 0.0000 0.0000
# 5 0.0000 0.0000 0.0000 0.0000 11.5613 0.0000
# 6 0.0000 0.0000 0.0000 0.0000 0.0000 54.1266
#
#
#
# Elastic Compliance Matrix: (Units=1/GPa)
#
#
# Indices 1 2 3 4 5 6 
#
# 1 0.013527 0.000509 -0.000996 0.000000 0.000000 0.000000
# 2 0.000509 0.009172 -0.003593 0.000000 0.000000 0.000000
# 3 -0.000996 -0.003593 0.005623 0.000000 0.000000 0.000000
# 4 0.000000 0.000000 0.000000 0.031910 0.000000 0.000000
# 5 0.000000 0.000000 0.000000 0.000000 0.086496 0.000000
# 6 0.000000 0.000000 0.000000 0.000000 0.000000 0.018475
#
#
# Mechanical properties :
#
#
# Convention : Reuss Voigt Hill
#
# Bulk Modulus (GPa) = 49.59940 75.30175 62.45058
# Shear Modulus (GPa) = 27.76499 42.83999 35.30249
#
# Velocity S-wave (km/s) = 3.47527 4.31683 3.91871
# Velocity P-wave (km/s) = 6.13830 7.58962 6.90221
#
# Compressibility (1/GPa) = 0.02016153
#
# Stress axis : x y z
#
# Youngs Moduli (GPa) = 73.92688 109.02686 177.84581
#
# Poissons Ratio (x) = -0.05546 0.17716
# Poissons Ratio (y) = -0.03760 0.63893
# Poissons Ratio (z) = 0.07364 0.39169
#
# Static dielectric constant tensor:
#      x y z
#    x 1.618980 0.000000 0.000000 
#    y 0.000000 1.820950 0.000000 
#    z 0.000000 0.000000 1.818700 
# 
# From -- ./inp_files/9957.got.cif
#   From: 2010.05.17/outbox.cif.g08.bks.cpg/sg67_5_cif.got.tgz:9957.got - 2010.06.03 18:28:57.
