data_PCOD9501345
_publ_section_title
;
Structure prediction by ZEFSAII (Michael W. Deem and Ramdas Pophale) SiO2 
 PCOD9501345
Probable space group: C M M A
;
_chemical_formula_sum "Si O2"
_cell_formula_units_Z 104
_cell_length_a 8.686348
_cell_length_b 21.213970
_cell_length_c 30.361806
_cell_angle_alpha 90.000000
_cell_angle_beta 90.000000
_cell_angle_gamma 90.000000
_cell_volume 5594.828465
_symmetry_space_group_name_H-M "C M M A"
_symmetry_group_IT_number 67
_symmetry_cell_setting 'orthorhombic'
loop_
_space_group_symop_operation_xyz
x,y,z
-x,1/2-y,z
x,-y,-z
-x,1/2+y,-z
-x,-y,-z
x,1/2+y,-z
-x,y,z
x,1/2-y,z
1/2+x,1/2+y,z
1/2-x,-y,z
1/2+x,1/2-y,-z
1/2-x,y,-z
1/2-x,1/2-y,-z
1/2+x,y,-z
1/2-x,1/2+y,z
1/2+x,-y,z
loop_
_atom_site_type_symbol
_atom_site_label
_atom_site_fract_x
_atom_site_fract_y
_atom_site_fract_z
Si Si1 0.314995 0.111314 0.950602
Si Si2 0.185748 0.067988 0.549209
Si Si3 0.317448 0.823194 0.192574
Si Si4 0.824213 0.673919 0.285623
Si Si5 0.182113 0.936339 0.136395
Si Si6 0.687651 0.677309 0.616791
Si Si7 0.315684 0.250000 0.951033
O O1 0.500000 0.106658 0.952359
O O2 0.246638 0.067708 0.913271
O O3 0.269728 0.181983 0.933650
O O4 0.250000 0.102144 0.000000
O O5 0.250000 0.077856 0.500000
O O6 0.233107 0.126059 0.580511
O O7 0.000000 0.065132 0.547873
O O8 0.250000 0.000000 0.564460
O O9 0.500000 0.825643 0.184850
O O10 0.268003 0.750000 0.184956
O O11 0.277741 0.840096 0.243181
O O12 0.236395 0.874373 0.162198
O O13 0.832370 0.750000 0.288021
O O14 0.765220 0.655568 0.334019
O O15 0.000000 0.650806 0.279011
O O16 0.000000 0.939638 0.135490
O O17 0.250000 0.000000 0.157257
O O18 0.500000 0.678955 0.617702
O O19 0.738270 0.750000 0.608641
O O20 0.500000 0.250000 0.951937
O O21 0.250000 0.250000 0.000000
#
# Coordination Sequence:
#
# PCOD9501345 Si02
#       7
#    16  16  16  16  16  16   8
#     4  10  20  37  59  86 116 150 186 226 274 323
#     4  10  19  32  49  69  99 139 181 223 269 321
#     4  10  21  38  61  88 117 148 183 225 273 327
#     4   8  14  29  54  81 107 137 177 222 268 322
#     4  12  26  43  61  84 114 150 189 231 278 329
#     4   8  15  29  51  77 103 134 175 224 273 319
#     4   8  16  30  52  80 112 142 172 214 262 306
#
# _framework density 18.588595000000002
#
# number of rings (size 3 to 8) (size 9 to 14) (size 15 to 20)
#    0.000    2.462    0.000    4.154    1.077    2.154 
#    0.000    3.846    0.000    5.077    0.000    0.000 
#    0.000    0.000    0.000    0.000    0.000    0.000 
#
# Total GULP energy -289861.013702 kJ/mol
# GULP energy per Si atom -5574.250263 kJ/mol
# Density = 1.854629 g / cm^3
# Si number density = 18.588595 Si / 1000 Ang^3
#
#
#
# Elastic Constant Matrix: (Units=GPa)
#
#
# Indices 1 2 3 4 5 6 
#
# 1 65.8870 40.2331 33.7598 0.0000 0.0000 0.0000
# 2 40.2331 122.8831 69.7494 0.0000 0.0000 0.0000
# 3 33.7598 69.7494 102.3229 0.0000 0.0000 0.0000
# 4 0.0000 0.0000 0.0000 7.8764 0.0000 0.0000
# 5 0.0000 0.0000 0.0000 0.0000 21.1407 0.0000
# 6 0.0000 0.0000 0.0000 0.0000 0.0000 19.4779
#
#
#
# Elastic Compliance Matrix: (Units=1/GPa)
#
#
# Indices 1 2 3 4 5 6 
#
# 1 0.019680 -0.004498 -0.003427 0.000000 0.000000 0.000000
# 2 -0.004498 0.014302 -0.008265 0.000000 0.000000 0.000000
# 3 -0.003427 -0.008265 0.016537 0.000000 0.000000 0.000000
# 4 0.000000 0.000000 0.000000 0.126961 0.000000 0.000000
# 5 0.000000 0.000000 0.000000 0.000000 0.047302 0.000000
# 6 0.000000 0.000000 0.000000 0.000000 0.000000 0.051340
#
#
# Mechanical properties :
#
#
# Convention : Reuss Voigt Hill
#
# Bulk Modulus (GPa) = 55.12848 64.28638 59.70743
# Shear Modulus (GPa) = 15.89575 19.52239 17.70907
#
# Velocity S-wave (km/s) = 2.92744 3.24425 3.08991
# Velocity P-wave (km/s) = 6.41468 6.97799 6.70226
#
# Compressibility (1/GPa) = 0.01813944
#
# Stress axis : x y z
#
# Youngs Moduli (GPa) = 50.81232 69.92128 60.46916
#
# Poissons Ratio (x) = 0.31454 0.20721
# Poissons Ratio (y) = 0.22858 0.49976
# Poissons Ratio (z) = 0.17412 0.57788
#
# Static dielectric constant tensor:
#      x y z
#    x 1.956710 0.000000 0.000000 
#    y 0.000000 1.674700 0.000000 
#    z 0.000000 0.000000 1.646320 
# 
# From -- ./inp_files/45355.got.cif
#   From: 2010.05.17/outbox.cif.g08.bks.cpg/sg67_23_cif.got.tgz:45355.got - 2010.06.03 18:28:57.
