data_PCOD9501140
_publ_section_title
;
Structure prediction by ZEFSAII (Michael W. Deem and Ramdas Pophale) SiO2 
 PCOD9501140
Probable space group: C M M A
;
_chemical_formula_sum "Si O2"
_cell_formula_units_Z 104
_cell_length_a 8.727742
_cell_length_b 26.957341
_cell_length_c 22.379731
_cell_angle_alpha 90.000000
_cell_angle_beta 90.000000
_cell_angle_gamma 90.000000
_cell_volume 5265.429643
_symmetry_space_group_name_H-M "C M M A"
_symmetry_group_IT_number 67
_symmetry_cell_setting 'orthorhombic'
loop_
_space_group_symop_operation_xyz
x,y,z
-x,1/2-y,z
x,-y,-z
-x,1/2+y,-z
-x,-y,-z
x,1/2+y,-z
-x,y,z
x,1/2-y,z
1/2+x,1/2+y,z
1/2-x,-y,z
1/2+x,1/2-y,-z
1/2-x,y,-z
1/2-x,1/2-y,-z
1/2+x,y,-z
1/2-x,1/2+y,z
1/2+x,-y,z
loop_
_atom_site_type_symbol
_atom_site_label
_atom_site_fract_x
_atom_site_fract_y
_atom_site_fract_z
Si Si1 0.682171 0.750000 0.433756
Si Si2 0.320653 0.905433 0.938263
Si Si3 0.672385 0.190330 0.756707
Si Si4 0.185020 0.055731 0.687731
Si Si5 0.320316 0.306330 0.118566
Si Si6 0.817155 0.554993 0.815315
Si Si7 0.679025 0.842326 0.638384
O O1 0.500000 0.750000 0.434961
O O2 0.750000 0.750000 0.500000
O O3 0.735926 0.800595 0.400588
O O4 0.500000 0.918065 0.935428
O O5 0.303355 0.845884 0.933606
O O6 0.239679 0.923252 0.877947
O O7 0.250000 0.924156 0.000000
O O8 0.500000 0.171800 0.743890
O O9 0.667691 0.250000 0.754871
O O10 0.723117 0.177760 0.823692
O O11 0.790705 0.174305 0.706464
O O12 0.249987 0.073978 0.752142
O O13 0.225415 0.099185 0.639951
O O14 0.000000 0.052831 0.691459
O O15 0.250000 0.000000 0.676219
O O16 0.500000 0.307120 0.136400
O O17 0.279685 0.250000 0.102366
O O18 0.750000 0.500000 0.816197
O O19 0.000000 0.555934 0.812480
O O20 0.500000 0.839845 0.623465
#
# Coordination Sequence:
#
# PCOD9501140 Si02
#       7
#     8  16  16  16  16  16  16
#     4  12  26  44  66  94 130 172 215 254 297 344
#     4  11  23  38  54  74 101 136 184 235 288 352
#     4  10  19  30  49  81 114 145 187 237 292 351
#     4  10  21  37  60  92 126 161 200 246 303 360
#     4   9  19  35  53  73 102 141 180 226 285 347
#     4  11  22  38  60  84 112 145 184 233 293 353
#     4  11  22  37  60  89 125 166 206 249 297 352
#
# _framework density 19.751474999999999
#
# number of rings (size 3 to 8) (size 9 to 14) (size 15 to 20)
#    0.000    1.538    0.769    5.769    0.000    8.615 
#    0.000    1.538    0.000    0.462    0.000    3.231 
#    0.000    0.000    0.000    0.000    0.000    0.000 
#
# Total GULP energy -290199.991739 kJ/mol
# GULP energy per Si atom -5580.769072 kJ/mol
# Density = 1.970652 g / cm^3
# Si number density = 19.751475 Si / 1000 Ang^3
#
#
#
# Elastic Constant Matrix: (Units=GPa)
#
#
# Indices 1 2 3 4 5 6 
#
# 1 103.6910 54.5615 47.3252 0.0000 0.0000 0.0000
# 2 54.5615 101.7582 64.4181 0.0000 0.0000 0.0000
# 3 47.3252 64.4181 76.7409 0.0000 0.0000 0.0000
# 4 0.0000 0.0000 0.0000 15.9327 0.0000 0.0000
# 5 0.0000 0.0000 0.0000 0.0000 26.1032 0.0000
# 6 0.0000 0.0000 0.0000 0.0000 0.0000 24.4874
#
#
#
# Elastic Compliance Matrix: (Units=1/GPa)
#
#
# Indices 1 2 3 4 5 6 
#
# 1 0.014308 -0.004452 -0.005087 0.000000 0.000000 0.000000
# 2 -0.004452 0.022356 -0.016021 0.000000 0.000000 0.000000
# 3 -0.005087 -0.016021 0.029616 0.000000 0.000000 0.000000
# 4 0.000000 0.000000 0.000000 0.062764 0.000000 0.000000
# 5 0.000000 0.000000 0.000000 0.000000 0.038309 0.000000
# 6 0.000000 0.000000 0.000000 0.000000 0.000000 0.040837
#
#
# Mechanical properties :
#
#
# Convention : Reuss Voigt Hill
#
# Bulk Modulus (GPa) = 65.95621 68.31110 67.13366
# Shear Modulus (GPa) = 18.91324 21.03033 19.97178
#
# Velocity S-wave (km/s) = 3.09781 3.26659 3.18331
# Velocity P-wave (km/s) = 6.80153 6.99198 6.89741
#
# Compressibility (1/GPa) = 0.01516157
#
# Stress axis : x y z
#
# Youngs Moduli (GPa) = 69.89046 44.73007 33.76503
#
# Poissons Ratio (x) = 0.19912 0.17176
# Poissons Ratio (y) = 0.31112 0.54096
# Poissons Ratio (z) = 0.35552 0.71663
#
# Static dielectric constant tensor:
#      x y z
#    x 1.678400 0.000000 0.000000 
#    y 0.000000 1.753880 0.000000 
#    z 0.000000 0.000000 1.655930 
# 
# From -- ./inp_files/37321.got.cif
#   From: 2010.05.17/outbox.cif.g08.bks.cpg/sg67_19_cif.got.tgz:37321.got - 2010.06.03 18:28:57.
