data_PCOD9501042
_publ_section_title
;
Structure prediction by ZEFSAII (Michael W. Deem and Ramdas Pophale) SiO2 
 PCOD9501042
Probable space group: C M M A
;
_chemical_formula_sum "Si O2"
_cell_formula_units_Z 120
_cell_length_a 9.007563
_cell_length_b 27.487690
_cell_length_c 29.598901
_cell_angle_alpha 90.000000
_cell_angle_beta 90.000000
_cell_angle_gamma 90.000000
_cell_volume 7328.602033
_symmetry_space_group_name_H-M "C M M A"
_symmetry_group_IT_number 67
_symmetry_cell_setting 'orthorhombic'
loop_
_space_group_symop_operation_xyz
x,y,z
-x,1/2-y,z
x,-y,-z
-x,1/2+y,-z
-x,-y,-z
x,1/2+y,-z
-x,y,z
x,1/2-y,z
1/2+x,1/2+y,z
1/2-x,-y,z
1/2+x,1/2-y,-z
1/2-x,y,-z
1/2-x,1/2-y,-z
1/2+x,y,-z
1/2-x,1/2+y,z
1/2+x,-y,z
loop_
_atom_site_type_symbol
_atom_site_label
_atom_site_fract_x
_atom_site_fract_y
_atom_site_fract_z
Si Si1 0.671072 0.809164 0.953985
Si Si2 0.821796 0.448470 0.275805
Si Si3 0.322819 0.692308 0.140070
Si Si4 0.825903 0.857819 0.225379
Si Si5 0.175159 0.604866 0.633724
Si Si6 0.677522 0.358451 0.450518
Si Si7 0.177687 0.750000 0.450803
Si Si8 0.326948 0.806083 0.681413
O O1 0.500000 0.824771 0.952370
O O2 0.672054 0.750000 0.955162
O O3 0.757204 0.822905 0.908469
O O4 0.750000 0.825823 0.000000
O O5 0.750000 0.500000 0.264434
O O6 0.754067 0.405644 0.245070
O O7 0.785879 0.434807 0.328130
O O8 0.000000 0.449272 0.271403
O O9 0.500000 0.686642 0.140324
O O10 0.289699 0.750000 0.146087
O O11 0.249442 0.662425 0.180482
O O12 0.816064 0.817483 0.265234
O O13 0.000000 0.867764 0.218029
O O14 0.261412 0.604209 0.586482
O O15 0.221243 0.655500 0.657534
O O16 0.000000 0.603306 0.625385
O O17 0.500000 0.361435 0.454352
O O18 0.750000 0.364176 0.500000
O O19 0.717181 0.303473 0.432588
O O20 0.250000 0.750000 0.500000
O O21 0.000000 0.750000 0.453889
O O22 0.500000 0.815281 0.668041
O O23 0.293625 0.750000 0.671673
#
# Coordination Sequence:
#
# PCOD9501042 Si02
#       8
#    16  16  16  16  16  16   8  16
#     4   9  16  26  40  59  87 127 175 220 257 294
#     4  10  21  38  58  77  98 122 154 196 244 296
#     4  10  19  29  43  66  99 138 175 212 252 293
#     4  10  19  32  50  72  97 126 162 201 245 295
#     4  10  21  34  49  73  98 123 156 192 232 280
#     4  10  19  32  49  69  96 128 160 193 228 269
#     4   8  16  28  42  62  88 122 158 188 216 252
#     4   9  18  31  46  65  93 128 162 194 228 273
#
# _framework density 16.374199999999998
#
# number of rings (size 3 to 8) (size 9 to 14) (size 15 to 20)
#    0.000    2.400    0.000    2.800    0.933    5.867 
#    0.000    0.000    0.000    0.400    0.000    2.800 
#    0.000    0.533    0.000    5.333    0.000    3.467 
#
# Total GULP energy -334559.143560 kJ/mol
# GULP energy per Si atom -5575.985726 kJ/mol
# Density = 1.633693 g / cm^3
# Si number density = 16.374200 Si / 1000 Ang^3
#
#
#
# Elastic Constant Matrix: (Units=GPa)
#
#
# Indices 1 2 3 4 5 6 
#
# 1 73.8333 28.5894 56.9020 0.0000 0.0000 0.0000
# 2 28.5894 49.1267 25.3656 0.0000 0.0000 0.0000
# 3 56.9020 25.3656 119.1260 0.0000 0.0000 0.0000
# 4 0.0000 0.0000 0.0000 13.1451 0.0000 0.0000
# 5 0.0000 0.0000 0.0000 0.0000 32.7769 0.0000
# 6 0.0000 0.0000 0.0000 0.0000 0.0000 18.7650
#
#
#
# Elastic Compliance Matrix: (Units=1/GPa)
#
#
# Indices 1 2 3 4 5 6 
#
# 1 0.024724 -0.009314 -0.009826 0.000000 0.000000 0.000000
# 2 -0.009314 0.026379 -0.001168 0.000000 0.000000 0.000000
# 3 -0.009826 -0.001168 0.013337 0.000000 0.000000 0.000000
# 4 0.000000 0.000000 0.000000 0.076074 0.000000 0.000000
# 5 0.000000 0.000000 0.000000 0.000000 0.030509 0.000000
# 6 0.000000 0.000000 0.000000 0.000000 0.000000 0.053291
#
#
# Mechanical properties :
#
#
# Convention : Reuss Voigt Hill
#
# Bulk Modulus (GPa) = 41.97693 51.53333 46.75513
# Shear Modulus (GPa) = 18.32367 21.68599 20.00483
#
# Velocity S-wave (km/s) = 3.34886 3.64318 3.49912
# Velocity P-wave (km/s) = 6.37533 7.01695 6.70382
#
# Compressibility (1/GPa) = 0.02382261
#
# Stress axis : x y z
#
# Youngs Moduli (GPa) = 40.44718 37.90885 74.98084
#
# Poissons Ratio (x) = 0.35310 0.73678
# Poissons Ratio (y) = 0.37674 0.08756
# Poissons Ratio (z) = 0.39744 0.04427
#
# Static dielectric constant tensor:
#      x y z
#    x 1.548520 0.000000 0.000000 
#    y 0.000000 1.535250 0.000000 
#    z 0.000000 0.000000 1.554310 
# 
# From -- ./inp_files/43895.got.cif
#   From: 2010.05.17/outbox.cif.g08.bks.cpg/sg67_22_cif.got.tgz:43895.got - 2010.06.03 18:28:57.
