data_PCOD9501286
_publ_section_title
;
Structure prediction by ZEFSAII (Michael W. Deem and Ramdas Pophale) SiO2 
 PCOD9501286
Probable space group: C M M A
;
_chemical_formula_sum "Si O2"
_cell_formula_units_Z 96
_cell_length_a 24.549785
_cell_length_b 14.885695
_cell_length_c 10.151519
_cell_angle_alpha 90.000000
_cell_angle_beta 90.000000
_cell_angle_gamma 90.000000
_cell_volume 3709.777314
_symmetry_space_group_name_H-M "C M M A"
_symmetry_group_IT_number 67
_symmetry_cell_setting 'orthorhombic'
loop_
_space_group_symop_operation_xyz
x,y,z
-x,1/2-y,z
x,-y,-z
-x,1/2+y,-z
-x,-y,-z
x,1/2+y,-z
-x,y,z
x,1/2-y,z
1/2+x,1/2+y,z
1/2-x,-y,z
1/2+x,1/2-y,-z
1/2-x,y,-z
1/2-x,1/2-y,-z
1/2+x,y,-z
1/2-x,1/2+y,z
1/2+x,-y,z
loop_
_atom_site_type_symbol
_atom_site_label
_atom_site_fract_x
_atom_site_fract_y
_atom_site_fract_z
Si Si1 0.916678 0.885555 0.372068
Si Si2 0.684200 0.096196 0.726180
Si Si3 0.671549 0.143567 0.007245
Si Si4 0.061196 0.899556 0.660025
Si Si5 0.443466 0.852779 0.923391
Si Si6 0.798976 0.387336 0.690437
O O1 0.941619 0.862370 0.511687
O O2 0.937674 0.848064 0.234247
O O3 0.853321 0.855759 0.382395
O O4 0.929058 0.992503 0.351936
O O5 0.621605 0.130161 0.713152
O O6 0.737280 0.141645 0.659418
O O7 0.691267 0.994490 0.676792
O O8 0.696675 0.094676 0.882778
O O9 0.673650 0.250000 0.975534
O O10 0.610249 0.106220 0.017554
O O11 0.692431 0.135282 0.155382
O O12 0.000000 0.883643 0.720030
O O13 0.500000 0.897600 0.957254
O O14 0.444036 0.750000 0.971089
#
# Coordination Sequence:
#
# PCOD9501286 Si02
#       6
#    16  16  16  16  16  16
#     4   9  17  32  52  73  97 124 163 206 239 280
#     4  10  20  33  49  73 104 131 159 197 244 297
#     4  10  20  33  51  74  99 130 166 203 244 289
#     4  10  19  31  51  75  99 129 159 195 245 292
#     4   9  17  30  49  71  96 129 167 204 239 278
#     4   9  19  34  52  73  97 129 165 203 243 282
#
# _framework density 25.877562000000001
#
# number of rings (size 3 to 8) (size 9 to 14) (size 15 to 20)
#    0.000    2.500    0.000    3.000    0.000    4.000 
#    0.000    4.167    0.000    7.000    0.000    5.833 
#    0.000    0.000    0.000    0.000    0.000    0.000 
#
# Total GULP energy -267551.104759 kJ/mol
# GULP energy per Si atom -5573.981349 kJ/mol
# Density = 2.581866 g / cm^3
# Si number density = 25.877562 Si / 1000 Ang^3
#
#
#
# Elastic Constant Matrix: (Units=GPa)
#
#
# Indices 1 2 3 4 5 6 
#
# 1 254.8221 9.1593 25.0839 0.0000 0.0000 0.0000
# 2 9.1593 72.2553 -6.4948 0.0000 0.0000 0.0000
# 3 25.0839 -6.4948 72.9020 0.0000 0.0000 0.0000
# 4 0.0000 0.0000 0.0000 19.1497 0.0000 0.0000
# 5 0.0000 0.0000 0.0000 0.0000 16.4548 0.0000
# 6 0.0000 0.0000 0.0000 0.0000 0.0000 -8.3395
#
#
#
# Elastic Compliance Matrix: (Units=1/GPa)
#
#
# Indices 1 2 3 4 5 6 
#
# 1 0.004092 -0.000650 -0.001466 0.000000 0.000000 0.000000
# 2 -0.000650 0.014055 0.001476 0.000000 0.000000 0.000000
# 3 -0.001466 0.001476 0.014353 0.000000 0.000000 0.000000
# 4 0.000000 0.000000 0.000000 0.052220 0.000000 0.000000
# 5 0.000000 0.000000 0.000000 0.000000 0.060773 0.000000
# 6 0.000000 0.000000 0.000000 0.000000 0.000000 -0.119912
#
#
# Mechanical properties :
#
#
# Convention : Reuss Voigt Hill
#
# Bulk Modulus (GPa) = 32.03178 50.60848 41.32013
# Shear Modulus (GPa) = 134.16468 30.26842 82.21655
#
# Velocity S-wave (km/s) = 7.20822 3.42377 5.64272
# Velocity P-wave (km/s) = 9.03787 5.93540 7.64565
#
# Compressibility (1/GPa) = 0.03121900
#
# Stress axis : x y z
#
# Youngs Moduli (GPa) = 244.38002 71.14939 69.67221
#
# Poissons Ratio (x) = 0.04628 0.10213
# Poissons Ratio (y) = 0.15896 -0.10283
# Poissons Ratio (z) = 0.35824 -0.10501
#
# Static dielectric constant tensor:
#      x y z
#    x 2.162110 0.000000 0.000000 
#    y 0.000000 2.030370 0.000000 
#    z 0.000000 0.000000 1.968680 
# 
# From -- ./inp_files/13730.got.cif
#   From: 2010.05.17/outbox.cif.g08.bks.cpg/sg67_7_cif.got.tgz:13730.got - 2010.06.03 18:28:57.
