data_PCOD9501420
_publ_section_title
;
Structure prediction by ZEFSAII (Michael W. Deem and Ramdas Pophale) SiO2 
 PCOD9501420
Probable space group: C M M A
;
_chemical_formula_sum "Si O2"
_cell_formula_units_Z 112
_cell_length_a 22.198249
_cell_length_b 26.137371
_cell_length_c 11.134193
_cell_angle_alpha 90.000000
_cell_angle_beta 90.000000
_cell_angle_gamma 90.000000
_cell_volume 6460.101864
_symmetry_space_group_name_H-M "C M M A"
_symmetry_group_IT_number 67
_symmetry_cell_setting 'orthorhombic'
loop_
_space_group_symop_operation_xyz
x,y,z
-x,1/2-y,z
x,-y,-z
-x,1/2+y,-z
-x,-y,-z
x,1/2+y,-z
-x,y,z
x,1/2-y,z
1/2+x,1/2+y,z
1/2-x,-y,z
1/2+x,1/2-y,-z
1/2-x,y,-z
1/2-x,1/2-y,-z
1/2+x,y,-z
1/2-x,1/2+y,z
1/2+x,-y,z
loop_
_atom_site_type_symbol
_atom_site_label
_atom_site_fract_x
_atom_site_fract_y
_atom_site_fract_z
Si Si1 0.930266 0.689528 0.530232
Si Si2 0.680794 0.980230 0.626126
Si Si3 0.671390 0.860544 0.068850
Si Si4 0.569740 0.806685 0.182576
Si Si5 0.214875 0.690394 0.166474
Si Si6 0.810781 0.640134 0.417705
Si Si7 0.318065 0.478526 0.877465
O O1 0.924155 0.750000 0.499119
O O2 0.925492 0.685832 0.674597
O O3 0.873438 0.658570 0.478043
O O4 0.000000 0.674451 0.497716
O O5 0.682494 0.918948 0.622514
O O6 0.653232 0.000000 0.500000
O O7 0.750000 0.000000 0.624691
O O8 0.654446 0.003254 0.750229
O O9 0.604761 0.848749 0.109677
O O10 0.715321 0.822598 0.142064
O O11 0.686871 0.917926 0.105766
O O12 0.681939 0.846139 0.930389
O O13 0.500000 0.807350 0.152153
O O14 0.593846 0.750000 0.153485
O O15 0.202597 0.750000 0.142837
O O16 0.199016 0.674809 0.300653
O O17 0.750000 0.643820 0.500000
O O18 0.250000 0.500000 0.875459
O O19 0.347437 0.500000 0.000000
#
# Coordination Sequence:
#
# PCOD9501420 Si02
#       7
#    16  16  16  16  16  16  16
#     4   9  20  37  55  78 112 149 182 224 277 336
#     4  10  19  33  49  78 110 140 179 240 282 319
#     4  11  20  34  56  76 110 144 176 225 280 328
#     4   9  18  34  56  79 102 136 184 225 264 325
#     4  11  22  33  49  82 117 142 175 227 282 332
#     4  12  22  34  57  82 111 149 192 228 278 339
#     4  10  19  32  51  74 104 141 182 219 273 340
#
# _framework density 17.337188999999999
#
# number of rings (size 3 to 8) (size 9 to 14) (size 15 to 20)
#    0.000    1.714    1.429    8.143    2.000    2.286 
#    0.000    0.714    0.000    4.286    0.000    0.000 
#    0.000    0.000    0.000    0.000    0.000    0.000 
#
# Total GULP energy -312082.405778 kJ/mol
# GULP energy per Si atom -5572.900103 kJ/mol
# Density = 1.729773 g / cm^3
# Si number density = 17.337189 Si / 1000 Ang^3
#
#
#
# Elastic Constant Matrix: (Units=GPa)
#
#
# Indices 1 2 3 4 5 6 
#
# 1 71.6031 45.2180 37.0658 0.0000 0.0000 0.0000
# 2 45.2180 118.1481 42.1502 0.0000 0.0000 0.0000
# 3 37.0658 42.1502 81.0824 0.0000 0.0000 0.0000
# 4 0.0000 0.0000 0.0000 27.7759 0.0000 0.0000
# 5 0.0000 0.0000 0.0000 0.0000 8.9004 0.0000
# 6 0.0000 0.0000 0.0000 0.0000 0.0000 15.7342
#
#
#
# Elastic Compliance Matrix: (Units=1/GPa)
#
#
# Indices 1 2 3 4 5 6 
#
# 1 0.020981 -0.005657 -0.006650 0.000000 0.000000 0.000000
# 2 -0.005657 0.011917 -0.003609 0.000000 0.000000 0.000000
# 3 -0.006650 -0.003609 0.017249 0.000000 0.000000 0.000000
# 4 0.000000 0.000000 0.000000 0.036002 0.000000 0.000000
# 5 0.000000 0.000000 0.000000 0.000000 0.112355 0.000000
# 6 0.000000 0.000000 0.000000 0.000000 0.000000 0.063556
#
#
# Mechanical properties :
#
#
# Convention : Reuss Voigt Hill
#
# Bulk Modulus (GPa) = 54.60211 57.74462 56.17337
# Shear Modulus (GPa) = 16.66684 20.24209 18.45446
#
# Velocity S-wave (km/s) = 3.10390 3.42065 3.26612
# Velocity P-wave (km/s) = 6.66395 6.99859 6.83332
#
# Compressibility (1/GPa) = 0.01831431
#
# Stress axis : x y z
#
# Youngs Moduli (GPa) = 47.66178 83.91699 57.97406
#
# Poissons Ratio (x) = 0.47475 0.38555
# Poissons Ratio (y) = 0.26964 0.20920
# Poissons Ratio (z) = 0.31697 0.30282
#
# Static dielectric constant tensor:
#      x y z
#    x 1.567250 0.000000 0.000000 
#    y 0.000000 1.547270 0.000000 
#    z 0.000000 0.000000 1.642970 
# 
# From -- ./inp_files/21083.got.cif
#   From: 2010.05.17/outbox.cif.g08.bks.cpg/sg67_11_cif.got.tgz:21083.got - 2010.06.03 18:28:57.
