data_PCOD9501396
_publ_section_title
;
Structure prediction by ZEFSAII (Michael W. Deem and Ramdas Pophale) SiO2 
 PCOD9501396
Probable space group: C M M A
;
_chemical_formula_sum "Si O2"
_cell_formula_units_Z 112
_cell_length_a 22.942856
_cell_length_b 20.596104
_cell_length_c 11.800148
_cell_angle_alpha 90.000000
_cell_angle_beta 90.000000
_cell_angle_gamma 90.000000
_cell_volume 5575.964624
_symmetry_space_group_name_H-M "C M M A"
_symmetry_group_IT_number 67
_symmetry_cell_setting 'orthorhombic'
loop_
_space_group_symop_operation_xyz
x,y,z
-x,1/2-y,z
x,-y,-z
-x,1/2+y,-z
-x,-y,-z
x,1/2+y,-z
-x,y,z
x,1/2-y,z
1/2+x,1/2+y,z
1/2-x,-y,z
1/2+x,1/2-y,-z
1/2-x,y,-z
1/2-x,1/2-y,-z
1/2+x,y,-z
1/2-x,1/2+y,z
1/2+x,-y,z
loop_
_atom_site_type_symbol
_atom_site_label
_atom_site_fract_x
_atom_site_fract_y
_atom_site_fract_z
Si Si1 0.333841 0.425295 0.013142
Si Si2 0.932836 0.321218 0.401602
Si Si3 0.906192 0.678154 0.336538
Si Si4 0.736801 0.077203 0.810435
Si Si5 0.434130 0.940140 0.820021
Si Si6 0.571571 0.533853 0.379375
Si Si7 0.732548 0.823097 0.630750
O O1 0.290448 0.398452 0.108994
O O2 0.397052 0.427239 0.067682
O O3 0.315498 0.500000 0.000000
O O4 0.319413 0.403394 0.886681
O O5 0.906184 0.250000 0.372650
O O6 0.932945 0.324801 0.538293
O O7 0.908144 0.391579 0.368657
O O8 0.000000 0.320002 0.361915
O O9 0.916322 0.750000 0.289782
O O10 0.931840 0.624455 0.255275
O O11 0.837030 0.669026 0.354295
O O12 0.737786 0.118966 0.698141
O O13 0.750000 0.000000 0.789087
O O14 0.500000 0.958157 0.848180
O O15 0.409087 0.993677 0.731678
O O16 0.588901 0.500000 0.500000
O O17 0.500000 0.532938 0.380241
O O18 0.747342 0.750000 0.672044
O O19 0.750000 0.825990 0.500000
#
# Coordination Sequence:
#
# PCOD9501396 Si02
#       7
#    16  16  16  16  16  16  16
#     4   9  19  37  58  81 112 149 197 247 296 340
#     4   9  16  28  46  69 106 157 199 230 280 355
#     4  10  19  32  50  78 117 154 188 230 291 359
#     4   9  18  38  63  83 111 152 200 244 285 346
#     4  11  20  32  54  83 117 152 196 251 302 351
#     4   9  16  27  43  72 111 149 190 238 290 352
#     4  10  21  38  58  87 126 153 182 237 300 359
#
# _framework density 20.086209
#
# number of rings (size 3 to 8) (size 9 to 14) (size 15 to 20)
#    0.000    2.429    2.857    1.286    0.000    1.429 
#    5.143    3.571    0.000    0.000    0.000    5.000 
#    0.000    2.286    0.000    0.000    0.000    0.000 
#
# Total GULP energy -311987.743998 kJ/mol
# GULP energy per Si atom -5571.209714 kJ/mol
# Density = 2.004049 g / cm^3
# Si number density = 20.086209 Si / 1000 Ang^3
#
#
#
# Elastic Constant Matrix: (Units=GPa)
#
#
# Indices 1 2 3 4 5 6 
#
# 1 55.5909 19.2798 30.6411 0.0000 0.0000 0.0000
# 2 19.2798 128.9490 45.4685 0.0000 0.0000 0.0000
# 3 30.6411 45.4685 66.7476 0.0000 0.0000 0.0000
# 4 0.0000 0.0000 0.0000 4.6500 0.0000 0.0000
# 5 0.0000 0.0000 0.0000 0.0000 53.7298 0.0000
# 6 0.0000 0.0000 0.0000 0.0000 0.0000 12.2677
#
#
#
# Elastic Compliance Matrix: (Units=1/GPa)
#
#
# Indices 1 2 3 4 5 6 
#
# 1 0.024097 0.000392 -0.011329 0.000000 0.000000 0.000000
# 2 0.000392 0.010213 -0.007137 0.000000 0.000000 0.000000
# 3 -0.011329 -0.007137 0.025044 0.000000 0.000000 0.000000
# 4 0.000000 0.000000 0.000000 0.215054 0.000000 0.000000
# 5 0.000000 0.000000 0.000000 0.000000 0.018612 0.000000
# 6 0.000000 0.000000 0.000000 0.000000 0.000000 0.081515
#
#
# Mechanical properties :
#
#
# Convention : Reuss Voigt Hill
#
# Bulk Modulus (GPa) = 43.09210 49.11849 46.10530
# Shear Modulus (GPa) = 11.94976 24.52270 18.23623
#
# Velocity S-wave (km/s) = 2.44175 3.49789 3.01640
# Velocity P-wave (km/s) = 5.42676 6.38910 5.92749
#
# Compressibility (1/GPa) = 0.02320611
#
# Stress axis : x y z
#
# Youngs Moduli (GPa) = 41.49892 97.91465 39.92952
#
# Poissons Ratio (x) = -0.03836 0.45236
# Poissons Ratio (y) = -0.01626 0.28497
# Poissons Ratio (z) = 0.47013 0.69881
#
# Static dielectric constant tensor:
#      x y z
#    x 1.706660 0.000000 0.000000 
#    y 0.000000 1.735160 0.000000 
#    z 0.000000 0.000000 1.714180 
# 
# From -- ./inp_files/23110.got.cif
#   From: 2010.05.17/outbox.cif.g08.bks.cpg/sg67_12_cif.got.tgz:23110.got - 2010.06.03 18:28:57.
