data_PCOD9501527
_publ_section_title
;
Structure prediction by ZEFSAII (Michael W. Deem and Ramdas Pophale) SiO2 
 PCOD9501527
Probable space group: C M M A
;
_chemical_formula_sum "Si O2"
_cell_formula_units_Z 96
_cell_length_a 16.771053
_cell_length_b 14.628821
_cell_length_c 21.942207
_cell_angle_alpha 90.000000
_cell_angle_beta 90.000000
_cell_angle_gamma 90.000000
_cell_volume 5383.317134
_symmetry_space_group_name_H-M "C M M A"
_symmetry_group_IT_number 67
_symmetry_cell_setting 'orthorhombic'
loop_
_space_group_symop_operation_xyz
x,y,z
-x,1/2-y,z
x,-y,-z
-x,1/2+y,-z
-x,-y,-z
x,1/2+y,-z
-x,y,z
x,1/2-y,z
1/2+x,1/2+y,z
1/2-x,-y,z
1/2+x,1/2-y,-z
1/2-x,y,-z
1/2-x,1/2-y,-z
1/2+x,y,-z
1/2-x,1/2+y,z
1/2+x,-y,z
loop_
_atom_site_type_symbol
_atom_site_label
_atom_site_fract_x
_atom_site_fract_y
_atom_site_fract_z
Si Si1 0.153552 0.354369 0.834538
Si Si2 0.154247 0.000000 0.596059
Si Si3 0.653551 0.645631 0.165462
Si Si4 0.347141 0.000000 0.735275
Si Si5 0.595654 0.144988 0.500000
Si Si6 0.095562 0.000000 0.930175
O O1 0.125555 0.250000 0.834402
O O2 0.250000 0.354122 0.834940
O O3 0.128133 0.411728 0.774795
O O4 0.125312 0.411949 0.892745
O O5 0.125368 0.000000 0.665743
O O6 0.125308 0.911750 0.558497
O O7 0.250000 0.000000 0.595720
O O8 0.125309 0.088250 0.558497
O O9 0.625554 0.750000 0.165598
O O10 0.628132 0.588272 0.225205
O O11 0.625311 0.588051 0.107256
O O12 0.250000 0.000000 0.733928
O O13 0.500000 0.143654 0.500000
O O14 0.623082 0.250000 0.500000
O O15 0.000000 0.000001 0.929886
O O16 0.123641 0.000000 0.000000
#
# Coordination Sequence:
#
# PCOD9501527 Si02
#       6
#    16  16  16  16  16  16
#     4   9  18  34  55  76  99 129 165 204 245 292
#     4  10  19  32  54  79 100 126 163 208 250 289
#     4   9  18  34  55  76  99 129 165 204 245 292
#     4   8  16  31  51  77 104 127 156 200 252 297
#     4  10  21  36  51  69 100 138 169 201 244 293
#     4  10  21  35  50  71 102 136 166 202 248 293
#
# _framework density 17.832871000000001
#
# number of rings (size 3 to 8) (size 9 to 14) (size 15 to 20)
#    0.000    2.667    0.000    3.500    0.000    5.333 
#    0.000   13.333    0.000    0.000    0.000    0.000 
#    0.000    0.000    0.000    0.000    0.000    0.000 
#
# Total GULP energy -267701.221526 kJ/mol
# GULP energy per Si atom -5577.108782 kJ/mol
# Density = 1.779228 g / cm^3
# Si number density = 17.832871 Si / 1000 Ang^3
#
#
#
# Elastic Constant Matrix: (Units=GPa)
#
#
# Indices 1 2 3 4 5 6 
#
# 1 24.0457 24.9919 20.9165 0.0000 0.0000 0.0000
# 2 24.9919 206.6577 111.9736 0.0000 0.0000 0.0000
# 3 20.9165 111.9736 204.3913 0.0000 0.0000 0.0000
# 4 0.0000 0.0000 0.0000 4.6693 0.0000 0.0000
# 5 0.0000 0.0000 0.0000 0.0000 200.3019 0.0000
# 6 0.0000 0.0000 0.0000 0.0000 0.0000 11.3397
#
#
#
# Elastic Compliance Matrix: (Units=1/GPa)
#
#
# Indices 1 2 3 4 5 6 
#
# 1 0.048438 -0.004511 -0.002486 0.000000 0.000000 0.000000
# 2 -0.004511 0.007302 -0.003539 0.000000 0.000000 0.000000
# 3 -0.002486 -0.003539 0.007086 0.000000 0.000000 0.000000
# 4 0.000000 0.000000 0.000000 0.214167 0.000000 0.000000
# 5 0.000000 0.000000 0.000000 0.000000 0.004992 0.000000
# 6 0.000000 0.000000 0.000000 0.000000 0.000000 0.088186
#
#
# Mechanical properties :
#
#
# Convention : Reuss Voigt Hill
#
# Bulk Modulus (GPa) = 23.94922 83.42877 53.68899
# Shear Modulus (GPa) = 12.34081 61.74301 37.04191
#
# Velocity S-wave (km/s) = 2.63349 5.89053 4.56254
# Velocity P-wave (km/s) = 4.76508 9.65141 7.61103
#
# Compressibility (1/GPa) = 0.04175501
#
# Stress axis : x y z
#
# Youngs Moduli (GPa) = 20.64487 136.95344 141.13323
#
# Poissons Ratio (x) = 0.61780 0.35081
# Poissons Ratio (y) = 0.09313 0.49941
# Poissons Ratio (z) = 0.05132 0.48462
#
# Static dielectric constant tensor:
#      x y z
#    x 1.611320 0.000000 0.000000 
#    y 0.000000 1.597110 0.000000 
#    z 0.000000 0.000000 1.594650 
# 
# From -- ./inp_files/38435.got.cif
#   From: 2010.05.17/outbox.cif.g08.bks.cpg/sg67_20_cif.got.tgz:38435.got - 2010.06.03 18:28:57.
