data_PCOD9501631
_publ_section_title
;
Structure prediction by ZEFSAII (Michael W. Deem and Ramdas Pophale) SiO2 
 PCOD9501631
Probable space group: C M M A
;
_chemical_formula_sum "Si O2"
_cell_formula_units_Z 96
_cell_length_a 8.593820
_cell_length_b 32.576729
_cell_length_c 19.182898
_cell_angle_alpha 90.000000
_cell_angle_beta 90.000000
_cell_angle_gamma 90.000000
_cell_volume 5370.416217
_symmetry_space_group_name_H-M "C M M A"
_symmetry_group_IT_number 67
_symmetry_cell_setting 'orthorhombic'
loop_
_space_group_symop_operation_xyz
x,y,z
-x,1/2-y,z
x,-y,-z
-x,1/2+y,-z
-x,-y,-z
x,1/2+y,-z
-x,y,z
x,1/2-y,z
1/2+x,1/2+y,z
1/2-x,-y,z
1/2+x,1/2-y,-z
1/2-x,y,-z
1/2-x,1/2-y,-z
1/2+x,y,-z
1/2-x,1/2+y,z
1/2+x,-y,z
loop_
_atom_site_type_symbol
_atom_site_label
_atom_site_fract_x
_atom_site_fract_y
_atom_site_fract_z
Si Si1 0.185163 0.118122 0.829788
Si Si2 0.814178 0.544206 0.421935
Si Si3 0.815557 0.295135 0.165453
Si Si4 0.313908 0.956210 0.078558
Si Si5 0.188055 0.882901 0.672344
Si Si6 0.814860 0.293797 0.334041
O O1 0.231028 0.163487 0.857946
O O2 0.254701 0.081905 0.876405
O O3 0.255557 0.114244 0.752099
O O4 0.000000 0.114712 0.826518
O O5 0.750000 0.500000 0.398101
O O6 0.750000 0.550753 0.500000
O O7 0.754561 0.580125 0.372393
O O8 0.000000 0.543039 0.423729
O O9 0.762226 0.250000 0.139964
O O10 0.798933 0.294180 0.249820
O O11 0.000000 0.298751 0.151168
O O12 0.500000 0.957390 0.077396
O O13 0.250000 0.000000 0.105670
O O14 0.250000 0.951907 0.000000
O O15 0.243514 0.838367 0.642994
O O16 0.000000 0.883509 0.671645
O O17 0.748466 0.250000 0.359247
O O18 0.000000 0.293118 0.348415
#
# Coordination Sequence:
#
# PCOD9501631 Si02
#       6
#    16  16  16  16  16  16
#     4  11  21  33  51  80 112 141 175 216 261 307
#     4  11  22  38  57  77 101 133 172 212 258 314
#     4   8  14  27  47  71 101 138 176 213 256 305
#     4  11  22  39  59  79 103 135 174 214 260 314
#     4  10  19  33  53  79 108 138 173 215 260 304
#     4   7  11  22  43  70  99 131 166 203 245 294
#
# _framework density 17.875710000000002
#
# number of rings (size 3 to 8) (size 9 to 14) (size 15 to 20)
#    0.000    2.333    0.000    8.000    0.000    1.000 
#    0.000    3.333    0.000    2.500    0.000    0.000 
#    0.000    0.000    0.000    0.000    0.000    0.000 
#
# Total GULP energy -267549.506716 kJ/mol
# GULP energy per Si atom -5573.948057 kJ/mol
# Density = 1.783502 g / cm^3
# Si number density = 17.875710 Si / 1000 Ang^3
#
#
#
# Elastic Constant Matrix: (Units=GPa)
#
#
# Indices 1 2 3 4 5 6 
#
# 1 127.9059 74.3843 24.8945 0.0000 0.0000 0.0000
# 2 74.3843 225.1522 67.6872 0.0000 0.0000 0.0000
# 3 24.8945 67.6872 32.3179 0.0000 0.0000 0.0000
# 4 0.0000 0.0000 0.0000 2.7352 0.0000 0.0000
# 5 0.0000 0.0000 0.0000 0.0000 22.5701 0.0000
# 6 0.0000 0.0000 0.0000 0.0000 0.0000 27.6133
#
#
#
# Elastic Compliance Matrix: (Units=1/GPa)
#
#
# Indices 1 2 3 4 5 6 
#
# 1 0.009728 -0.002595 -0.002058 0.000000 0.000000 0.000000
# 2 -0.002595 0.012685 -0.024568 0.000000 0.000000 0.000000
# 3 -0.002058 -0.024568 0.083983 0.000000 0.000000 0.000000
# 4 0.000000 0.000000 0.000000 0.365608 0.000000 0.000000
# 5 0.000000 0.000000 0.000000 0.000000 0.044306 0.000000
# 6 0.000000 0.000000 0.000000 0.000000 0.000000 0.036214
#
#
# Mechanical properties :
#
#
# Convention : Reuss Voigt Hill
#
# Bulk Modulus (GPa) = 20.85351 79.92310 50.38830
# Shear Modulus (GPa) = 7.97510 25.14439 16.55974
#
# Velocity S-wave (km/s) = 2.11450 3.75457 3.04696
# Velocity P-wave (km/s) = 4.20150 7.97516 6.37400
#
# Compressibility (1/GPa) = 0.04795356
#
# Stress axis : x y z
#
# Youngs Moduli (GPa) = 102.79557 78.83600 11.90715
#
# Poissons Ratio (x) = 0.20459 0.02451
# Poissons Ratio (y) = 0.26677 0.29253
# Poissons Ratio (z) = 0.21158 1.93682
#
# Static dielectric constant tensor:
#      x y z
#    x 1.598470 0.000000 0.000000 
#    y 0.000000 1.661720 0.000000 
#    z 0.000000 0.000000 1.583830 
# 
# From -- ./inp_files/40951.got.cif
#   From: 2010.05.17/outbox.cif.g08.bks.cpg/sg67_21_cif.got.tgz:40951.got - 2010.06.03 18:28:57.
