data_PCOD9501440
_publ_section_title
;
Structure prediction by ZEFSAII (Michael W. Deem and Ramdas Pophale) SiO2 
 PCOD9501440
Probable space group: C M M A
;
_chemical_formula_sum "Si O2"
_cell_formula_units_Z 80
_cell_length_a 26.944891
_cell_length_b 9.136049
_cell_length_c 18.627049
_cell_angle_alpha 90.000000
_cell_angle_beta 90.000000
_cell_angle_gamma 90.000000
_cell_volume 4585.417755
_symmetry_space_group_name_H-M "C M M A"
_symmetry_group_IT_number 67
_symmetry_cell_setting 'orthorhombic'
loop_
_space_group_symop_operation_xyz
x,y,z
-x,1/2-y,z
x,-y,-z
-x,1/2+y,-z
-x,-y,-z
x,1/2+y,-z
-x,y,z
x,1/2-y,z
1/2+x,1/2+y,z
1/2-x,-y,z
1/2+x,1/2-y,-z
1/2-x,y,-z
1/2-x,1/2-y,-z
1/2+x,y,-z
1/2-x,1/2+y,z
1/2+x,-y,z
loop_
_atom_site_type_symbol
_atom_site_label
_atom_site_fract_x
_atom_site_fract_y
_atom_site_fract_z
Si Si1 0.593414 0.927715 0.675224
Si Si2 0.701362 0.417315 0.336694
Si Si3 0.500000 0.574831 0.076812
Si Si4 0.402762 0.426132 0.830474
Si Si5 0.800438 0.079958 0.838388
Si Si6 0.000000 0.925146 0.423306
O O1 0.594869 0.750000 0.686178
O O2 0.646838 0.973294 0.643097
O O3 0.548445 0.963905 0.623050
O O4 0.587813 0.005899 0.751768
O O5 0.705384 0.250000 0.359174
O O6 0.750000 0.500000 0.362023
O O7 0.701012 0.421780 0.249176
O O8 0.500000 0.750000 0.068318
O O9 0.450112 0.536584 0.120599
O O10 0.500000 0.500000 0.000000
O O11 0.397935 0.250000 0.825923
O O12 0.351041 0.495836 0.858143
O O13 0.801709 0.250000 0.860407
O O14 0.750000 0.000000 0.862948
O O15 0.000000 0.750000 0.432388
O O16 0.000000 0.000000 0.500000
#
# Coordination Sequence:
#
# PCOD9501440 Si02
#       6
#    16  16   8  16  16   8
#     4   9  18  32  50  73  99 129 163 201 246 299
#     4   8  14  24  40  65  95 122 152 188 230 279
#     4  10  23  38  52  72 100 134 171 210 254 302
#     4  10  19  32  51  77 104 130 166 211 251 295
#     4   9  16  27  45  72 103 134 164 199 246 297
#     4  10  21  36  52  70  96 128 165 208 254 302
#
# _framework density 17.44661
#
# number of rings (size 3 to 8) (size 9 to 14) (size 15 to 20)
#    0.000    2.800    0.000    3.000    0.000    7.200 
#    0.000    0.000    0.000    1.200    0.000    8.400 
#    0.000    0.000    0.000    0.000    0.000    0.000 
#
# Total GULP energy -222902.352078 kJ/mol
# GULP energy per Si atom -5572.558802 kJ/mol
# Density = 1.740690 g / cm^3
# Si number density = 17.446610 Si / 1000 Ang^3
#
#
#
# Elastic Constant Matrix: (Units=GPa)
#
#
# Indices 1 2 3 4 5 6 
#
# 1 226.1712 80.3890 76.1179 0.0000 0.0000 0.0000
# 2 80.3890 65.4242 37.5607 0.0000 0.0000 0.0000
# 3 76.1179 37.5607 57.4647 0.0000 0.0000 0.0000
# 4 0.0000 0.0000 0.0000 21.4458 0.0000 0.0000
# 5 0.0000 0.0000 0.0000 0.0000 -3.9874 0.0000
# 6 0.0000 0.0000 0.0000 0.0000 0.0000 32.4053
#
#
#
# Elastic Compliance Matrix: (Units=1/GPa)
#
#
# Indices 1 2 3 4 5 6 
#
# 1 0.009767 -0.007321 -0.008153 0.000000 0.000000 0.000000
# 2 -0.007321 0.029953 -0.009881 0.000000 0.000000 0.000000
# 3 -0.008153 -0.009881 0.034659 0.000000 0.000000 0.000000
# 4 0.000000 0.000000 0.000000 0.046629 0.000000 0.000000
# 5 0.000000 0.000000 0.000000 0.000000 -0.250791 0.000000
# 6 0.000000 0.000000 0.000000 0.000000 0.000000 0.030859
#
#
# Mechanical properties :
#
#
# Convention : Reuss Voigt Hill
#
# Bulk Modulus (GPa) = 42.24600 81.91057 62.07828
# Shear Modulus (GPa) = -123.99571 20.30558 -51.84507
#
# Velocity S-wave (km/s) = -8.43954 3.41525 -5.45719
# Velocity P-wave (km/s) = 8.40837 7.91221 2.01216
#
# Compressibility (1/GPa) = 0.02367088
#
# Stress axis : x y z
#
# Youngs Moduli (GPa) = 102.38259 33.38557 28.85221
#
# Poissons Ratio (x) = 0.24441 0.23522
# Poissons Ratio (y) = 0.74953 0.28509
# Poissons Ratio (z) = 0.83468 0.32988
#
# Static dielectric constant tensor:
#      x y z
#    x 1.610270 0.000000 0.000000 
#    y 0.000000 1.594340 0.000000 
#    z 0.000000 0.000000 1.550220 
# 
# From -- ./inp_files/32178.got.cif
#   From: 2010.05.17/outbox.cif.g08.bks.cpg/sg67_17_cif.got.tgz:32178.got - 2010.06.03 18:28:57.
