data_PCOD9501848
_publ_section_title
;
Structure prediction by ZEFSAII (Michael W. Deem and Ramdas Pophale) SiO2 
 PCOD9501848
Probable space group: C M M A
;
_chemical_formula_sum "Si O2"
_cell_formula_units_Z 112
_cell_length_a 24.020513
_cell_length_b 20.255285
_cell_length_c 11.354846
_cell_angle_alpha 90.000000
_cell_angle_beta 90.000000
_cell_angle_gamma 90.000000
_cell_volume 5524.613305
_symmetry_space_group_name_H-M "C M M A"
_symmetry_group_IT_number 67
_symmetry_cell_setting 'orthorhombic'
loop_
_space_group_symop_operation_xyz
x,y,z
-x,1/2-y,z
x,-y,-z
-x,1/2+y,-z
-x,-y,-z
x,1/2+y,-z
-x,y,z
x,1/2-y,z
1/2+x,1/2+y,z
1/2-x,-y,z
1/2+x,1/2-y,-z
1/2-x,y,-z
1/2-x,1/2-y,-z
1/2+x,y,-z
1/2-x,1/2+y,z
1/2+x,-y,z
loop_
_atom_site_type_symbol
_atom_site_label
_atom_site_fract_x
_atom_site_fract_y
_atom_site_fract_z
Si Si1 0.312147 0.978999 0.837713
Si Si2 0.777922 0.594486 0.379265
Si Si3 0.889080 0.829158 0.376013
Si Si4 0.355556 0.103744 0.960593
Si Si5 0.561600 0.669842 0.379455
Si Si6 0.933989 0.173197 0.878709
Si Si7 0.321861 0.172817 0.744234
O O1 0.308009 0.960707 0.700880
O O2 0.324743 0.916455 0.919236
O O3 0.250000 0.000000 0.868866
O O4 0.352762 0.037844 0.879312
O O5 0.750000 0.572596 0.500000
O O6 0.826859 0.646816 0.402811
O O7 0.728337 0.629131 0.306086
O O8 0.890515 0.750000 0.374407
O O9 0.927760 0.850523 0.484896
O O10 0.909067 0.850809 0.246539
O O11 0.413378 0.130973 0.010261
O O12 0.326163 0.159245 0.883096
O O13 0.500000 0.647087 0.339495
O O14 0.560430 0.750000 0.375684
O O15 0.617426 0.651871 0.307520
O O16 0.916701 0.250000 0.895323
O O17 0.000000 0.171495 0.868647
O O18 0.313207 0.250000 0.716877
#
# Coordination Sequence:
#
# PCOD9501848 Si02
#       7
#    16  16  16  16  16  16  16
#     4  11  24  43  64  84 118 165 214 259 311 372
#     4  12  23  39  63  92 123 159 206 272 328 389
#     4  10  19  34  58  91 129 164 202 259 327 391
#     4  11  22  41  63  85 122 167 210 261 310 372
#     4   9  18  34  56  83 122 168 203 243 310 385
#     4  10  21  38  64  97 129 166 215 268 322 382
#     4  11  23  36  57  94 128 158 203 255 324 394
#
# _framework density 20.272911000000001
#
# number of rings (size 3 to 8) (size 9 to 14) (size 15 to 20)
#    0.000    1.429    4.286    2.143    0.000    3.143 
#    0.000    3.571    0.000    0.000    0.000    1.000 
#    0.000    0.000    0.000    0.000    0.000    0.000 
#
# Total GULP energy -312354.086025 kJ/mol
# GULP energy per Si atom -5577.751536 kJ/mol
# Density = 2.022677 g / cm^3
# Si number density = 20.272911 Si / 1000 Ang^3
#
#
#
# Elastic Constant Matrix: (Units=GPa)
#
#
# Indices 1 2 3 4 5 6 
#
# 1 88.7224 22.5388 17.6308 0.0000 0.0000 0.0000
# 2 22.5388 39.8043 35.3339 0.0000 0.0000 0.0000
# 3 17.6308 35.3339 98.7254 0.0000 0.0000 0.0000
# 4 0.0000 0.0000 0.0000 24.0558 0.0000 0.0000
# 5 0.0000 0.0000 0.0000 0.0000 30.8316 0.0000
# 6 0.0000 0.0000 0.0000 0.0000 0.0000 19.8645
#
#
#
# Elastic Compliance Matrix: (Units=1/GPa)
#
#
# Indices 1 2 3 4 5 6 
#
# 1 0.013179 -0.007875 0.000465 0.000000 0.000000 0.000000
# 2 -0.007875 0.041527 -0.013456 0.000000 0.000000 0.000000
# 3 0.000465 -0.013456 0.014862 0.000000 0.000000 0.000000
# 4 0.000000 0.000000 0.000000 0.041570 0.000000 0.000000
# 5 0.000000 0.000000 0.000000 0.000000 0.032434 0.000000
# 6 0.000000 0.000000 0.000000 0.000000 0.000000 0.050341
#
#
# Mechanical properties :
#
#
# Convention : Reuss Voigt Hill
#
# Bulk Modulus (GPa) = 35.92556 42.02880 38.97718
# Shear Modulus (GPa) = 20.41435 25.06697 22.74066
#
# Velocity S-wave (km/s) = 3.17673 3.52017 3.35285
# Velocity P-wave (km/s) = 5.58703 6.10726 5.85293
#
# Compressibility (1/GPa) = 0.02783533
#
# Stress axis : x y z
#
# Youngs Moduli (GPa) = 75.87616 24.08055 67.28546
#
# Poissons Ratio (x) = 0.18965 -0.03129
# Poissons Ratio (y) = 0.59756 0.90541
# Poissons Ratio (z) = -0.03528 0.32403
#
# Static dielectric constant tensor:
#      x y z
#    x 1.696450 0.000000 0.000000 
#    y 0.000000 1.760960 0.000000 
#    z 0.000000 0.000000 1.768210 
# 
# From -- ./inp_files/22163.got.cif
#   From: 2010.05.17/outbox.cif.g08.bks.cpg/sg67_12_cif.got.tgz:22163.got - 2010.06.03 18:28:57.
