data_PCOD9501730
_publ_section_title
;
Structure prediction by ZEFSAII (Michael W. Deem and Ramdas Pophale) SiO2 
 PCOD9501730
Probable space group: C M M A
;
_chemical_formula_sum "Si O2"
_cell_formula_units_Z 88
_cell_length_a 15.481320
_cell_length_b 9.171300
_cell_length_c 30.967443
_cell_angle_alpha 90.000000
_cell_angle_beta 90.000000
_cell_angle_gamma 90.000000
_cell_volume 4396.876166
_symmetry_space_group_name_H-M "C M M A"
_symmetry_group_IT_number 67
_symmetry_cell_setting 'orthorhombic'
loop_
_space_group_symop_operation_xyz
x,y,z
-x,1/2-y,z
x,-y,-z
-x,1/2+y,-z
-x,-y,-z
x,1/2+y,-z
-x,y,z
x,1/2-y,z
1/2+x,1/2+y,z
1/2-x,-y,z
1/2+x,1/2-y,-z
1/2-x,y,-z
1/2-x,1/2-y,-z
1/2+x,y,-z
1/2-x,1/2+y,z
1/2+x,-y,z
loop_
_atom_site_type_symbol
_atom_site_label
_atom_site_fract_x
_atom_site_fract_y
_atom_site_fract_z
Si Si1 0.395193 0.581852 0.807188
Si Si2 0.662286 0.575546 0.106311
Si Si3 0.000000 0.924490 0.953846
Si Si4 0.344060 0.074271 0.458033
Si Si5 0.897320 0.913439 0.361701
Si Si6 0.394189 0.084664 0.721026
O O1 0.500000 0.576888 0.809032
O O2 0.368285 0.750000 0.811679
O O3 0.359478 0.486266 0.846303
O O4 0.368565 0.516696 0.761008
O O5 0.670701 0.750000 0.107938
O O6 0.750000 0.500000 0.091299
O O7 0.583889 0.537127 0.074429
O O8 0.000000 0.750000 0.959608
O O9 0.000000 0.000000 0.000000
O O10 0.339861 0.250000 0.463604
O O11 0.384521 0.043049 0.411378
O O12 0.387116 0.000000 0.500000
O O13 0.250000 0.000000 0.455792
O O14 0.860776 0.750000 0.356282
O O15 0.000000 0.904224 0.354837
O O16 0.864073 0.020916 0.324849
O O17 0.500000 0.086724 0.720739
O O18 0.365011 0.250000 0.727425
#
# Coordination Sequence:
#
# PCOD9501730 Si02
#       6
#    16  16   8  16  16  16
#     4  10  19  33  57  86 116 156 200 242 291 351
#     4  11  23  41  63  93 128 165 208 259 310 362
#     4  10  24  44  68  94 128 168 210 258 311 366
#     4  10  20  34  52  71  94 127 166 211 263 323
#     4   9  18  33  51  73 102 134 172 219 270 326
#     4   9  17  29  49  78 110 145 183 227 278 334
#
# _framework density 20.014209999999999
#
# number of rings (size 3 to 8) (size 9 to 14) (size 15 to 20)
#    0.000    2.182    0.909    2.727    0.000    6.545 
#    0.000    2.727    0.000    2.182    0.000    0.000 
#    0.000    0.000    0.000    0.000    0.000    0.000 
#
# Total GULP energy -245678.601613 kJ/mol
# GULP energy per Si atom -5583.604582 kJ/mol
# Density = 1.996866 g / cm^3
# Si number density = 20.014210 Si / 1000 Ang^3
#
#
#
# Elastic Constant Matrix: (Units=GPa)
#
#
# Indices 1 2 3 4 5 6 
#
# 1 59.4320 41.7873 40.3886 0.0000 0.0000 0.0000
# 2 41.7873 110.2211 78.5377 0.0000 0.0000 0.0000
# 3 40.3886 78.5377 155.9836 0.0000 0.0000 0.0000
# 4 0.0000 0.0000 0.0000 41.8971 0.0000 0.0000
# 5 0.0000 0.0000 0.0000 0.0000 -64.2641 0.0000
# 6 0.0000 0.0000 0.0000 0.0000 0.0000 20.1980
#
#
#
# Elastic Compliance Matrix: (Units=1/GPa)
#
#
# Indices 1 2 3 4 5 6 
#
# 1 0.023550 -0.007148 -0.002499 0.000000 0.000000 0.000000
# 2 -0.007148 0.016318 -0.006365 0.000000 0.000000 0.000000
# 3 -0.002499 -0.006365 0.010263 0.000000 0.000000 0.000000
# 4 0.000000 0.000000 0.000000 0.023868 0.000000 0.000000
# 5 0.000000 0.000000 0.000000 0.000000 -0.015561 0.000000
# 6 0.000000 0.000000 0.000000 0.000000 0.000000 0.049510
#
#
# Mechanical properties :
#
#
# Convention : Reuss Voigt Hill
#
# Bulk Modulus (GPa) = 55.22755 71.89598 63.56176
# Shear Modulus (GPa) = 34.24478 10.56107 22.40293
#
# Velocity S-wave (km/s) = 4.14094 2.29962 3.34930
# Velocity P-wave (km/s) = 7.10755 6.56136 6.83991
#
# Compressibility (1/GPa) = 0.01810690
#
# Stress axis : x y z
#
# Youngs Moduli (GPa) = 42.46336 61.28124 97.43777
#
# Poissons Ratio (x) = 0.43802 0.24348
# Poissons Ratio (y) = 0.30351 0.62024
# Poissons Ratio (z) = 0.10611 0.39008
#
# Static dielectric constant tensor:
#      x y z
#    x 1.739840 0.000000 0.000000 
#    y 0.000000 1.684670 0.000000 
#    z 0.000000 0.000000 1.693430 
# 
# From -- ./inp_files/45785.got.cif
#   From: 2010.05.17/outbox.cif.g08.bks.cpg/sg67_23_cif.got.tgz:45785.got - 2010.06.03 18:28:57.
