data_PCOD9501710
_publ_section_title
;
Structure prediction by ZEFSAII (Michael W. Deem and Ramdas Pophale) SiO2 
 PCOD9501710
Probable space group: C M M A
;
_chemical_formula_sum "Si O2"
_cell_formula_units_Z 104
_cell_length_a 30.384496
_cell_length_b 8.879177
_cell_length_c 20.946982
_cell_angle_alpha 90.000000
_cell_angle_beta 90.000000
_cell_angle_gamma 90.000000
_cell_volume 5651.271989
_symmetry_space_group_name_H-M "C M M A"
_symmetry_group_IT_number 67
_symmetry_cell_setting 'orthorhombic'
loop_
_space_group_symop_operation_xyz
x,y,z
-x,1/2-y,z
x,-y,-z
-x,1/2+y,-z
-x,-y,-z
x,1/2+y,-z
-x,y,z
x,1/2-y,z
1/2+x,1/2+y,z
1/2-x,-y,z
1/2+x,1/2-y,-z
1/2-x,y,-z
1/2-x,1/2-y,-z
1/2+x,y,-z
1/2-x,1/2+y,z
1/2+x,-y,z
loop_
_atom_site_type_symbol
_atom_site_label
_atom_site_fract_x
_atom_site_fract_y
_atom_site_fract_z
Si Si1 0.903107 0.931292 0.570268
Si Si2 0.500000 0.070219 0.569708
Si Si3 0.879718 0.068680 0.295014
Si Si4 0.551042 0.433495 0.810030
Si Si5 0.294400 0.579746 0.759509
Si Si6 0.704543 0.579145 0.912883
Si Si7 0.390531 0.069061 0.933813
O O1 0.900455 0.750000 0.563024
O O2 0.875218 0.981535 0.631185
O O3 0.952485 0.971443 0.595542
O O4 0.895752 0.000000 0.500000
O O5 0.500000 0.250000 0.566141
O O6 0.500000 0.000000 0.500000
O O7 0.882217 0.250000 0.296629
O O8 0.921925 0.017623 0.253166
O O9 0.836693 0.015587 0.258699
O O10 0.500000 0.483735 0.811516
O O11 0.550204 0.250000 0.809302
O O12 0.579614 0.476556 0.872716
O O13 0.297777 0.750000 0.734957
O O14 0.250000 0.500000 0.736667
O O15 0.292775 0.587253 0.836127
O O16 0.701600 0.750000 0.938290
O O17 0.750000 0.500000 0.932828
O O18 0.659630 0.490183 0.927210
O O19 0.390217 0.250000 0.936761
O O20 0.408122 0.000000 0.000000
#
# Coordination Sequence:
#
# PCOD9501710 Si02
#       7
#    16   8  16  16  16  16  16
#     4   9  18  30  48  74 107 145 183 223 267 319
#     4   8  14  26  42  66  98 136 177 214 256 305
#     4  10  19  33  56  83 110 143 184 227 270 320
#     4   9  19  35  56  81 108 141 186 232 271 315
#     4  10  20  34  56  83 112 142 176 220 272 327
#     4  10  20  35  56  82 112 142 176 218 271 330
#     4  11  22  37  57  80 109 145 184 227 274 323
#
# _framework density 18.402936
#
# number of rings (size 3 to 8) (size 9 to 14) (size 15 to 20)
#    0.000    2.308    1.538    1.385    1.077    2.462 
#    0.000    1.538    0.000    4.154    0.000    3.231 
#    0.000    0.000    0.000    0.000    0.000    0.000 
#
# Total GULP energy -289676.129018 kJ/mol
# GULP energy per Si atom -5570.694789 kJ/mol
# Density = 1.836105 g / cm^3
# Si number density = 18.402936 Si / 1000 Ang^3
#
#
#
# Elastic Constant Matrix: (Units=GPa)
#
#
# Indices 1 2 3 4 5 6 
#
# 1 109.2959 20.8446 49.7818 0.0000 0.0000 0.0000
# 2 20.8446 38.5754 32.8595 0.0000 0.0000 0.0000
# 3 49.7818 32.8595 118.8137 0.0000 0.0000 0.0000
# 4 0.0000 0.0000 0.0000 18.3272 0.0000 0.0000
# 5 0.0000 0.0000 0.0000 0.0000 -5.6877 0.0000
# 6 0.0000 0.0000 0.0000 0.0000 0.0000 20.5865
#
#
#
# Elastic Compliance Matrix: (Units=1/GPa)
#
#
# Indices 1 2 3 4 5 6 
#
# 1 0.011529 -0.002767 -0.004065 0.000000 0.000000 0.000000
# 2 -0.002767 0.034577 -0.008403 0.000000 0.000000 0.000000
# 3 -0.004065 -0.008403 0.012444 0.000000 0.000000 0.000000
# 4 0.000000 0.000000 0.000000 0.054564 0.000000 0.000000
# 5 0.000000 0.000000 0.000000 0.000000 -0.175818 0.000000
# 6 0.000000 0.000000 0.000000 0.000000 0.000000 0.048576
#
#
# Mechanical properties :
#
#
# Convention : Reuss Voigt Hill
#
# Bulk Modulus (GPa) = 35.61455 52.62854 44.12155
# Shear Modulus (GPa) = 194.54312 17.52513 106.03412
#
# Velocity S-wave (km/s) = 10.29284 3.08928 7.59889
# Velocity P-wave (km/s) = 12.67483 6.43311 10.05078
#
# Compressibility (1/GPa) = 0.02807841
#
# Stress axis : x y z
#
# Youngs Moduli (GPa) = 86.73939 28.92134 80.36066
#
# Poissons Ratio (x) = 0.08002 0.32669
# Poissons Ratio (y) = 0.23999 0.67530
# Poissons Ratio (z) = 0.35262 0.24304
#
# Static dielectric constant tensor:
#      x y z
#    x 1.645630 0.000000 0.000000 
#    y 0.000000 1.628260 0.000000 
#    z 0.000000 0.000000 1.644270 
# 
# From -- ./inp_files/40188.got.cif
#   From: 2010.05.17/outbox.cif.g08.bks.cpg/sg67_21_cif.got.tgz:40188.got - 2010.06.03 18:28:57.
