data_PCOD9501080
_publ_section_title
;
Structure prediction by ZEFSAII (Michael W. Deem and Ramdas Pophale) SiO2 
 PCOD9501080
Probable space group: C M M A
;
_chemical_formula_sum "Si O2"
_cell_formula_units_Z 112
_cell_length_a 16.642894
_cell_length_b 27.124735
_cell_length_c 13.088298
_cell_angle_alpha 90.000000
_cell_angle_beta 90.000000
_cell_angle_gamma 90.000000
_cell_volume 5908.503889
_symmetry_space_group_name_H-M "C M M A"
_symmetry_group_IT_number 67
_symmetry_cell_setting 'orthorhombic'
loop_
_space_group_symop_operation_xyz
x,y,z
-x,1/2-y,z
x,-y,-z
-x,1/2+y,-z
-x,-y,-z
x,1/2+y,-z
-x,y,z
x,1/2-y,z
1/2+x,1/2+y,z
1/2-x,-y,z
1/2+x,1/2-y,-z
1/2-x,y,-z
1/2-x,1/2-y,-z
1/2+x,y,-z
1/2-x,1/2+y,z
1/2+x,-y,z
loop_
_atom_site_type_symbol
_atom_site_label
_atom_site_fract_x
_atom_site_fract_y
_atom_site_fract_z
Si Si1 0.252587 0.943609 0.751035
Si Si2 0.645075 0.693807 0.256338
Si Si3 0.166448 0.602881 0.057153
Si Si4 0.092280 0.402373 0.150337
Si Si5 0.088918 0.808035 0.518145
Si Si6 0.594968 0.193420 0.175970
Si Si7 0.692161 0.847970 0.647412
O O1 0.310723 0.933696 0.849709
O O2 0.161955 0.929577 0.785626
O O3 0.284960 0.904540 0.668421
O O4 0.250000 0.000000 0.719374
O O5 0.641492 0.750000 0.220419
O O6 0.614663 0.654943 0.173008
O O7 0.593416 0.688126 0.359562
O O8 0.734013 0.681320 0.299636
O O9 0.136691 0.654614 0.101338
O O10 0.250000 0.611162 0.000000
O O11 0.106134 0.585307 0.969026
O O12 0.000000 0.411717 0.179450
O O13 0.098104 0.750000 0.492602
O O14 0.162736 0.836352 0.466240
O O15 0.000000 0.824532 0.485573
O O16 0.500000 0.192587 0.159453
O O17 0.622753 0.250000 0.166618
O O18 0.616710 0.171760 0.286813
#
# Coordination Sequence:
#
# PCOD9501080 Si02
#       7
#    16  16  16  16  16  16  16
#     4   9  20  39  57  75 100 131 170 218 272 325
#     4  10  20  33  51  76 108 146 182 213 251 308
#     4   9  19  33  51  73  98 133 172 212 256 315
#     4  10  20  34  52  76 105 135 172 217 262 307
#     4  10  19  31  50  79 112 142 174 213 256 305
#     4  10  19  30  45  70 105 137 165 206 260 314
#     4  10  19  32  53  75  99 134 174 217 263 314
#
# _framework density 18.955729999999999
#
# number of rings (size 3 to 8) (size 9 to 14) (size 15 to 20)
#    0.000    2.286    0.000    3.857    0.000    6.571 
#    0.000    5.000    0.000    6.857    0.000    5.000 
#    0.000    0.000    0.000    0.000    0.000    0.000 
#
# Total GULP energy -312210.867761 kJ/mol
# GULP energy per Si atom -5575.194067 kJ/mol
# Density = 1.891259 g / cm^3
# Si number density = 18.955730 Si / 1000 Ang^3
#
#
#
# Elastic Constant Matrix: (Units=GPa)
#
#
# Indices 1 2 3 4 5 6 
#
# 1 71.8895 9.3627 9.3822 0.0000 0.0000 0.0000
# 2 9.3627 60.3204 -2.3916 0.0000 0.0000 0.0000
# 3 9.3822 -2.3916 21.3472 0.0000 0.0000 0.0000
# 4 0.0000 0.0000 0.0000 4.1244 0.0000 0.0000
# 5 0.0000 0.0000 0.0000 0.0000 6.8196 0.0000
# 6 0.0000 0.0000 0.0000 0.0000 0.0000 10.7717
#
#
#
# Elastic Compliance Matrix: (Units=1/GPa)
#
#
# Indices 1 2 3 4 5 6 
#
# 1 0.015161 -0.002629 -0.006958 0.000000 0.000000 0.000000
# 2 -0.002629 0.017108 0.003072 0.000000 0.000000 0.000000
# 3 -0.006958 0.003072 0.050247 0.000000 0.000000 0.000000
# 4 0.000000 0.000000 0.000000 0.242458 0.000000 0.000000
# 5 0.000000 0.000000 0.000000 0.000000 0.146637 0.000000
# 6 0.000000 0.000000 0.000000 0.000000 0.000000 0.092835
#
#
# Mechanical properties :
#
#
# Convention : Reuss Voigt Hill
#
# Bulk Modulus (GPa) = 14.39137 20.69597 17.54367
# Shear Modulus (GPa) = 8.32449 13.49006 10.90728
#
# Velocity S-wave (km/s) = 2.09787 2.67059 2.40137
# Velocity P-wave (km/s) = 3.67106 4.52230 4.11873
#
# Compressibility (1/GPa) = 0.06948611
#
# Stress axis : x y z
#
# Youngs Moduli (GPa) = 65.96009 58.45213 19.90180
#
# Poissons Ratio (x) = 0.15367 0.13847
# Poissons Ratio (y) = 0.17341 -0.06114
# Poissons Ratio (z) = 0.45893 -0.17957
#
# Static dielectric constant tensor:
#      x y z
#    x 1.697960 0.000000 0.000000 
#    y 0.000000 1.634740 0.000000 
#    z 0.000000 0.000000 1.725950 
# 
# From -- ./inp_files/27668.got.cif
#   From: 2010.05.17/outbox.cif.g08.bks.cpg/sg67_14_cif.got.tgz:27668.got - 2010.06.03 18:28:57.
