data_PCOD9501863
_publ_section_title
;
Structure prediction by ZEFSAII (Michael W. Deem and Ramdas Pophale) SiO2 
 PCOD9501863
Probable space group: C M M A
;
_chemical_formula_sum "Si O2"
_cell_formula_units_Z 80
_cell_length_a 15.895787
_cell_length_b 26.325349
_cell_length_c 9.255608
_cell_angle_alpha 90.000000
_cell_angle_beta 90.000000
_cell_angle_gamma 90.000000
_cell_volume 3873.121534
_symmetry_space_group_name_H-M "C M M A"
_symmetry_group_IT_number 67
_symmetry_cell_setting 'orthorhombic'
loop_
_space_group_symop_operation_xyz
x,y,z
-x,1/2-y,z
x,-y,-z
-x,1/2+y,-z
-x,-y,-z
x,1/2+y,-z
-x,y,z
x,1/2-y,z
1/2+x,1/2+y,z
1/2-x,-y,z
1/2+x,1/2-y,-z
1/2-x,y,-z
1/2-x,1/2-y,-z
1/2+x,y,-z
1/2-x,1/2+y,z
1/2+x,-y,z
loop_
_atom_site_type_symbol
_atom_site_label
_atom_site_fract_x
_atom_site_fract_y
_atom_site_fract_z
Si Si1 0.179299 0.386870 0.387055
Si Si2 0.903618 0.447609 0.921302
Si Si3 0.151307 0.007351 0.332012
Si Si4 0.900003 0.693067 0.392154
Si Si5 0.202364 0.348549 0.865921
O O1 0.250000 0.408657 0.500000
O O2 0.129384 0.433343 0.314391
O O3 0.131190 0.347034 0.487739
O O4 0.228745 0.361736 0.255724
O O5 0.900284 0.466132 0.755547
O O6 0.842639 0.399407 0.929550
O O7 0.000000 0.436477 0.964385
O O8 0.875335 0.500000 0.000000
O O9 0.139098 0.000000 0.500000
O O10 0.250000 0.000000 0.291667
O O11 0.871246 0.750000 0.431471
O O12 0.865873 0.680330 0.231921
O O13 0.000000 0.691525 0.389101
O O14 0.250000 0.322847 0.000000
#
# Coordination Sequence:
#
# PCOD9501863 Si02
#       5
#    16  16  16  16  16
#     4  10  19  34  60  88 115 157 206 246 297 361
#     4  11  24  37  54  85 127 170 204 242 298 364
#     4  11  18  32  55  84 118 158 202 247 293 344
#     4  10  23  44  66  88 121 159 200 262 325 369
#     4  11  22  37  62  91 121 160 204 255 302 367
#
# _framework density 20.655175
#
# number of rings (size 3 to 8) (size 9 to 14) (size 15 to 20)
#    0.000    1.400    4.000    3.000    0.000    5.200 
#    0.000    2.000    0.000    2.400    0.000    0.000 
#    0.000    0.000    0.000    0.000    0.000    0.000 
#
# Total GULP energy -223172.598288 kJ/mol
# GULP energy per Si atom -5579.314957 kJ/mol
# Density = 2.060816 g / cm^3
# Si number density = 20.655175 Si / 1000 Ang^3
#
#
#
# Elastic Constant Matrix: (Units=GPa)
#
#
# Indices 1 2 3 4 5 6 
#
# 1 56.5692 26.9725 18.5005 0.0000 0.0000 0.0000
# 2 26.9725 87.3286 -0.4278 0.0000 0.0000 0.0000
# 3 18.5005 -0.4278 67.6414 0.0000 0.0000 0.0000
# 4 0.0000 0.0000 0.0000 17.6505 0.0000 0.0000
# 5 0.0000 0.0000 0.0000 0.0000 17.1775 0.0000
# 6 0.0000 0.0000 0.0000 0.0000 0.0000 11.9462
#
#
#
# Elastic Compliance Matrix: (Units=1/GPa)
#
#
# Indices 1 2 3 4 5 6 
#
# 1 0.023199 -0.007197 -0.006391 0.000000 0.000000 0.000000
# 2 -0.007197 0.013684 0.002055 0.000000 0.000000 0.000000
# 3 -0.006391 0.002055 0.016545 0.000000 0.000000 0.000000
# 4 0.000000 0.000000 0.000000 0.056656 0.000000 0.000000
# 5 0.000000 0.000000 0.000000 0.000000 0.058216 0.000000
# 6 0.000000 0.000000 0.000000 0.000000 0.000000 0.083709
#
#
# Mechanical properties :
#
#
# Convention : Reuss Voigt Hill
#
# Bulk Modulus (GPa) = 32.93505 33.51441 33.22473
# Shear Modulus (GPa) = 17.53201 20.45444 18.99323
#
# Velocity S-wave (km/s) = 2.91657 3.15029 3.03568
# Velocity P-wave (km/s) = 5.22701 5.43078 5.32987
#
# Compressibility (1/GPa) = 0.03036279
#
# Stress axis : x y z
#
# Youngs Moduli (GPa) = 43.10566 73.07914 60.44230
#
# Poissons Ratio (x) = 0.52592 0.38626
# Poissons Ratio (y) = 0.31021 -0.12420
# Poissons Ratio (z) = 0.27547 -0.15017
#
# Static dielectric constant tensor:
#      x y z
#    x 1.778590 0.000000 0.000000 
#    y 0.000000 1.802470 0.000000 
#    z 0.000000 0.000000 1.782930 
# 
# From -- ./inp_files/9969.got.cif
#   From: 2010.05.17/outbox.cif.g08.bks.cpg/sg67_5_cif.got.tgz:9969.got - 2010.06.03 18:28:57.
