data_PCOD9501788
_publ_section_title
;
Structure prediction by ZEFSAII (Michael W. Deem and Ramdas Pophale) SiO2 
 PCOD9501788
Probable space group: C M M A
;
_chemical_formula_sum "Si O2"
_cell_formula_units_Z 80
_cell_length_a 7.791801
_cell_length_b 18.403578
_cell_length_c 30.311298
_cell_angle_alpha 90.000000
_cell_angle_beta 90.000000
_cell_angle_gamma 90.000000
_cell_volume 4346.549729
_symmetry_space_group_name_H-M "C M M A"
_symmetry_group_IT_number 67
_symmetry_cell_setting 'orthorhombic'
loop_
_space_group_symop_operation_xyz
x,y,z
-x,1/2-y,z
x,-y,-z
-x,1/2+y,-z
-x,-y,-z
x,1/2+y,-z
-x,y,z
x,1/2-y,z
1/2+x,1/2+y,z
1/2-x,-y,z
1/2+x,1/2-y,-z
1/2-x,y,-z
1/2-x,1/2-y,-z
1/2+x,y,-z
1/2-x,1/2+y,z
1/2+x,-y,z
loop_
_atom_site_type_symbol
_atom_site_label
_atom_site_fract_x
_atom_site_fract_y
_atom_site_fract_z
Si Si1 0.000000 0.837427 0.714907
Si Si2 0.793956 0.584352 0.865322
Si Si3 0.197315 0.914685 0.232591
Si Si4 0.500000 0.838488 0.387453
Si Si5 0.293735 0.167167 0.952217
Si Si6 0.805838 0.661403 0.450640
O O1 0.832306 0.869756 0.738731
O O2 0.000000 0.859657 0.663498
O O3 0.000000 0.750000 0.717742
O O4 0.750000 0.500000 0.870939
O O5 0.715279 0.608292 0.818729
O O6 0.732096 0.626031 0.908779
O O7 0.000000 0.592257 0.861404
O O8 0.000000 0.906730 0.246664
O O9 0.250000 0.000000 0.234243
O O10 0.500000 0.750000 0.388313
O O11 0.332262 0.862587 0.414558
O O12 0.500000 0.169186 0.949510
O O13 0.227933 0.250000 0.951914
O O14 0.250000 0.134321 0.000000
O O15 0.805042 0.750000 0.450484
O O16 0.750000 0.639617 0.500000
O O17 0.000000 0.637694 0.441593
#
# Coordination Sequence:
#
# PCOD9501788 Si02
#       6
#     8  16  16   8  16  16
#     4  11  24  40  58  90 130 155 191 257 308 351
#     4  10  19  34  55  82 106 137 182 238 286 334
#     4  11  21  40  66  87 112 158 204 245 300 362
#     4   9  18  30  44  70 113 152 181 235 301 338
#     4   9  19  34  51  72 104 144 178 217 275 338
#     4   9  14  22  40  65  97 146 197 229 272 346
#
# _framework density 18.405404000000001
#
# number of rings (size 3 to 8) (size 9 to 14) (size 15 to 20)
#    0.000    2.200    3.000    1.800    0.000    4.000 
#    0.000    4.000    0.000    0.000    0.000    0.000 
#    0.000    2.400    0.000    0.000    0.000    0.000 
#
# Total GULP energy -223126.256656 kJ/mol
# GULP energy per Si atom -5578.156416 kJ/mol
# Density = 1.836351 g / cm^3
# Si number density = 18.405404 Si / 1000 Ang^3
#
#
#
# Elastic Constant Matrix: (Units=GPa)
#
#
# Indices 1 2 3 4 5 6 
#
# 1 149.0758 27.4578 78.2083 0.0000 0.0000 0.0000
# 2 27.4578 29.6964 50.3384 0.0000 0.0000 0.0000
# 3 78.2083 50.3384 184.8720 0.0000 0.0000 0.0000
# 4 0.0000 0.0000 0.0000 21.9454 0.0000 0.0000
# 5 0.0000 0.0000 0.0000 0.0000 24.4200 0.0000
# 6 0.0000 0.0000 0.0000 0.0000 0.0000 18.4311
#
#
#
# Elastic Compliance Matrix: (Units=1/GPa)
#
#
# Indices 1 2 3 4 5 6 
#
# 1 0.008802 -0.003392 -0.002800 0.000000 0.000000 0.000000
# 2 -0.003392 0.063847 -0.015950 0.000000 0.000000 0.000000
# 3 -0.002800 -0.015950 0.010936 0.000000 0.000000 0.000000
# 4 0.000000 0.000000 0.000000 0.045568 0.000000 0.000000
# 5 0.000000 0.000000 0.000000 0.000000 0.040950 0.000000
# 6 0.000000 0.000000 0.000000 0.000000 0.000000 0.054256
#
#
# Mechanical properties :
#
#
# Convention : Reuss Voigt Hill
#
# Bulk Modulus (GPa) = 25.44420 75.07258 50.25839
# Shear Modulus (GPa) = 17.74666 26.80193 22.27430
#
# Velocity S-wave (km/s) = 3.10854 3.82016 3.48257
# Velocity P-wave (km/s) = 5.17091 7.76756 6.59823
#
# Compressibility (1/GPa) = 0.03930169
#
# Stress axis : x y z
#
# Youngs Moduli (GPa) = 113.61535 15.66243 91.43699
#
# Poissons Ratio (x) = 0.05313 0.25600
# Poissons Ratio (y) = 0.38541 1.45840
# Poissons Ratio (z) = 0.31810 0.24981
#
# Static dielectric constant tensor:
#      x y z
#    x 1.647310 0.000000 0.000000 
#    y 0.000000 1.621470 0.000000 
#    z 0.000000 0.000000 1.629010 
# 
# From -- ./inp_files/40595.got.cif
#   From: 2010.05.17/outbox.cif.g08.bks.cpg/sg67_21_cif.got.tgz:40595.got - 2010.06.03 18:28:57.
