data_PCOD9501975
_publ_section_title
;
Structure prediction by ZEFSAII (Michael W. Deem and Ramdas Pophale) SiO2 
 PCOD9501975
Probable space group: C M M A
;
_chemical_formula_sum "Si O2"
_cell_formula_units_Z 80
_cell_length_a 16.808887
_cell_length_b 21.061433
_cell_length_c 11.943695
_cell_angle_alpha 90.000000
_cell_angle_beta 90.000000
_cell_angle_gamma 90.000000
_cell_volume 4228.297915
_symmetry_space_group_name_H-M "C M M A"
_symmetry_group_IT_number 67
_symmetry_cell_setting 'orthorhombic'
loop_
_space_group_symop_operation_xyz
x,y,z
-x,1/2-y,z
x,-y,-z
-x,1/2+y,-z
-x,-y,-z
x,1/2+y,-z
-x,y,z
x,1/2-y,z
1/2+x,1/2+y,z
1/2-x,-y,z
1/2+x,1/2-y,-z
1/2-x,y,-z
1/2-x,1/2-y,-z
1/2+x,y,-z
1/2-x,1/2+y,z
1/2+x,-y,z
loop_
_atom_site_type_symbol
_atom_site_label
_atom_site_fract_x
_atom_site_fract_y
_atom_site_fract_z
Si Si1 0.908677 0.674497 0.734701
Si Si2 0.906993 0.908513 0.533873
Si Si3 0.843128 0.823984 0.972662
Si Si4 0.094428 0.552867 0.092370
Si Si5 0.339378 0.525596 0.663967
O O1 0.909839 0.750000 0.728928
O O2 0.880854 0.647026 0.617053
O O3 0.858241 0.656938 0.843451
O O4 0.000000 0.651875 0.752428
O O5 0.855388 0.917148 0.422443
O O6 0.000000 0.901194 0.504533
O O7 0.895344 0.970661 0.611903
O O8 0.870206 0.750000 0.987012
O O9 0.750000 0.825933 0.000000
O O10 0.886779 0.876708 0.046787
O O11 0.138019 0.541015 0.209653
O O12 0.000000 0.545989 0.109721
O O13 0.118927 0.500000 0.000000
O O14 0.250000 0.500000 0.655661
#
# Coordination Sequence:
#
# PCOD9501975 Si02
#       5
#    16  16  16  16  16
#     4   9  18  34  59  86 112 150 198 243 290 353
#     4  10  19  36  59  81 112 151 194 242 292 352
#     4  10  22  38  58  87 124 162 201 248 304 362
#     4  11  24  39  60  90 120 157 205 251 300 362
#     4  11  23  36  55  83 118 151 190 240 299 357
#
# _framework density 18.920141999999998
#
# number of rings (size 3 to 8) (size 9 to 14) (size 15 to 20)
#    0.000    1.800    0.000    5.400    5.600    4.400 
#    0.000    1.000    0.000    4.800    0.000    0.000 
#    0.000    0.000    0.000    0.000    0.000    0.000 
#
# Total GULP energy -223293.406498 kJ/mol
# GULP energy per Si atom -5582.335162 kJ/mol
# Density = 1.887708 g / cm^3
# Si number density = 18.920142 Si / 1000 Ang^3
#
#
#
# Elastic Constant Matrix: (Units=GPa)
#
#
# Indices 1 2 3 4 5 6 
#
# 1 73.0038 24.3390 72.8750 0.0000 0.0000 0.0000
# 2 24.3390 49.4218 52.3079 0.0000 0.0000 0.0000
# 3 72.8750 52.3079 190.2950 0.0000 0.0000 0.0000
# 4 0.0000 0.0000 0.0000 39.4525 0.0000 0.0000
# 5 0.0000 0.0000 0.0000 0.0000 17.1886 0.0000
# 6 0.0000 0.0000 0.0000 0.0000 0.0000 19.5748
#
#
#
# Elastic Compliance Matrix: (Units=1/GPa)
#
#
# Indices 1 2 3 4 5 6 
#
# 1 0.022438 -0.002758 -0.007835 0.000000 0.000000 0.000000
# 2 -0.002758 0.028875 -0.006881 0.000000 0.000000 0.000000
# 3 -0.007835 -0.006881 0.010147 0.000000 0.000000 0.000000
# 4 0.000000 0.000000 0.000000 0.025347 0.000000 0.000000
# 5 0.000000 0.000000 0.000000 0.000000 0.058178 0.000000
# 6 0.000000 0.000000 0.000000 0.000000 0.000000 0.051086
#
#
# Mechanical properties :
#
#
# Convention : Reuss Voigt Hill
#
# Bulk Modulus (GPa) = 37.71769 67.97384 52.84577
# Shear Modulus (GPa) = 20.84580 26.12308 23.48444
#
# Velocity S-wave (km/s) = 3.32291 3.71981 3.52695
# Velocity P-wave (km/s) = 5.89073 7.37930 6.67663
#
# Compressibility (1/GPa) = 0.02651276
#
# Stress axis : x y z
#
# Youngs Moduli (GPa) = 44.56632 34.63210 98.55273
#
# Poissons Ratio (x) = 0.09551 0.77215
# Poissons Ratio (y) = 0.12291 0.67813
# Poissons Ratio (z) = 0.34917 0.23830
#
# Static dielectric constant tensor:
#      x y z
#    x 1.660440 0.000000 0.000000 
#    y 0.000000 1.707050 0.000000 
#    z 0.000000 0.000000 1.650850 
# 
# From -- ./inp_files/17968.got.cif
#   From: 2010.05.17/outbox.cif.g08.bks.cpg/sg67_9_cif.got.tgz:17968.got - 2010.06.03 18:28:57.
