data_PCOD9501033
_publ_section_title
;
Structure prediction by ZEFSAII (Michael W. Deem and Ramdas Pophale) SiO2 
 PCOD9501033
Probable space group: C M M A
;
_chemical_formula_sum "Si O2"
_cell_formula_units_Z 96
_cell_length_a 16.264468
_cell_length_b 15.764914
_cell_length_c 19.289161
_cell_angle_alpha 90.000000
_cell_angle_beta 90.000000
_cell_angle_gamma 90.000000
_cell_volume 4945.894022
_symmetry_space_group_name_H-M "C M M A"
_symmetry_group_IT_number 67
_symmetry_cell_setting 'orthorhombic'
loop_
_space_group_symop_operation_xyz
x,y,z
-x,1/2-y,z
x,-y,-z
-x,1/2+y,-z
-x,-y,-z
x,1/2+y,-z
-x,y,z
x,1/2-y,z
1/2+x,1/2+y,z
1/2-x,-y,z
1/2+x,1/2-y,-z
1/2-x,y,-z
1/2-x,1/2-y,-z
1/2+x,y,-z
1/2-x,1/2+y,z
1/2+x,-y,z
loop_
_atom_site_type_symbol
_atom_site_label
_atom_site_fract_x
_atom_site_fract_y
_atom_site_fract_z
Si Si1 0.662729 0.847490 0.541246
Si Si2 0.252617 0.895652 0.831849
Si Si3 0.752022 0.900368 0.324185
Si Si4 0.092437 0.104360 0.922979
Si Si5 0.411445 0.647613 0.405002
Si Si6 0.592380 0.397633 0.916448
O O1 0.639254 0.750000 0.551731
O O2 0.750000 0.849534 0.500000
O O3 0.679344 0.882950 0.617251
O O4 0.603053 0.886279 0.483414
O O5 0.261768 0.864589 0.752861
O O6 0.331519 0.867602 0.876219
O O7 0.166805 0.869174 0.867589
O O8 0.250000 0.000000 0.832646
O O9 0.665081 0.873725 0.356940
O O10 0.750000 0.000000 0.315680
O O11 0.000000 0.131944 0.902437
O O12 0.092554 0.001019 0.918522
O O13 0.105268 0.128329 0.003454
O O14 0.500000 0.619181 0.378256
O O15 0.411674 0.750000 0.410381
O O16 0.500000 0.371337 0.894903
#
# Coordination Sequence:
#
# PCOD9501033 Si02
#       6
#    16  16  16  16  16  16
#     4   8  15  30  49  64  82 114 153 188 222 266
#     4   9  16  24  34  53  86 121 147 178 228 286
#     4  10  19  29  42  67 100 128 150 178 232 295
#     4   8  13  22  35  50  71 107 155 195 223 261
#     4   9  18  34  55  73  88 115 159 205 240 271
#     4   8  13  21  35  52  71 105 153 195 227 264
#
# _framework density 19.410039999999999
#
# number of rings (size 3 to 8) (size 9 to 14) (size 15 to 20)
#    0.000    3.333    0.000    3.000    0.000    5.667 
#    0.000    5.000    0.000    0.000    0.000    0.000 
#    0.000   10.667    0.000   14.667    0.000   13.333 
#
# Total GULP energy -267215.261149 kJ/mol
# GULP energy per Si atom -5566.984607 kJ/mol
# Density = 1.936586 g / cm^3
# Si number density = 19.410040 Si / 1000 Ang^3
#
#
#
# Elastic Constant Matrix: (Units=GPa)
#
#
# Indices 1 2 3 4 5 6 
#
# 1 117.7350 5.3313 76.6546 0.0000 0.0000 0.0000
# 2 5.3313 12.8143 6.6972 0.0000 0.0000 0.0000
# 3 76.6546 6.6972 139.4482 0.0000 0.0000 0.0000
# 4 0.0000 0.0000 0.0000 -592.2182 0.0000 0.0000
# 5 0.0000 0.0000 0.0000 0.0000 11.1260 0.0000
# 6 0.0000 0.0000 0.0000 0.0000 0.0000 6.1818
#
#
#
# Elastic Compliance Matrix: (Units=1/GPa)
#
#
# Indices 1 2 3 4 5 6 
#
# 1 0.013266 -0.001752 -0.007208 0.000000 0.000000 0.000000
# 2 -0.001752 0.080278 -0.002892 0.000000 0.000000 0.000000
# 3 -0.007208 -0.002892 0.011272 0.000000 0.000000 0.000000
# 4 0.000000 0.000000 0.000000 -0.001689 0.000000 0.000000
# 5 0.000000 0.000000 0.000000 0.000000 0.089880 0.000000
# 6 0.000000 0.000000 0.000000 0.000000 0.000000 0.161766
#
#
# Mechanical properties :
#
#
# Convention : Reuss Voigt Hill
#
# Bulk Modulus (GPa) = 12.32869 49.70707 31.01788
# Shear Modulus (GPa) = 12.32995 -102.89447 -45.28226
#
# Velocity S-wave (km/s) = 2.52312 -7.28876 -4.83528
# Velocity P-wave (km/s) = 3.85405 6.72088 3.89336
#
# Compressibility (1/GPa) = 0.08111162
#
# Stress axis : x y z
#
# Youngs Moduli (GPa) = 75.38009 12.45665 88.71228
#
# Poissons Ratio (x) = 0.02182 0.63946
# Poissons Ratio (y) = 0.13207 0.25659
# Poissons Ratio (z) = 0.54336 0.03603
#
# Static dielectric constant tensor:
#      x y z
#    x 1.545720 0.000000 0.000000 
#    y 0.000000 1.705210 0.000000 
#    z 0.000000 0.000000 1.695040 
# 
# From -- ./inp_files/34235.got.cif
#   From: 2010.05.17/outbox.cif.g08.bks.cpg/sg67_18_cif.got.tgz:34235.got - 2010.06.03 18:28:57.
