data_PCOD9501728
_publ_section_title
;
Structure prediction by ZEFSAII (Michael W. Deem and Ramdas Pophale) SiO2 
 PCOD9501728
Probable space group: C M M A
;
_chemical_formula_sum "Si O2"
_cell_formula_units_Z 96
_cell_length_a 16.497667
_cell_length_b 19.736739
_cell_length_c 15.054670
_cell_angle_alpha 90.000000
_cell_angle_beta 90.000000
_cell_angle_gamma 90.000000
_cell_volume 4901.953322
_symmetry_space_group_name_H-M "C M M A"
_symmetry_group_IT_number 67
_symmetry_cell_setting 'orthorhombic'
loop_
_space_group_symop_operation_xyz
x,y,z
-x,1/2-y,z
x,-y,-z
-x,1/2+y,-z
-x,-y,-z
x,1/2+y,-z
-x,y,z
x,1/2-y,z
1/2+x,1/2+y,z
1/2-x,-y,z
1/2+x,1/2-y,-z
1/2-x,y,-z
1/2-x,1/2-y,-z
1/2+x,y,-z
1/2-x,1/2+y,z
1/2+x,-y,z
loop_
_atom_site_type_symbol
_atom_site_label
_atom_site_fract_x
_atom_site_fract_y
_atom_site_fract_z
Si Si1 0.159467 0.081338 0.128376
Si Si2 0.902269 0.324521 0.283458
Si Si3 0.094720 0.671824 0.030031
Si Si4 0.401825 0.451248 0.365967
Si Si5 0.349649 0.431878 0.165997
Si Si6 0.098249 0.598037 0.550502
O O1 0.124257 0.119486 0.213752
O O2 0.255409 0.076042 0.142356
O O3 0.124765 0.004901 0.125408
O O4 0.139917 0.126649 0.043199
O O5 0.873533 0.250000 0.256471
O O6 0.874455 0.343794 0.382652
O O7 0.000000 0.324000 0.284231
O O8 0.123004 0.750000 0.034103
O O9 0.105215 0.631314 0.121864
O O10 0.000000 0.672985 0.005425
O O11 0.500000 0.447485 0.356247
O O12 0.362755 0.436104 0.271504
O O13 0.374591 0.404040 0.448416
O O14 0.382256 0.526938 0.400822
O O15 0.000000 0.600056 0.545995
#
# Coordination Sequence:
#
# PCOD9501728 Si02
#       6
#    16  16  16  16  16  16
#     4  11  23  38  57  85 119 150 190 234 286 346
#     4  10  19  33  57  86 115 150 193 242 291 340
#     4  11  25  43  62  85 111 146 194 243 294 349
#     4   9  16  31  57  84 112 149 191 239 287 331
#     4  11  23  38  59  86 118 152 190 234 286 347
#     4   8  15  29  53  84 114 147 190 237 284 333
#
# _framework density 19.584029999999998
#
# number of rings (size 3 to 8) (size 9 to 14) (size 15 to 20)
#    0.000    2.000    1.667    3.500    0.000    7.333 
#    0.000    1.667    0.000    4.000    0.000    0.000 
#    0.000    0.000    0.000    0.000    0.000    0.000 
#
# Total GULP energy -267899.185372 kJ/mol
# GULP energy per Si atom -5581.233029 kJ/mol
# Density = 1.953946 g / cm^3
# Si number density = 19.584030 Si / 1000 Ang^3
#
#
#
# Elastic Constant Matrix: (Units=GPa)
#
#
# Indices 1 2 3 4 5 6 
#
# 1 26.4824 22.4145 19.7235 0.0000 0.0000 0.0000
# 2 22.4145 128.0568 61.0011 0.0000 0.0000 0.0000
# 3 19.7235 61.0011 131.6441 0.0000 0.0000 0.0000
# 4 0.0000 0.0000 0.0000 20.7461 0.0000 0.0000
# 5 0.0000 0.0000 0.0000 0.0000 82.4534 0.0000
# 6 0.0000 0.0000 0.0000 0.0000 0.0000 17.9290
#
#
#
# Elastic Compliance Matrix: (Units=1/GPa)
#
#
# Indices 1 2 3 4 5 6 
#
# 1 0.045953 -0.006113 -0.004052 0.000000 0.000000 0.000000
# 2 -0.006113 0.010834 -0.004104 0.000000 0.000000 0.000000
# 3 -0.004052 -0.004104 0.010105 0.000000 0.000000 0.000000
# 4 0.000000 0.000000 0.000000 0.048202 0.000000 0.000000
# 5 0.000000 0.000000 0.000000 0.000000 0.012128 0.000000
# 6 0.000000 0.000000 0.000000 0.000000 0.000000 0.055775
#
#
# Mechanical properties :
#
#
# Convention : Reuss Voigt Hill
#
# Bulk Modulus (GPa) = 26.07357 54.71794 40.39575
# Shear Modulus (GPa) = 22.28942 36.42865 29.35904
#
# Velocity S-wave (km/s) = 3.37730 4.31759 3.87606
# Velocity P-wave (km/s) = 5.34329 7.27023 6.37993
#
# Compressibility (1/GPa) = 0.03835302
#
# Stress axis : x y z
#
# Youngs Moduli (GPa) = 21.76134 92.29984 98.95812
#
# Poissons Ratio (x) = 0.56424 0.40100
# Poissons Ratio (y) = 0.13303 0.40617
# Poissons Ratio (z) = 0.08818 0.37884
#
# Static dielectric constant tensor:
#      x y z
#    x 1.703700 0.000000 0.000000 
#    y 0.000000 1.695860 0.000000 
#    z 0.000000 0.000000 1.700630 
# 
# From -- ./inp_files/27239.got.cif
#   From: 2010.05.17/outbox.cif.g08.bks.cpg/sg67_14_cif.got.tgz:27239.got - 2010.06.03 18:28:57.
