data_PCOD9501504
_publ_section_title
;
Structure prediction by ZEFSAII (Michael W. Deem and Ramdas Pophale) SiO2 
 PCOD9501504
Probable space group: C M M A
;
_chemical_formula_sum "Si O2"
_cell_formula_units_Z 112
_cell_length_a 14.289439
_cell_length_b 15.778736
_cell_length_c 22.513505
_cell_angle_alpha 90.000000
_cell_angle_beta 90.000000
_cell_angle_gamma 90.000000
_cell_volume 5076.103888
_symmetry_space_group_name_H-M "C M M A"
_symmetry_group_IT_number 67
_symmetry_cell_setting 'orthorhombic'
loop_
_space_group_symop_operation_xyz
x,y,z
-x,1/2-y,z
x,-y,-z
-x,1/2+y,-z
-x,-y,-z
x,1/2+y,-z
-x,y,z
x,1/2-y,z
1/2+x,1/2+y,z
1/2-x,-y,z
1/2+x,1/2-y,-z
1/2-x,y,-z
1/2-x,1/2-y,-z
1/2+x,y,-z
1/2-x,1/2+y,z
1/2+x,-y,z
loop_
_atom_site_type_symbol
_atom_site_label
_atom_site_fract_x
_atom_site_fract_y
_atom_site_fract_z
Si Si1 0.226718 0.596249 0.405294
Si Si2 0.613534 0.020086 0.192658
Si Si3 0.606167 0.160718 0.107763
Si Si4 0.611591 0.654838 0.149348
Si Si5 0.108163 0.150278 0.484717
Si Si6 0.140545 0.594490 0.985790
Si Si7 0.610704 0.154484 0.294660
O O1 0.250000 0.500000 0.388957
O O2 0.155096 0.599370 0.461115
O O3 0.323236 0.636925 0.428907
O O4 0.175942 0.643344 0.351718
O O5 0.500000 0.012298 0.189798
O O6 0.646717 0.075407 0.135855
O O7 0.633561 0.079611 0.248615
O O8 0.649307 0.923855 0.188587
O O9 0.500000 0.163958 0.131220
O O10 0.652514 0.250000 0.123091
O O11 0.601152 0.153267 0.037347
O O12 0.500000 0.659090 0.159228
O O13 0.647501 0.750000 0.160132
O O14 0.624065 0.626923 0.080464
O O15 0.111461 0.250000 0.500920
O O16 0.000000 0.126996 0.474326
O O17 0.104722 0.500000 0.000000
O O18 0.250000 0.594024 0.000000
O O19 0.500000 0.146191 0.310507
O O20 0.622193 0.250000 0.269834
#
# Coordination Sequence:
#
# PCOD9501504 Si02
#       7
#    16  16  16  16  16  16  16
#     4  11  22  35  56  90 130 171 207 257 308 370
#     4   9  18  34  57  84 112 141 185 244 299 354
#     4  10  19  32  53  78 104 137 178 226 286 353
#     4  10  20  35  57  82 109 147 192 236 294 369
#     4  10  20  36  61  92 129 172 214 256 304 360
#     4  11  22  34  49  74 107 146 181 230 289 358
#     4  10  20  37  63  91 120 158 206 262 321 376
#
# _framework density 22.064167000000001
#
# number of rings (size 3 to 8) (size 9 to 14) (size 15 to 20)
#    0.000    1.857    1.429    4.286    0.000    7.429 
#    0.000    1.429    0.000    4.286    0.000    2.000 
#    0.000    0.000    0.000    0.000    0.000    0.143 
#
# Total GULP energy -312770.938049 kJ/mol
# GULP energy per Si atom -5585.195322 kJ/mol
# Density = 2.201395 g / cm^3
# Si number density = 22.064167 Si / 1000 Ang^3
#
#
#
# Elastic Constant Matrix: (Units=GPa)
#
#
# Indices 1 2 3 4 5 6 
#
# 1 118.6254 30.5478 23.8673 0.0000 0.0000 0.0000
# 2 30.5478 191.0468 49.8563 0.0000 0.0000 0.0000
# 3 23.8673 49.8563 87.1358 0.0000 0.0000 0.0000
# 4 0.0000 0.0000 0.0000 -21.9607 0.0000 0.0000
# 5 0.0000 0.0000 0.0000 0.0000 13.6685 0.0000
# 6 0.0000 0.0000 0.0000 0.0000 0.0000 -54.8233
#
#
#
# Elastic Compliance Matrix: (Units=1/GPa)
#
#
# Indices 1 2 3 4 5 6 
#
# 1 0.009064 -0.000942 -0.001944 0.000000 0.000000 0.000000
# 2 -0.000942 0.006251 -0.003319 0.000000 0.000000 0.000000
# 3 -0.001944 -0.003319 0.013907 0.000000 0.000000 0.000000
# 4 0.000000 0.000000 0.000000 -0.045536 0.000000 0.000000
# 5 0.000000 0.000000 0.000000 0.000000 0.073161 0.000000
# 6 0.000000 0.000000 0.000000 0.000000 0.000000 -0.018240
#
#
# Mechanical properties :
#
#
# Convention : Reuss Voigt Hill
#
# Bulk Modulus (GPa) = 59.47562 67.26120 63.36841
# Shear Modulus (GPa) = 88.30861 6.87934 47.59397
#
# Velocity S-wave (km/s) = 6.33328 1.76767 4.64947
# Velocity P-wave (km/s) = 8.97189 5.89209 7.58985
#
# Compressibility (1/GPa) = 0.01681361
#
# Stress axis : x y z
#
# Youngs Moduli (GPa) = 110.33226 159.97508 71.90376
#
# Poissons Ratio (x) = 0.15070 0.13975
# Poissons Ratio (y) = 0.10394 0.23862
# Poissons Ratio (z) = 0.21444 0.53089
#
# Static dielectric constant tensor:
#      x y z
#    x 1.876120 0.000000 0.000000 
#    y 0.000000 1.857690 0.000000 
#    z 0.000000 0.000000 1.779140 
# 
# From -- ./inp_files/41922.got.cif
#   From: 2010.05.17/outbox.cif.g08.bks.cpg/sg67_21_cif.got.tgz:41922.got - 2010.06.03 18:28:57.
