data_PCOD9501065
_publ_section_title
;
Structure prediction by ZEFSAII (Michael W. Deem and Ramdas Pophale) SiO2 
 PCOD9501065
Probable space group: C M M A
;
_chemical_formula_sum "Si O2"
_cell_formula_units_Z 104
_cell_length_a 25.342176
_cell_length_b 8.972879
_cell_length_c 30.951940
_cell_angle_alpha 90.000000
_cell_angle_beta 90.000000
_cell_angle_gamma 90.000000
_cell_volume 7038.232171
_symmetry_space_group_name_H-M "C M M A"
_symmetry_group_IT_number 67
_symmetry_cell_setting 'orthorhombic'
loop_
_space_group_symop_operation_xyz
x,y,z
-x,1/2-y,z
x,-y,-z
-x,1/2+y,-z
-x,-y,-z
x,1/2+y,-z
-x,y,z
x,1/2-y,z
1/2+x,1/2+y,z
1/2-x,-y,z
1/2+x,1/2-y,-z
1/2-x,y,-z
1/2-x,1/2-y,-z
1/2+x,y,-z
1/2-x,1/2+y,z
1/2+x,-y,z
loop_
_atom_site_type_symbol
_atom_site_label
_atom_site_fract_x
_atom_site_fract_y
_atom_site_fract_z
Si Si1 0.936591 0.574004 0.810629
Si Si2 0.435700 0.077978 0.455688
Si Si3 0.064176 0.921250 0.278771
Si Si4 0.000000 0.071903 0.952988
Si Si5 0.807893 0.070304 0.045686
Si Si6 0.935681 0.422020 0.367049
Si Si7 0.603414 0.571136 0.896848
O O1 0.926458 0.750000 0.814793
O O2 0.920578 0.515400 0.763320
O O3 0.908604 0.482947 0.848516
O O4 0.000000 0.551141 0.814724
O O5 0.500000 0.073758 0.455741
O O6 0.419922 0.250000 0.455050
O O7 0.418361 0.000000 0.500000
O O8 0.418439 0.996175 0.411949
O O9 0.080976 0.750000 0.274708
O O10 0.000000 0.922399 0.279726
O O11 0.081840 0.991511 0.324121
O O12 0.948030 0.032005 0.925670
O O13 0.000000 0.250000 0.958027
O O14 0.000000 0.000000 0.000000
O O15 0.805442 0.250000 0.042924
O O16 0.750000 0.000000 0.052805
O O17 0.847361 0.014309 0.082449
O O18 0.826697 0.000000 0.000000
O O19 0.919915 0.250000 0.365081
O O20 0.000000 0.426001 0.367086
O O21 0.610859 0.750000 0.898428
#
# Coordination Sequence:
#
# PCOD9501065 Si02
#       7
#    16  16  16   8  16  16  16
#     4  10  19  30  44  63  86 113 142 173 209 253
#     4   9  15  21  28  38  53  74 102 139 186 237
#     4   9  16  25  37  51  69  95 125 159 197 241
#     4  10  22  34  48  68  94 122 148 174 209 252
#     4  11  22  38  57  77  96 120 149 182 217 255
#     4   9  15  22  31  43  59  80 110 148 189 236
#     4  11  21  35  51  71  95 123 150 180 216 258
#
# _framework density 14.776437
#
# number of rings (size 3 to 8) (size 9 to 14) (size 15 to 20)
#    0.000    2.154    0.769    4.615    0.000    8.615 
#    0.000    0.000    0.000    0.000    0.000    0.000 
#    0.000    0.000    0.000    0.000    0.000    0.000 
#
# Total GULP energy -289964.504538 kJ/mol
# GULP energy per Si atom -5576.240472 kJ/mol
# Density = 1.474281 g / cm^3
# Si number density = 14.776437 Si / 1000 Ang^3
#
#
#
# Elastic Constant Matrix: (Units=GPa)
#
#
# Indices 1 2 3 4 5 6 
#
# 1 21.0082 20.9014 22.6764 0.0000 0.0000 0.0000
# 2 20.9014 108.0172 55.2339 0.0000 0.0000 0.0000
# 3 22.6764 55.2339 129.9492 0.0000 0.0000 0.0000
# 4 0.0000 0.0000 0.0000 33.8252 0.0000 0.0000
# 5 0.0000 0.0000 0.0000 0.0000 5.0804 0.0000
# 6 0.0000 0.0000 0.0000 0.0000 0.0000 12.1392
#
#
#
# Elastic Compliance Matrix: (Units=1/GPa)
#
#
# Indices 1 2 3 4 5 6 
#
# 1 0.064306 -0.008567 -0.007580 0.000000 0.000000 0.000000
# 2 -0.008567 0.012970 -0.004018 0.000000 0.000000 0.000000
# 3 -0.007580 -0.004018 0.010726 0.000000 0.000000 0.000000
# 4 0.000000 0.000000 0.000000 0.029564 0.000000 0.000000
# 5 0.000000 0.000000 0.000000 0.000000 0.196836 0.000000
# 6 0.000000 0.000000 0.000000 0.000000 0.000000 0.082378
#
#
# Mechanical properties :
#
#
# Convention : Reuss Voigt Hill
#
# Bulk Modulus (GPa) = 20.97683 50.73310 35.85497
# Shear Modulus (GPa) = 11.03752 20.88648 15.96200
#
# Velocity S-wave (km/s) = 2.73604 3.76373 3.29026
# Velocity P-wave (km/s) = 4.92018 7.30040 6.22511
#
# Compressibility (1/GPa) = 0.04767164
#
# Stress axis : x y z
#
# Youngs Moduli (GPa) = 15.55063 77.10083 93.23311
#
# Poissons Ratio (x) = 0.66054 0.70672
# Poissons Ratio (y) = 0.13323 0.37459
# Poissons Ratio (z) = 0.11788 0.30978
#
# Static dielectric constant tensor:
#      x y z
#    x 1.461140 0.000000 0.000000 
#    y 0.000000 1.494800 0.000000 
#    z 0.000000 0.000000 1.491240 
# 
# From -- ./inp_files/44826.got.cif
#   From: 2010.05.17/outbox.cif.g08.bks.cpg/sg67_23_cif.got.tgz:44826.got - 2010.06.03 18:28:57.
