data_PCOD9501702
_publ_section_title
;
Structure prediction by ZEFSAII (Michael W. Deem and Ramdas Pophale) SiO2 
 PCOD9501702
Probable space group: C M M A
;
_chemical_formula_sum "Si O2"
_cell_formula_units_Z 112
_cell_length_a 15.365893
_cell_length_b 28.264533
_cell_length_c 14.945204
_cell_angle_alpha 90.000000
_cell_angle_beta 90.000000
_cell_angle_gamma 90.000000
_cell_volume 6490.848407
_symmetry_space_group_name_H-M "C M M A"
_symmetry_group_IT_number 67
_symmetry_cell_setting 'orthorhombic'
loop_
_space_group_symop_operation_xyz
x,y,z
-x,1/2-y,z
x,-y,-z
-x,1/2+y,-z
-x,-y,-z
x,1/2+y,-z
-x,y,z
x,1/2-y,z
1/2+x,1/2+y,z
1/2-x,-y,z
1/2+x,1/2-y,-z
1/2-x,y,-z
1/2-x,1/2-y,-z
1/2+x,y,-z
1/2-x,1/2+y,z
1/2+x,-y,z
loop_
_atom_site_type_symbol
_atom_site_label
_atom_site_fract_x
_atom_site_fract_y
_atom_site_fract_z
Si Si1 0.230625 0.152050 0.720362
Si Si2 0.716519 0.194439 0.897834
Si Si3 0.400778 0.893406 0.111492
Si Si4 0.898752 0.806782 0.631668
Si Si5 0.253771 0.552942 0.789837
Si Si6 0.599060 0.693191 0.576759
Si Si7 0.098186 0.546657 0.060898
O O1 0.219391 0.174478 0.819966
O O2 0.327961 0.166431 0.690189
O O3 0.220720 0.095727 0.725281
O O4 0.165576 0.172835 0.647746
O O5 0.699954 0.250000 0.881908
O O6 0.634039 0.159992 0.886563
O O7 0.750000 0.189247 0.000000
O O8 0.500000 0.897918 0.142041
O O9 0.336124 0.927869 0.166261
O O10 0.396242 0.910478 0.008832
O O11 0.887384 0.750000 0.642269
O O12 0.882359 0.818452 0.527031
O O13 0.000000 0.817567 0.651868
O O14 0.250000 0.500000 0.751598
O O15 0.326062 0.549919 0.867604
O O16 0.500000 0.678269 0.596294
O O17 0.602508 0.750000 0.581979
O O18 0.000000 0.544985 0.099405
O O19 0.109049 0.500000 0.000000
#
# Coordination Sequence:
#
# PCOD9501702 Si02
#       7
#    16  16  16  16  16  16  16
#     4  11  21  33  54  81 108 145 183 223 274 327
#     4  10  21  36  51  72 110 157 194 220 257 320
#     4  10  20  33  51  75  97 131 183 232 282 323
#     4   9  18  34  59  89 114 136 172 225 279 331
#     4  11  22  34  50  73 106 139 174 228 282 320
#     4   9  18  34  58  87 113 137 172 223 280 333
#     4  10  19  33  56  76  91 126 182 242 293 324
#
# _framework density 17.255064000000001
#
# number of rings (size 3 to 8) (size 9 to 14) (size 15 to 20)
#    0.000    2.000    1.429    4.714    0.000    4.286 
#    0.000    0.714    0.000    2.571    0.000    2.000 
#    0.000    0.000    0.000    0.000    0.000    0.000 
#
# Total GULP energy -312356.356712 kJ/mol
# GULP energy per Si atom -5577.792084 kJ/mol
# Density = 1.721579 g / cm^3
# Si number density = 17.255064 Si / 1000 Ang^3
#
#
#
# Elastic Constant Matrix: (Units=GPa)
#
#
# Indices 1 2 3 4 5 6 
#
# 1 79.5269 35.2383 37.3575 0.0000 0.0000 0.0000
# 2 35.2383 110.4683 31.0575 0.0000 0.0000 0.0000
# 3 37.3575 31.0575 70.6971 0.0000 0.0000 0.0000
# 4 0.0000 0.0000 0.0000 17.0092 0.0000 0.0000
# 5 0.0000 0.0000 0.0000 0.0000 1.2941 0.0000
# 6 0.0000 0.0000 0.0000 0.0000 0.0000 20.2726
#
#
#
# Elastic Compliance Matrix: (Units=1/GPa)
#
#
# Indices 1 2 3 4 5 6 
#
# 1 0.017817 -0.003464 -0.007893 0.000000 0.000000 0.000000
# 2 -0.003464 0.011002 -0.003002 0.000000 0.000000 0.000000
# 3 -0.007893 -0.003002 0.019635 0.000000 0.000000 0.000000
# 4 0.000000 0.000000 0.000000 0.058792 0.000000 0.000000
# 5 0.000000 0.000000 0.000000 0.000000 0.772751 0.000000
# 6 0.000000 0.000000 0.000000 0.000000 0.000000 0.049328
#
#
# Mechanical properties :
#
#
# Convention : Reuss Voigt Hill
#
# Bulk Modulus (GPa) = 50.67445 51.99986 51.33715
# Shear Modulus (GPa) = 5.18338 18.18445 11.68392
#
# Velocity S-wave (km/s) = 1.73508 3.24985 2.60499
# Velocity P-wave (km/s) = 5.78322 6.65458 6.23414
#
# Compressibility (1/GPa) = 0.01973381
#
# Stress axis : x y z
#
# Youngs Moduli (GPa) = 56.12584 90.89595 50.93065
#
# Poissons Ratio (x) = 0.31490 0.40199
# Poissons Ratio (y) = 0.19444 0.15291
# Poissons Ratio (z) = 0.44300 0.27290
#
# Static dielectric constant tensor:
#      x y z
#    x 1.597280 0.000000 0.000000 
#    y 0.000000 1.592970 0.000000 
#    z 0.000000 0.000000 1.590570 
# 
# From -- ./inp_files/27682.got.cif
#   From: 2010.05.17/outbox.cif.g08.bks.cpg/sg67_14_cif.got.tgz:27682.got - 2010.06.03 18:28:57.
