data_PCOD9501429
_publ_section_title
;
Structure prediction by ZEFSAII (Michael W. Deem and Ramdas Pophale) SiO2 
 PCOD9501429
Probable space group: C M M A
;
_chemical_formula_sum "Si O2"
_cell_formula_units_Z 80
_cell_length_a 28.005627
_cell_length_b 8.675980
_cell_length_c 19.299205
_cell_angle_alpha 90.000000
_cell_angle_beta 90.000000
_cell_angle_gamma 90.000000
_cell_volume 4689.248647
_symmetry_space_group_name_H-M "C M M A"
_symmetry_group_IT_number 67
_symmetry_cell_setting 'orthorhombic'
loop_
_space_group_symop_operation_xyz
x,y,z
-x,1/2-y,z
x,-y,-z
-x,1/2+y,-z
-x,-y,-z
x,1/2+y,-z
-x,y,z
x,1/2-y,z
1/2+x,1/2+y,z
1/2-x,-y,z
1/2+x,1/2-y,-z
1/2-x,y,-z
1/2-x,1/2-y,-z
1/2+x,y,-z
1/2-x,1/2+y,z
1/2+x,-y,z
loop_
_atom_site_type_symbol
_atom_site_label
_atom_site_fract_x
_atom_site_fract_y
_atom_site_fract_z
Si Si1 0.053876 0.436390 0.150070
Si Si2 0.104618 0.935341 0.284371
Si Si3 0.851049 0.565034 0.925804
Si Si4 0.198125 0.564985 0.783389
Si Si5 0.055423 0.564320 0.426232
O O1 0.055473 0.250000 0.154551
O O2 0.069443 0.503245 0.224313
O O3 0.095156 0.484013 0.096153
O O4 0.000000 0.483000 0.131848
O O5 0.105338 0.750000 0.281653
O O6 0.085770 0.984626 0.359652
O O7 0.156650 0.000432 0.265914
O O8 0.850395 0.750000 0.929268
O O9 0.817361 0.518212 0.861723
O O10 0.837332 0.500000 0.000000
O O11 0.197949 0.750000 0.780287
O O12 0.250000 0.500000 0.766971
O O13 0.072214 0.500000 0.500000
O O14 0.056286 0.750000 0.428976
O O15 0.000000 0.516136 0.416945
#
# Coordination Sequence:
#
# PCOD9501429 Si02
#       5
#    16  16  16  16  16
#     4   9  18  32  48  68  97 133 170 205 243 290
#     4  10  19  32  51  75 102 130 164 206 247 289
#     4   9  19  33  48  69  97 127 161 201 245 295
#     4  10  21  37  55  75  97 124 161 203 250 300
#     4   9  18  31  48  74 107 139 169 199 233 278
#
# _framework density 17.060302
#
# number of rings (size 3 to 8) (size 9 to 14) (size 15 to 20)
#    0.000    2.600    0.000    3.000    0.000    7.600 
#    0.000    4.000    0.000    0.600    0.000    4.200 
#    0.000    0.000    0.000    0.000    0.000    0.000 
#
# Total GULP energy -223098.177707 kJ/mol
# GULP energy per Si atom -5577.454443 kJ/mol
# Density = 1.702147 g / cm^3
# Si number density = 17.060302 Si / 1000 Ang^3
#
#
#
# Elastic Constant Matrix: (Units=GPa)
#
#
# Indices 1 2 3 4 5 6 
#
# 1 68.4630 10.8542 19.2175 0.0000 0.0000 0.0000
# 2 10.8542 14.5981 12.8244 0.0000 0.0000 0.0000
# 3 19.2175 12.8244 105.1241 0.0000 0.0000 0.0000
# 4 0.0000 0.0000 0.0000 28.7142 0.0000 0.0000
# 5 0.0000 0.0000 0.0000 0.0000 8.7606 0.0000
# 6 0.0000 0.0000 0.0000 0.0000 0.0000 16.3039
#
#
#
# Elastic Compliance Matrix: (Units=1/GPa)
#
#
# Indices 1 2 3 4 5 6 
#
# 1 0.016837 -0.010993 -0.001737 0.000000 0.000000 0.000000
# 2 -0.010993 0.083902 -0.008226 0.000000 0.000000 0.000000
# 3 -0.001737 -0.008226 0.010834 0.000000 0.000000 0.000000
# 4 0.000000 0.000000 0.000000 0.034826 0.000000 0.000000
# 5 0.000000 0.000000 0.000000 0.000000 0.114148 0.000000
# 6 0.000000 0.000000 0.000000 0.000000 0.000000 0.061335
#
#
# Mechanical properties :
#
#
# Convention : Reuss Voigt Hill
#
# Bulk Modulus (GPa) = 14.35524 30.44195 22.39859
# Shear Modulus (GPa) = 12.91948 20.44168 16.68058
#
# Velocity S-wave (km/s) = 2.75486 3.46526 3.13028
# Velocity P-wave (km/s) = 4.30717 5.82178 5.12079
#
# Compressibility (1/GPa) = 0.06966098
#
# Stress axis : x y z
#
# Youngs Moduli (GPa) = 59.39373 11.91869 92.30559
#
# Poissons Ratio (x) = 0.13102 0.16032
# Poissons Ratio (y) = 0.65291 0.75929
# Poissons Ratio (z) = 0.10316 0.09804
#
# Static dielectric constant tensor:
#      x y z
#    x 1.572700 0.000000 0.000000 
#    y 0.000000 1.564130 0.000000 
#    z 0.000000 0.000000 1.557920 
# 
# From -- ./inp_files/32115.got.cif
#   From: 2010.05.17/outbox.cif.g08.bks.cpg/sg67_17_cif.got.tgz:32115.got - 2010.06.03 18:28:57.
