data_PCOD9501779
_publ_section_title
;
Structure prediction by ZEFSAII (Michael W. Deem and Ramdas Pophale) SiO2 
 PCOD9501779
Probable space group: C M M A
;
_chemical_formula_sum "Si O2"
_cell_formula_units_Z 96
_cell_length_a 25.234268
_cell_length_b 18.685467
_cell_length_c 12.283468
_cell_angle_alpha 90.000000
_cell_angle_beta 90.000000
_cell_angle_gamma 90.000000
_cell_volume 5791.828138
_symmetry_space_group_name_H-M "C M M A"
_symmetry_group_IT_number 67
_symmetry_cell_setting 'orthorhombic'
loop_
_space_group_symop_operation_xyz
x,y,z
-x,1/2-y,z
x,-y,-z
-x,1/2+y,-z
-x,-y,-z
x,1/2+y,-z
-x,y,z
x,1/2-y,z
1/2+x,1/2+y,z
1/2-x,-y,z
1/2+x,1/2-y,-z
1/2-x,y,-z
1/2-x,1/2-y,-z
1/2+x,y,-z
1/2-x,1/2+y,z
1/2+x,-y,z
loop_
_atom_site_type_symbol
_atom_site_label
_atom_site_fract_x
_atom_site_fract_y
_atom_site_fract_z
Si Si1 0.563227 0.109717 0.821167
Si Si2 0.863096 0.075333 0.562796
Si Si3 0.937083 0.554393 0.239248
Si Si4 0.435733 0.668399 0.938537
Si Si5 0.746218 0.917904 0.631966
Si Si6 0.352328 0.834387 0.351211
O O1 0.500000 0.123168 0.800978
O O2 0.576058 0.137230 0.942085
O O3 0.602284 0.147348 0.735860
O O4 0.572409 0.024723 0.808869
O O5 0.911606 0.061068 0.642178
O O6 0.815438 0.101298 0.642183
O O7 0.870288 0.132076 0.466747
O O8 0.850205 0.000000 0.500000
O O9 0.000000 0.562615 0.249098
O O10 0.917160 0.614982 0.155927
O O11 0.500000 0.669917 0.932136
O O12 0.416757 0.750000 0.927115
O O13 0.750000 0.914822 0.500000
O O14 0.795474 0.872091 0.674933
O O15 0.750000 0.000000 0.668897
O O16 0.344538 0.750000 0.359564
#
# Coordination Sequence:
#
# PCOD9501779 Si02
#       6
#    16  16  16  16  16  16
#     4  10  19  34  55  78 109 146 182 222 268 321
#     4  11  19  34  53  76 106 144 174 215 268 320
#     4  10  20  33  54  80 107 142 184 219 260 325
#     4   9  18  33  52  75 105 142 184 226 267 312
#     4   9  15  31  52  69  97 135 175 212 257 309
#     4  11  22  33  52  83 109 136 181 228 271 317
#
# _framework density 16.575078000000001
#
# number of rings (size 3 to 8) (size 9 to 14) (size 15 to 20)
#    0.000    2.000    5.000    1.000    0.000    7.667 
#    0.000    0.000    0.000    1.000    0.000    5.833 
#    0.000    0.000    0.000    0.000    0.000    0.000 
#
# Total GULP energy -267268.226116 kJ/mol
# GULP energy per Si atom -5568.088044 kJ/mol
# Density = 1.653735 g / cm^3
# Si number density = 16.575078 Si / 1000 Ang^3
#
#
#
# Elastic Constant Matrix: (Units=GPa)
#
#
# Indices 1 2 3 4 5 6 
#
# 1 43.8608 48.2401 32.2694 0.0000 0.0000 0.0000
# 2 48.2401 126.9193 46.2402 0.0000 0.0000 0.0000
# 3 32.2694 46.2402 66.1224 0.0000 0.0000 0.0000
# 4 0.0000 0.0000 0.0000 20.6209 0.0000 0.0000
# 5 0.0000 0.0000 0.0000 0.0000 2.7282 0.0000
# 6 0.0000 0.0000 0.0000 0.0000 0.0000 20.6721
#
#
#
# Elastic Compliance Matrix: (Units=1/GPa)
#
#
# Indices 1 2 3 4 5 6 
#
# 1 0.047296 -0.012838 -0.014104 0.000000 0.000000 0.000000
# 2 -0.012838 0.014058 -0.003565 0.000000 0.000000 0.000000
# 3 -0.014104 -0.003565 0.024500 0.000000 0.000000 0.000000
# 4 0.000000 0.000000 0.000000 0.048495 0.000000 0.000000
# 5 0.000000 0.000000 0.000000 0.000000 0.366537 0.000000
# 6 0.000000 0.000000 0.000000 0.000000 0.000000 0.048374
#
#
# Mechanical properties :
#
#
# Convention : Reuss Voigt Hill
#
# Bulk Modulus (GPa) = 40.25953 54.48911 47.37432
# Shear Modulus (GPa) = 8.08339 16.14775 12.11557
#
# Velocity S-wave (km/s) = 2.21075 3.12463 2.70654
# Velocity P-wave (km/s) = 5.55504 6.77962 6.19765
#
# Compressibility (1/GPa) = 0.02483884
#
# Stress axis : x y z
#
# Youngs Moduli (GPa) = 21.14358 71.13638 40.81686
#
# Poissons Ratio (x) = 0.91325 0.57567
# Poissons Ratio (y) = 0.27144 0.14553
# Poissons Ratio (z) = 0.29820 0.25362
#
# Static dielectric constant tensor:
#      x y z
#    x 1.605350 0.000000 0.000000 
#    y 0.000000 1.576940 0.000000 
#    z 0.000000 0.000000 1.532430 
# 
# From -- ./inp_files/19637.got.cif
#   From: 2010.05.17/outbox.cif.g08.bks.cpg/sg67_10_cif.got.tgz:19637.got - 2010.06.03 18:28:57.
