data_PCOD9501076
_publ_section_title
;
Structure prediction by ZEFSAII (Michael W. Deem and Ramdas Pophale) SiO2 
 PCOD9501076
Probable space group: C M M A
;
_chemical_formula_sum "Si O2"
_cell_formula_units_Z 80
_cell_length_a 19.074807
_cell_length_b 32.451672
_cell_length_c 5.555247
_cell_angle_alpha 90.000000
_cell_angle_beta 90.000000
_cell_angle_gamma 90.000000
_cell_volume 3438.750002
_symmetry_space_group_name_H-M "C M M A"
_symmetry_group_IT_number 67
_symmetry_cell_setting 'orthorhombic'
loop_
_space_group_symop_operation_xyz
x,y,z
-x,1/2-y,z
x,-y,-z
-x,1/2+y,-z
-x,-y,-z
x,1/2+y,-z
-x,y,z
x,1/2-y,z
1/2+x,1/2+y,z
1/2-x,-y,z
1/2+x,1/2-y,-z
1/2-x,y,-z
1/2-x,1/2-y,-z
1/2+x,y,-z
1/2-x,1/2+y,z
1/2+x,-y,z
loop_
_atom_site_type_symbol
_atom_site_label
_atom_site_fract_x
_atom_site_fract_y
_atom_site_fract_z
Si Si1 0.916529 0.049151 0.994166
Si Si2 0.100923 0.175197 0.329907
Si Si3 0.619228 0.703553 0.824657
Si Si4 0.080290 0.917822 0.513593
Si Si5 0.247775 0.859359 0.249952
O O1 0.884900 0.063914 0.247029
O O2 0.000000 0.060384 0.002223
O O3 0.889506 0.070386 0.748030
O O4 0.911411 0.000000 0.000000
O O5 0.077492 0.188792 0.062930
O O6 0.077798 0.130325 0.422953
O O7 0.184713 0.170309 0.282547
O O8 0.084239 0.203247 0.559712
O O9 0.644252 0.750000 0.874307
O O10 0.681144 0.670411 0.781381
O O11 0.000000 0.934199 0.502528
O O12 0.250000 0.883690 0.500000
O O13 0.250000 0.883279 0.000000
#
# Coordination Sequence:
#
# PCOD9501076 Si02
#       5
#    16  16  16  16  16
#     4   9  17  30  49  72  95 120 152 189 230 272
#     4  10  19  30  45  67  94 122 154 188 235 286
#     4  10  19  31  48  68  90 117 155 204 250 283
#     4  10  19  31  48  69  97 129 154 184 226 278
#     4   8  16  27  42  64  89 111 143 187 237 282
#
# _framework density 23.264267
#
# number of rings (size 3 to 8) (size 9 to 14) (size 15 to 20)
#    0.000    2.600    0.000    2.400    0.000    9.600 
#    0.000    0.000    0.000    3.600    0.000    0.000 
#    0.000  108.000    0.000    0.000    0.000    0.000 
#
# Total GULP energy -222689.519552 kJ/mol
# GULP energy per Si atom -5567.237989 kJ/mol
# Density = 2.321132 g / cm^3
# Si number density = 23.264267 Si / 1000 Ang^3
#
#
#
# Elastic Constant Matrix: (Units=GPa)
#
#
# Indices 1 2 3 4 5 6 
#
# 1 68.2933 -5.7843 20.8717 0.0000 0.0000 0.0000
# 2 -5.7843 50.3565 45.1303 0.0000 0.0000 0.0000
# 3 20.8717 45.1303 295.6135 0.0000 0.0000 0.0000
# 4 0.0000 0.0000 0.0000 35.9973 0.0000 0.0000
# 5 0.0000 0.0000 0.0000 0.0000 -32.1568 0.0000
# 6 0.0000 0.0000 0.0000 0.0000 0.0000 39.1161
#
#
#
# Elastic Compliance Matrix: (Units=1/GPa)
#
#
# Indices 1 2 3 4 5 6 
#
# 1 0.015392 0.003177 -0.001572 0.000000 0.000000 0.000000
# 2 0.003177 0.023662 -0.003837 0.000000 0.000000 0.000000
# 3 -0.001572 -0.003837 0.004079 0.000000 0.000000 0.000000
# 4 0.000000 0.000000 0.000000 0.027780 0.000000 0.000000
# 5 0.000000 0.000000 0.000000 0.000000 -0.031098 0.000000
# 6 0.000000 0.000000 0.000000 0.000000 0.000000 0.025565
#
#
# Mechanical properties :
#
#
# Convention : Reuss Voigt Hill
#
# Bulk Modulus (GPa) = 25.85986 59.41096 42.63541
# Shear Modulus (GPa) = 60.43466 32.19436 46.31451
#
# Velocity S-wave (km/s) = 5.10234 3.72406 4.46668
# Velocity P-wave (km/s) = 6.77138 6.63960 6.70582
#
# Compressibility (1/GPa) = 0.03866997
#
# Stress axis : x y z
#
# Youngs Moduli (GPa) = 64.96822 42.26226 245.12830
#
# Poissons Ratio (x) = -0.13425 0.38528
# Poissons Ratio (y) = -0.20638 0.94047
# Poissons Ratio (z) = 0.10211 0.16215
#
# Static dielectric constant tensor:
#      x y z
#    x 1.932990 0.000000 0.000000 
#    y 0.000000 1.844670 0.000000 
#    z 0.000000 0.000000 2.033380 
# 
# From -- ./inp_files/4823.got.cif
#   From: 2010.05.17/outbox.cif.g08.bks.cpg/sg67_3_cif.got.tgz:4823.got - 2010.06.03 18:28:57.
