data_PCOD9501501
_publ_section_title
;
Structure prediction by ZEFSAII (Michael W. Deem and Ramdas Pophale) SiO2 
 PCOD9501501
Probable space group: C M M A
;
_chemical_formula_sum "Si O2"
_cell_formula_units_Z 96
_cell_length_a 14.645970
_cell_length_b 14.024796
_cell_length_c 22.695285
_cell_angle_alpha 90.000000
_cell_angle_beta 90.000000
_cell_angle_gamma 90.000000
_cell_volume 4661.764539
_symmetry_space_group_name_H-M "C M M A"
_symmetry_group_IT_number 67
_symmetry_cell_setting 'orthorhombic'
loop_
_space_group_symop_operation_xyz
x,y,z
-x,1/2-y,z
x,-y,-z
-x,1/2+y,-z
-x,-y,-z
x,1/2+y,-z
-x,y,z
x,1/2-y,z
1/2+x,1/2+y,z
1/2-x,-y,z
1/2+x,1/2-y,-z
1/2-x,y,-z
1/2-x,1/2-y,-z
1/2+x,y,-z
1/2-x,1/2+y,z
1/2+x,-y,z
loop_
_atom_site_type_symbol
_atom_site_label
_atom_site_fract_x
_atom_site_fract_y
_atom_site_fract_z
Si Si1 0.211558 0.865016 0.140321
Si Si2 0.609394 0.985826 0.626714
Si Si3 0.399119 0.142805 0.890175
Si Si4 0.751061 0.138400 0.429737
Si Si5 0.601755 0.607684 0.978501
Si Si6 0.109007 0.861049 0.260099
O O1 0.220804 0.750000 0.140560
O O2 0.314052 0.906899 0.140404
O O3 0.164327 0.885701 0.078021
O O4 0.154725 0.886690 0.198243
O O5 0.500000 0.000813 0.619903
O O6 0.651251 0.898642 0.589235
O O7 0.628273 0.943984 0.692199
O O8 0.671617 0.075121 0.604389
O O9 0.500000 0.097248 0.886737
O O10 0.407887 0.250000 0.866125
O O11 0.373288 0.153788 0.959120
O O12 0.764389 0.250000 0.417393
O O13 0.750000 0.123279 0.500000
O O14 0.500000 0.640341 0.962060
O O15 0.598517 0.500000 0.000000
O O16 0.136583 0.750000 0.276387
O O17 0.000000 0.858214 0.253365
#
# Coordination Sequence:
#
# PCOD9501501 Si02
#       6
#    16  16  16  16  16  16
#     4  10  19  32  53  77 101 135 180 233 293 353
#     4  10  20  37  62  91 127 168 207 253 308 359
#     4   9  18  32  49  70  97 130 170 217 274 344
#     4  10  22  39  61  94 132 167 208 254 297 353
#     4  10  20  32  46  68  99 131 167 220 287 356
#     4   9  18  33  56  86 113 142 191 250 303 361
#
# _framework density 20.593060999999999
#
# number of rings (size 3 to 8) (size 9 to 14) (size 15 to 20)
#    0.000    2.333    0.000    3.000    0.000    7.000 
#    0.000    5.000    0.000    8.000    0.000    5.833 
#    0.000    5.333    0.000    0.000    0.000    0.000 
#
# Total GULP energy -267450.697834 kJ/mol
# GULP energy per Si atom -5571.889538 kJ/mol
# Density = 2.054619 g / cm^3
# Si number density = 20.593061 Si / 1000 Ang^3
#
#
#
# Elastic Constant Matrix: (Units=GPa)
#
#
# Indices 1 2 3 4 5 6 
#
# 1 87.8114 40.6991 49.4169 0.0000 0.0000 0.0000
# 2 40.6991 112.9493 32.0551 0.0000 0.0000 0.0000
# 3 49.4169 32.0551 68.4881 0.0000 0.0000 0.0000
# 4 0.0000 0.0000 0.0000 30.4471 0.0000 0.0000
# 5 0.0000 0.0000 0.0000 0.0000 31.8272 0.0000
# 6 0.0000 0.0000 0.0000 0.0000 0.0000 12.0208
#
#
#
# Elastic Compliance Matrix: (Units=1/GPa)
#
#
# Indices 1 2 3 4 5 6 
#
# 1 0.020407 -0.003661 -0.013011 0.000000 0.000000 0.000000
# 2 -0.003661 0.010866 -0.002445 0.000000 0.000000 0.000000
# 3 -0.013011 -0.002445 0.025133 0.000000 0.000000 0.000000
# 4 0.000000 0.000000 0.000000 0.032844 0.000000 0.000000
# 5 0.000000 0.000000 0.000000 0.000000 0.031420 0.000000
# 6 0.000000 0.000000 0.000000 0.000000 0.000000 0.083189
#
#
# Mechanical properties :
#
#
# Convention : Reuss Voigt Hill
#
# Bulk Modulus (GPa) = 55.02398 57.06568 56.04483
# Shear Modulus (GPa) = 20.14916 24.66421 22.40668
#
# Velocity S-wave (km/s) = 3.13140 3.46453 3.30217
# Velocity P-wave (km/s) = 6.31284 6.61628 6.46634
#
# Compressibility (1/GPa) = 0.01817389
#
# Stress axis : x y z
#
# Youngs Moduli (GPa) = 49.00336 92.02716 39.78806
#
# Poissons Ratio (x) = 0.33688 0.51768
# Poissons Ratio (y) = 0.17938 0.09726
# Poissons Ratio (z) = 0.63758 0.22497
#
# Static dielectric constant tensor:
#      x y z
#    x 1.784050 0.000000 0.000000 
#    y 0.000000 1.782950 0.000000 
#    z 0.000000 0.000000 1.736720 
# 
# From -- ./inp_files/38418.got.cif
#   From: 2010.05.17/outbox.cif.g08.bks.cpg/sg67_20_cif.got.tgz:38418.got - 2010.06.03 18:28:57.
