data_PCOD9501870
_publ_section_title
;
Structure prediction by ZEFSAII (Michael W. Deem and Ramdas Pophale) SiO2 
 PCOD9501870
Probable space group: C M M A
;
_chemical_formula_sum "Si O2"
_cell_formula_units_Z 80
_cell_length_a 17.524849
_cell_length_b 17.327529
_cell_length_c 12.293931
_cell_angle_alpha 90.000000
_cell_angle_beta 90.000000
_cell_angle_gamma 90.000000
_cell_volume 3733.203723
_symmetry_space_group_name_H-M "C M M A"
_symmetry_group_IT_number 67
_symmetry_cell_setting 'orthorhombic'
loop_
_space_group_symop_operation_xyz
x,y,z
-x,1/2-y,z
x,-y,-z
-x,1/2+y,-z
-x,-y,-z
x,1/2+y,-z
-x,y,z
x,1/2-y,z
1/2+x,1/2+y,z
1/2-x,-y,z
1/2+x,1/2-y,-z
1/2-x,y,-z
1/2-x,1/2-y,-z
1/2+x,y,-z
1/2-x,1/2+y,z
1/2+x,-y,z
loop_
_atom_site_type_symbol
_atom_site_label
_atom_site_fract_x
_atom_site_fract_y
_atom_site_fract_z
Si Si1 0.586234 0.061676 0.099692
Si Si2 0.349503 0.160165 0.927933
Si Si3 0.337541 0.091190 0.528107
Si Si4 0.500000 0.659144 0.218832
Si Si5 0.000000 0.656905 0.532381
Si Si6 0.679855 0.549772 0.239749
O O1 0.500000 0.085617 0.121426
O O2 0.619980 0.014284 0.199686
O O3 0.632994 0.132707 0.049451
O O4 0.586469 0.000000 0.000000
O O5 0.330023 0.250000 0.921380
O O6 0.426802 0.144108 0.857115
O O7 0.295174 0.101361 0.863735
O O8 0.250000 0.117792 0.500000
O O9 0.417381 0.128616 0.484961
O O10 0.342334 0.101419 0.658547
O O11 0.341923 0.000000 0.500000
O O12 0.500000 0.750000 0.236116
O O13 0.500000 0.626862 0.340802
O O14 0.000000 0.750000 0.528796
O O15 0.750000 0.500000 0.280695
#
# Coordination Sequence:
#
# PCOD9501870 Si02
#       6
#    16  16  16   8   8  16
#     4   9  19  32  54  87 121 160 199 247 308 367
#     4  10  19  34  61  91 125 162 204 252 303 375
#     4  11  23  42  66  96 127 169 222 276 330 388
#     4   9  16  29  55  92 120 150 194 244 298 363
#     4  11  23  39  66 101 131 167 216 270 332 393
#     4  11  22  38  59  85 127 161 211 266 312 371
#
# _framework density 21.429316
#
# number of rings (size 3 to 8) (size 9 to 14) (size 15 to 20)
#    0.000    1.800    5.000    0.300    2.800    4.000 
#    0.000    2.000    0.000    1.200    0.000    0.000 
#    0.000    0.000    0.000    0.000    0.000    0.000 
#
# Total GULP energy -222758.896198 kJ/mol
# GULP energy per Si atom -5568.972405 kJ/mol
# Density = 2.138054 g / cm^3
# Si number density = 21.429316 Si / 1000 Ang^3
#
#
#
# Elastic Constant Matrix: (Units=GPa)
#
#
# Indices 1 2 3 4 5 6 
#
# 1 135.5013 19.0866 25.6609 0.0000 0.0000 0.0000
# 2 19.0866 77.4770 2.9059 0.0000 0.0000 0.0000
# 3 25.6609 2.9059 58.4781 0.0000 0.0000 0.0000
# 4 0.0000 0.0000 0.0000 22.9144 0.0000 0.0000
# 5 0.0000 0.0000 0.0000 0.0000 248.8021 0.0000
# 6 0.0000 0.0000 0.0000 0.0000 0.0000 14.4320
#
#
#
# Elastic Compliance Matrix: (Units=1/GPa)
#
#
# Indices 1 2 3 4 5 6 
#
# 1 0.008324 -0.001917 -0.003557 0.000000 0.000000 0.000000
# 2 -0.001917 0.013373 0.000177 0.000000 0.000000 0.000000
# 3 -0.003557 0.000177 0.018653 0.000000 0.000000 0.000000
# 4 0.000000 0.000000 0.000000 0.043641 0.000000 0.000000
# 5 0.000000 0.000000 0.000000 0.000000 0.004019 0.000000
# 6 0.000000 0.000000 0.000000 0.000000 0.000000 0.069290
#
#
# Mechanical properties :
#
#
# Convention : Reuss Voigt Hill
#
# Bulk Modulus (GPa) = 33.60928 40.75148 37.18038
# Shear Modulus (GPa) = 28.11950 72.14990 50.13470
#
# Velocity S-wave (km/s) = 3.62636 5.80878 4.84212
# Velocity P-wave (km/s) = 5.76644 8.00295 6.97492
#
# Compressibility (1/GPa) = 0.02975369
#
# Stress axis : x y z
#
# Youngs Moduli (GPa) = 120.13866 74.77913 53.61181
#
# Poissons Ratio (x) = 0.14336 0.19071
# Poissons Ratio (y) = 0.23032 -0.00948
# Poissons Ratio (z) = 0.42737 -0.01322
#
# Static dielectric constant tensor:
#      x y z
#    x -1.983560 0.000000 0.000000 
#    y 0.000000 1.785390 0.000000 
#    z 0.000000 0.000000 1.806250 
# 
# From -- ./inp_files/19377.got.cif
#   From: 2010.05.17/outbox.cif.g08.bks.cpg/sg67_10_cif.got.tgz:19377.got - 2010.06.03 18:28:57.
