data_PCOD9501387
_publ_section_title
;
Structure prediction by ZEFSAII (Michael W. Deem and Ramdas Pophale) SiO2 
 PCOD9501387
Probable space group: C M M A
;
_chemical_formula_sum "Si O2"
_cell_formula_units_Z 112
_cell_length_a 19.937405
_cell_length_b 18.321024
_cell_length_c 18.135611
_cell_angle_alpha 90.000000
_cell_angle_beta 90.000000
_cell_angle_gamma 90.000000
_cell_volume 6624.461287
_symmetry_space_group_name_H-M "C M M A"
_symmetry_group_IT_number 67
_symmetry_cell_setting 'orthorhombic'
loop_
_space_group_symop_operation_xyz
x,y,z
-x,1/2-y,z
x,-y,-z
-x,1/2+y,-z
-x,-y,-z
x,1/2+y,-z
-x,y,z
x,1/2-y,z
1/2+x,1/2+y,z
1/2-x,-y,z
1/2+x,1/2-y,-z
1/2-x,y,-z
1/2-x,1/2-y,-z
1/2+x,y,-z
1/2-x,1/2+y,z
1/2+x,-y,z
loop_
_atom_site_type_symbol
_atom_site_label
_atom_site_fract_x
_atom_site_fract_y
_atom_site_fract_z
Si Si1 0.579852 0.975469 0.917800
Si Si2 0.817842 0.534006 0.805427
Si Si3 0.075096 0.337183 0.400074
Si Si4 0.580036 0.833811 0.827750
Si Si5 0.801415 0.837366 0.705445
Si Si6 0.340310 0.094657 0.307244
Si Si7 0.579215 0.073070 0.456750
O O1 0.500000 0.985757 0.910329
O O2 0.594598 0.891812 0.893004
O O3 0.620294 0.023029 0.859096
O O4 0.598686 0.000000 0.000000
O O5 0.750000 0.500000 0.839819
O O6 0.809009 0.617000 0.780731
O O7 0.828203 0.483269 0.732742
O O8 0.072595 0.250000 0.398078
O O9 0.135599 0.358622 0.346293
O O10 0.088203 0.363473 0.483063
O O11 0.000000 0.365323 0.379260
O O12 0.500000 0.838217 0.813027
O O13 0.596306 0.750000 0.846057
O O14 0.619947 0.858964 0.754864
O O15 0.800515 0.750000 0.714056
O O16 0.730214 0.866201 0.675490
O O17 0.381569 0.085143 0.381671
O O18 0.500000 0.066627 0.440129
O O19 0.600324 0.000000 0.500000
#
# Coordination Sequence:
#
# PCOD9501387 Si02
#       7
#    16  16  16  16  16  16  16
#     4   9  18  33  53  77 104 133 165 201 243 295
#     4   9  19  34  51  72  98 128 161 197 241 293
#     4   9  19  34  48  64  91 126 161 200 249 299
#     4   9  17  30  50  76 105 135 164 199 248 302
#     4  10  20  34  51  71  96 127 165 209 253 296
#     4  10  19  32  50  73  99 128 164 207 252 298
#     4  10  20  33  50  72  97 127 166 209 250 297
#
# _framework density 16.907035
#
# number of rings (size 3 to 8) (size 9 to 14) (size 15 to 20)
#    0.000    2.571    0.000    1.714    0.000    3.143 
#    0.000    4.286    0.000    0.857    0.000    6.000 
#    0.000    0.000    0.000    0.000    0.000    0.000 
#
# Total GULP energy -312042.447736 kJ/mol
# GULP energy per Si atom -5572.186567 kJ/mol
# Density = 1.686855 g / cm^3
# Si number density = 16.907035 Si / 1000 Ang^3
#
#
#
# Elastic Constant Matrix: (Units=GPa)
#
#
# Indices 1 2 3 4 5 6 
#
# 1 75.8542 43.3337 61.8347 0.0000 0.0000 0.0000
# 2 43.3337 73.4631 46.4641 0.0000 0.0000 0.0000
# 3 61.8347 46.4641 93.9095 0.0000 0.0000 0.0000
# 4 0.0000 0.0000 0.0000 14.8035 0.0000 0.0000
# 5 0.0000 0.0000 0.0000 0.0000 16.1942 0.0000
# 6 0.0000 0.0000 0.0000 0.0000 0.0000 22.8666
#
#
#
# Elastic Compliance Matrix: (Units=1/GPa)
#
#
# Indices 1 2 3 4 5 6 
#
# 1 0.031325 -0.007906 -0.016714 0.000000 0.000000 0.000000
# 2 -0.007906 0.021808 -0.005584 0.000000 0.000000 0.000000
# 3 -0.016714 -0.005584 0.024417 0.000000 0.000000 0.000000
# 4 0.000000 0.000000 0.000000 0.067552 0.000000 0.000000
# 5 0.000000 0.000000 0.000000 0.000000 0.061751 0.000000
# 6 0.000000 0.000000 0.000000 0.000000 0.000000 0.043732
#
#
# Mechanical properties :
#
#
# Convention : Reuss Voigt Hill
#
# Bulk Modulus (GPa) = 58.34084 60.72131 59.53108
# Shear Modulus (GPa) = 15.78755 16.87914 16.33334
#
# Velocity S-wave (km/s) = 3.05911 3.16310 3.11153
# Velocity P-wave (km/s) = 6.85997 7.02375 6.94234
#
# Compressibility (1/GPa) = 0.01714065
#
# Stress axis : x y z
#
# Youngs Moduli (GPa) = 31.92373 45.85520 40.95557
#
# Poissons Ratio (x) = 0.36254 0.68453
# Poissons Ratio (y) = 0.25240 0.22870
# Poissons Ratio (z) = 0.53357 0.25606
#
# Static dielectric constant tensor:
#      x y z
#    x 1.593000 0.000000 0.000000 
#    y 0.000000 1.596640 0.000000 
#    z 0.000000 0.000000 1.529340 
# 
# From -- ./inp_files/35087.got.cif
#   From: 2010.05.17/outbox.cif.g08.bks.cpg/sg67_18_cif.got.tgz:35087.got - 2010.06.03 18:28:57.
