data_PCOD9501836
_publ_section_title
;
Structure prediction by ZEFSAII (Michael W. Deem and Ramdas Pophale) SiO2 
 PCOD9501836
Probable space group: C M M A
;
_chemical_formula_sum "Si O2"
_cell_formula_units_Z 80
_cell_length_a 22.367676
_cell_length_b 16.293046
_cell_length_c 11.072698
_cell_angle_alpha 90.000000
_cell_angle_beta 90.000000
_cell_angle_gamma 90.000000
_cell_volume 4035.307197
_symmetry_space_group_name_H-M "C M M A"
_symmetry_group_IT_number 67
_symmetry_cell_setting 'orthorhombic'
loop_
_space_group_symop_operation_xyz
x,y,z
-x,1/2-y,z
x,-y,-z
-x,1/2+y,-z
-x,-y,-z
x,1/2+y,-z
-x,y,z
x,1/2-y,z
1/2+x,1/2+y,z
1/2-x,-y,z
1/2+x,1/2-y,-z
1/2-x,y,-z
1/2-x,1/2-y,-z
1/2+x,y,-z
1/2-x,1/2+y,z
1/2+x,-y,z
loop_
_atom_site_type_symbol
_atom_site_label
_atom_site_fract_x
_atom_site_fract_y
_atom_site_fract_z
Si Si1 0.349322 0.500000 0.000000
Si Si2 0.929395 0.655271 0.991849
Si Si3 0.661709 0.037474 0.369966
Si Si4 0.064182 0.157112 0.543540
Si Si5 0.750000 0.500000 0.188343
Si Si6 0.432404 0.903851 0.279013
O O1 0.390178 0.422210 0.039663
O O2 0.302832 0.469110 0.897858
O O3 0.912639 0.750000 0.023696
O O4 0.923818 0.643633 0.846341
O O5 0.000000 0.644695 0.022427
O O6 0.619321 0.112554 0.398420
O O7 0.679959 0.000000 0.500000
O O8 0.716300 0.059304 0.282355
O O9 0.618060 0.971259 0.305438
O O10 0.062829 0.250000 0.583132
O O11 0.069094 0.151941 0.398455
O O12 0.000000 0.117056 0.573853
O O13 0.500000 0.939399 0.272448
#
# Coordination Sequence:
#
# PCOD9501836 Si02
#       6
#     8  16  16  16   8  16
#     4  11  23  42  62  80 119 153 198 248 288 341
#     4  10  20  37  64  93 116 145 189 242 301 355
#     4  10  19  34  58  80 113 152 198 236 278 337
#     4   9  17  30  52  88 126 151 177 226 294 357
#     4  11  23  40  58  78 109 161 206 236 284 331
#     4   9  16  30  56  86 116 149 187 234 286 343
#
# _framework density 19.825009000000001
#
# number of rings (size 3 to 8) (size 9 to 14) (size 15 to 20)
#    0.000    2.200    2.000    1.800    0.000    4.800 
#    0.000    4.000    0.000    4.800    0.000    0.000 
#    0.000    0.000    0.000    0.000    0.000    0.000 
#
# Total GULP energy -222702.002108 kJ/mol
# GULP energy per Si atom -5567.550053 kJ/mol
# Density = 1.977989 g / cm^3
# Si number density = 19.825009 Si / 1000 Ang^3
#
#
#
# Elastic Constant Matrix: (Units=GPa)
#
#
# Indices 1 2 3 4 5 6 
#
# 1 110.2196 46.3609 41.0719 0.0000 0.0000 0.0000
# 2 46.3609 85.6485 8.0477 0.0000 0.0000 0.0000
# 3 41.0719 8.0477 46.5657 0.0000 0.0000 0.0000
# 4 0.0000 0.0000 0.0000 14.4541 0.0000 0.0000
# 5 0.0000 0.0000 0.0000 0.0000 36.5747 0.0000
# 6 0.0000 0.0000 0.0000 0.0000 0.0000 7.1857
#
#
#
# Elastic Compliance Matrix: (Units=1/GPa)
#
#
# Indices 1 2 3 4 5 6 
#
# 1 0.017954 -0.008366 -0.014390 0.000000 0.000000 0.000000
# 2 -0.008366 0.015767 0.004654 0.000000 0.000000 0.000000
# 3 -0.014390 0.004654 0.033363 0.000000 0.000000 0.000000
# 4 0.000000 0.000000 0.000000 0.069184 0.000000 0.000000
# 5 0.000000 0.000000 0.000000 0.000000 0.027341 0.000000
# 6 0.000000 0.000000 0.000000 0.000000 0.000000 0.139165
#
#
# Mechanical properties :
#
#
# Convention : Reuss Voigt Hill
#
# Bulk Modulus (GPa) = 32.38336 48.15497 40.26917
# Shear Modulus (GPa) = 14.31550 21.43979 17.87764
#
# Velocity S-wave (km/s) = 2.69009 3.29211 3.00621
# Velocity P-wave (km/s) = 5.10087 6.22843 5.69264
#
# Compressibility (1/GPa) = 0.03088006
#
# Stress axis : x y z
#
# Youngs Moduli (GPa) = 55.69753 63.42393 29.97337
#
# Poissons Ratio (x) = 0.53062 0.43132
# Poissons Ratio (y) = 0.46598 -0.13951
# Poissons Ratio (z) = 0.80149 -0.29520
#
# Static dielectric constant tensor:
#      x y z
#    x 1.722260 0.000000 0.000000 
#    y 0.000000 1.686610 0.000000 
#    z 0.000000 0.000000 1.773610 
# 
# From -- ./inp_files/21856.got.cif
#   From: 2010.05.17/outbox.cif.g08.bks.cpg/sg67_11_cif.got.tgz:21856.got - 2010.06.03 18:28:57.
