data_PCOD9501316
_publ_section_title
;
Structure prediction by ZEFSAII (Michael W. Deem and Ramdas Pophale) SiO2 
 PCOD9501316
Probable space group: C M M A
;
_chemical_formula_sum "Si O2"
_cell_formula_units_Z 96
_cell_length_a 16.099007
_cell_length_b 19.498771
_cell_length_c 18.273678
_cell_angle_alpha 90.000000
_cell_angle_beta 90.000000
_cell_angle_gamma 90.000000
_cell_volume 5736.305809
_symmetry_space_group_name_H-M "C M M A"
_symmetry_group_IT_number 67
_symmetry_cell_setting 'orthorhombic'
loop_
_space_group_symop_operation_xyz
x,y,z
-x,1/2-y,z
x,-y,-z
-x,1/2+y,-z
-x,-y,-z
x,1/2+y,-z
-x,y,z
x,1/2-y,z
1/2+x,1/2+y,z
1/2-x,-y,z
1/2+x,1/2-y,-z
1/2-x,y,-z
1/2-x,1/2-y,-z
1/2+x,y,-z
1/2-x,1/2+y,z
1/2+x,-y,z
loop_
_atom_site_type_symbol
_atom_site_label
_atom_site_fract_x
_atom_site_fract_y
_atom_site_fract_z
Si Si1 0.000000 0.886994 0.009544
Si Si2 0.780397 0.421723 0.335671
Si Si3 0.175974 0.445555 0.171406
Si Si4 0.500000 0.503208 0.124237
Si Si5 0.322157 0.328751 0.437113
Si Si6 0.595171 0.569168 0.464096
Si Si7 0.667432 0.171851 0.951051
O O1 0.915598 0.844525 0.997721
O O2 0.000000 0.929225 0.085088
O O3 0.000000 0.942555 0.943218
O O4 0.750000 0.500000 0.344123
O O5 0.805779 0.414933 0.251510
O O6 0.711666 0.369348 0.366595
O O7 0.857197 0.412513 0.390445
O O8 0.250000 0.500000 0.155000
O O9 0.173976 0.384764 0.112354
O O10 0.085688 0.482650 0.167559
O O11 0.341792 0.250000 0.421505
O O12 0.250000 0.330264 0.500000
O O13 0.394493 0.371504 0.475921
O O14 0.632409 0.500000 0.500000
O O15 0.500000 0.555911 0.446970
O O16 0.661695 0.250000 0.923042
O O17 0.750000 0.166327 0.000000
#
# Coordination Sequence:
#
# PCOD9501316 Si02
#       7
#     8  16  16   8  16  16  16
#     4   9  17  32  54  76 105 137 177 223 272 320
#     4  10  19  33  52  74 105 139 178 218 272 329
#     4  10  21  34  52  80 111 143 181 230 277 332
#     4   9  18  32  52  78 105 140 175 223 274 319
#     4   9  18  32  51  73  98 134 176 215 264 326
#     4  10  19  31  53  78 102 137 174 222 270 324
#     4  10  20  34  54  78 106 143 187 227 272 330
#
# _framework density 16.735510000000001
#
# number of rings (size 3 to 8) (size 9 to 14) (size 15 to 20)
#    0.000    2.333    1.667    1.250    1.167    2.667 
#    0.000    0.000    0.000    0.000    0.000    0.000 
#    0.000    0.000    0.000    0.000    0.000    0.000 
#
# Total GULP energy -267446.655886 kJ/mol
# GULP energy per Si atom -5571.805331 kJ/mol
# Density = 1.669742 g / cm^3
# Si number density = 16.735510 Si / 1000 Ang^3
#
#
#
# Elastic Constant Matrix: (Units=GPa)
#
#
# Indices 1 2 3 4 5 6 
#
# 1 91.0810 28.9530 32.2111 0.0000 0.0000 0.0000
# 2 28.9530 111.4007 46.0801 0.0000 0.0000 0.0000
# 3 32.2111 46.0801 87.2485 0.0000 0.0000 0.0000
# 4 0.0000 0.0000 0.0000 10.6056 0.0000 0.0000
# 5 0.0000 0.0000 0.0000 0.0000 18.6543 0.0000
# 6 0.0000 0.0000 0.0000 0.0000 0.0000 12.3912
#
#
#
# Elastic Compliance Matrix: (Units=1/GPa)
#
#
# Indices 1 2 3 4 5 6 
#
# 1 0.012895 -0.001769 -0.003827 0.000000 0.000000 0.000000
# 2 -0.001769 0.011728 -0.005541 0.000000 0.000000 0.000000
# 3 -0.003827 -0.005541 0.015801 0.000000 0.000000 0.000000
# 4 0.000000 0.000000 0.000000 0.094290 0.000000 0.000000
# 5 0.000000 0.000000 0.000000 0.000000 0.053607 0.000000
# 6 0.000000 0.000000 0.000000 0.000000 0.000000 0.080702
#
#
# Mechanical properties :
#
#
# Convention : Reuss Voigt Hill
#
# Bulk Modulus (GPa) = 55.09310 56.02428 55.55869
# Shear Modulus (GPa) = 16.81541 20.49596 18.65568
#
# Velocity S-wave (km/s) = 3.17326 3.50337 3.34239
# Velocity P-wave (km/s) = 6.81303 7.06496 6.94014
#
# Compressibility (1/GPa) = 0.01815109
#
# Stress axis : x y z
#
# Youngs Moduli (GPa) = 77.55135 85.26305 63.28756
#
# Poissons Ratio (x) = 0.15079 0.24217
# Poissons Ratio (y) = 0.13715 0.35070
# Poissons Ratio (z) = 0.29675 0.47248
#
# Static dielectric constant tensor:
#      x y z
#    x 1.567850 0.000000 0.000000 
#    y 0.000000 1.573150 0.000000 
#    z 0.000000 0.000000 1.544410 
# 
# From -- ./inp_files/34276.got.cif
#   From: 2010.05.17/outbox.cif.g08.bks.cpg/sg67_18_cif.got.tgz:34276.got - 2010.06.03 18:28:57.
