data_PCOD9501388
_publ_section_title
;
Structure prediction by ZEFSAII (Michael W. Deem and Ramdas Pophale) SiO2 
 PCOD9501388
Probable space group: C M M A
;
_chemical_formula_sum "Si O2"
_cell_formula_units_Z 96
_cell_length_a 28.245481
_cell_length_b 8.595716
_cell_length_c 24.341364
_cell_angle_alpha 90.000000
_cell_angle_beta 90.000000
_cell_angle_gamma 90.000000
_cell_volume 5909.843002
_symmetry_space_group_name_H-M "C M M A"
_symmetry_group_IT_number 67
_symmetry_cell_setting 'orthorhombic'
loop_
_space_group_symop_operation_xyz
x,y,z
-x,1/2-y,z
x,-y,-z
-x,1/2+y,-z
-x,-y,-z
x,1/2+y,-z
-x,y,z
x,1/2-y,z
1/2+x,1/2+y,z
1/2-x,-y,z
1/2+x,1/2-y,-z
1/2-x,y,-z
1/2-x,1/2-y,-z
1/2+x,y,-z
1/2-x,1/2+y,z
1/2+x,-y,z
loop_
_atom_site_type_symbol
_atom_site_label
_atom_site_fract_x
_atom_site_fract_y
_atom_site_fract_z
Si Si1 0.553106 0.061098 0.273713
Si Si2 0.890910 0.563234 0.164564
Si Si3 0.303012 0.564324 0.440521
Si Si4 0.646680 0.062667 0.334277
Si Si5 0.802060 0.935768 0.773606
Si Si6 0.054977 0.936470 0.939526
O O1 0.500000 0.003274 0.283334
O O2 0.551728 0.250000 0.274744
O O3 0.572721 0.017408 0.213534
O O4 0.593415 0.014391 0.317081
O O5 0.887022 0.750000 0.164900
O O6 0.840661 0.491532 0.181902
O O7 0.911525 0.505267 0.107240
O O8 0.318107 0.500000 0.500000
O O9 0.301226 0.750000 0.442128
O O10 0.250000 0.500000 0.430452
O O11 0.336060 0.506425 0.391469
O O12 0.648963 0.250000 0.335982
O O13 0.680099 0.003997 0.284776
O O14 0.801350 0.750000 0.770559
O O15 0.750000 0.000000 0.785602
O O16 0.057921 0.750000 0.939521
O O17 0.000000 0.980861 0.928199
O O18 0.066731 0.000000 0.000000
#
# Coordination Sequence:
#
# PCOD9501388 Si02
#       6
#    16  16  16  16  16  16
#     4   8  15  28  48  73  99 128 161 197 239 287
#     4  10  19  32  51  75 102 132 166 205 251 299
#     4  11  21  34  51  72  98 127 161 200 245 294
#     4  10  19  32  50  74 102 131 164 201 244 292
#     4  11  21  34  51  73 101 132 167 205 247 294
#     4  10  20  33  50  74 103 135 170 208 250 295
#
# _framework density 16.244084999999998
#
# number of rings (size 3 to 8) (size 9 to 14) (size 15 to 20)
#    0.000    2.000    0.000    7.000    0.000    1.667 
#    0.000    0.000    0.000   11.000    0.000    3.500 
#    0.000    0.000    0.000    0.000    0.000    0.000 
#
# Total GULP energy -267944.724687 kJ/mol
# GULP energy per Si atom -5582.181764 kJ/mol
# Density = 1.620711 g / cm^3
# Si number density = 16.244085 Si / 1000 Ang^3
#
#
#
# Elastic Constant Matrix: (Units=GPa)
#
#
# Indices 1 2 3 4 5 6 
#
# 1 139.9668 49.8381 92.6829 0.0000 0.0000 0.0000
# 2 49.8381 103.7998 51.4478 0.0000 0.0000 0.0000
# 3 92.6829 51.4478 138.9974 0.0000 0.0000 0.0000
# 4 0.0000 0.0000 0.0000 26.7244 0.0000 0.0000
# 5 0.0000 0.0000 0.0000 0.0000 21.1468 0.0000
# 6 0.0000 0.0000 0.0000 0.0000 0.0000 20.5109
#
#
#
# Elastic Compliance Matrix: (Units=1/GPa)
#
#
# Indices 1 2 3 4 5 6 
#
# 1 0.013277 -0.002433 -0.007952 0.000000 0.000000 0.000000
# 2 -0.002433 0.012244 -0.002910 0.000000 0.000000 0.000000
# 3 -0.007952 -0.002910 0.013574 0.000000 0.000000 0.000000
# 4 0.000000 0.000000 0.000000 0.037419 0.000000 0.000000
# 5 0.000000 0.000000 0.000000 0.000000 0.047288 0.000000
# 6 0.000000 0.000000 0.000000 0.000000 0.000000 0.048755
#
#
# Mechanical properties :
#
#
# Convention : Reuss Voigt Hill
#
# Bulk Modulus (GPa) = 79.96923 85.63353 82.80138
# Shear Modulus (GPa) = 24.59233 26.26276 25.42754
#
# Velocity S-wave (km/s) = 3.89514 4.02526 3.96073
# Velocity P-wave (km/s) = 8.34063 8.62756 8.48531
#
# Compressibility (1/GPa) = 0.01250481
#
# Stress axis : x y z
#
# Youngs Moduli (GPa) = 75.31963 81.67046 73.67083
#
# Poissons Ratio (x) = 0.19872 0.58585
# Poissons Ratio (y) = 0.18326 0.21436
# Poissons Ratio (z) = 0.59896 0.23763
#
# Static dielectric constant tensor:
#      x y z
#    x 1.540500 0.000000 0.000000 
#    y 0.000000 1.544240 0.000000 
#    z 0.000000 0.000000 1.519300 
# 
# From -- ./inp_files/42693.got.cif
#   From: 2010.05.17/outbox.cif.g08.bks.cpg/sg67_22_cif.got.tgz:42693.got - 2010.06.03 18:28:57.
