data_PCOD9501858
_publ_section_title
;
Structure prediction by ZEFSAII (Michael W. Deem and Ramdas Pophale) SiO2 
 PCOD9501858
Probable space group: C M M A
;
_chemical_formula_sum "Si O2"
_cell_formula_units_Z 72
_cell_length_a 23.957104
_cell_length_b 14.266711
_cell_length_c 10.236919
_cell_angle_alpha 90.000000
_cell_angle_beta 90.000000
_cell_angle_gamma 90.000000
_cell_volume 3498.867118
_symmetry_space_group_name_H-M "C M M A"
_symmetry_group_IT_number 67
_symmetry_cell_setting 'orthorhombic'
loop_
_space_group_symop_operation_xyz
x,y,z
-x,1/2-y,z
x,-y,-z
-x,1/2+y,-z
-x,-y,-z
x,1/2+y,-z
-x,y,z
x,1/2-y,z
1/2+x,1/2+y,z
1/2-x,-y,z
1/2+x,1/2-y,-z
1/2-x,y,-z
1/2-x,1/2-y,-z
1/2+x,y,-z
1/2-x,1/2+y,z
1/2+x,-y,z
loop_
_atom_site_type_symbol
_atom_site_label
_atom_site_fract_x
_atom_site_fract_y
_atom_site_fract_z
Si Si1 0.203409 0.144124 0.109649
Si Si2 0.750000 0.500000 0.316902
Si Si3 0.062956 0.750000 0.741849
Si Si4 0.408005 0.057743 0.884604
Si Si5 0.930839 0.750000 0.446055
Si Si6 0.373937 0.556974 0.627104
O O1 0.189797 0.250000 0.151198
O O2 0.224122 0.082479 0.229297
O O3 0.149545 0.094394 0.051651
O O4 0.250000 0.146302 0.000000
O O5 0.694334 0.451052 0.378515
O O6 0.069774 0.844884 0.824923
O O7 0.091026 0.750000 0.598555
O O8 0.000000 0.750000 0.698345
O O9 0.394405 0.992745 0.760075
O O10 0.437436 0.000000 0.000000
O O11 0.902214 0.841482 0.382382
O O12 0.000000 0.750000 0.431028
O O13 0.394347 0.500000 0.500000
#
# Coordination Sequence:
#
# PCOD9501858 Si02
#       6
#    16   8   8  16   8  16
#     4  10  19  34  59  90 130 181 221 256 329 422
#     4  10  22  36  58  98 141 172 213 288 345 400
#     4  11  24  45  69  95 129 174 223 286 355 408
#     4  11  23  42  66  96 137 172 220 279 341 414
#     4  11  26  47  75 102 133 183 244 292 341 414
#     4  11  23  43  68 101 137 181 231 276 346 410
#
# _framework density 20.57809
#
# number of rings (size 3 to 8) (size 9 to 14) (size 15 to 20)
#    0.000    1.333    3.333    3.333    1.556    2.667 
#    0.000    2.222    0.000    0.000    0.000    0.000 
#    0.000    0.000    0.000    0.000    0.000    0.000 
#
# Total GULP energy -200527.690331 kJ/mol
# GULP energy per Si atom -5570.213620 kJ/mol
# Density = 2.053125 g / cm^3
# Si number density = 20.578090 Si / 1000 Ang^3
#
#
#
# Elastic Constant Matrix: (Units=GPa)
#
#
# Indices 1 2 3 4 5 6 
#
# 1 91.7173 56.1878 24.0546 0.0000 0.0000 0.0000
# 2 56.1878 192.2551 52.2745 0.0000 0.0000 0.0000
# 3 24.0546 52.2745 89.5019 0.0000 0.0000 0.0000
# 4 0.0000 0.0000 0.0000 7.3265 0.0000 0.0000
# 5 0.0000 0.0000 0.0000 0.0000 896.7943 0.0000
# 6 0.0000 0.0000 0.0000 0.0000 0.0000 479.4333
#
#
#
# Elastic Compliance Matrix: (Units=1/GPa)
#
#
# Indices 1 2 3 4 5 6 
#
# 1 0.013464 -0.003508 -0.001570 0.000000 0.000000 0.000000
# 2 -0.003508 0.007097 -0.003202 0.000000 0.000000 0.000000
# 3 -0.001570 -0.003202 0.013465 0.000000 0.000000 0.000000
# 4 0.000000 0.000000 0.000000 0.136490 0.000000 0.000000
# 5 0.000000 0.000000 0.000000 0.000000 0.001115 0.000000
# 6 0.000000 0.000000 0.000000 0.000000 0.000000 0.002086
#
#
# Mechanical properties :
#
#
# Convention : Reuss Voigt Hill
#
# Bulk Modulus (GPa) = 57.25367 70.94534 64.09950
# Shear Modulus (GPa) = 25.49717 292.77466 159.13591
#
# Velocity S-wave (km/s) = 3.52383 11.94085 8.80344
# Velocity P-wave (km/s) = 6.66630 14.98875 11.59962
#
# Compressibility (1/GPa) = 0.01746613
#
# Stress axis : x y z
#
# Youngs Moduli (GPa) = 74.27283 140.89547 74.26528
#
# Poissons Ratio (x) = 0.49428 0.11657
# Poissons Ratio (y) = 0.26056 0.23783
# Poissons Ratio (z) = 0.11658 0.45122
#
# Static dielectric constant tensor:
#      x y z
#    x 1.741180 0.000000 0.000000 
#    y 0.000000 1.739090 0.000000 
#    z 0.000000 0.000000 1.746560 
# 
# From -- ./inp_files/13359.got.cif
#   From: 2010.05.17/outbox.cif.g08.bks.cpg/sg67_7_cif.got.tgz:13359.got - 2010.06.03 18:28:57.
