data_PCOD9501265
_publ_section_title
;
Structure prediction by ZEFSAII (Michael W. Deem and Ramdas Pophale) SiO2 
 PCOD9501265
Probable space group: C M M A
;
_chemical_formula_sum "Si O2"
_cell_formula_units_Z 72
_cell_length_a 25.584152
_cell_length_b 8.419689
_cell_length_c 17.229991
_cell_angle_alpha 90.000000
_cell_angle_beta 90.000000
_cell_angle_gamma 90.000000
_cell_volume 3711.522754
_symmetry_space_group_name_H-M "C M M A"
_symmetry_group_IT_number 67
_symmetry_cell_setting 'orthorhombic'
loop_
_space_group_symop_operation_xyz
x,y,z
-x,1/2-y,z
x,-y,-z
-x,1/2+y,-z
-x,-y,-z
x,1/2+y,-z
-x,y,z
x,1/2-y,z
1/2+x,1/2+y,z
1/2-x,-y,z
1/2+x,1/2-y,-z
1/2-x,y,-z
1/2-x,1/2-y,-z
1/2+x,y,-z
1/2-x,1/2+y,z
1/2+x,-y,z
loop_
_atom_site_type_symbol
_atom_site_label
_atom_site_fract_x
_atom_site_fract_y
_atom_site_fract_z
Si Si1 0.441386 0.562753 0.381127
Si Si2 0.831672 0.065475 0.582036
Si Si3 0.000000 0.440403 0.912728
Si Si4 0.693886 0.436857 0.749783
Si Si5 0.416436 0.560907 0.786888
O O1 0.500000 0.521134 0.406583
O O2 0.431987 0.750000 0.395997
O O3 0.394522 0.459998 0.416030
O O4 0.437440 0.530618 0.288797
O O5 0.819040 0.250000 0.590938
O O6 0.812460 0.000000 0.500000
O O7 0.811480 0.972898 0.657492
O O8 0.050663 0.488184 0.862104
O O9 0.000000 0.250000 0.915395
O O10 0.000000 0.500000 0.000000
O O11 0.689437 0.250000 0.761989
O O12 0.750000 0.500000 0.775659
O O13 0.645004 0.523596 0.789836
O O14 0.423941 0.750000 0.774223
#
# Coordination Sequence:
#
# PCOD9501265 Si02
#       5
#    16  16   8  16  16
#     4  10  19  31  50  75 103 141 185 228 276 333
#     4  11  22  36  52  73 104 141 183 235 287 337
#     4  10  22  36  58  90 125 156 185 218 268 326
#     4  11  22  38  59  84 109 144 189 234 280 332
#     4  10  19  35  56  83 115 149 185 228 273 324
#
# _framework density 19.399045999999998
#
# number of rings (size 3 to 8) (size 9 to 14) (size 15 to 20)
#    0.000    1.556    1.111    8.000    0.000    4.000 
#    0.000    2.222    0.000    0.667    0.000    4.667 
#    0.000    0.000    0.000    0.000    0.000    0.000 
#
# Total GULP energy -201239.712325 kJ/mol
# GULP energy per Si atom -5589.992009 kJ/mol
# Density = 1.935489 g / cm^3
# Si number density = 19.399046 Si / 1000 Ang^3
#
#
#
# Elastic Constant Matrix: (Units=GPa)
#
#
# Indices 1 2 3 4 5 6 
#
# 1 116.7129 -3.0819 25.7482 0.0000 0.0000 0.0000
# 2 -3.0819 53.9901 -0.6440 0.0000 0.0000 0.0000
# 3 25.7482 -0.6440 101.1067 0.0000 0.0000 0.0000
# 4 0.0000 0.0000 0.0000 25.8339 0.0000 0.0000
# 5 0.0000 0.0000 0.0000 0.0000 50.6437 0.0000
# 6 0.0000 0.0000 0.0000 0.0000 0.0000 19.8020
#
#
#
# Elastic Compliance Matrix: (Units=1/GPa)
#
#
# Indices 1 2 3 4 5 6 
#
# 1 0.009091 0.000491 -0.002312 0.000000 0.000000 0.000000
# 2 0.000491 0.018550 -0.000007 0.000000 0.000000 0.000000
# 3 -0.002312 -0.000007 0.010479 0.000000 0.000000 0.000000
# 4 0.000000 0.000000 0.000000 0.038709 0.000000 0.000000
# 5 0.000000 0.000000 0.000000 0.000000 0.019746 0.000000
# 6 0.000000 0.000000 0.000000 0.000000 0.000000 0.050500
#
#
# Mechanical properties :
#
#
# Convention : Reuss Voigt Hill
#
# Bulk Modulus (GPa) = 29.01501 35.09493 32.05497
# Shear Modulus (GPa) = 30.82266 35.90842 33.36554
#
# Velocity S-wave (km/s) = 3.99039 4.30704 4.15174
# Velocity P-wave (km/s) = 6.01834 6.54710 6.28828
#
# Compressibility (1/GPa) = 0.03446492
#
# Stress axis : x y z
#
# Youngs Moduli (GPa) = 109.99806 53.90872 95.42636
#
# Poissons Ratio (x) = -0.02649 0.22063
# Poissons Ratio (y) = -0.05405 0.00067
# Poissons Ratio (z) = 0.25432 0.00038
#
# Static dielectric constant tensor:
#      x y z
#    x 1.730140 0.000000 0.000000 
#    y 0.000000 1.647760 0.000000 
#    z 0.000000 0.000000 1.659470 
# 
# From -- ./inp_files/25295.got.cif
#   From: 2010.05.17/outbox.cif.g08.bks.cpg/sg67_13_cif.got.tgz:25295.got - 2010.06.03 18:28:57.
