data_PCOD9501034
_publ_section_title
;
Structure prediction by ZEFSAII (Michael W. Deem and Ramdas Pophale) SiO2 
 PCOD9501034
Probable space group: C M M A
;
_chemical_formula_sum "Si O2"
_cell_formula_units_Z 128
_cell_length_a 24.071713
_cell_length_b 15.362970
_cell_length_c 17.722999
_cell_angle_alpha 90.000000
_cell_angle_beta 90.000000
_cell_angle_gamma 90.000000
_cell_volume 6554.195512
_symmetry_space_group_name_H-M "C M M A"
_symmetry_group_IT_number 67
_symmetry_cell_setting 'orthorhombic'
loop_
_space_group_symop_operation_xyz
x,y,z
-x,1/2-y,z
x,-y,-z
-x,1/2+y,-z
-x,-y,-z
x,1/2+y,-z
-x,y,z
x,1/2-y,z
1/2+x,1/2+y,z
1/2-x,-y,z
1/2+x,1/2-y,-z
1/2-x,y,-z
1/2-x,1/2-y,-z
1/2+x,y,-z
1/2-x,1/2+y,z
1/2+x,-y,z
loop_
_atom_site_type_symbol
_atom_site_label
_atom_site_fract_x
_atom_site_fract_y
_atom_site_fract_z
Si Si1 0.147120 0.648653 0.936035
Si Si2 0.150626 0.851057 0.691748
Si Si3 0.562983 0.396199 0.804383
Si Si4 0.673258 0.144332 0.281726
Si Si5 0.243091 0.143151 0.414009
Si Si6 0.438271 0.402674 0.215858
Si Si7 0.238077 0.647255 0.830877
Si Si8 0.938292 0.149627 0.949555
O O1 0.160287 0.750000 0.952880
O O2 0.101659 0.645597 0.868341
O O3 0.204180 0.609790 0.901894
O O4 0.113925 0.609493 0.006597
O O5 0.140851 0.750000 0.676018
O O6 0.093269 0.886151 0.723852
O O7 0.184840 0.888541 0.621700
O O8 0.194549 0.856236 0.761084
O O9 0.500000 0.362984 0.806193
O O10 0.562129 0.499350 0.815517
O O11 0.674061 0.250000 0.279721
O O12 0.707689 0.117790 0.356076
O O13 0.610624 0.112627 0.274655
O O14 0.706092 0.110681 0.206711
O O15 0.242236 0.250000 0.412709
O O16 0.250000 0.115592 0.500000
O O17 0.500000 0.383861 0.245814
O O18 0.428997 0.348517 0.139741
O O19 0.248437 0.750000 0.846344
O O20 0.941130 0.250000 0.975726
O O21 0.000000 0.110893 0.964019
#
# Coordination Sequence:
#
# PCOD9501034 Si02
#       8
#    16  16  16  16  16  16  16  16
#     4   9  16  28  46  67  91 116 146 188 235 282
#     4   8  14  26  45  69  96 120 142 174 216 266
#     4  10  19  29  43  64  90 122 157 190 226 267
#     4   9  16  29  50  70  89 118 152 183 222 273
#     4   8  14  27  51  81 103 115 136 179 230 273
#     4  10  21  33  43  60  89 123 160 200 231 257
#     4   7  12  24  42  65  89 111 140 178 219 265
#     4   9  17  29  45  64  86 116 156 199 237 271
#
# _framework density 19.529474
#
# number of rings (size 3 to 8) (size 9 to 14) (size 15 to 20)
#    0.000    3.250    0.000    3.375    0.000    2.750 
#    0.000    8.125    0.000    5.250    0.000   10.500 
#    0.000    0.000    0.000    0.000    0.000    0.000 
#
# Total GULP energy -356269.499156 kJ/mol
# GULP energy per Si atom -5566.710924 kJ/mol
# Density = 1.948502 g / cm^3
# Si number density = 19.529474 Si / 1000 Ang^3
#
#
#
# Elastic Constant Matrix: (Units=GPa)
#
#
# Indices 1 2 3 4 5 6 
#
# 1 76.1896 -5.3053 9.6167 0.0000 0.0000 0.0000
# 2 -5.3053 23.8484 -3.6318 0.0000 0.0000 0.0000
# 3 9.6167 -3.6318 29.3135 0.0000 0.0000 0.0000
# 4 0.0000 0.0000 0.0000 -14.3598 0.0000 0.0000
# 5 0.0000 0.0000 0.0000 0.0000 12.8145 0.0000
# 6 0.0000 0.0000 0.0000 0.0000 0.0000 220.0229
#
#
#
# Elastic Compliance Matrix: (Units=1/GPa)
#
#
# Indices 1 2 3 4 5 6 
#
# 1 0.013829 0.002431 -0.004236 0.000000 0.000000 0.000000
# 2 0.002431 0.043165 0.004550 0.000000 0.000000 0.000000
# 3 -0.004236 0.004550 0.036067 0.000000 0.000000 0.000000
# 4 0.000000 0.000000 0.000000 -0.069639 0.000000 0.000000
# 5 0.000000 0.000000 0.000000 0.000000 0.078036 0.000000
# 6 0.000000 0.000000 0.000000 0.000000 0.000000 0.004545
#
#
# Mechanical properties :
#
#
# Convention : Reuss Voigt Hill
#
# Bulk Modulus (GPa) = 10.14669 14.52338 12.33503
# Shear Modulus (GPa) = 37.49149 52.27364 44.88257
#
# Velocity S-wave (km/s) = 4.38624 5.17925 4.79915
# Velocity P-wave (km/s) = 5.55508 6.57411 6.08596
#
# Compressibility (1/GPa) = 0.09855432
#
# Stress axis : x y z
#
# Youngs Moduli (GPa) = 72.31142 23.16667 27.72594
#
# Poissons Ratio (x) = -0.05633 0.11743
# Poissons Ratio (y) = -0.17582 -0.12616
# Poissons Ratio (z) = 0.30628 -0.10542
#
# Static dielectric constant tensor:
#      x y z
#    x 1.729930 0.000000 0.000000 
#    y 0.000000 1.742650 0.000000 
#    z 0.000000 0.000000 1.692760 
# 
# From -- ./inp_files/35254.got.cif
#   From: 2010.05.17/outbox.cif.g08.bks.cpg/sg67_18_cif.got.tgz:35254.got - 2010.06.03 18:28:57.
