data_PCOD9501413
_publ_section_title
;
Structure prediction by ZEFSAII (Michael W. Deem and Ramdas Pophale) SiO2 
 PCOD9501413
Probable space group: C M M A
;
_chemical_formula_sum "Si O2"
_cell_formula_units_Z 96
_cell_length_a 8.567272
_cell_length_b 20.441312
_cell_length_c 31.137926
_cell_angle_alpha 90.000000
_cell_angle_beta 90.000000
_cell_angle_gamma 90.000000
_cell_volume 5453.069145
_symmetry_space_group_name_H-M "C M M A"
_symmetry_group_IT_number 67
_symmetry_cell_setting 'orthorhombic'
loop_
_space_group_symop_operation_xyz
x,y,z
-x,1/2-y,z
x,-y,-z
-x,1/2+y,-z
-x,-y,-z
x,1/2+y,-z
-x,y,z
x,1/2-y,z
1/2+x,1/2+y,z
1/2-x,-y,z
1/2+x,1/2-y,-z
1/2-x,y,-z
1/2-x,1/2-y,-z
1/2+x,y,-z
1/2-x,1/2+y,z
1/2+x,-y,z
loop_
_atom_site_type_symbol
_atom_site_label
_atom_site_fract_x
_atom_site_fract_y
_atom_site_fract_z
Si Si1 0.690073 0.675487 0.285991
Si Si2 0.311684 0.826035 0.384019
Si Si3 0.688348 0.825057 0.952929
Si Si4 0.812118 0.427256 0.880207
Si Si5 0.814518 0.927959 0.452694
Si Si6 0.312059 0.427315 0.785751
O O1 0.500000 0.675641 0.285700
O O2 0.740180 0.750000 0.276650
O O3 0.736484 0.658892 0.334840
O O4 0.741231 0.623894 0.250371
O O5 0.500000 0.831194 0.386228
O O6 0.271279 0.750000 0.392483
O O7 0.238506 0.875020 0.417988
O O8 0.500000 0.825788 0.954045
O O9 0.738388 0.750000 0.944215
O O10 0.738738 0.875292 0.916126
O O11 0.750000 0.843439 0.000000
O O12 0.750000 0.500000 0.890034
O O13 0.749342 0.409220 0.833039
O O14 0.000000 0.429113 0.878819
O O15 0.750000 0.911201 0.500000
O O16 0.000000 0.931269 0.454867
O O17 0.750000 0.000000 0.441566
O O18 0.500000 0.428786 0.786716
O O19 0.250000 0.500000 0.776241
#
# Coordination Sequence:
#
# PCOD9501413 Si02
#       6
#    16  16  16  16  16  16
#     4   8  16  32  53  76 102 133 169 208 249 295
#     4   9  18  35  57  79 106 139 173 211 257 306
#     4   9  19  35  53  73  98 128 162 201 245 293
#     4  10  20  34  51  72 100 131 164 203 247 294
#     4  11  22  37  56  78 106 137 174 216 259 308
#     4  10  19  32  51  74 101 132 168 207 247 294
#
# _framework density 17.604765
#
# number of rings (size 3 to 8) (size 9 to 14) (size 15 to 20)
#    0.000    2.500    0.000    5.000    0.000    3.667 
#    0.000    5.000    0.000    3.500    0.000    0.000 
#    0.000    0.000    0.000    0.000    0.000    0.000 
#
# Total GULP energy -267795.154561 kJ/mol
# GULP energy per Si atom -5579.065720 kJ/mol
# Density = 1.756470 g / cm^3
# Si number density = 17.604765 Si / 1000 Ang^3
#
#
#
# Elastic Constant Matrix: (Units=GPa)
#
#
# Indices 1 2 3 4 5 6 
#
# 1 54.9021 45.0748 48.5300 0.0000 0.0000 0.0000
# 2 45.0748 135.7083 145.5367 0.0000 0.0000 0.0000
# 3 48.5300 145.5367 176.1545 0.0000 0.0000 0.0000
# 4 0.0000 0.0000 0.0000 44.5119 0.0000 0.0000
# 5 0.0000 0.0000 0.0000 0.0000 20.5428 0.0000
# 6 0.0000 0.0000 0.0000 0.0000 0.0000 20.1202
#
#
#
# Elastic Compliance Matrix: (Units=1/GPa)
#
#
# Indices 1 2 3 4 5 6 
#
# 1 0.025045 -0.008063 -0.000238 0.000000 0.000000 0.000000
# 2 -0.008063 0.067247 -0.053337 0.000000 0.000000 0.000000
# 3 -0.000238 -0.053337 0.049809 0.000000 0.000000 0.000000
# 4 0.000000 0.000000 0.000000 0.022466 0.000000 0.000000
# 5 0.000000 0.000000 0.000000 0.000000 0.048679 0.000000
# 6 0.000000 0.000000 0.000000 0.000000 0.000000 0.049701
#
#
# Mechanical properties :
#
#
# Convention : Reuss Voigt Hill
#
# Bulk Modulus (GPa) = 53.12474 93.89419 73.50946
# Shear Modulus (GPa) = 12.73893 25.54320 19.14106
#
# Velocity S-wave (km/s) = 2.69291 3.81323 3.30095
# Velocity P-wave (km/s) = 6.31751 8.53452 7.50829
#
# Compressibility (1/GPa) = 0.01882362
#
# Stress axis : x y z
#
# Youngs Moduli (GPa) = 39.92890 14.87056 20.07674
#
# Poissons Ratio (x) = 0.11991 0.00478
# Poissons Ratio (y) = 0.32196 1.07084
# Poissons Ratio (z) = 0.00950 0.79315
#
# Static dielectric constant tensor:
#      x y z
#    x 1.597590 0.000000 0.000000 
#    y 0.000000 1.584820 0.000000 
#    z 0.000000 0.000000 1.580720 
# 
# From -- ./inp_files/43447.got.cif
#   From: 2010.05.17/outbox.cif.g08.bks.cpg/sg67_22_cif.got.tgz:43447.got - 2010.06.03 18:28:57.
