data_PCOD9501643
_publ_section_title
;
Structure prediction by ZEFSAII (Michael W. Deem and Ramdas Pophale) SiO2 
 PCOD9501643
Probable space group: C M M A
;
_chemical_formula_sum "Si O2"
_cell_formula_units_Z 80
_cell_length_a 8.592189
_cell_length_b 19.522587
_cell_length_c 26.200534
_cell_angle_alpha 90.000000
_cell_angle_beta 90.000000
_cell_angle_gamma 90.000000
_cell_volume 4394.923615
_symmetry_space_group_name_H-M "C M M A"
_symmetry_group_IT_number 67
_symmetry_cell_setting 'orthorhombic'
loop_
_space_group_symop_operation_xyz
x,y,z
-x,1/2-y,z
x,-y,-z
-x,1/2+y,-z
-x,-y,-z
x,1/2+y,-z
-x,y,z
x,1/2-y,z
1/2+x,1/2+y,z
1/2-x,-y,z
1/2+x,1/2-y,-z
1/2-x,y,-z
1/2-x,1/2-y,-z
1/2+x,y,-z
1/2-x,1/2+y,z
1/2+x,-y,z
loop_
_atom_site_type_symbol
_atom_site_label
_atom_site_fract_x
_atom_site_fract_y
_atom_site_fract_z
Si Si1 0.187200 0.923498 0.243611
Si Si2 0.814528 0.923711 0.645443
Si Si3 0.810269 0.671521 0.149545
Si Si4 0.312792 0.424236 0.056198
Si Si5 0.686123 0.669474 0.555333
O O1 0.248366 0.902326 0.299294
O O2 0.237307 0.871322 0.199418
O O3 0.000000 0.926184 0.244854
O O4 0.250000 0.000000 0.233217
O O5 0.759167 0.873971 0.600770
O O6 0.000000 0.926228 0.647954
O O7 0.750000 0.000000 0.635687
O O8 0.756392 0.750000 0.150043
O O9 0.763206 0.630104 0.098950
O O10 0.000000 0.672632 0.149673
O O11 0.500000 0.426941 0.054628
O O12 0.250000 0.500000 0.069134
O O13 0.250000 0.406752 0.000000
O O14 0.500000 0.662262 0.556037
O O15 0.724654 0.750000 0.561572
O O16 0.750000 0.647676 0.500000
#
# Coordination Sequence:
#
# PCOD9501643 Si02
#       5
#    16  16  16  16  16
#     4  10  19  34  56  78 103 137 176 218 265 317
#     4  11  22  37  57  82 112 143 181 226 272 320
#     4   9  19  34  52  76 105 137 173 214 262 314
#     4  10  19  33  54  77 103 135 173 215 258 309
#     4  10  21  38  59  83 112 146 183 222 268 322
#
# _framework density 18.202819999999999
#
# number of rings (size 3 to 8) (size 9 to 14) (size 15 to 20)
#    0.000    2.000    0.000    6.000    0.000    2.800 
#    0.000    7.000    0.000    8.400    0.000    0.000 
#    0.000    0.000    0.000    0.000    0.000    0.000 
#
# Total GULP energy -223407.970584 kJ/mol
# GULP energy per Si atom -5585.199265 kJ/mol
# Density = 1.816139 g / cm^3
# Si number density = 18.202820 Si / 1000 Ang^3
#
#
#
# Elastic Constant Matrix: (Units=GPa)
#
#
# Indices 1 2 3 4 5 6 
#
# 1 75.7536 45.2091 54.5998 0.0000 0.0000 0.0000
# 2 45.2091 124.4336 134.4528 0.0000 0.0000 0.0000
# 3 54.5998 134.4528 184.8030 0.0000 0.0000 0.0000
# 4 0.0000 0.0000 0.0000 76.9558 0.0000 0.0000
# 5 0.0000 0.0000 0.0000 0.0000 18.1229 0.0000
# 6 0.0000 0.0000 0.0000 0.0000 0.0000 22.0290
#
#
#
# Elastic Compliance Matrix: (Units=1/GPa)
#
#
# Indices 1 2 3 4 5 6 
#
# 1 0.017096 -0.003524 -0.002487 0.000000 0.000000 0.000000
# 2 -0.003524 0.038302 -0.026825 0.000000 0.000000 0.000000
# 3 -0.002487 -0.026825 0.025663 0.000000 0.000000 0.000000
# 4 0.000000 0.000000 0.000000 0.012994 0.000000 0.000000
# 5 0.000000 0.000000 0.000000 0.000000 0.055179 0.000000
# 6 0.000000 0.000000 0.000000 0.000000 0.000000 0.045395
#
#
# Mechanical properties :
#
#
# Convention : Reuss Voigt Hill
#
# Bulk Modulus (GPa) = 64.98530 94.83484 79.91007
# Shear Modulus (GPa) = 18.83726 33.47011 26.15369
#
# Velocity S-wave (km/s) = 3.22040 4.29270 3.79462
# Velocity P-wave (km/s) = 7.04317 8.76252 7.94946
#
# Compressibility (1/GPa) = 0.01538810
#
# Stress axis : x y z
#
# Youngs Moduli (GPa) = 58.49155 26.10837 38.96701
#
# Poissons Ratio (x) = 0.09200 0.09693
# Poissons Ratio (y) = 0.20611 1.04530
# Poissons Ratio (z) = 0.14549 0.70037
#
# Static dielectric constant tensor:
#      x y z
#    x 1.618250 0.000000 0.000000 
#    y 0.000000 1.603060 0.000000 
#    z 0.000000 0.000000 1.606870 
# 
# From -- ./inp_files/43331.got.cif
#   From: 2010.05.17/outbox.cif.g08.bks.cpg/sg67_22_cif.got.tgz:43331.got - 2010.06.03 18:28:57.
