data_PCOD9501256
_publ_section_title
;
Structure prediction by ZEFSAII (Michael W. Deem and Ramdas Pophale) SiO2 
 PCOD9501256
Probable space group: C M M A
;
_chemical_formula_sum "Si O2"
_cell_formula_units_Z 96
_cell_length_a 9.991420
_cell_length_b 27.212808
_cell_length_c 22.662019
_cell_angle_alpha 90.000000
_cell_angle_beta 90.000000
_cell_angle_gamma 90.000000
_cell_volume 6161.680458
_symmetry_space_group_name_H-M "C M M A"
_symmetry_group_IT_number 67
_symmetry_cell_setting 'orthorhombic'
loop_
_space_group_symop_operation_xyz
x,y,z
-x,1/2-y,z
x,-y,-z
-x,1/2+y,-z
-x,-y,-z
x,1/2+y,-z
-x,y,z
x,1/2-y,z
1/2+x,1/2+y,z
1/2-x,-y,z
1/2+x,1/2-y,-z
1/2-x,y,-z
1/2-x,1/2-y,-z
1/2+x,y,-z
1/2-x,1/2+y,z
1/2+x,-y,z
loop_
_atom_site_type_symbol
_atom_site_label
_atom_site_fract_x
_atom_site_fract_y
_atom_site_fract_z
Si Si1 0.338274 0.693236 0.196792
Si Si2 0.266352 0.403245 0.863669
Si Si3 0.342709 0.453096 0.740169
Si Si4 0.161494 0.147434 0.320477
Si Si5 0.000000 0.448977 0.916974
Si Si6 0.500000 0.435366 0.943893
Si Si7 0.342424 0.690968 0.444611
O O1 0.500000 0.684516 0.191617
O O2 0.312575 0.750000 0.183011
O O3 0.264183 0.653579 0.156058
O O4 0.299936 0.681231 0.264684
O O5 0.321574 0.431930 0.806161
O O6 0.370153 0.410128 0.916594
O O7 0.128661 0.427661 0.883747
O O8 0.500000 0.464315 0.732621
O O9 0.250000 0.500000 0.731627
O O10 0.303804 0.408317 0.696763
O O11 0.206790 0.165958 0.384069
O O12 0.000000 0.149824 0.322335
O O13 0.000000 0.508169 0.920828
O O14 0.000000 0.433710 0.985680
O O15 0.500000 0.678875 0.454415
O O16 0.335294 0.750000 0.436943
O O17 0.250000 0.677461 0.500000
#
# Coordination Sequence:
#
# PCOD9501256 Si02
#       7
#    16  16  16  16   8   8  16
#     4   9  16  30  54  76  96 127 167 207 242 285
#     4  11  20  34  51  76  99 126 163 202 245 294
#     4  10  19  31  50  72  98 126 158 202 245 290
#     4   8  15  28  46  73  98 123 163 202 236 281
#     4  11  24  32  53  73 101 133 157 196 250 296
#     4  11  20  38  51  73  99 129 165 198 238 296
#     4   9  16  27  46  70  97 127 158 195 239 284
#
# _framework density 15.580166
#
# number of rings (size 3 to 8) (size 9 to 14) (size 15 to 20)
#    0.000    2.333    1.667    3.500    1.167    3.333 
#    0.000    1.250    1.833    3.500    0.000    3.500 
#    0.000    0.000    0.000    0.000    0.000    0.000 
#
# Total GULP energy -267555.223562 kJ/mol
# GULP energy per Si atom -5574.067158 kJ/mol
# Density = 1.554470 g / cm^3
# Si number density = 15.580166 Si / 1000 Ang^3
#
#
#
# Elastic Constant Matrix: (Units=GPa)
#
#
# Indices 1 2 3 4 5 6 
#
# 1 54.2102 27.9462 23.0680 0.0000 0.0000 0.0000
# 2 27.9462 89.1123 45.6984 0.0000 0.0000 0.0000
# 3 23.0680 45.6984 93.3166 0.0000 0.0000 0.0000
# 4 0.0000 0.0000 0.0000 25.3958 0.0000 0.0000
# 5 0.0000 0.0000 0.0000 0.0000 29.0804 0.0000
# 6 0.0000 0.0000 0.0000 0.0000 0.0000 13.5700
#
#
#
# Elastic Compliance Matrix: (Units=1/GPa)
#
#
# Indices 1 2 3 4 5 6 
#
# 1 0.022546 -0.005625 -0.002819 0.000000 0.000000 0.000000
# 2 -0.005625 0.016388 -0.006635 0.000000 0.000000 0.000000
# 3 -0.002819 -0.006635 0.014662 0.000000 0.000000 0.000000
# 4 0.000000 0.000000 0.000000 0.039377 0.000000 0.000000
# 5 0.000000 0.000000 0.000000 0.000000 0.034387 0.000000
# 6 0.000000 0.000000 0.000000 0.000000 0.000000 0.073692
#
#
# Mechanical properties :
#
#
# Convention : Reuss Voigt Hill
#
# Bulk Modulus (GPa) = 42.66408 47.78489 45.22449
# Shear Modulus (GPa) = 20.91847 22.93769 21.92808
#
# Velocity S-wave (km/s) = 3.66817 3.84114 3.75565
# Velocity P-wave (km/s) = 6.73674 7.09995 6.92073
#
# Compressibility (1/GPa) = 0.02343892
#
# Stress axis : x y z
#
# Youngs Moduli (GPa) = 44.35382 61.01857 68.20211
#
# Poissons Ratio (x) = 0.34323 0.19224
# Poissons Ratio (y) = 0.24949 0.45253
# Poissons Ratio (z) = 0.12502 0.40487
#
# Static dielectric constant tensor:
#      x y z
#    x 1.580510 0.000000 0.000000 
#    y 0.000000 1.519200 0.000000 
#    z 0.000000 0.000000 1.514600 
# 
# From -- ./inp_files/38002.got.cif
#   From: 2010.05.17/outbox.cif.g08.bks.cpg/sg67_20_cif.got.tgz:38002.got - 2010.06.03 18:28:57.
