data_PCOD9501871
_publ_section_title
;
Structure prediction by ZEFSAII (Michael W. Deem and Ramdas Pophale) SiO2 
 PCOD9501871
Probable space group: C M M A
;
_chemical_formula_sum "Si O2"
_cell_formula_units_Z 88
_cell_length_a 14.157661
_cell_length_b 15.141820
_cell_length_c 20.100436
_cell_angle_alpha 90.000000
_cell_angle_beta 90.000000
_cell_angle_gamma 90.000000
_cell_volume 4308.985832
_symmetry_space_group_name_H-M "C M M A"
_symmetry_group_IT_number 67
_symmetry_cell_setting 'orthorhombic'
loop_
_space_group_symop_operation_xyz
x,y,z
-x,1/2-y,z
x,-y,-z
-x,1/2+y,-z
-x,-y,-z
x,1/2+y,-z
-x,y,z
x,1/2-y,z
1/2+x,1/2+y,z
1/2-x,-y,z
1/2+x,1/2-y,-z
1/2-x,y,-z
1/2-x,1/2-y,-z
1/2+x,y,-z
1/2-x,1/2+y,z
1/2+x,-y,z
loop_
_atom_site_type_symbol
_atom_site_label
_atom_site_fract_x
_atom_site_fract_y
_atom_site_fract_z
Si Si1 0.737697 0.148946 0.871502
Si Si2 0.292011 0.402474 0.268373
Si Si3 0.389857 0.992817 0.920490
Si Si4 0.500000 0.655303 0.259017
Si Si5 0.158120 0.846431 0.626761
Si Si6 0.500000 0.964588 0.426282
Si Si7 0.500000 0.958178 0.722066
O O1 0.732154 0.250000 0.897071
O O2 0.749496 0.152814 0.792002
O O3 0.826840 0.090286 0.896703
O O4 0.650448 0.084453 0.889863
O O5 0.250000 0.500000 0.258240
O O6 0.256915 0.374818 0.341443
O O7 0.404148 0.407599 0.262605
O O8 0.500000 0.979939 0.905739
O O9 0.378253 0.000000 0.000000
O O10 0.500000 0.750000 0.220325
O O11 0.590189 0.658155 0.308050
O O12 0.500000 0.552478 0.238176
O O13 0.165153 0.750000 0.596481
O O14 0.097676 0.909765 0.580617
O O15 0.500000 0.000000 0.500000
O O16 0.500000 0.021576 0.357726
#
# Coordination Sequence:
#
# PCOD9501871 Si02
#       7
#    16  16  16   8  16   8   8
#     4  11  24  40  64  95 128 170 222 269 319 391
#     4  12  20  37  61  89 129 168 204 260 324 384
#     4  10  23  43  66  92 130 172 213 272 334 382
#     4   8  14  26  50  80 106 139 193 245 292 351
#     4   9  18  35  57  85 119 155 197 249 307 366
#     4  10  19  34  63  96 115 152 207 258 311 370
#     4  10  22  36  56  88 125 165 203 255 321 381
#
# _framework density 20.422439000000001
#
# number of rings (size 3 to 8) (size 9 to 14) (size 15 to 20)
#    0.000    2.000    5.455    2.455    1.273    2.182 
#    3.273    5.000    0.000    5.455    0.000    0.000 
#    0.000    0.000    0.000    0.000    0.000    0.000 
#
# Total GULP energy -245280.183452 kJ/mol
# GULP energy per Si atom -5574.549624 kJ/mol
# Density = 2.037596 g / cm^3
# Si number density = 20.422439 Si / 1000 Ang^3
#
#
#
# Elastic Constant Matrix: (Units=GPa)
#
#
# Indices 1 2 3 4 5 6 
#
# 1 124.4934 22.2341 16.2320 0.0000 0.0000 0.0000
# 2 22.2341 93.7021 28.4148 0.0000 0.0000 0.0000
# 3 16.2320 28.4148 88.1407 0.0000 0.0000 0.0000
# 4 0.0000 0.0000 0.0000 10.9778 0.0000 0.0000
# 5 0.0000 0.0000 0.0000 0.0000 -81.9379 0.0000
# 6 0.0000 0.0000 0.0000 0.0000 0.0000 8.2071
#
#
#
# Elastic Compliance Matrix: (Units=1/GPa)
#
#
# Indices 1 2 3 4 5 6 
#
# 1 0.008468 -0.001703 -0.001011 0.000000 0.000000 0.000000
# 2 -0.001703 0.012171 -0.003610 0.000000 0.000000 0.000000
# 3 -0.001011 -0.003610 0.012695 0.000000 0.000000 0.000000
# 4 0.000000 0.000000 0.000000 0.091093 0.000000 0.000000
# 5 0.000000 0.000000 0.000000 0.000000 -0.012204 0.000000
# 6 0.000000 0.000000 0.000000 0.000000 0.000000 0.121845
#
#
# Mechanical properties :
#
#
# Convention : Reuss Voigt Hill
#
# Bulk Modulus (GPa) = 48.33803 48.89978 48.61891
# Shear Modulus (GPa) = 19.71513 3.41307 11.56410
#
# Velocity S-wave (km/s) = 3.11041 1.29417 2.38217
# Velocity P-wave (km/s) = 6.05144 5.12145 5.60577
#
# Compressibility (1/GPa) = 0.02068765
#
# Stress axis : x y z
#
# Youngs Moduli (GPa) = 118.08522 82.16283 78.76866
#
# Poissons Ratio (x) = 0.13992 0.07960
# Poissons Ratio (y) = 0.20110 0.28436
# Poissons Ratio (z) = 0.11933 0.29661
#
# Static dielectric constant tensor:
#      x y z
#    x 1.768960 0.000000 0.000000 
#    y 0.000000 1.802440 0.000000 
#    z 0.000000 0.000000 1.745810 
# 
# From -- ./inp_files/38338.got.cif
#   From: 2010.05.17/outbox.cif.g08.bks.cpg/sg67_20_cif.got.tgz:38338.got - 2010.06.03 18:28:57.
