data_PCOD9501271
_publ_section_title
;
Structure prediction by ZEFSAII (Michael W. Deem and Ramdas Pophale) SiO2 
 PCOD9501271
Probable space group: C M M A
;
_chemical_formula_sum "Si O2"
_cell_formula_units_Z 96
_cell_length_a 8.497807
_cell_length_b 32.950518
_cell_length_c 19.311440
_cell_angle_alpha 90.000000
_cell_angle_beta 90.000000
_cell_angle_gamma 90.000000
_cell_volume 5407.341132
_symmetry_space_group_name_H-M "C M M A"
_symmetry_group_IT_number 67
_symmetry_cell_setting 'orthorhombic'
loop_
_space_group_symop_operation_xyz
x,y,z
-x,1/2-y,z
x,-y,-z
-x,1/2+y,-z
-x,-y,-z
x,1/2+y,-z
-x,y,z
x,1/2-y,z
1/2+x,1/2+y,z
1/2-x,-y,z
1/2+x,1/2-y,-z
1/2-x,y,-z
1/2-x,1/2-y,-z
1/2+x,y,-z
1/2-x,1/2+y,z
1/2+x,-y,z
loop_
_atom_site_type_symbol
_atom_site_label
_atom_site_fract_x
_atom_site_fract_y
_atom_site_fract_z
Si Si1 0.313397 0.456601 0.077970
Si Si2 0.311509 0.882723 0.168348
Si Si3 0.688783 0.543768 0.578017
Si Si4 0.810648 0.206569 0.669453
Si Si5 0.309803 0.706253 0.172441
Si Si6 0.308913 0.881857 0.674235
O O1 0.500000 0.458692 0.075499
O O2 0.250000 0.500000 0.104340
O O3 0.260337 0.419084 0.124571
O O4 0.250000 0.451371 0.000000
O O5 0.500000 0.885427 0.165060
O O6 0.262993 0.837452 0.141897
O O7 0.257806 0.885633 0.248281
O O8 0.500000 0.542782 0.576554
O O9 0.750000 0.500000 0.602721
O O10 0.750000 0.549560 0.500000
O O11 0.740662 0.580637 0.626823
O O12 0.752872 0.250000 0.639824
O O13 0.760204 0.206530 0.750044
O O14 0.758925 0.162206 0.643595
O O15 0.000000 0.207073 0.665308
O O16 0.500000 0.705734 0.177599
O O17 0.264732 0.750000 0.140032
O O18 0.500000 0.882152 0.678654
#
# Coordination Sequence:
#
# PCOD9501271 Si02
#       6
#    16  16  16  16  16  16
#     4  11  22  38  57  75  98 128 164 202 242 292
#     4  10  19  31  50  77 105 132 163 200 243 286
#     4  10  20  34  51  68  90 121 158 197 238 288
#     4   8  13  23  41  64  90 120 154 191 232 279
#     4   8  14  25  42  66  97 130 161 194 233 278
#     4   9  18  31  47  71  99 126 158 199 243 283
#
# _framework density 17.753643
#
# number of rings (size 3 to 8) (size 9 to 14) (size 15 to 20)
#    0.000    2.667    0.000    3.500    0.000    2.667 
#    0.000    1.667    0.000    1.000    0.000    0.000 
#    0.000    0.000    0.000    0.000    0.000    0.667 
#
# Total GULP energy -267230.858408 kJ/mol
# GULP energy per Si atom -5567.309550 kJ/mol
# Density = 1.771323 g / cm^3
# Si number density = 17.753643 Si / 1000 Ang^3
#
#
#
# Elastic Constant Matrix: (Units=GPa)
#
#
# Indices 1 2 3 4 5 6 
#
# 1 46.9622 48.2500 15.9734 0.0000 0.0000 0.0000
# 2 48.2500 238.9672 67.6145 0.0000 0.0000 0.0000
# 3 15.9734 67.6145 32.6023 0.0000 0.0000 0.0000
# 4 0.0000 0.0000 0.0000 22.7193 0.0000 0.0000
# 5 0.0000 0.0000 0.0000 0.0000 15.7373 0.0000
# 6 0.0000 0.0000 0.0000 0.0000 0.0000 26.0017
#
#
#
# Elastic Compliance Matrix: (Units=1/GPa)
#
#
# Indices 1 2 3 4 5 6 
#
# 1 0.027159 -0.004160 -0.004680 0.000000 0.000000 0.000000
# 2 -0.004160 0.010765 -0.020287 0.000000 0.000000 0.000000
# 3 -0.004680 -0.020287 0.075039 0.000000 0.000000 0.000000
# 4 0.000000 0.000000 0.000000 0.044015 0.000000 0.000000
# 5 0.000000 0.000000 0.000000 0.000000 0.063543 0.000000
# 6 0.000000 0.000000 0.000000 0.000000 0.000000 0.038459
#
#
# Mechanical properties :
#
#
# Convention : Reuss Voigt Hill
#
# Bulk Modulus (GPa) = 18.27819 64.68972 41.48396
# Shear Modulus (GPa) = 14.90443 25.33791 20.12117
#
# Velocity S-wave (km/s) = 2.90058 3.78192 3.37019
# Velocity P-wave (km/s) = 4.64065 7.45568 6.20978
#
# Compressibility (1/GPa) = 0.05471000
#
# Stress axis : x y z
#
# Youngs Moduli (GPa) = 36.82003 92.89661 13.32633
#
# Poissons Ratio (x) = 0.38641 0.06237
# Poissons Ratio (y) = 0.15315 0.27035
# Poissons Ratio (z) = 0.17232 1.88460
#
# Static dielectric constant tensor:
#      x y z
#    x 1.611300 0.000000 0.000000 
#    y 0.000000 1.686460 0.000000 
#    z 0.000000 0.000000 1.559230 
# 
# From -- ./inp_files/40916.got.cif
#   From: 2010.05.17/outbox.cif.g08.bks.cpg/sg67_21_cif.got.tgz:40916.got - 2010.06.03 18:28:57.
