data_PCOD9501230
_publ_section_title
;
Structure prediction by ZEFSAII (Michael W. Deem and Ramdas Pophale) SiO2 
 PCOD9501230
Probable space group: C M M A
;
_chemical_formula_sum "Si O2"
_cell_formula_units_Z 100
_cell_length_a 21.453840
_cell_length_b 7.640632
_cell_length_c 30.287152
_cell_angle_alpha 90.000000
_cell_angle_beta 90.000000
_cell_angle_gamma 90.000000
_cell_volume 4964.697106
_symmetry_space_group_name_H-M "C M M A"
_symmetry_group_IT_number 67
_symmetry_cell_setting 'orthorhombic'
loop_
_space_group_symop_operation_xyz
x,y,z
-x,1/2-y,z
x,-y,-z
-x,1/2+y,-z
-x,-y,-z
x,1/2+y,-z
-x,y,z
x,1/2-y,z
1/2+x,1/2+y,z
1/2-x,-y,z
1/2+x,1/2-y,-z
1/2-x,y,-z
1/2-x,1/2-y,-z
1/2+x,y,-z
1/2-x,1/2+y,z
1/2+x,-y,z
loop_
_atom_site_type_symbol
_atom_site_label
_atom_site_fract_x
_atom_site_fract_y
_atom_site_fract_z
Si Si1 0.320973 0.543560 0.448462
Si Si2 0.930162 0.036113 0.385918
Si Si3 0.100902 0.046201 0.855208
Si Si4 0.000000 0.250000 0.168209
Si Si5 0.569802 0.536313 0.283548
Si Si6 0.071086 0.041911 0.951853
Si Si7 0.319627 0.541691 0.220550
O O1 0.329405 0.500000 0.500000
O O2 0.326091 0.750000 0.444968
O O3 0.250000 0.500000 0.435601
O O4 0.375134 0.469152 0.417283
O O5 0.929735 0.250000 0.386540
O O6 0.921409 0.986323 0.334715
O O7 0.000000 0.982004 0.399790
O O8 0.079281 0.250000 0.853534
O O9 0.105223 0.992142 0.906790
O O10 0.164079 0.033634 0.827453
O O11 0.053911 0.905611 0.833952
O O12 0.500000 0.481080 0.269487
O O13 0.569282 0.750000 0.281688
O O14 0.626422 0.474373 0.253474
O O15 0.066078 0.250000 0.950879
O O16 0.000000 0.967928 0.949487
O O17 0.097737 0.000000 0.000000
O O18 0.324804 0.750000 0.218681
O O19 0.250000 0.500000 0.235289
#
# Coordination Sequence:
#
# PCOD9501230 Si02
#       7
#    16  16  16   4  16  16  16
#     4  10  19  31  49  72 101 138 181 224 271 321
#     4   8  15  30  50  76 106 137 176 225 274 330
#     4  11  23  38  57  88 122 153 196 243 287 349
#     4  12  22  36  62  90 118 158 196 234 302 348
#     4   8  16  31  55  82 108 140 185 229 276 340
#     4   9  18  29  48  78 115 150 185 233 288 337
#     4  11  23  38  59  83 114 153 192 236 289 345
#
# _framework density 20.142216000000001
#
# number of rings (size 3 to 8) (size 9 to 14) (size 15 to 20)
#    0.000    2.400    1.600    2.640    2.240    0.960 
#    0.000    0.000    0.000    4.800    0.000   12.320 
#    0.000    0.000    0.000    0.000    0.000    0.000 
#
# Total GULP energy -278349.074915 kJ/mol
# GULP energy per Si atom -5566.981498 kJ/mol
# Density = 2.009637 g / cm^3
# Si number density = 20.142216 Si / 1000 Ang^3
#
#
#
# Elastic Constant Matrix: (Units=GPa)
#
#
# Indices 1 2 3 4 5 6 
#
# 1 156.3431 13.0540 102.7675 0.0000 0.0000 0.0000
# 2 13.0540 75.9794 4.5923 0.0000 0.0000 0.0000
# 3 102.7675 4.5923 118.2426 0.0000 0.0000 0.0000
# 4 0.0000 0.0000 0.0000 4.8438 0.0000 0.0000
# 5 0.0000 0.0000 0.0000 0.0000 19.8252 0.0000
# 6 0.0000 0.0000 0.0000 0.0000 0.0000 19.2157
#
#
#
# Elastic Compliance Matrix: (Units=1/GPa)
#
#
# Indices 1 2 3 4 5 6 
#
# 1 0.015165 -0.001813 -0.013110 0.000000 0.000000 0.000000
# 2 -0.001813 0.013409 0.001055 0.000000 0.000000 0.000000
# 3 -0.013110 0.001055 0.019810 0.000000 0.000000 0.000000
# 4 0.000000 0.000000 0.000000 0.206449 0.000000 0.000000
# 5 0.000000 0.000000 0.000000 0.000000 0.050441 0.000000
# 6 0.000000 0.000000 0.000000 0.000000 0.000000 0.052041
#
#
# Mechanical properties :
#
#
# Convention : Reuss Voigt Hill
#
# Bulk Modulus (GPa) = 48.42930 65.71030 57.06980
# Shear Modulus (GPa) = 12.75726 24.12036 18.43881
#
# Velocity S-wave (km/s) = 2.51939 3.46425 3.02889
# Velocity P-wave (km/s) = 5.70605 6.97821 6.37395
#
# Compressibility (1/GPa) = 0.02064866
#
# Stress axis : x y z
#
# Youngs Moduli (GPa) = 65.94179 74.57560 50.47898
#
# Poissons Ratio (x) = 0.13521 0.66177
# Poissons Ratio (y) = 0.11956 -0.05326
# Poissons Ratio (z) = 0.86448 -0.07868
#
# Static dielectric constant tensor:
#      x y z
#    x 1.730020 0.000000 0.000000 
#    y 0.000000 1.744230 0.000000 
#    z 0.000000 0.000000 1.767380 
# 
# From -- ./inp_files/45893.got.cif
#   From: 2010.05.17/outbox.cif.g08.bks.cpg/sg67_23_cif.got.tgz:45893.got - 2010.06.03 18:28:57.
