data_PCOD9501111
_publ_section_title
;
Structure prediction by ZEFSAII (Michael W. Deem and Ramdas Pophale) SiO2 
 PCOD9501111
Probable space group: C M M A
;
_chemical_formula_sum "Si O2"
_cell_formula_units_Z 96
_cell_length_a 14.965284
_cell_length_b 31.842528
_cell_length_c 9.500906
_cell_angle_alpha 90.000000
_cell_angle_beta 90.000000
_cell_angle_gamma 90.000000
_cell_volume 4527.490249
_symmetry_space_group_name_H-M "C M M A"
_symmetry_group_IT_number 67
_symmetry_cell_setting 'orthorhombic'
loop_
_space_group_symop_operation_xyz
x,y,z
-x,1/2-y,z
x,-y,-z
-x,1/2+y,-z
-x,-y,-z
x,1/2+y,-z
-x,y,z
x,1/2-y,z
1/2+x,1/2+y,z
1/2-x,-y,z
1/2+x,1/2-y,-z
1/2-x,y,-z
1/2-x,1/2-y,-z
1/2+x,y,-z
1/2-x,1/2+y,z
1/2+x,-y,z
loop_
_atom_site_type_symbol
_atom_site_label
_atom_site_fract_x
_atom_site_fract_y
_atom_site_fract_z
Si Si1 0.658235 0.201827 0.086933
Si Si2 0.609006 0.456231 0.814637
Si Si3 0.891417 0.368265 0.695317
Si Si4 0.609660 0.122123 0.628737
Si Si5 0.391237 0.549440 0.861279
Si Si6 0.399568 0.703257 0.211310
O O1 0.649305 0.250000 0.133642
O O2 0.644349 0.170649 0.214718
O O3 0.750000 0.196676 0.000000
O O4 0.593104 0.194681 0.954965
O O5 0.500000 0.455934 0.810770
O O6 0.639256 0.420928 0.704707
O O7 0.637189 0.504726 0.796439
O O8 0.635723 0.446096 0.975571
O O9 0.864494 0.371881 0.532978
O O10 0.862512 0.410728 0.773186
O O11 0.000000 0.365850 0.699170
O O12 0.500000 0.121161 0.634174
O O13 0.642257 0.163062 0.714061
O O14 0.500000 0.548805 0.861864
O O15 0.500000 0.706189 0.269199
O O16 0.357952 0.750000 0.228778
#
# Coordination Sequence:
#
# PCOD9501111 Si02
#       6
#    16  16  16  16  16  16
#     4  10  21  36  52  70  93 123 162 208 254 300
#     4   8  13  23  39  63  98 133 161 192 233 280
#     4  10  19  30  47  73 101 127 159 202 251 299
#     4   9  17  27  43  71 104 133 159 195 245 297
#     4   8  14  24  41  66  96 130 163 195 231 274
#     4   9  17  31  51  72  94 123 158 194 236 290
#
# _framework density 21.203800000000001
#
# number of rings (size 3 to 8) (size 9 to 14) (size 15 to 20)
#    0.000    3.000    0.000    2.500    0.000    5.000 
#    0.000    5.833    0.000    3.000    0.000    9.333 
#    0.000    8.000    0.000    0.500    0.000    0.000 
#
# Total GULP energy -267700.845681 kJ/mol
# GULP energy per Si atom -5577.100952 kJ/mol
# Density = 2.115554 g / cm^3
# Si number density = 21.203800 Si / 1000 Ang^3
#
#
#
# Elastic Constant Matrix: (Units=GPa)
#
#
# Indices 1 2 3 4 5 6 
#
# 1 40.8740 16.5103 13.8163 0.0000 0.0000 0.0000
# 2 16.5103 228.1257 159.4883 0.0000 0.0000 0.0000
# 3 13.8163 159.4883 159.5336 0.0000 0.0000 0.0000
# 4 0.0000 0.0000 0.0000 -14.1362 0.0000 0.0000
# 5 0.0000 0.0000 0.0000 0.0000 1.6179 0.0000
# 6 0.0000 0.0000 0.0000 0.0000 0.0000 -20.3252
#
#
#
# Elastic Compliance Matrix: (Units=1/GPa)
#
#
# Indices 1 2 3 4 5 6 
#
# 1 0.025271 -0.000993 -0.001196 0.000000 0.000000 0.000000
# 2 -0.000993 0.014599 -0.014509 0.000000 0.000000 0.000000
# 3 -0.001196 -0.014509 0.020876 0.000000 0.000000 0.000000
# 4 0.000000 0.000000 0.000000 -0.070740 0.000000 0.000000
# 5 0.000000 0.000000 0.000000 0.000000 0.618078 0.000000
# 6 0.000000 0.000000 0.000000 0.000000 0.000000 -0.049200
#
#
# Mechanical properties :
#
#
# Convention : Reuss Voigt Hill
#
# Bulk Modulus (GPa) = 36.56182 89.79589 63.17886
# Shear Modulus (GPa) = 8.31399 9.34585 8.82992
#
# Velocity S-wave (km/s) = 1.98230 2.10171 2.04288
# Velocity P-wave (km/s) = 4.74551 6.95201 5.95190
#
# Compressibility (1/GPa) = 0.02735093
#
# Stress axis : x y z
#
# Youngs Moduli (GPa) = 39.57147 68.49922 47.90111
#
# Poissons Ratio (x) = 0.06800 0.05730
# Poissons Ratio (y) = 0.03928 0.69498
# Poissons Ratio (z) = 0.04733 0.99383
#
# Static dielectric constant tensor:
#      x y z
#    x 1.974360 0.000000 0.000000 
#    y 0.000000 1.756620 0.000000 
#    z 0.000000 0.000000 1.707860 
# 
# From -- ./inp_files/11446.got.cif
#   From: 2010.05.17/outbox.cif.g08.bks.cpg/sg67_6_cif.got.tgz:11446.got - 2010.06.03 18:28:57.
