data_PCOD9501306
_publ_section_title
;
Structure prediction by ZEFSAII (Michael W. Deem and Ramdas Pophale) SiO2 
 PCOD9501306
Probable space group: C M M A
;
_chemical_formula_sum "Si O2"
_cell_formula_units_Z 116
_cell_length_a 28.319131
_cell_length_b 18.081560
_cell_length_c 11.434889
_cell_angle_alpha 90.000000
_cell_angle_beta 90.000000
_cell_angle_gamma 90.000000
_cell_volume 5855.281410
_symmetry_space_group_name_H-M "C M M A"
_symmetry_group_IT_number 67
_symmetry_cell_setting 'orthorhombic'
loop_
_space_group_symop_operation_xyz
x,y,z
-x,1/2-y,z
x,-y,-z
-x,1/2+y,-z
-x,-y,-z
x,1/2+y,-z
-x,y,z
x,1/2-y,z
1/2+x,1/2+y,z
1/2-x,-y,z
1/2+x,1/2-y,-z
1/2-x,y,-z
1/2-x,1/2-y,-z
1/2+x,y,-z
1/2-x,1/2+y,z
1/2+x,-y,z
loop_
_atom_site_type_symbol
_atom_site_label
_atom_site_fract_x
_atom_site_fract_y
_atom_site_fract_z
Si Si1 0.834291 0.580144 0.877849
Si Si2 0.319346 0.838390 0.691922
Si Si3 0.750000 0.500000 0.000000
Si Si4 0.786274 0.835729 0.674290
Si Si5 0.378640 0.664296 0.911906
Si Si6 0.372439 0.835850 0.483526
Si Si7 0.052947 0.447618 0.384364
Si Si8 0.576407 0.520390 0.866790
O O1 0.819542 0.620080 0.760872
O O2 0.870152 0.512073 0.865670
O O3 0.785255 0.551199 0.928173
O O4 0.861284 0.637198 0.962056
O O5 0.318510 0.750000 0.668833
O O6 0.266640 0.867147 0.668736
O O7 0.334145 0.847064 0.825724
O O8 0.363399 0.866756 0.614186
O O9 0.782046 0.750000 0.712794
O O10 0.817667 0.835888 0.558394
O O11 0.391884 0.750000 0.909845
O O12 0.419382 0.608865 0.868814
O O13 0.388550 0.750000 0.481821
O O14 0.406858 0.886013 0.406491
O O15 0.056965 0.500000 0.500000
O O16 0.056669 0.487448 0.255910
O O17 0.000000 0.415158 0.388754
O O18 0.557891 0.500000 0.000000
#
# Coordination Sequence:
#
# PCOD9501306 Si02
#       8
#    16  16   4  16  16  16  16  16
#     4  11  20  33  51  79 120 159 199 243 288 348
#     4   9  18  31  50  80 117 159 199 237 285 340
#     4  12  20  32  50  76 120 164 198 244 286 332
#     4  10  19  31  52  80 115 158 198 237 286 346
#     4  10  19  34  56  81 113 158 206 245 283 342
#     4  10  20  37  60  85 117 152 192 246 300 357
#     4  11  24  43  66  89 115 150 196 250 311 374
#     4  10  21  40  60  87 119 157 194 241 305 362
#
# _framework density 19.811174000000001
#
# number of rings (size 3 to 8) (size 9 to 14) (size 15 to 20)
#    0.000    1.793    3.448    2.483    0.000    2.207 
#    0.000    2.759    0.000    2.069    0.000    0.000 
#    0.000    0.000    0.000    0.000    0.000    0.000 
#
# Total GULP energy -322948.220645 kJ/mol
# GULP energy per Si atom -5568.072770 kJ/mol
# Density = 1.976608 g / cm^3
# Si number density = 19.811174 Si / 1000 Ang^3
#
#
#
# Elastic Constant Matrix: (Units=GPa)
#
#
# Indices 1 2 3 4 5 6 
#
# 1 69.5775 24.3781 10.2439 0.0000 0.0000 0.0000
# 2 24.3781 83.7398 25.1121 0.0000 0.0000 0.0000
# 3 10.2439 25.1121 89.9850 0.0000 0.0000 0.0000
# 4 0.0000 0.0000 0.0000 25.2540 0.0000 0.0000
# 5 0.0000 0.0000 0.0000 0.0000 36.2077 0.0000
# 6 0.0000 0.0000 0.0000 0.0000 0.0000 14.5119
#
#
#
# Elastic Compliance Matrix: (Units=1/GPa)
#
#
# Indices 1 2 3 4 5 6 
#
# 1 0.016032 -0.004496 -0.000570 0.000000 0.000000 0.000000
# 2 -0.004496 0.014293 -0.003477 0.000000 0.000000 0.000000
# 3 -0.000570 -0.003477 0.012148 0.000000 0.000000 0.000000
# 4 0.000000 0.000000 0.000000 0.039598 0.000000 0.000000
# 5 0.000000 0.000000 0.000000 0.000000 0.027618 0.000000
# 6 0.000000 0.000000 0.000000 0.000000 0.000000 0.068909
#
#
# Mechanical properties :
#
#
# Convention : Reuss Voigt Hill
#
# Bulk Modulus (GPa) = 39.39110 40.30784 39.84947
# Shear Modulus (GPa) = 24.49210 27.43259 25.96234
#
# Velocity S-wave (km/s) = 3.51989 3.72520 3.62400
# Velocity P-wave (km/s) = 6.03705 6.23642 6.13754
#
# Compressibility (1/GPa) = 0.02538644
#
# Stress axis : x y z
#
# Youngs Moduli (GPa) = 62.37622 69.96265 82.31660
#
# Poissons Ratio (x) = 0.31456 0.04695
# Poissons Ratio (y) = 0.28045 0.28621
# Poissons Ratio (z) = 0.03558 0.24326
#
# Static dielectric constant tensor:
#      x y z
#    x 1.682620 0.000000 0.000000 
#    y 0.000000 1.706810 0.000000 
#    z 0.000000 0.000000 1.815280 
# 
# From -- ./inp_files/23051.got.cif
#   From: 2010.05.17/outbox.cif.g08.bks.cpg/sg67_12_cif.got.tgz:23051.got - 2010.06.03 18:28:57.
