data_PCOD9501615
_publ_section_title
;
Structure prediction by ZEFSAII (Michael W. Deem and Ramdas Pophale) SiO2 
 PCOD9501615
Probable space group: C M M A
;
_chemical_formula_sum "Si O2"
_cell_formula_units_Z 96
_cell_length_a 8.792280
_cell_length_b 29.479021
_cell_length_c 21.057656
_cell_angle_alpha 90.000000
_cell_angle_beta 90.000000
_cell_angle_gamma 90.000000
_cell_volume 5457.887674
_symmetry_space_group_name_H-M "C M M A"
_symmetry_group_IT_number 67
_symmetry_cell_setting 'orthorhombic'
loop_
_space_group_symop_operation_xyz
x,y,z
-x,1/2-y,z
x,-y,-z
-x,1/2+y,-z
-x,-y,-z
x,1/2+y,-z
-x,y,z
x,1/2-y,z
1/2+x,1/2+y,z
1/2-x,-y,z
1/2+x,1/2-y,-z
1/2-x,y,-z
1/2-x,1/2-y,-z
1/2+x,y,-z
1/2-x,1/2+y,z
1/2+x,-y,z
loop_
_atom_site_type_symbol
_atom_site_label
_atom_site_fract_x
_atom_site_fract_y
_atom_site_fract_z
Si Si1 0.817553 0.452850 0.240048
Si Si2 0.317284 0.144427 0.433603
Si Si3 0.681942 0.697361 0.930957
Si Si4 0.818373 0.356104 0.186198
Si Si5 0.817249 0.047384 0.618201
Si Si6 0.183329 0.696743 0.306141
O O1 0.750000 0.500000 0.214718
O O2 0.780106 0.408852 0.198437
O O3 0.746240 0.446670 0.310255
O O4 0.000000 0.456307 0.246244
O O5 0.500000 0.146262 0.436849
O O6 0.250000 0.160452 0.500000
O O7 0.272868 0.092064 0.420725
O O8 0.269708 0.173699 0.372510
O O9 0.500000 0.694508 0.933390
O O10 0.722988 0.750000 0.916233
O O11 0.745062 0.665038 0.876429
O O12 0.750000 0.686646 0.000000
O O13 0.759356 0.328507 0.247238
O O14 0.000000 0.352161 0.182300
O O15 0.000000 0.044563 0.620673
O O16 0.750000 0.000000 0.593431
O O17 0.219084 0.750000 0.305673
O O18 0.000000 0.691815 0.300481
#
# Coordination Sequence:
#
# PCOD9501615 Si02
#       6
#    16  16  16  16  16  16
#     4  10  20  33  53  81 110 142 178 221 270 321
#     4  10  22  37  53  74 102 138 178 224 276 329
#     4  10  21  37  58  85 118 155 190 225 268 318
#     4  11  22  35  56  86 116 145 181 225 272 321
#     4  10  19  33  53  76 103 135 172 219 273 328
#     4  10  21  38  57  77 104 140 183 227 273 326
#
# _framework density 17.589221999999999
#
# number of rings (size 3 to 8) (size 9 to 14) (size 15 to 20)
#    0.000    1.833    1.667    3.500    0.000    8.000 
#    0.000    1.667    0.000    0.500    0.000    3.500 
#    0.000    0.000    0.000    0.000    0.000    0.000 
#
# Total GULP energy -268092.007283 kJ/mol
# GULP energy per Si atom -5585.250152 kJ/mol
# Density = 1.754919 g / cm^3
# Si number density = 17.589222 Si / 1000 Ang^3
#
#
#
# Elastic Constant Matrix: (Units=GPa)
#
#
# Indices 1 2 3 4 5 6 
#
# 1 42.3122 45.6636 37.6202 0.0000 0.0000 0.0000
# 2 45.6636 119.2585 73.7648 0.0000 0.0000 0.0000
# 3 37.6202 73.7648 119.1601 0.0000 0.0000 0.0000
# 4 0.0000 0.0000 0.0000 11.8870 0.0000 0.0000
# 5 0.0000 0.0000 0.0000 0.0000 32.4957 0.0000
# 6 0.0000 0.0000 0.0000 0.0000 0.0000 25.6449
#
#
#
# Elastic Compliance Matrix: (Units=1/GPa)
#
#
# Indices 1 2 3 4 5 6 
#
# 1 0.042315 -0.012865 -0.005395 0.000000 0.000000 0.000000
# 2 -0.012865 0.017499 -0.006771 0.000000 0.000000 0.000000
# 3 -0.005395 -0.006771 0.014287 0.000000 0.000000 0.000000
# 4 0.000000 0.000000 0.000000 0.084126 0.000000 0.000000
# 5 0.000000 0.000000 0.000000 0.000000 0.030773 0.000000
# 6 0.000000 0.000000 0.000000 0.000000 0.000000 0.038994
#
#
# Mechanical properties :
#
#
# Convention : Reuss Voigt Hill
#
# Bulk Modulus (GPa) = 41.60038 66.09201 53.84620
# Shear Modulus (GPa) = 17.47826 22.25100 19.86463
#
# Velocity S-wave (km/s) = 3.15571 3.56059 3.36425
# Velocity P-wave (km/s) = 6.08115 7.38652 6.76539
#
# Compressibility (1/GPa) = 0.02403824
#
# Stress axis : x y z
#
# Youngs Moduli (GPa) = 23.63237 57.14540 69.99373
#
# Poissons Ratio (x) = 0.73518 0.37764
# Poissons Ratio (y) = 0.30403 0.47393
# Poissons Ratio (z) = 0.12750 0.38694
#
# Static dielectric constant tensor:
#      x y z
#    x 1.590340 0.000000 0.000000 
#    y 0.000000 1.609150 0.000000 
#    z 0.000000 0.000000 1.564260 
# 
# From -- ./inp_files/37127.got.cif
#   From: 2010.05.17/outbox.cif.g08.bks.cpg/sg67_19_cif.got.tgz:37127.got - 2010.06.03 18:28:57.
