data_PCOD9501838
_publ_section_title
;
Structure prediction by ZEFSAII (Michael W. Deem and Ramdas Pophale) SiO2 
 PCOD9501838
Probable space group: C M M A
;
_chemical_formula_sum "Si O2"
_cell_formula_units_Z 96
_cell_length_a 18.066601
_cell_length_b 17.705014
_cell_length_c 16.535844
_cell_angle_alpha 90.000000
_cell_angle_beta 90.000000
_cell_angle_gamma 90.000000
_cell_volume 5289.310890
_symmetry_space_group_name_H-M "C M M A"
_symmetry_group_IT_number 67
_symmetry_cell_setting 'orthorhombic'
loop_
_space_group_symop_operation_xyz
x,y,z
-x,1/2-y,z
x,-y,-z
-x,1/2+y,-z
-x,-y,-z
x,1/2+y,-z
-x,y,z
x,1/2-y,z
1/2+x,1/2+y,z
1/2-x,-y,z
1/2+x,1/2-y,-z
1/2-x,y,-z
1/2-x,1/2-y,-z
1/2+x,y,-z
1/2-x,1/2+y,z
1/2+x,-y,z
loop_
_atom_site_type_symbol
_atom_site_label
_atom_site_fract_x
_atom_site_fract_y
_atom_site_fract_z
Si Si1 0.418179 0.410386 0.007431
Si Si2 0.295311 0.167363 0.084420
Si Si3 0.713741 0.161952 0.410999
Si Si4 0.357823 0.161623 0.840451
Si Si5 0.813707 0.942578 0.705135
Si Si6 0.087176 0.543019 0.413909
O O1 0.500000 0.382988 0.027455
O O2 0.393465 0.370763 0.923129
O O3 0.418981 0.500000 0.000000
O O4 0.359420 0.392057 0.076890
O O5 0.329995 0.250000 0.089562
O O6 0.231558 0.159893 0.149198
O O7 0.250000 0.164212 0.000000
O O8 0.707986 0.250000 0.388151
O O9 0.750000 0.157029 0.500000
O O10 0.767230 0.116421 0.349873
O O11 0.634392 0.120381 0.415306
O O12 0.379116 0.250000 0.829221
O O13 0.365439 0.103637 0.767344
O O14 0.750000 0.000000 0.739774
O O15 0.868681 0.991429 0.649839
O O16 0.092706 0.500000 0.500000
O O17 0.000000 0.553136 0.395663
#
# Coordination Sequence:
#
# PCOD9501838 Si02
#       6
#    16  16  16  16  16  16
#     4  10  21  34  52  77 108 144 183 222 267 328
#     4   8  16  31  51  73  98 130 172 217 260 316
#     4  10  19  34  58  83 111 147 193 239 277 331
#     4  10  21  36  56  84 112 140 179 229 285 334
#     4  10  21  34  58  84 111 147 186 233 284 334
#     4  10  20  36  56  81 116 152 188 230 281 341
#
# _framework density 18.149813000000002
#
# number of rings (size 3 to 8) (size 9 to 14) (size 15 to 20)
#    0.000    2.333    1.667    2.000    2.333    4.667 
#    0.000    0.000    0.000    1.500    0.000    2.333 
#    0.000    0.000    0.000    0.000    0.000    0.000 
#
# Total GULP energy -267358.067095 kJ/mol
# GULP energy per Si atom -5569.959731 kJ/mol
# Density = 1.810850 g / cm^3
# Si number density = 18.149813 Si / 1000 Ang^3
#
#
#
# Elastic Constant Matrix: (Units=GPa)
#
#
# Indices 1 2 3 4 5 6 
#
# 1 91.3588 33.4442 -7.5233 0.0000 0.0000 0.0000
# 2 33.4442 105.1847 9.2638 0.0000 0.0000 0.0000
# 3 -7.5233 9.2638 18.7320 0.0000 0.0000 0.0000
# 4 0.0000 0.0000 0.0000 25.6017 0.0000 0.0000
# 5 0.0000 0.0000 0.0000 0.0000 11.7709 0.0000
# 6 0.0000 0.0000 0.0000 0.0000 0.0000 12.8033
#
#
#
# Elastic Compliance Matrix: (Units=1/GPa)
#
#
# Indices 1 2 3 4 5 6 
#
# 1 0.013403 -0.004951 0.007832 0.000000 0.000000 0.000000
# 2 -0.004951 0.011769 -0.007809 0.000000 0.000000 0.000000
# 3 0.007832 -0.007809 0.060392 0.000000 0.000000 0.000000
# 4 0.000000 0.000000 0.000000 0.039060 0.000000 0.000000
# 5 0.000000 0.000000 0.000000 0.000000 0.084956 0.000000
# 6 0.000000 0.000000 0.000000 0.000000 0.000000 0.078105
#
#
# Mechanical properties :
#
#
# Convention : Reuss Voigt Hill
#
# Bulk Modulus (GPa) = 13.20872 31.73829 22.47350
# Shear Modulus (GPa) = 15.49053 22.04124 18.76588
#
# Velocity S-wave (km/s) = 2.92461 3.48861 3.21899
# Velocity P-wave (km/s) = 4.32410 5.80965 5.12103
#
# Compressibility (1/GPa) = 0.07570755
#
# Stress axis : x y z
#
# Youngs Moduli (GPa) = 74.60780 84.96758 16.55847
#
# Poissons Ratio (x) = 0.42071 -0.12968
# Poissons Ratio (y) = 0.36942 0.12931
# Poissons Ratio (z) = -0.58432 0.66351
#
# Static dielectric constant tensor:
#      x y z
#    x 1.620820 0.000000 0.000000 
#    y 0.000000 1.642790 0.000000 
#    z 0.000000 0.000000 1.657640 
# 
# From -- ./inp_files/34258.got.cif
#   From: 2010.05.17/outbox.cif.g08.bks.cpg/sg67_18_cif.got.tgz:34258.got - 2010.06.03 18:28:57.
