data_PCOD9501157
_publ_section_title
;
Structure prediction by ZEFSAII (Michael W. Deem and Ramdas Pophale) SiO2 
 PCOD9501157
Probable space group: C M M A
;
_chemical_formula_sum "Si O2"
_cell_formula_units_Z 104
_cell_length_a 28.308401
_cell_length_b 7.684208
_cell_length_c 24.833201
_cell_angle_alpha 90.000000
_cell_angle_beta 90.000000
_cell_angle_gamma 90.000000
_cell_volume 5401.907643
_symmetry_space_group_name_H-M "C M M A"
_symmetry_group_IT_number 67
_symmetry_cell_setting 'orthorhombic'
loop_
_space_group_symop_operation_xyz
x,y,z
-x,1/2-y,z
x,-y,-z
-x,1/2+y,-z
-x,-y,-z
x,1/2+y,-z
-x,y,z
x,1/2-y,z
1/2+x,1/2+y,z
1/2-x,-y,z
1/2+x,1/2-y,-z
1/2-x,y,-z
1/2-x,1/2-y,-z
1/2+x,y,-z
1/2-x,1/2+y,z
1/2+x,-y,z
loop_
_atom_site_type_symbol
_atom_site_label
_atom_site_fract_x
_atom_site_fract_y
_atom_site_fract_z
Si Si1 0.500000 0.458865 0.936271
Si Si2 0.895503 0.037910 0.666664
Si Si3 0.696762 0.958742 0.729242
Si Si4 0.102915 0.544704 0.937651
Si Si5 0.051913 0.961818 0.226289
Si Si6 0.354538 0.458261 0.167021
Si Si7 0.554093 0.540856 0.560490
O O1 0.500000 0.250000 0.927674
O O2 0.448613 0.530716 0.918935
O O3 0.500000 0.500000 0.000000
O O4 0.893555 0.250000 0.664966
O O5 0.844718 0.977772 0.689336
O O6 0.934136 0.994000 0.712359
O O7 0.912597 0.975847 0.608502
O O8 0.692799 0.750000 0.729696
O O9 0.684330 0.021741 0.790116
O O10 0.750000 0.000000 0.713777
O O11 0.097791 0.750000 0.935785
O O12 0.144029 0.497891 0.895967
O O13 0.111380 0.500000 0.000000
O O14 0.051392 0.750000 0.223245
O O15 0.095334 0.024683 0.190344
O O16 0.000000 0.025320 0.211065
O O17 0.354603 0.250000 0.171148
O O18 0.570225 0.500000 0.500000
O O19 0.500000 0.475731 0.566335
O O20 0.552182 0.750000 0.565282
#
# Coordination Sequence:
#
# PCOD9501157 Si02
#       7
#     8  16  16  16  16  16  16
#     4   8  16  28  40  58  84 118 156 186 209 244
#     4   8  14  26  44  66  92 121 155 192 228 270
#     4   9  18  33  52  72  93 116 149 194 240 286
#     4  10  19  31  46  64  90 124 158 189 222 265
#     4   8  13  22  39  64  90 116 147 183 222 266
#     4   9  18  30  45  69  94 115 145 187 231 275
#     4   9  16  26  43  68  98 132 164 193 226 266
#
# _framework density 19.252459000000002
#
# number of rings (size 3 to 8) (size 9 to 14) (size 15 to 20)
#    0.000    3.231    0.000    2.769    1.077    3.077 
#    0.000    0.769    0.000    1.846    0.000    6.462 
#    0.000    0.000    0.000    0.000    0.000    0.000 
#
# Total GULP energy -289624.299069 kJ/mol
# GULP energy per Si atom -5569.698059 kJ/mol
# Density = 1.920864 g / cm^3
# Si number density = 19.252459 Si / 1000 Ang^3
#
#
#
# Elastic Constant Matrix: (Units=GPa)
#
#
# Indices 1 2 3 4 5 6 
#
# 1 64.9475 3.1089 27.9492 0.0000 0.0000 0.0000
# 2 3.1089 35.4320 1.8178 0.0000 0.0000 0.0000
# 3 27.9492 1.8178 111.7005 0.0000 0.0000 0.0000
# 4 0.0000 0.0000 0.0000 14.8297 0.0000 0.0000
# 5 0.0000 0.0000 0.0000 0.0000 6.5767 0.0000
# 6 0.0000 0.0000 0.0000 0.0000 0.0000 10.7206
#
#
#
# Elastic Compliance Matrix: (Units=1/GPa)
#
#
# Indices 1 2 3 4 5 6 
#
# 1 0.017314 -0.001298 -0.004311 0.000000 0.000000 0.000000
# 2 -0.001298 0.028344 -0.000136 0.000000 0.000000 0.000000
# 3 -0.004311 -0.000136 0.010033 0.000000 0.000000 0.000000
# 4 0.000000 0.000000 0.000000 0.067432 0.000000 0.000000
# 5 0.000000 0.000000 0.000000 0.000000 0.152051 0.000000
# 6 0.000000 0.000000 0.000000 0.000000 0.000000 0.093279
#
#
# Mechanical properties :
#
#
# Convention : Reuss Voigt Hill
#
# Bulk Modulus (GPa) = 22.62421 30.87020 26.74720
# Shear Modulus (GPa) = 12.66853 18.37234 15.52043
#
# Velocity S-wave (km/s) = 2.56798 3.09250 2.84236
# Velocity P-wave (km/s) = 4.53536 5.36849 4.96941
#
# Compressibility (1/GPa) = 0.04420044
#
# Stress axis : x y z
#
# Youngs Moduli (GPa) = 57.75525 35.28086 99.66640
#
# Poissons Ratio (x) = 0.04580 0.42968
# Poissons Ratio (y) = 0.07497 0.01360
# Poissons Ratio (z) = 0.24900 0.00482
#
# Static dielectric constant tensor:
#      x y z
#    x 1.693740 0.000000 0.000000 
#    y 0.000000 1.722140 0.000000 
#    z 0.000000 0.000000 1.688570 
# 
# From -- ./inp_files/42789.got.cif
#   From: 2010.05.17/outbox.cif.g08.bks.cpg/sg67_22_cif.got.tgz:42789.got - 2010.06.03 18:28:57.
