data_PCOD9501733
_publ_section_title
;
Structure prediction by ZEFSAII (Michael W. Deem and Ramdas Pophale) SiO2 
 PCOD9501733
Probable space group: C M M A
;
_chemical_formula_sum "Si O2"
_cell_formula_units_Z 80
_cell_length_a 24.537868
_cell_length_b 17.519000
_cell_length_c 9.859270
_cell_angle_alpha 90.000000
_cell_angle_beta 90.000000
_cell_angle_gamma 90.000000
_cell_volume 4238.292236
_symmetry_space_group_name_H-M "C M M A"
_symmetry_group_IT_number 67
_symmetry_cell_setting 'orthorhombic'
loop_
_space_group_symop_operation_xyz
x,y,z
-x,1/2-y,z
x,-y,-z
-x,1/2+y,-z
-x,-y,-z
x,1/2+y,-z
-x,y,z
x,1/2-y,z
1/2+x,1/2+y,z
1/2-x,-y,z
1/2+x,1/2-y,-z
1/2-x,y,-z
1/2-x,1/2-y,-z
1/2+x,y,-z
1/2-x,1/2+y,z
1/2+x,-y,z
loop_
_atom_site_type_symbol
_atom_site_label
_atom_site_fract_x
_atom_site_fract_y
_atom_site_fract_z
Si Si1 0.170371 0.839701 0.551960
Si Si2 0.437364 0.086768 0.048180
Si Si3 0.236132 0.588461 0.780640
Si Si4 0.871625 0.162124 0.171130
Si Si5 0.349054 0.159183 0.241815
O O1 0.186568 0.750000 0.547887
O O2 0.217454 0.887272 0.627899
O O3 0.122819 0.846054 0.665986
O O4 0.153499 0.861995 0.401696
O O5 0.500000 0.096896 0.089544
O O6 0.395457 0.112921 0.163758
O O7 0.422080 0.137120 0.917258
O O8 0.429160 0.000000 0.000000
O O9 0.250000 0.500000 0.791405
O O10 0.181934 0.611728 0.863021
O O11 0.289409 0.637268 0.813977
O O12 0.857944 0.250000 0.143890
O O13 0.358337 0.250000 0.229697
#
# Coordination Sequence:
#
# PCOD9501733 Si02
#       5
#    16  16  16  16  16
#     4   8  18  35  56  88 121 151 189 235 285 347
#     4  11  25  44  60  81 114 154 200 253 303 349
#     4  10  19  33  57  92 127 156 187 229 295 353
#     4   9  19  38  60  84 117 158 200 237 285 354
#     4  11  21  36  61  90 121 154 194 245 294 347
#
# _framework density 18.875527999999999
#
# number of rings (size 3 to 8) (size 9 to 14) (size 15 to 20)
#    1.200    1.000    0.000    3.600    0.000    5.600 
#    0.000    5.000    0.000    6.000    0.000    0.000 
#    0.000    0.000    0.000    0.000    0.000    0.000 
#
# Total GULP energy -222878.152456 kJ/mol
# GULP energy per Si atom -5571.953811 kJ/mol
# Density = 1.883257 g / cm^3
# Si number density = 18.875528 Si / 1000 Ang^3
#
#
#
# Elastic Constant Matrix: (Units=GPa)
#
#
# Indices 1 2 3 4 5 6 
#
# 1 88.8144 32.2384 25.2192 0.0000 0.0000 0.0000
# 2 32.2384 72.4680 7.6402 0.0000 0.0000 0.0000
# 3 25.2192 7.6402 66.3306 0.0000 0.0000 0.0000
# 4 0.0000 0.0000 0.0000 21.3423 0.0000 0.0000
# 5 0.0000 0.0000 0.0000 0.0000 -21.2230 0.0000
# 6 0.0000 0.0000 0.0000 0.0000 0.0000 9.4357
#
#
#
# Elastic Compliance Matrix: (Units=1/GPa)
#
#
# Indices 1 2 3 4 5 6 
#
# 1 0.014880 -0.006097 -0.004955 0.000000 0.000000 0.000000
# 2 -0.006097 0.016467 0.000421 0.000000 0.000000 0.000000
# 3 -0.004955 0.000421 0.016911 0.000000 0.000000 0.000000
# 4 0.000000 0.000000 0.000000 0.046855 0.000000 0.000000
# 5 0.000000 0.000000 0.000000 0.000000 -0.047119 0.000000
# 6 0.000000 0.000000 0.000000 0.000000 0.000000 0.105980
#
#
# Mechanical properties :
#
#
# Convention : Reuss Voigt Hill
#
# Bulk Modulus (GPa) = 37.04146 39.75653 38.39900
# Shear Modulus (GPa) = 27.13927 12.74534 19.94230
#
# Velocity S-wave (km/s) = 3.79595 2.60134 3.25394
# Velocity P-wave (km/s) = 6.23530 5.48915 5.87409
#
# Compressibility (1/GPa) = 0.02699678
#
# Stress axis : x y z
#
# Youngs Moduli (GPa) = 67.20632 60.72713 59.13172
#
# Poissons Ratio (x) = 0.37025 0.29300
# Poissons Ratio (y) = 0.40976 -0.02492
# Poissons Ratio (z) = 0.33301 -0.02559
#
# Static dielectric constant tensor:
#      x y z
#    x 1.634860 0.000000 0.000000 
#    y 0.000000 1.654190 0.000000 
#    z 0.000000 0.000000 1.708220 
# 
# From -- ./inp_files/21619.got.cif
#   From: 2010.05.17/outbox.cif.g08.bks.cpg/sg67_11_cif.got.tgz:21619.got - 2010.06.03 18:28:57.
