data_PCOD9501492
_publ_section_title
;
Structure prediction by ZEFSAII (Michael W. Deem and Ramdas Pophale) SiO2 
 PCOD9501492
Probable space group: C M M A
;
_chemical_formula_sum "Si O2"
_cell_formula_units_Z 100
_cell_length_a 7.552737
_cell_length_b 27.162705
_cell_length_c 21.889543
_cell_angle_alpha 90.000000
_cell_angle_beta 90.000000
_cell_angle_gamma 90.000000
_cell_volume 4490.700316
_symmetry_space_group_name_H-M "C M M A"
_symmetry_group_IT_number 67
_symmetry_cell_setting 'orthorhombic'
loop_
_space_group_symop_operation_xyz
x,y,z
-x,1/2-y,z
x,-y,-z
-x,1/2+y,-z
-x,-y,-z
x,1/2+y,-z
-x,y,z
x,1/2-y,z
1/2+x,1/2+y,z
1/2-x,-y,z
1/2+x,1/2-y,-z
1/2-x,y,-z
1/2-x,1/2-y,-z
1/2+x,y,-z
1/2-x,1/2+y,z
1/2+x,-y,z
loop_
_atom_site_type_symbol
_atom_site_label
_atom_site_fract_x
_atom_site_fract_y
_atom_site_fract_z
Si Si1 0.780174 0.587684 0.410242
Si Si2 0.250000 0.500000 0.500000
Si Si3 0.298864 0.695941 0.577619
Si Si4 0.710282 0.372853 0.821149
Si Si5 0.291421 0.695486 0.284602
Si Si6 0.212520 0.194320 0.070949
Si Si7 0.292265 0.943272 0.723659
O O1 0.700835 0.542407 0.449143
O O2 0.723183 0.641579 0.434878
O O3 0.725553 0.583192 0.338714
O O4 0.000000 0.584105 0.414197
O O5 0.500000 0.696424 0.553972
O O6 0.216803 0.750000 0.563217
O O7 0.303519 0.695121 0.651078
O O8 0.500000 0.364880 0.823037
O O9 0.783159 0.340924 0.765006
O O10 0.778515 0.348876 0.883798
O O11 0.732560 0.426374 0.791373
O O12 0.500000 0.685668 0.296473
O O13 0.281429 0.750000 0.257731
O O14 0.279023 0.250000 0.085348
O O15 0.000000 0.196505 0.076689
O O16 0.250000 0.184194 0.000000
O O17 0.500000 0.935974 0.722505
O O18 0.250000 0.000000 0.714983
#
# Coordination Sequence:
#
# PCOD9501492 Si02
#       7
#    16   4  16  16  16  16  16
#     4  10  21  37  56  81 109 142 186 232 284 343
#     4  12  22  40  58  78 108 148 192 234 282 340
#     4   9  17  32  53  76 106 140 173 219 280 337
#     4  10  19  32  52  80 111 150 189 230 282 331
#     4   9  16  26  44  74 108 139 173 212 259 318
#     4   9  18  33  53  80 119 162 201 238 277 330
#     4  11  22  38  57  81 112 142 182 237 293 346
#
# _framework density 22.268242000000001
#
# number of rings (size 3 to 8) (size 9 to 14) (size 15 to 20)
#    0.000    2.240    2.400    1.200    0.000    2.560 
#    0.000    2.000    0.000    5.280    0.000    3.360 
#    0.000    0.000    0.000    0.000    0.000    0.000 
#
# Total GULP energy -278340.899870 kJ/mol
# GULP energy per Si atom -5566.817997 kJ/mol
# Density = 2.221756 g / cm^3
# Si number density = 22.268242 Si / 1000 Ang^3
#
#
#
# Elastic Constant Matrix: (Units=GPa)
#
#
# Indices 1 2 3 4 5 6 
#
# 1 65.7493 9.5959 4.3443 0.0000 0.0000 0.0000
# 2 9.5959 172.7116 53.3488 0.0000 0.0000 0.0000
# 3 4.3443 53.3488 135.4262 0.0000 0.0000 0.0000
# 4 0.0000 0.0000 0.0000 56.2552 0.0000 0.0000
# 5 0.0000 0.0000 0.0000 0.0000 84.9588 0.0000
# 6 0.0000 0.0000 0.0000 0.0000 0.0000 -3.0413
#
#
#
# Elastic Compliance Matrix: (Units=1/GPa)
#
#
# Indices 1 2 3 4 5 6 
#
# 1 0.015337 -0.000797 -0.000178 0.000000 0.000000 0.000000
# 2 -0.000797 0.006634 -0.002588 0.000000 0.000000 0.000000
# 3 -0.000178 -0.002588 0.008409 0.000000 0.000000 0.000000
# 4 0.000000 0.000000 0.000000 0.017776 0.000000 0.000000
# 5 0.000000 0.000000 0.000000 0.000000 0.011770 0.000000
# 6 0.000000 0.000000 0.000000 0.000000 0.000000 -0.328810
#
#
# Mechanical properties :
#
#
# Convention : Reuss Voigt Hill
#
# Bulk Modulus (GPa) = 43.00226 56.49613 49.74919
# Shear Modulus (GPa) = -19.68457 48.07442 14.19493
#
# Velocity S-wave (km/s) = -2.97640 4.65141 2.52752
# Velocity P-wave (km/s) = 2.74609 7.36704 5.55942
#
# Compressibility (1/GPa) = 0.02325459
#
# Stress axis : x y z
#
# Youngs Moduli (GPa) = 65.20017 150.74822 118.91804
#
# Poissons Ratio (x) = 0.12017 0.02116
# Poissons Ratio (y) = 0.05198 0.30771
# Poissons Ratio (z) = 0.01160 0.39008
#
# Static dielectric constant tensor:
#      x y z
#    x 1.878850 0.000000 0.000000 
#    y 0.000000 1.880180 0.000000 
#    z 0.000000 0.000000 1.839540 
# 
# From -- ./inp_files/37347.got.cif
#   From: 2010.05.17/outbox.cif.g08.bks.cpg/sg67_19_cif.got.tgz:37347.got - 2010.06.03 18:28:57.
