data_PCOD9501542
_publ_section_title
;
Structure prediction by ZEFSAII (Michael W. Deem and Ramdas Pophale) SiO2 
 PCOD9501542
Probable space group: C M M A
;
_chemical_formula_sum "Si O2"
_cell_formula_units_Z 84
_cell_length_a 18.694845
_cell_length_b 26.263629
_cell_length_c 9.920654
_cell_angle_alpha 90.000000
_cell_angle_beta 90.000000
_cell_angle_gamma 90.000000
_cell_volume 4870.986285
_symmetry_space_group_name_H-M "C M M A"
_symmetry_group_IT_number 67
_symmetry_cell_setting 'orthorhombic'
loop_
_space_group_symop_operation_xyz
x,y,z
-x,1/2-y,z
x,-y,-z
-x,1/2+y,-z
-x,-y,-z
x,1/2+y,-z
-x,y,z
x,1/2-y,z
1/2+x,1/2+y,z
1/2-x,-y,z
1/2+x,1/2-y,-z
1/2-x,y,-z
1/2-x,1/2-y,-z
1/2+x,y,-z
1/2-x,1/2+y,z
1/2+x,-y,z
loop_
_atom_site_type_symbol
_atom_site_label
_atom_site_fract_x
_atom_site_fract_y
_atom_site_fract_z
Si Si1 0.084328 0.052346 0.773061
Si Si2 0.750000 0.000000 0.500000
Si Si3 0.917607 0.615054 0.499680
Si Si4 0.845168 0.946572 0.720428
Si Si5 0.222267 0.885963 0.141298
Si Si6 0.307414 0.691686 0.619886
O O1 0.090916 0.071472 0.616896
O O2 0.144827 0.085176 0.853057
O O3 0.000000 0.058767 0.811227
O O4 0.108199 0.993302 0.776903
O O5 0.798326 0.033193 0.403812
O O6 0.891987 0.596124 0.645932
O O7 0.874800 0.662892 0.443473
O O8 0.000000 0.627293 0.506846
O O9 0.785426 0.925554 0.821014
O O10 0.218394 0.842724 0.255520
O O11 0.250000 0.864389 0.000000
O O12 0.321245 0.750000 0.659160
O O13 0.250000 0.691065 0.500000
#
# Coordination Sequence:
#
# PCOD9501542 Si02
#       6
#    16   4  16  16  16  16
#     4  10  20  33  52  79 114 152 191 228 269 329
#     4  12  16  28  52  76 106 148 196 232 260 304
#     4  10  19  32  54  87 115 140 179 234 291 333
#     4  12  18  31  52  79 114 154 192 228 274 323
#     4  11  23  38  56  80 115 152 191 231 277 335
#     4  10  20  38  63  85 105 135 184 238 287 340
#
# _framework density 17.244966999999999
#
# number of rings (size 3 to 8) (size 9 to 14) (size 15 to 20)
#    0.000    1.333    5.714    1.714    0.000    3.810 
#    0.000    2.857    0.000    0.000    0.000    0.000 
#    0.000    0.000    0.000    0.000    0.000    0.000 
#
# Total GULP energy -234152.951656 kJ/mol
# GULP energy per Si atom -5575.070278 kJ/mol
# Density = 1.720572 g / cm^3
# Si number density = 17.244967 Si / 1000 Ang^3
#
#
#
# Elastic Constant Matrix: (Units=GPa)
#
#
# Indices 1 2 3 4 5 6 
#
# 1 123.2222 47.3071 27.5643 0.0000 0.0000 0.0000
# 2 47.3071 95.2109 20.7994 0.0000 0.0000 0.0000
# 3 27.5643 20.7994 46.7717 0.0000 0.0000 0.0000
# 4 0.0000 0.0000 0.0000 9.8791 0.0000 0.0000
# 5 0.0000 0.0000 0.0000 0.0000 3.0125 0.0000
# 6 0.0000 0.0000 0.0000 0.0000 0.0000 7.9237
#
#
#
# Elastic Compliance Matrix: (Units=1/GPa)
#
#
# Indices 1 2 3 4 5 6 
#
# 1 0.010789 -0.004399 -0.004402 0.000000 0.000000 0.000000
# 2 -0.004399 0.013427 -0.003378 0.000000 0.000000 0.000000
# 3 -0.004402 -0.003378 0.025477 0.000000 0.000000 0.000000
# 4 0.000000 0.000000 0.000000 0.101224 0.000000 0.000000
# 5 0.000000 0.000000 0.000000 0.000000 0.331955 0.000000
# 6 0.000000 0.000000 0.000000 0.000000 0.000000 0.126204
#
#
# Mechanical properties :
#
#
# Convention : Reuss Voigt Hill
#
# Bulk Modulus (GPa) = 39.47286 50.72738 45.10012
# Shear Modulus (GPa) = 7.78962 15.46530 11.62746
#
# Velocity S-wave (km/s) = 2.12764 2.99791 2.59945
# Velocity P-wave (km/s) = 5.38284 6.43917 5.93456
#
# Compressibility (1/GPa) = 0.02533386
#
# Stress axis : x y z
#
# Youngs Moduli (GPa) = 92.68681 74.47811 39.25089
#
# Poissons Ratio (x) = 0.32763 0.17279
# Poissons Ratio (y) = 0.40773 0.13260
# Poissons Ratio (z) = 0.40802 0.25162
#
# Static dielectric constant tensor:
#      x y z
#    x 2.036620 0.000000 0.000000 
#    y 0.000000 1.627430 0.000000 
#    z 0.000000 0.000000 1.587170 
# 
# From -- ./inp_files/11394.got.cif
#   From: 2010.05.17/outbox.cif.g08.bks.cpg/sg67_6_cif.got.tgz:11394.got - 2010.06.03 18:28:57.
