data_PCOD9501707
_publ_section_title
;
Structure prediction by ZEFSAII (Michael W. Deem and Ramdas Pophale) SiO2 
 PCOD9501707
Probable space group: C M M A
;
_chemical_formula_sum "Si O2"
_cell_formula_units_Z 80
_cell_length_a 18.225260
_cell_length_b 9.735163
_cell_length_c 24.642539
_cell_angle_alpha 90.000000
_cell_angle_beta 90.000000
_cell_angle_gamma 90.000000
_cell_volume 4372.224089
_symmetry_space_group_name_H-M "C M M A"
_symmetry_group_IT_number 67
_symmetry_cell_setting 'orthorhombic'
loop_
_space_group_symop_operation_xyz
x,y,z
-x,1/2-y,z
x,-y,-z
-x,1/2+y,-z
-x,-y,-z
x,1/2+y,-z
-x,y,z
x,1/2-y,z
1/2+x,1/2+y,z
1/2-x,-y,z
1/2+x,1/2-y,-z
1/2-x,y,-z
1/2-x,1/2-y,-z
1/2+x,y,-z
1/2-x,1/2+y,z
1/2+x,-y,z
loop_
_atom_site_type_symbol
_atom_site_label
_atom_site_fract_x
_atom_site_fract_y
_atom_site_fract_z
Si Si1 0.679231 0.907637 0.763442
Si Si2 0.411632 0.539518 0.869971
Si Si3 0.411216 0.750000 0.962194
Si Si4 0.326661 0.581700 0.552926
Si Si5 0.410825 0.250000 0.914397
Si Si6 0.582941 0.915518 0.662132
O O1 0.700851 0.750000 0.751939
O O2 0.632600 0.962923 0.712305
O O3 0.750000 0.000000 0.772322
O O4 0.628362 0.908702 0.816641
O O5 0.500000 0.551836 0.863342
O O6 0.391449 0.621296 0.924685
O O7 0.389905 0.384029 0.881627
O O8 0.500000 0.750000 0.966315
O O9 0.383189 0.750000 0.023532
O O10 0.356295 0.500000 0.500000
O O11 0.317903 0.750000 0.545230
O O12 0.250000 0.500000 0.563190
O O13 0.378334 0.559714 0.604678
O O14 0.500000 0.250000 0.917637
O O15 0.500000 0.969826 0.664206
O O16 0.578669 0.750000 0.668018
#
# Coordination Sequence:
#
# PCOD9501707 Si02
#       6
#    16  16   8  16   8  16
#     4  11  23  38  58  79 106 143 183 227 273 330
#     4  10  19  33  56  82 108 140 179 223 270 320
#     4   9  16  30  53  83 109 137 180 219 264 323
#     4  10  19  33  56  83 115 152 186 223 265 317
#     4   9  18  30  51  83 115 139 168 223 276 317
#     4   9  19  36  58  83 109 141 184 230 275 321
#
# _framework density 18.297322999999999
#
# number of rings (size 3 to 8) (size 9 to 14) (size 15 to 20)
#    0.000    2.200    1.000    3.000    1.400    3.600 
#    0.000    1.000    0.000    7.800    0.000    0.000 
#    0.000    0.000    0.000    0.000    0.000    0.000 
#
# Total GULP energy -222930.888602 kJ/mol
# GULP energy per Si atom -5573.272215 kJ/mol
# Density = 1.825568 g / cm^3
# Si number density = 18.297323 Si / 1000 Ang^3
#
#
#
# Elastic Constant Matrix: (Units=GPa)
#
#
# Indices 1 2 3 4 5 6 
#
# 1 61.1177 24.9400 40.1708 0.0000 0.0000 0.0000
# 2 24.9400 99.7151 20.6096 0.0000 0.0000 0.0000
# 3 40.1708 20.6096 100.3629 0.0000 0.0000 0.0000
# 4 0.0000 0.0000 0.0000 11.6642 0.0000 0.0000
# 5 0.0000 0.0000 0.0000 0.0000 135.3789 0.0000
# 6 0.0000 0.0000 0.0000 0.0000 0.0000 14.8814
#
#
#
# Elastic Compliance Matrix: (Units=1/GPa)
#
#
# Indices 1 2 3 4 5 6 
#
# 1 0.023741 -0.004150 -0.008650 0.000000 0.000000 0.000000
# 2 -0.004150 0.011199 -0.000639 0.000000 0.000000 0.000000
# 3 -0.008650 -0.000639 0.013557 0.000000 0.000000 0.000000
# 4 0.000000 0.000000 0.000000 0.085733 0.000000 0.000000
# 5 0.000000 0.000000 0.000000 0.000000 0.007387 0.000000
# 6 0.000000 0.000000 0.000000 0.000000 0.000000 0.067198
#
#
# Mechanical properties :
#
#
# Convention : Reuss Voigt Hill
#
# Bulk Modulus (GPa) = 46.25542 48.07073 47.16307
# Shear Modulus (GPa) = 20.58480 44.08326 32.33403
#
# Velocity S-wave (km/s) = 3.35777 4.91376 4.20830
# Velocity P-wave (km/s) = 6.35355 7.65000 7.03171
#
# Compressibility (1/GPa) = 0.02161909
#
# Stress axis : x y z
#
# Youngs Moduli (GPa) = 42.12144 89.29749 73.76124
#
# Poissons Ratio (x) = 0.37059 0.63805
# Poissons Ratio (y) = 0.17481 0.04710
# Poissons Ratio (z) = 0.36436 0.05702
#
# Static dielectric constant tensor:
#      x y z
#    x 1.621700 0.000000 0.000000 
#    y 0.000000 1.549300 0.000000 
#    z 0.000000 0.000000 1.617810 
# 
# From -- ./inp_files/44468.got.cif
#   From: 2010.05.17/outbox.cif.g08.bks.cpg/sg67_23_cif.got.tgz:44468.got - 2010.06.03 18:28:57.
