data_PCOD9501937
_publ_section_title
;
Structure prediction by ZEFSAII (Michael W. Deem and Ramdas Pophale) SiO2 
 PCOD9501937
Probable space group: C M M A
;
_chemical_formula_sum "Si O2"
_cell_formula_units_Z 112
_cell_length_a 28.777779
_cell_length_b 14.790374
_cell_length_c 12.509854
_cell_angle_alpha 90.000000
_cell_angle_beta 90.000000
_cell_angle_gamma 90.000000
_cell_volume 5324.620627
_symmetry_space_group_name_H-M "C M M A"
_symmetry_group_IT_number 67
_symmetry_cell_setting 'orthorhombic'
loop_
_space_group_symop_operation_xyz
x,y,z
-x,1/2-y,z
x,-y,-z
-x,1/2+y,-z
-x,-y,-z
x,1/2+y,-z
-x,y,z
x,1/2-y,z
1/2+x,1/2+y,z
1/2-x,-y,z
1/2+x,1/2-y,-z
1/2-x,y,-z
1/2-x,1/2-y,-z
1/2+x,y,-z
1/2-x,1/2+y,z
1/2+x,-y,z
loop_
_atom_site_type_symbol
_atom_site_label
_atom_site_fract_x
_atom_site_fract_y
_atom_site_fract_z
Si Si1 0.051265 0.399380 0.547397
Si Si2 0.797966 0.614072 0.704017
Si Si3 0.806534 0.102790 0.734643
Si Si4 0.886956 0.850211 0.836372
Si Si5 0.381798 0.144050 0.085958
Si Si6 0.848999 0.389839 0.509021
Si Si7 0.554380 0.022146 0.219519
O O1 0.047665 0.500000 0.500000
O O2 0.097694 0.357446 0.496822
O O3 0.060731 0.419499 0.672361
O O4 0.000000 0.357039 0.534061
O O5 0.802091 0.505405 0.718901
O O6 0.745820 0.639765 0.735050
O O7 0.837684 0.652580 0.778611
O O8 0.813166 0.637638 0.583128
O O9 0.837268 0.121953 0.839297
O O10 0.831607 0.135756 0.626594
O O11 0.908738 0.750000 0.831582
O O12 0.917610 0.928097 0.781267
O O13 0.876774 0.873230 0.960089
O O14 0.391924 0.250000 0.100339
O O15 0.423748 0.082671 0.127057
O O16 0.850951 0.500000 0.500000
O O17 0.500000 0.004606 0.206753
#
# Coordination Sequence:
#
# PCOD9501937 Si02
#       7
#    16  16  16  16  16  16  16
#     4   9  16  28  56  92 121 156 198 238 295 363
#     4  10  20  34  60  90 120 162 206 249 303 364
#     4  10  19  35  59  89 121 160 207 252 304 361
#     4  11  24  41  60  87 123 160 202 252 306 363
#     4  11  24  41  61  87 122 160 202 255 307 357
#     4   9  15  30  55  86 125 156 196 249 300 357
#     4  11  22  41  67  92 121 159 203 249 300 362
#
# _framework density 21.034362000000002
#
# number of rings (size 3 to 8) (size 9 to 14) (size 15 to 20)
#    0.000    1.857    2.857    2.571    0.000    4.571 
#    0.000    5.000    0.000    1.714    0.000    4.000 
#    0.000    0.000    0.000    0.000    0.000    0.000 
#
# Total GULP energy -312725.971657 kJ/mol
# GULP energy per Si atom -5584.392351 kJ/mol
# Density = 2.098649 g / cm^3
# Si number density = 21.034362 Si / 1000 Ang^3
#
#
#
# Elastic Constant Matrix: (Units=GPa)
#
#
# Indices 1 2 3 4 5 6 
#
# 1 134.1148 18.6095 8.5109 0.0000 0.0000 0.0000
# 2 18.6095 62.0119 -9.2906 0.0000 0.0000 0.0000
# 3 8.5109 -9.2906 36.5744 0.0000 0.0000 0.0000
# 4 0.0000 0.0000 0.0000 -121.3802 0.0000 0.0000
# 5 0.0000 0.0000 0.0000 0.0000 14.6924 0.0000
# 6 0.0000 0.0000 0.0000 0.0000 0.0000 -4.7652
#
#
#
# Elastic Compliance Matrix: (Units=1/GPa)
#
#
# Indices 1 2 3 4 5 6 
#
# 1 0.008006 -0.002788 -0.002571 0.000000 0.000000 0.000000
# 2 -0.002788 0.017735 0.005154 0.000000 0.000000 0.000000
# 3 -0.002571 0.005154 0.029249 0.000000 0.000000 0.000000
# 4 0.000000 0.000000 0.000000 -0.008239 0.000000 0.000000
# 5 0.000000 0.000000 0.000000 0.000000 0.068063 0.000000
# 6 0.000000 0.000000 0.000000 0.000000 0.000000 -0.209855
#
#
# Mechanical properties :
#
#
# Convention : Reuss Voigt Hill
#
# Bulk Modulus (GPa) = 18.32200 29.81783 24.06991
# Shear Modulus (GPa) = -65.41287 -7.96585 -36.68936
#
# Velocity S-wave (km/s) = -5.58262 -1.94815 -4.18096
# Velocity P-wave (km/s) = 5.72929 3.02426 3.44083
#
# Compressibility (1/GPa) = 0.05457921
#
# Stress axis : x y z
#
# Youngs Moduli (GPa) = 124.90149 56.38661 34.18918
#
# Poissons Ratio (x) = 0.15720 0.08791
# Poissons Ratio (y) = 0.34821 -0.17620
# Poissons Ratio (z) = 0.32115 -0.29060
#
# Static dielectric constant tensor:
#      x y z
#    x 1.746810 0.000000 0.000000 
#    y 0.000000 1.798980 0.000000 
#    z 0.000000 0.000000 1.787280 
# 
# From -- ./inp_files/23843.got.cif
#   From: 2010.05.17/outbox.cif.g08.bks.cpg/sg67_12_cif.got.tgz:23843.got - 2010.06.03 18:28:57.
