data_PCOD9501422
_publ_section_title
;
Structure prediction by ZEFSAII (Michael W. Deem and Ramdas Pophale) SiO2 
 PCOD9501422
Probable space group: C M M A
;
_chemical_formula_sum "Si O2"
_cell_formula_units_Z 56
_cell_length_a 16.315883
_cell_length_b 8.417925
_cell_length_c 20.104405
_cell_angle_alpha 90.000000
_cell_angle_beta 90.000000
_cell_angle_gamma 90.000000
_cell_volume 2761.257185
_symmetry_space_group_name_H-M "C M M A"
_symmetry_group_IT_number 67
_symmetry_cell_setting 'orthorhombic'
loop_
_space_group_symop_operation_xyz
x,y,z
-x,1/2-y,z
x,-y,-z
-x,1/2+y,-z
-x,-y,-z
x,1/2+y,-z
-x,y,z
x,1/2-y,z
1/2+x,1/2+y,z
1/2-x,-y,z
1/2+x,1/2-y,-z
1/2-x,y,-z
1/2-x,1/2-y,-z
1/2+x,y,-z
1/2-x,1/2+y,z
1/2+x,-y,z
loop_
_atom_site_type_symbol
_atom_site_label
_atom_site_fract_x
_atom_site_fract_y
_atom_site_fract_z
Si Si1 0.000000 0.060513 0.924559
Si Si2 0.156515 0.059532 0.430351
Si Si3 0.337756 0.059516 0.849175
Si Si4 0.092759 0.056679 0.287990
O O1 0.000000 0.250000 0.923008
O O2 0.082613 0.999159 0.888825
O O3 0.000000 0.000000 0.000000
O O4 0.155477 0.250000 0.431407
O O5 0.115560 0.002590 0.361981
O O6 0.119386 0.000000 0.500000
O O7 0.250000 0.000000 0.428425
O O8 0.338171 0.250000 0.850334
O O9 0.349772 0.004056 0.772382
O O10 0.250000 0.000000 0.874674
O O11 0.095414 0.250000 0.289326
O O12 0.000000 0.009478 0.271902
#
# Coordination Sequence:
#
# PCOD9501422 Si02
#       4
#     8  16  16  16
#     4  12  26  46  70 100 133 168 209 254 309 372
#     4  10  19  32  51  74 107 149 197 250 306 365
#     4  11  22  41  68  97 131 170 212 260 314 373
#     4   9  18  34  57  83 115 157 201 251 311 369
#
# _framework density 20.280615999999998
#
# number of rings (size 3 to 8) (size 9 to 14) (size 15 to 20)
#    0.000    1.714    1.429    4.714    0.000    1.143 
#    0.000    7.143    0.000    0.000    0.000    0.000 
#    0.000    0.000    0.000    0.000    0.000    0.000 
#
# Total GULP energy -156368.963431 kJ/mol
# GULP energy per Si atom -5584.605837 kJ/mol
# Density = 2.023446 g / cm^3
# Si number density = 20.280616 Si / 1000 Ang^3
#
#
#
# Elastic Constant Matrix: (Units=GPa)
#
#
# Indices 1 2 3 4 5 6 
#
# 1 142.7313 31.3062 66.8923 0.0000 0.0000 0.0000
# 2 31.3062 72.6116 33.7109 0.0000 0.0000 0.0000
# 3 66.8923 33.7109 141.3064 0.0000 0.0000 0.0000
# 4 0.0000 0.0000 0.0000 52.8311 0.0000 0.0000
# 5 0.0000 0.0000 0.0000 0.0000 18.3897 0.0000
# 6 0.0000 0.0000 0.0000 0.0000 0.0000 27.6231
#
#
#
# Elastic Compliance Matrix: (Units=1/GPa)
#
#
# Indices 1 2 3 4 5 6 
#
# 1 0.009309 -0.002213 -0.003879 0.000000 0.000000 0.000000
# 2 -0.002213 0.016013 -0.002773 0.000000 0.000000 0.000000
# 3 -0.003879 -0.002773 0.009575 0.000000 0.000000 0.000000
# 4 0.000000 0.000000 0.000000 0.018928 0.000000 0.000000
# 5 0.000000 0.000000 0.000000 0.000000 0.054378 0.000000
# 6 0.000000 0.000000 0.000000 0.000000 0.000000 0.036202
#
#
# Mechanical properties :
#
#
# Convention : Reuss Voigt Hill
#
# Bulk Modulus (GPa) = 58.24755 68.94090 63.59422
# Shear Modulus (GPa) = 29.78724 34.75145 32.26934
#
# Velocity S-wave (km/s) = 3.83659 4.14397 3.99324
# Velocity P-wave (km/s) = 6.95766 7.54745 7.25855
#
# Compressibility (1/GPa) = 0.01716811
#
# Stress axis : x y z
#
# Youngs Moduli (GPa) = 107.41733 62.44840 104.44326
#
# Poissons Ratio (x) = 0.13819 0.40514
# Poissons Ratio (y) = 0.23770 0.28959
# Poissons Ratio (z) = 0.41668 0.17315
#
# Static dielectric constant tensor:
#      x y z
#    x 1.704250 0.000000 0.000000 
#    y 0.000000 1.697950 0.000000 
#    z 0.000000 0.000000 1.747140 
# 
# From -- ./inp_files/33930.got.cif
#   From: 2010.05.17/outbox.cif.g08.bks.cpg/sg67_17_cif.got.tgz:33930.got - 2010.06.03 18:28:57.
