data_PCOD9501040
_publ_section_title
;
Structure prediction by ZEFSAII (Michael W. Deem and Ramdas Pophale) SiO2 
 PCOD9501040
Probable space group: C M M A
;
_chemical_formula_sum "Si O2"
_cell_formula_units_Z 96
_cell_length_a 27.775136
_cell_length_b 8.825786
_cell_length_c 24.723874
_cell_angle_alpha 90.000000
_cell_angle_beta 90.000000
_cell_angle_gamma 90.000000
_cell_volume 6060.746350
_symmetry_space_group_name_H-M "C M M A"
_symmetry_group_IT_number 67
_symmetry_cell_setting 'orthorhombic'
loop_
_space_group_symop_operation_xyz
x,y,z
-x,1/2-y,z
x,-y,-z
-x,1/2+y,-z
-x,-y,-z
x,1/2+y,-z
-x,y,z
x,1/2-y,z
1/2+x,1/2+y,z
1/2-x,-y,z
1/2+x,1/2-y,-z
1/2-x,y,-z
1/2-x,1/2-y,-z
1/2+x,y,-z
1/2-x,1/2+y,z
1/2+x,-y,z
loop_
_atom_site_type_symbol
_atom_site_label
_atom_site_fract_x
_atom_site_fract_y
_atom_site_fract_z
Si Si1 0.354356 0.068001 0.277519
Si Si2 0.196238 0.431535 0.174123
Si Si3 0.055219 0.568907 0.664895
Si Si4 0.198577 0.068683 0.612382
Si Si5 0.401040 0.567856 0.557890
Si Si6 0.196156 0.569166 0.946096
O O1 0.355801 0.250000 0.275410
O O2 0.318413 0.024376 0.326976
O O3 0.335371 0.000537 0.221784
O O4 0.406224 0.004260 0.294640
O O5 0.199392 0.250000 0.179522
O O6 0.250000 0.500000 0.178076
O O7 0.176191 0.465355 0.113696
O O8 0.062081 0.750000 0.663156
O O9 0.066930 0.499818 0.606013
O O10 0.000000 0.537016 0.679537
O O11 0.202460 0.250000 0.611312
O O12 0.154273 0.026044 0.573349
O O13 0.250000 0.000000 0.598554
O O14 0.413768 0.500000 0.500000
O O15 0.404719 0.750000 0.557932
O O16 0.199175 0.750000 0.951977
O O17 0.250000 0.500000 0.944467
O O18 0.172463 0.500000 0.000000
#
# Coordination Sequence:
#
# PCOD9501040 Si02
#       6
#    16  16  16  16  16  16
#     4  10  20  33  49  70  95 123 156 193 233 278
#     4  10  19  29  43  66  96 130 166 201 236 275
#     4  10  21  37  56  75  94 118 147 184 235 287
#     4   9  19  32  46  66  91 121 154 186 222 264
#     4  10  21  36  52  72  96 121 153 189 226 273
#     4   9  16  25  38  57  85 123 164 202 236 270
#
# _framework density 15.839634
#
# number of rings (size 3 to 8) (size 9 to 14) (size 15 to 20)
#    0.000    2.333    0.000    4.500    0.000    9.333 
#    0.000    1.667    0.000    0.000    0.000    0.000 
#    0.000    0.667    0.000    2.167    0.000    3.000 
#
# Total GULP energy -267679.194770 kJ/mol
# GULP energy per Si atom -5576.649891 kJ/mol
# Density = 1.580358 g / cm^3
# Si number density = 15.839634 Si / 1000 Ang^3
#
#
#
# Elastic Constant Matrix: (Units=GPa)
#
#
# Indices 1 2 3 4 5 6 
#
# 1 58.5285 24.6344 27.1051 0.0000 0.0000 0.0000
# 2 24.6344 56.3627 40.5162 0.0000 0.0000 0.0000
# 3 27.1051 40.5162 123.6863 0.0000 0.0000 0.0000
# 4 0.0000 0.0000 0.0000 26.7305 0.0000 0.0000
# 5 0.0000 0.0000 0.0000 0.0000 8.8963 0.0000
# 6 0.0000 0.0000 0.0000 0.0000 0.0000 23.0250
#
#
#
# Elastic Compliance Matrix: (Units=1/GPa)
#
#
# Indices 1 2 3 4 5 6 
#
# 1 0.021355 -0.007808 -0.002122 0.000000 0.000000 0.000000
# 2 -0.007808 0.026062 -0.006826 0.000000 0.000000 0.000000
# 3 -0.002122 -0.006826 0.010786 0.000000 0.000000 0.000000
# 4 0.000000 0.000000 0.000000 0.037410 0.000000 0.000000
# 5 0.000000 0.000000 0.000000 0.000000 0.112406 0.000000
# 6 0.000000 0.000000 0.000000 0.000000 0.000000 0.043431
#
#
# Mechanical properties :
#
#
# Convention : Reuss Voigt Hill
#
# Bulk Modulus (GPa) = 40.50178 47.00987 43.75583
# Shear Modulus (GPa) = 17.05363 21.48516 19.26940
#
# Velocity S-wave (km/s) = 3.28478 3.68695 3.49166
# Velocity P-wave (km/s) = 6.32549 6.91866 6.62871
#
# Compressibility (1/GPa) = 0.02469027
#
# Stress axis : x y z
#
# Youngs Moduli (GPa) = 46.82776 38.37032 92.71263
#
# Poissons Ratio (x) = 0.29960 0.19674
# Poissons Ratio (y) = 0.36564 0.63286
# Poissons Ratio (z) = 0.09937 0.26192
#
# Static dielectric constant tensor:
#      x y z
#    x 1.505760 0.000000 0.000000 
#    y 0.000000 1.527700 0.000000 
#    z 0.000000 0.000000 1.551750 
# 
# From -- ./inp_files/40792.got.cif
#   From: 2010.05.17/outbox.cif.g08.bks.cpg/sg67_21_cif.got.tgz:40792.got - 2010.06.03 18:28:57.
