data_PCOD9501129
_publ_section_title
;
Structure prediction by ZEFSAII (Michael W. Deem and Ramdas Pophale) SiO2 
 PCOD9501129
Probable space group: C M M A
;
_chemical_formula_sum "Si O2"
_cell_formula_units_Z 96
_cell_length_a 13.760858
_cell_length_b 23.954322
_cell_length_c 14.031291
_cell_angle_alpha 90.000000
_cell_angle_beta 90.000000
_cell_angle_gamma 90.000000
_cell_volume 4625.162845
_symmetry_space_group_name_H-M "C M M A"
_symmetry_group_IT_number 67
_symmetry_cell_setting 'orthorhombic'
loop_
_space_group_symop_operation_xyz
x,y,z
-x,1/2-y,z
x,-y,-z
-x,1/2+y,-z
-x,-y,-z
x,1/2+y,-z
-x,y,z
x,1/2-y,z
1/2+x,1/2+y,z
1/2-x,-y,z
1/2+x,1/2-y,-z
1/2-x,y,-z
1/2-x,1/2-y,-z
1/2+x,y,-z
1/2-x,1/2+y,z
1/2+x,-y,z
loop_
_atom_site_type_symbol
_atom_site_label
_atom_site_fract_x
_atom_site_fract_y
_atom_site_fract_z
Si Si1 0.617238 0.312907 0.828456
Si Si2 0.882842 0.472723 0.856074
Si Si3 0.618460 0.412442 0.960375
Si Si4 0.829636 0.375904 0.363005
Si Si5 0.643369 0.497060 0.358858
Si Si6 0.606548 0.117331 0.427450
O O1 0.500000 0.311640 0.833455
O O2 0.653785 0.250000 0.841379
O O3 0.651246 0.356394 0.909120
O O4 0.644120 0.337204 0.725226
O O5 0.854017 0.532730 0.899236
O O6 0.852978 0.470224 0.746936
O O7 0.000000 0.471665 0.854446
O O8 0.851188 0.425497 0.931094
O O9 0.500000 0.411867 0.960675
O O10 0.878142 0.437537 0.344744
O O11 0.711223 0.374359 0.374960
O O12 0.874171 0.360792 0.465888
O O13 0.750000 0.500000 0.398950
O O14 0.596068 0.450252 0.424454
O O15 0.500000 0.138360 0.392059
#
# Coordination Sequence:
#
# PCOD9501129 Si02
#       6
#    16  16  16  16  16  16
#     4  10  19  32  55  84 111 145 189 234 281 331
#     4   9  15  26  47  72 105 143 173 212 276 338
#     4   8  15  27  45  73 106 138 173 219 275 335
#     4  10  20  35  52  76 114 146 183 235 282 337
#     4  10  19  30  48  78 111 142 179 221 275 343
#     4  10  21  34  51  76 108 149 188 226 282 345
#
# _framework density 20.756025999999999
#
# number of rings (size 3 to 8) (size 9 to 14) (size 15 to 20)
#    0.000    2.500    1.667    2.500    0.000    4.667 
#    0.000    3.333    0.000    1.500    0.000   10.500 
#    0.000   10.667    0.000    0.000    0.000    0.000 
#
# Total GULP energy -267384.988331 kJ/mol
# GULP energy per Si atom -5570.520590 kJ/mol
# Density = 2.070878 g / cm^3
# Si number density = 20.756026 Si / 1000 Ang^3
#
#
#
# Elastic Constant Matrix: (Units=GPa)
#
#
# Indices 1 2 3 4 5 6 
#
# 1 100.4776 16.6956 13.2703 0.0000 0.0000 0.0000
# 2 16.6956 112.4976 58.3588 0.0000 0.0000 0.0000
# 3 13.2703 58.3588 124.6440 0.0000 0.0000 0.0000
# 4 0.0000 0.0000 0.0000 19.2449 0.0000 0.0000
# 5 0.0000 0.0000 0.0000 0.0000 17.4952 0.0000
# 6 0.0000 0.0000 0.0000 0.0000 0.0000 15.3222
#
#
#
# Elastic Compliance Matrix: (Units=1/GPa)
#
#
# Indices 1 2 3 4 5 6 
#
# 1 0.010228 -0.001259 -0.000500 0.000000 0.000000 0.000000
# 2 -0.001259 0.011896 -0.005436 0.000000 0.000000 0.000000
# 3 -0.000500 -0.005436 0.010621 0.000000 0.000000 0.000000
# 4 0.000000 0.000000 0.000000 0.051962 0.000000 0.000000
# 5 0.000000 0.000000 0.000000 0.000000 0.057159 0.000000
# 6 0.000000 0.000000 0.000000 0.000000 0.000000 0.065265
#
#
# Mechanical properties :
#
#
# Convention : Reuss Voigt Hill
#
# Bulk Modulus (GPa) = 54.47653 57.14096 55.80874
# Shear Modulus (GPa) = 21.96488 27.03208 24.49848
#
# Velocity S-wave (km/s) = 3.25659 3.61276 3.43929
# Velocity P-wave (km/s) = 6.35953 6.70763 6.53590
#
# Compressibility (1/GPa) = 0.01835653
#
# Stress axis : x y z
#
# Youngs Moduli (GPa) = 97.77473 84.06464 94.15328
#
# Poissons Ratio (x) = 0.10581 0.04703
# Poissons Ratio (y) = 0.12307 0.51178
# Poissons Ratio (z) = 0.04884 0.45694
#
# Static dielectric constant tensor:
#      x y z
#    x 1.834000 0.000000 0.000000 
#    y 0.000000 1.750630 0.000000 
#    z 0.000000 0.000000 1.751100 
# 
# From -- ./inp_files/27148.got.cif
#   From: 2010.05.17/outbox.cif.g08.bks.cpg/sg67_14_cif.got.tgz:27148.got - 2010.06.03 18:28:57.
