data_PCOD9501570
_publ_section_title
;
Structure prediction by ZEFSAII (Michael W. Deem and Ramdas Pophale) SiO2 
 PCOD9501570
Probable space group: C M M A
;
_chemical_formula_sum "Si O2"
_cell_formula_units_Z 104
_cell_length_a 8.866556
_cell_length_b 27.600442
_cell_length_c 24.231444
_cell_angle_alpha 90.000000
_cell_angle_beta 90.000000
_cell_angle_gamma 90.000000
_cell_volume 5929.939927
_symmetry_space_group_name_H-M "C M M A"
_symmetry_group_IT_number 67
_symmetry_cell_setting 'orthorhombic'
loop_
_space_group_symop_operation_xyz
x,y,z
-x,1/2-y,z
x,-y,-z
-x,1/2+y,-z
-x,-y,-z
x,1/2+y,-z
-x,y,z
x,1/2-y,z
1/2+x,1/2+y,z
1/2-x,-y,z
1/2+x,1/2-y,-z
1/2-x,y,-z
1/2-x,1/2-y,-z
1/2+x,y,-z
1/2-x,1/2+y,z
1/2+x,-y,z
loop_
_atom_site_type_symbol
_atom_site_label
_atom_site_fract_x
_atom_site_fract_y
_atom_site_fract_z
Si Si1 0.321754 0.397371 0.165894
Si Si2 0.181311 0.858047 0.938700
Si Si3 0.320283 0.693796 0.558253
Si Si4 0.322625 0.853659 0.336667
Si Si5 0.680989 0.050919 0.731947
Si Si6 0.677641 0.194394 0.778352
Si Si7 0.819379 0.750000 0.939199
O O1 0.500000 0.404521 0.163203
O O2 0.249297 0.395258 0.105211
O O3 0.246262 0.435117 0.207978
O O4 0.280717 0.345290 0.192815
O O5 0.221747 0.803218 0.917253
O O6 0.000000 0.861561 0.941099
O O7 0.250000 0.863320 0.000000
O O8 0.500000 0.692688 0.554066
O O9 0.272584 0.750000 0.567477
O O10 0.250000 0.678048 0.500000
O O11 0.266625 0.662067 0.609604
O O12 0.500000 0.855982 0.350153
O O13 0.278379 0.905072 0.309411
O O14 0.305387 0.814741 0.287142
O O15 0.500000 0.048888 0.734947
O O16 0.750000 0.000000 0.714137
O O17 0.500000 0.184302 0.791830
O O18 0.708780 0.250000 0.792732
O O19 0.000000 0.750000 0.941750
O O20 0.750000 0.750000 0.000000
#
# Coordination Sequence:
#
# PCOD9501570 Si02
#       7
#    16  16  16  16  16  16   8
#     4  11  22  34  50  76 105 136 173 214 259 313
#     4  10  19  33  50  71  99 136 176 216 260 310
#     4  10  20  32  49  76 111 151 190 224 257 298
#     4   9  18  33  53  77 105 137 174 215 263 315
#     4  10  21  39  61  83 105 133 169 216 271 324
#     4   9  18  32  49  70 101 140 176 214 262 312
#     4   8  16  28  44  64  90 128 170 208 245 290
#
# _framework density 17.538121
#
# number of rings (size 3 to 8) (size 9 to 14) (size 15 to 20)
#    0.000    2.308    0.000    4.154    1.077    5.538 
#    0.000    0.000    0.000    0.923    0.000    6.462 
#    0.000    0.000    0.000    0.000    0.000    0.000 
#
# Total GULP energy -290088.743983 kJ/mol
# GULP energy per Si atom -5578.629692 kJ/mol
# Density = 1.749820 g / cm^3
# Si number density = 17.538121 Si / 1000 Ang^3
#
#
#
# Elastic Constant Matrix: (Units=GPa)
#
#
# Indices 1 2 3 4 5 6 
#
# 1 61.0595 23.6994 45.3670 0.0000 0.0000 0.0000
# 2 23.6994 56.8790 25.6370 0.0000 0.0000 0.0000
# 3 45.3670 25.6370 103.2454 0.0000 0.0000 0.0000
# 4 0.0000 0.0000 0.0000 16.8198 0.0000 0.0000
# 5 0.0000 0.0000 0.0000 0.0000 32.1846 0.0000
# 6 0.0000 0.0000 0.0000 0.0000 0.0000 24.4433
#
#
#
# Elastic Compliance Matrix: (Units=1/GPa)
#
#
# Indices 1 2 3 4 5 6 
#
# 1 0.026271 -0.006467 -0.009938 0.000000 0.000000 0.000000
# 2 -0.006467 0.021389 -0.002469 0.000000 0.000000 0.000000
# 3 -0.009938 -0.002469 0.014666 0.000000 0.000000 0.000000
# 4 0.000000 0.000000 0.000000 0.059454 0.000000 0.000000
# 5 0.000000 0.000000 0.000000 0.000000 0.031071 0.000000
# 6 0.000000 0.000000 0.000000 0.000000 0.000000 0.040911
#
#
# Mechanical properties :
#
#
# Convention : Reuss Voigt Hill
#
# Bulk Modulus (GPa) = 40.68847 45.62119 43.15483
# Shear Modulus (GPa) = 20.85915 23.12158 21.99036
#
# Velocity S-wave (km/s) = 3.45245 3.63486 3.54483
# Velocity P-wave (km/s) = 6.25643 6.60949 6.43538
#
# Compressibility (1/GPa) = 0.02457699
#
# Stress axis : x y z
#
# Youngs Moduli (GPa) = 38.06408 46.75352 68.18611
#
# Poissons Ratio (x) = 0.30235 0.67764
# Poissons Ratio (y) = 0.24616 0.16838
# Poissons Ratio (z) = 0.37829 0.11545
#
# Static dielectric constant tensor:
#      x y z
#    x 1.559960 0.000000 0.000000 
#    y 0.000000 1.606120 0.000000 
#    z 0.000000 0.000000 1.596760 
# 
# From -- ./inp_files/37325.got.cif
#   From: 2010.05.17/outbox.cif.g08.bks.cpg/sg67_19_cif.got.tgz:37325.got - 2010.06.03 18:28:57.
