data_PCOD9501842
_publ_section_title
;
Structure prediction by ZEFSAII (Michael W. Deem and Ramdas Pophale) SiO2 
 PCOD9501842
Probable space group: C M M A
;
_chemical_formula_sum "Si O2"
_cell_formula_units_Z 80
_cell_length_a 16.622097
_cell_length_b 15.536163
_cell_length_c 14.412981
_cell_angle_alpha 90.000000
_cell_angle_beta 90.000000
_cell_angle_gamma 90.000000
_cell_volume 3722.060221
_symmetry_space_group_name_H-M "C M M A"
_symmetry_group_IT_number 67
_symmetry_cell_setting 'orthorhombic'
loop_
_space_group_symop_operation_xyz
x,y,z
-x,1/2-y,z
x,-y,-z
-x,1/2+y,-z
-x,-y,-z
x,1/2+y,-z
-x,y,z
x,1/2-y,z
1/2+x,1/2+y,z
1/2-x,-y,z
1/2+x,1/2-y,-z
1/2-x,y,-z
1/2-x,1/2-y,-z
1/2+x,y,-z
1/2-x,1/2+y,z
1/2+x,-y,z
loop_
_atom_site_type_symbol
_atom_site_label
_atom_site_fract_x
_atom_site_fract_y
_atom_site_fract_z
Si Si1 0.845395 0.088506 0.775400
Si Si2 0.754893 0.394664 0.394226
Si Si3 0.801298 0.844115 0.878500
Si Si4 0.907093 0.600396 0.722103
Si Si5 0.588026 0.101278 0.031437
O O1 0.814470 0.132781 0.679585
O O2 0.761218 0.089339 0.833648
O O3 0.903406 0.118012 0.858643
O O4 0.885650 0.999370 0.743367
O O5 0.750000 0.500000 0.393910
O O6 0.750000 0.365485 0.500000
O O7 0.842048 0.370509 0.353860
O O8 0.765095 0.750000 0.866965
O O9 0.881318 0.851773 0.815639
O O10 0.835846 0.858420 0.980143
O O11 0.000000 0.610943 0.698176
O O12 0.500000 0.132408 0.001678
O O13 0.591781 0.000000 0.000000
#
# Coordination Sequence:
#
# PCOD9501842 Si02
#       5
#    16  16  16  16  16
#     4  10  20  35  57  79 109 151 192 230 276 344
#     4   8  16  32  52  79 114 145 183 235 286 337
#     4  11  23  37  56  83 114 149 189 234 280 333
#     4  10  19  34  58  86 112 147 191 237 287 339
#     4  11  22  34  53  80 112 150 190 232 280 334
#
# _framework density 21.493473000000002
#
# number of rings (size 3 to 8) (size 9 to 14) (size 15 to 20)
#    0.000    2.000    2.000    3.600    0.000    4.000 
#    0.000    9.000    0.000   11.400    0.000    0.000 
#    0.000    6.400    0.000    0.000    0.000    0.000 
#
# Total GULP energy -222785.582195 kJ/mol
# GULP energy per Si atom -5569.639555 kJ/mol
# Density = 2.144455 g / cm^3
# Si number density = 21.493473 Si / 1000 Ang^3
#
#
#
# Elastic Constant Matrix: (Units=GPa)
#
#
# Indices 1 2 3 4 5 6 
#
# 1 115.7493 6.8393 23.9693 0.0000 0.0000 0.0000
# 2 6.8393 45.7575 -6.7805 0.0000 0.0000 0.0000
# 3 23.9693 -6.7805 150.4220 0.0000 0.0000 0.0000
# 4 0.0000 0.0000 0.0000 -12.3050 0.0000 0.0000
# 5 0.0000 0.0000 0.0000 0.0000 25.9268 0.0000
# 6 0.0000 0.0000 0.0000 0.0000 0.0000 -2.8240
#
#
#
# Elastic Compliance Matrix: (Units=1/GPa)
#
#
# Indices 1 2 3 4 5 6 
#
# 1 0.009046 -0.001576 -0.001512 0.000000 0.000000 0.000000
# 2 -0.001576 0.022276 0.001255 0.000000 0.000000 0.000000
# 3 -0.001512 0.001255 0.006946 0.000000 0.000000 0.000000
# 4 0.000000 0.000000 0.000000 -0.081268 0.000000 0.000000
# 5 0.000000 0.000000 0.000000 0.000000 0.038570 0.000000
# 6 0.000000 0.000000 0.000000 0.000000 0.000000 -0.354103
#
#
# Mechanical properties :
#
#
# Convention : Reuss Voigt Hill
#
# Bulk Modulus (GPa) = 28.90134 39.99835 34.44985
# Shear Modulus (GPa) = -14.56311 21.35293 3.39491
#
# Velocity S-wave (km/s) = -2.60582 3.15534 1.25815
# Velocity P-wave (km/s) = 2.10286 5.65021 4.26303
#
# Compressibility (1/GPa) = 0.03460047
#
# Stress axis : x y z
#
# Youngs Moduli (GPa) = 110.54991 44.89154 143.97704
#
# Poissons Ratio (x) = 0.07076 0.21776
# Poissons Ratio (y) = 0.17424 -0.18073
# Poissons Ratio (z) = 0.16720 -0.05635
#
# Static dielectric constant tensor:
#      x y z
#    x 1.790890 0.000000 0.000000 
#    y 0.000000 1.834650 0.000000 
#    z 0.000000 0.000000 1.846530 
# 
# From -- ./inp_files/28410.got.cif
#   From: 2010.05.17/outbox.cif.g08.bks.cpg/sg67_15_cif.got.tgz:28410.got - 2010.06.03 18:28:57.
