data_PCOD9501896
_publ_section_title
;
Structure prediction by ZEFSAII (Michael W. Deem and Ramdas Pophale) SiO2 
 PCOD9501896
Probable space group: C M M A
;
_chemical_formula_sum "Si O2"
_cell_formula_units_Z 72
_cell_length_a 22.566727
_cell_length_b 8.582270
_cell_length_c 19.225193
_cell_angle_alpha 90.000000
_cell_angle_beta 90.000000
_cell_angle_gamma 90.000000
_cell_volume 3723.415110
_symmetry_space_group_name_H-M "C M M A"
_symmetry_group_IT_number 67
_symmetry_cell_setting 'orthorhombic'
loop_
_space_group_symop_operation_xyz
x,y,z
-x,1/2-y,z
x,-y,-z
-x,1/2+y,-z
-x,-y,-z
x,1/2+y,-z
-x,y,z
x,1/2-y,z
1/2+x,1/2+y,z
1/2-x,-y,z
1/2+x,1/2-y,-z
1/2-x,y,-z
1/2-x,1/2-y,-z
1/2+x,y,-z
1/2-x,1/2+y,z
1/2+x,-y,z
loop_
_atom_site_type_symbol
_atom_site_label
_atom_site_fract_x
_atom_site_fract_y
_atom_site_fract_z
Si Si1 0.184217 0.565643 0.928764
Si Si2 0.686198 0.938004 0.578831
Si Si3 0.000000 0.436562 0.923310
Si Si4 0.932218 0.560310 0.336523
Si Si5 0.896809 0.437996 0.819500
O O1 0.182605 0.750000 0.933897
O O2 0.250000 0.500000 0.931194
O O3 0.160529 0.511081 0.853993
O O4 0.153842 0.500000 0.000000
O O5 0.688651 0.750000 0.579294
O O6 0.625243 0.987120 0.617903
O O7 0.682360 0.000000 0.500000
O O8 0.750000 0.000000 0.607209
O O9 0.055242 0.485235 0.876899
O O10 0.000000 0.250000 0.926659
O O11 0.000000 0.500000 0.000000
O O12 0.933641 0.750000 0.338874
O O13 0.917434 0.514190 0.257051
O O14 0.000000 0.508992 0.355158
O O15 0.891848 0.250000 0.818452
#
# Coordination Sequence:
#
# PCOD9501896 Si02
#       5
#    16  16   8  16  16
#     4  11  22  37  55  77 105 140 183 233 286 341
#     4  10  20  36  60  87 117 152 191 237 283 342
#     4  10  20  32  52  76 103 140 182 224 269 322
#     4   9  18  35  59  85 115 153 194 234 284 342
#     4  10  19  35  56  79 107 143 183 227 276 334
#
# _framework density 19.337085999999999
#
# number of rings (size 3 to 8) (size 9 to 14) (size 15 to 20)
#    0.000    2.000    1.111    4.667    0.000    4.000 
#    0.000    4.444    0.000    4.667    0.000    0.000 
#    0.000    0.000    0.000    0.000    0.000    0.000 
#
# Total GULP energy -200576.908285 kJ/mol
# GULP energy per Si atom -5571.580786 kJ/mol
# Density = 1.929307 g / cm^3
# Si number density = 19.337086 Si / 1000 Ang^3
#
#
#
# Elastic Constant Matrix: (Units=GPa)
#
#
# Indices 1 2 3 4 5 6 
#
# 1 155.9699 27.0809 76.5491 0.0000 0.0000 0.0000
# 2 27.0809 32.0978 19.4054 0.0000 0.0000 0.0000
# 3 76.5491 19.4054 101.5575 0.0000 0.0000 0.0000
# 4 0.0000 0.0000 0.0000 -15.6592 0.0000 0.0000
# 5 0.0000 0.0000 0.0000 0.0000 27.5852 0.0000
# 6 0.0000 0.0000 0.0000 0.0000 0.0000 13.4953
#
#
#
# Elastic Compliance Matrix: (Units=1/GPa)
#
#
# Indices 1 2 3 4 5 6 
#
# 1 0.010775 -0.004727 -0.007218 0.000000 0.000000 0.000000
# 2 -0.004727 0.037297 -0.003564 0.000000 0.000000 0.000000
# 3 -0.007218 -0.003564 0.015969 0.000000 0.000000 0.000000
# 4 0.000000 0.000000 0.000000 -0.063860 0.000000 0.000000
# 5 0.000000 0.000000 0.000000 0.000000 0.036251 0.000000
# 6 0.000000 0.000000 0.000000 0.000000 0.000000 0.074100
#
#
# Mechanical properties :
#
#
# Convention : Reuss Voigt Hill
#
# Bulk Modulus (GPa) = 30.28223 59.52176 44.90199
# Shear Modulus (GPa) = 32.77446 16.19025 24.48236
#
# Velocity S-wave (km/s) = 4.12138 2.89669 3.56207
# Velocity P-wave (km/s) = 6.19209 6.48350 6.33947
#
# Compressibility (1/GPa) = 0.03302267
#
# Stress axis : x y z
#
# Youngs Moduli (GPa) = 92.80761 26.81150 62.62306
#
# Poissons Ratio (x) = 0.12673 0.45204
# Poissons Ratio (y) = 0.43868 0.22318
# Poissons Ratio (z) = 0.66993 0.09555
#
# Static dielectric constant tensor:
#      x y z
#    x 1.782270 0.000000 0.000000 
#    y 0.000000 1.659270 0.000000 
#    z 0.000000 0.000000 1.659200 
# 
# From -- ./inp_files/39216.got.cif
#   From: 2010.05.17/outbox.cif.g08.bks.cpg/sg67_20_cif.got.tgz:39216.got - 2010.06.03 18:28:57.
