data_PCOD9501854
_publ_section_title
;
Structure prediction by ZEFSAII (Michael W. Deem and Ramdas Pophale) SiO2 
 PCOD9501854
Probable space group: C M M A
;
_chemical_formula_sum "Si O2"
_cell_formula_units_Z 96
_cell_length_a 16.115409
_cell_length_b 24.167387
_cell_length_c 12.538068
_cell_angle_alpha 90.000000
_cell_angle_beta 90.000000
_cell_angle_gamma 90.000000
_cell_volume 4883.167817
_symmetry_space_group_name_H-M "C M M A"
_symmetry_group_IT_number 67
_symmetry_cell_setting 'orthorhombic'
loop_
_space_group_symop_operation_xyz
x,y,z
-x,1/2-y,z
x,-y,-z
-x,1/2+y,-z
-x,-y,-z
x,1/2+y,-z
-x,y,z
x,1/2-y,z
1/2+x,1/2+y,z
1/2-x,-y,z
1/2+x,1/2-y,-z
1/2-x,y,-z
1/2-x,1/2-y,-z
1/2+x,y,-z
1/2-x,1/2+y,z
1/2+x,-y,z
loop_
_atom_site_type_symbol
_atom_site_label
_atom_site_fract_x
_atom_site_fract_y
_atom_site_fract_z
Si Si1 0.348719 0.007283 0.621877
Si Si2 0.904254 0.689530 0.137136
Si Si3 0.600115 0.374548 0.720009
Si Si4 0.170281 0.814901 0.922980
Si Si5 0.900328 0.890418 0.313830
Si Si6 0.899177 0.312409 0.495700
O O1 0.378743 0.954213 0.686447
O O2 0.381230 0.000000 0.500000
O O3 0.250000 0.000000 0.617140
O O4 0.375756 0.064666 0.675743
O O5 0.865289 0.750000 0.156756
O O6 0.867293 0.642300 0.211026
O O7 0.000000 0.693610 0.168931
O O8 0.900794 0.678683 0.012108
O O9 0.500000 0.372744 0.738972
O O10 0.650243 0.354207 0.823948
O O11 0.620151 0.332766 0.622866
O O12 0.172332 0.750000 0.889971
O O13 0.250000 0.825668 0.000000
O O14 0.868866 0.857204 0.417981
O O15 0.000000 0.888136 0.317438
O O16 0.869956 0.250000 0.517748
O O17 0.000000 0.311540 0.503208
#
# Coordination Sequence:
#
# PCOD9501854 Si02
#       6
#    16  16  16  16  16  16
#     4  11  24  40  59  85 122 167 206 251 313 372
#     4   9  18  34  58  86 116 153 195 243 300 364
#     4  11  22  38  64  92 121 161 210 256 306 372
#     4  10  22  39  61  90 124 162 200 248 312 372
#     4  10  19  34  59  86 115 153 201 249 300 366
#     4   9  17  30  54  90 123 148 185 245 306 359
#
# _framework density 19.659369000000002
#
# number of rings (size 3 to 8) (size 9 to 14) (size 15 to 20)
#    0.000    2.000    1.667    2.000    2.333    4.333 
#    0.000    0.833    0.000    4.000    0.000    0.000 
#    0.000    0.000    0.000    0.000    0.000    0.000 
#
# Total GULP energy -267671.487232 kJ/mol
# GULP energy per Si atom -5576.489317 kJ/mol
# Density = 1.961462 g / cm^3
# Si number density = 19.659369 Si / 1000 Ang^3
#
#
#
# Elastic Constant Matrix: (Units=GPa)
#
#
# Indices 1 2 3 4 5 6 
#
# 1 45.6083 14.3836 21.9872 0.0000 0.0000 0.0000
# 2 14.3836 132.5132 68.2049 0.0000 0.0000 0.0000
# 3 21.9872 68.2049 103.7417 0.0000 0.0000 0.0000
# 4 0.0000 0.0000 0.0000 34.5895 0.0000 0.0000
# 5 0.0000 0.0000 0.0000 0.0000 -18.9748 0.0000
# 6 0.0000 0.0000 0.0000 0.0000 0.0000 10.4323
#
#
#
# Elastic Compliance Matrix: (Units=1/GPa)
#
#
# Indices 1 2 3 4 5 6 
#
# 1 0.024421 0.000020 -0.005189 0.000000 0.000000 0.000000
# 2 0.000020 0.011406 -0.007503 0.000000 0.000000 0.000000
# 3 -0.005189 -0.007503 0.015672 0.000000 0.000000 0.000000
# 4 0.000000 0.000000 0.000000 0.028910 0.000000 0.000000
# 5 0.000000 0.000000 0.000000 0.000000 -0.052702 0.000000
# 6 0.000000 0.000000 0.000000 0.000000 0.000000 0.095856
#
#
# Mechanical properties :
#
#
# Convention : Reuss Voigt Hill
#
# Bulk Modulus (GPa) = 38.23373 54.55717 46.39545
# Shear Modulus (GPa) = 31.72037 17.02857 24.37447
#
# Velocity S-wave (km/s) = 4.02120 2.94629 3.52496
# Velocity P-wave (km/s) = 6.40705 6.27580 6.34176
#
# Compressibility (1/GPa) = 0.02615492
#
# Stress axis : x y z
#
# Youngs Moduli (GPa) = 40.94820 87.67183 63.80771
#
# Poissons Ratio (x) = -0.00176 0.33110
# Poissons Ratio (y) = -0.00082 0.47876
# Poissons Ratio (z) = 0.21248 0.65782
#
# Static dielectric constant tensor:
#      x y z
#    x 1.853390 0.000000 0.000000 
#    y 0.000000 1.674630 0.000000 
#    z 0.000000 0.000000 1.691950 
# 
# From -- ./inp_files/19636.got.cif
#   From: 2010.05.17/outbox.cif.g08.bks.cpg/sg67_10_cif.got.tgz:19636.got - 2010.06.03 18:28:57.
