data_PCOD9501713
_publ_section_title
;
Structure prediction by ZEFSAII (Michael W. Deem and Ramdas Pophale) SiO2 
 PCOD9501713
Probable space group: C M M A
;
_chemical_formula_sum "Si O2"
_cell_formula_units_Z 112
_cell_length_a 19.706839
_cell_length_b 18.118384
_cell_length_c 17.816756
_cell_angle_alpha 90.000000
_cell_angle_beta 90.000000
_cell_angle_gamma 90.000000
_cell_volume 6361.580992
_symmetry_space_group_name_H-M "C M M A"
_symmetry_group_IT_number 67
_symmetry_cell_setting 'orthorhombic'
loop_
_space_group_symop_operation_xyz
x,y,z
-x,1/2-y,z
x,-y,-z
-x,1/2+y,-z
-x,-y,-z
x,1/2+y,-z
-x,y,z
x,1/2-y,z
1/2+x,1/2+y,z
1/2-x,-y,z
1/2+x,1/2-y,-z
1/2-x,y,-z
1/2-x,1/2-y,-z
1/2+x,y,-z
1/2-x,1/2+y,z
1/2+x,-y,z
loop_
_atom_site_type_symbol
_atom_site_label
_atom_site_fract_x
_atom_site_fract_y
_atom_site_fract_z
Si Si1 0.187112 0.162016 0.731794
Si Si2 0.321475 0.834933 0.172363
Si Si3 0.921338 0.838479 0.540437
Si Si4 0.079981 0.547990 0.215009
Si Si5 0.801804 0.339482 0.563250
Si Si6 0.919991 0.604958 0.702217
Si Si7 0.828431 0.020772 0.086012
O O1 0.175431 0.250000 0.729283
O O2 0.248522 0.148799 0.789527
O O3 0.119993 0.118795 0.755345
O O4 0.208697 0.136151 0.648345
O O5 0.323163 0.750000 0.148618
O O6 0.376307 0.849203 0.238061
O O7 0.334757 0.892773 0.106138
O O8 0.914962 0.750000 0.552569
O O9 0.875752 0.857882 0.469237
O O10 0.898402 0.877285 0.617331
O O11 0.000000 0.855733 0.527561
O O12 0.087277 0.480344 0.274048
O O13 0.119515 0.520919 0.140690
O O14 0.000000 0.559927 0.202381
O O15 0.795472 0.250000 0.564747
O O16 0.750000 0.366861 0.500000
O O17 0.000000 0.624384 0.707724
O O18 0.750000 0.000000 0.102680
O O19 0.841405 0.000000 0.000000
#
# Coordination Sequence:
#
# PCOD9501713 Si02
#       7
#    16  16  16  16  16  16  16
#     4  10  20  34  53  77 104 140 186 229 268 313
#     4  10  19  33  56  84 110 138 175 220 265 314
#     4   9  16  27  44  68  98 133 172 214 264 316
#     4  10  21  37  56  79 107 143 181 217 264 325
#     4   9  17  29  46  70 100 134 176 227 274 315
#     4   9  18  31  51  77 106 140 177 221 273 321
#     4  10  20  38  61  83 111 142 173 212 265 324
#
# _framework density 17.605687
#
# number of rings (size 3 to 8) (size 9 to 14) (size 15 to 20)
#    0.000    2.429    1.429    1.286    0.000    4.286 
#    0.000    4.286    0.000    3.429    0.000    0.000 
#    0.000    0.000    0.000    0.000    0.000    0.000 
#
# Total GULP energy -312265.225877 kJ/mol
# GULP energy per Si atom -5576.164748 kJ/mol
# Density = 1.756562 g / cm^3
# Si number density = 17.605687 Si / 1000 Ang^3
#
#
#
# Elastic Constant Matrix: (Units=GPa)
#
#
# Indices 1 2 3 4 5 6 
#
# 1 68.2772 27.1701 26.8601 0.0000 0.0000 0.0000
# 2 27.1701 51.0140 47.9733 0.0000 0.0000 0.0000
# 3 26.8601 47.9733 88.0031 0.0000 0.0000 0.0000
# 4 0.0000 0.0000 0.0000 19.4560 0.0000 0.0000
# 5 0.0000 0.0000 0.0000 0.0000 22.2922 0.0000
# 6 0.0000 0.0000 0.0000 0.0000 0.0000 17.1652
#
#
#
# Elastic Compliance Matrix: (Units=1/GPa)
#
#
# Indices 1 2 3 4 5 6 
#
# 1 0.018599 -0.009372 -0.000568 0.000000 0.000000 0.000000
# 2 -0.009372 0.044944 -0.021640 0.000000 0.000000 0.000000
# 3 -0.000568 -0.021640 0.023333 0.000000 0.000000 0.000000
# 4 0.000000 0.000000 0.000000 0.051398 0.000000 0.000000
# 5 0.000000 0.000000 0.000000 0.000000 0.044859 0.000000
# 6 0.000000 0.000000 0.000000 0.000000 0.000000 0.058258
#
#
# Mechanical properties :
#
#
# Convention : Reuss Voigt Hill
#
# Bulk Modulus (GPa) = 42.16406 45.70015 43.93210
# Shear Modulus (GPa) = 16.00228 18.80206 17.40217
#
# Velocity S-wave (km/s) = 3.01811 3.27150 3.14736
# Velocity P-wave (km/s) = 6.01219 6.34699 6.18186
#
# Compressibility (1/GPa) = 0.02371688
#
# Stress axis : x y z
#
# Youngs Moduli (GPa) = 53.76640 22.24991 42.85736
#
# Poissons Ratio (x) = 0.20852 0.02434
# Poissons Ratio (y) = 0.50389 0.92743
# Poissons Ratio (z) = 0.03053 0.48149
#
# Static dielectric constant tensor:
#      x y z
#    x 1.601040 0.000000 0.000000 
#    y 0.000000 1.596070 0.000000 
#    z 0.000000 0.000000 1.582170 
# 
# From -- ./inp_files/35109.got.cif
#   From: 2010.05.17/outbox.cif.g08.bks.cpg/sg67_18_cif.got.tgz:35109.got - 2010.06.03 18:28:57.
