data_PCOD9501007
_publ_section_title
;
Structure prediction by ZEFSAII (Michael W. Deem and Ramdas Pophale) SiO2 
 PCOD9501007
Probable space group: C M M A
;
_chemical_formula_sum "Si O2"
_cell_formula_units_Z 96
_cell_length_a 8.772403
_cell_length_b 28.245989
_cell_length_c 24.935266
_cell_angle_alpha 90.000000
_cell_angle_beta 90.000000
_cell_angle_gamma 90.000000
_cell_volume 6178.589839
_symmetry_space_group_name_H-M "C M M A"
_symmetry_group_IT_number 67
_symmetry_cell_setting 'orthorhombic'
loop_
_space_group_symop_operation_xyz
x,y,z
-x,1/2-y,z
x,-y,-z
-x,1/2+y,-z
-x,-y,-z
x,1/2+y,-z
-x,y,z
x,1/2-y,z
1/2+x,1/2+y,z
1/2-x,-y,z
1/2+x,1/2-y,-z
1/2-x,y,-z
1/2-x,1/2-y,-z
1/2+x,y,-z
1/2-x,1/2+y,z
1/2+x,-y,z
loop_
_atom_site_type_symbol
_atom_site_label
_atom_site_fract_x
_atom_site_fract_y
_atom_site_fract_z
Si Si1 0.816318 0.853233 0.557332
Si Si2 0.317699 0.552957 0.827417
Si Si3 0.685706 0.197046 0.666351
Si Si4 0.315917 0.102396 0.724465
Si Si5 0.816683 0.051062 0.385395
Si Si6 0.182192 0.553173 0.053809
O O1 0.750000 0.840323 0.500000
O O2 0.769629 0.819207 0.606382
O O3 0.769411 0.906485 0.574910
O O4 0.000000 0.852418 0.554892
O O5 0.500000 0.549456 0.823860
O O6 0.250000 0.500000 0.822608
O O7 0.254393 0.584432 0.779425
O O8 0.279626 0.572611 0.887060
O O9 0.500000 0.197186 0.666906
O O10 0.738542 0.250000 0.678740
O O11 0.732151 0.155213 0.706657
O O12 0.500000 0.101544 0.728288
O O13 0.273190 0.068044 0.674710
O O14 0.000000 0.048676 0.386799
O O15 0.750000 0.000000 0.398110
O O16 0.250000 0.500000 0.055148
O O17 0.000000 0.550711 0.048694
O O18 0.250000 0.576299 0.000000
#
# Coordination Sequence:
#
# PCOD9501007 Si02
#       6
#    16  16  16  16  16  16
#     4   9  18  31  45  63  85 106 133 169 206 247
#     4  10  19  28  40  61  89 119 148 178 211 245
#     4   8  15  30  50  67  84 108 136 169 211 257
#     4   9  17  29  45  64  84 108 141 176 210 252
#     4   9  18  30  42  58  81 109 139 170 204 242
#     4   9  16  25  37  54  79 113 149 180 208 238
#
# _framework density 15.537526
#
# number of rings (size 3 to 8) (size 9 to 14) (size 15 to 20)
#    0.000    3.000    0.000    4.000    0.000    5.333 
#    0.000    4.167    0.000    1.500    0.000    0.000 
#    0.000    0.667    0.000    1.500    0.000    2.667 
#
# Total GULP energy -267307.632425 kJ/mol
# GULP energy per Si atom -5568.909009 kJ/mol
# Density = 1.550216 g / cm^3
# Si number density = 15.537526 Si / 1000 Ang^3
#
#
#
# Elastic Constant Matrix: (Units=GPa)
#
#
# Indices 1 2 3 4 5 6 
#
# 1 19.2755 10.4813 26.2651 0.0000 0.0000 0.0000
# 2 10.4813 72.3836 31.3941 0.0000 0.0000 0.0000
# 3 26.2651 31.3941 123.5333 0.0000 0.0000 0.0000
# 4 0.0000 0.0000 0.0000 10.8977 0.0000 0.0000
# 5 0.0000 0.0000 0.0000 0.0000 8.6169 0.0000
# 6 0.0000 0.0000 0.0000 0.0000 0.0000 11.1276
#
#
#
# Elastic Compliance Matrix: (Units=1/GPa)
#
#
# Indices 1 2 3 4 5 6 
#
# 1 0.074260 -0.004389 -0.014673 0.000000 0.000000 0.000000
# 2 -0.004389 0.015786 -0.003079 0.000000 0.000000 0.000000
# 3 -0.014673 -0.003079 0.011997 0.000000 0.000000 0.000000
# 4 0.000000 0.000000 0.000000 0.091763 0.000000 0.000000
# 5 0.000000 0.000000 0.000000 0.000000 0.116051 0.000000
# 6 0.000000 0.000000 0.000000 0.000000 0.000000 0.089866
#
#
# Mechanical properties :
#
#
# Convention : Reuss Voigt Hill
#
# Bulk Modulus (GPa) = 17.31263 39.05262 28.18262
# Shear Modulus (GPa) = 10.79309 15.93190 13.36250
#
# Velocity S-wave (km/s) = 2.63847 3.20563 2.93578
# Velocity P-wave (km/s) = 4.52203 6.23622 5.44698
#
# Compressibility (1/GPa) = 0.05776130
#
# Stress axis : x y z
#
# Youngs Moduli (GPa) = 13.46620 63.34698 83.35288
#
# Poissons Ratio (x) = 0.27802 1.22308
# Poissons Ratio (y) = 0.05910 0.25661
# Poissons Ratio (z) = 0.19760 0.19502
#
# Static dielectric constant tensor:
#      x y z
#    x 1.524970 0.000000 0.000000 
#    y 0.000000 1.503340 0.000000 
#    z 0.000000 0.000000 1.540630 
# 
# From -- ./inp_files/40949.got.cif
#   From: 2010.05.17/outbox.cif.g08.bks.cpg/sg67_21_cif.got.tgz:40949.got - 2010.06.03 18:28:57.
