data_PCOD9501638
_publ_section_title
;
Structure prediction by ZEFSAII (Michael W. Deem and Ramdas Pophale) SiO2 
 PCOD9501638
Probable space group: C M M A
;
_chemical_formula_sum "Si O2"
_cell_formula_units_Z 116
_cell_length_a 8.162828
_cell_length_b 31.399937
_cell_length_c 25.103778
_cell_angle_alpha 90.000000
_cell_angle_beta 90.000000
_cell_angle_gamma 90.000000
_cell_volume 6434.406700
_symmetry_space_group_name_H-M "C M M A"
_symmetry_group_IT_number 67
_symmetry_cell_setting 'orthorhombic'
loop_
_space_group_symop_operation_xyz
x,y,z
-x,1/2-y,z
x,-y,-z
-x,1/2+y,-z
-x,-y,-z
x,1/2+y,-z
-x,y,z
x,1/2-y,z
1/2+x,1/2+y,z
1/2-x,-y,z
1/2+x,1/2-y,-z
1/2-x,y,-z
1/2-x,1/2-y,-z
1/2+x,y,-z
1/2-x,1/2+y,z
1/2+x,-y,z
loop_
_atom_site_type_symbol
_atom_site_label
_atom_site_fract_x
_atom_site_fract_y
_atom_site_fract_z
Si Si1 0.304550 0.136991 0.149280
Si Si2 0.303579 0.297796 0.938683
Si Si3 0.694427 0.202985 0.439258
Si Si4 0.187502 0.684965 0.747667
Si Si5 0.305044 0.452943 0.186747
Si Si6 0.696189 0.952602 0.309195
Si Si7 0.188282 0.369283 0.359793
Si Si8 0.500000 0.750000 0.742174
O O1 0.500000 0.138778 0.159258
O O2 0.268151 0.164542 0.096929
O O3 0.210904 0.159783 0.197420
O O4 0.254223 0.087271 0.150670
O O5 0.500000 0.299267 0.935650
O O6 0.250912 0.250000 0.919959
O O7 0.250000 0.301662 0.000000
O O8 0.500000 0.205721 0.438789
O O9 0.759177 0.250000 0.421108
O O10 0.750000 0.196759 0.500000
O O11 0.740211 0.163931 0.401755
O O12 0.191944 0.653581 0.697416
O O13 0.350113 0.713971 0.742599
O O14 0.000000 0.703239 0.747706
O O15 0.500000 0.453785 0.188260
O O16 0.250000 0.500000 0.169634
O O17 0.247014 0.445609 0.247626
O O18 0.500000 0.950284 0.310273
O O19 0.763118 0.915721 0.348040
O O20 0.750000 0.000000 0.324193
O O21 0.000000 0.375403 0.376292
#
# Coordination Sequence:
#
# PCOD9501638 Si02
#       8
#    16  16  16  16  16  16  16   4
#     4  11  22  37  57  84 118 153 193 243 289 348
#     4  10  22  39  59  83 110 149 196 243 292 344
#     4  10  22  38  59  82 109 146 191 237 285 336
#     4  11  24  39  56  82 117 160 196 237 293 349
#     4  10  20  33  54  81 114 151 190 234 287 346
#     4  10  19  33  53  80 112 148 185 230 282 341
#     4  10  22  37  56  81 115 149 190 237 285 345
#     4  12  26  40  52  78 124 156 202 236 288 356
#
# _framework density 18.028079999999999
#
# number of rings (size 3 to 8) (size 9 to 14) (size 15 to 20)
#    0.000    1.655    2.069    3.103    2.897    4.414 
#    0.000    0.000    0.000    0.828    0.000    5.793 
#    0.000    0.000    0.000    0.000    0.000    0.000 
#
# Total GULP energy -322876.199164 kJ/mol
# GULP energy per Si atom -5566.831020 kJ/mol
# Density = 1.798705 g / cm^3
# Si number density = 18.028080 Si / 1000 Ang^3
#
#
#
# Elastic Constant Matrix: (Units=GPa)
#
#
# Indices 1 2 3 4 5 6 
#
# 1 85.7854 45.2153 12.1494 0.0000 0.0000 0.0000
# 2 45.2153 180.7288 68.0080 0.0000 0.0000 0.0000
# 3 12.1494 68.0080 65.7252 0.0000 0.0000 0.0000
# 4 0.0000 0.0000 0.0000 24.0429 0.0000 0.0000
# 5 0.0000 0.0000 0.0000 0.0000 24.2614 0.0000
# 6 0.0000 0.0000 0.0000 0.0000 0.0000 19.9107
#
#
#
# Elastic Compliance Matrix: (Units=1/GPa)
#
#
# Indices 1 2 3 4 5 6 
#
# 1 0.013535 -0.004004 0.001641 0.000000 0.000000 0.000000
# 2 -0.004004 0.010246 -0.009861 0.000000 0.000000 0.000000
# 3 0.001641 -0.009861 0.025115 0.000000 0.000000 0.000000
# 4 0.000000 0.000000 0.000000 0.041592 0.000000 0.000000
# 5 0.000000 0.000000 0.000000 0.000000 0.041218 0.000000
# 6 0.000000 0.000000 0.000000 0.000000 0.000000 0.050224
#
#
# Mechanical properties :
#
#
# Convention : Reuss Voigt Hill
#
# Bulk Modulus (GPa) = 40.90417 64.77607 52.84012
# Shear Modulus (GPa) = 23.30699 27.43411 25.37055
#
# Velocity S-wave (km/s) = 3.59948 3.90518 3.75544
# Velocity P-wave (km/s) = 6.32561 7.50617 6.94104
#
# Compressibility (1/GPa) = 0.02444739
#
# Stress axis : x y z
#
# Youngs Moduli (GPa) = 73.88347 97.60274 39.81606
#
# Poissons Ratio (x) = 0.39076 -0.06533
# Poissons Ratio (y) = 0.29580 0.39264
# Poissons Ratio (z) = -0.12122 0.96250
#
# Static dielectric constant tensor:
#      x y z
#    x 1.631060 0.000000 0.000000 
#    y 0.000000 1.674480 0.000000 
#    z 0.000000 0.000000 1.550230 
# 
# From -- ./inp_files/41243.got.cif
#   From: 2010.05.17/outbox.cif.g08.bks.cpg/sg67_21_cif.got.tgz:41243.got - 2010.06.03 18:28:57.
