data_PCOD9501015
_publ_section_title
;
Structure prediction by ZEFSAII (Michael W. Deem and Ramdas Pophale) SiO2 
 PCOD9501015
Probable space group: C M M A
;
_chemical_formula_sum "Si O2"
_cell_formula_units_Z 112
_cell_length_a 22.837457
_cell_length_b 24.174955
_cell_length_c 10.397950
_cell_angle_alpha 90.000000
_cell_angle_beta 90.000000
_cell_angle_gamma 90.000000
_cell_volume 5740.650957
_symmetry_space_group_name_H-M "C M M A"
_symmetry_group_IT_number 67
_symmetry_cell_setting 'orthorhombic'
loop_
_space_group_symop_operation_xyz
x,y,z
-x,1/2-y,z
x,-y,-z
-x,1/2+y,-z
-x,-y,-z
x,1/2+y,-z
-x,y,z
x,1/2-y,z
1/2+x,1/2+y,z
1/2-x,-y,z
1/2+x,1/2-y,-z
1/2-x,y,-z
1/2-x,1/2-y,-z
1/2+x,y,-z
1/2-x,1/2+y,z
1/2+x,-y,z
loop_
_atom_site_type_symbol
_atom_site_label
_atom_site_fract_x
_atom_site_fract_y
_atom_site_fract_z
Si Si1 0.429910 0.187306 0.684153
Si Si2 0.070729 0.808995 0.127442
Si Si3 0.569907 0.354323 0.403353
Si Si4 0.365160 0.075671 0.769943
Si Si5 0.258307 0.933874 0.854275
Si Si6 0.932451 0.423083 0.982916
Si Si7 0.119643 0.454148 0.721122
O O1 0.500000 0.183775 0.707803
O O2 0.411811 0.250000 0.724554
O O3 0.419098 0.180279 0.531155
O O4 0.400524 0.131371 0.738910
O O5 0.093912 0.750000 0.085606
O O6 0.088313 0.822807 0.273236
O O7 0.084270 0.858938 0.034384
O O8 0.000000 0.807066 0.129191
O O9 0.500000 0.362938 0.396571
O O10 0.600188 0.414181 0.393829
O O11 0.296393 0.088320 0.773259
O O12 0.374955 0.019095 0.689609
O O13 0.386797 0.055880 0.912276
O O14 0.320649 0.929549 0.784519
O O15 0.250000 0.000000 0.861825
O O16 0.250000 0.912187 0.000000
O O17 0.926396 0.446579 0.838899
O O18 0.000000 0.429520 0.025288
#
# Coordination Sequence:
#
# PCOD9501015 Si02
#       7
#    16  16  16  16  16  16  16
#     4  10  22  39  57  78 108 148 187 223 272 332
#     4   8  14  26  45  68  94 129 174 216 249 293
#     4   9  18  33  54  78 104 136 177 227 277 326
#     4  11  21  33  53  78 109 145 179 219 269 333
#     4   9  17  33  55  78 106 145 184 217 262 323
#     4  10  19  28  44  76 113 140 166 214 276 331
#     4  10  19  33  54  81 107 137 180 225 274 323
#
# _framework density 19.509982000000001
#
# number of rings (size 3 to 8) (size 9 to 14) (size 15 to 20)
#    0.000    2.429    1.429    2.571    0.000    5.714 
#    0.000    3.571    0.000    8.143    0.000    0.000 
#    0.000    0.000    0.000    0.000    0.000    0.000 
#
# Total GULP energy -311929.724633 kJ/mol
# GULP energy per Si atom -5570.173654 kJ/mol
# Density = 1.946558 g / cm^3
# Si number density = 19.509982 Si / 1000 Ang^3
#
#
#
# Elastic Constant Matrix: (Units=GPa)
#
#
# Indices 1 2 3 4 5 6 
#
# 1 62.8327 18.3517 8.0312 0.0000 0.0000 0.0000
# 2 18.3517 135.6798 11.3585 0.0000 0.0000 0.0000
# 3 8.0312 11.3585 22.6591 0.0000 0.0000 0.0000
# 4 0.0000 0.0000 0.0000 9.2572 0.0000 0.0000
# 5 0.0000 0.0000 0.0000 0.0000 11.0352 0.0000
# 6 0.0000 0.0000 0.0000 0.0000 0.0000 1.9057
#
#
#
# Elastic Compliance Matrix: (Units=1/GPa)
#
#
# Indices 1 2 3 4 5 6 
#
# 1 0.017121 -0.001887 -0.005122 0.000000 0.000000 0.000000
# 2 -0.001887 0.007901 -0.003292 0.000000 0.000000 0.000000
# 3 -0.005122 -0.003292 0.047598 0.000000 0.000000 0.000000
# 4 0.000000 0.000000 0.000000 0.108024 0.000000 0.000000
# 5 0.000000 0.000000 0.000000 0.000000 0.090619 0.000000
# 6 0.000000 0.000000 0.000000 0.000000 0.000000 0.524749
#
#
# Mechanical properties :
#
#
# Convention : Reuss Voigt Hill
#
# Bulk Modulus (GPa) = 19.22417 32.96162 26.09290
# Shear Modulus (GPa) = 5.99554 16.66830 11.33192
#
# Velocity S-wave (km/s) = 1.75492 2.92609 2.41265
# Velocity P-wave (km/s) = 3.73915 5.32423 4.60047
#
# Compressibility (1/GPa) = 0.05201784
#
# Stress axis : x y z
#
# Youngs Moduli (GPa) = 58.40733 126.56475 21.00922
#
# Poissons Ratio (x) = 0.23882 0.10762
# Poissons Ratio (y) = 0.11021 0.06916
# Poissons Ratio (z) = 0.29919 0.41663
#
# Static dielectric constant tensor:
#      x y z
#    x 1.679410 0.000000 0.000000 
#    y 0.000000 1.784900 0.000000 
#    z 0.000000 0.000000 1.711300 
# 
# From -- ./inp_files/22291.got.cif
#   From: 2010.05.17/outbox.cif.g08.bks.cpg/sg67_12_cif.got.tgz:22291.got - 2010.06.03 18:28:57.
