data_PCOD9501883
_publ_section_title
;
Structure prediction by ZEFSAII (Michael W. Deem and Ramdas Pophale) SiO2 
 PCOD9501883
Probable space group: C M M A
;
_chemical_formula_sum "Si O2"
_cell_formula_units_Z 92
_cell_length_a 30.163975
_cell_length_b 9.206490
_cell_length_c 18.699561
_cell_angle_alpha 90.000000
_cell_angle_beta 90.000000
_cell_angle_gamma 90.000000
_cell_volume 5192.949137
_symmetry_space_group_name_H-M "C M M A"
_symmetry_group_IT_number 67
_symmetry_cell_setting 'orthorhombic'
loop_
_space_group_symop_operation_xyz
x,y,z
-x,1/2-y,z
x,-y,-z
-x,1/2+y,-z
-x,-y,-z
x,1/2+y,-z
-x,y,z
x,1/2-y,z
1/2+x,1/2+y,z
1/2-x,-y,z
1/2+x,1/2-y,-z
1/2-x,y,-z
1/2-x,1/2-y,-z
1/2+x,y,-z
1/2-x,1/2+y,z
1/2+x,-y,z
loop_
_atom_site_type_symbol
_atom_site_label
_atom_site_fract_x
_atom_site_fract_y
_atom_site_fract_z
Si Si1 0.000000 0.073545 0.576658
Si Si2 0.295557 0.423755 0.776741
Si Si3 0.947471 0.077686 0.075990
Si Si4 0.177910 0.913145 0.613109
Si Si5 0.250000 0.500000 0.500000
Si Si6 0.385249 0.924874 0.808615
Si Si7 0.406920 0.577177 0.643515
O O1 0.045173 0.028307 0.616370
O O2 0.000000 0.250000 0.571602
O O3 0.000000 0.000000 0.500000
O O4 0.294939 0.250000 0.788139
O O5 0.250000 0.500000 0.798528
O O6 0.302028 0.449356 0.691156
O O7 0.337123 0.500710 0.814349
O O8 0.937411 0.250000 0.072489
O O9 0.000000 0.062704 0.091626
O O10 0.918645 0.997293 0.135699
O O11 0.939301 0.000000 0.000000
O O12 0.160618 0.750000 0.617391
O O13 0.216112 0.920591 0.553748
O O14 0.135319 0.013761 0.601577
O O15 0.382995 0.750000 0.817131
O O16 0.400977 0.956994 0.727397
O O17 0.405106 0.750000 0.636319
#
# Coordination Sequence:
#
# PCOD9501883 Si02
#       7
#     8  16  16  16   4  16  16
#     4  10  22  40  56  76 103 142 185 232 285 336
#     4  10  19  35  55  78 109 144 185 232 280 333
#     4  10  21  37  58  88 124 158 190 229 276 331
#     4  10  22  36  53  76 104 137 179 228 282 340
#     4  12  22  36  52  80 106 140 182 230 298 350
#     4  10  20  35  59  86 112 149 190 233 282 335
#     4   9  21  39  58  78 108 143 186 233 281 338
#
# _framework density 17.716331
#
# number of rings (size 3 to 8) (size 9 to 14) (size 15 to 20)
#    0.000    2.087    0.870    1.826    2.435    4.522 
#    0.000    0.000    0.000    0.522    0.000    3.652 
#    0.000    0.000    0.000    0.000    0.000    0.000 
#
# Total GULP energy -256604.129998 kJ/mol
# GULP energy per Si atom -5578.350652 kJ/mol
# Density = 1.767601 g / cm^3
# Si number density = 17.716331 Si / 1000 Ang^3
#
#
#
# Elastic Constant Matrix: (Units=GPa)
#
#
# Indices 1 2 3 4 5 6 
#
# 1 156.1838 70.7335 66.4241 0.0000 0.0000 0.0000
# 2 70.7335 73.4149 44.7072 0.0000 0.0000 0.0000
# 3 66.4241 44.7072 70.2829 0.0000 0.0000 0.0000
# 4 0.0000 0.0000 0.0000 22.9146 0.0000 0.0000
# 5 0.0000 0.0000 0.0000 0.0000 33.1717 0.0000
# 6 0.0000 0.0000 0.0000 0.0000 0.0000 13.7362
#
#
#
# Elastic Compliance Matrix: (Units=1/GPa)
#
#
# Indices 1 2 3 4 5 6 
#
# 1 0.013268 -0.008402 -0.007195 0.000000 0.000000 0.000000
# 2 -0.008402 0.027554 -0.009587 0.000000 0.000000 0.000000
# 3 -0.007195 -0.009587 0.027126 0.000000 0.000000 0.000000
# 4 0.000000 0.000000 0.000000 0.043640 0.000000 0.000000
# 5 0.000000 0.000000 0.000000 0.000000 0.030146 0.000000
# 6 0.000000 0.000000 0.000000 0.000000 0.000000 0.072801
#
#
# Mechanical properties :
#
#
# Convention : Reuss Voigt Hill
#
# Bulk Modulus (GPa) = 56.87884 73.73457 65.30671
# Shear Modulus (GPa) = 18.46637 21.83226 20.14932
#
# Velocity S-wave (km/s) = 3.23203 3.51426 3.37609
# Velocity P-wave (km/s) = 6.78992 7.62736 7.22079
#
# Compressibility (1/GPa) = 0.01758123
#
# Stress axis : x y z
#
# Youngs Moduli (GPa) = 75.37127 36.29228 36.86450
#
# Poissons Ratio (x) = 0.30491 0.26524
# Poissons Ratio (y) = 0.63324 0.35342
# Poissons Ratio (z) = 0.54229 0.34793
#
# Static dielectric constant tensor:
#      x y z
#    x 1.602870 0.000000 0.000000 
#    y 0.000000 1.598690 0.000000 
#    z 0.000000 0.000000 1.589730 
# 
# From -- ./inp_files/39899.got.cif
#   From: 2010.05.17/outbox.cif.g08.bks.cpg/sg67_20_cif.got.tgz:39899.got - 2010.06.03 18:28:57.
