data_PCOD9501974
_publ_section_title
;
Structure prediction by ZEFSAII (Michael W. Deem and Ramdas Pophale) SiO2 
 PCOD9501974
Probable space group: C M M A
;
_chemical_formula_sum "Si O2"
_cell_formula_units_Z 112
_cell_length_a 27.027612
_cell_length_b 14.195044
_cell_length_c 13.547644
_cell_angle_alpha 90.000000
_cell_angle_beta 90.000000
_cell_angle_gamma 90.000000
_cell_volume 5197.663919
_symmetry_space_group_name_H-M "C M M A"
_symmetry_group_IT_number 67
_symmetry_cell_setting 'orthorhombic'
loop_
_space_group_symop_operation_xyz
x,y,z
-x,1/2-y,z
x,-y,-z
-x,1/2+y,-z
-x,-y,-z
x,1/2+y,-z
-x,y,z
x,1/2-y,z
1/2+x,1/2+y,z
1/2-x,-y,z
1/2+x,1/2-y,-z
1/2-x,y,-z
1/2-x,1/2-y,-z
1/2+x,y,-z
1/2-x,1/2+y,z
1/2+x,-y,z
loop_
_atom_site_type_symbol
_atom_site_label
_atom_site_fract_x
_atom_site_fract_y
_atom_site_fract_z
Si Si1 0.367257 0.356512 0.622477
Si Si2 0.445589 0.107627 0.464290
Si Si3 0.221490 0.863493 0.747177
Si Si4 0.085373 0.033823 0.734029
Si Si5 0.823631 0.364741 0.836264
Si Si6 0.662917 0.140173 0.940103
Si Si7 0.552165 0.576966 0.085479
O O1 0.375133 0.250000 0.664218
O O2 0.395784 0.354487 0.517338
O O3 0.309237 0.378693 0.645566
O O4 0.393057 0.442638 0.677527
O O5 0.500000 0.148245 0.490552
O O6 0.439107 0.101309 0.347010
O O7 0.447991 0.000000 0.500000
O O8 0.224888 0.750000 0.753453
O O9 0.277113 0.896055 0.768942
O O10 0.189368 0.897900 0.841668
O O11 0.127495 0.091676 0.789925
O O12 0.052338 0.984272 0.815435
O O13 0.826293 0.250000 0.836114
O O14 0.821045 0.396064 0.951627
O O15 0.676284 0.250000 0.942863
O O16 0.604006 0.130782 0.924573
O O17 0.500000 0.630995 0.079094
O O18 0.553384 0.500000 0.000000
#
# Coordination Sequence:
#
# PCOD9501974 Si02
#       7
#    16  16  16  16  16  16  16
#     4  10  21  38  60  88 121 152 197 258 315 370
#     4   9  20  39  61  84 112 151 198 253 311 366
#     4   9  18  35  58  87 123 160 200 258 316 364
#     4  11  21  38  62  89 122 160 206 253 305 371
#     4  10  21  36  58  87 124 167 209 251 305 369
#     4  10  19  36  58  85 121 162 207 252 301 372
#     4  11  22  36  54  82 123 163 197 246 307 362
#
# _framework density 21.548141000000001
#
# number of rings (size 3 to 8) (size 9 to 14) (size 15 to 20)
#    0.000    2.000    2.857    0.857    0.000    4.000 
#    0.000    0.714    0.000    6.429    0.000    0.000 
#    0.000    0.000    0.000    0.000    0.000    0.000 
#
# Total GULP energy -311897.118750 kJ/mol
# GULP energy per Si atom -5569.591406 kJ/mol
# Density = 2.149910 g / cm^3
# Si number density = 21.548141 Si / 1000 Ang^3
#
#
#
# Elastic Constant Matrix: (Units=GPa)
#
#
# Indices 1 2 3 4 5 6 
#
# 1 69.5377 1.8510 -3.7158 0.0000 0.0000 0.0000
# 2 1.8510 59.4890 1.8349 0.0000 0.0000 0.0000
# 3 -3.7158 1.8349 67.3523 0.0000 0.0000 0.0000
# 4 0.0000 0.0000 0.0000 24.7528 0.0000 0.0000
# 5 0.0000 0.0000 0.0000 0.0000 24.5454 0.0000
# 6 0.0000 0.0000 0.0000 0.0000 0.0000 -25.2095
#
#
#
# Elastic Compliance Matrix: (Units=1/GPa)
#
#
# Indices 1 2 3 4 5 6 
#
# 1 0.014437 -0.000474 0.000809 0.000000 0.000000 0.000000
# 2 -0.000474 0.016840 -0.000485 0.000000 0.000000 0.000000
# 3 0.000809 -0.000485 0.014905 0.000000 0.000000 0.000000
# 4 0.000000 0.000000 0.000000 0.040399 0.000000 0.000000
# 5 0.000000 0.000000 0.000000 0.000000 0.040741 0.000000
# 6 0.000000 0.000000 0.000000 0.000000 0.000000 -0.039668
#
#
# Mechanical properties :
#
#
# Convention : Reuss Voigt Hill
#
# Bulk Modulus (GPa) = 21.79509 21.81323 21.80416
# Shear Modulus (GPa) = 48.42742 17.91167 33.16955
#
# Velocity S-wave (km/s) = 4.74582 2.88625 3.92768
# Velocity P-wave (km/s) = 6.33775 4.61002 5.54163
#
# Compressibility (1/GPa) = 0.04588190
#
# Stress axis : x y z
#
# Youngs Moduli (GPa) = 69.26858 59.38401 67.09079
#
# Poissons Ratio (x) = 0.02816 -0.05430
# Poissons Ratio (y) = 0.03284 0.03253
# Poissons Ratio (z) = -0.05606 0.02880
#
# Static dielectric constant tensor:
#      x y z
#    x 1.826670 0.000000 0.000000 
#    y 0.000000 1.793710 0.000000 
#    z 0.000000 0.000000 1.662580 
# 
# From -- ./inp_files/30829.got.cif
#   From: 2010.05.17/outbox.cif.g08.bks.cpg/sg67_16_cif.got.tgz:30829.got - 2010.06.03 18:28:57.
