data_PCOD9501326
_publ_section_title
;
Structure prediction by ZEFSAII (Michael W. Deem and Ramdas Pophale) SiO2 
 PCOD9501326
Probable space group: C M M A
;
_chemical_formula_sum "Si O2"
_cell_formula_units_Z 80
_cell_length_a 14.439840
_cell_length_b 7.774618
_cell_length_c 31.412434
_cell_angle_alpha 90.000000
_cell_angle_beta 90.000000
_cell_angle_gamma 90.000000
_cell_volume 3526.493029
_symmetry_space_group_name_H-M "C M M A"
_symmetry_group_IT_number 67
_symmetry_cell_setting 'orthorhombic'
loop_
_space_group_symop_operation_xyz
x,y,z
-x,1/2-y,z
x,-y,-z
-x,1/2+y,-z
-x,-y,-z
x,1/2+y,-z
-x,y,z
x,1/2-y,z
1/2+x,1/2+y,z
1/2-x,-y,z
1/2+x,1/2-y,-z
1/2-x,y,-z
1/2-x,1/2-y,-z
1/2+x,y,-z
1/2-x,1/2+y,z
1/2+x,-y,z
loop_
_atom_site_type_symbol
_atom_site_label
_atom_site_fract_x
_atom_site_fract_y
_atom_site_fract_z
Si Si1 0.387018 0.056381 0.547566
Si Si2 0.109742 0.944592 0.861323
Si Si3 0.386382 0.750000 0.706216
Si Si4 0.387088 0.549611 0.231431
Si Si5 0.857056 0.047252 0.045961
Si Si6 0.113468 0.250000 0.608798
O O1 0.500000 0.057171 0.547792
O O2 0.355756 0.250000 0.556256
O O3 0.359907 0.000000 0.500000
O O4 0.357635 0.917696 0.582300
O O5 0.150106 0.750000 0.863644
O O6 0.141067 0.017107 0.815887
O O7 0.119863 0.030140 0.907623
O O8 0.000000 0.927938 0.856738
O O9 0.500000 0.750000 0.705811
O O10 0.356245 0.581229 0.732306
O O11 0.355011 0.750000 0.657480
O O12 0.500000 0.548926 0.232990
O O13 0.359507 0.750000 0.236147
O O14 0.873872 0.250000 0.049643
O O15 0.750000 0.000000 0.042291
O O16 0.898825 0.000000 0.000000
O O17 0.000000 0.250000 0.609309
#
# Coordination Sequence:
#
# PCOD9501326 Si02
#       6
#    16  16   8  16  16   8
#     4   9  14  20  29  38  52  78 113 154 197 240
#     4   8  15  29  48  65  82 110 145 177 214 261
#     4   9  16  24  34  52  74  93 121 161 206 257
#     4   8  14  26  41  55  74  98 125 163 209 253
#     4  10  19  32  47  64  90 118 142 172 215 264
#     4   9  16  22  28  42  62  84 113 151 199 250
#
# _framework density 22.685427000000001
#
# number of rings (size 3 to 8) (size 9 to 14) (size 15 to 20)
#    0.000    3.200    1.000    2.400    0.000    1.200 
#    3.600    4.000    0.000    0.000    0.000    0.000 
#    0.000    0.000    0.000    0.000    0.000    0.000 
#
# Total GULP energy -222956.173921 kJ/mol
# GULP energy per Si atom -5573.904348 kJ/mol
# Density = 2.263379 g / cm^3
# Si number density = 22.685427 Si / 1000 Ang^3
#
#
#
# Elastic Constant Matrix: (Units=GPa)
#
#
# Indices 1 2 3 4 5 6 
#
# 1 55.9878 3.7928 7.2927 0.0000 0.0000 0.0000
# 2 3.7928 144.4136 120.8903 0.0000 0.0000 0.0000
# 3 7.2927 120.8903 286.5193 0.0000 0.0000 0.0000
# 4 0.0000 0.0000 0.0000 32.9251 0.0000 0.0000
# 5 0.0000 0.0000 0.0000 0.0000 17.6367 0.0000
# 6 0.0000 0.0000 0.0000 0.0000 0.0000 -0.2915
#
#
#
# Elastic Compliance Matrix: (Units=1/GPa)
#
#
# Indices 1 2 3 4 5 6 
#
# 1 0.017922 -0.000137 -0.000398 0.000000 0.000000 0.000000
# 2 -0.000137 0.010707 -0.004514 0.000000 0.000000 0.000000
# 3 -0.000398 -0.004514 0.005405 0.000000 0.000000 0.000000
# 4 0.000000 0.000000 0.000000 0.030372 0.000000 0.000000
# 5 0.000000 0.000000 0.000000 0.000000 0.056700 0.000000
# 6 0.000000 0.000000 0.000000 0.000000 0.000000 -3.430870
#
#
# Mechanical properties :
#
#
# Convention : Reuss Voigt Hill
#
# Bulk Modulus (GPa) = 41.78015 83.43026 62.60521
# Shear Modulus (GPa) = -1.51898 33.71705 16.09904
#
# Velocity S-wave (km/s) = -0.81917 3.85942 2.66684
# Velocity P-wave (km/s) = 4.19076 7.53107 6.09424
#
# Compressibility (1/GPa) = 0.02393481
#
# Stress axis : x y z
#
# Youngs Moduli (GPa) = 55.79667 93.39749 185.01716
#
# Poissons Ratio (x) = 0.01283 0.07368
# Poissons Ratio (y) = 0.00766 0.83518
# Poissons Ratio (z) = 0.02222 0.42160
#
# Static dielectric constant tensor:
#      x y z
#    x 1.883600 0.000000 0.000000 
#    y 0.000000 1.827440 0.000000 
#    z 0.000000 0.000000 1.860900 
# 
# From -- ./inp_files/42313.got.cif
#   From: 2010.05.17/outbox.cif.g08.bks.cpg/sg67_22_cif.got.tgz:42313.got - 2010.06.03 18:28:57.
