data_PCOD9501708
_publ_section_title
;
Structure prediction by ZEFSAII (Michael W. Deem and Ramdas Pophale) SiO2 
 PCOD9501708
Probable space group: C M M A
;
_chemical_formula_sum "Si O2"
_cell_formula_units_Z 112
_cell_length_a 15.512912
_cell_length_b 15.031866
_cell_length_c 22.111005
_cell_angle_alpha 90.000000
_cell_angle_beta 90.000000
_cell_angle_gamma 90.000000
_cell_volume 5156.021354
_symmetry_space_group_name_H-M "C M M A"
_symmetry_group_IT_number 67
_symmetry_cell_setting 'orthorhombic'
loop_
_space_group_symop_operation_xyz
x,y,z
-x,1/2-y,z
x,-y,-z
-x,1/2+y,-z
-x,-y,-z
x,1/2+y,-z
-x,y,z
x,1/2-y,z
1/2+x,1/2+y,z
1/2-x,-y,z
1/2+x,1/2-y,-z
1/2-x,y,-z
1/2-x,1/2-y,-z
1/2+x,y,-z
1/2-x,1/2+y,z
1/2+x,-y,z
loop_
_atom_site_type_symbol
_atom_site_label
_atom_site_fract_x
_atom_site_fract_y
_atom_site_fract_z
Si Si1 0.094753 0.351477 0.884513
Si Si2 0.171695 0.349781 0.586501
Si Si3 0.281422 0.857214 0.130198
Si Si4 0.628014 0.649560 0.451988
Si Si5 0.904508 0.898154 0.979181
Si Si6 0.396776 0.646147 0.245704
Si Si7 0.903754 0.512004 0.648879
O O1 0.091218 0.250000 0.861479
O O2 0.184219 0.394670 0.862950
O O3 0.000000 0.393299 0.872103
O O4 0.104314 0.347650 0.957340
O O5 0.151903 0.250000 0.608327
O O6 0.270784 0.351548 0.565600
O O7 0.119923 0.365518 0.523744
O O8 0.153129 0.426807 0.633740
O O9 0.272896 0.750000 0.127626
O O10 0.329414 0.883672 0.068596
O O11 0.343146 0.877259 0.186235
O O12 0.597297 0.750000 0.438385
O O13 0.590775 0.572544 0.411110
O O14 0.000000 0.876331 0.953342
O O15 0.904396 0.000000 0.000000
O O16 0.500000 0.639787 0.235545
O O17 0.378965 0.750000 0.261841
O O18 0.372945 0.578896 0.299161
O O19 0.000000 0.481083 0.664994
#
# Coordination Sequence:
#
# PCOD9501708 Si02
#       7
#    16  16  16  16  16  16  16
#     4   9  18  32  51  79 113 145 180 227 286 351
#     4   9  19  35  55  81 114 156 201 242 284 345
#     4  10  19  33  56  82 109 148 195 239 291 357
#     4   9  18  34  56  81 113 153 198 247 294 342
#     4  10  20  32  50  79 115 151 184 232 293 348
#     4   9  19  35  54  80 113 148 195 253 304 356
#     4  11  21  32  52  84 121 156 189 240 304 356
#
# _framework density 21.722176000000001
#
# number of rings (size 3 to 8) (size 9 to 14) (size 15 to 20)
#    0.000    2.429    0.000    3.429    0.000    7.143 
#    0.000    1.429    6.286    0.000    0.000    1.000 
#    0.000    4.571    0.000    0.571    0.000    0.000 
#
# Total GULP energy -312680.392961 kJ/mol
# GULP energy per Si atom -5583.578446 kJ/mol
# Density = 2.167273 g / cm^3
# Si number density = 21.722176 Si / 1000 Ang^3
#
#
#
# Elastic Constant Matrix: (Units=GPa)
#
#
# Indices 1 2 3 4 5 6 
#
# 1 108.5683 36.3141 42.4505 0.0000 0.0000 0.0000
# 2 36.3141 80.7450 41.6106 0.0000 0.0000 0.0000
# 3 42.4505 41.6106 57.9855 0.0000 0.0000 0.0000
# 4 0.0000 0.0000 0.0000 12.2662 0.0000 0.0000
# 5 0.0000 0.0000 0.0000 0.0000 25.3700 0.0000
# 6 0.0000 0.0000 0.0000 0.0000 0.0000 24.0646
#
#
#
# Elastic Compliance Matrix: (Units=1/GPa)
#
#
# Indices 1 2 3 4 5 6 
#
# 1 0.013018 -0.001497 -0.008456 0.000000 0.000000 0.000000
# 2 -0.001497 0.019824 -0.013130 0.000000 0.000000 0.000000
# 3 -0.008456 -0.013130 0.032858 0.000000 0.000000 0.000000
# 4 0.000000 0.000000 0.000000 0.081525 0.000000 0.000000
# 5 0.000000 0.000000 0.000000 0.000000 0.039417 0.000000
# 6 0.000000 0.000000 0.000000 0.000000 0.000000 0.041555
#
#
# Mechanical properties :
#
#
# Convention : Reuss Voigt Hill
#
# Bulk Modulus (GPa) = 51.19150 54.22769 52.70960
# Shear Modulus (GPa) = 17.80153 20.80171 19.30162
#
# Velocity S-wave (km/s) = 2.86581 3.09791 2.98412
# Velocity P-wave (km/s) = 5.87947 6.14935 6.01592
#
# Compressibility (1/GPa) = 0.01953449
#
# Stress axis : x y z
#
# Youngs Moduli (GPa) = 76.81787 50.44315 30.43358
#
# Poissons Ratio (x) = 0.07551 0.25735
# Poissons Ratio (y) = 0.11499 0.39960
# Poissons Ratio (z) = 0.64957 0.66232
#
# Static dielectric constant tensor:
#      x y z
#    x 1.873200 0.000000 0.000000 
#    y 0.000000 1.826620 0.000000 
#    z 0.000000 0.000000 1.750680 
# 
# From -- ./inp_files/41932.got.cif
#   From: 2010.05.17/outbox.cif.g08.bks.cpg/sg67_21_cif.got.tgz:41932.got - 2010.06.03 18:28:57.
