data_PCOD9501660
_publ_section_title
;
Structure prediction by ZEFSAII (Michael W. Deem and Ramdas Pophale) SiO2 
 PCOD9501660
Probable space group: C M M A
;
_chemical_formula_sum "Si O2"
_cell_formula_units_Z 80
_cell_length_a 27.909138
_cell_length_b 8.634298
_cell_length_c 19.096076
_cell_angle_alpha 90.000000
_cell_angle_beta 90.000000
_cell_angle_gamma 90.000000
_cell_volume 4601.692466
_symmetry_space_group_name_H-M "C M M A"
_symmetry_group_IT_number 67
_symmetry_cell_setting 'orthorhombic'
loop_
_space_group_symop_operation_xyz
x,y,z
-x,1/2-y,z
x,-y,-z
-x,1/2+y,-z
-x,-y,-z
x,1/2+y,-z
-x,y,z
x,1/2-y,z
1/2+x,1/2+y,z
1/2-x,-y,z
1/2+x,1/2-y,-z
1/2-x,y,-z
1/2-x,1/2-y,-z
1/2+x,y,-z
1/2-x,1/2+y,z
1/2+x,-y,z
loop_
_atom_site_type_symbol
_atom_site_label
_atom_site_fract_x
_atom_site_fract_y
_atom_site_fract_z
Si Si1 0.348242 0.936286 0.075536
Si Si2 0.894699 0.935835 0.712986
Si Si3 0.801702 0.434700 0.785094
Si Si4 0.556100 0.064621 0.424438
Si Si5 0.446662 0.062133 0.855596
O O1 0.346111 0.750000 0.076652
O O2 0.403028 0.986053 0.094239
O O3 0.315801 0.001303 0.138053
O O4 0.334509 0.000000 0.000000
O O5 0.891479 0.750000 0.712734
O O6 0.930742 0.980215 0.776621
O O7 0.843478 0.005455 0.733961
O O8 0.914166 0.995942 0.639604
O O9 0.801098 0.250000 0.786433
O O10 0.750000 0.500000 0.765134
O O11 0.500000 0.021367 0.415118
O O12 0.559513 0.250000 0.424525
O O13 0.571407 0.000000 0.500000
O O14 0.500000 0.004469 0.872319
O O15 0.447912 0.250000 0.858109
#
# Coordination Sequence:
#
# PCOD9501660 Si02
#       5
#    16  16  16  16  16
#     4  10  20  34  51  74 103 135 172 214 262 314
#     4  10  19  33  54  79 107 139 175 216 262 311
#     4  11  22  38  58  79 102 130 169 216 266 318
#     4  10  20  33  51  79 114 150 185 219 257 302
#     4   8  15  28  47  71 100 135 172 208 249 300
#
# _framework density 17.384907999999999
#
# number of rings (size 3 to 8) (size 9 to 14) (size 15 to 20)
#    0.000    2.200    0.000    5.400    0.000    2.800 
#    0.000    2.000    0.000   12.000    0.000    4.200 
#    0.000    0.000    0.000    0.000    0.000    0.000 
#
# Total GULP energy -223293.100057 kJ/mol
# GULP energy per Si atom -5582.327501 kJ/mol
# Density = 1.734534 g / cm^3
# Si number density = 17.384908 Si / 1000 Ang^3
#
#
#
# Elastic Constant Matrix: (Units=GPa)
#
#
# Indices 1 2 3 4 5 6 
#
# 1 67.4608 25.4603 20.0801 0.0000 0.0000 0.0000
# 2 25.4603 79.8678 37.9092 0.0000 0.0000 0.0000
# 3 20.0801 37.9092 106.0947 0.0000 0.0000 0.0000
# 4 0.0000 0.0000 0.0000 27.4050 0.0000 0.0000
# 5 0.0000 0.0000 0.0000 0.0000 7.3906 0.0000
# 6 0.0000 0.0000 0.0000 0.0000 0.0000 24.2434
#
#
#
# Elastic Compliance Matrix: (Units=1/GPa)
#
#
# Indices 1 2 3 4 5 6 
#
# 1 0.017059 -0.004703 -0.001548 0.000000 0.000000 0.000000
# 2 -0.004703 0.016375 -0.004961 0.000000 0.000000 0.000000
# 3 -0.001548 -0.004961 0.011491 0.000000 0.000000 0.000000
# 4 0.000000 0.000000 0.000000 0.036490 0.000000 0.000000
# 5 0.000000 0.000000 0.000000 0.000000 0.135307 0.000000
# 6 0.000000 0.000000 0.000000 0.000000 0.000000 0.041248
#
#
# Mechanical properties :
#
#
# Convention : Reuss Voigt Hill
#
# Bulk Modulus (GPa) = 44.44327 46.70249 45.57288
# Shear Modulus (GPa) = 17.36745 23.13937 20.25341
#
# Velocity S-wave (km/s) = 3.16412 3.65225 3.41691
# Velocity P-wave (km/s) = 6.24249 6.68636 6.46823
#
# Compressibility (1/GPa) = 0.02250060
#
# Stress axis : x y z
#
# Youngs Moduli (GPa) = 58.61894 61.07006 87.02385
#
# Poissons Ratio (x) = 0.28723 0.13473
# Poissons Ratio (y) = 0.27571 0.43170
# Poissons Ratio (z) = 0.09075 0.30295
#
# Static dielectric constant tensor:
#      x y z
#    x 1.592130 0.000000 0.000000 
#    y 0.000000 1.575870 0.000000 
#    z 0.000000 0.000000 1.561970 
# 
# From -- ./inp_files/32132.got.cif
#   From: 2010.05.17/outbox.cif.g08.bks.cpg/sg67_17_cif.got.tgz:32132.got - 2010.06.03 18:28:57.
