data_PCOD9501411
_publ_section_title
;
Structure prediction by ZEFSAII (Michael W. Deem and Ramdas Pophale) SiO2 
 PCOD9501411
Probable space group: C M M A
;
_chemical_formula_sum "Si O2"
_cell_formula_units_Z 64
_cell_length_a 14.929338
_cell_length_b 22.162961
_cell_length_c 8.651172
_cell_angle_alpha 90.000000
_cell_angle_beta 90.000000
_cell_angle_gamma 90.000000
_cell_volume 2862.485395
_symmetry_space_group_name_H-M "C M M A"
_symmetry_group_IT_number 67
_symmetry_cell_setting 'orthorhombic'
loop_
_space_group_symop_operation_xyz
x,y,z
-x,1/2-y,z
x,-y,-z
-x,1/2+y,-z
-x,-y,-z
x,1/2+y,-z
-x,y,z
x,1/2-y,z
1/2+x,1/2+y,z
1/2-x,-y,z
1/2+x,1/2-y,-z
1/2-x,y,-z
1/2-x,1/2-y,-z
1/2+x,y,-z
1/2-x,1/2+y,z
1/2+x,-y,z
loop_
_atom_site_type_symbol
_atom_site_label
_atom_site_fract_x
_atom_site_fract_y
_atom_site_fract_z
Si Si1 0.391232 0.372335 0.331884
Si Si2 0.401031 0.750000 0.804338
Si Si3 0.608504 0.133911 0.697739
Si Si4 0.107952 0.998103 0.685112
Si Si5 0.165916 0.250000 0.117307
O O1 0.500000 0.374863 0.316927
O O2 0.357709 0.312248 0.249783
O O3 0.372341 0.365706 0.513920
O O4 0.358282 0.436202 0.263285
O O5 0.500000 0.750000 0.729727
O O6 0.409711 0.750000 0.986515
O O7 0.500000 0.139006 0.715309
O O8 0.653514 0.190034 0.781716
O O9 0.637546 0.066443 0.750540
O O10 0.000000 0.997322 0.702703
O O11 0.124974 0.000000 0.500000
O O12 0.250000 0.250000 0.000000
#
# Coordination Sequence:
#
# PCOD9501411 Si02
#       5
#    16   8  16  16   8
#     4   8  14  27  52  84 105 119 155 214 269 312
#     4  10  19  32  51  74 101 130 163 208 256 304
#     4   9  16  31  55  76  97 130 170 212 265 322
#     4   7  11  22  46  80 105 116 144 204 263 305
#     4  12  25  36  44  64 102 146 183 212 240 290
#
# _framework density 22.358193
#
# number of rings (size 3 to 8) (size 9 to 14) (size 15 to 20)
#    0.000    3.250    0.000    4.875    0.000    2.000 
#    0.000    3.750    0.000    9.000    0.000    5.250 
#    0.000    0.000    0.000    0.000    0.000    9.000 
#
# Total GULP energy -178268.630515 kJ/mol
# GULP energy per Si atom -5570.894704 kJ/mol
# Density = 2.230730 g / cm^3
# Si number density = 22.358193 Si / 1000 Ang^3
#
#
#
# Elastic Constant Matrix: (Units=GPa)
#
#
# Indices 1 2 3 4 5 6 
#
# 1 86.2497 35.5491 15.7253 0.0000 0.0000 0.0000
# 2 35.5491 311.1139 75.4319 0.0000 0.0000 0.0000
# 3 15.7253 75.4319 38.5612 0.0000 0.0000 0.0000
# 4 0.0000 0.0000 0.0000 -17.3005 0.0000 0.0000
# 5 0.0000 0.0000 0.0000 0.0000 43.4432 0.0000
# 6 0.0000 0.0000 0.0000 0.0000 0.0000 86.3225
#
#
#
# Elastic Compliance Matrix: (Units=1/GPa)
#
#
# Indices 1 2 3 4 5 6 
#
# 1 0.012548 -0.000367 -0.004398 0.000000 0.000000 0.000000
# 2 -0.000367 0.006125 -0.011831 0.000000 0.000000 0.000000
# 3 -0.004398 -0.011831 0.050871 0.000000 0.000000 0.000000
# 4 0.000000 0.000000 0.000000 -0.057802 0.000000 0.000000
# 5 0.000000 0.000000 0.000000 0.000000 0.023019 0.000000
# 6 0.000000 0.000000 0.000000 0.000000 0.000000 0.011584
#
#
# Mechanical properties :
#
#
# Convention : Reuss Voigt Hill
#
# Bulk Modulus (GPa) = 27.51125 76.59307 52.05216
# Shear Modulus (GPa) = 54.55263 43.10759 48.83011
#
# Velocity S-wave (km/s) = 4.94493 4.39571 4.67839
# Velocity P-wave (km/s) = 6.70333 7.75208 7.24670
#
# Compressibility (1/GPa) = 0.03634876
#
# Stress axis : x y z
#
# Youngs Moduli (GPa) = 79.69675 163.26983 19.65775
#
# Poissons Ratio (x) = 0.05997 0.08646
# Poissons Ratio (y) = 0.02927 0.23258
# Poissons Ratio (z) = 0.35054 1.93170
#
# Static dielectric constant tensor:
#      x y z
#    x 1.949010 0.000000 0.000000 
#    y 0.000000 1.890020 0.000000 
#    z 0.000000 0.000000 1.757360 
# 
# From -- ./inp_files/9394.got.cif
#   From: 2010.05.17/outbox.cif.g08.bks.cpg/sg67_5_cif.got.tgz:9394.got - 2010.06.03 18:28:57.
