data_PCOD9501630
_publ_section_title
;
Structure prediction by ZEFSAII (Michael W. Deem and Ramdas Pophale) SiO2 
 PCOD9501630
Probable space group: C M M A
;
_chemical_formula_sum "Si O2"
_cell_formula_units_Z 64
_cell_length_a 19.202398
_cell_length_b 14.788123
_cell_length_c 10.984164
_cell_angle_alpha 90.000000
_cell_angle_beta 90.000000
_cell_angle_gamma 90.000000
_cell_volume 3119.144751
_symmetry_space_group_name_H-M "C M M A"
_symmetry_group_IT_number 67
_symmetry_cell_setting 'orthorhombic'
loop_
_space_group_symop_operation_xyz
x,y,z
-x,1/2-y,z
x,-y,-z
-x,1/2+y,-z
-x,-y,-z
x,1/2+y,-z
-x,y,z
x,1/2-y,z
1/2+x,1/2+y,z
1/2-x,-y,z
1/2+x,1/2-y,-z
1/2-x,y,-z
1/2-x,1/2-y,-z
1/2+x,y,-z
1/2-x,1/2+y,z
1/2+x,-y,z
loop_
_atom_site_type_symbol
_atom_site_label
_atom_site_fract_x
_atom_site_fract_y
_atom_site_fract_z
Si Si1 0.078909 0.359309 0.268218
Si Si2 0.078722 0.140738 0.984397
Si Si3 0.280653 0.398586 0.123215
Si Si4 0.223817 0.396600 0.372937
O O1 0.080150 0.250000 0.274199
O O2 0.092466 0.382981 0.126115
O O3 0.140946 0.394236 0.352538
O O4 0.000000 0.388586 0.298640
O O5 0.082005 0.250000 0.976297
O O6 0.000000 0.112638 0.954679
O O7 0.137009 0.100646 0.897182
O O8 0.250000 0.500000 0.124930
O O9 0.256951 0.355629 0.249843
O O10 0.250000 0.354836 0.000000
O O11 0.250000 0.500000 0.374859
O O12 0.250000 0.356006 0.500000
#
# Coordination Sequence:
#
# PCOD9501630 Si02
#       4
#    16  16  16  16
#     4   9  18  34  56  80 107 141 179 217 262 320
#     4   9  18  33  54  81 110 140 174 216 269 319
#     4  10  19  33  53  79 108 133 177 222 261 310
#     4  10  21  37  54  77 110 144 179 218 266 318
#
# _framework density 20.518445
#
# number of rings (size 3 to 8) (size 9 to 14) (size 15 to 20)
#    0.000    2.500    2.500    1.500    0.000    2.000 
#    0.000   11.250    0.000    3.000    0.000    0.000 
#    0.000    0.000    0.000    0.000    0.000    0.000 
#
# Total GULP energy -178603.173456 kJ/mol
# GULP energy per Si atom -5581.349171 kJ/mol
# Density = 2.047174 g / cm^3
# Si number density = 20.518445 Si / 1000 Ang^3
#
#
#
# Elastic Constant Matrix: (Units=GPa)
#
#
# Indices 1 2 3 4 5 6 
#
# 1 206.9604 29.2401 81.1658 0.0000 0.0000 0.0000
# 2 29.2401 70.4134 8.4643 0.0000 0.0000 0.0000
# 3 81.1658 8.4643 164.3083 0.0000 0.0000 0.0000
# 4 0.0000 0.0000 0.0000 20.4898 0.0000 0.0000
# 5 0.0000 0.0000 0.0000 0.0000 23.2747 0.0000
# 6 0.0000 0.0000 0.0000 0.0000 0.0000 35.4246
#
#
#
# Elastic Compliance Matrix: (Units=1/GPa)
#
#
# Indices 1 2 3 4 5 6 
#
# 1 0.006333 -0.002268 -0.003012 0.000000 0.000000 0.000000
# 2 -0.002268 0.015103 0.000342 0.000000 0.000000 0.000000
# 3 -0.003012 0.000342 0.007556 0.000000 0.000000 0.000000
# 4 0.000000 0.000000 0.000000 0.048805 0.000000 0.000000
# 5 0.000000 0.000000 0.000000 0.000000 0.042965 0.000000
# 6 0.000000 0.000000 0.000000 0.000000 0.000000 0.028229
#
#
# Mechanical properties :
#
#
# Convention : Reuss Voigt Hill
#
# Bulk Modulus (GPa) = 52.30854 75.49140 63.89997
# Shear Modulus (GPa) = 30.25934 37.35862 33.80898
#
# Velocity S-wave (km/s) = 3.84440 4.27163 4.06364
# Velocity P-wave (km/s) = 6.72716 7.82311 7.29574
#
# Compressibility (1/GPa) = 0.01911734
#
# Stress axis : x y z
#
# Youngs Moduli (GPa) = 157.89209 66.21420 132.34064
#
# Poissons Ratio (x) = 0.15017 0.39858
# Poissons Ratio (y) = 0.35810 -0.04531
# Poissons Ratio (z) = 0.47554 -0.02267
#
# Static dielectric constant tensor:
#      x y z
#    x 1.752250 0.000000 0.000000 
#    y 0.000000 1.590490 0.000000 
#    z 0.000000 0.000000 1.782760 
# 
# From -- ./inp_files/17498.got.cif
#   From: 2010.05.17/outbox.cif.g08.bks.cpg/sg67_9_cif.got.tgz:17498.got - 2010.06.03 18:28:57.
