data_PCOD9501881
_publ_section_title
;
Structure prediction by ZEFSAII (Michael W. Deem and Ramdas Pophale) SiO2 
 PCOD9501881
Probable space group: C M M A
;
_chemical_formula_sum "Si O2"
_cell_formula_units_Z 116
_cell_length_a 30.360644
_cell_length_b 7.718029
_cell_length_c 26.453757
_cell_angle_alpha 90.000000
_cell_angle_beta 90.000000
_cell_angle_gamma 90.000000
_cell_volume 6198.758908
_symmetry_space_group_name_H-M "C M M A"
_symmetry_group_IT_number 67
_symmetry_cell_setting 'orthorhombic'
loop_
_space_group_symop_operation_xyz
x,y,z
-x,1/2-y,z
x,-y,-z
-x,1/2+y,-z
-x,-y,-z
x,1/2+y,-z
-x,y,z
x,1/2-y,z
1/2+x,1/2+y,z
1/2-x,-y,z
1/2+x,1/2-y,-z
1/2-x,y,-z
1/2-x,1/2-y,-z
1/2+x,y,-z
1/2-x,1/2+y,z
1/2+x,-y,z
loop_
_atom_site_type_symbol
_atom_site_label
_atom_site_fract_x
_atom_site_fract_y
_atom_site_fract_z
Si Si1 0.605750 0.040931 0.348770
Si Si2 0.449225 0.543051 0.247419
Si Si3 0.797721 0.957822 0.207901
Si Si4 0.500000 0.250000 0.057588
Si Si5 0.797973 0.041814 0.676564
Si Si6 0.949716 0.041690 0.556142
Si Si7 0.386089 0.045347 0.155233
Si Si8 0.925805 0.446846 0.052355
O O1 0.607135 0.250000 0.351823
O O2 0.656343 0.978596 0.347439
O O3 0.579449 0.975343 0.397619
O O4 0.579294 0.000537 0.297249
O O5 0.500000 0.479319 0.251169
O O6 0.450825 0.750000 0.243278
O O7 0.424056 0.475992 0.197685
O O8 0.801752 0.750000 0.210773
O O9 0.798153 0.025022 0.265559
O O10 0.840406 0.021691 0.178619
O O11 0.750000 0.000000 0.185565
O O12 0.537631 0.404822 0.058401
O O13 0.800496 0.250000 0.678094
O O14 0.750000 0.000000 0.653972
O O15 0.951450 0.250000 0.560289
O O16 0.000000 0.975656 0.559909
O O17 0.932968 0.000000 0.500000
O O18 0.381806 0.250000 0.145066
O O19 0.397798 0.954114 0.103163
O O20 0.943811 0.250000 0.046802
O O21 0.902066 0.500000 0.000000
#
# Coordination Sequence:
#
# PCOD9501881 Si02
#       8
#    16  16  16   4  16  16  16  16
#     4  10  19  35  55  75 103 142 181 220 271 333
#     4  11  24  36  48  76 112 148 183 223 274 334
#     4   9  18  33  56  81 110 143 184 230 281 337
#     4  12  24  44  62  90 116 156 206 248 292 332
#     4   9  17  31  50  77 105 135 175 221 268 325
#     4   9  18  32  52  76 101 134 179 225 270 319
#     4  11  22  40  58  82 116 152 190 235 286 342
#     4  12  25  41  62  88 116 157 199 249 293 343
#
# _framework density 18.713422999999999
#
# number of rings (size 3 to 8) (size 9 to 14) (size 15 to 20)
#    0.000    1.793    2.759    1.655    0.966    3.862 
#    0.000    1.379    0.000    0.828    0.000    5.793 
#    0.000    0.000    0.000    0.000    0.000    0.000 
#
# Total GULP energy -323056.739236 kJ/mol
# GULP energy per Si atom -5569.943780 kJ/mol
# Density = 1.867083 g / cm^3
# Si number density = 18.713423 Si / 1000 Ang^3
#
#
#
# Elastic Constant Matrix: (Units=GPa)
#
#
# Indices 1 2 3 4 5 6 
#
# 1 140.5067 11.5946 64.7865 0.0000 0.0000 0.0000
# 2 11.5946 76.6659 6.1941 0.0000 0.0000 0.0000
# 3 64.7865 6.1941 116.7137 0.0000 0.0000 0.0000
# 4 0.0000 0.0000 0.0000 19.9031 0.0000 0.0000
# 5 0.0000 0.0000 0.0000 0.0000 36.7859 0.0000
# 6 0.0000 0.0000 0.0000 0.0000 0.0000 23.3816
#
#
#
# Elastic Compliance Matrix: (Units=1/GPa)
#
#
# Indices 1 2 3 4 5 6 
#
# 1 0.009646 -0.001031 -0.005300 0.000000 0.000000 0.000000
# 2 -0.001031 0.013210 -0.000129 0.000000 0.000000 0.000000
# 3 -0.005300 -0.000129 0.011517 0.000000 0.000000 0.000000
# 4 0.000000 0.000000 0.000000 0.050243 0.000000 0.000000
# 5 0.000000 0.000000 0.000000 0.000000 0.027184 0.000000
# 6 0.000000 0.000000 0.000000 0.000000 0.000000 0.042769
#
#
# Mechanical properties :
#
#
# Convention : Reuss Voigt Hill
#
# Bulk Modulus (GPa) = 46.61161 55.44854 51.03008
# Shear Modulus (GPa) = 28.63064 32.76820 30.69942
#
# Velocity S-wave (km/s) = 3.91570 4.18910 4.05471
# Velocity P-wave (km/s) = 6.73839 7.28648 7.01778
#
# Compressibility (1/GPa) = 0.02145388
#
# Stress axis : x y z
#
# Youngs Moduli (GPa) = 103.67303 75.70087 86.83176
#
# Poissons Ratio (x) = 0.07802 0.46017
# Poissons Ratio (y) = 0.10685 0.01120
# Poissons Ratio (z) = 0.54942 0.00976
#
# Static dielectric constant tensor:
#      x y z
#    x 1.665040 0.000000 0.000000 
#    y 0.000000 1.678030 0.000000 
#    z 0.000000 0.000000 1.648890 
# 
# From -- ./inp_files/45113.got.cif
#   From: 2010.05.17/outbox.cif.g08.bks.cpg/sg67_23_cif.got.tgz:45113.got - 2010.06.03 18:28:57.
