data_PCOD9501103
_publ_section_title
;
Structure prediction by ZEFSAII (Michael W. Deem and Ramdas Pophale) SiO2 
 PCOD9501103
Probable space group: C M M A
;
_chemical_formula_sum "Si O2"
_cell_formula_units_Z 128
_cell_length_a 24.895460
_cell_length_b 16.809291
_cell_length_c 18.046833
_cell_angle_alpha 90.000000
_cell_angle_beta 90.000000
_cell_angle_gamma 90.000000
_cell_volume 7552.149012
_symmetry_space_group_name_H-M "C M M A"
_symmetry_group_IT_number 67
_symmetry_cell_setting 'orthorhombic'
loop_
_space_group_symop_operation_xyz
x,y,z
-x,1/2-y,z
x,-y,-z
-x,1/2+y,-z
-x,-y,-z
x,1/2+y,-z
-x,y,z
x,1/2-y,z
1/2+x,1/2+y,z
1/2-x,-y,z
1/2+x,1/2-y,-z
1/2-x,y,-z
1/2-x,1/2-y,-z
1/2+x,y,-z
1/2-x,1/2+y,z
1/2+x,-y,z
loop_
_atom_site_type_symbol
_atom_site_label
_atom_site_fract_x
_atom_site_fract_y
_atom_site_fract_z
Si Si1 0.230516 0.843935 0.259475
Si Si2 0.812548 0.661257 0.523077
Si Si3 0.632969 0.839379 0.845497
Si Si4 0.562482 0.527200 0.915554
Si Si5 0.154943 0.087355 0.617944
Si Si6 0.440140 0.119801 0.289098
Si Si7 0.335734 0.090925 0.681643
Si Si8 0.060197 0.062464 0.230617
O O1 0.242302 0.750000 0.254789
O O2 0.189539 0.864271 0.192423
O O3 0.198019 0.860931 0.335579
O O4 0.285130 0.893746 0.264694
O O5 0.832372 0.750000 0.504843
O O6 0.750000 0.659207 0.500000
O O7 0.837676 0.596116 0.468916
O O8 0.824651 0.643737 0.608702
O O9 0.638062 0.750000 0.876186
O O10 0.605466 0.903801 0.898528
O O11 0.591999 0.837437 0.776057
O O12 0.500000 0.554035 0.902158
O O13 0.571521 0.456038 0.856098
O O14 0.566280 0.500000 0.000000
O O15 0.096758 0.120550 0.639228
O O16 0.162818 0.999081 0.650379
O O17 0.500000 0.149244 0.298700
O O18 0.441917 0.027120 0.264133
O O19 0.391360 0.104723 0.725871
O O20 0.000000 0.097100 0.238534
#
# Coordination Sequence:
#
# PCOD9501103 Si02
#       8
#    16  16  16  16  16  16  16  16
#     4  10  19  31  47  71 102 131 158 200 256 306
#     4  11  22  34  47  65  96 132 165 213 268 302
#     4   9  17  28  46  73 105 135 164 198 240 300
#     4   9  17  31  53  80 108 136 165 203 252 296
#     4  10  19  30  47  71  95 121 163 211 247 297
#     4   8  15  28  45  68  98 127 153 192 249 299
#     4  11  20  31  53  75  94 129 171 209 252 304
#     4   8  16  32  52  75 100 124 160 208 251 299
#
# _framework density 16.948817999999999
#
# number of rings (size 3 to 8) (size 9 to 14) (size 15 to 20)
#    0.000    2.500    1.250    3.375    0.000    2.000 
#    0.000    0.625    0.000    8.250    0.000    5.250 
#    0.000    0.000    0.000    0.000    0.000    0.000 
#
# Total GULP energy -356356.097550 kJ/mol
# GULP energy per Si atom -5568.064024 kJ/mol
# Density = 1.691024 g / cm^3
# Si number density = 16.948818 Si / 1000 Ang^3
#
#
#
# Elastic Constant Matrix: (Units=GPa)
#
#
# Indices 1 2 3 4 5 6 
#
# 1 121.3865 31.4333 49.9516 0.0000 0.0000 0.0000
# 2 31.4333 45.1863 20.3850 0.0000 0.0000 0.0000
# 3 49.9516 20.3850 81.5192 0.0000 0.0000 0.0000
# 4 0.0000 0.0000 0.0000 15.2258 0.0000 0.0000
# 5 0.0000 0.0000 0.0000 0.0000 22.8355 0.0000
# 6 0.0000 0.0000 0.0000 0.0000 0.0000 -10.5053
#
#
#
# Elastic Compliance Matrix: (Units=1/GPa)
#
#
# Indices 1 2 3 4 5 6 
#
# 1 0.012221 -0.005774 -0.006044 0.000000 0.000000 0.000000
# 2 -0.005774 0.027673 -0.003382 0.000000 0.000000 0.000000
# 3 -0.006044 -0.003382 0.016816 0.000000 0.000000 0.000000
# 4 0.000000 0.000000 0.000000 0.065678 0.000000 0.000000
# 5 0.000000 0.000000 0.000000 0.000000 0.043791 0.000000
# 6 0.000000 0.000000 0.000000 0.000000 0.000000 -0.095190
#
#
# Mechanical properties :
#
#
# Convention : Reuss Voigt Hill
#
# Bulk Modulus (GPa) = 38.00944 50.18130 44.09537
# Shear Modulus (GPa) = 45.38816 15.26600 30.32708
#
# Velocity S-wave (km/s) = 5.18051 3.00444 4.23464
# Velocity P-wave (km/s) = 7.63271 6.45813 7.06985
#
# Compressibility (1/GPa) = 0.02630926
#
# Stress axis : x y z
#
# Youngs Moduli (GPa) = 81.82793 36.13613 59.46554
#
# Poissons Ratio (x) = 0.20866 0.35943
# Poissons Ratio (y) = 0.47251 0.20110
# Poissons Ratio (z) = 0.49460 0.12220
#
# Static dielectric constant tensor:
#      x y z
#    x 1.595600 0.000000 0.000000 
#    y 0.000000 1.597870 0.000000 
#    z 0.000000 0.000000 1.565610 
# 
# From -- ./inp_files/35607.got.cif
#   From: 2010.05.17/outbox.cif.g08.bks.cpg/sg67_18_cif.got.tgz:35607.got - 2010.06.03 18:28:57.
