data_PCOD9501175
_publ_section_title
;
Structure prediction by ZEFSAII (Michael W. Deem and Ramdas Pophale) SiO2 
 PCOD9501175
Probable space group: C M M A
;
_chemical_formula_sum "Si O2"
_cell_formula_units_Z 96
_cell_length_a 28.329257
_cell_length_b 8.649097
_cell_length_c 24.536488
_cell_angle_alpha 90.000000
_cell_angle_beta 90.000000
_cell_angle_gamma 90.000000
_cell_volume 6011.991428
_symmetry_space_group_name_H-M "C M M A"
_symmetry_group_IT_number 67
_symmetry_cell_setting 'orthorhombic'
loop_
_space_group_symop_operation_xyz
x,y,z
-x,1/2-y,z
x,-y,-z
-x,1/2+y,-z
-x,-y,-z
x,1/2+y,-z
-x,y,z
x,1/2-y,z
1/2+x,1/2+y,z
1/2-x,-y,z
1/2+x,1/2-y,-z
1/2-x,y,-z
1/2-x,1/2-y,-z
1/2+x,y,-z
1/2-x,1/2+y,z
1/2+x,-y,z
loop_
_atom_site_type_symbol
_atom_site_label
_atom_site_fract_x
_atom_site_fract_y
_atom_site_fract_z
Si Si1 0.946275 0.936429 0.275446
Si Si2 0.642064 0.563783 0.333841
Si Si3 0.445298 0.436584 0.058882
Si Si4 0.302750 0.063895 0.558676
Si Si5 0.802164 0.935038 0.774793
Si Si6 0.890662 0.436832 0.833687
O O1 0.946144 0.750000 0.277446
O O2 0.925537 0.981286 0.216113
O O3 0.000000 0.990152 0.282360
O O4 0.909296 0.998788 0.319501
O O5 0.639863 0.750000 0.333126
O O6 0.663722 0.515640 0.391557
O O7 0.676675 0.515523 0.284196
O O8 0.500000 0.483380 0.068327
O O9 0.444358 0.250000 0.057378
O O10 0.412703 0.487606 0.108986
O O11 0.430746 0.500000 0.000000
O O12 0.300709 0.250000 0.556692
O O13 0.318363 0.000000 0.500000
O O14 0.250000 0.000000 0.568390
O O15 0.800846 0.750000 0.775930
O O16 0.750000 0.000000 0.782457
O O17 0.839747 0.995338 0.818925
O O18 0.887677 0.250000 0.833855
#
# Coordination Sequence:
#
# PCOD9501175 Si02
#       6
#    16  16  16  16  16  16
#     4   9  17  29  47  70  93 119 152 187 223 266
#     4   9  19  32  46  67  94 122 150 183 224 269
#     4   9  17  29  46  68  94 123 153 185 222 265
#     4  10  19  31  47  68  93 120 151 185 224 268
#     4  10  19  31  47  68  93 120 151 185 224 269
#     4   9  17  30  47  67  93 123 152 184 224 267
#
# _framework density 15.968086
#
# number of rings (size 3 to 8) (size 9 to 14) (size 15 to 20)
#    0.000    2.667    0.000    2.500    0.000    5.000 
#    0.000    0.000    0.000    4.000    0.000    3.500 
#    0.000    0.000    0.000    0.000    0.000    0.000 
#
# Total GULP energy -267624.792067 kJ/mol
# GULP energy per Si atom -5575.516501 kJ/mol
# Density = 1.593174 g / cm^3
# Si number density = 15.968086 Si / 1000 Ang^3
#
#
#
# Elastic Constant Matrix: (Units=GPa)
#
#
# Indices 1 2 3 4 5 6 
#
# 1 148.5099 30.0594 95.4210 0.0000 0.0000 0.0000
# 2 30.0594 19.8505 31.0273 0.0000 0.0000 0.0000
# 3 95.4210 31.0273 145.5623 0.0000 0.0000 0.0000
# 4 0.0000 0.0000 0.0000 25.0584 0.0000 0.0000
# 5 0.0000 0.0000 0.0000 0.0000 26.1080 0.0000
# 6 0.0000 0.0000 0.0000 0.0000 0.0000 25.9444
#
#
#
# Elastic Compliance Matrix: (Units=1/GPa)
#
#
# Indices 1 2 3 4 5 6 
#
# 1 0.012687 -0.009316 -0.006331 0.000000 0.000000 0.000000
# 2 -0.009316 0.082387 -0.011454 0.000000 0.000000 0.000000
# 3 -0.006331 -0.011454 0.013462 0.000000 0.000000 0.000000
# 4 0.000000 0.000000 0.000000 0.039907 0.000000 0.000000
# 5 0.000000 0.000000 0.000000 0.000000 0.038302 0.000000
# 6 0.000000 0.000000 0.000000 0.000000 0.000000 0.038544
#
#
# Mechanical properties :
#
#
# Convention : Reuss Voigt Hill
#
# Bulk Modulus (GPa) = 18.40495 69.65979 44.03237
# Shear Modulus (GPa) = 16.80092 25.91650 21.35871
#
# Velocity S-wave (km/s) = 3.24721 4.03304 3.66127
# Velocity P-wave (km/s) = 5.06066 8.08742 6.74598
#
# Compressibility (1/GPa) = 0.05433322
#
# Stress axis : x y z
#
# Youngs Moduli (GPa) = 78.82082 12.13780 74.28536
#
# Poissons Ratio (x) = 0.11308 0.47030
# Poissons Ratio (y) = 0.73431 0.85088
# Poissons Ratio (z) = 0.49901 0.13903
#
# Static dielectric constant tensor:
#      x y z
#    x 1.512170 0.000000 0.000000 
#    y 0.000000 1.543340 0.000000 
#    z 0.000000 0.000000 1.527850 
# 
# From -- ./inp_files/40913.got.cif
#   From: 2010.05.17/outbox.cif.g08.bks.cpg/sg67_21_cif.got.tgz:40913.got - 2010.06.03 18:28:57.
