data_PCOD9501903
_publ_section_title
;
Structure prediction by ZEFSAII (Michael W. Deem and Ramdas Pophale) SiO2 
 PCOD9501903
Probable space group: C M M A
;
_chemical_formula_sum "Si O2"
_cell_formula_units_Z 84
_cell_length_a 15.395424
_cell_length_b 19.005662
_cell_length_c 15.221930
_cell_angle_alpha 90.000000
_cell_angle_beta 90.000000
_cell_angle_gamma 90.000000
_cell_volume 4453.940141
_symmetry_space_group_name_H-M "C M M A"
_symmetry_group_IT_number 67
_symmetry_cell_setting 'orthorhombic'
loop_
_space_group_symop_operation_xyz
x,y,z
-x,1/2-y,z
x,-y,-z
-x,1/2+y,-z
-x,-y,-z
x,1/2+y,-z
-x,y,z
x,1/2-y,z
1/2+x,1/2+y,z
1/2-x,-y,z
1/2+x,1/2-y,-z
1/2-x,y,-z
1/2-x,1/2-y,-z
1/2+x,y,-z
1/2-x,1/2+y,z
1/2+x,-y,z
loop_
_atom_site_type_symbol
_atom_site_label
_atom_site_fract_x
_atom_site_fract_y
_atom_site_fract_z
Si Si1 0.675176 0.440750 0.246451
Si Si2 0.816202 0.334535 0.240510
Si Si3 0.659599 0.330971 0.553436
Si Si4 0.250000 0.500000 0.000000
Si Si5 0.596449 0.555563 0.563695
Si Si6 0.598313 0.550472 0.123676
O O1 0.750000 0.500000 0.251825
O O2 0.722144 0.368754 0.217652
O O3 0.639079 0.430987 0.343527
O O4 0.607864 0.478510 0.181127
O O5 0.820486 0.250000 0.228105
O O6 0.830589 0.350825 0.344370
O O7 0.883842 0.381124 0.184580
O O8 0.634530 0.250000 0.552412
O O9 0.750000 0.338593 0.500000
O O10 0.594364 0.376486 0.497066
O O11 0.318828 0.455165 0.942081
O O12 0.643491 0.500000 0.500000
O O13 0.500000 0.527984 0.582909
O O14 0.500000 0.554161 0.087288
#
# Coordination Sequence:
#
# PCOD9501903 Si02
#       6
#    16  16  16   4  16  16
#     4  10  19  35  56  82 116 157 197 241 292 346
#     4  10  20  37  61  86 119 161 204 246 295 352
#     4  10  20  33  52  76 109 157 205 243 283 331
#     4  12  22  44  70 102 118 148 184 240 312 366
#     4  11  22  31  47  79 113 150 200 254 295 333
#     4  11  23  41  67  95 121 152 194 241 300 369
#
# _framework density 18.859705999999999
#
# number of rings (size 3 to 8) (size 9 to 14) (size 15 to 20)
#    0.000    1.524    4.762    3.143    0.000    3.048 
#    0.000    2.381    0.000    1.714    0.000    0.000 
#    0.000    0.000    0.000    0.000    0.000    0.000 
#
# Total GULP energy -233966.655066 kJ/mol
# GULP energy per Si atom -5570.634644 kJ/mol
# Density = 1.881678 g / cm^3
# Si number density = 18.859706 Si / 1000 Ang^3
#
#
#
# Elastic Constant Matrix: (Units=GPa)
#
#
# Indices 1 2 3 4 5 6 
#
# 1 95.0517 29.6510 32.1607 0.0000 0.0000 0.0000
# 2 29.6510 59.0557 37.0317 0.0000 0.0000 0.0000
# 3 32.1607 37.0317 84.5950 0.0000 0.0000 0.0000
# 4 0.0000 0.0000 0.0000 23.7430 0.0000 0.0000
# 5 0.0000 0.0000 0.0000 0.0000 15.7825 0.0000
# 6 0.0000 0.0000 0.0000 0.0000 0.0000 17.1376
#
#
#
# Elastic Compliance Matrix: (Units=1/GPa)
#
#
# Indices 1 2 3 4 5 6 
#
# 1 0.012959 -0.004710 -0.002865 0.000000 0.000000 0.000000
# 2 -0.004710 0.025052 -0.009176 0.000000 0.000000 0.000000
# 3 -0.002865 -0.009176 0.016927 0.000000 0.000000 0.000000
# 4 0.000000 0.000000 0.000000 0.042118 0.000000 0.000000
# 5 0.000000 0.000000 0.000000 0.000000 0.063362 0.000000
# 6 0.000000 0.000000 0.000000 0.000000 0.000000 0.058351
#
#
# Mechanical properties :
#
#
# Convention : Reuss Voigt Hill
#
# Bulk Modulus (GPa) = 46.64989 48.48770 47.56880
# Shear Modulus (GPa) = 19.27408 20.65654 19.96531
#
# Velocity S-wave (km/s) = 3.20030 3.31308 3.25718
# Velocity P-wave (km/s) = 6.20039 6.35617 6.27876
#
# Compressibility (1/GPa) = 0.02143628
#
# Stress axis : x y z
#
# Youngs Moduli (GPa) = 77.16503 39.91708 59.07749
#
# Poissons Ratio (x) = 0.18802 0.16925
# Poissons Ratio (y) = 0.36346 0.54209
# Poissons Ratio (z) = 0.22107 0.36627
#
# Static dielectric constant tensor:
#      x y z
#    x 1.733020 0.000000 0.000000 
#    y 0.000000 1.844360 0.000000 
#    z 0.000000 0.000000 1.702720 
# 
# From -- ./inp_files/27086.got.cif
#   From: 2010.05.17/outbox.cif.g08.bks.cpg/sg67_14_cif.got.tgz:27086.got - 2010.06.03 18:28:57.
