data_PCOD9501242
_publ_section_title
;
Structure prediction by ZEFSAII (Michael W. Deem and Ramdas Pophale) SiO2 
 PCOD9501242
Probable space group: C M M A
;
_chemical_formula_sum "Si O2"
_cell_formula_units_Z 80
_cell_length_a 11.140824
_cell_length_b 14.652694
_cell_length_c 23.980371
_cell_angle_alpha 90.000000
_cell_angle_beta 90.000000
_cell_angle_gamma 90.000000
_cell_volume 3914.629741
_symmetry_space_group_name_H-M "C M M A"
_symmetry_group_IT_number 67
_symmetry_cell_setting 'orthorhombic'
loop_
_space_group_symop_operation_xyz
x,y,z
-x,1/2-y,z
x,-y,-z
-x,1/2+y,-z
-x,-y,-z
x,1/2+y,-z
-x,y,z
x,1/2-y,z
1/2+x,1/2+y,z
1/2-x,-y,z
1/2+x,1/2-y,-z
1/2-x,y,-z
1/2-x,1/2-y,-z
1/2+x,y,-z
1/2-x,1/2+y,z
1/2+x,-y,z
loop_
_atom_site_type_symbol
_atom_site_label
_atom_site_fract_x
_atom_site_fract_y
_atom_site_fract_z
Si Si1 0.373458 0.892786 0.020413
Si Si2 0.500000 0.138654 0.431860
Si Si3 0.132611 0.060022 0.145257
Si Si4 0.248377 0.361312 0.377638
Si Si5 0.633961 0.640647 0.267154
Si Si6 0.000000 0.138984 0.438569
O O1 0.500000 0.855717 0.999106
O O2 0.372960 0.885831 0.087305
O O3 0.250000 0.852422 0.000000
O O4 0.373058 0.000000 0.000000
O O5 0.500000 0.250000 0.429977
O O6 0.624577 0.108355 0.403065
O O7 0.500000 0.112476 0.496687
O O8 0.150208 0.112006 0.203380
O O9 0.000000 0.013841 0.149007
O O10 0.250000 0.000000 0.138576
O O11 0.250336 0.250000 0.379781
O O12 0.229359 0.389733 0.313285
O O13 0.126337 0.389038 0.410183
O O14 0.500000 0.609938 0.284597
O O15 0.633849 0.750000 0.268756
O O16 0.000000 0.250000 0.435600
#
# Coordination Sequence:
#
# PCOD9501242 Si02
#       6
#    16   8  16  16  16   8
#     4   9  15  25  44  68  92 116 144 185 233 278
#     4   9  16  22  34  60  89 113 147 192 232 274
#     4  10  19  31  49  74  96 119 158 200 234 271
#     4   9  15  25  39  56  85 121 151 183 231 279
#     4   9  17  31  49  66  91 130 166 190 223 283
#     4   9  14  22  38  58  81 115 153 188 228 272
#
# _framework density 20.436160999999998
#
# number of rings (size 3 to 8) (size 9 to 14) (size 15 to 20)
#    0.000    2.800    3.000    0.600    0.000    2.400 
#    1.800    0.000    0.000    0.600    0.000    0.000 
#    0.000    4.800    0.000    0.000    0.000    0.000 
#
# Total GULP energy -222755.621935 kJ/mol
# GULP energy per Si atom -5568.890548 kJ/mol
# Density = 2.038965 g / cm^3
# Si number density = 20.436161 Si / 1000 Ang^3
#
#
#
# Elastic Constant Matrix: (Units=GPa)
#
#
# Indices 1 2 3 4 5 6 
#
# 1 213.5418 14.9473 81.5940 0.0000 0.0000 0.0000
# 2 14.9473 45.3712 1.5712 0.0000 0.0000 0.0000
# 3 81.5940 1.5712 147.2380 0.0000 0.0000 0.0000
# 4 0.0000 0.0000 0.0000 11.3959 0.0000 0.0000
# 5 0.0000 0.0000 0.0000 0.0000 32.1536 0.0000
# 6 0.0000 0.0000 0.0000 0.0000 0.0000 -4.7642
#
#
#
# Elastic Compliance Matrix: (Units=1/GPa)
#
#
# Indices 1 2 3 4 5 6 
#
# 1 0.006099 -0.001893 -0.003360 0.000000 0.000000 0.000000
# 2 -0.001893 0.022636 0.000807 0.000000 0.000000 0.000000
# 3 -0.003360 0.000807 0.008645 0.000000 0.000000 0.000000
# 4 0.000000 0.000000 0.000000 0.087751 0.000000 0.000000
# 5 0.000000 0.000000 0.000000 0.000000 0.031101 0.000000
# 6 0.000000 0.000000 0.000000 0.000000 0.000000 -0.209899
#
#
# Mechanical properties :
#
#
# Convention : Reuss Voigt Hill
#
# Bulk Modulus (GPa) = 35.10041 66.93068 51.01555
# Shear Modulus (GPa) = -141.72425 28.29294 -56.71565
#
# Velocity S-wave (km/s) = -8.33668 3.72486 -5.27379
# Velocity P-wave (km/s) = 8.68643 7.16391 3.47365
#
# Compressibility (1/GPa) = 0.02848969
#
# Stress axis : x y z
#
# Youngs Moduli (GPa) = 163.95632 44.17726 115.67431
#
# Poissons Ratio (x) = 0.08363 0.38864
# Poissons Ratio (y) = 0.31037 -0.09341
# Poissons Ratio (z) = 0.55085 -0.03567
#
# Static dielectric constant tensor:
#      x y z
#    x 1.743910 0.000000 0.000000 
#    y 0.000000 1.771590 0.000000 
#    z 0.000000 0.000000 1.761250 
# 
# From -- ./inp_files/33006.got.cif
#   From: 2010.05.17/outbox.cif.g08.bks.cpg/sg67_17_cif.got.tgz:33006.got - 2010.06.03 18:28:57.
