data_PCOD9501281
_publ_section_title
;
Structure prediction by ZEFSAII (Michael W. Deem and Ramdas Pophale) SiO2 
 PCOD9501281
Probable space group: C M M A
;
_chemical_formula_sum "Si O2"
_cell_formula_units_Z 84
_cell_length_a 13.806580
_cell_length_b 22.616391
_cell_length_c 13.531029
_cell_angle_alpha 90.000000
_cell_angle_beta 90.000000
_cell_angle_gamma 90.000000
_cell_volume 4225.131618
_symmetry_space_group_name_H-M "C M M A"
_symmetry_group_IT_number 67
_symmetry_cell_setting 'orthorhombic'
loop_
_space_group_symop_operation_xyz
x,y,z
-x,1/2-y,z
x,-y,-z
-x,1/2+y,-z
-x,-y,-z
x,1/2+y,-z
-x,y,z
x,1/2-y,z
1/2+x,1/2+y,z
1/2-x,-y,z
1/2+x,1/2-y,-z
1/2-x,y,-z
1/2-x,1/2-y,-z
1/2+x,y,-z
1/2-x,1/2+y,z
1/2+x,-y,z
loop_
_atom_site_type_symbol
_atom_site_label
_atom_site_fract_x
_atom_site_fract_y
_atom_site_fract_z
Si Si1 0.112066 0.575691 0.140911
Si Si2 0.888340 0.491800 0.649174
Si Si3 0.750000 0.000000 0.000000
Si Si4 0.115424 0.125562 0.335505
Si Si5 0.615796 0.627047 0.559985
Si Si6 0.291516 0.181358 0.246434
O O1 0.113828 0.540192 0.244863
O O2 0.180754 0.541073 0.066200
O O3 0.154475 0.639805 0.167988
O O4 0.000000 0.578470 0.108267
O O5 0.848236 0.557318 0.664271
O O6 0.852366 0.441675 0.573660
O O7 0.000000 0.503118 0.620103
O O8 0.132606 0.147041 0.448129
O O9 0.179909 0.161715 0.259198
O O10 0.000000 0.127849 0.315671
O O11 0.500000 0.627192 0.576425
O O12 0.662708 0.665463 0.646099
O O13 0.301494 0.250000 0.225339
#
# Coordination Sequence:
#
# PCOD9501281 Si02
#       6
#    16  16   4  16  16  16
#     4  10  22  40  64  92 118 146 179 220 278 344
#     4   8  15  31  53  78 110 146 185 230 286 345
#     4  12  22  40  70 102 122 128 158 226 300 358
#     4  10  19  31  50  78 114 155 200 253 300 326
#     4   9  18  31  50  78 110 149 199 251 294 329
#     4  11  23  38  54  75 110 158 205 235 267 331
#
# _framework density 19.881038
#
# number of rings (size 3 to 8) (size 9 to 14) (size 15 to 20)
#    0.000    2.286    0.000    4.286    0.000    8.000 
#    0.000    7.143    0.000    0.000    0.000    0.000 
#    0.000    0.000    0.000    0.000    0.000    0.000 
#
# Total GULP energy -234568.451376 kJ/mol
# GULP energy per Si atom -5584.963128 kJ/mol
# Density = 1.983579 g / cm^3
# Si number density = 19.881038 Si / 1000 Ang^3
#
#
#
# Elastic Constant Matrix: (Units=GPa)
#
#
# Indices 1 2 3 4 5 6 
#
# 1 142.4229 57.2096 41.3784 0.0000 0.0000 0.0000
# 2 57.2096 136.0292 41.3548 0.0000 0.0000 0.0000
# 3 41.3784 41.3548 44.6949 0.0000 0.0000 0.0000
# 4 0.0000 0.0000 0.0000 12.9995 0.0000 0.0000
# 5 0.0000 0.0000 0.0000 0.0000 23.3750 0.0000
# 6 0.0000 0.0000 0.0000 0.0000 0.0000 32.0206
#
#
#
# Elastic Compliance Matrix: (Units=1/GPa)
#
#
# Indices 1 2 3 4 5 6 
#
# 1 0.009955 -0.001927 -0.007433 0.000000 0.000000 0.000000
# 2 -0.001927 0.010602 -0.008025 0.000000 0.000000 0.000000
# 3 -0.007433 -0.008025 0.036681 0.000000 0.000000 0.000000
# 4 0.000000 0.000000 0.000000 0.076926 0.000000 0.000000
# 5 0.000000 0.000000 0.000000 0.000000 0.042781 0.000000
# 6 0.000000 0.000000 0.000000 0.000000 0.000000 0.031230
#
#
# Mechanical properties :
#
#
# Convention : Reuss Voigt Hill
#
# Bulk Modulus (GPa) = 44.51059 67.00363 55.75711
# Shear Modulus (GPa) = 19.96527 25.89263 22.92895
#
# Velocity S-wave (km/s) = 3.17241 3.61276 3.39972
# Velocity P-wave (km/s) = 5.98798 7.15389 6.59675
#
# Compressibility (1/GPa) = 0.02246656
#
# Stress axis : x y z
#
# Youngs Moduli (GPa) = 100.45201 94.32551 27.26179
#
# Poissons Ratio (x) = 0.18176 0.20265
# Poissons Ratio (y) = 0.19356 0.21879
# Poissons Ratio (z) = 0.74670 0.75700
#
# Static dielectric constant tensor:
#      x y z
#    x 1.776640 0.000000 0.000000 
#    y 0.000000 1.696600 0.000000 
#    z 0.000000 0.000000 1.672030 
# 
# From -- ./inp_files/27049.got.cif
#   From: 2010.05.17/outbox.cif.g08.bks.cpg/sg67_14_cif.got.tgz:27049.got - 2010.06.03 18:28:57.
