data_PCOD9501156
_publ_section_title
;
Structure prediction by ZEFSAII (Michael W. Deem and Ramdas Pophale) SiO2 
 PCOD9501156
Probable space group: C M M A
;
_chemical_formula_sum "Si O2"
_cell_formula_units_Z 72
_cell_length_a 7.637243
_cell_length_b 16.137225
_cell_length_c 26.440142
_cell_angle_alpha 90.000000
_cell_angle_beta 90.000000
_cell_angle_gamma 90.000000
_cell_volume 3258.586446
_symmetry_space_group_name_H-M "C M M A"
_symmetry_group_IT_number 67
_symmetry_cell_setting 'orthorhombic'
loop_
_space_group_symop_operation_xyz
x,y,z
-x,1/2-y,z
x,-y,-z
-x,1/2+y,-z
-x,-y,-z
x,1/2+y,-z
-x,y,z
x,1/2-y,z
1/2+x,1/2+y,z
1/2-x,-y,z
1/2+x,1/2-y,-z
1/2-x,y,-z
1/2-x,1/2-y,-z
1/2+x,y,-z
1/2-x,1/2+y,z
1/2+x,-y,z
loop_
_atom_site_type_symbol
_atom_site_label
_atom_site_fract_x
_atom_site_fract_y
_atom_site_fract_z
Si Si1 0.209956 0.908131 0.878266
Si Si2 0.789457 0.750000 0.940911
Si Si3 0.713991 0.152694 0.771149
Si Si4 0.203186 0.650490 0.662223
Si Si5 0.206095 0.402954 0.444973
O O1 0.276114 0.832994 0.912993
O O2 0.274806 0.895733 0.820641
O O3 0.000000 0.900403 0.876210
O O4 0.250000 0.000000 0.897075
O O5 0.000000 0.750000 0.935579
O O6 0.750000 0.750000 0.000000
O O7 0.500000 0.149984 0.769371
O O8 0.759701 0.250000 0.777579
O O9 0.778889 0.122110 0.716204
O O10 0.200914 0.750000 0.665139
O O11 0.284848 0.628044 0.608100
O O12 0.000000 0.621663 0.661480
O O13 0.250000 0.500000 0.447276
O O14 0.250000 0.365834 0.500000
O O15 0.000000 0.390818 0.441042
#
# Coordination Sequence:
#
# PCOD9501156 Si02
#       5
#    16   8  16  16  16
#     4  10  20  35  57  85 112 143 183 224 267 319
#     4  10  22  40  60  82 112 150 187 222 266 314
#     4   8  13  27  51  74 100 134 169 208 255 310
#     4   8  15  27  46  72  96 122 161 205 248 298
#     4  10  19  31  46  64  89 123 161 202 248 300
#
# _framework density 22.095469000000001
#
# number of rings (size 3 to 8) (size 9 to 14) (size 15 to 20)
#    0.000    2.889    1.111    2.667    0.000    2.667 
#    0.000    2.222    0.000    3.333    0.000    6.222 
#    0.000    0.000    0.000    0.000    0.000    0.000 
#
# Total GULP energy -200672.681736 kJ/mol
# GULP energy per Si atom -5574.241159 kJ/mol
# Density = 2.204518 g / cm^3
# Si number density = 22.095469 Si / 1000 Ang^3
#
#
#
# Elastic Constant Matrix: (Units=GPa)
#
#
# Indices 1 2 3 4 5 6 
#
# 1 45.1587 -1.2343 12.5334 0.0000 0.0000 0.0000
# 2 -1.2343 93.7240 80.0175 0.0000 0.0000 0.0000
# 3 12.5334 80.0175 213.4484 0.0000 0.0000 0.0000
# 4 0.0000 0.0000 0.0000 -16.2070 0.0000 0.0000
# 5 0.0000 0.0000 0.0000 0.0000 16.1347 0.0000
# 6 0.0000 0.0000 0.0000 0.0000 0.0000 7.3875
#
#
#
# Elastic Compliance Matrix: (Units=1/GPa)
#
#
# Indices 1 2 3 4 5 6 
#
# 1 0.022794 0.002122 -0.002134 0.000000 0.000000 0.000000
# 2 0.002122 0.015889 -0.006081 0.000000 0.000000 0.000000
# 3 -0.002134 -0.006081 0.007090 0.000000 0.000000 0.000000
# 4 0.000000 0.000000 0.000000 -0.061702 0.000000 0.000000
# 5 0.000000 0.000000 0.000000 0.000000 0.061978 0.000000
# 6 0.000000 0.000000 0.000000 0.000000 0.000000 0.135363
#
#
# Mechanical properties :
#
#
# Convention : Reuss Voigt Hill
#
# Bulk Modulus (GPa) = 29.77289 59.44048 44.60668
# Shear Modulus (GPa) = 24.41460 18.86402 21.63931
#
# Velocity S-wave (km/s) = 3.32770 2.92507 3.13286
# Velocity P-wave (km/s) = 5.31683 6.19420 5.77221
#
# Compressibility (1/GPa) = 0.03358761
#
# Stress axis : x y z
#
# Youngs Moduli (GPa) = 43.87043 62.93476 141.04343
#
# Poissons Ratio (x) = -0.13355 0.30099
# Poissons Ratio (y) = -0.09310 0.85772
# Poissons Ratio (z) = 0.09362 0.38272
#
# Static dielectric constant tensor:
#      x y z
#    x 1.856330 0.000000 0.000000 
#    y 0.000000 1.783270 0.000000 
#    z 0.000000 0.000000 1.875310 
# 
# From -- ./inp_files/43096.got.cif
#   From: 2010.05.17/outbox.cif.g08.bks.cpg/sg67_22_cif.got.tgz:43096.got - 2010.06.03 18:28:57.
