data_PCOD9501301
_publ_section_title
;
Structure prediction by ZEFSAII (Michael W. Deem and Ramdas Pophale) SiO2 
 PCOD9501301
Probable space group: C M M A
;
_chemical_formula_sum "Si O2"
_cell_formula_units_Z 128
_cell_length_a 18.877084
_cell_length_b 23.736538
_cell_length_c 18.184862
_cell_angle_alpha 90.000000
_cell_angle_beta 90.000000
_cell_angle_gamma 90.000000
_cell_volume 8148.211531
_symmetry_space_group_name_H-M "C M M A"
_symmetry_group_IT_number 67
_symmetry_cell_setting 'orthorhombic'
loop_
_space_group_symop_operation_xyz
x,y,z
-x,1/2-y,z
x,-y,-z
-x,1/2+y,-z
-x,-y,-z
x,1/2+y,-z
-x,y,z
x,1/2-y,z
1/2+x,1/2+y,z
1/2-x,-y,z
1/2+x,1/2-y,-z
1/2-x,y,-z
1/2-x,1/2-y,-z
1/2+x,y,-z
1/2-x,1/2+y,z
1/2+x,-y,z
loop_
_atom_site_type_symbol
_atom_site_label
_atom_site_fract_x
_atom_site_fract_y
_atom_site_fract_z
Si Si1 0.164236 0.393207 0.130980
Si Si2 0.676638 0.814947 0.712998
Si Si3 0.584765 0.004993 0.088428
Si Si4 0.679195 0.681487 0.544078
Si Si5 0.164586 0.615816 0.144557
Si Si6 0.079713 0.181543 0.415531
Si Si7 0.654417 0.314181 0.734677
Si Si8 0.335394 0.312702 0.003984
O O1 0.125935 0.452711 0.124759
O O2 0.250497 0.397652 0.136961
O O3 0.138290 0.356804 0.200187
O O4 0.145094 0.357393 0.058292
O O5 0.649303 0.750000 0.719714
O O6 0.669716 0.835487 0.628732
O O7 0.649403 0.857669 0.775304
O O8 0.760893 0.811444 0.727373
O O9 0.500000 0.003310 0.100828
O O10 0.619463 0.061567 0.121337
O O11 0.596462 0.000000 0.000000
O O12 0.682614 0.750000 0.547143
O O13 0.750000 0.663754 0.500000
O O14 0.615581 0.663626 0.491275
O O15 0.147864 0.663817 0.084275
O O16 0.079890 0.250000 0.417021
O O17 0.123786 0.166457 0.343312
O O18 0.000000 0.161546 0.408881
O O19 0.629292 0.250000 0.749785
O O20 0.363825 0.250000 0.990800
O O21 0.250000 0.309190 0.000000
#
# Coordination Sequence:
#
# PCOD9501301 Si02
#       8
#    16  16  16  16  16  16  16  16
#     4  10  19  31  52  76  96 123 163 205 244 292
#     4   9  16  27  47  76 104 130 163 200 244 298
#     4  11  23  38  53  67  91 129 173 216 253 292
#     4   9  14  24  43  66  97 136 168 194 231 287
#     4  10  19  32  52  75  98 126 163 209 248 289
#     4   9  16  25  39  63  98 136 166 193 232 285
#     4   9  16  27  44  72 106 130 152 192 246 299
#     4   9  16  27  46  74 103 127 153 191 243 294
#
# _framework density 15.708969
#
# number of rings (size 3 to 8) (size 9 to 14) (size 15 to 20)
#    0.000    2.500    2.500    1.125    0.000    4.000 
#    0.000    0.625    0.000    4.125    0.000    0.875 
#    0.000    2.000    0.000    0.000    0.000    0.000 
#
# Total GULP energy -356340.561081 kJ/mol
# GULP energy per Si atom -5567.821267 kJ/mol
# Density = 1.567321 g / cm^3
# Si number density = 15.708969 Si / 1000 Ang^3
#
#
#
# Elastic Constant Matrix: (Units=GPa)
#
#
# Indices 1 2 3 4 5 6 
#
# 1 29.3573 24.7417 21.3836 0.0000 0.0000 0.0000
# 2 24.7417 71.7661 39.6559 0.0000 0.0000 0.0000
# 3 21.3836 39.6559 122.6195 0.0000 0.0000 0.0000
# 4 0.0000 0.0000 0.0000 6.1290 0.0000 0.0000
# 5 0.0000 0.0000 0.0000 0.0000 13.8736 0.0000
# 6 0.0000 0.0000 0.0000 0.0000 0.0000 7.8424
#
#
#
# Elastic Compliance Matrix: (Units=1/GPa)
#
#
# Indices 1 2 3 4 5 6 
#
# 1 0.049415 -0.014945 -0.003784 0.000000 0.000000 0.000000
# 2 -0.014945 0.021486 -0.004342 0.000000 0.000000 0.000000
# 3 -0.003784 -0.004342 0.010220 0.000000 0.000000 0.000000
# 4 0.000000 0.000000 0.000000 0.163158 0.000000 0.000000
# 5 0.000000 0.000000 0.000000 0.000000 0.072079 0.000000
# 6 0.000000 0.000000 0.000000 0.000000 0.000000 0.127512
#
#
# Mechanical properties :
#
#
# Convention : Reuss Voigt Hill
#
# Bulk Modulus (GPa) = 28.59002 43.92279 36.25641
# Shear Modulus (GPa) = 9.96669 14.76646 12.36658
#
# Velocity S-wave (km/s) = 2.52158 3.06927 2.80881
# Velocity P-wave (km/s) = 5.16886 6.37037 5.80081
#
# Compressibility (1/GPa) = 0.03497724
#
# Stress axis : x y z
#
# Youngs Moduli (GPa) = 20.23692 46.54197 97.85119
#
# Poissons Ratio (x) = 0.69557 0.37028
# Poissons Ratio (y) = 0.30244 0.42491
# Poissons Ratio (z) = 0.07658 0.20211
#
# Static dielectric constant tensor:
#      x y z
#    x 1.529700 0.000000 0.000000 
#    y 0.000000 1.510920 0.000000 
#    z 0.000000 0.000000 1.543370 
# 
# From -- ./inp_files/35285.got.cif
#   From: 2010.05.17/outbox.cif.g08.bks.cpg/sg67_18_cif.got.tgz:35285.got - 2010.06.03 18:28:57.
