data_PCOD9501886
_publ_section_title
;
Structure prediction by ZEFSAII (Michael W. Deem and Ramdas Pophale) SiO2 
 PCOD9501886
Probable space group: C M M A
;
_chemical_formula_sum "Si O2"
_cell_formula_units_Z 48
_cell_length_a 25.513068
_cell_length_b 5.374781
_cell_length_c 17.051520
_cell_angle_alpha 90.000000
_cell_angle_beta 90.000000
_cell_angle_gamma 90.000000
_cell_volume 2338.226394
_symmetry_space_group_name_H-M "C M M A"
_symmetry_group_IT_number 67
_symmetry_cell_setting 'orthorhombic'
loop_
_space_group_symop_operation_xyz
x,y,z
-x,1/2-y,z
x,-y,-z
-x,1/2+y,-z
-x,-y,-z
x,1/2+y,-z
-x,y,z
x,1/2-y,z
1/2+x,1/2+y,z
1/2-x,-y,z
1/2+x,1/2-y,-z
1/2-x,y,-z
1/2-x,1/2-y,-z
1/2+x,y,-z
1/2-x,1/2+y,z
1/2+x,-y,z
loop_
_atom_site_type_symbol
_atom_site_label
_atom_site_fract_x
_atom_site_fract_y
_atom_site_fract_z
Si Si1 0.395316 0.250000 0.949120
Si Si2 0.560028 0.250000 0.784760
Si Si3 0.561592 0.250000 0.449684
Si Si4 0.764594 0.250000 0.705691
Si Si5 0.387525 0.250000 0.281919
Si Si6 0.278790 0.250000 0.879978
O O1 0.436476 0.250000 0.878633
O O2 0.338226 0.250000 0.907532
O O3 0.399847 0.500000 0.000000
O O4 0.500000 0.250000 0.757182
O O5 0.588298 0.500151 0.755109
O O6 0.500000 0.250000 0.425428
O O7 0.570192 0.500000 0.500000
O O8 0.597428 0.250000 0.373217
O O9 0.750000 0.500000 0.661541
O O10 0.825153 0.250000 0.729402
O O11 0.729008 0.250000 0.785239
O O12 0.250000 0.500000 0.907625
#
# Coordination Sequence:
#
# PCOD9501886 Si02
#       6
#     8   8   8   8   8   8
#     4  12  26  41  59  85 120 162 209 265 326 382
#     4  12  25  42  65  92 124 167 219 268 316 381
#     4  10  21  38  63  97 134 168 204 252 313 373
#     4  10  20  36  61  89 121 159 204 257 311 367
#     4  12  23  42  69  97 130 167 214 263 314 378
#     4  10  19  35  55  80 111 145 194 252 312 369
#
# _framework density 20.528381
#
# number of rings (size 3 to 8) (size 9 to 14) (size 15 to 20)
#    0.000    1.000    0.000    9.500    0.000    4.000 
#    0.000    0.000    0.000    3.000    0.000    0.000 
#    0.000    0.000    0.000    0.000    0.000    0.000 
#
# Total GULP energy -134263.610115 kJ/mol
# GULP energy per Si atom -5594.317088 kJ/mol
# Density = 2.048166 g / cm^3
# Si number density = 20.528381 Si / 1000 Ang^3
#
#
#
# Elastic Constant Matrix: (Units=GPa)
#
#
# Indices 1 2 3 4 5 6 
#
# 1 100.1553 57.9727 11.5222 0.0000 0.0000 0.0000
# 2 57.9727 219.9301 30.2635 0.0000 0.0000 0.0000
# 3 11.5222 30.2635 82.5634 0.0000 0.0000 0.0000
# 4 0.0000 0.0000 0.0000 20.8306 0.0000 0.0000
# 5 0.0000 0.0000 0.0000 0.0000 -9.5808 0.0000
# 6 0.0000 0.0000 0.0000 0.0000 0.0000 20.3234
#
#
#
# Elastic Compliance Matrix: (Units=1/GPa)
#
#
# Indices 1 2 3 4 5 6 
#
# 1 0.011804 -0.003038 -0.000534 0.000000 0.000000 0.000000
# 2 -0.003038 0.005570 -0.001618 0.000000 0.000000 0.000000
# 3 -0.000534 -0.001618 0.012779 0.000000 0.000000 0.000000
# 4 0.000000 0.000000 0.000000 0.048006 0.000000 0.000000
# 5 0.000000 0.000000 0.000000 0.000000 -0.104375 0.000000
# 6 0.000000 0.000000 0.000000 0.000000 0.000000 0.049204
#
#
# Mechanical properties :
#
#
# Convention : Reuss Voigt Hill
#
# Bulk Modulus (GPa) = 50.56948 66.90730 58.73839
# Shear Modulus (GPa) = 125.12260 26.50733 75.81497
#
# Velocity S-wave (km/s) = 7.81558 3.59730 6.08375
# Velocity P-wave (km/s) = 10.30203 7.06523 8.83316
#
# Compressibility (1/GPa) = 0.01977477
#
# Stress axis : x y z
#
# Youngs Moduli (GPa) = 84.71370 179.52141 78.25096
#
# Poissons Ratio (x) = 0.54542 0.04177
# Poissons Ratio (y) = 0.25737 0.12660
# Poissons Ratio (z) = 0.04522 0.29043
#
# Static dielectric constant tensor:
#      x y z
#    x 1.733500 0.000000 0.000000 
#    y 0.000000 1.793750 0.000000 
#    z 0.000000 0.000000 1.709630 
# 
# From -- ./inp_files/30383.got.cif
#   From: 2010.05.17/outbox.cif.g08.bks.cpg/sg67_16_cif.got.tgz:30383.got - 2010.06.03 18:28:57.
