data_PCOD9501392
_publ_section_title
;
Structure prediction by ZEFSAII (Michael W. Deem and Ramdas Pophale) SiO2 
 PCOD9501392
Probable space group: C M M A
;
_chemical_formula_sum "Si O2"
_cell_formula_units_Z 104
_cell_length_a 27.497971
_cell_length_b 8.787588
_cell_length_c 24.643278
_cell_angle_alpha 90.000000
_cell_angle_beta 90.000000
_cell_angle_gamma 90.000000
_cell_volume 5954.822396
_symmetry_space_group_name_H-M "C M M A"
_symmetry_group_IT_number 67
_symmetry_cell_setting 'orthorhombic'
loop_
_space_group_symop_operation_xyz
x,y,z
-x,1/2-y,z
x,-y,-z
-x,1/2+y,-z
-x,-y,-z
x,1/2+y,-z
-x,y,z
x,1/2-y,z
1/2+x,1/2+y,z
1/2-x,-y,z
1/2+x,1/2-y,-z
1/2-x,y,-z
1/2-x,1/2-y,-z
1/2+x,y,-z
1/2-x,1/2+y,z
1/2+x,-y,z
loop_
_atom_site_type_symbol
_atom_site_label
_atom_site_fract_x
_atom_site_fract_y
_atom_site_fract_z
Si Si1 0.800910 0.433135 0.731665
Si Si2 0.943199 0.423905 0.241502
Si Si3 0.301614 0.433227 0.853094
Si Si4 0.443812 0.068383 0.558600
Si Si5 0.605954 0.070740 0.338856
Si Si6 0.500000 0.432018 0.060180
Si Si7 0.092492 0.433337 0.123445
O O1 0.799188 0.250000 0.736669
O O2 0.750000 0.500000 0.711726
O O3 0.808035 0.503241 0.791739
O O4 0.843573 0.474696 0.690048
O O5 0.928289 0.250000 0.255098
O O6 0.932793 0.529020 0.292388
O O7 0.916591 0.471681 0.186678
O O8 0.000000 0.422284 0.228772
O O9 0.298518 0.250000 0.850454
O O10 0.250000 0.500000 0.873117
O O11 0.350746 0.472866 0.886496
O O12 0.500000 0.021921 0.570873
O O13 0.442660 0.250000 0.555571
O O14 0.431214 0.000000 0.500000
O O15 0.408941 0.012310 0.606247
O O16 0.606963 0.250000 0.348959
O O17 0.500000 0.250000 0.059121
O O18 0.450634 0.489461 0.089722
O O19 0.500000 0.500000 0.000000
O O20 0.087155 0.250000 0.118015
#
# Coordination Sequence:
#
# PCOD9501392 Si02
#       7
#    16  16  16  16  16   8  16
#     4  10  20  32  48  73 107 143 181 223 268 324
#     4  10  19  32  50  74 108 147 180 216 267 326
#     4  10  19  32  54  81 114 153 189 231 280 334
#     4  10  21  37  56  76 100 135 177 219 266 322
#     4  11  22  33  49  76 108 139 176 223 270 325
#     4  12  26  42  64  88 116 154 195 238 281 332
#     4  10  20  37  58  82 115 153 190 231 279 332
#
# _framework density 17.464835999999998
#
# number of rings (size 3 to 8) (size 9 to 14) (size 15 to 20)
#    0.000    1.692    2.308    3.923    0.000    6.769 
#    0.000    0.000    0.000    0.923    0.000    6.462 
#    0.000    0.000    0.000    0.000    0.000    0.000 
#
# Total GULP energy -290128.953860 kJ/mol
# GULP energy per Si atom -5579.402959 kJ/mol
# Density = 1.742509 g / cm^3
# Si number density = 17.464836 Si / 1000 Ang^3
#
#
#
# Elastic Constant Matrix: (Units=GPa)
#
#
# Indices 1 2 3 4 5 6 
#
# 1 133.1006 41.7162 44.0198 0.0000 0.0000 0.0000
# 2 41.7162 52.4654 26.7583 0.0000 0.0000 0.0000
# 3 44.0198 26.7583 54.2170 0.0000 0.0000 0.0000
# 4 0.0000 0.0000 0.0000 27.8013 0.0000 0.0000
# 5 0.0000 0.0000 0.0000 0.0000 11.0082 0.0000
# 6 0.0000 0.0000 0.0000 0.0000 0.0000 26.7254
#
#
#
# Elastic Compliance Matrix: (Units=1/GPa)
#
#
# Indices 1 2 3 4 5 6 
#
# 1 0.011470 -0.005841 -0.006430 0.000000 0.000000 0.000000
# 2 -0.005841 0.028446 -0.009297 0.000000 0.000000 0.000000
# 3 -0.006430 -0.009297 0.028254 0.000000 0.000000 0.000000
# 4 0.000000 0.000000 0.000000 0.035970 0.000000 0.000000
# 5 0.000000 0.000000 0.000000 0.000000 0.090841 0.000000
# 6 0.000000 0.000000 0.000000 0.000000 0.000000 0.037418
#
#
# Mechanical properties :
#
#
# Convention : Reuss Voigt Hill
#
# Bulk Modulus (GPa) = 39.94595 51.64129 45.79362
# Shear Modulus (GPa) = 17.61312 21.59290 19.60301
#
# Velocity S-wave (km/s) = 3.17912 3.52001 3.35390
# Velocity P-wave (km/s) = 6.03304 6.79364 6.42461
#
# Compressibility (1/GPa) = 0.02503382
#
# Stress axis : x y z
#
# Youngs Moduli (GPa) = 87.18097 35.15444 35.39345
#
# Poissons Ratio (x) = 0.20533 0.22759
# Poissons Ratio (y) = 0.50920 0.32905
# Poissons Ratio (z) = 0.56061 0.32683
#
# Static dielectric constant tensor:
#      x y z
#    x 1.638940 0.000000 0.000000 
#    y 0.000000 1.598290 0.000000 
#    z 0.000000 0.000000 1.555130 
# 
# From -- ./inp_files/42765.got.cif
#   From: 2010.05.17/outbox.cif.g08.bks.cpg/sg67_22_cif.got.tgz:42765.got - 2010.06.03 18:28:57.
