data_PCOD9501293
_publ_section_title
;
Structure prediction by ZEFSAII (Michael W. Deem and Ramdas Pophale) SiO2 
 PCOD9501293
Probable space group: C M M A
;
_chemical_formula_sum "Si O2"
_cell_formula_units_Z 72
_cell_length_a 15.042202
_cell_length_b 9.339914
_cell_length_c 25.839173
_cell_angle_alpha 90.000000
_cell_angle_beta 90.000000
_cell_angle_gamma 90.000000
_cell_volume 3630.219652
_symmetry_space_group_name_H-M "C M M A"
_symmetry_group_IT_number 67
_symmetry_cell_setting 'orthorhombic'
loop_
_space_group_symop_operation_xyz
x,y,z
-x,1/2-y,z
x,-y,-z
-x,1/2+y,-z
-x,-y,-z
x,1/2+y,-z
-x,y,z
x,1/2-y,z
1/2+x,1/2+y,z
1/2-x,-y,z
1/2+x,1/2-y,-z
1/2-x,y,-z
1/2-x,1/2-y,-z
1/2+x,y,-z
1/2-x,1/2+y,z
1/2+x,-y,z
loop_
_atom_site_type_symbol
_atom_site_label
_atom_site_fract_x
_atom_site_fract_y
_atom_site_fract_z
Si Si1 0.391647 0.416365 0.449754
Si Si2 0.000000 0.080559 0.945979
Si Si3 0.607806 0.914301 0.234138
Si Si4 0.338228 0.578884 0.869272
Si Si5 0.391430 0.916572 0.664713
O O1 0.359395 0.500000 0.500000
O O2 0.500000 0.423704 0.450186
O O3 0.367605 0.250000 0.453879
O O4 0.363681 0.467577 0.392604
O O5 0.084496 0.047704 0.910185
O O6 0.000000 0.250000 0.956186
O O7 0.000000 0.000000 0.000000
O O8 0.500000 0.913314 0.234166
O O9 0.638329 0.750000 0.228672
O O10 0.637946 0.011034 0.186279
O O11 0.637870 0.984329 0.288137
O O12 0.327962 0.750000 0.864756
O O13 0.250000 0.500000 0.887465
O O14 0.500000 0.917226 0.665127
O O15 0.365109 0.750000 0.671672
#
# Coordination Sequence:
#
# PCOD9501293 Si02
#       5
#    16   8  16  16  16
#     4   8  13  20  30  47  76 118 167 219 278 338
#     4  10  24  44  68  94 126 164 201 240 289 340
#     4  10  19  31  51  79 109 145 189 239 292 347
#     4  11  23  41  63  91 123 160 201 243 293 347
#     4   8  14  24  38  58  88 130 177 226 283 347
#
# _framework density 19.833508999999999
#
# number of rings (size 3 to 8) (size 9 to 14) (size 15 to 20)
#    0.000    2.667    1.111    2.667    0.000    4.000 
#    0.000    6.667    0.000    0.000    0.000    0.000 
#    0.000    0.889    0.000    9.333    0.000   13.556 
#
# Total GULP energy -200977.808764 kJ/mol
# GULP energy per Si atom -5582.716910 kJ/mol
# Density = 1.978837 g / cm^3
# Si number density = 19.833509 Si / 1000 Ang^3
#
#
#
# Elastic Constant Matrix: (Units=GPa)
#
#
# Indices 1 2 3 4 5 6 
#
# 1 74.9148 49.3489 55.6654 0.0000 0.0000 0.0000
# 2 49.3489 108.9938 106.6594 0.0000 0.0000 0.0000
# 3 55.6654 106.6594 204.7361 0.0000 0.0000 0.0000
# 4 0.0000 0.0000 0.0000 42.9858 0.0000 0.0000
# 5 0.0000 0.0000 0.0000 0.0000 -16.1663 0.0000
# 6 0.0000 0.0000 0.0000 0.0000 0.0000 15.6503
#
#
#
# Elastic Compliance Matrix: (Units=1/GPa)
#
#
# Indices 1 2 3 4 5 6 
#
# 1 0.019220 -0.007320 -0.001412 0.000000 0.000000 0.000000
# 2 -0.007320 0.021505 -0.009213 0.000000 0.000000 0.000000
# 3 -0.001412 -0.009213 0.010068 0.000000 0.000000 0.000000
# 4 0.000000 0.000000 0.000000 0.023264 0.000000 0.000000
# 5 0.000000 0.000000 0.000000 0.000000 -0.061857 0.000000
# 6 0.000000 0.000000 0.000000 0.000000 0.000000 0.063897
#
#
# Mechanical properties :
#
#
# Convention : Reuss Voigt Hill
#
# Bulk Modulus (GPa) = 67.10514 90.22136 78.66325
# Shear Modulus (GPa) = 42.75210 20.29200 31.52205
#
# Velocity S-wave (km/s) = 4.64783 3.20209 3.99097
# Velocity P-wave (km/s) = 7.91901 7.69801 7.80929
#
# Compressibility (1/GPa) = 0.01490199
#
# Stress axis : x y z
#
# Youngs Moduli (GPa) = 52.02951 46.50135 99.32680
#
# Poissons Ratio (x) = 0.34040 0.14026
# Poissons Ratio (y) = 0.38087 0.91508
# Poissons Ratio (z) = 0.07347 0.42841
#
# Static dielectric constant tensor:
#      x y z
#    x 1.903620 0.000000 0.000000 
#    y 0.000000 1.858260 0.000000 
#    z 0.000000 0.000000 1.678170 
# 
# From -- ./inp_files/42119.got.cif
#   From: 2010.05.17/outbox.cif.g08.bks.cpg/sg67_22_cif.got.tgz:42119.got - 2010.06.03 18:28:57.
