data_PCOD9501792
_publ_section_title
;
Structure prediction by ZEFSAII (Michael W. Deem and Ramdas Pophale) SiO2 
 PCOD9501792
Probable space group: C M M A
;
_chemical_formula_sum "Si O2"
_cell_formula_units_Z 80
_cell_length_a 25.820744
_cell_length_b 17.069626
_cell_length_c 9.556777
_cell_angle_alpha 90.000000
_cell_angle_beta 90.000000
_cell_angle_gamma 90.000000
_cell_volume 4212.153698
_symmetry_space_group_name_H-M "C M M A"
_symmetry_group_IT_number 67
_symmetry_cell_setting 'orthorhombic'
loop_
_space_group_symop_operation_xyz
x,y,z
-x,1/2-y,z
x,-y,-z
-x,1/2+y,-z
-x,-y,-z
x,1/2+y,-z
-x,y,z
x,1/2-y,z
1/2+x,1/2+y,z
1/2-x,-y,z
1/2+x,1/2-y,-z
1/2-x,y,-z
1/2-x,1/2-y,-z
1/2+x,y,-z
1/2-x,1/2+y,z
1/2+x,-y,z
loop_
_atom_site_type_symbol
_atom_site_label
_atom_site_fract_x
_atom_site_fract_y
_atom_site_fract_z
Si Si1 0.325752 0.909900 0.543533
Si Si2 0.116019 0.841201 0.217319
Si Si3 0.331254 0.908491 0.038253
Si Si4 0.728280 0.342286 0.707347
Si Si5 0.944270 0.092778 0.025721
O O1 0.374021 0.888610 0.641609
O O2 0.317721 0.857917 0.405078
O O3 0.276072 0.889040 0.639858
O O4 0.325497 0.000000 0.500000
O O5 0.115656 0.750000 0.247438
O O6 0.066850 0.867122 0.124753
O O7 0.162237 0.861334 0.106477
O O8 0.289337 0.876811 0.144683
O O9 0.389389 0.896017 0.104297
O O10 0.324381 0.000000 0.000000
O O11 0.739699 0.250000 0.714269
O O12 0.000000 0.118431 0.083435
O O13 0.946305 0.000000 0.000000
#
# Coordination Sequence:
#
# PCOD9501792 Si02
#       5
#    16  16  16  16  16
#     4  11  23  37  54  75 109 154 192 221 270 336
#     4  10  19  34  55  84 111 144 187 236 280 323
#     4   9  19  34  55  83 111 145 187 226 277 332
#     4  11  21  36  54  79 112 149 185 229 277 327
#     4   8  17  35  58  83 113 143 180 226 283 338
#
# _framework density 18.992657999999999
#
# number of rings (size 3 to 8) (size 9 to 14) (size 15 to 20)
#    1.200    1.000    0.000    5.400    0.000    1.200 
#    0.000    4.000    0.000    1.800    0.000    0.000 
#    0.000    0.000    0.000    0.000    0.000    0.000 
#
# Total GULP energy -222710.388195 kJ/mol
# GULP energy per Si atom -5567.759705 kJ/mol
# Density = 1.894943 g / cm^3
# Si number density = 18.992658 Si / 1000 Ang^3
#
#
#
# Elastic Constant Matrix: (Units=GPa)
#
#
# Indices 1 2 3 4 5 6 
#
# 1 49.5487 28.5468 10.1696 0.0000 0.0000 0.0000
# 2 28.5468 145.8123 36.3651 0.0000 0.0000 0.0000
# 3 10.1696 36.3651 65.5535 0.0000 0.0000 0.0000
# 4 0.0000 0.0000 0.0000 25.2719 0.0000 0.0000
# 5 0.0000 0.0000 0.0000 0.0000 19.9330 0.0000
# 6 0.0000 0.0000 0.0000 0.0000 0.0000 -0.8147
#
#
#
# Elastic Compliance Matrix: (Units=1/GPa)
#
#
# Indices 1 2 3 4 5 6 
#
# 1 0.022834 -0.004163 -0.001233 0.000000 0.000000 0.000000
# 2 -0.004163 0.008718 -0.004191 0.000000 0.000000 0.000000
# 3 -0.001233 -0.004191 0.017771 0.000000 0.000000 0.000000
# 4 0.000000 0.000000 0.000000 0.039570 0.000000 0.000000
# 5 0.000000 0.000000 0.000000 0.000000 0.050168 0.000000
# 6 0.000000 0.000000 0.000000 0.000000 0.000000 -1.227393
#
#
# Mechanical properties :
#
#
# Convention : Reuss Voigt Hill
#
# Bulk Modulus (GPa) = 33.16776 45.67528 39.42152
# Shear Modulus (GPa) = -4.72094 21.26692 8.27299
#
# Velocity S-wave (km/s) = -1.57831 3.34989 2.08934
# Velocity P-wave (km/s) = 3.76563 6.25008 5.15962
#
# Compressibility (1/GPa) = 0.03014976
#
# Stress axis : x y z
#
# Youngs Moduli (GPa) = 43.79519 114.70229 56.27251
#
# Poissons Ratio (x) = 0.47748 0.06938
# Poissons Ratio (y) = 0.18231 0.23581
# Poissons Ratio (z) = 0.05400 0.48067
#
# Static dielectric constant tensor:
#      x y z
#    x 1.743370 0.000000 0.000000 
#    y 0.000000 1.637230 0.000000 
#    z 0.000000 0.000000 1.652410 
# 
# From -- ./inp_files/14560.got.cif
#   From: 2010.05.17/outbox.cif.g08.bks.cpg/sg67_8_cif.got.tgz:14560.got - 2010.06.03 18:28:57.
