data_PCOD9501802
_publ_section_title
;
Structure prediction by ZEFSAII (Michael W. Deem and Ramdas Pophale) SiO2 
 PCOD9501802
Probable space group: C M M A
;
_chemical_formula_sum "Si O2"
_cell_formula_units_Z 112
_cell_length_a 23.631643
_cell_length_b 15.584936
_cell_length_c 16.401680
_cell_angle_alpha 90.000000
_cell_angle_beta 90.000000
_cell_angle_gamma 90.000000
_cell_volume 6040.700097
_symmetry_space_group_name_H-M "C M M A"
_symmetry_group_IT_number 67
_symmetry_cell_setting 'orthorhombic'
loop_
_space_group_symop_operation_xyz
x,y,z
-x,1/2-y,z
x,-y,-z
-x,1/2+y,-z
-x,-y,-z
x,1/2+y,-z
-x,y,z
x,1/2-y,z
1/2+x,1/2+y,z
1/2-x,-y,z
1/2+x,1/2-y,-z
1/2-x,y,-z
1/2-x,1/2-y,-z
1/2+x,y,-z
1/2-x,1/2+y,z
1/2+x,-y,z
loop_
_atom_site_type_symbol
_atom_site_label
_atom_site_fract_x
_atom_site_fract_y
_atom_site_fract_z
Si Si1 0.730702 0.910015 0.762419
Si Si2 0.156869 0.983237 0.090716
Si Si3 0.564057 0.351044 0.658371
Si Si4 0.352579 0.150048 0.802705
Si Si5 0.882875 0.350134 0.684715
Si Si6 0.066440 0.851609 0.142296
Si Si7 0.436590 0.400595 0.480742
O O1 0.701737 0.937917 0.848450
O O2 0.786745 0.855092 0.776510
O O3 0.681586 0.867101 0.710371
O O4 0.750000 0.000000 0.723439
O O5 0.104151 0.917041 0.090110
O O6 0.141149 0.075905 0.129408
O O7 0.178092 0.000000 0.000000
O O8 0.500000 0.389006 0.663702
O O9 0.558771 0.250000 0.672747
O O10 0.607706 0.380168 0.727388
O O11 0.585049 0.361532 0.565693
O O12 0.365462 0.250000 0.824716
O O13 0.892550 0.250000 0.673142
O O14 0.920132 0.376034 0.763393
O O15 0.900264 0.391919 0.600192
O O16 0.082330 0.750000 0.132406
O O17 0.000000 0.859361 0.125832
O O18 0.441470 0.500000 0.500000
O O19 0.500000 0.364610 0.465728
#
# Coordination Sequence:
#
# PCOD9501802 Si02
#       7
#    16  16  16  16  16  16  16
#     4   9  20  36  57  80 109 146 185 233 282 333
#     4  10  22  38  58  85 115 144 185 234 286 341
#     4   9  19  36  56  79 109 145 183 227 275 327
#     4  10  21  38  60  83 111 148 190 233 282 340
#     4  10  19  34  56  80 109 146 188 231 278 329
#     4   9  19  35  57  85 117 154 192 231 280 336
#     4  10  21  32  51  83 114 143 183 230 275 323
#
# _framework density 18.540897999999999
#
# number of rings (size 3 to 8) (size 9 to 14) (size 15 to 20)
#    0.000    2.429    0.000    1.286    6.000    6.000 
#    0.000    1.429    0.000    4.286    0.000    0.000 
#    0.000    0.000    0.000    0.000    0.000    0.000 
#
# Total GULP energy -312051.066485 kJ/mol
# GULP energy per Si atom -5572.340473 kJ/mol
# Density = 1.849870 g / cm^3
# Si number density = 18.540898 Si / 1000 Ang^3
#
#
#
# Elastic Constant Matrix: (Units=GPa)
#
#
# Indices 1 2 3 4 5 6 
#
# 1 71.5042 17.0050 30.4840 0.0000 0.0000 0.0000
# 2 17.0050 53.8497 18.6410 0.0000 0.0000 0.0000
# 3 30.4840 18.6410 103.7659 0.0000 0.0000 0.0000
# 4 0.0000 0.0000 0.0000 20.4901 0.0000 0.0000
# 5 0.0000 0.0000 0.0000 0.0000 -9.2308 0.0000
# 6 0.0000 0.0000 0.0000 0.0000 0.0000 19.4300
#
#
#
# Elastic Compliance Matrix: (Units=1/GPa)
#
#
# Indices 1 2 3 4 5 6 
#
# 1 0.016690 -0.003810 -0.004219 0.000000 0.000000 0.000000
# 2 -0.003810 0.020671 -0.002594 0.000000 0.000000 0.000000
# 3 -0.004219 -0.002594 0.011342 0.000000 0.000000 0.000000
# 4 0.000000 0.000000 0.000000 0.048804 0.000000 0.000000
# 5 0.000000 0.000000 0.000000 0.000000 -0.108333 0.000000
# 6 0.000000 0.000000 0.000000 0.000000 0.000000 0.051467
#
#
# Mechanical properties :
#
#
# Convention : Reuss Voigt Hill
#
# Bulk Modulus (GPa) = 36.41942 40.15332 38.28637
# Shear Modulus (GPa) = 70.38326 17.00385 43.69356
#
# Velocity S-wave (km/s) = 6.16794 3.03165 4.85975
# Velocity P-wave (km/s) = 8.39107 5.82736 7.22386
#
# Compressibility (1/GPa) = 0.02745788
#
# Stress axis : x y z
#
# Youngs Moduli (GPa) = 59.91689 48.37604 88.16443
#
# Poissons Ratio (x) = 0.18431 0.37193
# Poissons Ratio (y) = 0.22829 0.22872
# Poissons Ratio (z) = 0.25277 0.12550
#
# Static dielectric constant tensor:
#      x y z
#    x 1.676820 0.000000 0.000000 
#    y 0.000000 1.655910 0.000000 
#    z 0.000000 0.000000 1.636140 
# 
# From -- ./inp_files/27485.got.cif
#   From: 2010.05.17/outbox.cif.g08.bks.cpg/sg67_14_cif.got.tgz:27485.got - 2010.06.03 18:28:57.
