data_PCOD9501596
_publ_section_title
;
Structure prediction by ZEFSAII (Michael W. Deem and Ramdas Pophale) SiO2 
 PCOD9501596
Probable space group: C M M A
;
_chemical_formula_sum "Si O2"
_cell_formula_units_Z 104
_cell_length_a 8.892159
_cell_length_b 27.600275
_cell_length_c 24.205777
_cell_angle_alpha 90.000000
_cell_angle_beta 90.000000
_cell_angle_gamma 90.000000
_cell_volume 5940.727843
_symmetry_space_group_name_H-M "C M M A"
_symmetry_group_IT_number 67
_symmetry_cell_setting 'orthorhombic'
loop_
_space_group_symop_operation_xyz
x,y,z
-x,1/2-y,z
x,-y,-z
-x,1/2+y,-z
-x,-y,-z
x,1/2+y,-z
-x,y,z
x,1/2-y,z
1/2+x,1/2+y,z
1/2-x,-y,z
1/2+x,1/2-y,-z
1/2-x,y,-z
1/2-x,1/2-y,-z
1/2+x,y,-z
1/2-x,1/2+y,z
1/2+x,-y,z
loop_
_atom_site_type_symbol
_atom_site_label
_atom_site_fract_x
_atom_site_fract_y
_atom_site_fract_z
Si Si1 0.820401 0.193464 0.560125
Si Si2 0.319943 0.551013 0.726123
Si Si3 0.330367 0.306667 0.243801
Si Si4 0.679778 0.750000 0.060792
Si Si5 0.681223 0.948554 0.856392
Si Si6 0.678371 0.842993 0.879279
Si Si7 0.176508 0.140419 0.337427
O O1 0.787967 0.250000 0.574337
O O2 0.750000 0.184286 0.500000
O O3 0.750583 0.159031 0.606312
O O4 0.000000 0.187930 0.558061
O O5 0.500000 0.550508 0.722748
O O6 0.250000 0.500000 0.708930
O O7 0.279293 0.557488 0.791171
O O8 0.253105 0.592871 0.688168
O O9 0.500000 0.319032 0.264152
O O10 0.327300 0.250000 0.231469
O O11 0.306824 0.333869 0.186385
O O12 0.212334 0.319910 0.290336
O O13 0.500000 0.750000 0.058982
O O14 0.736472 0.799223 0.090771
O O15 0.750000 0.750000 0.000000
O O16 0.500000 0.951343 0.859531
O O17 0.727523 0.898979 0.887773
O O18 0.750000 0.000000 0.874880
O O19 0.500000 0.839079 0.892488
O O20 0.000000 0.133391 0.344563
#
# Coordination Sequence:
#
# PCOD9501596 Si02
#       7
#    16  16  16   8  16  16  16
#     4  10  21  38  58  78 103 139 182 229 280 333
#     4  10  19  34  52  76 109 146 185 225 276 332
#     4  10  19  33  52  75 109 150 184 222 280 337
#     4  12  26  42  62  88 116 154 197 240 283 336
#     4   9  18  32  54  81 114 152 189 229 281 338
#     4  10  19  37  59  82 114 154 190 232 284 337
#     4  12  23  33  50  78 111 146 184 227 274 332
#
# _framework density 17.506271999999999
#
# number of rings (size 3 to 8) (size 9 to 14) (size 15 to 20)
#    0.000    1.692    2.308    3.462    0.000    4.923 
#    0.000    0.000    0.000    0.923    0.000    6.462 
#    0.000    0.000    0.000    0.000    0.000    0.000 
#
# Total GULP energy -290215.710222 kJ/mol
# GULP energy per Si atom -5581.071350 kJ/mol
# Density = 1.746643 g / cm^3
# Si number density = 17.506272 Si / 1000 Ang^3
#
#
#
# Elastic Constant Matrix: (Units=GPa)
#
#
# Indices 1 2 3 4 5 6 
#
# 1 72.5333 44.6268 25.7326 0.0000 0.0000 0.0000
# 2 44.6268 146.6121 35.0181 0.0000 0.0000 0.0000
# 3 25.7326 35.0181 33.5358 0.0000 0.0000 0.0000
# 4 0.0000 0.0000 0.0000 9.1406 0.0000 0.0000
# 5 0.0000 0.0000 0.0000 0.0000 25.2700 0.0000
# 6 0.0000 0.0000 0.0000 0.0000 0.0000 31.8134
#
#
#
# Elastic Compliance Matrix: (Units=1/GPa)
#
#
# Indices 1 2 3 4 5 6 
#
# 1 0.020031 -0.003232 -0.011995 0.000000 0.000000 0.000000
# 2 -0.003232 0.009609 -0.007553 0.000000 0.000000 0.000000
# 3 -0.011995 -0.007553 0.046910 0.000000 0.000000 0.000000
# 4 0.000000 0.000000 0.000000 0.109402 0.000000 0.000000
# 5 0.000000 0.000000 0.000000 0.000000 0.039573 0.000000
# 6 0.000000 0.000000 0.000000 0.000000 0.000000 0.031433
#
#
# Mechanical properties :
#
#
# Convention : Reuss Voigt Hill
#
# Bulk Modulus (GPa) = 32.26994 51.49291 41.88142
# Shear Modulus (GPa) = 15.98223 23.06506 19.52365
#
# Velocity S-wave (km/s) = 3.02477 3.63372 3.34314
# Velocity P-wave (km/s) = 5.53826 6.86171 6.23520
#
# Compressibility (1/GPa) = 0.03098859
#
# Stress axis : x y z
#
# Youngs Moduli (GPa) = 49.92306 104.07333 21.31747
#
# Poissons Ratio (x) = 0.33638 0.25570
# Poissons Ratio (y) = 0.16136 0.16102
# Poissons Ratio (z) = 0.59883 0.78609
#
# Static dielectric constant tensor:
#      x y z
#    x 1.592890 0.000000 0.000000 
#    y 0.000000 1.636940 0.000000 
#    z 0.000000 0.000000 1.564900 
# 
# From -- ./inp_files/37270.got.cif
#   From: 2010.05.17/outbox.cif.g08.bks.cpg/sg67_19_cif.got.tgz:37270.got - 2010.06.03 18:28:57.
