data_PCOD9501022
_publ_section_title
;
Structure prediction by ZEFSAII (Michael W. Deem and Ramdas Pophale) SiO2 
 PCOD9501022
Probable space group: C M M A
;
_chemical_formula_sum "Si O2"
_cell_formula_units_Z 116
_cell_length_a 9.350074
_cell_length_b 25.361945
_cell_length_c 29.578878
_cell_angle_alpha 90.000000
_cell_angle_beta 90.000000
_cell_angle_gamma 90.000000
_cell_volume 7014.218663
_symmetry_space_group_name_H-M "C M M A"
_symmetry_group_IT_number 67
_symmetry_cell_setting 'orthorhombic'
loop_
_space_group_symop_operation_xyz
x,y,z
-x,1/2-y,z
x,-y,-z
-x,1/2+y,-z
-x,-y,-z
x,1/2+y,-z
-x,y,z
x,1/2-y,z
1/2+x,1/2+y,z
1/2-x,-y,z
1/2+x,1/2-y,-z
1/2-x,y,-z
1/2-x,1/2-y,-z
1/2+x,y,-z
1/2-x,1/2+y,z
1/2+x,-y,z
loop_
_atom_site_type_symbol
_atom_site_label
_atom_site_fract_x
_atom_site_fract_y
_atom_site_fract_z
Si Si1 0.334603 0.314195 0.955069
Si Si2 0.750000 0.500000 0.500000
Si Si3 0.331423 0.553923 0.330717
Si Si4 0.342107 0.090778 0.565883
Si Si5 0.834772 0.185571 0.864806
Si Si6 0.338936 0.688478 0.221738
Si Si7 0.328507 0.341259 0.309483
Si Si8 0.328931 0.691108 0.587036
O O1 0.500000 0.331262 0.955031
O O2 0.335897 0.250000 0.955384
O O3 0.250634 0.330169 0.909844
O O4 0.250000 0.331013 0.000000
O O5 0.669556 0.458357 0.532009
O O6 0.500000 0.553330 0.318495
O O7 0.250000 0.500000 0.321148
O O8 0.323847 0.565941 0.384424
O O9 0.241106 0.600953 0.309128
O O10 0.500000 0.114078 0.562562
O O11 0.234976 0.140108 0.561715
O O12 0.837112 0.250000 0.864201
O O13 0.751890 0.166133 0.820132
O O14 0.000000 0.168577 0.865434
O O15 0.500000 0.666155 0.226536
O O16 0.355484 0.750000 0.210830
O O17 0.249728 0.686253 0.267925
O O18 0.500000 0.341474 0.304199
O O19 0.297219 0.316831 0.359177
O O20 0.500000 0.689568 0.582296
O O21 0.279126 0.750000 0.573400
#
# Coordination Sequence:
#
# PCOD9501022 Si02
#       8
#    16   4  16  16  16  16  16  16
#     4   9  15  22  32  46  65  92 131 180 231 281
#     4  12  22  40  58  82 106 132 164 200 246 292
#     4  10  19  34  52  74 100 125 153 187 229 272
#     4  10  22  36  56  82 105 131 162 199 238 281
#     4   9  16  25  36  50  71 102 140 184 232 278
#     4  10  19  29  41  60  87 118 152 191 232 275
#     4  10  19  31  49  72  95 123 157 191 230 275
#     4   9  19  36  56  77 103 133 163 196 237 284
#
# _framework density 16.537837
#
# number of rings (size 3 to 8) (size 9 to 14) (size 15 to 20)
#    0.000    2.345    0.690    2.690    0.000    7.172 
#    0.000    0.345    0.000    0.000    0.000    0.000 
#    0.000    0.000    0.000    0.000    0.000    0.690 
#
# Total GULP energy -323041.475708 kJ/mol
# GULP energy per Si atom -5569.680616 kJ/mol
# Density = 1.650020 g / cm^3
# Si number density = 16.537837 Si / 1000 Ang^3
#
#
#
# Elastic Constant Matrix: (Units=GPa)
#
#
# Indices 1 2 3 4 5 6 
#
# 1 108.1200 25.6886 36.7625 0.0000 0.0000 0.0000
# 2 25.6886 70.5022 7.5470 0.0000 0.0000 0.0000
# 3 36.7625 7.5470 61.8887 0.0000 0.0000 0.0000
# 4 0.0000 0.0000 0.0000 1.4943 0.0000 0.0000
# 5 0.0000 0.0000 0.0000 0.0000 -26.0630 0.0000
# 6 0.0000 0.0000 0.0000 0.0000 0.0000 16.8572
#
#
#
# Elastic Compliance Matrix: (Units=1/GPa)
#
#
# Indices 1 2 3 4 5 6 
#
# 1 0.012528 -0.003818 -0.006976 0.000000 0.000000 0.000000
# 2 -0.003818 0.015535 0.000374 0.000000 0.000000 0.000000
# 3 -0.006976 0.000374 0.020256 0.000000 0.000000 0.000000
# 4 0.000000 0.000000 0.000000 0.669216 0.000000 0.000000
# 5 0.000000 0.000000 0.000000 0.000000 -0.038369 0.000000
# 6 0.000000 0.000000 0.000000 0.000000 0.000000 0.059322
#
#
# Mechanical properties :
#
#
# Convention : Reuss Voigt Hill
#
# Bulk Modulus (GPa) = 36.39250 42.27858 39.33554
# Shear Modulus (GPa) = 6.50627 9.82522 8.16575
#
# Velocity S-wave (km/s) = 1.98563 2.44007 2.22449
# Velocity P-wave (km/s) = 5.22593 5.79300 5.51676
#
# Compressibility (1/GPa) = 0.02747819
#
# Stress axis : x y z
#
# Youngs Moduli (GPa) = 79.82015 64.37015 49.36698
#
# Poissons Ratio (x) = 0.24577 0.34440
# Poissons Ratio (y) = 0.30476 -0.01844
# Poissons Ratio (z) = 0.55685 -0.02404
#
# Static dielectric constant tensor:
#      x y z
#    x 1.573770 0.000000 0.000000 
#    y 0.000000 1.560030 0.000000 
#    z 0.000000 0.000000 1.570880 
# 
# From -- ./inp_files/45413.got.cif
#   From: 2010.05.17/outbox.cif.g08.bks.cpg/sg67_23_cif.got.tgz:45413.got - 2010.06.03 18:28:57.
