data_PCOD9501381
_publ_section_title
;
Structure prediction by ZEFSAII (Michael W. Deem and Ramdas Pophale) SiO2 
 PCOD9501381
Probable space group: C M M A
;
_chemical_formula_sum "Si O2"
_cell_formula_units_Z 96
_cell_length_a 28.424640
_cell_length_b 16.925033
_cell_length_c 11.721683
_cell_angle_alpha 90.000000
_cell_angle_beta 90.000000
_cell_angle_gamma 90.000000
_cell_volume 5639.160680
_symmetry_space_group_name_H-M "C M M A"
_symmetry_group_IT_number 67
_symmetry_cell_setting 'orthorhombic'
loop_
_space_group_symop_operation_xyz
x,y,z
-x,1/2-y,z
x,-y,-z
-x,1/2+y,-z
-x,-y,-z
x,1/2+y,-z
-x,y,z
x,1/2-y,z
1/2+x,1/2+y,z
1/2-x,-y,z
1/2+x,1/2-y,-z
1/2-x,y,-z
1/2-x,1/2-y,-z
1/2+x,y,-z
1/2-x,1/2+y,z
1/2+x,-y,z
loop_
_atom_site_type_symbol
_atom_site_label
_atom_site_fract_x
_atom_site_fract_y
_atom_site_fract_z
Si Si1 0.448306 0.405375 0.995675
Si Si2 0.150645 0.401104 0.750953
Si Si3 0.349432 0.841787 0.011217
Si Si4 0.744095 0.343459 0.368052
Si Si5 0.948409 0.655195 0.256423
Si Si6 0.795705 0.447768 0.184078
O O1 0.500000 0.390361 0.942871
O O2 0.401975 0.364704 0.945913
O O3 0.441211 0.500000 0.000000
O O4 0.450590 0.372252 0.124508
O O5 0.191731 0.364627 0.674343
O O6 0.099032 0.385785 0.699560
O O7 0.163934 0.491905 0.774849
O O8 0.152411 0.360036 0.876070
O O9 0.339993 0.750000 0.030313
O O10 0.313347 0.896796 0.078258
O O11 0.752024 0.250000 0.356536
O O12 0.750000 0.365949 0.500000
O O13 0.779247 0.391461 0.286770
O O14 0.942567 0.750000 0.260297
O O15 0.000000 0.635855 0.306982
O O16 0.750000 0.500000 0.154170
#
# Coordination Sequence:
#
# PCOD9501381 Si02
#       6
#    16  16  16  16  16  16
#     4   9  16  26  42  65  95 129 162 195 234 283
#     4  10  19  32  50  73 101 128 158 197 243 289
#     4  11  20  31  48  71 101 132 165 200 241 288
#     4  10  21  37  55  74  95 121 159 202 243 288
#     4   9  16  27  44  67  95 124 156 196 241 284
#     4  10  22  35  49  68  96 131 164 199 238 287
#
# _framework density 17.023809
#
# number of rings (size 3 to 8) (size 9 to 14) (size 15 to 20)
#    0.000    2.167    0.000    6.000    0.000    8.667 
#    0.000    4.167    0.000    0.000    0.000    3.500 
#    0.000    2.667    0.000    0.000    0.000    0.000 
#
# Total GULP energy -267630.955973 kJ/mol
# GULP energy per Si atom -5575.644916 kJ/mol
# Density = 1.698506 g / cm^3
# Si number density = 17.023809 Si / 1000 Ang^3
#
#
#
# Elastic Constant Matrix: (Units=GPa)
#
#
# Indices 1 2 3 4 5 6 
#
# 1 112.7723 50.8605 38.1041 0.0000 0.0000 0.0000
# 2 50.8605 80.1228 26.9600 0.0000 0.0000 0.0000
# 3 38.1041 26.9600 53.9490 0.0000 0.0000 0.0000
# 4 0.0000 0.0000 0.0000 10.7802 0.0000 0.0000
# 5 0.0000 0.0000 0.0000 0.0000 5.7706 0.0000
# 6 0.0000 0.0000 0.0000 0.0000 0.0000 41.3090
#
#
#
# Elastic Compliance Matrix: (Units=1/GPa)
#
#
# Indices 1 2 3 4 5 6 
#
# 1 0.014150 -0.006755 -0.006619 0.000000 0.000000 0.000000
# 2 -0.006755 0.018229 -0.004338 0.000000 0.000000 0.000000
# 3 -0.006619 -0.004338 0.025379 0.000000 0.000000 0.000000
# 4 0.000000 0.000000 0.000000 0.092763 0.000000 0.000000
# 5 0.000000 0.000000 0.000000 0.000000 0.173293 0.000000
# 6 0.000000 0.000000 0.000000 0.000000 0.000000 0.024208
#
#
# Mechanical properties :
#
#
# Convention : Reuss Voigt Hill
#
# Bulk Modulus (GPa) = 44.77555 53.18813 48.98184
# Shear Modulus (GPa) = 12.79133 20.29992 16.54563
#
# Velocity S-wave (km/s) = 2.74410 3.45692 3.12093
# Velocity P-wave (km/s) = 6.03315 6.87350 6.46699
#
# Compressibility (1/GPa) = 0.02233362
#
# Stress axis : x y z
#
# Youngs Moduli (GPa) = 70.66923 54.85829 39.40330
#
# Poissons Ratio (x) = 0.37059 0.26079
# Poissons Ratio (y) = 0.47740 0.17094
# Poissons Ratio (z) = 0.46773 0.23798
#
# Static dielectric constant tensor:
#      x y z
#    x 1.642510 0.000000 0.000000 
#    y 0.000000 1.577680 0.000000 
#    z 0.000000 0.000000 1.534640 
# 
# From -- ./inp_files/22933.got.cif
#   From: 2010.05.17/outbox.cif.g08.bks.cpg/sg67_12_cif.got.tgz:22933.got - 2010.06.03 18:28:57.
