data_PCOD9501530
_publ_section_title
;
Structure prediction by ZEFSAII (Michael W. Deem and Ramdas Pophale) SiO2 
 PCOD9501530
Probable space group: C M M A
;
_chemical_formula_sum "Si O2"
_cell_formula_units_Z 88
_cell_length_a 7.622086
_cell_length_b 17.736574
_cell_length_c 30.531216
_cell_angle_alpha 90.000000
_cell_angle_beta 90.000000
_cell_angle_gamma 90.000000
_cell_volume 4127.505699
_symmetry_space_group_name_H-M "C M M A"
_symmetry_group_IT_number 67
_symmetry_cell_setting 'orthorhombic'
loop_
_space_group_symop_operation_xyz
x,y,z
-x,1/2-y,z
x,-y,-z
-x,1/2+y,-z
-x,-y,-z
x,1/2+y,-z
-x,y,z
x,1/2-y,z
1/2+x,1/2+y,z
1/2-x,-y,z
1/2+x,1/2-y,-z
1/2-x,y,-z
1/2-x,1/2-y,-z
1/2+x,y,-z
1/2-x,1/2+y,z
1/2+x,-y,z
loop_
_atom_site_type_symbol
_atom_site_label
_atom_site_fract_x
_atom_site_fract_y
_atom_site_fract_z
Si Si1 0.213821 0.836353 0.224317
Si Si2 0.801817 0.588864 0.587633
Si Si3 0.789394 0.835770 0.047305
Si Si4 0.710377 0.087187 0.135731
Si Si5 0.788904 0.750000 0.551314
Si Si6 0.290517 0.085698 0.312080
O O1 0.259286 0.750000 0.217932
O O2 0.277913 0.881345 0.181954
O O3 0.274032 0.864313 0.271794
O O4 0.000000 0.842796 0.225506
O O5 0.750000 0.500000 0.578937
O O6 0.720213 0.667988 0.569412
O O7 0.790939 0.597845 0.640226
O O8 0.000000 0.590724 0.571408
O O9 0.721695 0.750000 0.046262
O O10 0.721820 0.874646 0.091261
O O11 0.000000 0.833187 0.050490
O O12 0.750000 0.871740 0.000000
O O13 0.500000 0.099186 0.136341
O O14 0.750000 0.000000 0.133371
O O15 0.750000 0.750000 0.500000
O O16 0.000000 0.750000 0.559912
O O17 0.500000 0.095244 0.317408
O O18 0.250000 0.000000 0.299330
#
# Coordination Sequence:
#
# PCOD9501530 Si02
#       6
#    16  16  16  16   8  16
#     4   9  18  32  51  76 103 134 176 219 259 311
#     4  10  21  39  60  86 119 156 194 237 288 341
#     4   9  18  33  53  74  95 125 164 206 255 306
#     4  10  20  34  52  72  99 133 167 209 257 309
#     4  10  24  42  62  88 120 156 196 242 291 340
#     4  10  19  32  54  81 109 143 181 224 271 323
#
# _framework density 21.320381999999999
#
# number of rings (size 3 to 8) (size 9 to 14) (size 15 to 20)
#    0.000    2.364    0.000    3.273    1.273    5.091 
#    0.000    4.545    0.000    3.818    0.000    0.000 
#    0.000    0.000    0.000    0.000    0.000    0.000 
#
# Total GULP energy -245230.356845 kJ/mol
# GULP energy per Si atom -5573.417201 kJ/mol
# Density = 2.127186 g / cm^3
# Si number density = 21.320382 Si / 1000 Ang^3
#
#
#
# Elastic Constant Matrix: (Units=GPa)
#
#
# Indices 1 2 3 4 5 6 
#
# 1 42.2724 -0.9210 -8.5413 0.0000 0.0000 0.0000
# 2 -0.9210 154.1100 86.3137 0.0000 0.0000 0.0000
# 3 -8.5413 86.3137 102.4729 0.0000 0.0000 0.0000
# 4 0.0000 0.0000 0.0000 25.1863 0.0000 0.0000
# 5 0.0000 0.0000 0.0000 0.0000 17.3289 0.0000
# 6 0.0000 0.0000 0.0000 0.0000 0.0000 -22.3745
#
#
#
# Elastic Compliance Matrix: (Units=1/GPa)
#
#
# Indices 1 2 3 4 5 6 
#
# 1 0.024345 -0.001876 0.003609 0.000000 0.000000 0.000000
# 2 -0.001876 0.012428 -0.010625 0.000000 0.000000 0.000000
# 3 0.003609 -0.010625 0.019009 0.000000 0.000000 0.000000
# 4 0.000000 0.000000 0.000000 0.039704 0.000000 0.000000
# 5 0.000000 0.000000 0.000000 0.000000 0.057707 0.000000
# 6 0.000000 0.000000 0.000000 0.000000 0.000000 -0.044694
#
#
# Mechanical properties :
#
#
# Convention : Reuss Voigt Hill
#
# Bulk Modulus (GPa) = 26.31667 50.28424 38.30046
# Shear Modulus (GPa) = 35.98446 18.82841 27.40643
#
# Velocity S-wave (km/s) = 4.11274 2.97495 3.58922
# Velocity P-wave (km/s) = 5.90957 5.95288 5.93126
#
# Compressibility (1/GPa) = 0.03799873
#
# Stress axis : x y z
#
# Youngs Moduli (GPa) = 41.07699 80.46027 52.60655
#
# Poissons Ratio (x) = 0.15095 -0.18988
# Poissons Ratio (y) = 0.07706 0.55894
# Poissons Ratio (z) = -0.14826 0.85489
#
# Static dielectric constant tensor:
#      x y z
#    x 1.865120 0.000000 0.000000 
#    y 0.000000 1.765630 0.000000 
#    z 0.000000 0.000000 1.752710 
# 
# From -- ./inp_files/45217.got.cif
#   From: 2010.05.17/outbox.cif.g08.bks.cpg/sg67_23_cif.got.tgz:45217.got - 2010.06.03 18:28:57.
