data_PCOD9501297
_publ_section_title
;
Structure prediction by ZEFSAII (Michael W. Deem and Ramdas Pophale) SiO2 
 PCOD9501297
Probable space group: C M M A
;
_chemical_formula_sum "Si O2"
_cell_formula_units_Z 80
_cell_length_a 17.858876
_cell_length_b 25.712143
_cell_length_c 8.576524
_cell_angle_alpha 90.000000
_cell_angle_beta 90.000000
_cell_angle_gamma 90.000000
_cell_volume 3938.253829
_symmetry_space_group_name_H-M "C M M A"
_symmetry_group_IT_number 67
_symmetry_cell_setting 'orthorhombic'
loop_
_space_group_symop_operation_xyz
x,y,z
-x,1/2-y,z
x,-y,-z
-x,1/2+y,-z
-x,-y,-z
x,1/2+y,-z
-x,y,z
x,1/2-y,z
1/2+x,1/2+y,z
1/2-x,-y,z
1/2+x,1/2-y,-z
1/2-x,y,-z
1/2-x,1/2-y,-z
1/2+x,y,-z
1/2-x,1/2+y,z
1/2+x,-y,z
loop_
_atom_site_type_symbol
_atom_site_label
_atom_site_fract_x
_atom_site_fract_y
_atom_site_fract_z
Si Si1 0.916070 0.689923 0.688641
Si Si2 0.586743 0.952731 0.877164
Si Si3 0.680842 0.882011 0.095308
Si Si4 0.785599 0.924320 0.328757
Si Si5 0.676925 0.193384 0.390372
O O1 0.912558 0.750000 0.738206
O O2 0.857656 0.656872 0.785946
O O3 0.893046 0.689118 0.507668
O O4 0.000000 0.670110 0.710891
O O5 0.500000 0.945767 0.831328
O O6 0.643245 0.957199 0.730015
O O7 0.619784 0.904907 0.978061
O O8 0.590602 0.000000 0.000000
O O9 0.720526 0.927125 0.198519
O O10 0.750000 0.857806 0.000000
O O11 0.750000 0.933790 0.500000
O O12 0.812582 0.863655 0.319250
O O13 0.672002 0.250000 0.305641
O O14 0.750000 0.197634 0.500000
#
# Coordination Sequence:
#
# PCOD9501297 Si02
#       5
#    16  16  16  16  16
#     4  10  19  31  51  81 117 156 195 239 292 346
#     4  10  23  43  62  82 116 160 196 240 308 365
#     4  10  20  35  58  82 115 156 196 237 295 356
#     4  10  19  36  62  93 115 148 200 249 292 347
#     4   9  16  30  54  83 118 154 189 238 292 345
#
# _framework density 20.313572000000001
#
# number of rings (size 3 to 8) (size 9 to 14) (size 15 to 20)
#    0.000    2.200    4.000    0.600    0.000    4.800 
#    0.000    5.000    0.000    3.600    0.000    0.000 
#    0.000    0.000    0.000    0.000    0.000    0.000 
#
# Total GULP energy -222817.811792 kJ/mol
# GULP energy per Si atom -5570.445295 kJ/mol
# Density = 2.026734 g / cm^3
# Si number density = 20.313572 Si / 1000 Ang^3
#
#
#
# Elastic Constant Matrix: (Units=GPa)
#
#
# Indices 1 2 3 4 5 6 
#
# 1 154.1147 28.0845 49.3818 0.0000 0.0000 0.0000
# 2 28.0845 60.7950 3.1773 0.0000 0.0000 0.0000
# 3 49.3818 3.1773 80.7657 0.0000 0.0000 0.0000
# 4 0.0000 0.0000 0.0000 20.5209 0.0000 0.0000
# 5 0.0000 0.0000 0.0000 0.0000 36.7414 0.0000
# 6 0.0000 0.0000 0.0000 0.0000 0.0000 24.7125
#
#
#
# Elastic Compliance Matrix: (Units=1/GPa)
#
#
# Indices 1 2 3 4 5 6 
#
# 1 0.008876 -0.003825 -0.005277 0.000000 0.000000 0.000000
# 2 -0.003825 0.018131 0.001625 0.000000 0.000000 0.000000
# 3 -0.005277 0.001625 0.015544 0.000000 0.000000 0.000000
# 4 0.000000 0.000000 0.000000 0.048731 0.000000 0.000000
# 5 0.000000 0.000000 0.000000 0.000000 0.027217 0.000000
# 6 0.000000 0.000000 0.000000 0.000000 0.000000 0.040465
#
#
# Mechanical properties :
#
#
# Convention : Reuss Voigt Hill
#
# Bulk Modulus (GPa) = 36.23389 50.77363 43.50376
# Shear Modulus (GPa) = 27.30505 30.73042 29.01774
#
# Velocity S-wave (km/s) = 3.67028 3.89370 3.78364
# Velocity P-wave (km/s) = 5.98642 6.72783 6.36793
#
# Compressibility (1/GPa) = 0.02759847
#
# Stress axis : x y z
#
# Youngs Moduli (GPa) = 112.65746 55.15528 64.33390
#
# Poissons Ratio (x) = 0.21095 0.33948
# Poissons Ratio (y) = 0.43089 -0.10456
# Poissons Ratio (z) = 0.59447 -0.08964
#
# Static dielectric constant tensor:
#      x y z
#    x 1.733090 0.000000 0.000000 
#    y 0.000000 1.791190 0.000000 
#    z 0.000000 0.000000 1.763310 
# 
# From -- ./inp_files/10130.got.cif
#   From: 2010.05.17/outbox.cif.g08.bks.cpg/sg67_6_cif.got.tgz:10130.got - 2010.06.03 18:28:57.
