data_PCOD9501744
_publ_section_title
;
Structure prediction by ZEFSAII (Michael W. Deem and Ramdas Pophale) SiO2 
 PCOD9501744
Probable space group: C M M A
;
_chemical_formula_sum "Si O2"
_cell_formula_units_Z 68
_cell_length_a 17.294086
_cell_length_b 21.293216
_cell_length_c 9.667045
_cell_angle_alpha 90.000000
_cell_angle_beta 90.000000
_cell_angle_gamma 90.000000
_cell_volume 3559.857504
_symmetry_space_group_name_H-M "C M M A"
_symmetry_group_IT_number 67
_symmetry_cell_setting 'orthorhombic'
loop_
_space_group_symop_operation_xyz
x,y,z
-x,1/2-y,z
x,-y,-z
-x,1/2+y,-z
-x,-y,-z
x,1/2+y,-z
-x,y,z
x,1/2-y,z
1/2+x,1/2+y,z
1/2-x,-y,z
1/2+x,1/2-y,-z
1/2-x,y,-z
1/2-x,1/2-y,-z
1/2+x,y,-z
1/2-x,1/2+y,z
1/2+x,-y,z
loop_
_atom_site_type_symbol
_atom_site_label
_atom_site_fract_x
_atom_site_fract_y
_atom_site_fract_z
Si Si1 0.590783 0.176649 0.601495
Si Si2 0.915764 0.823909 0.044516
Si Si3 0.750000 0.500000 0.000000
Si Si4 0.673133 0.676656 0.688262
Si Si5 0.682090 0.890185 0.174080
O O1 0.500000 0.172086 0.567983
O O2 0.603863 0.250000 0.647665
O O3 0.643589 0.166050 0.466532
O O4 0.614522 0.125904 0.716497
O O5 0.918879 0.750000 0.018425
O O6 0.897559 0.832893 0.205758
O O7 0.000000 0.851035 0.007438
O O8 0.844593 0.849775 0.957736
O O9 0.699221 0.457005 0.896240
O O10 0.697012 0.750000 0.698394
O O11 0.742352 0.634339 0.745214
#
# Coordination Sequence:
#
# PCOD9501744 Si02
#       5
#    16  16   4  16  16
#     4  10  21  38  64 100 131 150 180 240 318 385
#     4  10  19  33  59  93 124 153 188 242 312 374
#     4  12  28  44  58  80 116 168 228 266 280 312
#     4  10  19  35  62  95 126 154 186 238 312 381
#     4  12  22  40  60  81 120 164 213 250 289 340
#
# _framework density 19.101887000000001
#
# number of rings (size 3 to 8) (size 9 to 14) (size 15 to 20)
#    0.000    1.412    2.353    4.235    0.000    8.471 
#    0.000    4.706    0.000    1.412    0.000    0.000 
#    0.000    0.000    0.000    0.000    0.000    0.000 
#
# Total GULP energy -189575.821979 kJ/mol
# GULP energy per Si atom -5575.759470 kJ/mol
# Density = 1.905841 g / cm^3
# Si number density = 19.101887 Si / 1000 Ang^3
#
#
#
# Elastic Constant Matrix: (Units=GPa)
#
#
# Indices 1 2 3 4 5 6 
#
# 1 86.4486 35.4223 19.0194 0.0000 0.0000 0.0000
# 2 35.4223 63.2211 45.0424 0.0000 0.0000 0.0000
# 3 19.0194 45.0424 103.5629 0.0000 0.0000 0.0000
# 4 0.0000 0.0000 0.0000 4.4855 0.0000 0.0000
# 5 0.0000 0.0000 0.0000 0.0000 318.2902 0.0000
# 6 0.0000 0.0000 0.0000 0.0000 0.0000 -11.2300
#
#
#
# Elastic Compliance Matrix: (Units=1/GPa)
#
#
# Indices 1 2 3 4 5 6 
#
# 1 0.015138 -0.009420 0.001317 0.000000 0.000000 0.000000
# 2 -0.009420 0.028781 -0.010788 0.000000 0.000000 0.000000
# 3 0.001317 -0.010788 0.014106 0.000000 0.000000 0.000000
# 4 0.000000 0.000000 0.000000 0.222942 0.000000 0.000000
# 5 0.000000 0.000000 0.000000 0.000000 0.003142 0.000000
# 6 0.000000 0.000000 0.000000 0.000000 0.000000 -0.089047
#
#
# Mechanical properties :
#
#
# Convention : Reuss Voigt Hill
#
# Bulk Modulus (GPa) = 49.39850 50.24452 49.82151
# Shear Modulus (GPa) = 20.86896 72.55903 46.71399
#
# Velocity S-wave (km/s) = 3.30890 6.16991 4.95058
# Velocity P-wave (km/s) = 6.36514 8.78166 7.66918
#
# Compressibility (1/GPa) = 0.02024353
#
# Stress axis : x y z
#
# Youngs Moduli (GPa) = 66.06087 34.74502 70.89168
#
# Poissons Ratio (x) = 0.32729 -0.09335
# Poissons Ratio (y) = 0.62227 0.76476
# Poissons Ratio (z) = -0.08699 0.37482
#
# Static dielectric constant tensor:
#      x y z
#    x -6.604330 0.000000 0.000000 
#    y 0.000000 1.642120 0.000000 
#    z 0.000000 0.000000 1.687630 
# 
# From -- ./inp_files/9478.got.cif
#   From: 2010.05.17/outbox.cif.g08.bks.cpg/sg67_5_cif.got.tgz:9478.got - 2010.06.03 18:28:57.
