data_PCOD9501988
_publ_section_title
;
Structure prediction by ZEFSAII (Michael W. Deem and Ramdas Pophale) SiO2 
 PCOD9501988
Probable space group: C M M A
;
_chemical_formula_sum "Si O2"
_cell_formula_units_Z 72
_cell_length_a 20.979434
_cell_length_b 8.532910
_cell_length_c 20.688795
_cell_angle_alpha 90.000000
_cell_angle_beta 90.000000
_cell_angle_gamma 90.000000
_cell_volume 3703.617509
_symmetry_space_group_name_H-M "C M M A"
_symmetry_group_IT_number 67
_symmetry_cell_setting 'orthorhombic'
loop_
_space_group_symop_operation_xyz
x,y,z
-x,1/2-y,z
x,-y,-z
-x,1/2+y,-z
-x,-y,-z
x,1/2+y,-z
-x,y,z
x,1/2-y,z
1/2+x,1/2+y,z
1/2-x,-y,z
1/2+x,1/2-y,-z
1/2-x,y,-z
1/2-x,1/2-y,-z
1/2+x,y,-z
1/2-x,1/2+y,z
1/2+x,-y,z
loop_
_atom_site_type_symbol
_atom_site_label
_atom_site_fract_x
_atom_site_fract_y
_atom_site_fract_z
Si Si1 0.573977 0.750000 0.388549
Si Si2 0.388236 0.568807 0.691747
Si Si3 0.199951 0.750000 0.558124
Si Si4 0.750000 0.000000 0.343040
Si Si5 0.928785 0.564909 0.160275
Si Si6 0.318220 0.565374 0.071880
O O1 0.500000 0.750000 0.406335
O O2 0.588006 0.585706 0.348752
O O3 0.623667 0.750000 0.449284
O O4 0.403787 0.750000 0.668656
O O5 0.310571 0.563257 0.696064
O O6 0.416553 0.550348 0.763180
O O7 0.250000 0.750000 0.500000
O O8 0.216437 0.611300 0.605824
O O9 0.925870 0.750000 0.145116
O O10 0.874429 0.480927 0.119851
O O11 0.000000 0.507130 0.145168
O O12 0.312828 0.750000 0.067173
O O13 0.250000 0.500000 0.094536
O O14 0.330331 0.500000 0.000000
#
# Coordination Sequence:
#
# PCOD9501988 Si02
#       6
#     8  16   8   8  16  16
#     4  10  22  38  62  92 126 166 212 255 313 376
#     4  10  21  38  61  90 129 163 204 258 313 373
#     4  10  20  36  62  90 126 161 205 262 306 356
#     4  10  19  36  60  94 119 160 210 248 312 366
#     4  10  22  39  60  87 120 160 200 247 308 366
#     4  11  23  41  63  86 118 155 201 253 305 362
#
# _framework density 19.440453000000002
#
# number of rings (size 3 to 8) (size 9 to 14) (size 15 to 20)
#    0.000    1.778    1.111    3.667    3.111    2.222 
#    0.000    0.000    0.000   12.000    0.000    0.000 
#    0.000    0.000    0.000    0.000    0.000    0.000 
#
# Total GULP energy -200456.025949 kJ/mol
# GULP energy per Si atom -5568.222943 kJ/mol
# Density = 1.939621 g / cm^3
# Si number density = 19.440453 Si / 1000 Ang^3
#
#
#
# Elastic Constant Matrix: (Units=GPa)
#
#
# Indices 1 2 3 4 5 6 
#
# 1 175.3607 51.8834 53.2807 0.0000 0.0000 0.0000
# 2 51.8834 120.9920 32.3290 0.0000 0.0000 0.0000
# 3 53.2807 32.3290 44.7581 0.0000 0.0000 0.0000
# 4 0.0000 0.0000 0.0000 15.1418 0.0000 0.0000
# 5 0.0000 0.0000 0.0000 0.0000 17.4014 0.0000
# 6 0.0000 0.0000 0.0000 0.0000 0.0000 25.1266
#
#
#
# Elastic Compliance Matrix: (Units=1/GPa)
#
#
# Indices 1 2 3 4 5 6 
#
# 1 0.009083 -0.001246 -0.009912 0.000000 0.000000 0.000000
# 2 -0.001246 0.010413 -0.006037 0.000000 0.000000 0.000000
# 3 -0.009912 -0.006037 0.038503 0.000000 0.000000 0.000000
# 4 0.000000 0.000000 0.000000 0.066042 0.000000 0.000000
# 5 0.000000 0.000000 0.000000 0.000000 0.057467 0.000000
# 6 0.000000 0.000000 0.000000 0.000000 0.000000 0.039799
#
#
# Mechanical properties :
#
#
# Convention : Reuss Voigt Hill
#
# Bulk Modulus (GPa) = 42.36135 68.45522 55.40828
# Shear Modulus (GPa) = 18.97050 25.10845 22.03948
#
# Velocity S-wave (km/s) = 3.12721 3.59772 3.37069
# Velocity P-wave (km/s) = 5.90566 7.24896 6.61151
#
# Compressibility (1/GPa) = 0.02360643
#
# Stress axis : x y z
#
# Youngs Moduli (GPa) = 110.09607 96.03679 25.97213
#
# Poissons Ratio (x) = 0.11970 0.25744
# Poissons Ratio (y) = 0.13722 0.15680
# Poissons Ratio (z) = 1.09130 0.57981
#
# Static dielectric constant tensor:
#      x y z
#    x 1.739820 0.000000 0.000000 
#    y 0.000000 1.702780 0.000000 
#    z 0.000000 0.000000 1.643610 
# 
# From -- ./inp_files/39256.got.cif
#   From: 2010.05.17/outbox.cif.g08.bks.cpg/sg67_20_cif.got.tgz:39256.got - 2010.06.03 18:28:57.
