data_PCOD9501318
_publ_section_title
;
Structure prediction by ZEFSAII (Michael W. Deem and Ramdas Pophale) SiO2 
 PCOD9501318
Probable space group: C M M A
;
_chemical_formula_sum "Si O2"
_cell_formula_units_Z 112
_cell_length_a 14.408288
_cell_length_b 26.675883
_cell_length_c 12.350745
_cell_angle_alpha 90.000000
_cell_angle_beta 90.000000
_cell_angle_gamma 90.000000
_cell_volume 4747.055834
_symmetry_space_group_name_H-M "C M M A"
_symmetry_group_IT_number 67
_symmetry_cell_setting 'orthorhombic'
loop_
_space_group_symop_operation_xyz
x,y,z
-x,1/2-y,z
x,-y,-z
-x,1/2+y,-z
-x,-y,-z
x,1/2+y,-z
-x,y,z
x,1/2-y,z
1/2+x,1/2+y,z
1/2-x,-y,z
1/2+x,1/2-y,-z
1/2-x,y,-z
1/2-x,1/2-y,-z
1/2+x,y,-z
1/2-x,1/2+y,z
1/2+x,-y,z
loop_
_atom_site_type_symbol
_atom_site_label
_atom_site_fract_x
_atom_site_fract_y
_atom_site_fract_z
Si Si1 0.842912 0.695267 0.071102
Si Si2 0.891880 0.086538 0.636202
Si Si3 0.266989 0.945833 0.206512
Si Si4 0.607891 0.804253 0.692832
Si Si5 0.112218 0.914577 0.601516
Si Si6 0.390975 0.806493 0.312504
Si Si7 0.898831 0.870157 0.897457
O O1 0.887359 0.750000 0.055906
O O2 0.898546 0.650407 0.018309
O O3 0.750000 0.695428 0.000000
O O4 0.830949 0.690289 0.199318
O O5 0.826882 0.071905 0.735061
O O6 0.883089 0.146821 0.622082
O O7 0.863809 0.066858 0.518372
O O8 0.000000 0.074787 0.656335
O O9 0.340840 0.947733 0.305988
O O10 0.314259 0.907049 0.125216
O O11 0.250000 0.000000 0.157711
O O12 0.500000 0.804213 0.730172
O O13 0.624904 0.750000 0.640856
O O14 0.145014 0.856837 0.627075
O O15 0.000000 0.914834 0.609405
O O16 0.500000 0.803500 0.342828
O O17 0.352146 0.750000 0.328043
O O18 0.388668 0.823469 0.186301
O O19 0.000000 0.893049 0.872138
#
# Coordination Sequence:
#
# PCOD9501318 Si02
#       7
#    16  16  16  16  16  16  16
#     4  10  19  31  53  87 123 157 191 227 271 331
#     4  10  21  36  55  79 109 147 187 229 279 340
#     4  11  23  39  58  79 105 140 183 244 305 351
#     4   9  18  33  53  79 112 149 187 222 261 320
#     4   9  19  35  54  80 111 142 183 229 277 340
#     4   8  14  26  47  76 109 142 174 213 266 331
#     4  10  20  35  57  84 114 148 189 237 290 344
#
# _framework density 23.593572999999999
#
# number of rings (size 3 to 8) (size 9 to 14) (size 15 to 20)
#    0.000    2.429    0.000    3.429    0.000    4.286 
#    0.000    7.143    0.000    8.143    0.000    6.000 
#    0.000    0.000    0.000    0.000    0.000    0.000 
#
# Total GULP energy -312754.602142 kJ/mol
# GULP energy per Si atom -5584.903610 kJ/mol
# Density = 2.353987 g / cm^3
# Si number density = 23.593573 Si / 1000 Ang^3
#
#
#
# Elastic Constant Matrix: (Units=GPa)
#
#
# Indices 1 2 3 4 5 6 
#
# 1 95.2750 14.0561 -0.9727 0.0000 0.0000 0.0000
# 2 14.0561 78.6905 3.9357 0.0000 0.0000 0.0000
# 3 -0.9727 3.9357 39.5121 0.0000 0.0000 0.0000
# 4 0.0000 0.0000 0.0000 5.6464 0.0000 0.0000
# 5 0.0000 0.0000 0.0000 0.0000 21.3390 0.0000
# 6 0.0000 0.0000 0.0000 0.0000 0.0000 14.5344
#
#
#
# Elastic Compliance Matrix: (Units=1/GPa)
#
#
# Indices 1 2 3 4 5 6 
#
# 1 0.010788 -0.001950 0.000460 0.000000 0.000000 0.000000
# 2 -0.001950 0.013124 -0.001355 0.000000 0.000000 0.000000
# 3 0.000460 -0.001355 0.025455 0.000000 0.000000 0.000000
# 4 0.000000 0.000000 0.000000 0.177104 0.000000 0.000000
# 5 0.000000 0.000000 0.000000 0.000000 0.046863 0.000000
# 6 0.000000 0.000000 0.000000 0.000000 0.000000 0.068802
#
#
# Mechanical properties :
#
#
# Convention : Reuss Voigt Hill
#
# Bulk Modulus (GPa) = 22.89563 27.50175 25.19869
# Shear Modulus (GPa) = 13.79744 21.40119 17.59932
#
# Velocity S-wave (km/s) = 2.42088 3.01504 2.73415
# Velocity P-wave (km/s) = 4.18801 4.87877 4.54653
#
# Compressibility (1/GPa) = 0.04367646
#
# Stress axis : x y z
#
# Youngs Moduli (GPa) = 92.69280 76.19558 39.28496
#
# Poissons Ratio (x) = 0.14859 -0.01806
# Poissons Ratio (y) = 0.18076 0.05324
# Poissons Ratio (z) = -0.04262 0.10327
#
# Static dielectric constant tensor:
#      x y z
#    x 1.937990 0.000000 0.000000 
#    y 0.000000 1.924400 0.000000 
#    z 0.000000 0.000000 1.864030 
# 
# From -- ./inp_files/27726.got.cif
#   From: 2010.05.17/outbox.cif.g08.bks.cpg/sg67_14_cif.got.tgz:27726.got - 2010.06.03 18:28:57.
