data_PCOD9501009
_publ_section_title
;
Structure prediction by ZEFSAII (Michael W. Deem and Ramdas Pophale) SiO2 
 PCOD9501009
Probable space group: C M M A
;
_chemical_formula_sum "Si O2"
_cell_formula_units_Z 96
_cell_length_a 27.711639
_cell_length_b 9.194108
_cell_length_c 24.348475
_cell_angle_alpha 90.000000
_cell_angle_beta 90.000000
_cell_angle_gamma 90.000000
_cell_volume 6203.597029
_symmetry_space_group_name_H-M "C M M A"
_symmetry_group_IT_number 67
_symmetry_cell_setting 'orthorhombic'
loop_
_space_group_symop_operation_xyz
x,y,z
-x,1/2-y,z
x,-y,-z
-x,1/2+y,-z
-x,-y,-z
x,1/2+y,-z
-x,y,z
x,1/2-y,z
1/2+x,1/2+y,z
1/2-x,-y,z
1/2+x,1/2-y,-z
1/2-x,y,-z
1/2-x,1/2-y,-z
1/2+x,y,-z
1/2-x,1/2+y,z
1/2+x,-y,z
loop_
_atom_site_type_symbol
_atom_site_label
_atom_site_fract_x
_atom_site_fract_y
_atom_site_fract_z
Si Si1 0.799451 0.423934 0.828758
Si Si2 0.900408 0.424904 0.773834
Si Si3 0.442006 0.578555 0.332876
Si Si4 0.847127 0.425285 0.943949
Si Si5 0.058743 0.082174 0.555159
Si Si6 0.446405 0.573404 0.889922
O O1 0.793759 0.250000 0.827455
O O2 0.750000 0.500000 0.813028
O O3 0.845392 0.459578 0.790745
O O4 0.814818 0.463790 0.891108
O O5 0.904339 0.250000 0.766811
O O6 0.917622 0.505419 0.719676
O O7 0.932651 0.464871 0.827158
O O8 0.500000 0.560675 0.327778
O O9 0.431807 0.750000 0.335543
O O10 0.426771 0.500479 0.389374
O O11 0.846538 0.250000 0.949312
O O12 0.901975 0.472212 0.928354
O O13 0.831562 0.500000 0.000000
O O14 0.074165 0.250000 0.555524
O O15 0.000000 0.081335 0.554379
O O16 0.074730 0.000000 0.500000
O O17 0.500000 0.521159 0.904488
O O18 0.446674 0.750000 0.891663
#
# Coordination Sequence:
#
# PCOD9501009 Si02
#       6
#    16  16  16  16  16  16
#     4   9  19  34  50  67  86 109 139 177 223 273
#     4   9  17  30  47  65  84 110 147 184 218 263
#     4  10  19  28  40  63  94 124 153 185 220 258
#     4   9  18  31  45  64  87 109 138 174 211 257
#     4   9  16  26  40  58  84 121 161 195 224 254
#     4   8  14  26  44  62  82 111 143 174 210 253
#
# _framework density 15.474893
#
# number of rings (size 3 to 8) (size 9 to 14) (size 15 to 20)
#    0.000    3.000    0.000    3.500    0.000    5.667 
#    0.000    4.167    0.000    1.000    0.000    0.000 
#    0.000    0.667    0.000    7.000    0.000    4.167 
#
# Total GULP energy -267448.366861 kJ/mol
# GULP energy per Si atom -5571.840976 kJ/mol
# Density = 1.543967 g / cm^3
# Si number density = 15.474893 Si / 1000 Ang^3
#
#
#
# Elastic Constant Matrix: (Units=GPa)
#
#
# Indices 1 2 3 4 5 6 
#
# 1 37.0375 18.8007 -0.6179 0.0000 0.0000 0.0000
# 2 18.8007 55.5716 48.4862 0.0000 0.0000 0.0000
# 3 -0.6179 48.4862 96.1485 0.0000 0.0000 0.0000
# 4 0.0000 0.0000 0.0000 28.6083 0.0000 0.0000
# 5 0.0000 0.0000 0.0000 0.0000 9.1722 0.0000
# 6 0.0000 0.0000 0.0000 0.0000 0.0000 18.7808
#
#
#
# Elastic Compliance Matrix: (Units=1/GPa)
#
#
# Indices 1 2 3 4 5 6 
#
# 1 0.039532 -0.024278 0.012497 0.000000 0.000000 0.000000
# 2 -0.024278 0.047043 -0.023879 0.000000 0.000000 0.000000
# 3 0.012497 -0.023879 0.022523 0.000000 0.000000 0.000000
# 4 0.000000 0.000000 0.000000 0.034955 0.000000 0.000000
# 5 0.000000 0.000000 0.000000 0.000000 0.109025 0.000000
# 6 0.000000 0.000000 0.000000 0.000000 0.000000 0.053246
#
#
# Mechanical properties :
#
#
# Convention : Reuss Voigt Hill
#
# Bulk Modulus (GPa) = 26.47062 35.78840 31.12951
# Shear Modulus (GPa) = 12.81279 19.45152 16.13215
#
# Velocity S-wave (km/s) = 2.88057 3.54923 3.23224
# Velocity P-wave (km/s) = 5.31096 6.32242 5.83863
#
# Compressibility (1/GPa) = 0.03777773
#
# Stress axis : x y z
#
# Youngs Moduli (GPa) = 25.29599 21.25725 44.39965
#
# Poissons Ratio (x) = 0.51608 -0.55486
# Poissons Ratio (y) = 0.61413 1.06022
# Poissons Ratio (z) = -0.31612 0.50760
#
# Static dielectric constant tensor:
#      x y z
#    x 1.508720 0.000000 0.000000 
#    y 0.000000 1.511870 0.000000 
#    z 0.000000 0.000000 1.498640 
# 
# From -- ./inp_files/37169.got.cif
#   From: 2010.05.17/outbox.cif.g08.bks.cpg/sg67_19_cif.got.tgz:37169.got - 2010.06.03 18:28:57.
