data_PCOD9501365
_publ_section_title
;
Structure prediction by ZEFSAII (Michael W. Deem and Ramdas Pophale) SiO2 
 PCOD9501365
Probable space group: C M M A
;
_chemical_formula_sum "Si O2"
_cell_formula_units_Z 80
_cell_length_a 8.621756
_cell_length_b 20.005644
_cell_length_c 26.789813
_cell_angle_alpha 90.000000
_cell_angle_beta 90.000000
_cell_angle_gamma 90.000000
_cell_volume 4620.808244
_symmetry_space_group_name_H-M "C M M A"
_symmetry_group_IT_number 67
_symmetry_cell_setting 'orthorhombic'
loop_
_space_group_symop_operation_xyz
x,y,z
-x,1/2-y,z
x,-y,-z
-x,1/2+y,-z
-x,-y,-z
x,1/2+y,-z
-x,y,z
x,1/2-y,z
1/2+x,1/2+y,z
1/2-x,-y,z
1/2+x,1/2-y,-z
1/2-x,y,-z
1/2-x,1/2-y,-z
1/2+x,y,-z
1/2-x,1/2+y,z
1/2+x,-y,z
loop_
_atom_site_type_symbol
_atom_site_label
_atom_site_fract_x
_atom_site_fract_y
_atom_site_fract_z
Si Si1 0.685402 0.575790 0.949257
Si Si2 0.688826 0.673526 0.358474
Si Si3 0.186933 0.574753 0.553826
Si Si4 0.312881 0.327577 0.754644
Si Si5 0.314410 0.924674 0.839005
O O1 0.500000 0.573753 0.952799
O O2 0.750000 0.500000 0.948635
O O3 0.729687 0.602480 0.894456
O O4 0.750000 0.608209 0.000000
O O5 0.500000 0.673447 0.358587
O O6 0.737920 0.750000 0.368075
O O7 0.738874 0.623087 0.401491
O O8 0.736415 0.654917 0.302089
O O9 0.250000 0.500000 0.561930
O O10 0.250000 0.597579 0.500000
O O11 0.000000 0.573018 0.552206
O O12 0.500000 0.331071 0.756310
O O13 0.269129 0.250000 0.763522
O O14 0.245581 0.376911 0.795643
O O15 0.500000 0.928371 0.837351
O O16 0.250000 0.000000 0.833615
#
# Coordination Sequence:
#
# PCOD9501365 Si02
#       5
#    16  16  16  16  16
#     4   9  16  26  42  65  93 124 156 194 239 285
#     4   8  16  32  52  72  94 123 159 197 237 281
#     4  10  19  32  50  71  98 128 157 192 234 281
#     4   9  18  34  54  73  96 129 165 199 242 295
#     4  10  20  32  48  73 102 129 161 202 245 288
#
# _framework density 17.312989000000002
#
# number of rings (size 3 to 8) (size 9 to 14) (size 15 to 20)
#    0.000    2.800    0.000    4.200    0.000    4.000 
#    0.000    4.000    0.000    4.800    0.000    0.000 
#    0.000    0.000    0.000    0.000    0.000    0.000 
#
# Total GULP energy -222839.287340 kJ/mol
# GULP energy per Si atom -5570.982184 kJ/mol
# Density = 1.727358 g / cm^3
# Si number density = 17.312989 Si / 1000 Ang^3
#
#
#
# Elastic Constant Matrix: (Units=GPa)
#
#
# Indices 1 2 3 4 5 6 
#
# 1 37.2486 25.7584 44.4694 0.0000 0.0000 0.0000
# 2 25.7584 70.2010 104.3233 0.0000 0.0000 0.0000
# 3 44.4694 104.3233 212.6113 0.0000 0.0000 0.0000
# 4 0.0000 0.0000 0.0000 -35.5958 0.0000 0.0000
# 5 0.0000 0.0000 0.0000 0.0000 41.8930 0.0000
# 6 0.0000 0.0000 0.0000 0.0000 0.0000 17.7842
#
#
#
# Elastic Compliance Matrix: (Units=1/GPa)
#
#
# Indices 1 2 3 4 5 6 
#
# 1 0.036857 -0.007635 -0.003963 0.000000 0.000000 0.000000
# 2 -0.007635 0.054180 -0.024988 0.000000 0.000000 0.000000
# 3 -0.003963 -0.024988 0.017793 0.000000 0.000000 0.000000
# 4 0.000000 0.000000 0.000000 -0.028093 0.000000 0.000000
# 5 0.000000 0.000000 0.000000 0.000000 0.023870 0.000000
# 6 0.000000 0.000000 0.000000 0.000000 0.000000 0.056230
#
#
# Mechanical properties :
#
#
# Convention : Reuss Voigt Hill
#
# Bulk Modulus (GPa) = 28.04318 74.35145 51.19731
# Shear Modulus (GPa) = 20.33393 14.51695 17.42544
#
# Velocity S-wave (km/s) = 3.43080 2.89883 3.17597
# Velocity P-wave (km/s) = 5.65038 7.36498 6.56391
#
# Compressibility (1/GPa) = 0.03565930
#
# Stress axis : x y z
#
# Youngs Moduli (GPa) = 27.13165 18.45706 56.20129
#
# Poissons Ratio (x) = 0.14092 0.22271
# Poissons Ratio (y) = 0.20715 1.40435
# Poissons Ratio (z) = 0.10751 0.46120
#
# Static dielectric constant tensor:
#      x y z
#    x 1.587320 0.000000 0.000000 
#    y 0.000000 1.555510 0.000000 
#    z 0.000000 0.000000 1.623030 
# 
# From -- ./inp_files/43250.got.cif
#   From: 2010.05.17/outbox.cif.g08.bks.cpg/sg67_22_cif.got.tgz:43250.got - 2010.06.03 18:28:57.
