data_PCOD9501148
_publ_section_title
;
Structure prediction by ZEFSAII (Michael W. Deem and Ramdas Pophale) SiO2 
 PCOD9501148
Probable space group: C M M A
;
_chemical_formula_sum "Si O2"
_cell_formula_units_Z 96
_cell_length_a 26.811576
_cell_length_b 21.523128
_cell_length_c 9.140712
_cell_angle_alpha 90.000000
_cell_angle_beta 90.000000
_cell_angle_gamma 90.000000
_cell_volume 5274.821370
_symmetry_space_group_name_H-M "C M M A"
_symmetry_group_IT_number 67
_symmetry_cell_setting 'orthorhombic'
loop_
_space_group_symop_operation_xyz
x,y,z
-x,1/2-y,z
x,-y,-z
-x,1/2+y,-z
-x,-y,-z
x,1/2+y,-z
-x,y,z
x,1/2-y,z
1/2+x,1/2+y,z
1/2-x,-y,z
1/2+x,1/2-y,-z
1/2-x,y,-z
1/2-x,1/2-y,-z
1/2+x,y,-z
1/2-x,1/2+y,z
1/2+x,-y,z
loop_
_atom_site_type_symbol
_atom_site_label
_atom_site_fract_x
_atom_site_fract_y
_atom_site_fract_z
Si Si1 0.098792 0.822786 0.560203
Si Si2 0.845784 0.500000 0.500000
Si Si3 0.500000 0.101501 0.514385
Si Si4 0.300437 0.129923 0.417854
Si Si5 0.500000 0.994201 0.751316
Si Si6 0.632484 0.421807 0.770372
Si Si7 0.581381 0.500000 0.000000
Si Si8 0.253847 0.073690 0.827685
O O1 0.091178 0.750000 0.577161
O O2 0.049490 0.856689 0.500588
O O3 0.149025 0.834802 0.463313
O O4 0.107649 0.859326 0.712348
O O5 0.812517 0.558806 0.461297
O O6 0.875836 0.525465 0.641989
O O7 0.500000 0.053521 0.381132
O O8 0.500000 0.061636 0.668035
O O9 0.250000 0.151884 0.500000
O O10 0.285394 0.119316 0.249759
O O11 0.546159 0.984321 0.862298
O O12 0.691051 0.409045 0.776333
O O13 0.615330 0.446786 0.927493
O O14 0.250000 0.000000 0.790807
O O15 0.250000 0.078519 0.000000
#
# Coordination Sequence:
#
# PCOD9501148 Si02
#       8
#    16   8   8  16   8  16   8  16
#     4  11  25  41  64  87 117 170 221 259 296 364
#     4  10  19  30  54  91 122 159 198 246 315 368
#     4  11  23  44  67  93 122 159 208 260 308 372
#     4  11  19  35  58  88 121 156 204 262 310 365
#     4  10  24  38  65  99 127 145 194 261 331 362
#     4  11  22  34  61  91 125 165 197 252 316 372
#     4  11  22  38  57 102 132 154 185 249 334 388
#     4  11  20  32  52  93 132 161 196 247 330 397
#
# _framework density 18.199667000000002
#
# number of rings (size 3 to 8) (size 9 to 14) (size 15 to 20)
#    0.000    1.167    6.667    1.500    4.667    0.333 
#    0.000    0.000    0.000    6.000    0.000    0.000 
#    0.000    0.000    0.000    0.000    0.000    0.000 
#
# Total GULP energy -267470.220979 kJ/mol
# GULP energy per Si atom -5572.296270 kJ/mol
# Density = 1.815824 g / cm^3
# Si number density = 18.199667 Si / 1000 Ang^3
#
#
#
# Elastic Constant Matrix: (Units=GPa)
#
#
# Indices 1 2 3 4 5 6 
#
# 1 106.9397 46.0674 36.6045 0.0000 0.0000 0.0000
# 2 46.0674 93.1381 35.9456 0.0000 0.0000 0.0000
# 3 36.6045 35.9456 112.7552 0.0000 0.0000 0.0000
# 4 0.0000 0.0000 0.0000 15.9334 0.0000 0.0000
# 5 0.0000 0.0000 0.0000 0.0000 36.4340 0.0000
# 6 0.0000 0.0000 0.0000 0.0000 0.0000 -861.3189
#
#
#
# Elastic Compliance Matrix: (Units=1/GPa)
#
#
# Indices 1 2 3 4 5 6 
#
# 1 0.012412 -0.005227 -0.002363 0.000000 0.000000 0.000000
# 2 -0.005227 0.014444 -0.002908 0.000000 0.000000 0.000000
# 3 -0.002363 -0.002908 0.010563 0.000000 0.000000 0.000000
# 4 0.000000 0.000000 0.000000 0.062761 0.000000 0.000000
# 5 0.000000 0.000000 0.000000 0.000000 0.027447 0.000000
# 6 0.000000 0.000000 0.000000 0.000000 0.000000 -0.001161
#
#
# Mechanical properties :
#
#
# Convention : Reuss Voigt Hill
#
# Bulk Modulus (GPa) = 60.88951 61.11866 61.00408
# Shear Modulus (GPa) = 32.69346 -148.84259 -58.07457
#
# Velocity S-wave (km/s) = 4.24297 -9.05321 -5.65499
# Velocity P-wave (km/s) = 7.58503 8.69630 3.00774
#
# Compressibility (1/GPa) = 0.01642319
#
# Stress axis : x y z
#
# Youngs Moduli (GPa) = 80.57013 69.23124 94.67118
#
# Poissons Ratio (x) = 0.36187 0.22370
# Poissons Ratio (y) = 0.42114 0.27529
# Poissons Ratio (z) = 0.19038 0.20132
#
# Static dielectric constant tensor:
#      x y z
#    x 1.713590 0.000000 0.000000 
#    y 0.000000 1.595290 0.000000 
#    z 0.000000 0.000000 1.712540 
# 
# From -- ./inp_files/13936.got.cif
#   From: 2010.05.17/outbox.cif.g08.bks.cpg/sg67_7_cif.got.tgz:13936.got - 2010.06.03 18:28:57.
