data_PCOD9501231
_publ_section_title
;
Structure prediction by ZEFSAII (Michael W. Deem and Ramdas Pophale) SiO2 
 PCOD9501231
Probable space group: C M M A
;
_chemical_formula_sum "Si O2"
_cell_formula_units_Z 80
_cell_length_a 8.520432
_cell_length_b 19.507467
_cell_length_c 27.114212
_cell_angle_alpha 90.000000
_cell_angle_beta 90.000000
_cell_angle_gamma 90.000000
_cell_volume 4506.708654
_symmetry_space_group_name_H-M "C M M A"
_symmetry_group_IT_number 67
_symmetry_cell_setting 'orthorhombic'
loop_
_space_group_symop_operation_xyz
x,y,z
-x,1/2-y,z
x,-y,-z
-x,1/2+y,-z
-x,-y,-z
x,1/2+y,-z
-x,y,z
x,1/2-y,z
1/2+x,1/2+y,z
1/2-x,-y,z
1/2+x,1/2-y,-z
1/2-x,y,-z
1/2-x,1/2-y,-z
1/2+x,y,-z
1/2-x,1/2+y,z
1/2+x,-y,z
loop_
_atom_site_type_symbol
_atom_site_label
_atom_site_fract_x
_atom_site_fract_y
_atom_site_fract_z
Si Si1 0.689569 0.670708 0.053236
Si Si2 0.689694 0.422320 0.856026
Si Si3 0.311979 0.422209 0.355438
Si Si4 0.188056 0.921844 0.747629
Si Si5 0.310561 0.670820 0.553384
O O1 0.500000 0.669452 0.052629
O O2 0.739364 0.750000 0.059513
O O3 0.744355 0.624268 0.098683
O O4 0.750000 0.646636 0.000000
O O5 0.500000 0.424360 0.857062
O O6 0.750000 0.500000 0.860800
O O7 0.734250 0.393974 0.801608
O O8 0.500000 0.424568 0.355179
O O9 0.250000 0.500000 0.359817
O O10 0.256191 0.391924 0.302862
O O11 0.257746 0.376770 0.401596
O O12 0.000000 0.922013 0.744148
O O13 0.250000 0.000000 0.748353
O O14 0.500000 0.669867 0.552616
O O15 0.259978 0.750000 0.560301
O O16 0.250000 0.647506 0.500000
#
# Coordination Sequence:
#
# PCOD9501231 Si02
#       5
#    16  16  16  16  16
#     4   9  18  33  50  67  91 123 156 190 230 275
#     4   9  18  31  48  70  94 121 153 191 231 271
#     4  10  19  31  49  72  97 123 153 191 231 272
#     4   9  16  28  46  68  94 123 154 186 227 275
#     4   9  19  35  52  69  92 124 158 191 230 274
#
# _framework density 17.751313
#
# number of rings (size 3 to 8) (size 9 to 14) (size 15 to 20)
#    0.000    2.800    0.000    2.400    0.000    4.000 
#    0.000    5.000    0.000    1.200    0.000    0.000 
#    0.000    0.000    0.000    0.000    0.000    0.000 
#
# Total GULP energy -222839.541045 kJ/mol
# GULP energy per Si atom -5570.988526 kJ/mol
# Density = 1.771091 g / cm^3
# Si number density = 17.751313 Si / 1000 Ang^3
#
#
#
# Elastic Constant Matrix: (Units=GPa)
#
#
# Indices 1 2 3 4 5 6 
#
# 1 21.5902 13.1548 31.5736 0.0000 0.0000 0.0000
# 2 13.1548 50.4565 82.0403 0.0000 0.0000 0.0000
# 3 31.5736 82.0403 227.1716 0.0000 0.0000 0.0000
# 4 0.0000 0.0000 0.0000 -7.7707 0.0000 0.0000
# 5 0.0000 0.0000 0.0000 0.0000 29.5223 0.0000
# 6 0.0000 0.0000 0.0000 0.0000 0.0000 14.6502
#
#
#
# Elastic Compliance Matrix: (Units=1/GPa)
#
#
# Indices 1 2 3 4 5 6 
#
# 1 0.058636 -0.004933 -0.006368 0.000000 0.000000 0.000000
# 2 -0.004933 0.048426 -0.016803 0.000000 0.000000 0.000000
# 3 -0.006368 -0.016803 0.011355 0.000000 0.000000 0.000000
# 4 0.000000 0.000000 0.000000 -0.128688 0.000000 0.000000
# 5 0.000000 0.000000 0.000000 0.000000 0.033873 0.000000
# 6 0.000000 0.000000 0.000000 0.000000 0.000000 0.068258
#
#
# Mechanical properties :
#
#
# Convention : Reuss Voigt Hill
#
# Bulk Modulus (GPa) = 16.07488 61.41730 38.74609
# Shear Modulus (GPa) = 29.62012 18.77699 24.19855
#
# Velocity S-wave (km/s) = 4.08930 3.25588 3.69616
# Velocity P-wave (km/s) = 5.60105 6.98629 6.33167
#
# Compressibility (1/GPa) = 0.06220888
#
# Stress axis : x y z
#
# Youngs Moduli (GPa) = 17.05448 20.65007 88.06565
#
# Poissons Ratio (x) = 0.10187 0.56080
# Poissons Ratio (y) = 0.08413 1.47975
# Poissons Ratio (z) = 0.10860 0.34698
#
# Static dielectric constant tensor:
#      x y z
#    x 1.616120 0.000000 0.000000 
#    y 0.000000 1.577610 0.000000 
#    z 0.000000 0.000000 1.642170 
# 
# From -- ./inp_files/43201.got.cif
#   From: 2010.05.17/outbox.cif.g08.bks.cpg/sg67_22_cif.got.tgz:43201.got - 2010.06.03 18:28:57.
