data_PCOD9501072
_publ_section_title
;
Structure prediction by ZEFSAII (Michael W. Deem and Ramdas Pophale) SiO2 
 PCOD9501072
Probable space group: C M M A
;
_chemical_formula_sum "Si O2"
_cell_formula_units_Z 96
_cell_length_a 28.049887
_cell_length_b 8.818518
_cell_length_c 24.485062
_cell_angle_alpha 90.000000
_cell_angle_beta 90.000000
_cell_angle_gamma 90.000000
_cell_volume 6056.586578
_symmetry_space_group_name_H-M "C M M A"
_symmetry_group_IT_number 67
_symmetry_cell_setting 'orthorhombic'
loop_
_space_group_symop_operation_xyz
x,y,z
-x,1/2-y,z
x,-y,-z
-x,1/2+y,-z
-x,-y,-z
x,1/2+y,-z
-x,y,z
x,1/2-y,z
1/2+x,1/2+y,z
1/2-x,-y,z
1/2+x,1/2-y,-z
1/2-x,y,-z
1/2-x,1/2-y,-z
1/2+x,y,-z
1/2-x,1/2+y,z
1/2+x,-y,z
loop_
_atom_site_type_symbol
_atom_site_label
_atom_site_fract_x
_atom_site_fract_y
_atom_site_fract_z
Si Si1 0.697122 0.067586 0.442556
Si Si2 0.446284 0.567294 0.729864
Si Si3 0.944117 0.931300 0.058861
Si Si4 0.897283 0.068477 0.164746
Si Si5 0.800787 0.568872 0.774711
Si Si6 0.350989 0.067610 0.329759
O O1 0.700181 0.250000 0.446416
O O2 0.664835 0.026301 0.390637
O O3 0.679586 0.000000 0.500000
O O4 0.750000 0.000000 0.433769
O O5 0.500000 0.523461 0.714483
O O6 0.445021 0.750000 0.736052
O O7 0.431380 0.494208 0.787368
O O8 0.405042 0.525585 0.686731
O O9 0.939994 0.750000 0.057277
O O10 0.000000 0.969453 0.069092
O O11 0.912800 0.998018 0.107570
O O12 0.931343 0.000000 0.000000
O O13 0.900905 0.250000 0.162502
O O14 0.843643 0.027892 0.183902
O O15 0.797493 0.750000 0.772287
O O16 0.750000 0.500000 0.789915
O O17 0.817016 0.506924 0.715573
O O18 0.346566 0.250000 0.324785
#
# Coordination Sequence:
#
# PCOD9501072 Si02
#       6
#    16  16  16  16  16  16
#     4  10  19  30  45  65  89 117 149 186 229 275
#     4   9  17  30  48  69  93 122 155 189 226 270
#     4  10  20  33  50  72  97 126 158 191 229 272
#     4  10  20  32  47  70  98 125 154 189 230 274
#     4  10  20  32  48  70  95 124 155 189 230 274
#     4   9  18  31  47  68  93 121 153 189 229 273
#
# _framework density 15.850512999999999
#
# number of rings (size 3 to 8) (size 9 to 14) (size 15 to 20)
#    0.000    2.333    0.000    3.500    0.000    8.000 
#    0.000    0.000    0.000    1.000    0.000    3.500 
#    0.000    0.000    0.000    0.000    0.000    0.667 
#
# Total GULP energy -267764.088135 kJ/mol
# GULP energy per Si atom -5578.418503 kJ/mol
# Density = 1.581444 g / cm^3
# Si number density = 15.850513 Si / 1000 Ang^3
#
#
#
# Elastic Constant Matrix: (Units=GPa)
#
#
# Indices 1 2 3 4 5 6 
#
# 1 102.9090 37.0010 75.5572 0.0000 0.0000 0.0000
# 2 37.0010 35.6664 47.7129 0.0000 0.0000 0.0000
# 3 75.5572 47.7129 154.1931 0.0000 0.0000 0.0000
# 4 0.0000 0.0000 0.0000 23.5927 0.0000 0.0000
# 5 0.0000 0.0000 0.0000 0.0000 18.7077 0.0000
# 6 0.0000 0.0000 0.0000 0.0000 0.0000 19.8366
#
#
#
# Elastic Compliance Matrix: (Units=1/GPa)
#
#
# Indices 1 2 3 4 5 6 
#
# 1 0.017541 -0.011431 -0.005058 0.000000 0.000000 0.000000
# 2 -0.011431 0.055290 -0.011508 0.000000 0.000000 0.000000
# 3 -0.005058 -0.011508 0.012525 0.000000 0.000000 0.000000
# 4 0.000000 0.000000 0.000000 0.042386 0.000000 0.000000
# 5 0.000000 0.000000 0.000000 0.000000 0.053454 0.000000
# 6 0.000000 0.000000 0.000000 0.000000 0.000000 0.050412
#
#
# Mechanical properties :
#
#
# Convention : Reuss Voigt Hill
#
# Bulk Modulus (GPa) = 34.05638 68.14563 51.10100
# Shear Modulus (GPa) = 16.81301 21.26057 19.03679
#
# Velocity S-wave (km/s) = 3.26041 3.66637 3.46933
# Velocity P-wave (km/s) = 5.97547 7.81083 6.95397
#
# Compressibility (1/GPa) = 0.02936308
#
# Stress axis : x y z
#
# Youngs Moduli (GPa) = 57.00878 18.08639 79.84064
#
# Poissons Ratio (x) = 0.20674 0.40387
# Poissons Ratio (y) = 0.65164 0.91877
# Poissons Ratio (z) = 0.28837 0.20813
#
# Static dielectric constant tensor:
#      x y z
#    x 1.530130 0.000000 0.000000 
#    y 0.000000 1.529330 0.000000 
#    z 0.000000 0.000000 1.506320 
# 
# From -- ./inp_files/40915.got.cif
#   From: 2010.05.17/outbox.cif.g08.bks.cpg/sg67_21_cif.got.tgz:40915.got - 2010.06.03 18:28:57.
