data_PCOD9501550
_publ_section_title
;
Structure prediction by ZEFSAII (Michael W. Deem and Ramdas Pophale) SiO2 
 PCOD9501550
Probable space group: C M M A
;
_chemical_formula_sum "Si O2"
_cell_formula_units_Z 100
_cell_length_a 20.644878
_cell_length_b 27.325181
_cell_length_c 9.386251
_cell_angle_alpha 90.000000
_cell_angle_beta 90.000000
_cell_angle_gamma 90.000000
_cell_volume 5295.019109
_symmetry_space_group_name_H-M "C M M A"
_symmetry_group_IT_number 67
_symmetry_cell_setting 'orthorhombic'
loop_
_space_group_symop_operation_xyz
x,y,z
-x,1/2-y,z
x,-y,-z
-x,1/2+y,-z
-x,-y,-z
x,1/2+y,-z
-x,y,z
x,1/2-y,z
1/2+x,1/2+y,z
1/2-x,-y,z
1/2+x,1/2-y,-z
1/2-x,y,-z
1/2-x,1/2-y,-z
1/2+x,y,-z
1/2-x,1/2+y,z
1/2+x,-y,z
loop_
_atom_site_type_symbol
_atom_site_label
_atom_site_fract_x
_atom_site_fract_y
_atom_site_fract_z
Si Si1 0.173499 0.941588 0.502604
Si Si2 0.500000 0.750000 0.945722
Si Si3 0.722376 0.194126 0.216295
Si Si4 0.646971 0.640125 0.277791
Si Si5 0.110488 0.695578 0.445886
Si Si6 0.103856 0.339061 0.969936
Si Si7 0.929847 0.601825 0.292611
O O1 0.250000 0.929093 0.500000
O O2 0.146573 0.911703 0.639470
O O3 0.130977 0.923609 0.368372
O O4 0.168119 0.000000 0.500000
O O5 0.556295 0.793294 0.949132
O O6 0.745517 0.250000 0.194029
O O7 0.780436 0.156735 0.238301
O O8 0.678371 0.194177 0.359542
O O9 0.673923 0.178140 0.090473
O O10 0.621743 0.679545 0.392874
O O11 0.607365 0.644317 0.132816
O O12 0.083809 0.750000 0.432563
O O13 0.068530 0.654711 0.369548
O O14 0.082752 0.384283 0.870387
O O15 0.000000 0.577430 0.312537
#
# Coordination Sequence:
#
# PCOD9501550 Si02
#       7
#    16   4  16  16  16  16  16
#     4  10  22  44  70  92 116 149 196 261 330 377
#     4  12  24  40  50  78 130 184 208 224 276 352
#     4  10  19  32  55  83 118 161 198 235 290 361
#     4  11  21  35  55  89 117 147 199 255 305 349
#     4   9  19  32  51  81 119 156 192 240 293 352
#     4  11  23  36  56  80 125 168 206 238 279 347
#     4  10  21  39  60  86 117 162 203 242 296 366
#
# _framework density 18.885674000000002
#
# number of rings (size 3 to 8) (size 9 to 14) (size 15 to 20)
#    0.000    1.760    1.600    4.320    3.360    2.560 
#    5.760    0.800    0.000    2.880    0.000    0.000 
#    0.000    0.000    0.000    0.000    0.000    0.000 
#
# Total GULP energy -278503.342127 kJ/mol
# GULP energy per Si atom -5570.066843 kJ/mol
# Density = 1.884269 g / cm^3
# Si number density = 18.885674 Si / 1000 Ang^3
#
#
#
# Elastic Constant Matrix: (Units=GPa)
#
#
# Indices 1 2 3 4 5 6 
#
# 1 58.1105 15.7519 11.6732 0.0000 0.0000 0.0000
# 2 15.7519 74.8558 18.5001 0.0000 0.0000 0.0000
# 3 11.6732 18.5001 123.5296 0.0000 0.0000 0.0000
# 4 0.0000 0.0000 0.0000 10.3388 0.0000 0.0000
# 5 0.0000 0.0000 0.0000 0.0000 -11.6343 0.0000
# 6 0.0000 0.0000 0.0000 0.0000 0.0000 16.1321
#
#
#
# Elastic Compliance Matrix: (Units=1/GPa)
#
#
# Indices 1 2 3 4 5 6 
#
# 1 0.018421 -0.003579 -0.001205 0.000000 0.000000 0.000000
# 2 -0.003579 0.014568 -0.001844 0.000000 0.000000 0.000000
# 3 -0.001205 -0.001844 0.008485 0.000000 0.000000 0.000000
# 4 0.000000 0.000000 0.000000 0.096723 0.000000 0.000000
# 5 0.000000 0.000000 0.000000 0.000000 -0.085953 0.000000
# 6 0.000000 0.000000 0.000000 0.000000 0.000000 0.061988
#
#
# Mechanical properties :
#
#
# Convention : Reuss Voigt Hill
#
# Bulk Modulus (GPa) = 35.43605 38.70513 37.07059
# Shear Modulus (GPa) = 36.52510 17.00537 26.76524
#
# Velocity S-wave (km/s) = 4.40251 3.00398 3.76869
# Velocity P-wave (km/s) = 6.68184 5.70709 6.21361
#
# Compressibility (1/GPa) = 0.02821985
#
# Stress axis : x y z
#
# Youngs Moduli (GPa) = 54.28698 68.64519 117.85274
#
# Poissons Ratio (x) = 0.24565 0.14198
# Poissons Ratio (y) = 0.19427 0.21727
# Poissons Ratio (z) = 0.06540 0.12655
#
# Static dielectric constant tensor:
#      x y z
#    x 1.692050 0.000000 0.000000 
#    y 0.000000 1.640780 0.000000 
#    z 0.000000 0.000000 1.684610 
# 
# From -- ./inp_files/11564.got.cif
#   From: 2010.05.17/outbox.cif.g08.bks.cpg/sg67_6_cif.got.tgz:11564.got - 2010.06.03 18:28:57.
