data_PCOD9501198
_publ_section_title
;
Structure prediction by ZEFSAII (Michael W. Deem and Ramdas Pophale) SiO2 
 PCOD9501198
Probable space group: C M M A
;
_chemical_formula_sum "Si O2"
_cell_formula_units_Z 96
_cell_length_a 7.810961
_cell_length_b 26.084066
_cell_length_c 19.292619
_cell_angle_alpha 90.000000
_cell_angle_beta 90.000000
_cell_angle_gamma 90.000000
_cell_volume 3930.709492
_symmetry_space_group_name_H-M "C M M A"
_symmetry_group_IT_number 67
_symmetry_cell_setting 'orthorhombic'
loop_
_space_group_symop_operation_xyz
x,y,z
-x,1/2-y,z
x,-y,-z
-x,1/2+y,-z
-x,-y,-z
x,1/2+y,-z
-x,y,z
x,1/2-y,z
1/2+x,1/2+y,z
1/2-x,-y,z
1/2+x,1/2-y,-z
1/2-x,y,-z
1/2-x,1/2-y,-z
1/2+x,y,-z
1/2-x,1/2+y,z
1/2+x,-y,z
loop_
_atom_site_type_symbol
_atom_site_label
_atom_site_fract_x
_atom_site_fract_y
_atom_site_fract_z
Si Si1 0.204366 0.335892 0.424719
Si Si2 0.295094 0.054577 0.622369
Si Si3 0.192959 0.079761 0.080164
Si Si4 0.199385 0.305428 0.725352
Si Si5 0.703521 0.417941 0.772964
Si Si6 0.295364 0.694142 0.919758
O O1 0.250000 0.315254 0.500000
O O2 0.263457 0.395339 0.418803
O O3 0.285406 0.310264 0.357546
O O4 0.000000 0.333126 0.415893
O O5 0.500000 0.058230 0.626614
O O6 0.225693 0.058109 0.701613
O O7 0.250000 0.000000 0.591445
O O8 0.278464 0.062514 0.153217
O O9 0.200711 0.141067 0.094983
O O10 0.000000 0.060475 0.079749
O O11 0.250000 0.071494 0.000000
O O12 0.275786 0.250000 0.742985
O O13 0.275688 0.356699 0.758713
O O14 0.000000 0.305452 0.745234
O O15 0.500000 0.427794 0.775743
O O16 0.500000 0.686086 0.911531
O O17 0.252304 0.750000 0.888493
O O18 0.250000 0.699676 0.000000
#
# Coordination Sequence:
#
# PCOD9501198 Si02
#       6
#    16  16  16  16  16  16
#     4  10  21  37  57  83 116 149 182 220 260 308
#     4   9  19  36  57  81 107 137 174 216 265 320
#     4  10  19  31  48  69  95 128 167 213 266 321
#     4  10  21  36  55  80 109 144 187 229 267 310
#     4   9  20  37  54  75 105 140 178 221 269 324
#     4   9  16  25  37  55  82 115 152 195 242 294
#
# _framework density 24.423071
#
# number of rings (size 3 to 8) (size 9 to 14) (size 15 to 20)
#    0.000    2.500    0.000    4.000    0.000    8.333 
#    0.000    5.000    0.000    0.500    0.000    3.500 
#    0.000    0.000    0.000    0.000    0.000    0.000 
#
# Total GULP energy -267653.925332 kJ/mol
# GULP energy per Si atom -5576.123444 kJ/mol
# Density = 2.436748 g / cm^3
# Si number density = 24.423071 Si / 1000 Ang^3
#
#
#
# Elastic Constant Matrix: (Units=GPa)
#
#
# Indices 1 2 3 4 5 6 
#
# 1 48.3087 -12.5508 4.4066 0.0000 0.0000 0.0000
# 2 -12.5508 83.5069 -0.6795 0.0000 0.0000 0.0000
# 3 4.4066 -0.6795 183.8468 0.0000 0.0000 0.0000
# 4 0.0000 0.0000 0.0000 4.7834 0.0000 0.0000
# 5 0.0000 0.0000 0.0000 0.0000 -5.0935 0.0000
# 6 0.0000 0.0000 0.0000 0.0000 0.0000 5.5580
#
#
#
# Elastic Compliance Matrix: (Units=1/GPa)
#
#
# Indices 1 2 3 4 5 6 
#
# 1 0.021588 0.003241 -0.000505 0.000000 0.000000 0.000000
# 2 0.003241 0.012462 -0.000032 0.000000 0.000000 0.000000
# 3 -0.000505 -0.000032 0.005451 0.000000 0.000000 0.000000
# 4 0.000000 0.000000 0.000000 0.209056 0.000000 0.000000
# 5 0.000000 0.000000 0.000000 0.000000 -0.196329 0.000000
# 6 0.000000 0.000000 0.000000 0.000000 0.000000 0.179922
#
#
# Mechanical properties :
#
#
# Convention : Reuss Voigt Hill
#
# Bulk Modulus (GPa) = 22.26763 33.11278 27.69021
# Shear Modulus (GPa) = 20.68565 22.68198 21.68381
#
# Velocity S-wave (km/s) = 2.91343 3.05078 2.98290
# Velocity P-wave (km/s) = 4.52269 5.09874 4.81933
#
# Compressibility (1/GPa) = 0.04490824
#
# Stress axis : x y z
#
# Youngs Moduli (GPa) = 46.32159 80.24498 183.44211
#
# Poissons Ratio (x) = -0.26004 0.09272
# Poissons Ratio (y) = -0.15011 0.00580
# Poissons Ratio (z) = 0.02341 0.00254
#
# Static dielectric constant tensor:
#      x y z
#    x 1.896060 0.000000 0.000000 
#    y 0.000000 1.985750 0.000000 
#    z 0.000000 0.000000 1.862010 
# 
# From -- ./inp_files/37184.got.cif
#   From: 2010.05.17/outbox.cif.g08.bks.cpg/sg67_19_cif.got.tgz:37184.got - 2010.06.03 18:28:57.
