data_PCOD9501529
_publ_section_title
;
Structure prediction by ZEFSAII (Michael W. Deem and Ramdas Pophale) SiO2 
 PCOD9501529
Probable space group: C M M A
;
_chemical_formula_sum "Si O2"
_cell_formula_units_Z 112
_cell_length_a 14.098697
_cell_length_b 14.416615
_cell_length_c 29.053315
_cell_angle_alpha 90.000000
_cell_angle_beta 90.000000
_cell_angle_gamma 90.000000
_cell_volume 5905.245679
_symmetry_space_group_name_H-M "C M M A"
_symmetry_group_IT_number 67
_symmetry_cell_setting 'orthorhombic'
loop_
_space_group_symop_operation_xyz
x,y,z
-x,1/2-y,z
x,-y,-z
-x,1/2+y,-z
-x,-y,-z
x,1/2+y,-z
-x,y,z
x,1/2-y,z
1/2+x,1/2+y,z
1/2-x,-y,z
1/2+x,1/2-y,-z
1/2-x,y,-z
1/2-x,1/2-y,-z
1/2+x,y,-z
1/2-x,1/2+y,z
1/2+x,-y,z
loop_
_atom_site_type_symbol
_atom_site_label
_atom_site_fract_x
_atom_site_fract_y
_atom_site_fract_z
Si Si1 0.109565 0.018420 0.054200
Si Si2 0.761764 0.142446 0.795045
Si Si3 0.112287 0.360193 0.336493
Si Si4 0.604151 0.895354 0.515056
Si Si5 0.887780 0.479386 0.245272
Si Si6 0.278175 0.857731 0.904718
Si Si7 0.776118 0.854628 0.573837
O O1 0.183607 0.093283 0.074633
O O2 0.000000 0.044429 0.061703
O O3 0.135705 0.920712 0.077665
O O4 0.125024 0.000000 0.000000
O O5 0.766846 0.250000 0.780652
O O6 0.658083 0.097755 0.788029
O O7 0.780837 0.137122 0.849382
O O8 0.832370 0.074764 0.766433
O O9 0.132770 0.250000 0.325410
O O10 0.130173 0.431821 0.295050
O O11 0.170360 0.390549 0.381474
O O12 0.000000 0.362994 0.346955
O O13 0.500000 0.856757 0.525515
O O14 0.678905 0.898683 0.556497
O O15 0.654465 0.851321 0.470459
O O16 0.593212 0.000000 0.500000
O O17 0.000000 0.491220 0.239501
O O18 0.282846 0.750000 0.918392
O O19 0.749318 0.750000 0.585323
#
# Coordination Sequence:
#
# PCOD9501529 Si02
#       7
#    16  16  16  16  16  16  16
#     4  10  21  36  55  82 116 153 198 247 288 336
#     4  10  22  38  57  88 120 147 188 243 293 345
#     4   9  18  33  55  84 112 139 181 232 279 335
#     4  10  20  34  50  74 109 144 180 220 260 317
#     4  10  20  37  61  85 112 152 191 232 290 349
#     4  10  21  37  57  81 115 155 193 236 293 351
#     4  10  19  32  54  80 105 137 175 221 274 321
#
# _framework density 18.966187999999999
#
# number of rings (size 3 to 8) (size 9 to 14) (size 15 to 20)
#    0.000    2.143    0.000    5.143    0.000    6.857 
#    5.143    4.286    0.000    0.000    0.000    4.000 
#    0.000    0.000    0.000    0.000    0.000    0.000 
#
# Total GULP energy -312143.973368 kJ/mol
# GULP energy per Si atom -5573.999524 kJ/mol
# Density = 1.892302 g / cm^3
# Si number density = 18.966188 Si / 1000 Ang^3
#
#
#
# Elastic Constant Matrix: (Units=GPa)
#
#
# Indices 1 2 3 4 5 6 
#
# 1 85.6326 25.6982 22.7139 0.0000 0.0000 0.0000
# 2 25.6982 121.3299 28.7286 0.0000 0.0000 0.0000
# 3 22.7139 28.7286 64.8485 0.0000 0.0000 0.0000
# 4 0.0000 0.0000 0.0000 10.5952 0.0000 0.0000
# 5 0.0000 0.0000 0.0000 0.0000 -11.0442 0.0000
# 6 0.0000 0.0000 0.0000 0.0000 0.0000 18.9328
#
#
#
# Elastic Compliance Matrix: (Units=1/GPa)
#
#
# Indices 1 2 3 4 5 6 
#
# 1 0.013258 -0.001909 -0.003798 0.000000 0.000000 0.000000
# 2 -0.001909 0.009483 -0.003532 0.000000 0.000000 0.000000
# 3 -0.003798 -0.003532 0.018316 0.000000 0.000000 0.000000
# 4 0.000000 0.000000 0.000000 0.094382 0.000000 0.000000
# 5 0.000000 0.000000 0.000000 0.000000 -0.090545 0.000000
# 6 0.000000 0.000000 0.000000 0.000000 0.000000 0.052818
#
#
# Mechanical properties :
#
#
# Convention : Reuss Voigt Hill
#
# Bulk Modulus (GPa) = 44.29110 47.34361 45.81735
# Shear Modulus (GPa) = 40.41491 16.67477 28.54484
#
# Velocity S-wave (km/s) = 4.62117 2.96832 3.88369
# Velocity P-wave (km/s) = 7.20256 6.06335 6.65737
#
# Compressibility (1/GPa) = 0.02257790
#
# Stress axis : x y z
#
# Youngs Moduli (GPa) = 75.42568 105.45553 54.59773
#
# Poissons Ratio (x) = 0.20129 0.20737
# Poissons Ratio (y) = 0.14397 0.19286
# Poissons Ratio (z) = 0.28648 0.37251
#
# Static dielectric constant tensor:
#      x y z
#    x 1.700520 0.000000 0.000000 
#    y 0.000000 1.689490 0.000000 
#    z 0.000000 0.000000 1.685240 
# 
# From -- ./inp_files/44377.got.cif
#   From: 2010.05.17/outbox.cif.g08.bks.cpg/sg67_23_cif.got.tgz:44377.got - 2010.06.03 18:28:57.
