data_PCOD9501243
_publ_section_title
;
Structure prediction by ZEFSAII (Michael W. Deem and Ramdas Pophale) SiO2 
 PCOD9501243
Probable space group: C M M A
;
_chemical_formula_sum "Si O2"
_cell_formula_units_Z 80
_cell_length_a 14.382232
_cell_length_b 8.063754
_cell_length_c 30.297923
_cell_angle_alpha 90.000000
_cell_angle_beta 90.000000
_cell_angle_gamma 90.000000
_cell_volume 3513.794979
_symmetry_space_group_name_H-M "C M M A"
_symmetry_group_IT_number 67
_symmetry_cell_setting 'orthorhombic'
loop_
_space_group_symop_operation_xyz
x,y,z
-x,1/2-y,z
x,-y,-z
-x,1/2+y,-z
-x,-y,-z
x,1/2+y,-z
-x,y,z
x,1/2-y,z
1/2+x,1/2+y,z
1/2-x,-y,z
1/2+x,1/2-y,-z
1/2-x,y,-z
1/2-x,1/2-y,-z
1/2+x,y,-z
1/2-x,1/2+y,z
1/2+x,-y,z
loop_
_atom_site_type_symbol
_atom_site_label
_atom_site_fract_x
_atom_site_fract_y
_atom_site_fract_z
Si Si1 0.641954 0.949664 0.142813
Si Si2 0.614597 0.250000 0.709991
Si Si3 0.886633 0.939369 0.450880
Si Si4 0.386323 0.250000 0.608232
Si Si5 0.393125 0.429708 0.239056
Si Si6 0.141723 0.447203 0.047167
O O1 0.631075 0.750000 0.146326
O O2 0.604685 0.005535 0.094766
O O3 0.750000 0.000000 0.142559
O O4 0.604371 0.031467 0.186962
O O5 0.500000 0.250000 0.711798
O O6 0.642514 0.250000 0.659079
O O7 0.647385 0.413884 0.735480
O O8 0.855172 0.750000 0.442715
O O9 0.000000 0.935523 0.449535
O O10 0.861286 0.000000 0.500000
O O11 0.856691 0.082405 0.416974
O O12 0.500000 0.250000 0.607281
O O13 0.500000 0.419078 0.254084
O O14 0.349051 0.250000 0.246308
O O15 0.137111 0.250000 0.048360
O O16 0.250000 0.500000 0.046524
O O17 0.101900 0.500000 0.000000
#
# Coordination Sequence:
#
# PCOD9501243 Si02
#       6
#    16   8  16   8  16  16
#     4  10  19  31  49  74  99 123 158 202 240 286
#     4   9  18  32  46  62  88 119 159 203 236 279
#     4   9  14  20  31  48  73 105 142 184 227 269
#     4   9  16  24  36  54  76 108 148 191 230 266
#     4  10  20  34  52  70  92 126 164 203 246 290
#     4   9  16  25  40  63  93 123 148 182 231 282
#
# _framework density 22.767406000000001
#
# number of rings (size 3 to 8) (size 9 to 14) (size 15 to 20)
#    0.000    2.600    2.000    1.800    0.000    3.200 
#    0.000    4.000    0.000    0.600    0.000    0.000 
#    0.000    0.000    0.000    0.000    0.000    3.000 
#
# Total GULP energy -223326.874384 kJ/mol
# GULP energy per Si atom -5583.171860 kJ/mol
# Density = 2.271559 g / cm^3
# Si number density = 22.767406 Si / 1000 Ang^3
#
#
#
# Elastic Constant Matrix: (Units=GPa)
#
#
# Indices 1 2 3 4 5 6 
#
# 1 71.6113 14.4252 4.4076 0.0000 0.0000 0.0000
# 2 14.4252 209.9553 120.4065 0.0000 0.0000 0.0000
# 3 4.4076 120.4065 197.2203 0.0000 0.0000 0.0000
# 4 0.0000 0.0000 0.0000 19.1176 0.0000 0.0000
# 5 0.0000 0.0000 0.0000 0.0000 4.1621 0.0000
# 6 0.0000 0.0000 0.0000 0.0000 0.0000 8.0064
#
#
#
# Elastic Compliance Matrix: (Units=1/GPa)
#
#
# Indices 1 2 3 4 5 6 
#
# 1 0.014184 -0.001220 0.000428 0.000000 0.000000 0.000000
# 2 -0.001220 0.007434 -0.004511 0.000000 0.000000 0.000000
# 3 0.000428 -0.004511 0.007815 0.000000 0.000000 0.000000
# 4 0.000000 0.000000 0.000000 0.052308 0.000000 0.000000
# 5 0.000000 0.000000 0.000000 0.000000 0.240265 0.000000
# 6 0.000000 0.000000 0.000000 0.000000 0.000000 0.124901
#
#
# Mechanical properties :
#
#
# Convention : Reuss Voigt Hill
#
# Bulk Modulus (GPa) = 53.11802 84.14061 68.62931
# Shear Modulus (GPa) = 10.78078 28.89372 19.83725
#
# Velocity S-wave (km/s) = 2.17841 3.56628 2.95498
# Velocity P-wave (km/s) = 5.45057 7.34811 6.46929
#
# Compressibility (1/GPa) = 0.01882600
#
# Stress axis : x y z
#
# Youngs Moduli (GPa) = 70.50365 134.51959 127.95730
#
# Poissons Ratio (x) = 0.16409 -0.05473
# Poissons Ratio (y) = 0.08600 0.57725
# Poissons Ratio (z) = -0.03016 0.60685
#
# Static dielectric constant tensor:
#      x y z
#    x 1.931240 0.000000 0.000000 
#    y 0.000000 1.829410 0.000000 
#    z 0.000000 0.000000 1.822230 
# 
# From -- ./inp_files/44471.got.cif
#   From: 2010.05.17/outbox.cif.g08.bks.cpg/sg67_23_cif.got.tgz:44471.got - 2010.06.03 18:28:57.
