data_PCOD9501418
_publ_section_title
;
Structure prediction by ZEFSAII (Michael W. Deem and Ramdas Pophale) SiO2 
 PCOD9501418
Probable space group: C M M A
;
_chemical_formula_sum "Si O2"
_cell_formula_units_Z 72
_cell_length_a 8.926895
_cell_length_b 32.605800
_cell_length_c 13.771153
_cell_angle_alpha 90.000000
_cell_angle_beta 90.000000
_cell_angle_gamma 90.000000
_cell_volume 4008.349577
_symmetry_space_group_name_H-M "C M M A"
_symmetry_group_IT_number 67
_symmetry_cell_setting 'orthorhombic'
loop_
_space_group_symop_operation_xyz
x,y,z
-x,1/2-y,z
x,-y,-z
-x,1/2+y,-z
-x,-y,-z
x,1/2+y,-z
-x,y,z
x,1/2-y,z
1/2+x,1/2+y,z
1/2-x,-y,z
1/2+x,1/2-y,-z
1/2-x,y,-z
1/2-x,1/2-y,-z
1/2+x,y,-z
1/2-x,1/2+y,z
1/2+x,-y,z
loop_
_atom_site_type_symbol
_atom_site_label
_atom_site_fract_x
_atom_site_fract_y
_atom_site_fract_z
Si Si1 0.820819 0.580412 0.604668
Si Si2 0.820679 0.165675 0.290669
Si Si3 0.178450 0.627530 0.103645
Si Si4 0.820875 0.957779 0.205700
Si Si5 0.319097 0.750000 0.393560
O O1 0.750000 0.572239 0.500000
O O2 0.788621 0.627470 0.637408
O O3 0.748874 0.552782 0.689078
O O4 0.000000 0.574802 0.602415
O O5 0.741664 0.156028 0.189160
O O6 0.774348 0.208708 0.337138
O O7 0.000000 0.166220 0.275598
O O8 0.215399 0.580936 0.137155
O O9 0.000000 0.631154 0.098705
O O10 0.250000 0.636456 0.000000
O O11 0.000000 0.961140 0.213398
O O12 0.750000 0.000000 0.169740
O O13 0.500000 0.750000 0.401055
O O14 0.250000 0.750000 0.500000
#
# Coordination Sequence:
#
# PCOD9501418 Si02
#       5
#    16  16  16  16   8
#     4  10  19  32  51  74 103 140 177 215 259 310
#     4   9  19  35  54  78 109 141 176 217 260 307
#     4  10  21  37  58  80 104 136 174 216 263 313
#     4  10  21  36  53  76 104 134 171 216 262 311
#     4  10  20  34  55  84 115 146 177 214 258 306
#
# _framework density 17.962505
#
# number of rings (size 3 to 8) (size 9 to 14) (size 15 to 20)
#    0.000    2.222    0.000    2.667    0.000    5.333 
#    0.000    5.000    0.000    0.000    0.000    0.000 
#    0.000    0.000    0.000    0.000    0.000    0.000 
#
# Total GULP energy -201048.961517 kJ/mol
# GULP energy per Si atom -5584.693375 kJ/mol
# Density = 1.792162 g / cm^3
# Si number density = 17.962505 Si / 1000 Ang^3
#
#
#
# Elastic Constant Matrix: (Units=GPa)
#
#
# Indices 1 2 3 4 5 6 
#
# 1 36.3582 29.4519 34.8223 0.0000 0.0000 0.0000
# 2 29.4519 101.0706 31.3367 0.0000 0.0000 0.0000
# 3 34.8223 31.3367 111.9689 0.0000 0.0000 0.0000
# 4 0.0000 0.0000 0.0000 6.6224 0.0000 0.0000
# 5 0.0000 0.0000 0.0000 0.0000 30.5807 0.0000
# 6 0.0000 0.0000 0.0000 0.0000 0.0000 23.2031
#
#
#
# Elastic Compliance Matrix: (Units=1/GPa)
#
#
# Indices 1 2 3 4 5 6 
#
# 1 0.046902 -0.010014 -0.011784 0.000000 0.000000 0.000000
# 2 -0.010014 0.012972 -0.000516 0.000000 0.000000 0.000000
# 3 -0.011784 -0.000516 0.012740 0.000000 0.000000 0.000000
# 4 0.000000 0.000000 0.000000 0.151004 0.000000 0.000000
# 5 0.000000 0.000000 0.000000 0.000000 0.032700 0.000000
# 6 0.000000 0.000000 0.000000 0.000000 0.000000 0.043098
#
#
# Mechanical properties :
#
#
# Convention : Reuss Voigt Hill
#
# Bulk Modulus (GPa) = 35.73133 48.95769 42.34451
# Shear Modulus (GPa) = 14.14938 22.33369 18.24154
#
# Velocity S-wave (km/s) = 2.80968 3.52994 3.19020
# Velocity P-wave (km/s) = 5.51915 6.62787 6.09876
#
# Compressibility (1/GPa) = 0.02798665
#
# Stress axis : x y z
#
# Youngs Moduli (GPa) = 21.32117 77.08865 78.49083
#
# Poissons Ratio (x) = 0.77193 0.92493
# Poissons Ratio (y) = 0.21350 0.04052
# Poissons Ratio (z) = 0.25125 0.03980
#
# Static dielectric constant tensor:
#      x y z
#    x 1.598290 0.000000 0.000000 
#    y 0.000000 1.618800 0.000000 
#    z 0.000000 0.000000 1.571200 
# 
# From -- ./inp_files/25282.got.cif
#   From: 2010.05.17/outbox.cif.g08.bks.cpg/sg67_13_cif.got.tgz:25282.got - 2010.06.03 18:28:57.
