data_PCOD9501251
_publ_section_title
;
Structure prediction by ZEFSAII (Michael W. Deem and Ramdas Pophale) SiO2 
 PCOD9501251
Probable space group: C M M A
;
_chemical_formula_sum "Si O2"
_cell_formula_units_Z 80
_cell_length_a 21.296084
_cell_length_b 17.284751
_cell_length_c 12.139102
_cell_angle_alpha 90.000000
_cell_angle_beta 90.000000
_cell_angle_gamma 90.000000
_cell_volume 4468.373210
_symmetry_space_group_name_H-M "C M M A"
_symmetry_group_IT_number 67
_symmetry_cell_setting 'orthorhombic'
loop_
_space_group_symop_operation_xyz
x,y,z
-x,1/2-y,z
x,-y,-z
-x,1/2+y,-z
-x,-y,-z
x,1/2+y,-z
-x,y,z
x,1/2-y,z
1/2+x,1/2+y,z
1/2-x,-y,z
1/2+x,1/2-y,-z
1/2-x,y,-z
1/2-x,1/2-y,-z
1/2+x,y,-z
1/2-x,1/2+y,z
1/2+x,-y,z
loop_
_atom_site_type_symbol
_atom_site_label
_atom_site_fract_x
_atom_site_fract_y
_atom_site_fract_z
Si Si1 0.842244 0.579078 0.443230
Si Si2 0.235668 0.839841 0.251403
Si Si3 0.928575 0.998995 0.724535
Si Si4 0.813177 0.036593 0.879250
Si Si5 0.374181 0.338571 0.663841
O O1 0.818849 0.500000 0.500000
O O2 0.795610 0.613376 0.352447
O O3 0.904730 0.550104 0.379092
O O4 0.854762 0.641291 0.538263
O O5 0.220427 0.750000 0.263761
O O6 0.204739 0.873987 0.139978
O O7 0.310830 0.847024 0.262815
O O8 0.920272 0.908080 0.696859
O O9 0.000000 0.016295 0.753488
O O10 0.877348 0.017929 0.817718
O O11 0.750000 0.000000 0.825172
O O12 0.816551 0.000000 0.000000
O O13 0.396407 0.250000 0.673050
#
# Coordination Sequence:
#
# PCOD9501251 Si02
#       5
#    16  16  16  16  16
#     4   9  19  30  51  77 110 148 187 219 261 317
#     4  10  19  33  54  84 115 142 178 232 286 327
#     4  10  21  36  53  77 110 145 182 223 269 325
#     4  10  20  38  61  82 103 135 184 235 282 336
#     4  10  19  31  49  78 112 146 181 218 267 320
#
# _framework density 17.903607999999998
#
# number of rings (size 3 to 8) (size 9 to 14) (size 15 to 20)
#    0.000    2.200    2.000    1.200    0.000    8.400 
#    0.000    3.000    0.000   14.400    0.000    0.000 
#    0.000    0.000    0.000    0.000    0.000    0.000 
#
# Total GULP energy -222857.395637 kJ/mol
# GULP energy per Si atom -5571.434891 kJ/mol
# Density = 1.786286 g / cm^3
# Si number density = 17.903608 Si / 1000 Ang^3
#
#
#
# Elastic Constant Matrix: (Units=GPa)
#
#
# Indices 1 2 3 4 5 6 
#
# 1 116.7463 21.6634 28.5081 0.0000 0.0000 0.0000
# 2 21.6634 86.4880 18.0035 0.0000 0.0000 0.0000
# 3 28.5081 18.0035 77.5844 0.0000 0.0000 0.0000
# 4 0.0000 0.0000 0.0000 21.2565 0.0000 0.0000
# 5 0.0000 0.0000 0.0000 0.0000 5.6054 0.0000
# 6 0.0000 0.0000 0.0000 0.0000 0.0000 11.6047
#
#
#
# Elastic Compliance Matrix: (Units=1/GPa)
#
#
# Indices 1 2 3 4 5 6 
#
# 1 0.009660 -0.001766 -0.003140 0.000000 0.000000 0.000000
# 2 -0.001766 0.012472 -0.002245 0.000000 0.000000 0.000000
# 3 -0.003140 -0.002245 0.014564 0.000000 0.000000 0.000000
# 4 0.000000 0.000000 0.000000 0.047044 0.000000 0.000000
# 5 0.000000 0.000000 0.000000 0.000000 0.178399 0.000000
# 6 0.000000 0.000000 0.000000 0.000000 0.000000 0.086172
#
#
# Mechanical properties :
#
#
# Convention : Reuss Voigt Hill
#
# Bulk Modulus (GPa) = 44.65497 46.35207 45.50352
# Shear Modulus (GPa) = 13.51066 21.86957 17.69012
#
# Velocity S-wave (km/s) = 2.75004 3.49881 3.14678
# Velocity P-wave (km/s) = 5.92281 6.50140 6.21884
#
# Compressibility (1/GPa) = 0.02239392
#
# Stress axis : x y z
#
# Youngs Moduli (GPa) = 103.51996 80.17949 68.66315
#
# Poissons Ratio (x) = 0.14160 0.21558
# Poissons Ratio (y) = 0.18282 0.15416
# Poissons Ratio (z) = 0.32502 0.18002
#
# Static dielectric constant tensor:
#      x y z
#    x 1.602470 0.000000 0.000000 
#    y 0.000000 1.663490 0.000000 
#    z 0.000000 0.000000 1.650500 
# 
# From -- ./inp_files/21637.got.cif
#   From: 2010.05.17/outbox.cif.g08.bks.cpg/sg67_11_cif.got.tgz:21637.got - 2010.06.03 18:28:57.
