data_PCOD9501784
_publ_section_title
;
Structure prediction by ZEFSAII (Michael W. Deem and Ramdas Pophale) SiO2 
 PCOD9501784
Probable space group: C M M A
;
_chemical_formula_sum "Si O2"
_cell_formula_units_Z 80
_cell_length_a 16.754715
_cell_length_b 14.780214
_cell_length_c 14.005179
_cell_angle_alpha 90.000000
_cell_angle_beta 90.000000
_cell_angle_gamma 90.000000
_cell_volume 3468.218344
_symmetry_space_group_name_H-M "C M M A"
_symmetry_group_IT_number 67
_symmetry_cell_setting 'orthorhombic'
loop_
_space_group_symop_operation_xyz
x,y,z
-x,1/2-y,z
x,-y,-z
-x,1/2+y,-z
-x,-y,-z
x,1/2+y,-z
-x,y,z
x,1/2-y,z
1/2+x,1/2+y,z
1/2-x,-y,z
1/2+x,1/2-y,-z
1/2-x,y,-z
1/2-x,1/2-y,-z
1/2+x,y,-z
1/2-x,1/2+y,z
1/2+x,-y,z
loop_
_atom_site_type_symbol
_atom_site_label
_atom_site_fract_x
_atom_site_fract_y
_atom_site_fract_z
Si Si1 0.500000 0.860258 0.042568
Si Si2 0.338485 0.146617 0.642110
Si Si3 0.587590 0.601156 0.540175
Si Si4 0.173753 0.639729 0.273511
Si Si5 0.167676 0.139466 0.946783
Si Si6 0.000000 0.139392 0.263155
O O1 0.500000 0.750000 0.039040
O O2 0.500000 0.887088 0.153087
O O3 0.416148 0.888918 0.994877
O O4 0.336959 0.250000 0.675937
O O5 0.347273 0.146703 0.528156
O O6 0.257843 0.106742 0.682959
O O7 0.419851 0.106840 0.685193
O O8 0.587044 0.500000 0.500000
O O9 0.500000 0.641547 0.523153
O O10 0.608593 0.607531 0.650631
O O11 0.170406 0.750000 0.274982
O O12 0.166838 0.611031 0.163954
O O13 0.168581 0.250000 0.948698
O O14 0.250000 0.111268 0.000000
O O15 0.000000 0.250000 0.268299
#
# Coordination Sequence:
#
# PCOD9501784 Si02
#       6
#     8  16  16  16  16   8
#     4   9  16  26  45  73 106 144 177 213 274 331
#     4  10  19  34  55  81 108 141 182 227 278 336
#     4  11  24  39  54  77 110 147 192 235 282 337
#     4  10  21  34  55  84 115 148 185 229 284 340
#     4   9  17  30  48  78 117 147 178 226 278 335
#     4   9  16  28  50  77 107 142 181 219 266 327
#
# _framework density 23.066597999999999
#
# number of rings (size 3 to 8) (size 9 to 14) (size 15 to 20)
#    0.000    2.200    1.000    2.400    1.400    9.200 
#    0.000    0.000    0.000    0.000    0.000   11.200 
#    0.000    0.000    0.000    0.000    0.000    0.200 
#
# Total GULP energy -223499.375329 kJ/mol
# GULP energy per Si atom -5587.484383 kJ/mol
# Density = 2.301410 g / cm^3
# Si number density = 23.066598 Si / 1000 Ang^3
#
#
#
# Elastic Constant Matrix: (Units=GPa)
#
#
# Indices 1 2 3 4 5 6 
#
# 1 130.4826 9.2495 65.0790 0.0000 0.0000 0.0000
# 2 9.2495 58.2751 13.4509 0.0000 0.0000 0.0000
# 3 65.0790 13.4509 182.4761 0.0000 0.0000 0.0000
# 4 0.0000 0.0000 0.0000 -1.0177 0.0000 0.0000
# 5 0.0000 0.0000 0.0000 0.0000 35.6494 0.0000
# 6 0.0000 0.0000 0.0000 0.0000 0.0000 -12.1377
#
#
#
# Elastic Compliance Matrix: (Units=1/GPa)
#
#
# Indices 1 2 3 4 5 6 
#
# 1 0.009352 -0.000727 -0.003282 0.000000 0.000000 0.000000
# 2 -0.000727 0.017514 -0.001032 0.000000 0.000000 0.000000
# 3 -0.003282 -0.001032 0.006727 0.000000 0.000000 0.000000
# 4 0.000000 0.000000 0.000000 -0.982560 0.000000 0.000000
# 5 0.000000 0.000000 0.000000 0.000000 0.028051 0.000000
# 6 0.000000 0.000000 0.000000 0.000000 0.000000 -0.082388
#
#
# Mechanical properties :
#
#
# Convention : Reuss Voigt Hill
#
# Bulk Modulus (GPa) = 42.53240 60.75471 51.64356
# Shear Modulus (GPa) = -5.07415 23.39577 9.16081
#
# Velocity S-wave (km/s) = -1.48478 3.18822 1.99501
# Velocity P-wave (km/s) = 3.94203 6.32052 5.26728
#
# Compressibility (1/GPa) = 0.02351149
#
# Stress axis : x y z
#
# Youngs Moduli (GPa) = 106.92650 57.09879 148.66201
#
# Poissons Ratio (x) = 0.04150 0.48788
# Poissons Ratio (y) = 0.07772 0.15338
# Poissons Ratio (z) = 0.35091 0.05891
#
# Static dielectric constant tensor:
#      x y z
#    x 1.869790 0.000000 0.000000 
#    y 0.000000 1.903850 0.000000 
#    z 0.000000 0.000000 1.816590 
# 
# From -- ./inp_files/19355.got.cif
#   From: 2010.05.17/outbox.cif.g08.bks.cpg/sg67_10_cif.got.tgz:19355.got - 2010.06.03 18:28:57.
