data_PCOD9501748
_publ_section_title
;
Structure prediction by ZEFSAII (Michael W. Deem and Ramdas Pophale) SiO2 
 PCOD9501748
Probable space group: C M M A
;
_chemical_formula_sum "Si O2"
_cell_formula_units_Z 88
_cell_length_a 30.641477
_cell_length_b 34.749131
_cell_length_c 5.230907
_cell_angle_alpha 90.000000
_cell_angle_beta 90.000000
_cell_angle_gamma 90.000000
_cell_volume 5569.685114
_symmetry_space_group_name_H-M "C M M A"
_symmetry_group_IT_number 67
_symmetry_cell_setting 'orthorhombic'
loop_
_space_group_symop_operation_xyz
x,y,z
-x,1/2-y,z
x,-y,-z
-x,1/2+y,-z
-x,-y,-z
x,1/2+y,-z
-x,y,z
x,1/2-y,z
1/2+x,1/2+y,z
1/2-x,-y,z
1/2+x,1/2-y,-z
1/2-x,y,-z
1/2-x,1/2-y,-z
1/2+x,y,-z
1/2-x,1/2+y,z
1/2+x,-y,z
loop_
_atom_site_type_symbol
_atom_site_label
_atom_site_fract_x
_atom_site_fract_y
_atom_site_fract_z
Si Si1 0.947140 0.293881 0.034669
Si Si2 0.230407 0.956405 0.752899
Si Si3 0.500000 0.473462 0.249784
Si Si4 0.628765 0.458136 0.879804
Si Si5 0.052864 0.158196 0.530695
Si Si6 0.586533 0.573462 0.637418
O O1 0.931147 0.250000 0.053947
O O2 0.933694 0.320840 0.269525
O O3 0.000000 0.292106 0.047354
O O4 0.936572 0.313853 0.766913
O O5 0.250000 0.938009 0.500000
O O6 0.178737 0.958526 0.783425
O O7 0.250000 0.000000 0.751778
O O8 0.250000 0.936430 0.000000
O O9 0.500000 0.500000 0.500000
O O10 0.542684 0.446957 0.261226
O O11 0.500000 0.500000 0.000000
O O12 0.601575 0.447380 0.625796
O O13 0.618498 0.500000 0.000000
O O14 0.619984 0.430681 0.124270
O O15 0.075514 0.117287 0.569936
O O16 0.000000 0.152425 0.526307
#
# Coordination Sequence:
#
# PCOD9501748 Si02
#       6
#    16  16   8  16  16  16
#     4   9  17  29  51  75  92 118 165 216 252 291
#     4  10  19  34  54  73  93 113 150 210 269 322
#     4  12  24  40  48  62  89 134 187 228 248 274
#     4  12  23  36  53  75  96 123 175 230 253 300
#     4  10  19  34  49  66 100 134 167 207 254 309
#     4  12  24  36  51  70  98 138 176 212 271 287
#
# _framework density 15.799816
#
# number of rings (size 3 to 8) (size 9 to 14) (size 15 to 20)
#    0.000    1.273    2.727    6.000    2.545    2.182 
#    0.000    0.000    0.000    0.000    0.000    0.000 
#    0.000    0.000    0.000    0.000    0.000  229.091 
#
# Total GULP energy -245487.345568 kJ/mol
# GULP energy per Si atom -5579.257854 kJ/mol
# Density = 1.576385 g / cm^3
# Si number density = 15.799816 Si / 1000 Ang^3
#
#
#
# Elastic Constant Matrix: (Units=GPa)
#
#
# Indices 1 2 3 4 5 6 
#
# 1 63.6068 28.2758 28.3454 0.0000 0.0000 0.0000
# 2 28.2758 60.6036 13.6617 0.0000 0.0000 0.0000
# 3 28.3454 13.6617 121.5338 0.0000 0.0000 0.0000
# 4 0.0000 0.0000 0.0000 19.0681 0.0000 0.0000
# 5 0.0000 0.0000 0.0000 0.0000 25.1850 0.0000
# 6 0.0000 0.0000 0.0000 0.0000 0.0000 6.3718
#
#
#
# Elastic Compliance Matrix: (Units=1/GPa)
#
#
# Indices 1 2 3 4 5 6 
#
# 1 0.021580 -0.009166 -0.004003 0.000000 0.000000 0.000000
# 2 -0.009166 0.020823 -0.000203 0.000000 0.000000 0.000000
# 3 -0.004003 -0.000203 0.009185 0.000000 0.000000 0.000000
# 4 0.000000 0.000000 0.000000 0.052444 0.000000 0.000000
# 5 0.000000 0.000000 0.000000 0.000000 0.039706 0.000000
# 6 0.000000 0.000000 0.000000 0.000000 0.000000 0.156942
#
#
# Mechanical properties :
#
#
# Convention : Reuss Voigt Hill
#
# Bulk Modulus (GPa) = 40.25128 42.92331 41.58730
# Shear Modulus (GPa) = 14.89404 21.82240 18.35822
#
# Velocity S-wave (km/s) = 3.07363 3.72046 3.41240
# Velocity P-wave (km/s) = 6.17473 6.75882 6.47337
#
# Compressibility (1/GPa) = 0.02484393
#
# Stress axis : x y z
#
# Youngs Moduli (GPa) = 46.33886 48.02349 108.87867
#
# Poissons Ratio (x) = 0.44020 0.43582
# Poissons Ratio (y) = 0.42476 0.02209
# Poissons Ratio (z) = 0.18548 0.00974
#
# Static dielectric constant tensor:
#      x y z
#    x 1.538490 0.000000 0.000000 
#    y 0.000000 1.502950 0.000000 
#    z 0.000000 0.000000 1.547810 
# 
# From -- ./inp_files/4287.got.cif
#   From: 2010.05.17/outbox.cif.g08.bks.cpg/sg67_3_cif.got.tgz:4287.got - 2010.06.03 18:28:57.
