data_PCOD9501738
_publ_section_title
;
Structure prediction by ZEFSAII (Michael W. Deem and Ramdas Pophale) SiO2 
 PCOD9501738
Probable space group: C M M A
;
_chemical_formula_sum "Si O2"
_cell_formula_units_Z 112
_cell_length_a 19.750011
_cell_length_b 18.834466
_cell_length_c 17.552471
_cell_angle_alpha 90.000000
_cell_angle_beta 90.000000
_cell_angle_gamma 90.000000
_cell_volume 6529.184147
_symmetry_space_group_name_H-M "C M M A"
_symmetry_group_IT_number 67
_symmetry_cell_setting 'orthorhombic'
loop_
_space_group_symop_operation_xyz
x,y,z
-x,1/2-y,z
x,-y,-z
-x,1/2+y,-z
-x,-y,-z
x,1/2+y,-z
-x,y,z
x,1/2-y,z
1/2+x,1/2+y,z
1/2-x,-y,z
1/2+x,1/2-y,-z
1/2-x,y,-z
1/2-x,1/2-y,-z
1/2+x,y,-z
1/2-x,1/2+y,z
1/2+x,-y,z
loop_
_atom_site_type_symbol
_atom_site_label
_atom_site_fract_x
_atom_site_fract_y
_atom_site_fract_z
Si Si1 0.079810 0.166695 0.957856
Si Si2 0.176654 0.967997 0.416018
Si Si3 0.685365 0.922355 0.040383
Si Si4 0.422088 0.633193 0.786772
Si Si5 0.078186 0.019279 0.286377
Si Si6 0.805300 0.669135 0.325031
Si Si7 0.709573 0.574193 0.220256
O O1 0.089894 0.250000 0.970160
O O2 0.103391 0.147861 0.871971
O O3 0.000000 0.151213 0.960332
O O4 0.119201 0.120998 0.019183
O O5 0.114292 0.993401 0.363958
O O6 0.165428 0.000000 0.500000
O O7 0.250000 0.000000 0.393545
O O8 0.185487 0.884185 0.396998
O O9 0.701833 0.922145 0.129357
O O10 0.750000 0.887246 0.000000
O O11 0.678654 0.000000 0.000000
O O12 0.500000 0.657759 0.781858
O O13 0.421031 0.549196 0.769384
O O14 0.374987 0.667579 0.723139
O O15 0.133224 0.072755 0.252454
O O16 0.000000 0.041554 0.295477
O O17 0.787931 0.750000 0.344974
O O18 0.751863 0.633394 0.266032
O O19 0.750000 0.500000 0.233307
#
# Coordination Sequence:
#
# PCOD9501738 Si02
#       7
#    16  16  16  16  16  16  16
#     4  10  21  36  51  72 108 150 188 230 284 341
#     4  10  19  37  62  83 115 147 172 215 270 325
#     4  11  22  33  52  76 106 145 190 241 290 323
#     4   9  17  31  53  81 112 145 184 232 283 332
#     4  10  19  33  58  85 107 141 186 225 267 323
#     4  11  21  34  57  88 114 144 183 227 276 331
#     4  12  19  37  57  76 112 146 190 238 277 328
#
# _framework density 17.153752000000001
#
# number of rings (size 3 to 8) (size 9 to 14) (size 15 to 20)
#    0.000    1.571    5.714    2.143    0.000    2.857 
#    0.000    1.429    0.000    0.429    0.000    0.000 
#    0.000    0.000    0.000    0.000    0.000    0.000 
#
# Total GULP energy -312022.877152 kJ/mol
# GULP energy per Si atom -5571.837092 kJ/mol
# Density = 1.711471 g / cm^3
# Si number density = 17.153752 Si / 1000 Ang^3
#
#
#
# Elastic Constant Matrix: (Units=GPa)
#
#
# Indices 1 2 3 4 5 6 
#
# 1 98.6431 28.9896 29.3417 0.0000 0.0000 0.0000
# 2 28.9896 67.4370 48.0404 0.0000 0.0000 0.0000
# 3 29.3417 48.0404 112.0163 0.0000 0.0000 0.0000
# 4 0.0000 0.0000 0.0000 11.5915 0.0000 0.0000
# 5 0.0000 0.0000 0.0000 0.0000 23.7188 0.0000
# 6 0.0000 0.0000 0.0000 0.0000 0.0000 11.5990
#
#
#
# Elastic Compliance Matrix: (Units=1/GPa)
#
#
# Indices 1 2 3 4 5 6 
#
# 1 0.011736 -0.004111 -0.001311 0.000000 0.000000 0.000000
# 2 -0.004111 0.022792 -0.008698 0.000000 0.000000 0.000000
# 3 -0.001311 -0.008698 0.013001 0.000000 0.000000 0.000000
# 4 0.000000 0.000000 0.000000 0.086270 0.000000 0.000000
# 5 0.000000 0.000000 0.000000 0.000000 0.042161 0.000000
# 6 0.000000 0.000000 0.000000 0.000000 0.000000 0.086214
#
#
# Mechanical properties :
#
#
# Convention : Reuss Voigt Hill
#
# Bulk Modulus (GPa) = 51.84351 54.53775 53.19063
# Shear Modulus (GPa) = 16.84387 20.83017 18.83702
#
# Velocity S-wave (km/s) = 3.13698 3.48849 3.31740
# Velocity P-wave (km/s) = 6.58858 6.93459 6.76380
#
# Compressibility (1/GPa) = 0.01928882
#
# Stress axis : x y z
#
# Youngs Moduli (GPa) = 85.21043 43.87491 76.91731
#
# Poissons Ratio (x) = 0.18037 0.10084
# Poissons Ratio (y) = 0.35030 0.66903
# Poissons Ratio (z) = 0.11171 0.38162
#
# Static dielectric constant tensor:
#      x y z
#    x 1.601500 0.000000 0.000000 
#    y 0.000000 1.592720 0.000000 
#    z 0.000000 0.000000 1.607640 
# 
# From -- ./inp_files/35125.got.cif
#   From: 2010.05.17/outbox.cif.g08.bks.cpg/sg67_18_cif.got.tgz:35125.got - 2010.06.03 18:28:57.
