data_PCOD9501729
_publ_section_title
;
Structure prediction by ZEFSAII (Michael W. Deem and Ramdas Pophale) SiO2 
 PCOD9501729
Probable space group: C M M A
;
_chemical_formula_sum "Si O2"
_cell_formula_units_Z 96
_cell_length_a 20.749893
_cell_length_b 24.021296
_cell_length_c 8.419773
_cell_angle_alpha 90.000000
_cell_angle_beta 90.000000
_cell_angle_gamma 90.000000
_cell_volume 4196.745943
_symmetry_space_group_name_H-M "C M M A"
_symmetry_group_IT_number 67
_symmetry_cell_setting 'orthorhombic'
loop_
_space_group_symop_operation_xyz
x,y,z
-x,1/2-y,z
x,-y,-z
-x,1/2+y,-z
-x,-y,-z
x,1/2+y,-z
-x,y,z
x,1/2-y,z
1/2+x,1/2+y,z
1/2-x,-y,z
1/2+x,1/2-y,-z
1/2-x,y,-z
1/2-x,1/2-y,-z
1/2+x,y,-z
1/2-x,1/2+y,z
1/2+x,-y,z
loop_
_atom_site_type_symbol
_atom_site_label
_atom_site_fract_x
_atom_site_fract_y
_atom_site_fract_z
Si Si1 0.160182 0.904641 0.459350
Si Si2 0.720030 0.312268 0.695637
Si Si3 0.667009 0.960361 0.856248
Si Si4 0.375402 0.810774 0.740223
Si Si5 0.573422 0.546960 0.276245
Si Si6 0.124085 0.857899 0.946792
O O1 0.197579 0.861125 0.575454
O O2 0.194706 0.941438 0.318592
O O3 0.110090 0.863897 0.368033
O O4 0.121121 0.943147 0.577837
O O5 0.706053 0.250000 0.632685
O O6 0.795865 0.312837 0.740543
O O7 0.674767 0.322990 0.845681
O O8 0.661826 0.902924 0.947656
O O9 0.600962 0.992236 0.810835
O O10 0.690808 0.000000 0.000000
O O11 0.393556 0.750000 0.678297
O O12 0.404501 0.819498 0.915205
O O13 0.500000 0.540098 0.321748
O O14 0.581302 0.602370 0.165480
#
# Coordination Sequence:
#
# PCOD9501729 Si02
#       6
#    16  16  16  16  16  16
#     4  10  20  33  54  84 116 142 184 243 289 329
#     4  10  19  33  57  86 115 152 192 226 271 337
#     4   9  19  35  54  77 109 142 181 234 285 332
#     4  10  19  34  58  84 111 149 192 230 274 334
#     4  10  21  38  60  81 105 145 195 240 286 344
#     4   9  19  33  55  85 116 141 181 237 283 328
#
# _framework density 22.874866000000001
#
# number of rings (size 3 to 8) (size 9 to 14) (size 15 to 20)
#    0.000    2.333    0.000    2.500    0.000    7.000 
#    0.000    4.167    0.000  153.000    0.000    0.000 
#    0.000    0.000    0.000    0.000    0.000    0.000 
#
# Total GULP energy -267214.668484 kJ/mol
# GULP energy per Si atom -5566.972260 kJ/mol
# Density = 2.282280 g / cm^3
# Si number density = 22.874866 Si / 1000 Ang^3
#
#
#
# Elastic Constant Matrix: (Units=GPa)
#
#
# Indices 1 2 3 4 5 6 
#
# 1 47.6053 25.0739 16.4525 0.0000 0.0000 0.0000
# 2 25.0739 133.5769 38.6335 0.0000 0.0000 0.0000
# 3 16.4525 38.6335 135.1791 0.0000 0.0000 0.0000
# 4 0.0000 0.0000 0.0000 12.5817 0.0000 0.0000
# 5 0.0000 0.0000 0.0000 0.0000 187.9147 0.0000
# 6 0.0000 0.0000 0.0000 0.0000 0.0000 11.6103
#
#
#
# Elastic Compliance Matrix: (Units=1/GPa)
#
#
# Indices 1 2 3 4 5 6 
#
# 1 0.023688 -0.003938 -0.001758 0.000000 0.000000 0.000000
# 2 -0.003938 0.008816 -0.002040 0.000000 0.000000 0.000000
# 3 -0.001758 -0.002040 0.008195 0.000000 0.000000 0.000000
# 4 0.000000 0.000000 0.000000 0.079481 0.000000 0.000000
# 5 0.000000 0.000000 0.000000 0.000000 0.005322 0.000000
# 6 0.000000 0.000000 0.000000 0.000000 0.000000 0.086130
#
#
# Mechanical properties :
#
#
# Convention : Reuss Voigt Hill
#
# Bulk Modulus (GPa) = 39.64118 52.96457 46.30288
# Shear Modulus (GPa) = 21.23047 58.16811 39.69929
#
# Velocity S-wave (km/s) = 3.04980 5.04817 4.17045
# Velocity P-wave (km/s) = 5.45609 7.56195 6.59363
#
# Compressibility (1/GPa) = 0.02522629
#
# Stress axis : x y z
#
# Youngs Moduli (GPa) = 42.21597 113.43508 122.03218
#
# Poissons Ratio (x) = 0.44672 0.21447
# Poissons Ratio (y) = 0.16625 0.24896
# Poissons Ratio (z) = 0.07419 0.23142
#
# Static dielectric constant tensor:
#      x y z
#    x 1.815050 0.000000 0.000000 
#    y 0.000000 1.784360 0.000000 
#    z 0.000000 0.000000 2.072010 
# 
# From -- ./inp_files/13896.got.cif
#   From: 2010.05.17/outbox.cif.g08.bks.cpg/sg67_7_cif.got.tgz:13896.got - 2010.06.03 18:28:57.
