data_PCOD9501382
_publ_section_title
;
Structure prediction by ZEFSAII (Michael W. Deem and Ramdas Pophale) SiO2 
 PCOD9501382
Probable space group: C M M A
;
_chemical_formula_sum "Si O2"
_cell_formula_units_Z 80
_cell_length_a 19.242392
_cell_length_b 15.329068
_cell_length_c 14.514689
_cell_angle_alpha 90.000000
_cell_angle_beta 90.000000
_cell_angle_gamma 90.000000
_cell_volume 4281.367848
_symmetry_space_group_name_H-M "C M M A"
_symmetry_group_IT_number 67
_symmetry_cell_setting 'orthorhombic'
loop_
_space_group_symop_operation_xyz
x,y,z
-x,1/2-y,z
x,-y,-z
-x,1/2+y,-z
-x,-y,-z
x,1/2+y,-z
-x,y,z
x,1/2-y,z
1/2+x,1/2+y,z
1/2-x,-y,z
1/2+x,1/2-y,-z
1/2-x,y,-z
1/2-x,1/2-y,-z
1/2+x,y,-z
1/2-x,1/2+y,z
1/2+x,-y,z
loop_
_atom_site_type_symbol
_atom_site_label
_atom_site_fract_x
_atom_site_fract_y
_atom_site_fract_z
Si Si1 0.417263 0.511417 0.102566
Si Si2 0.159565 0.584821 0.564629
Si Si3 0.303540 0.346768 0.383218
Si Si4 0.420677 0.147118 0.237856
Si Si5 0.416204 0.648199 0.256401
O O1 0.500000 0.529545 0.092448
O O2 0.410924 0.419000 0.154169
O O3 0.390878 0.588200 0.170576
O O4 0.387527 0.500000 0.000000
O O5 0.147961 0.500000 0.500000
O O6 0.236454 0.592391 0.609064
O O7 0.162543 0.656672 0.484336
O O8 0.107991 0.604669 0.647571
O O9 0.279816 0.250000 0.356293
O O10 0.362832 0.375407 0.313103
O O11 0.500000 0.134599 0.272541
O O12 0.413857 0.250000 0.214345
O O13 0.500000 0.647414 0.254670
O O14 0.393772 0.750000 0.251311
#
# Coordination Sequence:
#
# PCOD9501382 Si02
#       5
#    16  16  16  16  16
#     4   9  18  33  53  77 104 134 172 219 269 322
#     4  11  21  33  51  74 103 140 179 215 255 310
#     4  10  19  32  50  73 103 138 175 212 257 314
#     4   9  18  32  52  79 107 135 172 220 271 320
#     4  10  21  36  54  78 107 139 177 221 269 319
#
# _framework density 18.685617000000001
#
# number of rings (size 3 to 8) (size 9 to 14) (size 15 to 20)
#    0.000    2.200    0.000    4.800    0.000    2.000 
#    0.000    6.000    0.000    4.200    0.000    4.200 
#    0.000    0.000    0.000    0.000    0.000    0.000 
#
# Total GULP energy -222733.631876 kJ/mol
# GULP energy per Si atom -5568.340797 kJ/mol
# Density = 1.864309 g / cm^3
# Si number density = 18.685617 Si / 1000 Ang^3
#
#
#
# Elastic Constant Matrix: (Units=GPa)
#
#
# Indices 1 2 3 4 5 6 
#
# 1 37.4697 30.8210 43.4359 0.0000 0.0000 0.0000
# 2 30.8210 112.3641 50.9469 0.0000 0.0000 0.0000
# 3 43.4359 50.9469 115.6443 0.0000 0.0000 0.0000
# 4 0.0000 0.0000 0.0000 13.0945 0.0000 0.0000
# 5 0.0000 0.0000 0.0000 0.0000 -5.0277 0.0000
# 6 0.0000 0.0000 0.0000 0.0000 0.0000 16.6117
#
#
#
# Elastic Compliance Matrix: (Units=1/GPa)
#
#
# Indices 1 2 3 4 5 6 
#
# 1 0.050925 -0.006618 -0.016212 0.000000 0.000000 0.000000
# 2 -0.006618 0.011981 -0.002793 0.000000 0.000000 0.000000
# 3 -0.016212 -0.002793 0.015967 0.000000 0.000000 0.000000
# 4 0.000000 0.000000 0.000000 0.076368 0.000000 0.000000
# 5 0.000000 0.000000 0.000000 0.000000 -0.198897 0.000000
# 6 0.000000 0.000000 0.000000 0.000000 0.000000 0.060199
#
#
# Mechanical properties :
#
#
# Convention : Reuss Voigt Hill
#
# Bulk Modulus (GPa) = 36.19504 57.32063 46.75784
# Shear Modulus (GPa) = 64.93810 14.28732 39.61271
#
# Velocity S-wave (km/s) = 5.90156 2.76817 4.60929
# Velocity P-wave (km/s) = 8.11483 6.40000 7.30789
#
# Compressibility (1/GPa) = 0.02762809
#
# Stress axis : x y z
#
# Youngs Moduli (GPa) = 19.63662 83.46504 62.63048
#
# Poissons Ratio (x) = 0.55236 1.01536
# Poissons Ratio (y) = 0.12995 0.17490
# Poissons Ratio (z) = 0.31835 0.23308
#
# Static dielectric constant tensor:
#      x y z
#    x 1.656420 0.000000 0.000000 
#    y 0.000000 1.734690 0.000000 
#    z 0.000000 0.000000 1.632320 
# 
# From -- ./inp_files/29091.got.cif
#   From: 2010.05.17/outbox.cif.g08.bks.cpg/sg67_15_cif.got.tgz:29091.got - 2010.06.03 18:28:57.
