data_PCOD9501384
_publ_section_title
;
Structure prediction by ZEFSAII (Michael W. Deem and Ramdas Pophale) SiO2 
 PCOD9501384
Probable space group: C M M A
;
_chemical_formula_sum "Si O2"
_cell_formula_units_Z 88
_cell_length_a 27.045146
_cell_length_b 8.948773
_cell_length_c 18.838345
_cell_angle_alpha 90.000000
_cell_angle_beta 90.000000
_cell_angle_gamma 90.000000
_cell_volume 4559.272690
_symmetry_space_group_name_H-M "C M M A"
_symmetry_group_IT_number 67
_symmetry_cell_setting 'orthorhombic'
loop_
_space_group_symop_operation_xyz
x,y,z
-x,1/2-y,z
x,-y,-z
-x,1/2+y,-z
-x,-y,-z
x,1/2+y,-z
-x,y,z
x,1/2-y,z
1/2+x,1/2+y,z
1/2-x,-y,z
1/2+x,1/2-y,-z
1/2-x,y,-z
1/2-x,1/2-y,-z
1/2+x,y,-z
1/2-x,1/2+y,z
1/2+x,-y,z
loop_
_atom_site_type_symbol
_atom_site_label
_atom_site_fract_x
_atom_site_fract_y
_atom_site_fract_z
Si Si1 0.500000 0.929270 0.922095
Si Si2 0.889347 0.571474 0.077889
Si Si3 0.698164 0.070688 0.644445
Si Si4 0.397163 0.575538 0.572217
Si Si5 0.556445 0.923946 0.721530
Si Si6 0.649283 0.574183 0.210231
O O1 0.500000 0.750000 0.925273
O O2 0.445268 0.969897 0.894592
O O3 0.500000 0.000000 0.000000
O O4 0.886871 0.750000 0.072087
O O5 0.850768 0.512310 0.135907
O O6 0.883052 0.500000 0.000000
O O7 0.698672 0.250000 0.638454
O O8 0.687449 0.031444 0.727446
O O9 0.750000 0.000000 0.622369
O O10 0.652924 0.004228 0.599280
O O11 0.414485 0.500000 0.500000
O O12 0.386789 0.750000 0.560216
O O13 0.435873 0.565075 0.636814
O O14 0.500000 0.954113 0.741457
O O15 0.567703 0.750000 0.741529
O O16 0.596562 0.032765 0.754718
O O17 0.653160 0.750000 0.197213
#
# Coordination Sequence:
#
# PCOD9501384 Si02
#       6
#     8  16  16  16  16  16
#     4   8  16  28  42  64  94 130 169 206 245 290
#     4  10  19  32  50  73 104 141 179 219 262 309
#     4  10  21  38  59  81 106 134 171 216 265 320
#     4  10  20  35  55  80 110 141 175 216 261 309
#     4   9  19  35  53  74 104 144 185 219 255 303
#     4  10  21  35  52  78 107 137 174 218 265 315
#
# _framework density 19.301324000000001
#
# number of rings (size 3 to 8) (size 9 to 14) (size 15 to 20)
#    0.000    2.364    0.000    2.182    1.273    4.727 
#    0.000    1.818    0.000    0.545    0.000    3.818 
#    0.000    0.000    0.000    0.000    0.000    0.000 
#
# Total GULP energy -245460.592288 kJ/mol
# GULP energy per Si atom -5578.649825 kJ/mol
# Density = 1.925739 g / cm^3
# Si number density = 19.301324 Si / 1000 Ang^3
#
#
#
# Elastic Constant Matrix: (Units=GPa)
#
#
# Indices 1 2 3 4 5 6 
#
# 1 22.6341 -3.5638 -24.3445 0.0000 0.0000 0.0000
# 2 -3.5638 41.3364 19.2261 0.0000 0.0000 0.0000
# 3 -24.3445 19.2261 66.1109 0.0000 0.0000 0.0000
# 4 0.0000 0.0000 0.0000 36.7576 0.0000 0.0000
# 5 0.0000 0.0000 0.0000 0.0000 15.0446 0.0000
# 6 0.0000 0.0000 0.0000 0.0000 0.0000 18.4181
#
#
#
# Elastic Compliance Matrix: (Units=1/GPa)
#
#
# Indices 1 2 3 4 5 6 
#
# 1 0.075054 -0.007382 0.029785 0.000000 0.000000 0.000000
# 2 -0.007382 0.028702 -0.011066 0.000000 0.000000 0.000000
# 3 0.029785 -0.011066 0.029312 0.000000 0.000000 0.000000
# 4 0.000000 0.000000 0.000000 0.027205 0.000000 0.000000
# 5 0.000000 0.000000 0.000000 0.000000 0.066469 0.000000
# 6 0.000000 0.000000 0.000000 0.000000 0.000000 0.054294
#
#
# Mechanical properties :
#
#
# Convention : Reuss Voigt Hill
#
# Bulk Modulus (GPa) = 6.42089 12.52410 9.47250
# Shear Modulus (GPa) = 16.11462 23.29496 19.70479
#
# Velocity S-wave (km/s) = 2.89259 3.47783 3.19862
# Velocity P-wave (km/s) = 3.80657 4.75709 4.30813
#
# Compressibility (1/GPa) = 0.15574166
#
# Stress axis : x y z
#
# Youngs Moduli (GPa) = 13.32371 34.84075 34.11577
#
# Poissons Ratio (x) = 0.25721 -1.01613
# Poissons Ratio (y) = 0.09836 0.37751
# Poissons Ratio (z) = -0.39684 0.38553
#
# Static dielectric constant tensor:
#      x y z
#    x 1.657790 0.000000 0.000000 
#    y 0.000000 1.647650 0.000000 
#    z 0.000000 0.000000 1.710820 
# 
# From -- ./inp_files/32397.got.cif
#   From: 2010.05.17/outbox.cif.g08.bks.cpg/sg67_17_cif.got.tgz:32397.got - 2010.06.03 18:28:57.
