data_PCOD9501515
_publ_section_title
;
Structure prediction by ZEFSAII (Michael W. Deem and Ramdas Pophale) SiO2 
 PCOD9501515
Probable space group: C M M A
;
_chemical_formula_sum "Si O2"
_cell_formula_units_Z 116
_cell_length_a 8.778691
_cell_length_b 31.163490
_cell_length_c 24.343134
_cell_angle_alpha 90.000000
_cell_angle_beta 90.000000
_cell_angle_gamma 90.000000
_cell_volume 6659.664344
_symmetry_space_group_name_H-M "C M M A"
_symmetry_group_IT_number 67
_symmetry_cell_setting 'orthorhombic'
loop_
_space_group_symop_operation_xyz
x,y,z
-x,1/2-y,z
x,-y,-z
-x,1/2+y,-z
-x,-y,-z
x,1/2+y,-z
-x,y,z
x,1/2-y,z
1/2+x,1/2+y,z
1/2-x,-y,z
1/2+x,1/2-y,-z
1/2-x,y,-z
1/2-x,1/2-y,-z
1/2+x,y,-z
1/2-x,1/2+y,z
1/2+x,-y,z
loop_
_atom_site_type_symbol
_atom_site_label
_atom_site_fract_x
_atom_site_fract_y
_atom_site_fract_z
Si Si1 0.681656 0.381428 0.560063
Si Si2 0.815912 0.130238 0.831661
Si Si3 0.816982 0.453850 0.768410
Si Si4 0.166889 0.838322 0.941939
Si Si5 0.814735 0.798314 0.254774
Si Si6 0.000000 0.250000 0.073637
Si Si7 0.316592 0.200066 0.381954
Si Si8 0.183208 0.546973 0.359356
O O1 0.500000 0.383935 0.558591
O O2 0.734497 0.334489 0.580483
O O3 0.773730 0.307701 0.682022
O O4 0.747867 0.416531 0.602147
O O5 0.765620 0.084459 0.807758
O O6 0.757538 0.141093 0.891850
O O7 0.761900 0.166816 0.788822
O O8 0.000000 0.130921 0.831425
O O9 0.750000 0.500000 0.782828
O O10 0.777465 0.444287 0.704660
O O11 0.000000 0.456165 0.770726
O O12 0.000000 0.859329 0.946193
O O13 0.250000 0.841244 0.000000
O O14 0.130427 0.788413 0.928769
O O15 0.763203 0.750000 0.241004
O O16 0.000000 0.798105 0.253754
O O17 0.500000 0.194693 0.386433
O O18 0.282249 0.250000 0.394484
O O19 0.250000 0.110553 0.500000
O O20 0.250000 0.500000 0.372998
O O21 0.000000 0.546523 0.364387
#
# Coordination Sequence:
#
# PCOD9501515 Si02
#       8
#    16  16  16  16  16   4  16  16
#     4  12  25  39  56  79 107 141 183 226 273 325
#     4  10  19  32  53  81 111 144 181 224 264 316
#     4   9  19  35  58  85 113 144 180 219 268 323
#     4  10  21  36  52  75 106 148 187 229 268 315
#     4   8  15  28  49  78 107 138 173 211 261 322
#     4   8  22  36  54  72 110 146 198 224 272 308
#     4   9  18  36  59  79 105 141 182 226 273 323
#     4  10  20  38  62  87 114 143 176 218 268 328
#
# _framework density 17.418295000000001
#
# number of rings (size 3 to 8) (size 9 to 14) (size 15 to 20)
#    0.414    1.931    0.000    3.931    0.966    4.138 
#    0.000    3.448    0.000    1.241    0.000    2.897 
#    0.000    0.000    0.000    0.000    0.000    0.000 
#
# Total GULP energy -322957.226677 kJ/mol
# GULP energy per Si atom -5568.228046 kJ/mol
# Density = 1.737865 g / cm^3
# Si number density = 17.418295 Si / 1000 Ang^3
#
#
#
# Elastic Constant Matrix: (Units=GPa)
#
#
# Indices 1 2 3 4 5 6 
#
# 1 56.2434 45.9833 36.3074 0.0000 0.0000 0.0000
# 2 45.9833 116.4549 86.8469 0.0000 0.0000 0.0000
# 3 36.3074 86.8469 96.0680 0.0000 0.0000 0.0000
# 4 0.0000 0.0000 0.0000 -2.2169 0.0000 0.0000
# 5 0.0000 0.0000 0.0000 0.0000 24.8033 0.0000
# 6 0.0000 0.0000 0.0000 0.0000 0.0000 28.4396
#
#
#
# Elastic Compliance Matrix: (Units=1/GPa)
#
#
# Indices 1 2 3 4 5 6 
#
# 1 0.026346 -0.009138 -0.001696 0.000000 0.000000 0.000000
# 2 -0.009138 0.029524 -0.023237 0.000000 0.000000 0.000000
# 3 -0.001696 -0.023237 0.032057 0.000000 0.000000 0.000000
# 4 0.000000 0.000000 0.000000 -0.451072 0.000000 0.000000
# 5 0.000000 0.000000 0.000000 0.000000 0.040317 0.000000
# 6 0.000000 0.000000 0.000000 0.000000 0.000000 0.035162
#
#
# Mechanical properties :
#
#
# Convention : Reuss Voigt Hill
#
# Bulk Modulus (GPa) = 50.54344 67.44906 58.99625
# Shear Modulus (GPa) = -23.48195 16.84711 -3.31742
#
# Velocity S-wave (km/s) = -3.67566 3.11337 -1.38155
# Velocity P-wave (km/s) = 3.32663 7.19245 5.60347
#
# Compressibility (1/GPa) = 0.01978496
#
# Stress axis : x y z
#
# Youngs Moduli (GPa) = 37.95678 33.87060 31.19480
#
# Poissons Ratio (x) = 0.30951 0.05291
# Poissons Ratio (y) = 0.34685 0.72486
# Poissons Ratio (z) = 0.06438 0.78704
#
# Static dielectric constant tensor:
#      x y z
#    x 1.597040 0.000000 0.000000 
#    y 0.000000 1.578340 0.000000 
#    z 0.000000 0.000000 1.576060 
# 
# From -- ./inp_files/41069.got.cif
#   From: 2010.05.17/outbox.cif.g08.bks.cpg/sg67_21_cif.got.tgz:41069.got - 2010.06.03 18:28:57.
