data_PCOD9501697
_publ_section_title
;
Structure prediction by ZEFSAII (Michael W. Deem and Ramdas Pophale) SiO2 
 PCOD9501697
Probable space group: C M M A
;
_chemical_formula_sum "Si O2"
_cell_formula_units_Z 80
_cell_length_a 26.743271
_cell_length_b 18.542135
_cell_length_c 9.103307
_cell_angle_alpha 90.000000
_cell_angle_beta 90.000000
_cell_angle_gamma 90.000000
_cell_volume 4514.123672
_symmetry_space_group_name_H-M "C M M A"
_symmetry_group_IT_number 67
_symmetry_cell_setting 'orthorhombic'
loop_
_space_group_symop_operation_xyz
x,y,z
-x,1/2-y,z
x,-y,-z
-x,1/2+y,-z
-x,-y,-z
x,1/2+y,-z
-x,y,z
x,1/2-y,z
1/2+x,1/2+y,z
1/2-x,-y,z
1/2+x,1/2-y,-z
1/2-x,y,-z
1/2-x,1/2-y,-z
1/2+x,y,-z
1/2-x,1/2+y,z
1/2+x,-y,z
loop_
_atom_site_type_symbol
_atom_site_label
_atom_site_fract_x
_atom_site_fract_y
_atom_site_fract_z
Si Si1 0.339011 0.406706 0.327439
Si Si2 0.659184 0.425259 0.679589
Si Si3 0.556204 0.164029 0.322267
Si Si4 0.745113 0.334851 0.827054
Si Si5 0.554710 0.571253 0.396455
O O1 0.329672 0.490708 0.294442
O O2 0.337206 0.404981 0.505903
O O3 0.393373 0.377814 0.272464
O O4 0.294586 0.361202 0.257310
O O5 0.697232 0.376644 0.766529
O O6 0.600271 0.418136 0.712652
O O7 0.500000 0.145774 0.262020
O O8 0.563025 0.250000 0.308820
O O9 0.553452 0.138297 0.491930
O O10 0.738819 0.250000 0.803726
O O11 0.750000 0.348837 0.000000
O O12 0.564444 0.500000 0.500000
O O13 0.500000 0.560867 0.330488
#
# Coordination Sequence:
#
# PCOD9501697 Si02
#       5
#    16  16  16  16  16
#     4  10  19  34  55  81 108 135 172 220 269 323
#     4  10  19  33  55  84 106 135 176 218 265 327
#     4   9  16  26  46  78 110 138 170 208 256 316
#     4  11  25  40  52  70 102 144 186 229 274 319
#     4   9  15  28  49  78 113 142 164 207 268 321
#
# _framework density 17.722154
#
# number of rings (size 3 to 8) (size 9 to 14) (size 15 to 20)
#    0.000    2.200    4.000    1.800    0.000    8.000 
#    0.000    0.000    0.000    1.200    0.000    5.600 
#    0.000    0.000    0.000    0.000    0.000    0.000 
#
# Total GULP energy -222719.407071 kJ/mol
# GULP energy per Si atom -5567.985177 kJ/mol
# Density = 1.768182 g / cm^3
# Si number density = 17.722154 Si / 1000 Ang^3
#
#
#
# Elastic Constant Matrix: (Units=GPa)
#
#
# Indices 1 2 3 4 5 6 
#
# 1 191.1889 75.8683 53.7968 0.0000 0.0000 0.0000
# 2 75.8683 40.6386 62.7881 0.0000 0.0000 0.0000
# 3 53.7968 62.7881 24.5648 0.0000 0.0000 0.0000
# 4 0.0000 0.0000 0.0000 17.0479 0.0000 0.0000
# 5 0.0000 0.0000 0.0000 0.0000 -6.3038 0.0000
# 6 0.0000 0.0000 0.0000 0.0000 0.0000 23.8877
#
#
#
# Elastic Compliance Matrix: (Units=1/GPa)
#
#
# Indices 1 2 3 4 5 6 
#
# 1 0.009517 -0.004895 -0.008332 0.000000 0.000000 0.000000
# 2 -0.004895 -0.005827 0.025612 0.000000 0.000000 0.000000
# 3 -0.008332 0.025612 -0.006509 0.000000 0.000000 0.000000
# 4 0.000000 0.000000 0.000000 0.058658 0.000000 0.000000
# 5 0.000000 0.000000 0.000000 0.000000 -0.158635 0.000000
# 6 0.000000 0.000000 0.000000 0.000000 0.000000 0.041863
#
#
# Mechanical properties :
#
#
# Convention : Reuss Voigt Hill
#
# Bulk Modulus (GPa) = 45.55334 71.25538 58.40436
# Shear Modulus (GPa) = -63.78656 11.18897 -26.29880
#
# Velocity S-wave (km/s) = -6.00589 2.51540 -3.85639
# Velocity P-wave (km/s) = 4.72592 6.98073 3.63293
#
# Compressibility (1/GPa) = 0.02195229
#
# Stress axis : x y z
#
# Youngs Moduli (GPa) = 105.07380 -171.62760 -153.62368
#
# Poissons Ratio (x) = -0.84004 -1.27996
# Poissons Ratio (y) = 0.51429 3.93460
# Poissons Ratio (z) = 0.87546 4.39572
#
# Static dielectric constant tensor:
#      x y z
#    x 1.670650 0.000000 0.000000 
#    y 0.000000 1.613500 0.000000 
#    z 0.000000 0.000000 1.572220 
# 
# From -- ./inp_files/13535.got.cif
#   From: 2010.05.17/outbox.cif.g08.bks.cpg/sg67_7_cif.got.tgz:13535.got - 2010.06.03 18:28:57.
