data_PCOD9501780
_publ_section_title
;
Structure prediction by ZEFSAII (Michael W. Deem and Ramdas Pophale) SiO2 
 PCOD9501780
Probable space group: C M M A
;
_chemical_formula_sum "Si O2"
_cell_formula_units_Z 96
_cell_length_a 8.667742
_cell_length_b 29.626976
_cell_length_c 21.198631
_cell_angle_alpha 90.000000
_cell_angle_beta 90.000000
_cell_angle_gamma 90.000000
_cell_volume 5443.786907
_symmetry_space_group_name_H-M "C M M A"
_symmetry_group_IT_number 67
_symmetry_cell_setting 'orthorhombic'
loop_
_space_group_symop_operation_xyz
x,y,z
-x,1/2-y,z
x,-y,-z
-x,1/2+y,-z
-x,-y,-z
x,1/2+y,-z
-x,y,z
x,1/2-y,z
1/2+x,1/2+y,z
1/2-x,-y,z
1/2+x,1/2-y,-z
1/2-x,y,-z
1/2-x,1/2-y,-z
1/2+x,y,-z
1/2-x,1/2+y,z
1/2+x,-y,z
loop_
_atom_site_type_symbol
_atom_site_label
_atom_site_fract_x
_atom_site_fract_y
_atom_site_fract_z
Si Si1 0.184841 0.451740 0.888343
Si Si2 0.813195 0.856436 0.308955
Si Si3 0.313913 0.802231 0.568350
Si Si4 0.186379 0.802378 0.810499
Si Si5 0.185187 0.452174 0.740021
Si Si6 0.184645 0.358264 0.065877
O O1 0.250000 0.500000 0.909956
O O2 0.228175 0.446783 0.814005
O O3 0.254184 0.408973 0.923735
O O4 0.000000 0.451554 0.893384
O O5 0.761821 0.834004 0.374471
O O6 0.755149 0.827017 0.250274
O O7 0.762126 0.908035 0.297765
O O8 0.000000 0.856006 0.308122
O O9 0.500000 0.803367 0.566116
O O10 0.267553 0.750000 0.580404
O O11 0.250000 0.815394 0.500000
O O12 0.232422 0.750000 0.812316
O O13 0.234135 0.828492 0.874039
O O14 0.000000 0.804417 0.806932
O O15 0.250000 0.500000 0.717652
O O16 0.000000 0.454045 0.737620
O O17 0.000000 0.358793 0.063604
O O18 0.250000 0.340475 0.000000
#
# Coordination Sequence:
#
# PCOD9501780 Si02
#       6
#    16  16  16  16  16  16
#     4  10  19  34  55  79 106 135 170 213 265 318
#     4  10  19  34  56  82 108 139 177 217 260 310
#     4   9  18  32  51  77 110 144 177 214 257 306
#     4  10  22  38  55  78 106 135 172 219 266 313
#     4   9  18  31  51  78 107 135 169 212 258 310
#     4  11  23  38  55  75 103 138 176 218 265 317
#
# _framework density 17.634782999999999
#
# number of rings (size 3 to 8) (size 9 to 14) (size 15 to 20)
#    0.000    2.167    1.667    1.500    0.000    4.333 
#    0.000    3.333    0.000    0.500    0.000    3.500 
#    0.000    0.000    0.000    0.000    0.000    0.000 
#
# Total GULP energy -267953.004507 kJ/mol
# GULP energy per Si atom -5582.354261 kJ/mol
# Density = 1.759465 g / cm^3
# Si number density = 17.634783 Si / 1000 Ang^3
#
#
#
# Elastic Constant Matrix: (Units=GPa)
#
#
# Indices 1 2 3 4 5 6 
#
# 1 14.1882 22.2935 25.0244 0.0000 0.0000 0.0000
# 2 22.2935 136.0657 81.7409 0.0000 0.0000 0.0000
# 3 25.0244 81.7409 137.4680 0.0000 0.0000 0.0000
# 4 0.0000 0.0000 0.0000 8.3706 0.0000 0.0000
# 5 0.0000 0.0000 0.0000 0.0000 25.3860 0.0000
# 6 0.0000 0.0000 0.0000 0.0000 0.0000 20.3431
#
#
#
# Elastic Compliance Matrix: (Units=1/GPa)
#
#
# Indices 1 2 3 4 5 6 
#
# 1 0.111057 -0.009414 -0.014619 0.000000 0.000000 0.000000
# 2 -0.009414 0.012232 -0.005559 0.000000 0.000000 0.000000
# 3 -0.014619 -0.005559 0.013241 0.000000 0.000000 0.000000
# 4 0.000000 0.000000 0.000000 0.119466 0.000000 0.000000
# 5 0.000000 0.000000 0.000000 0.000000 0.039392 0.000000
# 6 0.000000 0.000000 0.000000 0.000000 0.000000 0.049157
#
#
# Mechanical properties :
#
#
# Convention : Reuss Voigt Hill
#
# Bulk Modulus (GPa) = 12.92901 60.64881 36.78891
# Shear Modulus (GPa) = 11.64117 21.39749 16.51933
#
# Velocity S-wave (km/s) = 2.57208 3.48712 3.06395
# Velocity P-wave (km/s) = 4.02097 7.11896 5.78134
#
# Compressibility (1/GPa) = 0.07734546
#
# Stress axis : x y z
#
# Youngs Moduli (GPa) = 9.00441 81.75557 75.52064
#
# Poissons Ratio (x) = 0.76961 1.10404
# Poissons Ratio (y) = 0.08476 0.41986
# Poissons Ratio (z) = 0.13164 0.45452
#
# Static dielectric constant tensor:
#      x y z
#    x 1.593620 0.000000 0.000000 
#    y 0.000000 1.595730 0.000000 
#    z 0.000000 0.000000 1.589290 
# 
# From -- ./inp_files/37120.got.cif
#   From: 2010.05.17/outbox.cif.g08.bks.cpg/sg67_19_cif.got.tgz:37120.got - 2010.06.03 18:28:57.
