data_PCOD9501994
_publ_section_title
;
Structure prediction by ZEFSAII (Michael W. Deem and Ramdas Pophale) SiO2 
 PCOD9501994
Probable space group: C M M A
;
_chemical_formula_sum "Si O2"
_cell_formula_units_Z 112
_cell_length_a 23.285748
_cell_length_b 14.252931
_cell_length_c 16.340355
_cell_angle_alpha 90.000000
_cell_angle_beta 90.000000
_cell_angle_gamma 90.000000
_cell_volume 5423.203028
_symmetry_space_group_name_H-M "C M M A"
_symmetry_group_IT_number 67
_symmetry_cell_setting 'orthorhombic'
loop_
_space_group_symop_operation_xyz
x,y,z
-x,1/2-y,z
x,-y,-z
-x,1/2+y,-z
-x,-y,-z
x,1/2+y,-z
-x,y,z
x,1/2-y,z
1/2+x,1/2+y,z
1/2-x,-y,z
1/2+x,1/2-y,-z
1/2-x,y,-z
1/2-x,1/2-y,-z
1/2+x,y,-z
1/2-x,1/2+y,z
1/2+x,-y,z
loop_
_atom_site_type_symbol
_atom_site_label
_atom_site_fract_x
_atom_site_fract_y
_atom_site_fract_z
Si Si1 0.124141 0.636938 0.139752
Si Si2 0.305472 0.139001 0.448135
Si Si3 0.564234 0.011512 0.262745
Si Si4 0.564343 0.091903 0.445014
Si Si5 0.220148 0.363529 0.729936
Si Si6 0.314934 0.136174 0.977049
Si Si7 0.844933 0.362923 0.208824
O O1 0.116036 0.750000 0.142269
O O2 0.074435 0.583081 0.187473
O O3 0.179550 0.610774 0.195039
O O4 0.140447 0.608624 0.047823
O O5 0.295995 0.250000 0.442039
O O6 0.250000 0.104565 0.500000
O O7 0.372819 0.130595 0.472992
O O8 0.300053 0.098264 0.356801
O O9 0.500000 0.974718 0.261539
O O10 0.606480 0.924698 0.250167
O O11 0.571084 0.065893 0.348950
O O12 0.500000 0.138836 0.452545
O O13 0.559447 0.000000 0.500000
O O14 0.216658 0.250000 0.727894
O O15 0.285428 0.386608 0.747043
O O16 0.312693 0.250000 0.978232
O O17 0.250000 0.105781 0.000000
O O18 0.335402 0.110940 0.886485
O O19 0.854431 0.250000 0.213812
#
# Coordination Sequence:
#
# PCOD9501994 Si02
#       7
#    16  16  16  16  16  16  16
#     4  10  19  36  61  89 121 150 189 245 302 356
#     4  10  21  37  60  92 124 151 188 245 308 365
#     4  11  25  42  60  84 115 158 210 250 287 351
#     4  10  23  43  60  81 117 158 202 248 292 351
#     4   9  17  33  57  87 119 146 183 238 296 357
#     4   9  16  32  58  88 121 154 190 241 302 364
#     4  10  21  38  60  86 120 158 197 248 303 354
#
# _framework density 20.652002
#
# number of rings (size 3 to 8) (size 9 to 14) (size 15 to 20)
#    0.000    2.143    2.857    0.000    2.000    2.286 
#    0.000    3.571    0.000    5.143    0.000    0.000 
#    0.000    0.000    0.000    0.000    0.000    0.000 
#
# Total GULP energy -312249.887411 kJ/mol
# GULP energy per Si atom -5575.890847 kJ/mol
# Density = 2.060500 g / cm^3
# Si number density = 20.652002 Si / 1000 Ang^3
#
#
#
# Elastic Constant Matrix: (Units=GPa)
#
#
# Indices 1 2 3 4 5 6 
#
# 1 127.6055 9.2450 24.7280 0.0000 0.0000 0.0000
# 2 9.2450 53.5887 1.2251 0.0000 0.0000 0.0000
# 3 24.7280 1.2251 43.0428 0.0000 0.0000 0.0000
# 4 0.0000 0.0000 0.0000 10.9313 0.0000 0.0000
# 5 0.0000 0.0000 0.0000 0.0000 45.0561 0.0000
# 6 0.0000 0.0000 0.0000 0.0000 0.0000 37.9923
#
#
#
# Elastic Compliance Matrix: (Units=1/GPa)
#
#
# Indices 1 2 3 4 5 6 
#
# 1 0.008926 -0.001424 -0.005087 0.000000 0.000000 0.000000
# 2 -0.001424 0.018900 0.000280 0.000000 0.000000 0.000000
# 3 -0.005087 0.000280 0.026147 0.000000 0.000000 0.000000
# 4 0.000000 0.000000 0.000000 0.091481 0.000000 0.000000
# 5 0.000000 0.000000 0.000000 0.000000 0.022195 0.000000
# 6 0.000000 0.000000 0.000000 0.000000 0.000000 0.026321
#
#
# Mechanical properties :
#
#
# Convention : Reuss Voigt Hill
#
# Bulk Modulus (GPa) = 24.08999 32.73701 28.41350
# Shear Modulus (GPa) = 22.69963 31.39854 27.04909
#
# Velocity S-wave (km/s) = 3.31894 3.90341 3.62298
# Velocity P-wave (km/s) = 5.13587 6.01678 5.59370
#
# Compressibility (1/GPa) = 0.04151101
#
# Stress axis : x y z
#
# Youngs Moduli (GPa) = 112.03711 52.91055 38.24486
#
# Poissons Ratio (x) = 0.07532 0.19456
# Poissons Ratio (y) = 0.15949 -0.01070
# Poissons Ratio (z) = 0.56996 -0.01481
#
# Static dielectric constant tensor:
#      x y z
#    x 1.767510 0.000000 0.000000 
#    y 0.000000 1.786460 0.000000 
#    z 0.000000 0.000000 1.740440 
# 
# From -- ./inp_files/30125.got.cif
#   From: 2010.05.17/outbox.cif.g08.bks.cpg/sg67_16_cif.got.tgz:30125.got - 2010.06.03 18:28:57.
