data_PCOD9501247
_publ_section_title
;
Structure prediction by ZEFSAII (Michael W. Deem and Ramdas Pophale) SiO2 
 PCOD9501247
Probable space group: C M M A
;
_chemical_formula_sum "Si O2"
_cell_formula_units_Z 80
_cell_length_a 8.835093
_cell_length_b 27.941955
_cell_length_c 19.158366
_cell_angle_alpha 90.000000
_cell_angle_beta 90.000000
_cell_angle_gamma 90.000000
_cell_volume 4729.621428
_symmetry_space_group_name_H-M "C M M A"
_symmetry_group_IT_number 67
_symmetry_cell_setting 'orthorhombic'
loop_
_space_group_symop_operation_xyz
x,y,z
-x,1/2-y,z
x,-y,-z
-x,1/2+y,-z
-x,-y,-z
x,1/2+y,-z
-x,y,z
x,1/2-y,z
1/2+x,1/2+y,z
1/2-x,-y,z
1/2+x,1/2-y,-z
1/2-x,y,-z
1/2-x,1/2-y,-z
1/2+x,y,-z
1/2-x,1/2+y,z
1/2+x,-y,z
loop_
_atom_site_type_symbol
_atom_site_label
_atom_site_fract_x
_atom_site_fract_y
_atom_site_fract_z
Si Si1 0.817775 0.893867 0.715003
Si Si2 0.818003 0.447029 0.426815
Si Si3 0.181260 0.948778 0.854505
Si Si4 0.180914 0.195407 0.788453
Si Si5 0.181598 0.649796 0.925543
O O1 0.778237 0.914587 0.639570
O O2 0.773473 0.930887 0.776780
O O3 0.743292 0.843472 0.734100
O O4 0.000000 0.888758 0.719058
O O5 0.750000 0.500000 0.415968
O O6 0.750000 0.429080 0.500000
O O7 0.000000 0.450293 0.431749
O O8 0.223852 0.905135 0.905637
O O9 0.000000 0.952831 0.855612
O O10 0.250000 0.000000 0.871535
O O11 0.218869 0.250000 0.769957
O O12 0.253772 0.181799 0.862934
O O13 0.000000 0.191030 0.793706
O O14 0.000000 0.653105 0.926372
O O15 0.250000 0.662782 0.000000
#
# Coordination Sequence:
#
# PCOD9501247 Si02
#       5
#    16  16  16  16  16
#     4   9  19  34  51  73 101 133 168 205 246 293
#     4  10  19  31  49  76 109 142 174 205 242 289
#     4   9  18  31  47  69  96 128 165 201 240 287
#     4  10  21  36  55  78  99 123 160 205 254 304
#     4  10  21  36  52  72  99 130 165 204 247 297
#
# _framework density 16.914671999999999
#
# number of rings (size 3 to 8) (size 9 to 14) (size 15 to 20)
#    0.000    2.400    0.000    4.200    0.000    8.000 
#    0.000    2.000    0.000    0.600    0.000    0.000 
#    0.000    0.000    0.000    0.000    0.000    0.000 
#
# Total GULP energy -223195.368446 kJ/mol
# GULP energy per Si atom -5579.884211 kJ/mol
# Density = 1.687617 g / cm^3
# Si number density = 16.914672 Si / 1000 Ang^3
#
#
#
# Elastic Constant Matrix: (Units=GPa)
#
#
# Indices 1 2 3 4 5 6 
#
# 1 35.6407 24.3279 32.8736 0.0000 0.0000 0.0000
# 2 24.3279 68.7829 26.1583 0.0000 0.0000 0.0000
# 3 32.8736 26.1583 110.0831 0.0000 0.0000 0.0000
# 4 0.0000 0.0000 0.0000 8.9079 0.0000 0.0000
# 5 0.0000 0.0000 0.0000 0.0000 27.4250 0.0000
# 6 0.0000 0.0000 0.0000 0.0000 0.0000 29.3130
#
#
#
# Elastic Compliance Matrix: (Units=1/GPa)
#
#
# Indices 1 2 3 4 5 6 
#
# 1 0.046590 -0.012299 -0.010991 0.000000 0.000000 0.000000
# 2 -0.012299 0.019229 -0.000897 0.000000 0.000000 0.000000
# 3 -0.010991 -0.000897 0.012579 0.000000 0.000000 0.000000
# 4 0.000000 0.000000 0.000000 0.112260 0.000000 0.000000
# 5 0.000000 0.000000 0.000000 0.000000 0.036463 0.000000
# 6 0.000000 0.000000 0.000000 0.000000 0.000000 0.034115
#
#
# Mechanical properties :
#
#
# Convention : Reuss Voigt Hill
#
# Bulk Modulus (GPa) = 33.30355 42.35848 37.83101
# Shear Modulus (GPa) = 15.64369 21.87231 18.75800
#
# Velocity S-wave (km/s) = 3.04445 3.59987 3.33375
# Velocity P-wave (km/s) = 5.66481 6.50965 6.10187
#
# Compressibility (1/GPa) = 0.03002683
#
# Stress axis : x y z
#
# Youngs Moduli (GPa) = 21.46379 52.00351 79.49660
#
# Poissons Ratio (x) = 0.63958 0.87371
# Poissons Ratio (y) = 0.26398 0.07128
# Poissons Ratio (z) = 0.23590 0.04663
#
# Static dielectric constant tensor:
#      x y z
#    x 1.567770 0.000000 0.000000 
#    y 0.000000 1.555550 0.000000 
#    z 0.000000 0.000000 1.562930 
# 
# From -- ./inp_files/32146.got.cif
#   From: 2010.05.17/outbox.cif.g08.bks.cpg/sg67_17_cif.got.tgz:32146.got - 2010.06.03 18:28:57.
