data_PCOD9501834
_publ_section_title
;
Structure prediction by ZEFSAII (Michael W. Deem and Ramdas Pophale) SiO2 
 PCOD9501834
Probable space group: C M M A
;
_chemical_formula_sum "Si O2"
_cell_formula_units_Z 112
_cell_length_a 27.834898
_cell_length_b 18.635238
_cell_length_c 11.307716
_cell_angle_alpha 90.000000
_cell_angle_beta 90.000000
_cell_angle_gamma 90.000000
_cell_volume 5865.424789
_symmetry_space_group_name_H-M "C M M A"
_symmetry_group_IT_number 67
_symmetry_cell_setting 'orthorhombic'
loop_
_space_group_symop_operation_xyz
x,y,z
-x,1/2-y,z
x,-y,-z
-x,1/2+y,-z
-x,-y,-z
x,1/2+y,-z
-x,y,z
x,1/2-y,z
1/2+x,1/2+y,z
1/2-x,-y,z
1/2+x,1/2-y,-z
1/2-x,y,-z
1/2-x,1/2-y,-z
1/2+x,y,-z
1/2-x,1/2+y,z
1/2+x,-y,z
loop_
_atom_site_type_symbol
_atom_site_label
_atom_site_fract_x
_atom_site_fract_y
_atom_site_fract_z
Si Si1 0.053096 0.873999 0.654253
Si Si2 0.554556 0.330791 0.915262
Si Si3 0.283246 0.835715 0.614377
Si Si4 0.121707 0.083542 0.536572
Si Si5 0.446087 0.539523 0.737108
Si Si6 0.372765 0.927197 0.944500
Si Si7 0.719049 0.664038 0.882229
O O1 0.057769 0.829566 0.773688
O O2 0.099410 0.870924 0.571190
O O3 0.000000 0.858797 0.600603
O O4 0.051846 0.956823 0.697247
O O5 0.500000 0.355992 0.943465
O O6 0.560265 0.250000 0.962204
O O7 0.595495 0.382153 0.963448
O O8 0.292967 0.750000 0.612166
O O9 0.250000 0.851534 0.500000
O O10 0.331784 0.880438 0.593209
O O11 0.262571 0.851448 0.747225
O O12 0.077989 0.080787 0.628909
O O13 0.131377 0.000000 0.500000
O O14 0.500000 0.563509 0.764196
O O15 0.410543 0.548827 0.845526
O O16 0.330955 0.877569 0.894378
O O17 0.352076 0.000000 0.000000
O O18 0.712152 0.750000 0.888352
O O19 0.750000 0.644675 0.000000
#
# Coordination Sequence:
#
# PCOD9501834 Si02
#       7
#    16  16  16  16  16  16  16
#     4   9  18  33  54  82 119 160 196 236 289 352
#     4  10  21  35  52  81 121 162 202 243 291 352
#     4  10  22  42  65  88 116 155 203 252 307 368
#     4  10  20  36  59  89 118 152 196 247 296 353
#     4  10  19  34  57  86 121 158 197 239 292 352
#     4  12  22  36  61  90 119 154 199 251 299 359
#     4  10  23  45  67  87 118 159 201 251 314 374
#
# _framework density 19.094950000000001
#
# number of rings (size 3 to 8) (size 9 to 14) (size 15 to 20)
#    0.000    1.857    2.857    1.286    0.000    4.571 
#    0.000    2.857    0.000    2.143    0.000    0.000 
#    0.000    0.000    0.000    0.000    0.000    0.000 
#
# Total GULP energy -312152.279145 kJ/mol
# GULP energy per Si atom -5574.147842 kJ/mol
# Density = 1.905149 g / cm^3
# Si number density = 19.094950 Si / 1000 Ang^3
#
#
#
# Elastic Constant Matrix: (Units=GPa)
#
#
# Indices 1 2 3 4 5 6 
#
# 1 66.8385 18.8323 37.4528 0.0000 0.0000 0.0000
# 2 18.8323 28.0966 16.2179 0.0000 0.0000 0.0000
# 3 37.4528 16.2179 100.8174 0.0000 0.0000 0.0000
# 4 0.0000 0.0000 0.0000 18.9779 0.0000 0.0000
# 5 0.0000 0.0000 0.0000 0.0000 31.5000 0.0000
# 6 0.0000 0.0000 0.0000 0.0000 0.0000 -111.4007
#
#
#
# Elastic Compliance Matrix: (Units=1/GPa)
#
#
# Indices 1 2 3 4 5 6 
#
# 1 0.021510 -0.010809 -0.006252 0.000000 0.000000 0.000000
# 2 -0.010809 0.044666 -0.003170 0.000000 0.000000 0.000000
# 3 -0.006252 -0.003170 0.012751 0.000000 0.000000 0.000000
# 4 0.000000 0.000000 0.000000 0.052693 0.000000 0.000000
# 5 0.000000 0.000000 0.000000 0.000000 0.031746 0.000000
# 6 0.000000 0.000000 0.000000 0.000000 0.000000 -0.008977
#
#
# Mechanical properties :
#
#
# Convention : Reuss Voigt Hill
#
# Bulk Modulus (GPa) = 25.99685 37.86206 31.92946
# Shear Modulus (GPa) = 24.07627 -3.96791 10.05418
#
# Velocity S-wave (km/s) = 3.55473 -1.44309 2.29713
# Velocity P-wave (km/s) = 5.52197 4.13457 4.87785
#
# Compressibility (1/GPa) = 0.03846620
#
# Stress axis : x y z
#
# Youngs Moduli (GPa) = 46.48946 22.38844 78.42257
#
# Poissons Ratio (x) = 0.24199 0.49031
# Poissons Ratio (y) = 0.50250 0.24858
# Poissons Ratio (z) = 0.29066 0.07097
#
# Static dielectric constant tensor:
#      x y z
#    x 1.543640 0.000000 0.000000 
#    y 0.000000 1.658790 0.000000 
#    z 0.000000 0.000000 1.725430 
# 
# From -- ./inp_files/22141.got.cif
#   From: 2010.05.17/outbox.cif.g08.bks.cpg/sg67_12_cif.got.tgz:22141.got - 2010.06.03 18:28:57.
