data_PCOD9501329
_publ_section_title
;
Structure prediction by ZEFSAII (Michael W. Deem and Ramdas Pophale) SiO2 
 PCOD9501329
Probable space group: C M M A
;
_chemical_formula_sum "Si O2"
_cell_formula_units_Z 116
_cell_length_a 8.151745
_cell_length_b 30.620856
_cell_length_c 25.397616
_cell_angle_alpha 90.000000
_cell_angle_beta 90.000000
_cell_angle_gamma 90.000000
_cell_volume 6339.585530
_symmetry_space_group_name_H-M "C M M A"
_symmetry_group_IT_number 67
_symmetry_cell_setting 'orthorhombic'
loop_
_space_group_symop_operation_xyz
x,y,z
-x,1/2-y,z
x,-y,-z
-x,1/2+y,-z
-x,-y,-z
x,1/2+y,-z
-x,y,z
x,1/2-y,z
1/2+x,1/2+y,z
1/2-x,-y,z
1/2+x,1/2-y,-z
1/2-x,y,-z
1/2-x,1/2-y,-z
1/2+x,y,-z
1/2-x,1/2+y,z
1/2+x,-y,z
loop_
_atom_site_type_symbol
_atom_site_label
_atom_site_fract_x
_atom_site_fract_y
_atom_site_fract_z
Si Si1 0.802513 0.048490 0.895090
Si Si2 0.197042 0.950637 0.226344
Si Si3 0.200413 0.799708 0.730835
Si Si4 0.750000 0.000000 0.500000
Si Si5 0.302308 0.200238 0.850838
Si Si6 0.806455 0.043460 0.599758
Si Si7 0.305373 0.863523 0.943105
Si Si8 0.305876 0.112377 0.681241
O O1 0.750676 0.056784 0.834368
O O2 0.738868 0.087795 0.931029
O O3 0.000000 0.049166 0.895149
O O4 0.750000 0.000000 0.910794
O O5 0.272897 0.916195 0.266490
O O6 0.000000 0.947417 0.229682
O O7 0.250000 0.000000 0.239251
O O8 0.251500 0.750000 0.718268
O O9 0.251781 0.809982 0.791052
O O10 0.255381 0.838613 0.692834
O O11 0.000000 0.799945 0.730540
O O12 0.704171 0.035636 0.545701
O O13 0.500000 0.199467 0.850564
O O14 0.250077 0.250000 0.862420
O O15 0.242952 0.167399 0.894997
O O16 0.773375 0.086279 0.632960
O O17 0.000000 0.040684 0.586707
O O18 0.750000 0.000000 0.631855
O O19 0.500000 0.866220 0.944145
O O20 0.250000 0.847341 0.000000
O O21 0.500000 0.113910 0.671802
#
# Coordination Sequence:
#
# PCOD9501329 Si02
#       8
#    16  16  16   4  16  16  16  16
#     4   9  20  36  53  71  93 126 164 203 248 300
#     4  10  19  32  48  69 100 132 164 203 248 300
#     4   8  16  32  53  77 104 134 169 207 248 303
#     4   8  22  36  58  72 104 148 186 224 252 292
#     4   9  18  35  58  79  99 127 163 203 251 305
#     4  10  20  34  52  74 105 141 179 217 254 294
#     4  11  23  37  52  73  98 124 160 205 254 306
#     4  11  20  29  48  77 106 137 172 208 252 298
#
# _framework density 18.297726000000001
#
# number of rings (size 3 to 8) (size 9 to 14) (size 15 to 20)
#    0.414    1.931    0.000    3.931    0.000    2.483 
#    0.000    2.069    0.000    3.310    0.000    0.483 
#    0.000    0.000    0.000    0.000    0.000    0.000 
#
# Total GULP energy -323000.643237 kJ/mol
# GULP energy per Si atom -5568.976608 kJ/mol
# Density = 1.825608 g / cm^3
# Si number density = 18.297726 Si / 1000 Ang^3
#
#
#
# Elastic Constant Matrix: (Units=GPa)
#
#
# Indices 1 2 3 4 5 6 
#
# 1 33.2090 13.5577 13.5533 0.0000 0.0000 0.0000
# 2 13.5577 120.7863 69.2344 0.0000 0.0000 0.0000
# 3 13.5533 69.2344 76.7166 0.0000 0.0000 0.0000
# 4 0.0000 0.0000 0.0000 104.0108 0.0000 0.0000
# 5 0.0000 0.0000 0.0000 0.0000 -1.3601 0.0000
# 6 0.0000 0.0000 0.0000 0.0000 0.0000 16.2734
#
#
#
# Elastic Compliance Matrix: (Units=1/GPa)
#
#
# Indices 1 2 3 4 5 6 
#
# 1 0.032484 -0.000739 -0.005072 0.000000 0.000000 0.000000
# 2 -0.000739 0.017168 -0.015363 0.000000 0.000000 0.000000
# 3 -0.005072 -0.015363 0.027796 0.000000 0.000000 0.000000
# 4 0.000000 0.000000 0.000000 0.009614 0.000000 0.000000
# 5 0.000000 0.000000 0.000000 0.000000 -0.735261 0.000000
# 6 0.000000 0.000000 0.000000 0.000000 0.000000 0.061450
#
#
# Mechanical properties :
#
#
# Convention : Reuss Voigt Hill
#
# Bulk Modulus (GPa) = 28.49023 47.04475 37.76749
# Shear Modulus (GPa) = -9.38614 32.74259 11.67823
#
# Velocity S-wave (km/s) = -2.26734 4.23476 2.52907
# Velocity P-wave (km/s) = 2.95800 7.04822 5.40496
#
# Compressibility (1/GPa) = 0.03509975
#
# Stress axis : x y z
#
# Youngs Moduli (GPa) = 30.78447 58.24726 35.97657
#
# Poissons Ratio (x) = 0.04304 0.18247
# Poissons Ratio (y) = 0.02275 0.55272
# Poissons Ratio (z) = 0.15614 0.89487
#
# Static dielectric constant tensor:
#      x y z
#    x 1.667240 0.000000 0.000000 
#    y 0.000000 1.648360 0.000000 
#    z 0.000000 0.000000 1.635070 
# 
# From -- ./inp_files/41194.got.cif
#   From: 2010.05.17/outbox.cif.g08.bks.cpg/sg67_21_cif.got.tgz:41194.got - 2010.06.03 18:28:57.
