data_PCOD9501754
_publ_section_title
;
Structure prediction by ZEFSAII (Michael W. Deem and Ramdas Pophale) SiO2 
 PCOD9501754
Probable space group: C M M A
;
_chemical_formula_sum "Si O2"
_cell_formula_units_Z 56
_cell_length_a 8.557213
_cell_length_b 14.725038
_cell_length_c 24.596351
_cell_angle_alpha 90.000000
_cell_angle_beta 90.000000
_cell_angle_gamma 90.000000
_cell_volume 3099.270257
_symmetry_space_group_name_H-M "C M M A"
_symmetry_group_IT_number 67
_symmetry_cell_setting 'orthorhombic'
loop_
_space_group_symop_operation_xyz
x,y,z
-x,1/2-y,z
x,-y,-z
-x,1/2+y,-z
-x,-y,-z
x,1/2+y,-z
-x,y,z
x,1/2-y,z
1/2+x,1/2+y,z
1/2-x,-y,z
1/2+x,1/2-y,-z
1/2-x,y,-z
1/2-x,1/2-y,-z
1/2+x,y,-z
1/2-x,1/2+y,z
1/2+x,-y,z
loop_
_atom_site_type_symbol
_atom_site_label
_atom_site_fract_x
_atom_site_fract_y
_atom_site_fract_z
Si Si1 0.187557 0.601659 0.941996
Si Si2 0.690184 0.250000 0.856035
Si Si3 0.312124 0.397626 0.351259
Si Si4 0.188252 0.750000 0.731303
Si Si5 0.187879 0.750000 0.439200
O O1 0.250000 0.500000 0.935672
O O2 0.238618 0.663315 0.891601
O O3 0.000000 0.600842 0.944320
O O4 0.250000 0.636579 0.000000
O O5 0.500000 0.250000 0.854810
O O6 0.742340 0.250000 0.793849
O O7 0.500000 0.398865 0.349238
O O8 0.250000 0.500000 0.351991
O O9 0.249687 0.338454 0.300672
O O10 0.263660 0.338741 0.404386
O O11 0.000000 0.750000 0.729732
O O12 0.250000 0.750000 0.500000
O O13 0.000000 0.750000 0.440821
#
# Coordination Sequence:
#
# PCOD9501754 Si02
#       5
#    16   8  16   8   8
#     4  10  19  34  52  74 102 133 168 210 257 312
#     4   9  20  35  53  76 104 134 170 213 262 313
#     4  10  21  38  57  81 110 145 183 222 265 315
#     4  10  20  37  57  79 107 141 178 224 272 318
#     4   9  20  36  55  81 114 143 178 221 263 311
#
# _framework density 18.068770000000001
#
# number of rings (size 3 to 8) (size 9 to 14) (size 15 to 20)
#    0.000    2.286    0.000    4.286    0.000    5.143 
#    0.000   13.571    0.000    0.000    0.000    0.000 
#    0.000    0.000    0.000    0.000    0.000    0.000 
#
# Total GULP energy -156258.260730 kJ/mol
# GULP energy per Si atom -5580.652169 kJ/mol
# Density = 1.802764 g / cm^3
# Si number density = 18.068770 Si / 1000 Ang^3
#
#
#
# Elastic Constant Matrix: (Units=GPa)
#
#
# Indices 1 2 3 4 5 6 
#
# 1 56.7077 40.3703 41.1323 0.0000 0.0000 0.0000
# 2 40.3703 170.4233 108.6066 0.0000 0.0000 0.0000
# 3 41.1323 108.6066 209.7951 0.0000 0.0000 0.0000
# 4 0.0000 0.0000 0.0000 9.6436 0.0000 0.0000
# 5 0.0000 0.0000 0.0000 0.0000 28.1784 0.0000
# 6 0.0000 0.0000 0.0000 0.0000 0.0000 21.6244
#
#
#
# Elastic Compliance Matrix: (Units=1/GPa)
#
#
# Indices 1 2 3 4 5 6 
#
# 1 0.021999 -0.003675 -0.002411 0.000000 0.000000 0.000000
# 2 -0.003675 0.009370 -0.004130 0.000000 0.000000 0.000000
# 3 -0.002411 -0.004130 0.007377 0.000000 0.000000 0.000000
# 4 0.000000 0.000000 0.000000 0.103696 0.000000 0.000000
# 5 0.000000 0.000000 0.000000 0.000000 0.035488 0.000000
# 6 0.000000 0.000000 0.000000 0.000000 0.000000 0.046244
#
#
# Mechanical properties :
#
#
# Convention : Reuss Voigt Hill
#
# Bulk Modulus (GPa) = 54.60033 90.79383 72.69708
# Shear Modulus (GPa) = 19.94324 28.34375 24.14349
#
# Velocity S-wave (km/s) = 3.32586 3.96493 3.65937
# Velocity P-wave (km/s) = 6.71060 8.44506 7.62729
#
# Compressibility (1/GPa) = 0.01831491
#
# Stress axis : x y z
#
# Youngs Moduli (GPa) = 45.45659 106.71819 135.54883
#
# Poissons Ratio (x) = 0.39218 0.32676
# Poissons Ratio (y) = 0.16705 0.55987
# Poissons Ratio (z) = 0.10958 0.44079
#
# Static dielectric constant tensor:
#      x y z
#    x 1.613340 0.000000 0.000000 
#    y 0.000000 1.603650 0.000000 
#    z 0.000000 0.000000 1.608890 
# 
# From -- ./inp_files/40400.got.cif
#   From: 2010.05.17/outbox.cif.g08.bks.cpg/sg67_21_cif.got.tgz:40400.got - 2010.06.03 18:28:57.
