data_PCOD9501815
_publ_section_title
;
Structure prediction by ZEFSAII (Michael W. Deem and Ramdas Pophale) SiO2 
 PCOD9501815
Probable space group: C M M A
;
_chemical_formula_sum "Si O2"
_cell_formula_units_Z 88
_cell_length_a 8.640087
_cell_length_b 27.595981
_cell_length_c 19.224853
_cell_angle_alpha 90.000000
_cell_angle_beta 90.000000
_cell_angle_gamma 90.000000
_cell_volume 4583.813935
_symmetry_space_group_name_H-M "C M M A"
_symmetry_group_IT_number 67
_symmetry_cell_setting 'orthorhombic'
loop_
_space_group_symop_operation_xyz
x,y,z
-x,1/2-y,z
x,-y,-z
-x,1/2+y,-z
-x,-y,-z
x,1/2+y,-z
-x,y,z
x,1/2-y,z
1/2+x,1/2+y,z
1/2-x,-y,z
1/2+x,1/2-y,-z
1/2-x,y,-z
1/2-x,1/2-y,-z
1/2+x,y,-z
1/2-x,1/2+y,z
1/2+x,-y,z
loop_
_atom_site_type_symbol
_atom_site_label
_atom_site_fract_x
_atom_site_fract_y
_atom_site_fract_z
Si Si1 0.183384 0.858441 0.423328
Si Si2 0.313109 0.154265 0.844762
Si Si3 0.186020 0.250000 0.921966
Si Si4 0.686379 0.050950 0.332033
Si Si5 0.680847 0.305769 0.698906
Si Si6 0.313934 0.552101 0.830879
O O1 0.250000 0.854348 0.500000
O O2 0.241864 0.905689 0.381052
O O3 0.229187 0.815302 0.371769
O O4 0.000000 0.861762 0.428724
O O5 0.500000 0.155366 0.847784
O O6 0.247688 0.200553 0.886053
O O7 0.263468 0.163025 0.764329
O O8 0.251962 0.101070 0.865746
O O9 0.000000 0.250000 0.920293
O O10 0.250000 0.250000 0.000000
O O11 0.500000 0.050758 0.332660
O O12 0.733978 0.055301 0.251049
O O13 0.750000 0.000000 0.358285
O O14 0.500000 0.316662 0.686712
O O15 0.693048 0.250000 0.720308
O O16 0.500000 0.552098 0.834928
O O17 0.250000 0.500000 0.856378
#
# Coordination Sequence:
#
# PCOD9501815 Si02
#       6
#    16  16   8  16  16  16
#     4  11  23  38  53  75 105 145 193 246 302 364
#     4  11  21  38  64  95 128 164 204 251 304 362
#     4  12  26  44  68 100 137 172 205 246 294 354
#     4   9  19  33  51  75 106 142 188 241 297 356
#     4  10  21  38  59  83 110 145 191 242 298 360
#     4  10  19  34  56  89 124 161 207 256 309 362
#
# _framework density 19.197987000000001
#
# number of rings (size 3 to 8) (size 9 to 14) (size 15 to 20)
#    0.000    1.636    2.727    2.455    0.000    4.000 
#    0.000    1.818    0.000    0.545    0.000    3.818 
#    0.000    0.000    0.000    0.000    0.000    0.000 
#
# Total GULP energy -245573.961651 kJ/mol
# GULP energy per Si atom -5581.226401 kJ/mol
# Density = 1.915429 g / cm^3
# Si number density = 19.197987 Si / 1000 Ang^3
#
#
#
# Elastic Constant Matrix: (Units=GPa)
#
#
# Indices 1 2 3 4 5 6 
#
# 1 50.0911 46.4466 20.8002 0.0000 0.0000 0.0000
# 2 46.4466 136.6009 43.6533 0.0000 0.0000 0.0000
# 3 20.8002 43.6533 56.9351 0.0000 0.0000 0.0000
# 4 0.0000 0.0000 0.0000 15.8157 0.0000 0.0000
# 5 0.0000 0.0000 0.0000 0.0000 21.0180 0.0000
# 6 0.0000 0.0000 0.0000 0.0000 0.0000 35.6182
#
#
#
# Elastic Compliance Matrix: (Units=1/GPa)
#
#
# Indices 1 2 3 4 5 6 
#
# 1 0.029875 -0.008835 -0.004140 0.000000 0.000000 0.000000
# 2 -0.008835 0.012309 -0.006210 0.000000 0.000000 0.000000
# 3 -0.004140 -0.006210 0.023838 0.000000 0.000000 0.000000
# 4 0.000000 0.000000 0.000000 0.063228 0.000000 0.000000
# 5 0.000000 0.000000 0.000000 0.000000 0.047578 0.000000
# 6 0.000000 0.000000 0.000000 0.000000 0.000000 0.028076
#
#
# Mechanical properties :
#
#
# Convention : Reuss Voigt Hill
#
# Bulk Modulus (GPa) = 36.16454 51.71415 43.93935
# Shear Modulus (GPa) = 19.80263 23.33885 21.57074
#
# Velocity S-wave (km/s) = 3.21517 3.49046 3.35564
# Velocity P-wave (km/s) = 5.71504 6.57573 6.16043
#
# Compressibility (1/GPa) = 0.02765139
#
# Stress axis : x y z
#
# Youngs Moduli (GPa) = 33.47283 81.24061 41.95014
#
# Poissons Ratio (x) = 0.71775 0.17369
# Poissons Ratio (y) = 0.29573 0.26051
# Poissons Ratio (z) = 0.13859 0.50450
#
# Static dielectric constant tensor:
#      x y z
#    x 1.652390 0.000000 0.000000 
#    y 0.000000 1.697840 0.000000 
#    z 0.000000 0.000000 1.657960 
# 
# From -- ./inp_files/36951.got.cif
#   From: 2010.05.17/outbox.cif.g08.bks.cpg/sg67_19_cif.got.tgz:36951.got - 2010.06.03 18:28:57.
