data_PCOD9501753
_publ_section_title
;
Structure prediction by ZEFSAII (Michael W. Deem and Ramdas Pophale) SiO2 
 PCOD9501753
Probable space group: C M M A
;
_chemical_formula_sum "Si O2"
_cell_formula_units_Z 84
_cell_length_a 19.584616
_cell_length_b 15.326250
_cell_length_c 13.434327
_cell_angle_alpha 90.000000
_cell_angle_beta 90.000000
_cell_angle_gamma 90.000000
_cell_volume 4032.430409
_symmetry_space_group_name_H-M "C M M A"
_symmetry_group_IT_number 67
_symmetry_cell_setting 'orthorhombic'
loop_
_space_group_symop_operation_xyz
x,y,z
-x,1/2-y,z
x,-y,-z
-x,1/2+y,-z
-x,-y,-z
x,1/2+y,-z
-x,y,z
x,1/2-y,z
1/2+x,1/2+y,z
1/2-x,-y,z
1/2+x,1/2-y,-z
1/2-x,y,-z
1/2-x,1/2-y,-z
1/2+x,y,-z
1/2-x,1/2+y,z
1/2+x,-y,z
loop_
_atom_site_type_symbol
_atom_site_label
_atom_site_fract_x
_atom_site_fract_y
_atom_site_fract_z
Si Si1 0.626767 0.910373 0.097141
Si Si2 0.421772 0.353959 0.326309
Si Si3 0.578119 0.146903 0.690884
Si Si4 0.828774 0.857154 0.508551
Si Si5 0.922349 0.105694 0.890297
Si Si6 0.750000 0.500000 0.000000
O O1 0.610896 0.864645 0.200146
O O2 0.584182 0.000918 0.103887
O O3 0.702960 0.942075 0.071923
O O4 0.606213 0.861538 0.995374
O O5 0.500000 0.388702 0.332563
O O6 0.426716 0.250000 0.338905
O O7 0.372676 0.386253 0.413114
O O8 0.391518 0.369761 0.216150
O O9 0.500000 0.111314 0.687777
O O10 0.572071 0.250000 0.672197
O O11 0.629737 0.112934 0.606484
O O12 0.827588 0.750000 0.509777
O O13 0.750000 0.885199 0.500000
O O14 0.000000 0.134768 0.884684
#
# Coordination Sequence:
#
# PCOD9501753 Si02
#       6
#    16  16  16  16  16   4
#     4  10  19  34  52  73 104 137 171 210 253 309
#     4   9  17  30  49  73 100 130 170 217 259 307
#     4  10  20  34  55  81 107 137 174 218 266 313
#     4   9  18  32  50  72 100 135 172 212 262 315
#     4   9  17  30  50  72  95 130 168 205 254 303
#     4   8  20  36  52  72 102 144 180 208 256 314
#
# _framework density 20.831109000000001
#
# number of rings (size 3 to 8) (size 9 to 14) (size 15 to 20)
#    0.000    2.857    0.000    2.857    0.000    6.095 
#    0.000    3.333    0.000    4.571    0.000    0.000 
#    0.000    0.000    0.000    0.000    0.000    0.000 
#
# Total GULP energy -234009.937129 kJ/mol
# GULP energy per Si atom -5571.665170 kJ/mol
# Density = 2.078370 g / cm^3
# Si number density = 20.831109 Si / 1000 Ang^3
#
#
#
# Elastic Constant Matrix: (Units=GPa)
#
#
# Indices 1 2 3 4 5 6 
#
# 1 145.6912 5.2443 105.1545 0.0000 0.0000 0.0000
# 2 5.2443 29.8275 0.9010 0.0000 0.0000 0.0000
# 3 105.1545 0.9010 218.6080 0.0000 0.0000 0.0000
# 4 0.0000 0.0000 0.0000 30.8234 0.0000 0.0000
# 5 0.0000 0.0000 0.0000 0.0000 28.3182 0.0000
# 6 0.0000 0.0000 0.0000 0.0000 0.0000 -2.6000
#
#
#
# Elastic Compliance Matrix: (Units=1/GPa)
#
#
# Indices 1 2 3 4 5 6 
#
# 1 0.010601 -0.001710 -0.005092 0.000000 0.000000 0.000000
# 2 -0.001710 0.033806 0.000683 0.000000 0.000000 0.000000
# 3 -0.005092 0.000683 0.007021 0.000000 0.000000 0.000000
# 4 0.000000 0.000000 0.000000 0.032443 0.000000 0.000000
# 5 0.000000 0.000000 0.000000 0.000000 0.035313 0.000000
# 6 0.000000 0.000000 0.000000 0.000000 0.000000 -0.384620
#
#
# Mechanical properties :
#
#
# Convention : Reuss Voigt Hill
#
# Bulk Modulus (GPa) = 25.51672 68.52515 47.02093
# Shear Modulus (GPa) = -20.82162 30.16345 4.67092
#
# Velocity S-wave (km/s) = -3.16499 3.80939 1.49905
# Velocity P-wave (km/s) = 1.03936 7.23295 5.06139
#
# Compressibility (1/GPa) = 0.03918999
#
# Stress axis : x y z
#
# Youngs Moduli (GPa) = 94.33393 29.58047 142.43080
#
# Poissons Ratio (x) = 0.05058 0.72527
# Poissons Ratio (y) = 0.16131 -0.09731
# Poissons Ratio (z) = 0.48035 -0.02021
#
# Static dielectric constant tensor:
#      x y z
#    x 1.745700 0.000000 0.000000 
#    y 0.000000 1.788430 0.000000 
#    z 0.000000 0.000000 1.764550 
# 
# From -- ./inp_files/20768.got.cif
#   From: 2010.05.17/outbox.cif.g08.bks.cpg/sg67_11_cif.got.tgz:20768.got - 2010.06.03 18:28:57.
