data_PCOD9501958
_publ_section_title
;
Structure prediction by ZEFSAII (Michael W. Deem and Ramdas Pophale) SiO2 
 PCOD9501958
Probable space group: C M M A
;
_chemical_formula_sum "Si O2"
_cell_formula_units_Z 100
_cell_length_a 18.036541
_cell_length_b 17.501441
_cell_length_c 16.132388
_cell_angle_alpha 90.000000
_cell_angle_beta 90.000000
_cell_angle_gamma 90.000000
_cell_volume 5092.437649
_symmetry_space_group_name_H-M "C M M A"
_symmetry_group_IT_number 67
_symmetry_cell_setting 'orthorhombic'
loop_
_space_group_symop_operation_xyz
x,y,z
-x,1/2-y,z
x,-y,-z
-x,1/2+y,-z
-x,-y,-z
x,1/2+y,-z
-x,y,z
x,1/2-y,z
1/2+x,1/2+y,z
1/2-x,-y,z
1/2+x,1/2-y,-z
1/2-x,y,-z
1/2-x,1/2-y,-z
1/2+x,y,-z
1/2-x,1/2+y,z
1/2+x,-y,z
loop_
_atom_site_type_symbol
_atom_site_label
_atom_site_fract_x
_atom_site_fract_y
_atom_site_fract_z
Si Si1 0.221852 0.587241 0.672413
Si Si2 0.915459 0.968481 0.591957
Si Si3 0.176862 0.954811 0.853413
Si Si4 0.661161 0.164886 0.990777
Si Si5 0.500000 0.250000 0.403553
Si Si6 0.412944 0.107059 0.157964
Si Si7 0.881885 0.632763 0.339929
O O1 0.250000 0.500000 0.659156
O O2 0.146393 0.592023 0.620367
O O3 0.202429 0.589891 0.770356
O O4 0.293049 0.637197 0.647970
O O5 0.000000 0.940350 0.596605
O O6 0.900512 0.000000 0.500000
O O7 0.906477 0.044621 0.647476
O O8 0.144763 0.898604 0.921963
O O9 0.250000 0.000000 0.885068
O O10 0.119886 0.021902 0.832136
O O11 0.637404 0.250000 0.965560
O O12 0.750000 0.164914 0.000000
O O13 0.626218 0.144189 0.078916
O O14 0.434518 0.183859 0.395986
O O15 0.500000 0.104663 0.144114
O O16 0.397136 0.151094 0.243500
#
# Coordination Sequence:
#
# PCOD9501958 Si02
#       7
#    16  16  16  16   4  16  16
#     4   9  18  34  58  87 121 154 198 255 303 368
#     4  10  19  35  63  98 124 151 197 260 317 357
#     4  11  19  38  59  81 115 157 199 257 302 367
#     4  11  24  37  54  80 115 161 205 248 305 370
#     4  12  24  36  62  86 138 176 196 256 308 400
#     4  12  23  37  60  86 118 150 203 256 315 361
#     4  11  21  37  57  92 124 164 199 246 322 369
#
# _framework density 19.636962
#
# number of rings (size 3 to 8) (size 9 to 14) (size 15 to 20)
#    0.000    1.280    8.000    0.480    1.120    4.480 
#    1.440    0.000    0.000    1.920    0.000    0.000 
#    0.000    0.000    0.000    0.000    0.000    0.000 
#
# Total GULP energy -278565.226520 kJ/mol
# GULP energy per Si atom -5571.304530 kJ/mol
# Density = 1.959227 g / cm^3
# Si number density = 19.636962 Si / 1000 Ang^3
#
#
#
# Elastic Constant Matrix: (Units=GPa)
#
#
# Indices 1 2 3 4 5 6 
#
# 1 118.8872 6.2846 28.4063 0.0000 0.0000 0.0000
# 2 6.2846 40.6170 6.1059 0.0000 0.0000 0.0000
# 3 28.4063 6.1059 60.4526 0.0000 0.0000 0.0000
# 4 0.0000 0.0000 0.0000 -9.3220 0.0000 0.0000
# 5 0.0000 0.0000 0.0000 0.0000 20.4492 0.0000
# 6 0.0000 0.0000 0.0000 0.0000 0.0000 5.2768
#
#
#
# Elastic Compliance Matrix: (Units=1/GPa)
#
#
# Indices 1 2 3 4 5 6 
#
# 1 0.009501 -0.000811 -0.004383 0.000000 0.000000 0.000000
# 2 -0.000811 0.025069 -0.002151 0.000000 0.000000 0.000000
# 3 -0.004383 -0.002151 0.018819 0.000000 0.000000 0.000000
# 4 0.000000 0.000000 0.000000 -0.107274 0.000000 0.000000
# 5 0.000000 0.000000 0.000000 0.000000 0.048902 0.000000
# 6 0.000000 0.000000 0.000000 0.000000 0.000000 0.189508
#
#
# Mechanical properties :
#
#
# Convention : Reuss Voigt Hill
#
# Bulk Modulus (GPa) = 25.84022 33.50560 29.67291
# Shear Modulus (GPa) = 23.57219 15.22482 19.39850
#
# Velocity S-wave (km/s) = 3.46844 2.78747 3.14643
# Velocity P-wave (km/s) = 5.40626 5.24018 5.32387
#
# Compressibility (1/GPa) = 0.03869936
#
# Stress axis : x y z
#
# Youngs Moduli (GPa) = 105.24759 39.88981 53.13911
#
# Poissons Ratio (x) = 0.03236 0.23289
# Poissons Ratio (y) = 0.08539 0.11429
# Poissons Ratio (z) = 0.46127 0.08580
#
# Static dielectric constant tensor:
#      x y z
#    x 1.710400 0.000000 0.000000 
#    y 0.000000 1.700730 0.000000 
#    z 0.000000 0.000000 1.730100 
# 
# From -- ./inp_files/28648.got.cif
#   From: 2010.05.17/outbox.cif.g08.bks.cpg/sg67_15_cif.got.tgz:28648.got - 2010.06.03 18:28:57.
