data_PCOD9501663
_publ_section_title
;
Structure prediction by ZEFSAII (Michael W. Deem and Ramdas Pophale) SiO2 
 PCOD9501663
Probable space group: C M M A
;
_chemical_formula_sum "Si O2"
_cell_formula_units_Z 80
_cell_length_a 26.902128
_cell_length_b 8.596975
_cell_length_c 19.639115
_cell_angle_alpha 90.000000
_cell_angle_beta 90.000000
_cell_angle_gamma 90.000000
_cell_volume 4542.074065
_symmetry_space_group_name_H-M "C M M A"
_symmetry_group_IT_number 67
_symmetry_cell_setting 'orthorhombic'
loop_
_space_group_symop_operation_xyz
x,y,z
-x,1/2-y,z
x,-y,-z
-x,1/2+y,-z
-x,-y,-z
x,1/2+y,-z
-x,y,z
x,1/2-y,z
1/2+x,1/2+y,z
1/2-x,-y,z
1/2+x,1/2-y,-z
1/2-x,y,-z
1/2-x,1/2-y,-z
1/2+x,y,-z
1/2-x,1/2+y,z
1/2+x,-y,z
loop_
_atom_site_type_symbol
_atom_site_label
_atom_site_fract_x
_atom_site_fract_y
_atom_site_fract_z
Si Si1 0.196824 0.434698 0.923906
Si Si2 0.107851 0.560791 0.323325
Si Si3 0.500000 0.563803 0.180046
Si Si4 0.609968 0.564662 0.169552
Si Si5 0.000000 0.066450 0.669031
Si Si6 0.196071 0.436647 0.575724
O O1 0.200027 0.250000 0.927249
O O2 0.250000 0.500000 0.899094
O O3 0.151736 0.485532 0.876001
O O4 0.189159 0.500000 0.000000
O O5 0.107003 0.750000 0.317977
O O6 0.113646 0.492291 0.247703
O O7 0.153009 0.516206 0.372100
O O8 0.054187 0.507116 0.353201
O O9 0.500000 0.750000 0.196251
O O10 0.553060 0.530345 0.145694
O O11 0.500000 0.467376 0.250057
O O12 0.616822 0.750000 0.167208
O O13 0.000000 0.250000 0.655449
O O14 0.186116 0.500000 0.500000
O O15 0.198069 0.250000 0.572987
O O16 0.250000 0.500000 0.596988
#
# Coordination Sequence:
#
# PCOD9501663 Si02
#       6
#    16  16   8  16   8  16
#     4  11  22  38  57  77 103 136 172 210 255 305
#     4   9  18  32  51  75 100 130 167 208 250 297
#     4   8  16  30  49  74 105 136 167 204 249 296
#     4  10  19  33  54  80 107 136 170 210 252 298
#     4   8  14  28  49  70  96 128 163 202 248 296
#     4  10  20  34  51  70  96 129 166 204 249 300
#
# _framework density 17.613099999999999
#
# number of rings (size 3 to 8) (size 9 to 14) (size 15 to 20)
#    0.000    2.400    0.000    4.200    0.000    3.200 
#    0.000    3.000    0.000    0.000    0.000    0.000 
#    0.000    0.000    0.000    0.000    0.000    0.000 
#
# Total GULP energy -222936.934325 kJ/mol
# GULP energy per Si atom -5573.423358 kJ/mol
# Density = 1.757301 g / cm^3
# Si number density = 17.613100 Si / 1000 Ang^3
#
#
#
# Elastic Constant Matrix: (Units=GPa)
#
#
# Indices 1 2 3 4 5 6 
#
# 1 202.1704 59.8032 87.5250 0.0000 0.0000 0.0000
# 2 59.8032 71.2555 27.7881 0.0000 0.0000 0.0000
# 3 87.5250 27.7881 54.8619 0.0000 0.0000 0.0000
# 4 0.0000 0.0000 0.0000 23.6379 0.0000 0.0000
# 5 0.0000 0.0000 0.0000 0.0000 -89.2829 0.0000
# 6 0.0000 0.0000 0.0000 0.0000 0.0000 24.6151
#
#
#
# Elastic Compliance Matrix: (Units=1/GPa)
#
#
# Indices 1 2 3 4 5 6 
#
# 1 0.017138 -0.004637 -0.024993 0.000000 0.000000 0.000000
# 2 -0.004637 0.018743 -0.002096 0.000000 0.000000 0.000000
# 3 -0.024993 -0.002096 0.059162 0.000000 0.000000 0.000000
# 4 0.000000 0.000000 0.000000 0.042305 0.000000 0.000000
# 5 0.000000 0.000000 0.000000 0.000000 -0.011200 0.000000
# 6 0.000000 0.000000 0.000000 0.000000 0.000000 0.040625
#
#
# Mechanical properties :
#
#
# Convention : Reuss Voigt Hill
#
# Bulk Modulus (GPa) = 31.65396 75.39116 53.52256
# Shear Modulus (GPa) = 20.76800 2.00546 11.38673
#
# Velocity S-wave (km/s) = 3.43756 1.06822 2.54538
# Velocity P-wave (km/s) = 5.81090 6.66471 6.25240
#
# Compressibility (1/GPa) = 0.03159162
#
# Stress axis : x y z
#
# Youngs Moduli (GPa) = 58.34984 53.35316 16.90274
#
# Poissons Ratio (x) = 0.24739 0.42245
# Poissons Ratio (y) = 0.27056 0.03543
# Poissons Ratio (z) = 1.45833 0.11183
#
# Static dielectric constant tensor:
#      x y z
#    x 1.641590 0.000000 0.000000 
#    y 0.000000 1.601010 0.000000 
#    z 0.000000 0.000000 1.554070 
# 
# From -- ./inp_files/32201.got.cif
#   From: 2010.05.17/outbox.cif.g08.bks.cpg/sg67_17_cif.got.tgz:32201.got - 2010.06.03 18:28:57.
