data_PCOD9501300
_publ_section_title
;
Structure prediction by ZEFSAII (Michael W. Deem and Ramdas Pophale) SiO2 
 PCOD9501300
Probable space group: C M M A
;
_chemical_formula_sum "Si O2"
_cell_formula_units_Z 80
_cell_length_a 19.507966
_cell_length_b 19.802031
_cell_length_c 10.873930
_cell_angle_alpha 90.000000
_cell_angle_beta 90.000000
_cell_angle_gamma 90.000000
_cell_volume 4200.570316
_symmetry_space_group_name_H-M "C M M A"
_symmetry_group_IT_number 67
_symmetry_cell_setting 'orthorhombic'
loop_
_space_group_symop_operation_xyz
x,y,z
-x,1/2-y,z
x,-y,-z
-x,1/2+y,-z
-x,-y,-z
x,1/2+y,-z
-x,y,z
x,1/2-y,z
1/2+x,1/2+y,z
1/2-x,-y,z
1/2+x,1/2-y,-z
1/2-x,y,-z
1/2-x,1/2-y,-z
1/2+x,y,-z
1/2-x,1/2+y,z
1/2+x,-y,z
loop_
_atom_site_type_symbol
_atom_site_label
_atom_site_fract_x
_atom_site_fract_y
_atom_site_fract_z
Si Si1 0.220133 0.923971 0.378112
Si Si2 0.707537 0.107837 0.870352
Si Si3 0.574601 0.016259 0.857360
Si Si4 0.327702 0.250000 0.953770
Si Si5 0.920027 0.250000 0.804464
Si Si6 0.576162 0.892399 0.675939
O O1 0.250000 0.889511 0.500000
O O2 0.240858 0.892899 0.245787
O O3 0.139160 0.920126 0.401070
O O4 0.250000 0.000000 0.373037
O O5 0.668923 0.179622 0.882414
O O6 0.646185 0.055489 0.840627
O O7 0.750000 0.094832 0.000000
O O8 0.500000 0.049114 0.823964
O O9 0.575835 0.944974 0.788337
O O10 0.572539 0.000000 0.000000
O O11 0.250000 0.250000 0.000000
O O12 0.375825 0.250000 0.072376
O O13 0.908423 0.182511 0.725391
O O14 0.000000 0.250000 0.839686
O O15 0.500000 0.892760 0.619686
#
# Coordination Sequence:
#
# PCOD9501300 Si02
#       6
#    16  16  16   8   8  16
#     4  11  23  40  60  88 121 153 199 252 304 358
#     4  11  22  36  59  83 116 154 197 243 302 356
#     4  10  19  31  51  83 114 145 190 242 289 345
#     4  10  20  34  52  83 117 153 193 241 292 349
#     4  10  20  36  60  89 126 163 199 243 295 355
#     4  10  20  37  59  85 116 156 201 242 289 354
#
# _framework density 19.045031999999999
#
# number of rings (size 3 to 8) (size 9 to 14) (size 15 to 20)
#    0.000    1.600    2.000    4.800    0.000    2.400 
#    0.000    5.000    0.000    0.000    0.000    0.000 
#    0.000    0.000    0.000    0.000    0.000    0.000 
#
# Total GULP energy -222802.888388 kJ/mol
# GULP energy per Si atom -5570.072210 kJ/mol
# Density = 1.900168 g / cm^3
# Si number density = 19.045032 Si / 1000 Ang^3
#
#
#
# Elastic Constant Matrix: (Units=GPa)
#
#
# Indices 1 2 3 4 5 6 
#
# 1 138.2884 39.3189 25.5281 0.0000 0.0000 0.0000
# 2 39.3189 85.1700 -8.4103 0.0000 0.0000 0.0000
# 3 25.5281 -8.4103 66.1658 0.0000 0.0000 0.0000
# 4 0.0000 0.0000 0.0000 -3.8490 0.0000 0.0000
# 5 0.0000 0.0000 0.0000 0.0000 -65.8121 0.0000
# 6 0.0000 0.0000 0.0000 0.0000 0.0000 21.3126
#
#
#
# Elastic Compliance Matrix: (Units=1/GPa)
#
#
# Indices 1 2 3 4 5 6 
#
# 1 0.009355 -0.004734 -0.004211 0.000000 0.000000 0.000000
# 2 -0.004734 0.014287 0.003643 0.000000 0.000000 0.000000
# 3 -0.004211 0.003643 0.017201 0.000000 0.000000 0.000000
# 4 0.000000 0.000000 0.000000 -0.259809 0.000000 0.000000
# 5 0.000000 0.000000 0.000000 0.000000 -0.015195 0.000000
# 6 0.000000 0.000000 0.000000 0.000000 0.000000 0.046921
#
#
# Mechanical properties :
#
#
# Convention : Reuss Voigt Hill
#
# Bulk Modulus (GPa) = 33.07227 44.72197 38.89712
# Shear Modulus (GPa) = -30.02000 5.87613 -12.07193
#
# Velocity S-wave (km/s) = -3.97453 1.75843 -2.52039
# Velocity P-wave (km/s) = 1.91298 5.25890 3.46385
#
# Compressibility (1/GPa) = 0.03023681
#
# Stress axis : x y z
#
# Youngs Moduli (GPa) = 106.89750 69.99567 58.13524
#
# Poissons Ratio (x) = 0.33139 0.24481
# Poissons Ratio (y) = 0.50610 -0.21176
# Poissons Ratio (z) = 0.45015 -0.25497
#
# Static dielectric constant tensor:
#      x y z
#    x 1.752070 0.000000 0.000000 
#    y 0.000000 1.724650 0.000000 
#    z 0.000000 0.000000 1.655010 
# 
# From -- ./inp_files/19354.got.cif
#   From: 2010.05.17/outbox.cif.g08.bks.cpg/sg67_10_cif.got.tgz:19354.got - 2010.06.03 18:28:57.
