data_PCOD9501867
_publ_section_title
;
Structure prediction by ZEFSAII (Michael W. Deem and Ramdas Pophale) SiO2 
 PCOD9501867
Probable space group: C M M A
;
_chemical_formula_sum "Si O2"
_cell_formula_units_Z 64
_cell_length_a 34.197223
_cell_length_b 15.416698
_cell_length_c 5.312251
_cell_angle_alpha 90.000000
_cell_angle_beta 90.000000
_cell_angle_gamma 90.000000
_cell_volume 2800.662603
_symmetry_space_group_name_H-M "C M M A"
_symmetry_group_IT_number 67
_symmetry_cell_setting 'orthorhombic'
loop_
_space_group_symop_operation_xyz
x,y,z
-x,1/2-y,z
x,-y,-z
-x,1/2+y,-z
-x,-y,-z
x,1/2+y,-z
-x,y,z
x,1/2-y,z
1/2+x,1/2+y,z
1/2-x,-y,z
1/2+x,1/2-y,-z
1/2-x,y,-z
1/2-x,1/2-y,-z
1/2+x,y,-z
1/2-x,1/2+y,z
1/2+x,-y,z
loop_
_atom_site_type_symbol
_atom_site_label
_atom_site_fract_x
_atom_site_fract_y
_atom_site_fract_z
Si Si1 0.954807 0.100868 0.701405
Si Si2 0.704623 0.895959 0.522040
Si Si3 0.075815 0.904282 0.800955
Si Si4 0.157810 0.151532 0.029626
O O1 0.928552 0.137259 0.474987
O O2 0.000000 0.103894 0.626876
O O3 0.941271 0.000867 0.750261
O O4 0.948747 0.140124 0.977328
O O5 0.750000 0.869731 0.500000
O O6 0.683594 0.856107 0.280254
O O7 0.702886 0.000000 0.500000
O O8 0.682962 0.873077 0.783426
O O9 0.119617 0.904836 0.906679
O O10 0.144179 0.250000 0.995687
#
# Coordination Sequence:
#
# PCOD9501867 Si02
#       4
#    16  16  16  16
#     4  10  19  34  60  90 120 167 221 267 316 376
#     4  11  26  46  70  97 128 168 223 279 323 386
#     4  10  20  33  56  89 124 160 206 271 311 374
#     4  12  26  42  66  98 137 176 214 264 339 407
#
# _framework density 22.851737
#
# number of rings (size 3 to 8) (size 9 to 14) (size 15 to 20)
#    0.000    1.250    0.000    7.500   10.500    5.000 
#    0.000    0.000    0.000    8.250    0.000    0.000 
#    0.000    0.000    0.000    0.000    0.000    0.000 
#
# Total GULP energy -178747.101990 kJ/mol
# GULP energy per Si atom -5585.846937 kJ/mol
# Density = 2.279972 g / cm^3
# Si number density = 22.851737 Si / 1000 Ang^3
#
#
#
# Elastic Constant Matrix: (Units=GPa)
#
#
# Indices 1 2 3 4 5 6 
#
# 1 152.2544 13.5593 67.0642 0.0000 0.0000 0.0000
# 2 13.5593 58.3800 11.4867 0.0000 0.0000 0.0000
# 3 67.0642 11.4867 238.1929 0.0000 0.0000 0.0000
# 4 0.0000 0.0000 0.0000 52.7352 0.0000 0.0000
# 5 0.0000 0.0000 0.0000 0.0000 49.4136 0.0000
# 6 0.0000 0.0000 0.0000 0.0000 0.0000 -7.2981
#
#
#
# Elastic Compliance Matrix: (Units=1/GPa)
#
#
# Indices 1 2 3 4 5 6 
#
# 1 0.007603 -0.001358 -0.002075 0.000000 0.000000 0.000000
# 2 -0.001358 0.017536 -0.000463 0.000000 0.000000 0.000000
# 3 -0.002075 -0.000463 0.004805 0.000000 0.000000 0.000000
# 4 0.000000 0.000000 0.000000 0.018963 0.000000 0.000000
# 5 0.000000 0.000000 0.000000 0.000000 0.020237 0.000000
# 6 0.000000 0.000000 0.000000 0.000000 0.000000 -0.137022
#
#
# Mechanical properties :
#
#
# Convention : Reuss Voigt Hill
#
# Bulk Modulus (GPa) = 45.14432 70.33861 57.74146
# Shear Modulus (GPa) = -94.87205 42.75129 -26.06038
#
# Velocity S-wave (km/s) = -6.45031 4.32998 -3.38066
# Velocity P-wave (km/s) = 5.97303 7.47299 3.17557
#
# Compressibility (1/GPa) = 0.02215118
#
# Stress axis : x y z
#
# Youngs Moduli (GPa) = 131.52860 57.02678 208.12102
#
# Poissons Ratio (x) = 0.07742 0.43189
# Poissons Ratio (y) = 0.17855 0.09645
# Poissons Ratio (z) = 0.27294 0.02643
#
# Static dielectric constant tensor:
#      x y z
#    x 1.872180 0.000000 0.000000 
#    y 0.000000 2.058880 0.000000 
#    z 0.000000 0.000000 1.949050 
# 
# From -- ./inp_files/4571.got.cif
#   From: 2010.05.17/outbox.cif.g08.bks.cpg/sg67_3_cif.got.tgz:4571.got - 2010.06.03 18:28:57.
