data_PCOD9501296
_publ_section_title
;
Structure prediction by ZEFSAII (Michael W. Deem and Ramdas Pophale) SiO2 
 PCOD9501296
Probable space group: C M M A
;
_chemical_formula_sum "Si O2"
_cell_formula_units_Z 104
_cell_length_a 27.831099
_cell_length_b 8.497647
_cell_length_c 21.532979
_cell_angle_alpha 90.000000
_cell_angle_beta 90.000000
_cell_angle_gamma 90.000000
_cell_volume 5092.524877
_symmetry_space_group_name_H-M "C M M A"
_symmetry_group_IT_number 67
_symmetry_cell_setting 'orthorhombic'
loop_
_space_group_symop_operation_xyz
x,y,z
-x,1/2-y,z
x,-y,-z
-x,1/2+y,-z
-x,-y,-z
x,1/2+y,-z
-x,y,z
x,1/2-y,z
1/2+x,1/2+y,z
1/2-x,-y,z
1/2+x,1/2-y,-z
1/2-x,y,-z
1/2-x,1/2-y,-z
1/2+x,y,-z
1/2-x,1/2+y,z
1/2+x,-y,z
loop_
_atom_site_type_symbol
_atom_site_label
_atom_site_fract_x
_atom_site_fract_y
_atom_site_fract_z
Si Si1 0.555060 0.432464 0.405993
Si Si2 0.903702 0.061268 0.855505
Si Si3 0.150503 0.930904 0.563872
Si Si4 0.000000 0.559860 0.070009
Si Si5 0.802863 0.059969 0.310791
Si Si6 0.803522 0.439134 0.167767
Si Si7 0.556190 0.570457 0.270962
O O1 0.500000 0.465330 0.423195
O O2 0.566106 0.250000 0.419096
O O3 0.593331 0.545738 0.436999
O O4 0.559240 0.465942 0.332315
O O5 0.902624 0.250000 0.855982
O O6 0.949899 0.009321 0.896773
O O7 0.849996 0.999139 0.870332
O O8 0.915850 0.998058 0.786919
O O9 0.163689 0.750000 0.564571
O O10 0.166012 0.999131 0.630883
O O11 0.170747 0.000000 0.500000
O O12 0.000000 0.750000 0.071567
O O13 0.000000 0.500000 0.000000
O O14 0.805236 0.250000 0.309123
O O15 0.812130 0.007579 0.239853
O O16 0.750000 0.000000 0.325335
O O17 0.802830 0.250000 0.166064
O O18 0.750000 0.500000 0.150192
O O19 0.500000 0.575941 0.253885
O O20 0.572325 0.750000 0.284957
#
# Coordination Sequence:
#
# PCOD9501296 Si02
#       7
#    16  16  16   8  16  16  16
#     4  10  21  36  54  76 103 137 177 227 286 346
#     4  11  21  36  58  87 123 162 202 250 296 347
#     4  11  23  38  54  74 101 136 182 232 281 345
#     4  10  24  42  62  90 128 170 213 252 295 344
#     4   9  20  37  57  80 108 139 178 226 282 342
#     4  10  20  36  59  90 122 156 196 244 303 364
#     4  10  19  31  51  81 113 146 185 231 288 353
#
# _framework density 20.422090000000001
#
# number of rings (size 3 to 8) (size 9 to 14) (size 15 to 20)
#    0.000    1.846    0.769    3.231    0.000    6.462 
#    0.000    1.538    0.000    0.462    0.000    3.231 
#    0.000    0.000    0.000    0.000    0.000    0.000 
#
# Total GULP energy -290148.943092 kJ/mol
# GULP energy per Si atom -5579.787367 kJ/mol
# Density = 2.037561 g / cm^3
# Si number density = 20.422090 Si / 1000 Ang^3
#
#
#
# Elastic Constant Matrix: (Units=GPa)
#
#
# Indices 1 2 3 4 5 6 
#
# 1 139.6228 24.6004 38.4440 0.0000 0.0000 0.0000
# 2 24.6004 31.5095 1.8589 0.0000 0.0000 0.0000
# 3 38.4440 1.8589 33.7092 0.0000 0.0000 0.0000
# 4 0.0000 0.0000 0.0000 24.4787 0.0000 0.0000
# 5 0.0000 0.0000 0.0000 0.0000 -21.1891 0.0000
# 6 0.0000 0.0000 0.0000 0.0000 0.0000 27.9841
#
#
#
# Elastic Compliance Matrix: (Units=1/GPa)
#
#
# Indices 1 2 3 4 5 6 
#
# 1 0.012549 -0.008982 -0.013816 0.000000 0.000000 0.000000
# 2 -0.008982 0.038269 0.008133 0.000000 0.000000 0.000000
# 3 -0.013816 0.008133 0.044974 0.000000 0.000000 0.000000
# 4 0.000000 0.000000 0.000000 0.040852 0.000000 0.000000
# 5 0.000000 0.000000 0.000000 0.000000 -0.047194 0.000000
# 6 0.000000 0.000000 0.000000 0.000000 0.000000 0.035735
#
#
# Mechanical properties :
#
#
# Convention : Reuss Voigt Hill
#
# Bulk Modulus (GPa) = 15.04619 37.18312 26.11466
# Shear Modulus (GPa) = 28.30166 15.58396 21.94281
#
# Velocity S-wave (km/s) = 3.72672 2.76541 3.28146
# Velocity P-wave (km/s) = 5.08935 5.33324 5.21273
#
# Compressibility (1/GPa) = 0.06646199
#
# Stress axis : x y z
#
# Youngs Moduli (GPa) = 79.68814 26.13065 22.23521
#
# Poissons Ratio (x) = 0.23471 0.30721
# Poissons Ratio (y) = 0.71577 -0.18085
# Poissons Ratio (z) = 1.10099 -0.21253
#
# Static dielectric constant tensor:
#      x y z
#    x 1.783190 0.000000 0.000000 
#    y 0.000000 1.708620 0.000000 
#    z 0.000000 0.000000 1.732940 
# 
# From -- ./inp_files/37320.got.cif
#   From: 2010.05.17/outbox.cif.g08.bks.cpg/sg67_19_cif.got.tgz:37320.got - 2010.06.03 18:28:57.
