data_PCOD9501385
_publ_section_title
;
Structure prediction by ZEFSAII (Michael W. Deem and Ramdas Pophale) SiO2 
 PCOD9501385
Probable space group: C M M A
;
_chemical_formula_sum "Si O2"
_cell_formula_units_Z 96
_cell_length_a 24.636197
_cell_length_b 13.711591
_cell_length_c 13.861118
_cell_angle_alpha 90.000000
_cell_angle_beta 90.000000
_cell_angle_gamma 90.000000
_cell_volume 4682.305857
_symmetry_space_group_name_H-M "C M M A"
_symmetry_group_IT_number 67
_symmetry_cell_setting 'orthorhombic'
loop_
_space_group_symop_operation_xyz
x,y,z
-x,1/2-y,z
x,-y,-z
-x,1/2+y,-z
-x,-y,-z
x,1/2+y,-z
-x,y,z
x,1/2-y,z
1/2+x,1/2+y,z
1/2-x,-y,z
1/2+x,1/2-y,-z
1/2-x,y,-z
1/2-x,1/2-y,-z
1/2+x,y,-z
1/2-x,1/2+y,z
1/2+x,-y,z
loop_
_atom_site_type_symbol
_atom_site_label
_atom_site_fract_x
_atom_site_fract_y
_atom_site_fract_z
Si Si1 0.000000 0.868279 0.777832
Si Si2 0.273443 0.131480 0.897418
Si Si3 0.836641 0.867380 0.607617
Si Si4 0.500000 0.023889 0.387355
Si Si5 0.888163 0.867942 0.403710
Si Si6 0.276254 0.131691 0.307242
Si Si7 0.616131 0.367638 0.816357
O O1 0.054617 0.897407 0.833503
O O2 0.000000 0.750000 0.761822
O O3 0.000000 0.926683 0.677356
O O4 0.274941 0.250000 0.896273
O O5 0.238587 0.105310 0.802614
O O6 0.334733 0.094892 0.881048
O O7 0.250000 0.103139 0.000000
O O8 0.832920 0.750000 0.601341
O O9 0.869895 0.895138 0.512867
O O10 0.774340 0.899991 0.624880
O O11 0.868675 0.889570 0.705545
O O12 0.555512 0.084430 0.371179
O O13 0.500000 0.000000 0.500000
O O14 0.893549 0.750000 0.399579
O O15 0.835715 0.898844 0.340962
O O16 0.276566 0.250000 0.312312
O O17 0.617031 0.250000 0.824516
#
# Coordination Sequence:
#
# PCOD9501385 Si02
#       7
#     8  16  16   8  16  16  16
#     4  10  20  35  52  68  95 135 177 220 251 284
#     4   8  13  23  44  77 108 127 156 207 256 302
#     4   8  13  23  43  70  98 132 170 203 240 290
#     4  12  25  35  48  72 100 135 178 210 248 302
#     4  10  19  32  50  73 105 139 170 206 245 293
#     4   8  14  25  45  73 102 136 170 199 247 305
#     4   8  14  25  44  69  95 127 165 204 253 297
#
# _framework density 20.50272
#
# number of rings (size 3 to 8) (size 9 to 14) (size 15 to 20)
#    0.000    3.167    0.000    3.750    0.000    4.000 
#    0.000    0.000    0.000   15.000    0.000    9.333 
#    0.000    2.667    0.000    0.000    0.000    0.167 
#
# Total GULP energy -267942.681523 kJ/mol
# GULP energy per Si atom -5582.139198 kJ/mol
# Density = 2.045605 g / cm^3
# Si number density = 20.502720 Si / 1000 Ang^3
#
#
#
# Elastic Constant Matrix: (Units=GPa)
#
#
# Indices 1 2 3 4 5 6 
#
# 1 222.7506 26.3230 73.3899 0.0000 0.0000 0.0000
# 2 26.3230 77.1451 0.4812 0.0000 0.0000 0.0000
# 3 73.3899 0.4812 91.8196 0.0000 0.0000 0.0000
# 4 0.0000 0.0000 0.0000 -7.9238 0.0000 0.0000
# 5 0.0000 0.0000 0.0000 0.0000 20.1780 0.0000
# 6 0.0000 0.0000 0.0000 0.0000 0.0000 23.7628
#
#
#
# Elastic Compliance Matrix: (Units=1/GPa)
#
#
# Indices 1 2 3 4 5 6 
#
# 1 0.006436 -0.002164 -0.005133 0.000000 0.000000 0.000000
# 2 -0.002164 0.013691 0.001658 0.000000 0.000000 0.000000
# 3 -0.005133 0.001658 0.014985 0.000000 0.000000 0.000000
# 4 0.000000 0.000000 0.000000 -0.126201 0.000000 0.000000
# 5 0.000000 0.000000 0.000000 0.000000 0.049559 0.000000
# 6 0.000000 0.000000 0.000000 0.000000 0.000000 0.042083
#
#
# Mechanical properties :
#
#
# Convention : Reuss Voigt Hill
#
# Bulk Modulus (GPa) = 41.95761 65.78929 53.87345
# Shear Modulus (GPa) = 252.84715 26.63814 139.74264
#
# Velocity S-wave (km/s) = 11.11717 3.60842 8.26475
# Velocity P-wave (km/s) = 13.61240 7.03695 10.83550
#
# Compressibility (1/GPa) = 0.02383358
#
# Stress axis : x y z
#
# Youngs Moduli (GPa) = 155.36962 73.04237 66.73334
#
# Poissons Ratio (x) = 0.15807 0.34255
# Poissons Ratio (y) = 0.33624 -0.11064
# Poissons Ratio (z) = 0.79752 -0.12110
#
# Static dielectric constant tensor:
#      x y z
#    x 1.749330 0.000000 0.000000 
#    y 0.000000 1.790970 0.000000 
#    z 0.000000 0.000000 1.692080 
# 
# From -- ./inp_files/30074.got.cif
#   From: 2010.05.17/outbox.cif.g08.bks.cpg/sg67_16_cif.got.tgz:30074.got - 2010.06.03 18:28:57.
