data_PCOD9501361
_publ_section_title
;
Structure prediction by ZEFSAII (Michael W. Deem and Ramdas Pophale) SiO2 
 PCOD9501361
Probable space group: C M M A
;
_chemical_formula_sum "Si O2"
_cell_formula_units_Z 104
_cell_length_a 8.935801
_cell_length_b 31.232368
_cell_length_c 23.374541
_cell_angle_alpha 90.000000
_cell_angle_beta 90.000000
_cell_angle_gamma 90.000000
_cell_volume 6523.512414
_symmetry_space_group_name_H-M "C M M A"
_symmetry_group_IT_number 67
_symmetry_cell_setting 'orthorhombic'
loop_
_space_group_symop_operation_xyz
x,y,z
-x,1/2-y,z
x,-y,-z
-x,1/2+y,-z
-x,-y,-z
x,1/2+y,-z
-x,y,z
x,1/2-y,z
1/2+x,1/2+y,z
1/2-x,-y,z
1/2+x,1/2-y,-z
1/2-x,y,-z
1/2-x,1/2-y,-z
1/2+x,y,-z
1/2-x,1/2+y,z
1/2+x,-y,z
loop_
_atom_site_type_symbol
_atom_site_label
_atom_site_fract_x
_atom_site_fract_y
_atom_site_fract_z
Si Si1 0.176185 0.660829 0.883409
Si Si2 0.678410 0.250000 0.938822
Si Si3 0.320034 0.955531 0.818313
Si Si4 0.320732 0.200138 0.679150
Si Si5 0.170700 0.198187 0.557863
Si Si6 0.323099 0.366212 0.232490
Si Si7 0.323717 0.571599 0.060553
O O1 0.219373 0.706734 0.906922
O O2 0.279814 0.651054 0.829929
O O3 0.190089 0.622947 0.929750
O O4 0.000000 0.661213 0.865808
O O5 0.500000 0.250000 0.944355
O O6 0.750000 0.250000 0.000000
O O7 0.500000 0.957452 0.822288
O O8 0.279937 0.916337 0.775557
O O9 0.254253 0.946983 0.882277
O O10 0.250000 0.000000 0.798305
O O11 0.500000 0.199397 0.680063
O O12 0.274649 0.250000 0.692458
O O13 0.260960 0.189445 0.615744
O O14 0.258076 0.164577 0.722412
O O15 0.165370 0.250000 0.553688
O O16 0.250000 0.182507 0.500000
O O17 0.000000 0.182781 0.561975
O O18 0.500000 0.364098 0.242925
O O19 0.500000 0.560505 0.060705
O O20 0.250000 0.559338 0.000000
#
# Coordination Sequence:
#
# PCOD9501361 Si02
#       7
#    16   8  16  16  16  16  16
#     4   9  19  33  47  64  89 121 154 192 237 284
#     4  10  20  32  46  64  86 114 153 194 233 278
#     4  10  21  37  55  74  95 120 152 193 243 298
#     4  10  20  32  48  71 101 138 175 208 241 281
#     4   9  16  27  44  67  98 135 174 212 247 283
#     4  10  21  35  51  72  97 124 158 200 243 287
#     4  10  19  32  50  70  93 119 148 187 236 291
#
# _framework density 15.942330999999999
#
# number of rings (size 3 to 8) (size 9 to 14) (size 15 to 20)
#    0.000    2.308    0.000    2.769    1.077    6.154 
#    0.000    1.538    0.000    0.000    0.000    0.000 
#    0.000    0.615    0.000    6.462    0.000    3.846 
#
# Total GULP energy -289879.149984 kJ/mol
# GULP energy per Si atom -5574.599038 kJ/mol
# Density = 1.590605 g / cm^3
# Si number density = 15.942331 Si / 1000 Ang^3
#
#
#
# Elastic Constant Matrix: (Units=GPa)
#
#
# Indices 1 2 3 4 5 6 
#
# 1 67.7038 43.1800 43.1826 0.0000 0.0000 0.0000
# 2 43.1800 107.3545 43.6476 0.0000 0.0000 0.0000
# 3 43.1826 43.6476 83.6443 0.0000 0.0000 0.0000
# 4 0.0000 0.0000 0.0000 4.9217 0.0000 0.0000
# 5 0.0000 0.0000 0.0000 0.0000 30.4380 0.0000
# 6 0.0000 0.0000 0.0000 0.0000 0.0000 21.0405
#
#
#
# Elastic Compliance Matrix: (Units=1/GPa)
#
#
# Indices 1 2 3 4 5 6 
#
# 1 0.024771 -0.006047 -0.009633 0.000000 0.000000 0.000000
# 2 -0.006047 0.013299 -0.003818 0.000000 0.000000 0.000000
# 3 -0.009633 -0.003818 0.018921 0.000000 0.000000 0.000000
# 4 0.000000 0.000000 0.000000 0.203181 0.000000 0.000000
# 5 0.000000 0.000000 0.000000 0.000000 0.032854 0.000000
# 6 0.000000 0.000000 0.000000 0.000000 0.000000 0.047527
#
#
# Mechanical properties :
#
#
# Convention : Reuss Voigt Hill
#
# Bulk Modulus (GPa) = 55.56997 57.63588 56.60292
# Shear Modulus (GPa) = 12.96857 19.85954 16.41406
#
# Velocity S-wave (km/s) = 2.85523 3.53329 3.21220
# Velocity P-wave (km/s) = 6.76774 7.27164 7.02421
#
# Compressibility (1/GPa) = 0.01799533
#
# Stress axis : x y z
#
# Youngs Moduli (GPa) = 40.37019 75.19109 52.85145
#
# Poissons Ratio (x) = 0.45466 0.50911
# Poissons Ratio (y) = 0.24411 0.20180
# Poissons Ratio (z) = 0.38888 0.28710
#
# Static dielectric constant tensor:
#      x y z
#    x 1.541840 0.000000 0.000000 
#    y 0.000000 1.563590 0.000000 
#    z 0.000000 0.000000 1.503530 
# 
# From -- ./inp_files/37491.got.cif
#   From: 2010.05.17/outbox.cif.g08.bks.cpg/sg67_19_cif.got.tgz:37491.got - 2010.06.03 18:28:57.
