data_PCOD9501853
_publ_section_title
;
Structure prediction by ZEFSAII (Michael W. Deem and Ramdas Pophale) SiO2 
 PCOD9501853
Probable space group: C M M A
;
_chemical_formula_sum "Si O2"
_cell_formula_units_Z 96
_cell_length_a 14.710997
_cell_length_b 28.974681
_cell_length_c 9.592067
_cell_angle_alpha 90.000000
_cell_angle_beta 90.000000
_cell_angle_gamma 90.000000
_cell_volume 4088.584462
_symmetry_space_group_name_H-M "C M M A"
_symmetry_group_IT_number 67
_symmetry_cell_setting 'orthorhombic'
loop_
_space_group_symop_operation_xyz
x,y,z
-x,1/2-y,z
x,-y,-z
-x,1/2+y,-z
-x,-y,-z
x,1/2+y,-z
-x,y,z
x,1/2-y,z
1/2+x,1/2+y,z
1/2-x,-y,z
1/2+x,1/2-y,-z
1/2-x,y,-z
1/2-x,1/2-y,-z
1/2+x,y,-z
1/2-x,1/2+y,z
1/2+x,-y,z
loop_
_atom_site_type_symbol
_atom_site_label
_atom_site_fract_x
_atom_site_fract_y
_atom_site_fract_z
Si Si1 0.389580 0.543145 0.101870
Si Si2 0.650444 0.955410 0.426672
Si Si3 0.146977 0.145975 0.450602
Si Si4 0.109043 0.801409 0.820031
Si Si5 0.891072 0.133558 0.933239
Si Si6 0.895453 0.698731 0.291813
O O1 0.500000 0.545585 0.122620
O O2 0.348077 0.539542 0.257968
O O3 0.358380 0.588397 0.015295
O O4 0.370842 0.500000 0.000000
O O5 0.750000 0.953257 0.500000
O O6 0.607446 0.905529 0.459049
O O7 0.606465 0.000000 0.500000
O O8 0.250000 0.144498 0.500000
O O9 0.143043 0.163287 0.294095
O O10 0.102639 0.184766 0.547147
O O11 0.144471 0.750000 0.801827
O O12 0.127938 0.822445 0.969949
O O13 0.000000 0.800239 0.806564
O O14 0.000000 0.125090 0.921199
O O15 0.856453 0.153166 0.785910
O O16 0.855071 0.750000 0.272156
O O17 0.000000 0.702041 0.242619
#
# Coordination Sequence:
#
# PCOD9501853 Si02
#       6
#    16  16  16  16  16  16
#     4  10  21  38  65 100 126 151 200 266 326 368
#     4  10  23  43  63  85 122 165 207 248 303 385
#     4  11  23  38  58  83 119 158 199 249 296 359
#     4  10  19  34  59  86 113 153 199 243 297 358
#     4   9  18  35  58  86 120 151 190 245 300 358
#     4  10  21  37  59  88 120 159 204 247 300 363
#
# _framework density 23.480008000000002
#
# number of rings (size 3 to 8) (size 9 to 14) (size 15 to 20)
#    0.000    2.000    1.667    1.500    2.333    5.667 
#    0.000    2.500    0.000    2.000    0.000    0.000 
#    0.000    0.000    0.000    0.000    0.000    0.000 
#
# Total GULP energy -267927.314222 kJ/mol
# GULP energy per Si atom -5581.819046 kJ/mol
# Density = 2.342657 g / cm^3
# Si number density = 23.480008 Si / 1000 Ang^3
#
#
#
# Elastic Constant Matrix: (Units=GPa)
#
#
# Indices 1 2 3 4 5 6 
#
# 1 70.9148 16.3530 18.7758 0.0000 0.0000 0.0000
# 2 16.3530 153.5556 15.8939 0.0000 0.0000 0.0000
# 3 18.7758 15.8939 97.2001 0.0000 0.0000 0.0000
# 4 0.0000 0.0000 0.0000 40.3563 0.0000 0.0000
# 5 0.0000 0.0000 0.0000 0.0000 -53.0281 0.0000
# 6 0.0000 0.0000 0.0000 0.0000 0.0000 -40.6580
#
#
#
# Elastic Compliance Matrix: (Units=1/GPa)
#
#
# Indices 1 2 3 4 5 6 
#
# 1 0.015124 -0.001331 -0.002704 0.000000 0.000000 0.000000
# 2 -0.001331 0.006742 -0.000845 0.000000 0.000000 0.000000
# 3 -0.002704 -0.000845 0.010949 0.000000 0.000000 0.000000
# 4 0.000000 0.000000 0.000000 0.024779 0.000000 0.000000
# 5 0.000000 0.000000 0.000000 0.000000 -0.018858 0.000000
# 6 0.000000 0.000000 0.000000 0.000000 0.000000 -0.024595
#
#
# Mechanical properties :
#
#
# Convention : Reuss Voigt Hill
#
# Bulk Modulus (GPa) = 43.37574 47.07955 45.22765
# Shear Modulus (GPa) = 158.30331 7.37723 82.84027
#
# Velocity S-wave (km/s) = 8.21990 1.77447 5.94624
# Velocity P-wave (km/s) = 10.42126 4.92877 8.15155
#
# Compressibility (1/GPa) = 0.02305436
#
# Stress axis : x y z
#
# Youngs Moduli (GPa) = 66.11921 148.33456 91.33609
#
# Poissons Ratio (x) = 0.19740 0.24696
# Poissons Ratio (y) = 0.08799 0.07721
# Poissons Ratio (z) = 0.17878 0.12539
#
# Static dielectric constant tensor:
#      x y z
#    x 1.970280 0.000000 0.000000 
#    y 0.000000 1.904210 0.000000 
#    z 0.000000 0.000000 1.587730 
# 
# From -- ./inp_files/11444.got.cif
#   From: 2010.05.17/outbox.cif.g08.bks.cpg/sg67_6_cif.got.tgz:11444.got - 2010.06.03 18:28:57.
