data_PCOD9501969
_publ_section_title
;
Structure prediction by ZEFSAII (Michael W. Deem and Ramdas Pophale) SiO2 
 PCOD9501969
Probable space group: C M M A
;
_chemical_formula_sum "Si O2"
_cell_formula_units_Z 112
_cell_length_a 19.049502
_cell_length_b 25.204412
_cell_length_c 12.603831
_cell_angle_alpha 90.000000
_cell_angle_beta 90.000000
_cell_angle_gamma 90.000000
_cell_volume 6051.496243
_symmetry_space_group_name_H-M "C M M A"
_symmetry_group_IT_number 67
_symmetry_cell_setting 'orthorhombic'
loop_
_space_group_symop_operation_xyz
x,y,z
-x,1/2-y,z
x,-y,-z
-x,1/2+y,-z
-x,-y,-z
x,1/2+y,-z
-x,y,z
x,1/2-y,z
1/2+x,1/2+y,z
1/2-x,-y,z
1/2+x,1/2-y,-z
1/2-x,y,-z
1/2-x,1/2-y,-z
1/2+x,y,-z
1/2-x,1/2+y,z
1/2+x,-y,z
loop_
_atom_site_type_symbol
_atom_site_label
_atom_site_fract_x
_atom_site_fract_y
_atom_site_fract_z
Si Si1 0.834294 0.999275 0.297029
Si Si2 0.825691 0.381956 0.357791
Si Si3 0.417973 0.307434 0.268330
Si Si4 0.839921 0.607626 0.407389
Si Si5 0.351541 0.156424 0.065776
Si Si6 0.582238 0.957204 0.906112
Si Si7 0.299163 0.687644 0.158086
O O1 0.849999 0.955326 0.387758
O O2 0.877353 0.980251 0.195315
O O3 0.750000 0.000000 0.276918
O O4 0.851545 0.059671 0.324920
O O5 0.857261 0.372285 0.474434
O O6 0.742214 0.384398 0.381509
O O7 0.832052 0.341286 0.260360
O O8 0.500000 0.308769 0.290269
O O9 0.389000 0.250000 0.303853
O O10 0.382122 0.357034 0.324558
O O11 0.403975 0.313133 0.143433
O O12 0.377816 0.096214 0.060229
O O13 0.275771 0.161705 0.124593
O O14 0.344448 0.180039 0.948605
O O15 0.500000 0.946063 0.882384
O O16 0.585029 0.000000 0.000000
O O17 0.288032 0.750000 0.178195
#
# Coordination Sequence:
#
# PCOD9501969 Si02
#       7
#    16  16  16  16  16  16  16
#     4  10  19  36  57  86 117 154 199 247 299 357
#     4  10  20  35  57  85 118 156 194 244 307 357
#     4  11  22  37  59  85 115 155 202 245 292 354
#     4  10  20  35  57  85 118 154 197 247 295 351
#     4  11  20  37  57  83 117 155 194 240 306 361
#     4  11  23  37  57  86 122 157 196 248 304 365
#     4  11  22  36  58  88 122 154 195 256 310 362
#
# _framework density 18.507819000000001
#
# number of rings (size 3 to 8) (size 9 to 14) (size 15 to 20)
#    0.000    1.429    2.857    4.286    0.000    3.714 
#    0.000    2.143    0.000    3.429    0.000    2.000 
#    0.000    0.000    0.000    0.000    0.000    0.000 
#
# Total GULP energy -312440.660104 kJ/mol
# GULP energy per Si atom -5579.297502 kJ/mol
# Density = 1.846569 g / cm^3
# Si number density = 18.507819 Si / 1000 Ang^3
#
#
#
# Elastic Constant Matrix: (Units=GPa)
#
#
# Indices 1 2 3 4 5 6 
#
# 1 39.1410 40.5533 22.6384 0.0000 0.0000 0.0000
# 2 40.5533 130.2210 45.4384 0.0000 0.0000 0.0000
# 3 22.6384 45.4384 120.4559 0.0000 0.0000 0.0000
# 4 0.0000 0.0000 0.0000 20.8134 0.0000 0.0000
# 5 0.0000 0.0000 0.0000 0.0000 9.6403 0.0000
# 6 0.0000 0.0000 0.0000 0.0000 0.0000 19.6183
#
#
#
# Elastic Compliance Matrix: (Units=1/GPa)
#
#
# Indices 1 2 3 4 5 6 
#
# 1 0.038725 -0.010963 -0.003142 0.000000 0.000000 0.000000
# 2 -0.010963 0.011947 -0.002446 0.000000 0.000000 0.000000
# 3 -0.003142 -0.002446 0.009815 0.000000 0.000000 0.000000
# 4 0.000000 0.000000 0.000000 0.048046 0.000000 0.000000
# 5 0.000000 0.000000 0.000000 0.000000 0.103731 0.000000
# 6 0.000000 0.000000 0.000000 0.000000 0.000000 0.050973
#
#
# Mechanical properties :
#
#
# Convention : Reuss Voigt Hill
#
# Bulk Modulus (GPa) = 36.51852 56.34201 46.43027
# Shear Modulus (GPa) = 16.36834 22.09361 19.23097
#
# Velocity S-wave (km/s) = 2.97711 3.45881 3.22696
# Velocity P-wave (km/s) = 5.62066 6.81612 6.24705
#
# Compressibility (1/GPa) = 0.02738337
#
# Stress axis : x y z
#
# Youngs Moduli (GPa) = 25.82322 83.70334 101.88341
#
# Poissons Ratio (x) = 0.91765 0.32016
# Poissons Ratio (y) = 0.28310 0.24923
# Poissons Ratio (z) = 0.08115 0.20476
#
# Static dielectric constant tensor:
#      x y z
#    x 1.623190 0.000000 0.000000 
#    y 0.000000 1.653680 0.000000 
#    z 0.000000 0.000000 1.647640 
# 
# From -- ./inp_files/21129.got.cif
#   From: 2010.05.17/outbox.cif.g08.bks.cpg/sg67_11_cif.got.tgz:21129.got - 2010.06.03 18:28:57.
