data_PCOD9501731
_publ_section_title
;
Structure prediction by ZEFSAII (Michael W. Deem and Ramdas Pophale) SiO2 
 PCOD9501731
Probable space group: C M M A
;
_chemical_formula_sum "Si O2"
_cell_formula_units_Z 104
_cell_length_a 28.158677
_cell_length_b 20.580800
_cell_length_c 9.580556
_cell_angle_alpha 90.000000
_cell_angle_beta 90.000000
_cell_angle_gamma 90.000000
_cell_volume 5552.201412
_symmetry_space_group_name_H-M "C M M A"
_symmetry_group_IT_number 67
_symmetry_cell_setting 'orthorhombic'
loop_
_space_group_symop_operation_xyz
x,y,z
-x,1/2-y,z
x,-y,-z
-x,1/2+y,-z
-x,-y,-z
x,1/2+y,-z
-x,y,z
x,1/2-y,z
1/2+x,1/2+y,z
1/2-x,-y,z
1/2+x,1/2-y,-z
1/2-x,y,-z
1/2-x,1/2-y,-z
1/2+x,y,-z
1/2-x,1/2+y,z
1/2+x,-y,z
loop_
_atom_site_type_symbol
_atom_site_label
_atom_site_fract_x
_atom_site_fract_y
_atom_site_fract_z
Si Si1 0.142566 0.326264 0.688097
Si Si2 0.406559 0.000000 0.000000
Si Si3 0.945982 0.631927 0.124295
Si Si4 0.805887 0.576977 0.524204
Si Si5 0.196656 0.674510 0.026253
Si Si6 0.358879 0.092372 0.803898
Si Si7 0.054253 0.823366 0.813692
O O1 0.139545 0.250000 0.643818
O O2 0.092995 0.347948 0.761278
O O3 0.161662 0.375991 0.571526
O O4 0.180716 0.329882 0.814248
O O5 0.436421 0.940198 0.938218
O O6 0.374232 0.024815 0.872645
O O7 0.000000 0.637115 0.176258
O O8 0.941656 0.674626 0.982888
O O9 0.814325 0.500000 0.500000
O O10 0.750000 0.590205 0.500000
O O11 0.820778 0.589131 0.683240
O O12 0.193933 0.750000 0.983833
O O13 0.161428 0.634027 0.931328
O O14 0.250000 0.651483 0.000000
O O15 0.406943 0.127788 0.754081
O O16 0.062843 0.750000 0.765999
O O17 0.000000 0.842047 0.780999
#
# Coordination Sequence:
#
# PCOD9501731 Si02
#       7
#    16   8  16  16  16  16  16
#     4  11  22  39  61  90 126 160 204 256 311 376
#     4  10  19  34  59  90 120 154 209 256 309 364
#     4  10  19  33  57  88 124 161 198 248 308 366
#     4  11  26  45  62  83 121 167 209 253 310 380
#     4  10  20  35  58  87 116 146 194 257 310 359
#     4  11  21  37  61  85 114 156 197 253 300 364
#     4   9  17  31  56  89 119 147 188 243 303 356
#
# _framework density 18.731310000000001
#
# number of rings (size 3 to 8) (size 9 to 14) (size 15 to 20)
#    0.000    1.692    3.077    3.000    0.000    3.077 
#    0.000    0.769    0.000    1.846    0.000    0.000 
#    0.000    0.000    0.000    0.000    0.000    0.000 
#
# Total GULP energy -290148.283402 kJ/mol
# GULP energy per Si atom -5579.774681 kJ/mol
# Density = 1.868868 g / cm^3
# Si number density = 18.731310 Si / 1000 Ang^3
#
#
#
# Elastic Constant Matrix: (Units=GPa)
#
#
# Indices 1 2 3 4 5 6 
#
# 1 103.5914 30.6749 15.4332 0.0000 0.0000 0.0000
# 2 30.6749 82.4552 20.7818 0.0000 0.0000 0.0000
# 3 15.4332 20.7818 42.9734 0.0000 0.0000 0.0000
# 4 0.0000 0.0000 0.0000 19.7145 0.0000 0.0000
# 5 0.0000 0.0000 0.0000 0.0000 28.1867 0.0000
# 6 0.0000 0.0000 0.0000 0.0000 0.0000 16.0007
#
#
#
# Elastic Compliance Matrix: (Units=1/GPa)
#
#
# Indices 1 2 3 4 5 6 
#
# 1 0.011037 -0.003538 -0.002253 0.000000 0.000000 0.000000
# 2 -0.003538 0.014945 -0.005957 0.000000 0.000000 0.000000
# 3 -0.002253 -0.005957 0.026960 0.000000 0.000000 0.000000
# 4 0.000000 0.000000 0.000000 0.050724 0.000000 0.000000
# 5 0.000000 0.000000 0.000000 0.000000 0.035478 0.000000
# 6 0.000000 0.000000 0.000000 0.000000 0.000000 0.062497
#
#
# Mechanical properties :
#
#
# Convention : Reuss Voigt Hill
#
# Bulk Modulus (GPa) = 33.95961 40.31110 37.13536
# Shear Modulus (GPa) = 21.28096 23.58906 22.43501
#
# Velocity S-wave (km/s) = 3.37429 3.55257 3.46457
# Velocity P-wave (km/s) = 5.77497 6.19637 5.98938
#
# Compressibility (1/GPa) = 0.02944674
#
# Stress axis : x y z
#
# Youngs Moduli (GPa) = 90.60777 66.91026 37.09201
#
# Poissons Ratio (x) = 0.23673 0.08355
# Poissons Ratio (y) = 0.32058 0.22095
# Poissons Ratio (z) = 0.20410 0.39858
#
# Static dielectric constant tensor:
#      x y z
#    x 1.687330 0.000000 0.000000 
#    y 0.000000 1.681250 0.000000 
#    z 0.000000 0.000000 1.616650 
# 
# From -- ./inp_files/13822.got.cif
#   From: 2010.05.17/outbox.cif.g08.bks.cpg/sg67_7_cif.got.tgz:13822.got - 2010.06.03 18:28:57.
