data_PCOD9501285
_publ_section_title
;
Structure prediction by ZEFSAII (Michael W. Deem and Ramdas Pophale) SiO2 
 PCOD9501285
Probable space group: C M M A
;
_chemical_formula_sum "Si O2"
_cell_formula_units_Z 120
_cell_length_a 8.681537
_cell_length_b 28.028458
_cell_length_c 26.306197
_cell_angle_alpha 90.000000
_cell_angle_beta 90.000000
_cell_angle_gamma 90.000000
_cell_volume 6401.089420
_symmetry_space_group_name_H-M "C M M A"
_symmetry_group_IT_number 67
_symmetry_cell_setting 'orthorhombic'
loop_
_space_group_symop_operation_xyz
x,y,z
-x,1/2-y,z
x,-y,-z
-x,1/2+y,-z
-x,-y,-z
x,1/2+y,-z
-x,y,z
x,1/2-y,z
1/2+x,1/2+y,z
1/2-x,-y,z
1/2+x,1/2-y,-z
1/2-x,y,-z
1/2-x,1/2-y,-z
1/2+x,y,-z
1/2-x,1/2+y,z
1/2+x,-y,z
loop_
_atom_site_type_symbol
_atom_site_label
_atom_site_fract_x
_atom_site_fract_y
_atom_site_fract_z
Si Si1 0.178921 0.804679 0.825191
Si Si2 0.816310 0.655983 0.612954
Si Si3 0.314946 0.948052 0.245295
Si Si4 0.317404 0.553172 0.051881
Si Si5 0.684396 0.750000 0.556801
Si Si6 0.321865 0.694381 0.713496
Si Si7 0.314162 0.447880 0.635799
Si Si8 0.320534 0.896285 0.850789
O O1 0.191415 0.750000 0.841651
O O2 0.236294 0.807013 0.767033
O O3 0.286403 0.840387 0.855445
O O4 0.000000 0.819360 0.828187
O O5 0.741348 0.700283 0.582617
O O6 0.771659 0.666320 0.671257
O O7 0.767421 0.600297 0.605125
O O8 0.000000 0.658619 0.605772
O O9 0.500000 0.946996 0.242373
O O10 0.270126 0.940671 0.304487
O O11 0.245396 0.912291 0.204040
O O12 0.250000 0.000000 0.231076
O O13 0.500000 0.551279 0.048029
O O14 0.250000 0.500000 0.054473
O O15 0.266494 0.578350 0.103413
O O16 0.250000 0.575551 0.000000
O O17 0.500000 0.750000 0.557722
O O18 0.750000 0.750000 0.500000
O O19 0.500000 0.678204 0.717882
O O20 0.325875 0.750000 0.697454
O O21 0.500000 0.450273 0.634038
O O22 0.250000 0.500000 0.620057
O O23 0.500000 0.907567 0.852842
#
# Coordination Sequence:
#
# PCOD9501285 Si02
#       8
#    16  16  16  16   8  16  16  16
#     4  10  21  36  53  75 107 147 187 229 277 328
#     4  11  21  36  59  86 117 154 193 237 288 343
#     4  10  19  33  51  77 113 152 192 231 273 325
#     4  11  22  39  60  83 109 136 172 219 274 332
#     4  12  26  44  64  90 118 150 190 240 299 350
#     4  10  19  31  50  80 114 149 191 232 276 332
#     4   9  20  35  54  81 115 155 196 233 276 331
#     4  12  23  35  53  78 107 143 185 228 278 333
#
# _framework density 18.746808000000001
#
# number of rings (size 3 to 8) (size 9 to 14) (size 15 to 20)
#    0.000    1.467    0.667    6.200    0.000    4.000 
#    0.000    0.000    0.000    0.800    0.000    2.800 
#    0.000    0.000    0.000    0.000    0.000    0.000 
#
# Total GULP energy -334957.532428 kJ/mol
# GULP energy per Si atom -5582.625540 kJ/mol
# Density = 1.870414 g / cm^3
# Si number density = 18.746808 Si / 1000 Ang^3
#
#
#
# Elastic Constant Matrix: (Units=GPa)
#
#
# Indices 1 2 3 4 5 6 
#
# 1 103.5683 36.4016 16.4830 0.0000 0.0000 0.0000
# 2 36.4016 123.9706 36.8166 0.0000 0.0000 0.0000
# 3 16.4830 36.8166 29.5168 0.0000 0.0000 0.0000
# 4 0.0000 0.0000 0.0000 3.8664 0.0000 0.0000
# 5 0.0000 0.0000 0.0000 0.0000 26.2364 0.0000
# 6 0.0000 0.0000 0.0000 0.0000 0.0000 28.9972
#
#
#
# Elastic Compliance Matrix: (Units=1/GPa)
#
#
# Indices 1 2 3 4 5 6 
#
# 1 0.010971 -0.002227 -0.003349 0.000000 0.000000 0.000000
# 2 -0.002227 0.013264 -0.015301 0.000000 0.000000 0.000000
# 3 -0.003349 -0.015301 0.054835 0.000000 0.000000 0.000000
# 4 0.000000 0.000000 0.000000 0.258639 0.000000 0.000000
# 5 0.000000 0.000000 0.000000 0.000000 0.038115 0.000000
# 6 0.000000 0.000000 0.000000 0.000000 0.000000 0.034486
#
#
# Mechanical properties :
#
#
# Convention : Reuss Voigt Hill
#
# Bulk Modulus (GPa) = 26.79820 48.49534 37.64677
# Shear Modulus (GPa) = 10.76418 22.97696 16.87057
#
# Velocity S-wave (km/s) = 2.39882 3.50472 3.00312
# Velocity P-wave (km/s) = 4.69023 6.50401 5.67012
#
# Compressibility (1/GPa) = 0.03731594
#
# Stress axis : x y z
#
# Youngs Moduli (GPa) = 91.14813 75.38926 18.23659
#
# Poissons Ratio (x) = 0.16788 0.06107
# Poissons Ratio (y) = 0.20298 0.27905
# Poissons Ratio (z) = 0.30525 1.15356
#
# Static dielectric constant tensor:
#      x y z
#    x 1.633660 0.000000 0.000000 
#    y 0.000000 1.700570 0.000000 
#    z 0.000000 0.000000 1.653550 
# 
# From -- ./inp_files/43900.got.cif
#   From: 2010.05.17/outbox.cif.g08.bks.cpg/sg67_22_cif.got.tgz:43900.got - 2010.06.03 18:28:57.
