data_PCOD9501626
_publ_section_title
;
Structure prediction by ZEFSAII (Michael W. Deem and Ramdas Pophale) SiO2 
 PCOD9501626
Probable space group: C M M A
;
_chemical_formula_sum "Si O2"
_cell_formula_units_Z 88
_cell_length_a 8.939853
_cell_length_b 14.925123
_cell_length_c 31.890199
_cell_angle_alpha 90.000000
_cell_angle_beta 90.000000
_cell_angle_gamma 90.000000
_cell_volume 4255.058408
_symmetry_space_group_name_H-M "C M M A"
_symmetry_group_IT_number 67
_symmetry_cell_setting 'orthorhombic'
loop_
_space_group_symop_operation_xyz
x,y,z
-x,1/2-y,z
x,-y,-z
-x,1/2+y,-z
-x,-y,-z
x,1/2+y,-z
-x,y,z
x,1/2-y,z
1/2+x,1/2+y,z
1/2-x,-y,z
1/2+x,1/2-y,-z
1/2-x,y,-z
1/2-x,1/2-y,-z
1/2+x,y,-z
1/2-x,1/2+y,z
1/2+x,-y,z
loop_
_atom_site_type_symbol
_atom_site_label
_atom_site_fract_x
_atom_site_fract_y
_atom_site_fract_z
Si Si1 0.170544 0.140127 0.957047
Si Si2 0.679272 0.901365 0.788366
Si Si3 0.318687 0.399957 0.394853
Si Si4 0.320503 0.598920 0.697991
Si Si5 0.165304 0.855363 0.873864
Si Si6 0.680360 0.750000 0.453716
O O1 0.169881 0.250000 0.956763
O O2 0.252642 0.108459 0.914958
O O3 0.000000 0.110087 0.956781
O O4 0.250000 0.112873 0.000000
O O5 0.500000 0.903724 0.791055
O O6 0.720860 0.858578 0.742988
O O7 0.743860 0.861592 0.830871
O O8 0.750000 0.000000 0.786990
O O9 0.500000 0.402355 0.399571
O O10 0.250000 0.500000 0.397762
O O11 0.283364 0.362906 0.347762
O O12 0.243135 0.336059 0.428744
O O13 0.500000 0.590687 0.698613
O O14 0.250000 0.500000 0.697841
O O15 0.148995 0.750000 0.882165
O O16 0.000000 0.895710 0.868402
O O17 0.500000 0.750000 0.454935
O O18 0.750000 0.750000 0.500000
#
# Coordination Sequence:
#
# PCOD9501626 Si02
#       6
#    16  16  16  16  16   8
#     4   9  16  27  45  68  93 124 164 210 262 318
#     4  10  19  33  53  77 105 141 180 219 266 324
#     4  10  20  39  65  93 125 162 204 253 306 362
#     4   8  16  31  54  81 109 143 184 227 273 327
#     4  10  20  33  48  70 102 135 171 218 267 315
#     4  12  26  44  64  92 126 164 208 256 307 362
#
# _framework density 20.681266000000001
#
# number of rings (size 3 to 8) (size 9 to 14) (size 15 to 20)
#    0.000    2.364    0.000    3.000    0.000    5.091 
#    1.636    1.818    0.000    0.545    0.000    3.818 
#    0.000    0.000    0.000    0.000    0.000    0.000 
#
# Total GULP energy -245404.827952 kJ/mol
# GULP energy per Si atom -5577.382453 kJ/mol
# Density = 2.063419 g / cm^3
# Si number density = 20.681266 Si / 1000 Ang^3
#
#
#
# Elastic Constant Matrix: (Units=GPa)
#
#
# Indices 1 2 3 4 5 6 
#
# 1 137.1756 27.9918 105.3792 0.0000 0.0000 0.0000
# 2 27.9918 62.8810 43.2015 0.0000 0.0000 0.0000
# 3 105.3792 43.2015 244.3488 0.0000 0.0000 0.0000
# 4 0.0000 0.0000 0.0000 -305.6785 0.0000 0.0000
# 5 0.0000 0.0000 0.0000 0.0000 33.2313 0.0000
# 6 0.0000 0.0000 0.0000 0.0000 0.0000 20.3064
#
#
#
# Elastic Compliance Matrix: (Units=1/GPa)
#
#
# Indices 1 2 3 4 5 6 
#
# 1 0.011093 -0.001880 -0.004452 0.000000 0.000000 0.000000
# 2 -0.001880 0.018420 -0.002446 0.000000 0.000000 0.000000
# 3 -0.004452 -0.002446 0.006445 0.000000 0.000000 0.000000
# 4 0.000000 0.000000 0.000000 -0.003271 0.000000 0.000000
# 5 0.000000 0.000000 0.000000 0.000000 0.030092 0.000000
# 6 0.000000 0.000000 0.000000 0.000000 0.000000 0.049246
#
#
# Mechanical properties :
#
#
# Convention : Reuss Voigt Hill
#
# Bulk Modulus (GPa) = 54.33793 88.61672 71.47732
# Shear Modulus (GPa) = 36.84194 -32.57263 2.13465
#
# Velocity S-wave (km/s) = 4.22526 -3.97291 1.01706
# Velocity P-wave (km/s) = 7.08059 4.67936 6.00130
#
# Compressibility (1/GPa) = 0.01840335
#
# Stress axis : x y z
#
# Youngs Moduli (GPa) = 90.14313 54.28771 155.16054
#
# Poissons Ratio (x) = 0.10204 0.69076
# Poissons Ratio (y) = 0.16944 0.37954
# Poissons Ratio (z) = 0.40131 0.13279
#
# Static dielectric constant tensor:
#      x y z
#    x 1.713680 0.000000 0.000000 
#    y 0.000000 1.759880 0.000000 
#    z 0.000000 0.000000 1.770410 
# 
# From -- ./inp_files/45264.got.cif
#   From: 2010.05.17/outbox.cif.g08.bks.cpg/sg67_23_cif.got.tgz:45264.got - 2010.06.03 18:28:57.
