data_PCOD9501432
_publ_section_title
;
Structure prediction by ZEFSAII (Michael W. Deem and Ramdas Pophale) SiO2 
 PCOD9501432
Probable space group: C M M A
;
_chemical_formula_sum "Si O2"
_cell_formula_units_Z 104
_cell_length_a 9.726830
_cell_length_b 21.483140
_cell_length_c 28.946183
_cell_angle_alpha 90.000000
_cell_angle_beta 90.000000
_cell_angle_gamma 90.000000
_cell_volume 6048.676915
_symmetry_space_group_name_H-M "C M M A"
_symmetry_group_IT_number 67
_symmetry_cell_setting 'orthorhombic'
loop_
_space_group_symop_operation_xyz
x,y,z
-x,1/2-y,z
x,-y,-z
-x,1/2+y,-z
-x,-y,-z
x,1/2+y,-z
-x,y,z
x,1/2-y,z
1/2+x,1/2+y,z
1/2-x,-y,z
1/2+x,1/2-y,-z
1/2-x,y,-z
1/2-x,1/2-y,-z
1/2+x,y,-z
1/2-x,1/2+y,z
1/2+x,-y,z
loop_
_atom_site_type_symbol
_atom_site_label
_atom_site_fract_x
_atom_site_fract_y
_atom_site_fract_z
Si Si1 0.000000 0.554222 0.565876
Si Si2 0.160873 0.824745 0.304940
Si Si3 0.829904 0.938286 0.951177
Si Si4 0.757842 0.869318 0.596297
Si Si5 0.166272 0.821288 0.885008
Si Si6 0.657277 0.174547 0.781669
Si Si7 0.500000 0.410467 0.461364
Si Si8 0.350517 0.750000 0.456841
O O1 0.135477 0.574402 0.592893
O O2 0.000000 0.590134 0.516580
O O3 0.000000 0.482281 0.553827
O O4 0.180353 0.750000 0.310778
O O5 0.205854 0.857102 0.352286
O O6 0.249551 0.845759 0.260964
O O7 0.000000 0.835451 0.296729
O O8 0.803332 0.876484 0.920727
O O9 0.000000 0.946323 0.955212
O O10 0.750000 0.000000 0.931970
O O11 0.750000 0.929157 0.000000
O O12 0.633124 0.880460 0.561214
O O13 0.831983 0.808722 0.576345
O O14 0.213689 0.750000 0.895951
O O15 0.211565 0.839660 0.833099
O O16 0.000000 0.817657 0.882557
O O17 0.500000 0.152211 0.776784
O O18 0.653023 0.250000 0.780274
O O19 0.500000 0.750000 0.478255
O O20 0.250000 0.750000 0.500000
#
# Coordination Sequence:
#
# PCOD9501432 Si02
#       8
#     8  16  16  16  16  16   8   8
#     4  11  24  41  61  81  99 138 187 223 248 311
#     4  10  20  34  50  78 114 144 168 205 269 329
#     4  10  19  32  51  75 109 150 190 228 271 327
#     4  12  23  38  58  83 111 137 172 216 265 322
#     4   8  15  30  52  80 107 137 181 232 281 320
#     4   8  15  29  53  78 102 133 176 223 263 315
#     4  11  24  43  61  77 103 140 181 219 264 303
#     4  12  26  38  56  84 116 142 166 208 271 326
#
# _framework density 17.193843000000001
#
# number of rings (size 3 to 8) (size 9 to 14) (size 15 to 20)
#    0.000    2.000    2.308    3.692    2.154    1.538 
#    0.000    1.538    0.000    5.077    0.000    0.000 
#    0.000    0.000    0.000    0.000    0.000    0.000 
#
# Total GULP energy -289795.400099 kJ/mol
# GULP energy per Si atom -5572.988463 kJ/mol
# Density = 1.715471 g / cm^3
# Si number density = 17.193843 Si / 1000 Ang^3
#
#
#
# Elastic Constant Matrix: (Units=GPa)
#
#
# Indices 1 2 3 4 5 6 
#
# 1 97.7577 29.8055 42.2058 0.0000 0.0000 0.0000
# 2 29.8055 72.5444 45.6088 0.0000 0.0000 0.0000
# 3 42.2058 45.6088 106.2825 0.0000 0.0000 0.0000
# 4 0.0000 0.0000 0.0000 11.9578 0.0000 0.0000
# 5 0.0000 0.0000 0.0000 0.0000 18.2210 0.0000
# 6 0.0000 0.0000 0.0000 0.0000 0.0000 75.3489
#
#
#
# Elastic Compliance Matrix: (Units=1/GPa)
#
#
# Indices 1 2 3 4 5 6 
#
# 1 0.012753 -0.002815 -0.003856 0.000000 0.000000 0.000000
# 2 -0.002815 0.019499 -0.007250 0.000000 0.000000 0.000000
# 3 -0.003856 -0.007250 0.014051 0.000000 0.000000 0.000000
# 4 0.000000 0.000000 0.000000 0.083627 0.000000 0.000000
# 5 0.000000 0.000000 0.000000 0.000000 0.054882 0.000000
# 6 0.000000 0.000000 0.000000 0.000000 0.000000 0.013272
#
#
# Mechanical properties :
#
#
# Convention : Reuss Voigt Hill
#
# Bulk Modulus (GPa) = 54.16818 56.86941 55.51880
# Shear Modulus (GPa) = 21.54437 31.70317 26.62377
#
# Velocity S-wave (km/s) = 3.54365 4.29869 3.93930
# Velocity P-wave (km/s) = 6.95098 7.60168 7.28360
#
# Compressibility (1/GPa) = 0.01846102
#
# Stress axis : x y z
#
# Youngs Moduli (GPa) = 78.41587 51.28413 71.16810
#
# Poissons Ratio (x) = 0.14437 0.27443
# Poissons Ratio (y) = 0.22075 0.51595
# Poissons Ratio (z) = 0.30238 0.37180
#
# Static dielectric constant tensor:
#      x y z
#    x 1.584960 0.000000 0.000000 
#    y 0.000000 1.593650 0.000000 
#    z 0.000000 0.000000 1.570630 
# 
# From -- ./inp_files/43768.got.cif
#   From: 2010.05.17/outbox.cif.g08.bks.cpg/sg67_22_cif.got.tgz:43768.got - 2010.06.03 18:28:57.
