data_PCOD9501169
_publ_section_title
;
Structure prediction by ZEFSAII (Michael W. Deem and Ramdas Pophale) SiO2 
 PCOD9501169
Probable space group: C M M A
;
_chemical_formula_sum "Si O2"
_cell_formula_units_Z 120
_cell_length_a 9.393537
_cell_length_b 27.105165
_cell_length_c 29.705496
_cell_angle_alpha 90.000000
_cell_angle_beta 90.000000
_cell_angle_gamma 90.000000
_cell_volume 7563.416454
_symmetry_space_group_name_H-M "C M M A"
_symmetry_group_IT_number 67
_symmetry_cell_setting 'orthorhombic'
loop_
_space_group_symop_operation_xyz
x,y,z
-x,1/2-y,z
x,-y,-z
-x,1/2+y,-z
-x,-y,-z
x,1/2+y,-z
-x,y,z
x,1/2-y,z
1/2+x,1/2+y,z
1/2-x,-y,z
1/2+x,1/2-y,-z
1/2-x,y,-z
1/2-x,1/2-y,-z
1/2+x,y,-z
1/2-x,1/2+y,z
1/2+x,-y,z
loop_
_atom_site_type_symbol
_atom_site_label
_atom_site_fract_x
_atom_site_fract_y
_atom_site_fract_z
Si Si1 0.663852 0.309989 0.543350
Si Si2 0.670022 0.449120 0.111858
Si Si3 0.671463 0.308602 0.644277
Si Si4 0.668145 0.548899 0.780471
Si Si5 0.671797 0.750000 0.047500
Si Si6 0.660018 0.306403 0.804950
Si Si7 0.169754 0.351748 0.728388
Si Si8 0.831731 0.648036 0.901454
O O1 0.500000 0.325195 0.539170
O O2 0.666226 0.250000 0.542834
O O3 0.750000 0.327490 0.500000
O O4 0.715203 0.323452 0.593432
O O5 0.500000 0.452220 0.104092
O O6 0.750000 0.500000 0.098947
O O7 0.692925 0.443299 0.166041
O O8 0.739104 0.400648 0.089136
O O9 0.500000 0.314090 0.647626
O O10 0.701531 0.250000 0.650271
O O11 0.751870 0.339152 0.682184
O O12 0.500000 0.541546 0.775263
O O13 0.750000 0.500000 0.766739
O O14 0.709358 0.595549 0.750269
O O15 0.500000 0.750000 0.042965
O O16 0.708825 0.698756 0.073054
O O17 0.750000 0.750000 0.000000
O O18 0.500000 0.316452 0.787013
O O19 0.661762 0.250000 0.820752
O O20 0.773584 0.314126 0.766136
O O21 0.684009 0.339638 0.848484
O O22 0.000000 0.349086 0.723376
O O23 0.000000 0.638613 0.909850
#
# Coordination Sequence:
#
# PCOD9501169 Si02
#       8
#    16  16  16  16   8  16  16  16
#     4   8  14  25  41  59  80 108 148 195 236 276
#     4  10  19  33  52  77 106 135 169 210 254 299
#     4   9  18  31  43  59  87 125 163 193 227 281
#     4   9  19  32  45  64  91 121 157 198 237 280
#     4  10  22  40  60  84 112 140 174 212 255 304
#     4  10  19  31  47  67  93 130 168 197 230 278
#     4  11  21  31  42  64  95 124 157 199 239 278
#     4  10  19  34  55  78 104 135 171 209 246 296
#
# _framework density 15.865845
#
# number of rings (size 3 to 8) (size 9 to 14) (size 15 to 20)
#    0.000    2.400    2.000    2.000    0.000    4.800 
#    0.000    1.333    0.000    0.400    0.000    2.800 
#    0.000    0.533    0.000    5.867    0.000    4.533 
#
# Total GULP energy -334294.534273 kJ/mol
# GULP energy per Si atom -5571.575571 kJ/mol
# Density = 1.582973 g / cm^3
# Si number density = 15.865845 Si / 1000 Ang^3
#
#
#
# Elastic Constant Matrix: (Units=GPa)
#
#
# Indices 1 2 3 4 5 6 
#
# 1 45.1123 51.3656 35.5554 0.0000 0.0000 0.0000
# 2 51.3656 105.4250 29.5681 0.0000 0.0000 0.0000
# 3 35.5554 29.5681 59.8672 0.0000 0.0000 0.0000
# 4 0.0000 0.0000 0.0000 8.5518 0.0000 0.0000
# 5 0.0000 0.0000 0.0000 0.0000 26.0941 0.0000
# 6 0.0000 0.0000 0.0000 0.0000 0.0000 27.2846
#
#
#
# Elastic Compliance Matrix: (Units=1/GPa)
#
#
# Indices 1 2 3 4 5 6 
#
# 1 0.087619 -0.032613 -0.035930 0.000000 0.000000 0.000000
# 2 -0.032613 0.023150 0.007935 0.000000 0.000000 0.000000
# 3 -0.035930 0.007935 0.034123 0.000000 0.000000 0.000000
# 4 0.000000 0.000000 0.000000 0.116934 0.000000 0.000000
# 5 0.000000 0.000000 0.000000 0.000000 0.038323 0.000000
# 6 0.000000 0.000000 0.000000 0.000000 0.000000 0.036651
#
#
# Mechanical properties :
#
#
# Convention : Reuss Voigt Hill
#
# Bulk Modulus (GPa) = 42.23494 49.26473 45.74983
# Shear Modulus (GPa) = 10.73179 18.64713 14.68946
#
# Velocity S-wave (km/s) = 2.60361 3.43198 3.04609
# Velocity P-wave (km/s) = 5.97630 6.84273 6.42414
#
# Compressibility (1/GPa) = 0.02367708
#
# Stress axis : x y z
#
# Youngs Moduli (GPa) = 11.41311 43.19742 29.30556
#
# Poissons Ratio (x) = 1.40879 1.05294
# Poissons Ratio (y) = 0.37221 -0.23255
# Poissons Ratio (z) = 0.41007 -0.34279
#
# Static dielectric constant tensor:
#      x y z
#    x 1.536160 0.000000 0.000000 
#    y 0.000000 1.538950 0.000000 
#    z 0.000000 0.000000 1.522750 
# 
# From -- ./inp_files/43919.got.cif
#   From: 2010.05.17/outbox.cif.g08.bks.cpg/sg67_22_cif.got.tgz:43919.got - 2010.06.03 18:28:57.
