data_PCOD9501252
_publ_section_title
;
Structure prediction by ZEFSAII (Michael W. Deem and Ramdas Pophale) SiO2 
 PCOD9501252
Probable space group: C M M A
;
_chemical_formula_sum "Si O2"
_cell_formula_units_Z 96
_cell_length_a 17.502040
_cell_length_b 26.901252
_cell_length_c 11.743705
_cell_angle_alpha 90.000000
_cell_angle_beta 90.000000
_cell_angle_gamma 90.000000
_cell_volume 5529.250911
_symmetry_space_group_name_H-M "C M M A"
_symmetry_group_IT_number 67
_symmetry_cell_setting 'orthorhombic'
loop_
_space_group_symop_operation_xyz
x,y,z
-x,1/2-y,z
x,-y,-z
-x,1/2+y,-z
-x,-y,-z
x,1/2+y,-z
-x,y,z
x,1/2-y,z
1/2+x,1/2+y,z
1/2-x,-y,z
1/2+x,1/2-y,-z
1/2-x,y,-z
1/2-x,1/2-y,-z
1/2+x,y,-z
1/2-x,1/2+y,z
1/2+x,-y,z
loop_
_atom_site_type_symbol
_atom_site_label
_atom_site_fract_x
_atom_site_fract_y
_atom_site_fract_z
Si Si1 0.088463 0.394808 0.243791
Si Si2 0.231849 0.558470 0.869971
Si Si3 0.687751 0.118258 0.327753
Si Si4 0.830986 0.190943 0.358186
Si Si5 0.910383 0.804462 0.395318
Si Si6 0.412224 0.440673 0.503292
O O1 0.145849 0.424692 0.162128
O O2 0.116842 0.338198 0.266166
O O3 0.095665 0.420700 0.368344
O O4 0.000000 0.396485 0.209634
O O5 0.250000 0.500000 0.856580
O O6 0.283687 0.587516 0.779062
O O7 0.250000 0.571919 0.000000
O O8 0.754937 0.156988 0.361676
O O9 0.616572 0.154463 0.307461
O O10 0.654680 0.082448 0.426066
O O11 0.818212 0.250000 0.336512
O O12 0.872273 0.187538 0.480871
O O13 0.886986 0.750000 0.355508
O O14 0.000000 0.805822 0.412925
O O15 0.406486 0.500000 0.500000
O O16 0.500000 0.427471 0.466125
#
# Coordination Sequence:
#
# PCOD9501252 Si02
#       6
#    16  16  16  16  16  16
#     4  10  20  36  58  83 113 146 181 227 277 334
#     4  10  23  42  59  79 105 143 195 240 275 323
#     4  11  20  33  54  80 108 145 180 229 281 332
#     4  10  20  32  50  80 117 151 181 216 263 333
#     4  10  19  31  49  78 115 147 176 213 265 333
#     4  10  20  33  51  82 116 144 178 224 286 352
#
# _framework density 17.362207000000001
#
# number of rings (size 3 to 8) (size 9 to 14) (size 15 to 20)
#    0.000    1.833    1.667    3.000    2.333    2.333 
#    0.000    6.667    0.000   12.500    0.000    0.000 
#    0.000    0.000    0.000    0.000    0.000    0.000 
#
# Total GULP energy -267619.609558 kJ/mol
# GULP energy per Si atom -5575.408532 kJ/mol
# Density = 1.732269 g / cm^3
# Si number density = 17.362207 Si / 1000 Ang^3
#
#
#
# Elastic Constant Matrix: (Units=GPa)
#
#
# Indices 1 2 3 4 5 6 
#
# 1 125.9962 64.4208 69.1378 0.0000 0.0000 0.0000
# 2 64.4208 112.5945 42.5052 0.0000 0.0000 0.0000
# 3 69.1378 42.5052 76.9944 0.0000 0.0000 0.0000
# 4 0.0000 0.0000 0.0000 15.3335 0.0000 0.0000
# 5 0.0000 0.0000 0.0000 0.0000 17.3917 0.0000
# 6 0.0000 0.0000 0.0000 0.0000 0.0000 23.8073
#
#
#
# Elastic Compliance Matrix: (Units=1/GPa)
#
#
# Indices 1 2 3 4 5 6 
#
# 1 0.017800 -0.005243 -0.013089 0.000000 0.000000 0.000000
# 2 -0.005243 0.012764 -0.002339 0.000000 0.000000 0.000000
# 3 -0.013089 -0.002339 0.026032 0.000000 0.000000 0.000000
# 4 0.000000 0.000000 0.000000 0.065217 0.000000 0.000000
# 5 0.000000 0.000000 0.000000 0.000000 0.057499 0.000000
# 6 0.000000 0.000000 0.000000 0.000000 0.000000 0.042004
#
#
# Mechanical properties :
#
#
# Convention : Reuss Voigt Hill
#
# Bulk Modulus (GPa) = 65.55165 74.19030 69.87097
# Shear Modulus (GPa) = 18.67472 20.60791 19.64132
#
# Velocity S-wave (km/s) = 3.28319 3.44894 3.36708
# Velocity P-wave (km/s) = 7.22563 7.66054 7.44626
#
# Compressibility (1/GPa) = 0.01525515
#
# Stress axis : x y z
#
# Youngs Moduli (GPa) = 56.18043 78.34571 38.41357
#
# Poissons Ratio (x) = 0.41076 0.50280
# Poissons Ratio (y) = 0.29455 0.08983
# Poissons Ratio (z) = 0.73535 0.18321
#
# Static dielectric constant tensor:
#      x y z
#    x 1.643890 0.000000 0.000000 
#    y 0.000000 1.636670 0.000000 
#    z 0.000000 0.000000 1.550590 
# 
# From -- ./inp_files/19778.got.cif
#   From: 2010.05.17/outbox.cif.g08.bks.cpg/sg67_10_cif.got.tgz:19778.got - 2010.06.03 18:28:57.
