data_PCOD9501543
_publ_section_title
;
Structure prediction by ZEFSAII (Michael W. Deem and Ramdas Pophale) SiO2 
 PCOD9501543
Probable space group: C M M A
;
_chemical_formula_sum "Si O2"
_cell_formula_units_Z 96
_cell_length_a 22.783440
_cell_length_b 21.689014
_cell_length_c 10.512841
_cell_angle_alpha 90.000000
_cell_angle_beta 90.000000
_cell_angle_gamma 90.000000
_cell_volume 5194.924050
_symmetry_space_group_name_H-M "C M M A"
_symmetry_group_IT_number 67
_symmetry_cell_setting 'orthorhombic'
loop_
_space_group_symop_operation_xyz
x,y,z
-x,1/2-y,z
x,-y,-z
-x,1/2+y,-z
-x,-y,-z
x,1/2+y,-z
-x,y,z
x,1/2-y,z
1/2+x,1/2+y,z
1/2-x,-y,z
1/2+x,1/2-y,-z
1/2-x,y,-z
1/2-x,1/2-y,-z
1/2+x,y,-z
1/2-x,1/2+y,z
1/2+x,-y,z
loop_
_atom_site_type_symbol
_atom_site_label
_atom_site_fract_x
_atom_site_fract_y
_atom_site_fract_z
Si Si1 0.800681 0.750000 0.104236
Si Si2 0.213209 0.937587 0.831484
Si Si3 0.704412 0.750000 0.615748
Si Si4 0.000000 0.001372 0.779146
Si Si5 0.205375 0.116376 0.615365
Si Si6 0.632476 0.123744 0.048377
Si Si7 0.500000 0.399933 0.988438
Si Si8 0.375367 0.973940 0.715701
O O1 0.769661 0.750000 0.242144
O O2 0.841191 0.810734 0.090723
O O3 0.750000 0.750000 0.000000
O O4 0.255742 0.895953 0.743560
O O5 0.250000 0.000000 0.864422
O O6 0.160754 0.965105 0.747176
O O7 0.179968 0.903664 0.946906
O O8 0.750000 0.750000 0.500000
O O9 0.674656 0.683281 0.610599
O O10 0.942251 0.010355 0.697947
O O11 0.000000 0.937903 0.857236
O O12 0.000000 0.052187 0.892870
O O13 0.250000 0.112347 0.500000
O O14 0.157588 0.063349 0.607764
O O15 0.628449 0.072812 0.161384
O O16 0.564888 0.131307 0.998834
#
# Coordination Sequence:
#
# PCOD9501543 Si02
#       8
#     8  16   8   8  16  16   8  16
#     4  12  24  35  55  86 123 143 185 253 295 332
#     4  10  21  31  51  80 113 149 179 230 294 353
#     4  10  20  40  57  72 107 158 190 221 284 360
#     4   9  16  32  52  80 105 148 187 218 279 346
#     4  10  21  36  55  78 107 145 192 239 289 348
#     4  11  21  35  52  81 114 146 190 227 288 348
#     4   9  18  33  54  75 112 150 189 224 269 361
#     4  10  19  32  55  77 111 142 184 228 280 348
#
# _framework density 18.479576999999999
#
# number of rings (size 3 to 8) (size 9 to 14) (size 15 to 20)
#    0.000    1.833    3.333    1.500    2.333    5.333 
#    0.000    0.000    0.000    3.500    0.000    0.000 
#    0.000    4.000    0.000    0.000    0.000    0.000 
#
# Total GULP energy -267409.517874 kJ/mol
# GULP energy per Si atom -5571.031622 kJ/mol
# Density = 1.843752 g / cm^3
# Si number density = 18.479577 Si / 1000 Ang^3
#
#
#
# Elastic Constant Matrix: (Units=GPa)
#
#
# Indices 1 2 3 4 5 6 
#
# 1 138.6504 33.0617 19.1681 0.0000 0.0000 0.0000
# 2 33.0617 91.6097 11.7547 0.0000 0.0000 0.0000
# 3 19.1681 11.7547 52.6249 0.0000 0.0000 0.0000
# 4 0.0000 0.0000 0.0000 21.8522 0.0000 0.0000
# 5 0.0000 0.0000 0.0000 0.0000 17.2153 0.0000
# 6 0.0000 0.0000 0.0000 0.0000 0.0000 18.4712
#
#
#
# Elastic Compliance Matrix: (Units=1/GPa)
#
#
# Indices 1 2 3 4 5 6 
#
# 1 0.008173 -0.002643 -0.002386 0.000000 0.000000 0.000000
# 2 -0.002643 0.012093 -0.001738 0.000000 0.000000 0.000000
# 3 -0.002386 -0.001738 0.020260 0.000000 0.000000 0.000000
# 4 0.000000 0.000000 0.000000 0.045762 0.000000 0.000000
# 5 0.000000 0.000000 0.000000 0.000000 0.058088 0.000000
# 6 0.000000 0.000000 0.000000 0.000000 0.000000 0.054138
#
#
# Mechanical properties :
#
#
# Convention : Reuss Voigt Hill
#
# Bulk Modulus (GPa) = 37.05158 45.65042 41.35100
# Shear Modulus (GPa) = 22.61970 26.10110 24.36040
#
# Velocity S-wave (km/s) = 3.50242 3.76231 3.63469
# Velocity P-wave (km/s) = 6.03734 6.60531 6.32770
#
# Compressibility (1/GPa) = 0.02698941
#
# Stress axis : x y z
#
# Youngs Moduli (GPa) = 122.36029 82.69329 49.35851
#
# Poissons Ratio (x) = 0.21858 0.11779
# Poissons Ratio (y) = 0.32343 0.08580
# Poissons Ratio (z) = 0.29200 0.14375
#
# Static dielectric constant tensor:
#      x y z
#    x 1.644180 0.000000 0.000000 
#    y 0.000000 1.659600 0.000000 
#    z 0.000000 0.000000 1.682920 
# 
# From -- ./inp_files/22115.got.cif
#   From: 2010.05.17/outbox.cif.g08.bks.cpg/sg67_12_cif.got.tgz:22115.got - 2010.06.03 18:28:57.
