data_PCOD9501695
_publ_section_title
;
Structure prediction by ZEFSAII (Michael W. Deem and Ramdas Pophale) SiO2 
 PCOD9501695
Probable space group: C M M A
;
_chemical_formula_sum "Si O2"
_cell_formula_units_Z 52
_cell_length_a 14.392672
_cell_length_b 20.868584
_cell_length_c 10.713249
_cell_angle_alpha 90.000000
_cell_angle_beta 90.000000
_cell_angle_gamma 90.000000
_cell_volume 3217.774525
_symmetry_space_group_name_H-M "C M M A"
_symmetry_group_IT_number 67
_symmetry_cell_setting 'orthorhombic'
loop_
_space_group_symop_operation_xyz
x,y,z
-x,1/2-y,z
x,-y,-z
-x,1/2+y,-z
-x,-y,-z
x,1/2+y,-z
-x,y,z
x,1/2-y,z
1/2+x,1/2+y,z
1/2-x,-y,z
1/2+x,1/2-y,-z
1/2-x,y,-z
1/2-x,1/2-y,-z
1/2+x,y,-z
1/2-x,1/2+y,z
1/2+x,-y,z
loop_
_atom_site_type_symbol
_atom_site_label
_atom_site_fract_x
_atom_site_fract_y
_atom_site_fract_z
Si Si1 0.250000 0.000000 0.500000
Si Si2 0.289772 0.324078 0.858878
Si Si3 0.188080 0.557998 0.257348
Si Si4 0.000000 0.055550 0.894379
Si Si5 0.000000 0.324342 0.071464
O O1 0.189587 0.957123 0.405127
O O2 0.271375 0.250000 0.825087
O O3 0.237669 0.375310 0.773826
O O4 0.250000 0.333162 0.000000
O O5 0.401582 0.333891 0.858342
O O6 0.250000 0.500000 0.202136
O O7 0.089748 0.552477 0.192382
O O8 0.000000 0.124105 0.962234
O O9 0.000000 0.000000 0.000000
O O10 0.000000 0.250000 0.028437
#
# Coordination Sequence:
#
# PCOD9501695 Si02
#       5
#     4  16  16   8   8
#     4   8  24  42  52  72 110 164 198 228 264 304
#     4  10  19  33  55  83 115 144 174 230 291 344
#     4  10  22  38  54  76 115 147 193 229 271 325
#     4  12  22  31  58  91 106 142 181 236 293 344
#     4  10  20  32  50  86 120 140 170 210 292 356
#
# _framework density 16.160236999999999
#
# number of rings (size 3 to 8) (size 9 to 14) (size 15 to 20)
#    0.923    0.923    3.077    1.846    0.000    0.615 
#    0.000    0.769    0.000    0.000    0.000    0.000 
#    0.000    0.000    0.000    0.000    0.000    0.000 
#
# Total GULP energy -144771.359057 kJ/mol
# GULP energy per Si atom -5568.129194 kJ/mol
# Density = 1.612346 g / cm^3
# Si number density = 16.160237 Si / 1000 Ang^3
#
#
#
# Elastic Constant Matrix: (Units=GPa)
#
#
# Indices 1 2 3 4 5 6 
#
# 1 147.4086 69.8061 60.8417 0.0000 0.0000 0.0000
# 2 69.8061 103.0315 73.2239 0.0000 0.0000 0.0000
# 3 60.8417 73.2239 105.1083 0.0000 0.0000 0.0000
# 4 0.0000 0.0000 0.0000 28.8008 0.0000 0.0000
# 5 0.0000 0.0000 0.0000 0.0000 -35.4911 0.0000
# 6 0.0000 0.0000 0.0000 0.0000 0.0000 23.6215
#
#
#
# Elastic Compliance Matrix: (Units=1/GPa)
#
#
# Indices 1 2 3 4 5 6 
#
# 1 0.010232 -0.005393 -0.002165 0.000000 0.000000 0.000000
# 2 -0.005393 0.022066 -0.012251 0.000000 0.000000 0.000000
# 3 -0.002165 -0.012251 0.019302 0.000000 0.000000 0.000000
# 4 0.000000 0.000000 0.000000 0.034721 0.000000 0.000000
# 5 0.000000 0.000000 0.000000 0.000000 -0.028176 0.000000
# 6 0.000000 0.000000 0.000000 0.000000 0.000000 0.042334
#
#
# Mechanical properties :
#
#
# Convention : Reuss Voigt Hill
#
# Bulk Modulus (GPa) = 83.46360 84.81019 84.13689
# Shear Modulus (GPa) = 34.70023 13.49802 24.09912
#
# Velocity S-wave (km/s) = 4.63888 2.89322 3.86587
# Velocity P-wave (km/s) = 8.96950 7.98472 8.49140
#
# Compressibility (1/GPa) = 0.01198127
#
# Stress axis : x y z
#
# Youngs Moduli (GPa) = 97.73667 45.31805 51.80861
#
# Poissons Ratio (x) = 0.24441 0.11218
# Poissons Ratio (y) = 0.52712 0.63469
# Poissons Ratio (z) = 0.21163 0.55517
#
# Static dielectric constant tensor:
#      x y z
#    x 1.624750 0.000000 0.000000 
#    y 0.000000 1.547040 0.000000 
#    z 0.000000 0.000000 1.518850 
# 
# From -- ./inp_files/7610.got.cif
#   From: 2010.05.17/outbox.cif.g08.bks.cpg/sg67_4_cif.got.tgz:7610.got - 2010.06.03 18:28:57.
