data_PCOD9501096
_publ_section_title
;
Structure prediction by ZEFSAII (Michael W. Deem and Ramdas Pophale) SiO2 
 PCOD9501096
Probable space group: C M M A
;
_chemical_formula_sum "Si O2"
_cell_formula_units_Z 96
_cell_length_a 24.689282
_cell_length_b 9.113600
_cell_length_c 25.284141
_cell_angle_alpha 90.000000
_cell_angle_beta 90.000000
_cell_angle_gamma 90.000000
_cell_volume 5689.140077
_symmetry_space_group_name_H-M "C M M A"
_symmetry_group_IT_number 67
_symmetry_cell_setting 'orthorhombic'
loop_
_space_group_symop_operation_xyz
x,y,z
-x,1/2-y,z
x,-y,-z
-x,1/2+y,-z
-x,-y,-z
x,1/2+y,-z
-x,y,z
x,1/2-y,z
1/2+x,1/2+y,z
1/2-x,-y,z
1/2+x,1/2-y,-z
1/2-x,y,-z
1/2-x,1/2-y,-z
1/2+x,y,-z
1/2-x,1/2+y,z
1/2+x,-y,z
loop_
_atom_site_type_symbol
_atom_site_label
_atom_site_fract_x
_atom_site_fract_y
_atom_site_fract_z
Si Si1 0.691129 0.928121 0.656685
Si Si2 0.892648 0.427888 0.267589
Si Si3 0.065182 0.924247 0.163110
Si Si4 0.000000 0.530013 0.437370
Si Si5 0.500000 0.584493 0.326073
Si Si6 0.876646 0.912895 0.445439
Si Si7 0.934162 0.580487 0.946482
O O1 0.693059 0.750000 0.659421
O O2 0.657008 0.972006 0.604100
O O3 0.750000 0.000000 0.653538
O O4 0.658997 0.995561 0.706229
O O5 0.887737 0.250000 0.269347
O O6 0.905058 0.486171 0.209098
O O7 0.944813 0.479503 0.302610
O O8 0.076060 0.750000 0.166099
O O9 0.000000 0.944094 0.169770
O O10 0.080329 0.989932 0.105965
O O11 0.000000 0.500000 0.500000
O O12 0.059705 0.596879 0.430307
O O13 0.000000 0.414374 0.389517
O O14 0.500000 0.750000 0.305842
O O15 0.856152 0.750000 0.456019
O O16 0.872109 0.000000 0.500000
O O17 0.916322 0.750000 0.943993
O O18 0.000000 0.582493 0.948081
O O19 0.915789 0.500000 0.000000
#
# Coordination Sequence:
#
# PCOD9501096 Si02
#       7
#    16  16  16   8   8  16  16
#     4  11  24  42  59  79 102 135 175 220 269 320
#     4  11  21  36  56  80 106 138 176 220 267 321
#     4  10  19  30  46  72 106 143 180 221 264 314
#     4  10  19  35  53  82 110 137 168 208 262 315
#     4  10  20  33  54  80 107 137 171 210 265 323
#     4  10  22  37  57  81 107 135 169 209 259 316
#     4   9  16  26  41  63  96 140 185 225 262 309
#
# _framework density 16.874254000000001
#
# number of rings (size 3 to 8) (size 9 to 14) (size 15 to 20)
#    0.000    1.833    2.500    2.250    0.000    7.000 
#    0.000    1.667    0.000    0.000    0.000    0.000 
#    0.000    0.667    0.000    6.667    0.000    4.333 
#
# Total GULP energy -267352.900752 kJ/mol
# GULP energy per Si atom -5569.852099 kJ/mol
# Density = 1.683585 g / cm^3
# Si number density = 16.874254 Si / 1000 Ang^3
#
#
#
# Elastic Constant Matrix: (Units=GPa)
#
#
# Indices 1 2 3 4 5 6 
#
# 1 93.2647 34.8294 51.8375 0.0000 0.0000 0.0000
# 2 34.8294 90.7130 56.4843 0.0000 0.0000 0.0000
# 3 51.8375 56.4843 138.7490 0.0000 0.0000 0.0000
# 4 0.0000 0.0000 0.0000 28.7692 0.0000 0.0000
# 5 0.0000 0.0000 0.0000 0.0000 11.5800 0.0000
# 6 0.0000 0.0000 0.0000 0.0000 0.0000 9.8636
#
#
#
# Elastic Compliance Matrix: (Units=1/GPa)
#
#
# Indices 1 2 3 4 5 6 
#
# 1 0.014062 -0.002850 -0.004093 0.000000 0.000000 0.000000
# 2 -0.002850 0.015345 -0.005182 0.000000 0.000000 0.000000
# 3 -0.004093 -0.005182 0.010846 0.000000 0.000000 0.000000
# 4 0.000000 0.000000 0.000000 0.034759 0.000000 0.000000
# 5 0.000000 0.000000 0.000000 0.000000 0.086355 0.000000
# 6 0.000000 0.000000 0.000000 0.000000 0.000000 0.101383
#
#
# Mechanical properties :
#
#
# Convention : Reuss Voigt Hill
#
# Bulk Modulus (GPa) = 62.49346 67.66991 65.08168
# Shear Modulus (GPa) = 17.10367 22.01427 19.55897
#
# Velocity S-wave (km/s) = 3.18716 3.61585 3.40825
# Velocity P-wave (km/s) = 7.11752 7.59092 7.35803
#
# Compressibility (1/GPa) = 0.01600167
#
# Stress axis : x y z
#
# Youngs Moduli (GPa) = 71.11550 65.16872 92.19962
#
# Poissons Ratio (x) = 0.18575 0.37739
# Poissons Ratio (y) = 0.20270 0.47777
# Poissons Ratio (z) = 0.29109 0.33770
#
# Static dielectric constant tensor:
#      x y z
#    x 1.559000 0.000000 0.000000 
#    y 0.000000 1.645970 0.000000 
#    z 0.000000 0.000000 1.579960 
# 
# From -- ./inp_files/42618.got.cif
#   From: 2010.05.17/outbox.cif.g08.bks.cpg/sg67_22_cif.got.tgz:42618.got - 2010.06.03 18:28:57.
