data_PCOD9501855
_publ_section_title
;
Structure prediction by ZEFSAII (Michael W. Deem and Ramdas Pophale) SiO2 
 PCOD9501855
Probable space group: C M M A
;
_chemical_formula_sum "Si O2"
_cell_formula_units_Z 48
_cell_length_a 19.456499
_cell_length_b 10.618606
_cell_length_c 10.819250
_cell_angle_alpha 90.000000
_cell_angle_beta 90.000000
_cell_angle_gamma 90.000000
_cell_volume 2235.266755
_symmetry_space_group_name_H-M "C M M A"
_symmetry_group_IT_number 67
_symmetry_cell_setting 'orthorhombic'
loop_
_space_group_symop_operation_xyz
x,y,z
-x,1/2-y,z
x,-y,-z
-x,1/2+y,-z
-x,-y,-z
x,1/2+y,-z
-x,y,z
x,1/2-y,z
1/2+x,1/2+y,z
1/2-x,-y,z
1/2+x,1/2-y,-z
1/2-x,y,-z
1/2-x,1/2-y,-z
1/2+x,y,-z
1/2-x,1/2+y,z
1/2+x,-y,z
loop_
_atom_site_type_symbol
_atom_site_label
_atom_site_fract_x
_atom_site_fract_y
_atom_site_fract_z
Si Si1 0.713933 0.615671 0.866926
Si Si2 0.918547 0.028527 0.781008
Si Si3 0.917487 0.750000 0.411672
Si Si4 0.083374 0.250000 0.309080
O O1 0.723217 0.750000 0.804357
O O2 0.750000 0.500000 0.798832
O O3 0.633533 0.585390 0.880894
O O4 0.750000 0.623236 0.000000
O O5 0.903331 0.121505 0.664403
O O6 0.000000 0.038171 0.808702
O O7 0.900041 0.882846 0.755666
O O8 0.889373 0.750000 0.550399
O O9 0.000000 0.750000 0.423204
O O10 0.000000 0.250000 0.314586
#
# Coordination Sequence:
#
# PCOD9501855 Si02
#       4
#    16  16   8   8
#     4  10  22  40  60  82 110 150 194 239 297 353
#     4  10  19  34  59  88 117 152 194 239 284 339
#     4   9  16  30  54  86 120 154 190 233 288 338
#     4   9  18  30  52  90 126 150 184 237 290 340
#
# _framework density 21.473948
#
# number of rings (size 3 to 8) (size 9 to 14) (size 15 to 20)
#    0.000    2.333    1.667    1.000    2.333    4.000 
#    0.000    3.333    0.000    8.000    0.000    0.000 
#    0.000    0.000    0.000    0.000    0.000    0.000 
#
# Total GULP energy -133687.867786 kJ/mol
# GULP energy per Si atom -5570.327824 kJ/mol
# Density = 2.142507 g / cm^3
# Si number density = 21.473948 Si / 1000 Ang^3
#
#
#
# Elastic Constant Matrix: (Units=GPa)
#
#
# Indices 1 2 3 4 5 6 
#
# 1 100.3467 48.8911 30.7879 0.0000 0.0000 0.0000
# 2 48.8911 212.0449 12.1228 0.0000 0.0000 0.0000
# 3 30.7879 12.1228 41.6333 0.0000 0.0000 0.0000
# 4 0.0000 0.0000 0.0000 16.3072 0.0000 0.0000
# 5 0.0000 0.0000 0.0000 0.0000 3.3438 0.0000
# 6 0.0000 0.0000 0.0000 0.0000 0.0000 21.9938
#
#
#
# Elastic Compliance Matrix: (Units=1/GPa)
#
#
# Indices 1 2 3 4 5 6 
#
# 1 0.014299 -0.002738 -0.009777 0.000000 0.000000 0.000000
# 2 -0.002738 0.005320 0.000476 0.000000 0.000000 0.000000
# 3 -0.009777 0.000476 0.031111 0.000000 0.000000 0.000000
# 4 0.000000 0.000000 0.000000 0.061323 0.000000 0.000000
# 5 0.000000 0.000000 0.000000 0.000000 0.299060 0.000000
# 6 0.000000 0.000000 0.000000 0.000000 0.000000 0.045467
#
#
# Mechanical properties :
#
#
# Convention : Reuss Voigt Hill
#
# Bulk Modulus (GPa) = 37.52151 59.73651 48.62901
# Shear Modulus (GPa) = 10.21361 25.81050 18.01206
#
# Velocity S-wave (km/s) = 2.18326 3.47067 2.89932
# Velocity P-wave (km/s) = 4.88533 6.62867 5.82261
#
# Compressibility (1/GPa) = 0.02665138
#
# Stress axis : x y z
#
# Youngs Moduli (GPa) = 69.93402 187.96681 32.14313
#
# Poissons Ratio (x) = 0.51465 0.31426
# Poissons Ratio (y) = 0.19148 -0.01529
# Poissons Ratio (z) = 0.68375 -0.08940
#
# Static dielectric constant tensor:
#      x y z
#    x 1.816720 0.000000 0.000000 
#    y 0.000000 1.881930 0.000000 
#    z 0.000000 0.000000 0.887870 
# 
# From -- ./inp_files/18803.got.cif
#   From: 2010.05.17/outbox.cif.g08.bks.cpg/sg67_10_cif.got.tgz:18803.got - 2010.06.03 18:28:57.
