data_PCOD9501088
_publ_section_title
;
Structure prediction by ZEFSAII (Michael W. Deem and Ramdas Pophale) SiO2 
 PCOD9501088
Probable space group: C M M A
;
_chemical_formula_sum "Si O2"
_cell_formula_units_Z 80
_cell_length_a 8.762796
_cell_length_b 27.961011
_cell_length_c 19.260599
_cell_angle_alpha 90.000000
_cell_angle_beta 90.000000
_cell_angle_gamma 90.000000
_cell_volume 4719.167162
_symmetry_space_group_name_H-M "C M M A"
_symmetry_group_IT_number 67
_symmetry_cell_setting 'orthorhombic'
loop_
_space_group_symop_operation_xyz
x,y,z
-x,1/2-y,z
x,-y,-z
-x,1/2+y,-z
-x,-y,-z
x,1/2+y,-z
-x,y,z
x,1/2-y,z
1/2+x,1/2+y,z
1/2-x,-y,z
1/2+x,1/2-y,-z
1/2-x,y,-z
1/2-x,1/2-y,-z
1/2+x,y,-z
1/2-x,1/2+y,z
1/2+x,-y,z
loop_
_atom_site_type_symbol
_atom_site_label
_atom_site_fract_x
_atom_site_fract_y
_atom_site_fract_z
Si Si1 0.317385 0.350881 0.424983
Si Si2 0.315987 0.303425 0.709827
Si Si3 0.182255 0.050794 0.648450
Si Si4 0.683919 0.900245 0.217477
Si Si5 0.816572 0.053320 0.072843
O O1 0.500000 0.347684 0.426287
O O2 0.250000 0.339935 0.500000
O O3 0.252403 0.316883 0.364922
O O4 0.274439 0.405047 0.401613
O O5 0.500000 0.304457 0.704655
O O6 0.269503 0.250000 0.730883
O O7 0.270928 0.346232 0.761736
O O8 0.243716 0.065279 0.724591
O O9 0.000000 0.047771 0.650614
O O10 0.250000 0.000000 0.626943
O O11 0.500000 0.904017 0.223273
O O12 0.726374 0.915691 0.140024
O O13 0.000000 0.050679 0.068343
O O14 0.750000 0.000000 0.082335
O O15 0.750000 0.071790 0.000000
#
# Coordination Sequence:
#
# PCOD9501088 Si02
#       5
#    16  16  16  16  16
#     4  10  21  35  50  70  96 125 158 196 239 286
#     4   9  18  34  55  75  94 120 156 198 243 287
#     4  10  20  32  48  70  95 126 161 196 235 281
#     4   9  18  32  50  72  97 125 159 198 237 280
#     4  10  19  30  46  70 100 131 161 192 228 273
#
# _framework density 16.952145000000002
#
# number of rings (size 3 to 8) (size 9 to 14) (size 15 to 20)
#    0.000    2.400    0.000    3.000    0.000    6.800 
#    0.000    2.000    0.000    0.600    0.000    0.000 
#    0.000    0.000    0.000    0.000    0.000    0.800 
#
# Total GULP energy -223169.325127 kJ/mol
# GULP energy per Si atom -5579.233128 kJ/mol
# Density = 1.691356 g / cm^3
# Si number density = 16.952145 Si / 1000 Ang^3
#
#
#
# Elastic Constant Matrix: (Units=GPa)
#
#
# Indices 1 2 3 4 5 6 
#
# 1 20.9398 14.1249 19.8741 0.0000 0.0000 0.0000
# 2 14.1249 68.7202 19.6801 0.0000 0.0000 0.0000
# 3 19.8741 19.6801 105.6462 0.0000 0.0000 0.0000
# 4 0.0000 0.0000 0.0000 8.6175 0.0000 0.0000
# 5 0.0000 0.0000 0.0000 0.0000 19.3423 0.0000
# 6 0.0000 0.0000 0.0000 0.0000 0.0000 16.6725
#
#
#
# Elastic Compliance Matrix: (Units=1/GPa)
#
#
# Indices 1 2 3 4 5 6 
#
# 1 0.064386 -0.010316 -0.010191 0.000000 0.000000 0.000000
# 2 -0.010316 0.017025 -0.001231 0.000000 0.000000 0.000000
# 3 -0.010191 -0.001231 0.011612 0.000000 0.000000 0.000000
# 4 0.000000 0.000000 0.000000 0.116043 0.000000 0.000000
# 5 0.000000 0.000000 0.000000 0.000000 0.051700 0.000000
# 6 0.000000 0.000000 0.000000 0.000000 0.000000 0.059979
#
#
# Mechanical properties :
#
#
# Convention : Reuss Voigt Hill
#
# Bulk Modulus (GPa) = 20.18227 33.62938 26.90583
# Shear Modulus (GPa) = 13.13250 18.36829 15.75040
#
# Velocity S-wave (km/s) = 2.78633 3.29528 3.05144
# Velocity P-wave (km/s) = 4.72046 5.86169 5.32176
#
# Compressibility (1/GPa) = 0.04954844
#
# Stress axis : x y z
#
# Youngs Moduli (GPa) = 15.53127 58.73875 86.11868
#
# Poissons Ratio (x) = 0.60593 0.87760
# Poissons Ratio (y) = 0.16022 0.10600
# Poissons Ratio (z) = 0.15827 0.07230
#
# Static dielectric constant tensor:
#      x y z
#    x 1.564420 0.000000 0.000000 
#    y 0.000000 1.578270 0.000000 
#    z 0.000000 0.000000 1.553040 
# 
# From -- ./inp_files/32125.got.cif
#   From: 2010.05.17/outbox.cif.g08.bks.cpg/sg67_17_cif.got.tgz:32125.got - 2010.06.03 18:28:57.
