data_PCOD9501499
_publ_section_title
;
Structure prediction by ZEFSAII (Michael W. Deem and Ramdas Pophale) SiO2 
 PCOD9501499
Probable space group: C M M A
;
_chemical_formula_sum "Si O2"
_cell_formula_units_Z 112
_cell_length_a 14.325420
_cell_length_b 15.634137
_cell_length_c 22.692116
_cell_angle_alpha 90.000000
_cell_angle_beta 90.000000
_cell_angle_gamma 90.000000
_cell_volume 5082.252896
_symmetry_space_group_name_H-M "C M M A"
_symmetry_group_IT_number 67
_symmetry_cell_setting 'orthorhombic'
loop_
_space_group_symop_operation_xyz
x,y,z
-x,1/2-y,z
x,-y,-z
-x,1/2+y,-z
-x,-y,-z
x,1/2+y,-z
-x,y,z
x,1/2-y,z
1/2+x,1/2+y,z
1/2-x,-y,z
1/2+x,1/2-y,-z
1/2-x,y,-z
1/2-x,1/2-y,-z
1/2+x,y,-z
1/2-x,1/2+y,z
1/2+x,-y,z
loop_
_atom_site_type_symbol
_atom_site_label
_atom_site_fract_x
_atom_site_fract_y
_atom_site_fract_z
Si Si1 0.239374 0.603396 0.403068
Si Si2 0.612559 0.020351 0.190961
Si Si3 0.606108 0.160472 0.106681
Si Si4 0.611440 0.654660 0.148695
Si Si5 0.105700 0.103682 0.489694
Si Si6 0.140893 0.595071 0.985560
Si Si7 0.609518 0.152085 0.296186
O O1 0.250000 0.500000 0.397177
O O2 0.168938 0.630655 0.455446
O O3 0.340982 0.627485 0.429240
O O4 0.188835 0.639500 0.345588
O O5 0.500000 0.010753 0.185625
O O6 0.647678 0.075242 0.134848
O O7 0.627542 0.080009 0.247128
O O8 0.649568 0.923700 0.188232
O O9 0.500000 0.163300 0.129478
O O10 0.652403 0.250000 0.122883
O O11 0.601348 0.154006 0.036800
O O12 0.500000 0.659556 0.157975
O O13 0.648117 0.750000 0.159691
O O14 0.624372 0.626853 0.080332
O O15 0.000000 0.134446 0.491251
O O16 0.104121 0.000000 0.500000
O O17 0.104958 0.500000 0.000000
O O18 0.250000 0.594862 0.000000
O O19 0.500000 0.140205 0.316851
O O20 0.614191 0.250000 0.273648
#
# Coordination Sequence:
#
# PCOD9501499 Si02
#       7
#    16  16  16  16  16  16  16
#     4   9  17  30  52  84 118 159 205 259 306 354
#     4   9  18  34  55  78 107 142 186 241 294 348
#     4  10  19  32  53  76  98 132 178 226 282 348
#     4  10  20  35  57  82 107 141 186 234 291 360
#     4   8  14  27  50  82 122 165 209 250 298 357
#     4  11  22  34  49  74 107 143 176 221 283 353
#     4  10  20  35  57  85 118 158 205 257 311 365
#
# _framework density 22.037469999999999
#
# number of rings (size 3 to 8) (size 9 to 14) (size 15 to 20)
#    0.000    2.429    1.429    2.571    0.000    5.143 
#    0.000    2.857    0.000    3.857    0.000    0.000 
#    0.000    0.000    0.000    7.286    0.000    0.714 
#
# Total GULP energy -312269.083079 kJ/mol
# GULP energy per Si atom -5576.233626 kJ/mol
# Density = 2.198731 g / cm^3
# Si number density = 22.037470 Si / 1000 Ang^3
#
#
#
# Elastic Constant Matrix: (Units=GPa)
#
#
# Indices 1 2 3 4 5 6 
#
# 1 111.2105 26.4183 16.2620 0.0000 0.0000 0.0000
# 2 26.4183 175.4154 53.9122 0.0000 0.0000 0.0000
# 3 16.2620 53.9122 78.5719 0.0000 0.0000 0.0000
# 4 0.0000 0.0000 0.0000 22.4019 0.0000 0.0000
# 5 0.0000 0.0000 0.0000 0.0000 15.7473 0.0000
# 6 0.0000 0.0000 0.0000 0.0000 0.0000 -97.4341
#
#
#
# Elastic Compliance Matrix: (Units=1/GPa)
#
#
# Indices 1 2 3 4 5 6 
#
# 1 0.009420 -0.001038 -0.001237 0.000000 0.000000 0.000000
# 2 -0.001038 0.007339 -0.004821 0.000000 0.000000 0.000000
# 3 -0.001237 -0.004821 0.016291 0.000000 0.000000 0.000000
# 4 0.000000 0.000000 0.000000 0.044639 0.000000 0.000000
# 5 0.000000 0.000000 0.000000 0.000000 0.063503 0.000000
# 6 0.000000 0.000000 0.000000 0.000000 0.000000 -0.010263
#
#
# Mechanical properties :
#
#
# Convention : Reuss Voigt Hill
#
# Bulk Modulus (GPa) = 53.03051 62.04254 57.53653
# Shear Modulus (GPa) = 33.02390 6.05004 19.53697
#
# Velocity S-wave (km/s) = 3.87529 1.65870 2.98070
# Velocity P-wave (km/s) = 6.64378 5.64648 6.16533
#
# Compressibility (1/GPa) = 0.01885707
#
# Stress axis : x y z
#
# Youngs Moduli (GPa) = 106.16241 136.26418 61.38422
#
# Poissons Ratio (x) = 0.14150 0.07593
# Poissons Ratio (y) = 0.11024 0.29590
# Poissons Ratio (z) = 0.13133 0.65686
#
# Static dielectric constant tensor:
#      x y z
#    x 1.891030 0.000000 0.000000 
#    y 0.000000 1.876620 0.000000 
#    z 0.000000 0.000000 1.783610 
# 
# From -- ./inp_files/41921.got.cif
#   From: 2010.05.17/outbox.cif.g08.bks.cpg/sg67_21_cif.got.tgz:41921.got - 2010.06.03 18:28:57.
