data_PCOD9501578
_publ_section_title
;
Structure prediction by ZEFSAII (Michael W. Deem and Ramdas Pophale) SiO2 
 PCOD9501578
Probable space group: C M M A
;
_chemical_formula_sum "Si O2"
_cell_formula_units_Z 80
_cell_length_a 28.212822
_cell_length_b 9.304802
_cell_length_c 18.089367
_cell_angle_alpha 90.000000
_cell_angle_beta 90.000000
_cell_angle_gamma 90.000000
_cell_volume 4748.725159
_symmetry_space_group_name_H-M "C M M A"
_symmetry_group_IT_number 67
_symmetry_cell_setting 'orthorhombic'
loop_
_space_group_symop_operation_xyz
x,y,z
-x,1/2-y,z
x,-y,-z
-x,1/2+y,-z
-x,-y,-z
x,1/2+y,-z
-x,y,z
x,1/2-y,z
1/2+x,1/2+y,z
1/2-x,-y,z
1/2+x,1/2-y,-z
1/2-x,y,-z
1/2-x,1/2-y,-z
1/2+x,y,-z
1/2-x,1/2+y,z
1/2+x,-y,z
loop_
_atom_site_type_symbol
_atom_site_label
_atom_site_fract_x
_atom_site_fract_y
_atom_site_fract_z
Si Si1 0.838252 0.413935 0.210185
Si Si2 0.750000 0.500000 0.692167
Si Si3 0.899482 0.579528 0.649340
Si Si4 0.681929 0.409493 0.431396
Si Si5 0.500000 0.578033 0.420532
Si Si6 0.698617 0.423696 0.075109
O O1 0.842808 0.250000 0.182381
O O2 0.789255 0.423033 0.257439
O O3 0.881081 0.445658 0.266964
O O4 0.832856 0.527479 0.144466
O O5 0.718940 0.594011 0.635949
O O6 0.892190 0.750000 0.636517
O O7 0.864576 0.488830 0.598196
O O8 0.953050 0.543880 0.627072
O O9 0.700021 0.500000 0.500000
O O10 0.670900 0.250000 0.456441
O O11 0.500000 0.750000 0.433674
O O12 0.500000 0.500000 0.500000
O O13 0.702933 0.250000 0.068932
O O14 0.750000 0.500000 0.087104
O O15 0.680749 0.500000 0.000000
#
# Coordination Sequence:
#
# PCOD9501578 Si02
#       6
#    16   8  16  16   8  16
#     4  10  19  33  51  73 102 133 168 208 252 300
#     4  10  21  32  49  66  94 130 170 204 247 296
#     4   9  20  36  54  75 100 130 167 212 261 313
#     4  11  22  34  48  68  94 128 169 212 255 303
#     4  10  20  36  56  78 103 134 171 216 269 316
#     4  11  21  33  51  75 105 140 175 209 246 292
#
# _framework density 16.846626000000001
#
# number of rings (size 3 to 8) (size 9 to 14) (size 15 to 20)
#    0.000    1.800    1.000    4.500    0.000    8.800 
#    0.000    0.000    0.000    0.000    0.000    0.700 
#    0.000    0.000    0.000    0.000    0.000    0.000 
#
# Total GULP energy -223070.711319 kJ/mol
# GULP energy per Si atom -5576.767783 kJ/mol
# Density = 1.680828 g / cm^3
# Si number density = 16.846626 Si / 1000 Ang^3
#
#
#
# Elastic Constant Matrix: (Units=GPa)
#
#
# Indices 1 2 3 4 5 6 
#
# 1 111.2737 40.1600 50.4431 0.0000 0.0000 0.0000
# 2 40.1600 119.3139 63.4262 0.0000 0.0000 0.0000
# 3 50.4431 63.4262 105.5784 0.0000 0.0000 0.0000
# 4 0.0000 0.0000 0.0000 26.1224 0.0000 0.0000
# 5 0.0000 0.0000 0.0000 0.0000 15.3664 0.0000
# 6 0.0000 0.0000 0.0000 0.0000 0.0000 -7.4339
#
#
#
# Elastic Compliance Matrix: (Units=1/GPa)
#
#
# Indices 1 2 3 4 5 6 
#
# 1 0.011631 -0.001412 -0.004709 0.000000 0.000000 0.000000
# 2 -0.001412 0.012485 -0.006826 0.000000 0.000000 0.000000
# 3 -0.004709 -0.006826 0.015822 0.000000 0.000000 0.000000
# 4 0.000000 0.000000 0.000000 0.038281 0.000000 0.000000
# 5 0.000000 0.000000 0.000000 0.000000 0.065077 0.000000
# 6 0.000000 0.000000 0.000000 0.000000 0.000000 -0.134518
#
#
# Mechanical properties :
#
#
# Convention : Reuss Voigt Hill
#
# Bulk Modulus (GPa) = 71.19937 71.58053 71.38995
# Shear Modulus (GPa) = 127.05520 18.95342 73.00431
#
# Velocity S-wave (km/s) = 8.69382 3.35783 6.59005
# Velocity P-wave (km/s) = 11.96377 7.59046 10.01865
#
# Compressibility (1/GPa) = 0.01404507
#
# Stress axis : x y z
#
# Youngs Moduli (GPa) = 85.97685 80.09622 63.20248
#
# Poissons Ratio (x) = 0.11307 0.29762
# Poissons Ratio (y) = 0.12137 0.43141
# Poissons Ratio (z) = 0.40487 0.54673
#
# Static dielectric constant tensor:
#      x y z
#    x 1.563850 0.000000 0.000000 
#    y 0.000000 1.575610 0.000000 
#    z 0.000000 0.000000 1.818910 
# 
# From -- ./inp_files/35775.got.cif
#   From: 2010.05.17/outbox.cif.g08.bks.cpg/sg67_18_cif.got.tgz:35775.got - 2010.06.03 18:28:57.
