data_PCOD9501048
_publ_section_title
;
Structure prediction by ZEFSAII (Michael W. Deem and Ramdas Pophale) SiO2 
 PCOD9501048
Probable space group: C M M A
;
_chemical_formula_sum "Si O2"
_cell_formula_units_Z 96
_cell_length_a 24.094862
_cell_length_b 8.966427
_cell_length_c 26.347224
_cell_angle_alpha 90.000000
_cell_angle_beta 90.000000
_cell_angle_gamma 90.000000
_cell_volume 5692.181298
_symmetry_space_group_name_H-M "C M M A"
_symmetry_group_IT_number 67
_symmetry_cell_setting 'orthorhombic'
loop_
_space_group_symop_operation_xyz
x,y,z
-x,1/2-y,z
x,-y,-z
-x,1/2+y,-z
-x,-y,-z
x,1/2+y,-z
-x,y,z
x,1/2-y,z
1/2+x,1/2+y,z
1/2-x,-y,z
1/2+x,1/2-y,-z
1/2-x,y,-z
1/2-x,1/2-y,-z
1/2+x,y,-z
1/2-x,1/2+y,z
1/2+x,-y,z
loop_
_atom_site_type_symbol
_atom_site_label
_atom_site_fract_x
_atom_site_fract_y
_atom_site_fract_z
Si Si1 0.500000 0.073819 0.308238
Si Si2 0.607450 0.429118 0.742663
Si Si3 0.500000 0.074081 0.585196
Si Si4 0.876084 0.073322 0.448237
Si Si5 0.432604 0.421331 0.948333
Si Si6 0.565755 0.428441 0.158248
Si Si7 0.310539 0.930031 0.346848
O O1 0.500000 0.250000 0.297922
O O2 0.446334 0.996360 0.284742
O O3 0.500000 0.035439 0.367294
O O4 0.603894 0.250000 0.745168
O O5 0.603785 0.497422 0.798773
O O6 0.658518 0.469612 0.705784
O O7 0.500000 0.250000 0.601843
O O8 0.557663 0.049084 0.556442
O O9 0.867186 0.250000 0.451708
O O10 0.846767 0.021970 0.396056
O O11 0.855108 0.000000 0.500000
O O12 0.500000 0.419503 0.950557
O O13 0.413999 0.250000 0.945428
O O14 0.418883 0.510966 0.897334
O O15 0.413142 0.500000 0.000000
O O16 0.500000 0.467029 0.167296
O O17 0.569755 0.250000 0.160202
O O18 0.307224 0.750000 0.348377
O O19 0.250000 0.000000 0.349459
#
# Coordination Sequence:
#
# PCOD9501048 Si02
#       7
#     8  16   8  16  16  16  16
#     4  12  22  31  51  82 106 131 168 209 256 307
#     4  11  21  36  55  74 103 138 171 210 263 318
#     4  10  19  37  57  76 110 139 165 201 250 313
#     4  10  21  37  57  81 106 136 168 206 253 306
#     4   9  16  26  40  60  92 138 182 217 257 300
#     4  10  19  29  44  72 104 133 174 218 257 306
#     4  10  23  41  59  77 100 134 173 214 262 311
#
# _framework density 16.865238999999999
#
# number of rings (size 3 to 8) (size 9 to 14) (size 15 to 20)
#    0.000    1.833    2.500    2.500    0.000    5.667 
#    0.000    1.667    0.000    0.000    0.000    0.000 
#    0.000    0.667    0.000    7.000    0.000    4.167 
#
# Total GULP energy -267766.075330 kJ/mol
# GULP energy per Si atom -5578.459903 kJ/mol
# Density = 1.682685 g / cm^3
# Si number density = 16.865239 Si / 1000 Ang^3
#
#
#
# Elastic Constant Matrix: (Units=GPa)
#
#
# Indices 1 2 3 4 5 6 
#
# 1 78.2121 29.8693 47.3266 0.0000 0.0000 0.0000
# 2 29.8693 57.4717 59.6210 0.0000 0.0000 0.0000
# 3 47.3266 59.6210 157.8102 0.0000 0.0000 0.0000
# 4 0.0000 0.0000 0.0000 34.1520 0.0000 0.0000
# 5 0.0000 0.0000 0.0000 0.0000 -0.4240 0.0000
# 6 0.0000 0.0000 0.0000 0.0000 0.0000 19.8825
#
#
#
# Elastic Compliance Matrix: (Units=1/GPa)
#
#
# Indices 1 2 3 4 5 6 
#
# 1 0.016693 -0.005727 -0.002843 0.000000 0.000000 0.000000
# 2 -0.005727 0.030580 -0.009836 0.000000 0.000000 0.000000
# 3 -0.002843 -0.009836 0.010905 0.000000 0.000000 0.000000
# 4 0.000000 0.000000 0.000000 0.029281 0.000000 0.000000
# 5 0.000000 0.000000 0.000000 0.000000 -2.358538 0.000000
# 6 0.000000 0.000000 0.000000 0.000000 0.000000 0.050295
#
#
# Mechanical properties :
#
#
# Convention : Reuss Voigt Hill
#
# Bulk Modulus (GPa) = 46.79959 63.01419 54.90689
# Shear Modulus (GPa) = -2.29689 21.16726 9.43518
#
# Velocity S-wave (km/s) = -1.16828 3.54656 2.36783
# Velocity P-wave (km/s) = 5.09800 7.36310 6.33264
#
# Compressibility (1/GPa) = 0.02136771
#
# Stress axis : x y z
#
# Youngs Moduli (GPa) = 59.90595 32.70154 91.70038
#
# Poissons Ratio (x) = 0.18728 0.26066
# Poissons Ratio (y) = 0.34307 0.90193
# Poissons Ratio (z) = 0.17028 0.32164
#
# Static dielectric constant tensor:
#      x y z
#    x 1.551120 0.000000 0.000000 
#    y 0.000000 1.567350 0.000000 
#    z 0.000000 0.000000 1.589700 
# 
# From -- ./inp_files/42593.got.cif
#   From: 2010.05.17/outbox.cif.g08.bks.cpg/sg67_22_cif.got.tgz:42593.got - 2010.06.03 18:28:57.
