data_PCOD9501119
_publ_section_title
;
Structure prediction by ZEFSAII (Michael W. Deem and Ramdas Pophale) SiO2 
 PCOD9501119
Probable space group: C M M A
;
_chemical_formula_sum "Si O2"
_cell_formula_units_Z 96
_cell_length_a 17.429213
_cell_length_b 26.491375
_cell_length_c 12.308271
_cell_angle_alpha 90.000000
_cell_angle_beta 90.000000
_cell_angle_gamma 90.000000
_cell_volume 5683.021873
_symmetry_space_group_name_H-M "C M M A"
_symmetry_group_IT_number 67
_symmetry_cell_setting 'orthorhombic'
loop_
_space_group_symop_operation_xyz
x,y,z
-x,1/2-y,z
x,-y,-z
-x,1/2+y,-z
-x,-y,-z
x,1/2+y,-z
-x,y,z
x,1/2-y,z
1/2+x,1/2+y,z
1/2-x,-y,z
1/2+x,1/2-y,-z
1/2-x,y,-z
1/2-x,1/2-y,-z
1/2+x,y,-z
1/2-x,1/2+y,z
1/2+x,-y,z
loop_
_atom_site_type_symbol
_atom_site_label
_atom_site_fract_x
_atom_site_fract_y
_atom_site_fract_z
Si Si1 0.262805 0.441474 0.129391
Si Si2 0.585904 0.382604 0.151515
Si Si3 0.148308 0.691528 0.322457
Si Si4 0.812965 0.151712 0.244932
Si Si5 0.908751 0.808919 0.565694
Si Si6 0.910802 0.192649 0.049118
O O1 0.250000 0.500000 0.154635
O O2 0.349597 0.424951 0.154543
O O3 0.209591 0.403200 0.198007
O O4 0.250000 0.434056 0.000000
O O5 0.500000 0.402669 0.143717
O O6 0.595116 0.346072 0.254597
O O7 0.601319 0.346808 0.047565
O O8 0.131791 0.750000 0.297107
O O9 0.234725 0.677968 0.286264
O O10 0.133116 0.684606 0.450232
O O11 0.871932 0.154921 0.344596
O O12 0.852772 0.181326 0.146054
O O13 0.897036 0.750000 0.599805
O O14 0.000000 0.816345 0.553334
O O15 0.900465 0.250000 0.009765
O O16 0.000000 0.187827 0.085882
#
# Coordination Sequence:
#
# PCOD9501119 Si02
#       6
#    16  16  16  16  16  16
#     4  10  21  40  58  77 105 136 177 233 277 319
#     4  10  20  35  54  79 109 143 180 218 265 319
#     4  10  20  32  52  79 111 149 187 218 251 307
#     4  11  20  33  54  78 105 142 181 224 269 321
#     4  10  20  34  52  78 113 148 180 215 258 313
#     4  10  19  30  47  77 115 146 172 209 263 325
#
# _framework density 16.892422
#
# number of rings (size 3 to 8) (size 9 to 14) (size 15 to 20)
#    0.000    1.833    1.667    3.500    0.000    4.333 
#    0.000    5.833    0.000    8.000    0.000    5.833 
#    0.000    0.000    0.000    0.000    0.000    0.000 
#
# Total GULP energy -267910.288761 kJ/mol
# GULP energy per Si atom -5581.464349 kJ/mol
# Density = 1.685397 g / cm^3
# Si number density = 16.892422 Si / 1000 Ang^3
#
#
#
# Elastic Constant Matrix: (Units=GPa)
#
#
# Indices 1 2 3 4 5 6 
#
# 1 81.1029 58.1301 36.9637 0.0000 0.0000 0.0000
# 2 58.1301 115.7921 47.2039 0.0000 0.0000 0.0000
# 3 36.9637 47.2039 79.8529 0.0000 0.0000 0.0000
# 4 0.0000 0.0000 0.0000 19.2812 0.0000 0.0000
# 5 0.0000 0.0000 0.0000 0.0000 31.0299 0.0000
# 6 0.0000 0.0000 0.0000 0.0000 0.0000 52.4792
#
#
#
# Elastic Compliance Matrix: (Units=1/GPa)
#
#
# Indices 1 2 3 4 5 6 
#
# 1 0.020401 -0.008421 -0.004465 0.000000 0.000000 0.000000
# 2 -0.008421 0.014854 -0.004883 0.000000 0.000000 0.000000
# 3 -0.004465 -0.004883 0.017476 0.000000 0.000000 0.000000
# 4 0.000000 0.000000 0.000000 0.051864 0.000000 0.000000
# 5 0.000000 0.000000 0.000000 0.000000 0.032227 0.000000
# 6 0.000000 0.000000 0.000000 0.000000 0.000000 0.019055
#
#
# Mechanical properties :
#
#
# Convention : Reuss Voigt Hill
#
# Bulk Modulus (GPa) = 58.16379 62.37148 60.26763
# Shear Modulus (GPa) = 25.36160 29.52140 27.44150
#
# Velocity S-wave (km/s) = 3.87894 4.18498 4.03486
# Velocity P-wave (km/s) = 7.38703 7.76885 7.58034
#
# Compressibility (1/GPa) = 0.01719283
#
# Stress axis : x y z
#
# Youngs Moduli (GPa) = 49.01661 67.32000 57.22003
#
# Poissons Ratio (x) = 0.56693 0.25551
# Poissons Ratio (y) = 0.41279 0.27939
# Poissons Ratio (z) = 0.21888 0.32870
#
# Static dielectric constant tensor:
#      x y z
#    x 1.589520 0.000000 0.000000 
#    y 0.000000 1.536400 0.000000 
#    z 0.000000 0.000000 1.567400 
# 
# From -- ./inp_files/19604.got.cif
#   From: 2010.05.17/outbox.cif.g08.bks.cpg/sg67_10_cif.got.tgz:19604.got - 2010.06.03 18:28:57.
