data_PCOD9501023
_publ_section_title
;
Structure prediction by ZEFSAII (Michael W. Deem and Ramdas Pophale) SiO2 
 PCOD9501023
Probable space group: C M M A
;
_chemical_formula_sum "Si O2"
_cell_formula_units_Z 128
_cell_length_a 14.603140
_cell_length_b 20.449467
_cell_length_c 20.705779
_cell_angle_alpha 90.000000
_cell_angle_beta 90.000000
_cell_angle_gamma 90.000000
_cell_volume 6183.292853
_symmetry_space_group_name_H-M "C M M A"
_symmetry_group_IT_number 67
_symmetry_cell_setting 'orthorhombic'
loop_
_space_group_symop_operation_xyz
x,y,z
-x,1/2-y,z
x,-y,-z
-x,1/2+y,-z
-x,-y,-z
x,1/2+y,-z
-x,y,z
x,1/2-y,z
1/2+x,1/2+y,z
1/2-x,-y,z
1/2+x,1/2-y,-z
1/2-x,y,-z
1/2-x,1/2-y,-z
1/2+x,y,-z
1/2-x,1/2+y,z
1/2+x,-y,z
loop_
_atom_site_type_symbol
_atom_site_label
_atom_site_fract_x
_atom_site_fract_y
_atom_site_fract_z
Si Si1 0.135574 0.824323 0.866599
Si Si2 0.361981 0.925047 0.238573
Si Si3 0.612087 0.408975 0.541127
Si Si4 0.647167 0.328899 0.010532
Si Si5 0.146737 0.570443 0.255710
Si Si6 0.609094 0.679025 0.350223
Si Si7 0.110902 0.450532 0.597914
Si Si8 0.859154 0.825523 0.150263
O O1 0.107534 0.750000 0.848989
O O2 0.103433 0.881680 0.820437
O O3 0.247428 0.824248 0.859227
O O4 0.105362 0.837993 0.939988
O O5 0.252656 0.931924 0.235452
O O6 0.377678 0.879240 0.300117
O O7 0.396614 0.999011 0.243286
O O8 0.500000 0.410254 0.540057
O O9 0.643745 0.346430 0.580914
O O10 0.641132 0.412754 0.466767
O O11 0.638784 0.474552 0.581010
O O12 0.653394 0.250000 0.018045
O O13 0.608323 0.350682 0.079466
O O14 0.750000 0.355248 0.000000
O O15 0.143407 0.577070 0.333504
O O16 0.111639 0.628630 0.209731
O O17 0.500000 0.685388 0.355768
O O18 0.647044 0.750000 0.330388
O O19 0.000000 0.449894 0.600784
O O20 0.886792 0.750000 0.160661
#
# Coordination Sequence:
#
# PCOD9501023 Si02
#       8
#    16  16  16  16  16  16  16  16
#     4   8  13  23  40  60  85 120 152 186 234 281
#     4  10  19  29  41  66 102 126 152 187 233 292
#     4   8  15  29  50  72  89 112 154 200 234 269
#     4   7  10  19  37  58  79 109 154 195 226 270
#     4  10  19  29  44  66  96 129 155 187 237 285
#     4  10  19  32  52  74  96 122 153 196 245 288
#     4   9  16  30  52  70  87 118 159 197 229 272
#     4   8  14  25  40  59  84 117 157 195 231 276
#
# _framework density 20.700944
#
# number of rings (size 3 to 8) (size 9 to 14) (size 15 to 20)
#    0.000    3.250    1.250    2.625    0.000    0.500 
#    0.000    1.875    0.000    5.625    0.000    0.875 
#    0.000    5.000    0.000    0.000    0.000    0.000 
#
# Total GULP energy -356403.061243 kJ/mol
# GULP energy per Si atom -5568.797832 kJ/mol
# Density = 2.065383 g / cm^3
# Si number density = 20.700944 Si / 1000 Ang^3
#
#
#
# Elastic Constant Matrix: (Units=GPa)
#
#
# Indices 1 2 3 4 5 6 
#
# 1 61.2913 8.7349 0.9436 0.0000 0.0000 0.0000
# 2 8.7349 131.6285 97.1764 0.0000 0.0000 0.0000
# 3 0.9436 97.1764 187.3675 0.0000 0.0000 0.0000
# 4 0.0000 0.0000 0.0000 43.5853 0.0000 0.0000
# 5 0.0000 0.0000 0.0000 0.0000 -8.8371 0.0000
# 6 0.0000 0.0000 0.0000 0.0000 0.0000 -19.5570
#
#
#
# Elastic Compliance Matrix: (Units=1/GPa)
#
#
# Indices 1 2 3 4 5 6 
#
# 1 0.016543 -0.001679 0.000788 0.000000 0.000000 0.000000
# 2 -0.001679 0.012481 -0.006465 0.000000 0.000000 0.000000
# 3 0.000788 -0.006465 0.008686 0.000000 0.000000 0.000000
# 4 0.000000 0.000000 0.000000 0.022944 0.000000 0.000000
# 5 0.000000 0.000000 0.000000 0.000000 -0.113160 0.000000
# 6 0.000000 0.000000 0.000000 0.000000 0.000000 -0.051133
#
#
# Mechanical properties :
#
#
# Convention : Reuss Voigt Hill
#
# Bulk Modulus (GPa) = 43.48368 65.99969 54.74168
# Shear Modulus (GPa) = -61.53082 21.26708 -20.13187
#
# Velocity S-wave (km/s) = -5.45786 3.20870 -3.12189
# Velocity P-wave (km/s) = 4.32046 6.75865 3.67512
#
# Compressibility (1/GPa) = 0.02299713
#
# Stress axis : x y z
#
# Youngs Moduli (GPa) = 60.44955 80.11948 115.12659
#
# Poissons Ratio (x) = 0.13454 -0.09067
# Poissons Ratio (y) = 0.10151 0.74428
# Poissons Ratio (z) = -0.04761 0.51796
#
# Static dielectric constant tensor:
#      x y z
#    x 2.131710 0.000000 0.000000 
#    y 0.000000 1.730130 0.000000 
#    z 0.000000 0.000000 1.778120 
# 
# From -- ./inp_files/39142.got.cif
#   From: 2010.05.17/outbox.cif.g08.bks.cpg/sg67_20_cif.got.tgz:39142.got - 2010.06.03 18:28:57.
