data_PCOD9501142
_publ_section_title
;
Structure prediction by ZEFSAII (Michael W. Deem and Ramdas Pophale) SiO2 
 PCOD9501142
Probable space group: C M M A
;
_chemical_formula_sum "Si O2"
_cell_formula_units_Z 112
_cell_length_a 29.224655
_cell_length_b 14.162541
_cell_length_c 16.172263
_cell_angle_alpha 90.000000
_cell_angle_beta 90.000000
_cell_angle_gamma 90.000000
_cell_volume 6693.624853
_symmetry_space_group_name_H-M "C M M A"
_symmetry_group_IT_number 67
_symmetry_cell_setting 'orthorhombic'
loop_
_space_group_symop_operation_xyz
x,y,z
-x,1/2-y,z
x,-y,-z
-x,1/2+y,-z
-x,-y,-z
x,1/2+y,-z
-x,y,z
x,1/2-y,z
1/2+x,1/2+y,z
1/2-x,-y,z
1/2+x,1/2-y,-z
1/2-x,y,-z
1/2-x,1/2-y,-z
1/2+x,y,-z
1/2-x,1/2+y,z
1/2+x,-y,z
loop_
_atom_site_type_symbol
_atom_site_label
_atom_site_fract_x
_atom_site_fract_y
_atom_site_fract_z
Si Si1 0.948737 0.635531 0.714675
Si Si2 0.699568 0.862413 0.535622
Si Si3 0.551674 0.364449 0.904842
Si Si4 0.648188 0.636876 0.027981
Si Si5 0.140838 0.637657 0.624276
Si Si6 0.695787 0.019970 0.117582
Si Si7 0.303322 0.021247 0.300486
O O1 0.949401 0.750000 0.716389
O O2 0.938261 0.605737 0.809532
O O3 0.910819 0.609399 0.647371
O O4 0.000000 0.603014 0.694647
O O5 0.701618 0.750000 0.548138
O O6 0.750000 0.890409 0.500000
O O7 0.661423 0.883019 0.466156
O O8 0.687581 0.912309 0.621328
O O9 0.500000 0.396782 0.926594
O O10 0.550129 0.250000 0.903537
O O11 0.594149 0.387699 0.964184
O O12 0.653434 0.750000 0.030846
O O13 0.671809 0.581476 0.103681
O O14 0.673584 0.590890 0.949114
O O15 0.145729 0.750000 0.636857
O O16 0.171353 0.577373 0.686163
O O17 0.686555 0.058475 0.209185
O O18 0.750000 0.000000 0.105425
O O19 0.250000 0.000000 0.302557
#
# Coordination Sequence:
#
# PCOD9501142 Si02
#       7
#    16  16  16  16  16  16  16
#     4   8  14  26  45  73 106 131 159 206 256 301
#     4  10  20  34  51  73 100 130 171 213 246 297
#     4   8  14  26  48  76 100 125 161 207 259 307
#     4  10  19  35  55  71  99 134 164 210 258 299
#     4  10  19  30  50  78 102 131 167 202 253 309
#     4  10  23  36  47  73 101 132 179 211 240 302
#     4  11  21  33  51  70 101 138 166 209 259 294
#
# _framework density 16.732339
#
# number of rings (size 3 to 8) (size 9 to 14) (size 15 to 20)
#    0.000    2.429    1.429    3.000    0.000    3.429 
#    0.000    4.286    0.000    2.571    0.000    0.000 
#    0.000    4.571    0.000    0.000    0.000    0.000 
#
# Total GULP energy -311764.061171 kJ/mol
# GULP energy per Si atom -5567.215378 kJ/mol
# Density = 1.669426 g / cm^3
# Si number density = 16.732339 Si / 1000 Ang^3
#
#
#
# Elastic Constant Matrix: (Units=GPa)
#
#
# Indices 1 2 3 4 5 6 
#
# 1 128.1935 31.8978 65.2544 0.0000 0.0000 0.0000
# 2 31.8978 55.7403 26.1742 0.0000 0.0000 0.0000
# 3 65.2544 26.1742 108.4089 0.0000 0.0000 0.0000
# 4 0.0000 0.0000 0.0000 4.8105 0.0000 0.0000
# 5 0.0000 0.0000 0.0000 0.0000 20.0893 0.0000
# 6 0.0000 0.0000 0.0000 0.0000 0.0000 14.3952
#
#
#
# Elastic Compliance Matrix: (Units=1/GPa)
#
#
# Indices 1 2 3 4 5 6 
#
# 1 0.011956 -0.003905 -0.006254 0.000000 0.000000 0.000000
# 2 -0.003905 0.021510 -0.002843 0.000000 0.000000 0.000000
# 3 -0.006254 -0.002843 0.013675 0.000000 0.000000 0.000000
# 4 0.000000 0.000000 0.000000 0.207879 0.000000 0.000000
# 5 0.000000 0.000000 0.000000 0.000000 0.049778 0.000000
# 6 0.000000 0.000000 0.000000 0.000000 0.000000 0.069467
#
#
# Mechanical properties :
#
#
# Convention : Reuss Voigt Hill
#
# Bulk Modulus (GPa) = 47.30919 59.88840 53.59879
# Shear Modulus (GPa) = 12.27554 19.12676 15.70115
#
# Velocity S-wave (km/s) = 2.71152 3.38465 3.06661
# Velocity P-wave (km/s) = 6.17565 7.15151 6.68142
#
# Compressibility (1/GPa) = 0.02113754
#
# Stress axis : x y z
#
# Youngs Moduli (GPa) = 83.64210 46.49008 73.12667
#
# Poissons Ratio (x) = 0.18155 0.45731
# Poissons Ratio (y) = 0.32664 0.20788
# Poissons Ratio (z) = 0.52307 0.13216
#
# Static dielectric constant tensor:
#      x y z
#    x 1.585120 0.000000 0.000000 
#    y 0.000000 1.575580 0.000000 
#    z 0.000000 0.000000 1.591900 
# 
# From -- ./inp_files/31226.got.cif
#   From: 2010.05.17/outbox.cif.g08.bks.cpg/sg67_16_cif.got.tgz:31226.got - 2010.06.03 18:28:57.
