data_PCOD9501586
_publ_section_title
;
Structure prediction by ZEFSAII (Michael W. Deem and Ramdas Pophale) SiO2 
 PCOD9501586
Probable space group: C M M A
;
_chemical_formula_sum "Si O2"
_cell_formula_units_Z 88
_cell_length_a 13.919226
_cell_length_b 14.031268
_cell_length_c 23.016117
_cell_angle_alpha 90.000000
_cell_angle_beta 90.000000
_cell_angle_gamma 90.000000
_cell_volume 4495.148699
_symmetry_space_group_name_H-M "C M M A"
_symmetry_group_IT_number 67
_symmetry_cell_setting 'orthorhombic'
loop_
_space_group_symop_operation_xyz
x,y,z
-x,1/2-y,z
x,-y,-z
-x,1/2+y,-z
-x,-y,-z
x,1/2+y,-z
-x,y,z
x,1/2-y,z
1/2+x,1/2+y,z
1/2-x,-y,z
1/2+x,1/2-y,-z
1/2-x,y,-z
1/2-x,1/2-y,-z
1/2+x,y,-z
1/2-x,1/2+y,z
1/2+x,-y,z
loop_
_atom_site_type_symbol
_atom_site_label
_atom_site_fract_x
_atom_site_fract_y
_atom_site_fract_z
Si Si1 0.750000 0.500000 0.237673
Si Si2 0.387737 0.864608 0.543643
Si Si3 0.888734 0.487759 0.931561
Si Si4 0.883862 0.856397 0.583458
Si Si5 0.226330 0.363871 0.131761
Si Si6 0.385850 0.034374 0.340821
O O1 0.778034 0.413239 0.195081
O O2 0.667842 0.459985 0.280213
O O3 0.500000 0.895800 0.544930
O O4 0.384933 0.750000 0.543294
O O5 0.350262 0.892936 0.479778
O O6 0.348580 0.902128 0.604797
O O7 0.862535 0.589090 0.902574
O O8 0.819171 0.409921 0.901307
O O9 0.000000 0.463337 0.923115
O O10 0.869573 0.500000 0.000000
O O11 0.846449 0.750000 0.592898
O O12 0.867859 0.928064 0.635307
O O13 0.000000 0.850182 0.577821
O O14 0.228060 0.250000 0.132674
O O15 0.500000 0.051041 0.333668
#
# Coordination Sequence:
#
# PCOD9501586 Si02
#       6
#     8  16  16  16  16  16
#     4  10  24  38  50  74 104 140 194 242 266 308
#     4   8  14  26  46  71  95 120 155 205 273 348
#     4   9  19  37  63  97 129 151 182 231 279 327
#     4   8  14  26  46  71  95 120 155 205 273 348
#     4  10  22  40  59  81 118 165 200 230 275 327
#     4  10  19  33  52  69  92 130 172 220 278 330
#
# _framework density 19.576661000000001
#
# number of rings (size 3 to 8) (size 9 to 14) (size 15 to 20)
#    0.000    3.091    0.000    2.727    0.000    8.727 
#    0.000    3.636    0.000    2.182    0.000    0.000 
#    0.000    0.000    0.000    0.000    0.000    0.000 
#
# Total GULP energy -245360.367286 kJ/mol
# GULP energy per Si atom -5576.371984 kJ/mol
# Density = 1.953210 g / cm^3
# Si number density = 19.576661 Si / 1000 Ang^3
#
#
#
# Elastic Constant Matrix: (Units=GPa)
#
#
# Indices 1 2 3 4 5 6 
#
# 1 39.5509 -30.4419 7.5324 0.0000 0.0000 0.0000
# 2 -30.4419 88.2436 25.9004 0.0000 0.0000 0.0000
# 3 7.5324 25.9004 138.0103 0.0000 0.0000 0.0000
# 4 0.0000 0.0000 0.0000 6.0918 0.0000 0.0000
# 5 0.0000 0.0000 0.0000 0.0000 -103.9444 0.0000
# 6 0.0000 0.0000 0.0000 0.0000 0.0000 4.9313
#
#
#
# Elastic Compliance Matrix: (Units=1/GPa)
#
#
# Indices 1 2 3 4 5 6 
#
# 1 0.037079 0.014165 -0.004682 0.000000 0.000000 0.000000
# 2 0.014165 0.017405 -0.004039 0.000000 0.000000 0.000000
# 3 -0.004682 -0.004039 0.008259 0.000000 0.000000 0.000000
# 4 0.000000 0.000000 0.000000 0.164156 0.000000 0.000000
# 5 0.000000 0.000000 0.000000 0.000000 -0.009621 0.000000
# 6 0.000000 0.000000 0.000000 0.000000 0.000000 0.202788
#
#
# Mechanical properties :
#
#
# Convention : Reuss Voigt Hill
#
# Bulk Modulus (GPa) = 13.58132 30.19851 21.88992
# Shear Modulus (GPa) = 11.52813 -1.06334 5.23239
#
# Velocity S-wave (km/s) = 2.42930 -0.73780 1.63664
# Velocity P-wave (km/s) = 3.84983 3.83842 3.84413
#
# Compressibility (1/GPa) = 0.07363054
#
# Stress axis : x y z
#
# Youngs Moduli (GPa) = 26.96971 57.45590 121.07322
#
# Poissons Ratio (x) = -0.81389 0.56688
# Poissons Ratio (y) = -0.38204 0.48907
# Poissons Ratio (z) = 0.12628 0.23209
#
# Static dielectric constant tensor:
#      x y z
#    x 1.770550 0.000000 0.000000 
#    y 0.000000 1.682890 0.000000 
#    z 0.000000 0.000000 1.671430 
# 
# From -- ./inp_files/38318.got.cif
#   From: 2010.05.17/outbox.cif.g08.bks.cpg/sg67_20_cif.got.tgz:38318.got - 2010.06.03 18:28:57.
