data_PCOD9501795
_publ_section_title
;
Structure prediction by ZEFSAII (Michael W. Deem and Ramdas Pophale) SiO2 
 PCOD9501795
Probable space group: C M M A
;
_chemical_formula_sum "Si O2"
_cell_formula_units_Z 100
_cell_length_a 7.696661
_cell_length_b 32.475312
_cell_length_c 19.810167
_cell_angle_alpha 90.000000
_cell_angle_beta 90.000000
_cell_angle_gamma 90.000000
_cell_volume 4951.580310
_symmetry_space_group_name_H-M "C M M A"
_symmetry_group_IT_number 67
_symmetry_cell_setting 'orthorhombic'
loop_
_space_group_symop_operation_xyz
x,y,z
-x,1/2-y,z
x,-y,-z
-x,1/2+y,-z
-x,-y,-z
x,1/2+y,-z
-x,y,z
x,1/2-y,z
1/2+x,1/2+y,z
1/2-x,-y,z
1/2+x,1/2-y,-z
1/2-x,y,-z
1/2-x,1/2-y,-z
1/2+x,y,-z
1/2-x,1/2+y,z
1/2+x,-y,z
loop_
_atom_site_type_symbol
_atom_site_label
_atom_site_fract_x
_atom_site_fract_y
_atom_site_fract_z
Si Si1 0.292183 0.128126 0.422242
Si Si2 0.294271 0.544918 0.802157
Si Si3 0.208803 0.204442 0.078820
Si Si4 0.794588 0.633021 0.822732
Si Si5 0.000000 0.250000 0.271305
Si Si6 0.798458 0.682502 0.299856
Si Si7 0.791135 0.545394 0.352219
O O1 0.500000 0.126795 0.415902
O O2 0.250000 0.134776 0.500000
O O3 0.238677 0.164894 0.372333
O O4 0.224464 0.084107 0.395055
O O5 0.500000 0.547463 0.797859
O O6 0.250000 0.500000 0.830415
O O7 0.233478 0.585526 0.840644
O O8 0.222717 0.546828 0.725032
O O9 0.273537 0.250000 0.100177
O O10 0.272446 0.166491 0.123342
O O11 0.000000 0.205556 0.085807
O O12 0.250000 0.199321 0.000000
O O13 0.705564 0.644083 0.751902
O O14 0.000000 0.638956 0.815006
O O15 0.155610 0.214505 0.273636
O O16 0.000000 0.697250 0.303372
O O17 0.750000 0.500000 0.380027
O O18 0.000000 0.548392 0.349390
#
# Coordination Sequence:
#
# PCOD9501795 Si02
#       7
#    16  16  16  16   4  16  16
#     4  10  22  39  60  82 114 154 199 247 304 368
#     4  10  19  34  55  84 120 158 201 251 302 359
#     4   9  20  37  58  87 126 162 202 245 297 366
#     4  11  21  35  62  92 125 164 204 250 301 361
#     4  12  26  44  66  90 120 150 200 258 322 362
#     4  11  24  43  64  91 120 155 203 253 308 371
#     4   9  18  33  51  79 114 148 189 239 293 359
#
# _framework density 20.195571999999999
#
# number of rings (size 3 to 8) (size 9 to 14) (size 15 to 20)
#    0.000    1.920    2.400    1.200    2.240    2.880 
#    0.000    2.000    0.000    0.480    0.000    3.360 
#    0.000    0.000    0.000    0.000    0.000    0.000 
#
# Total GULP energy -278549.961597 kJ/mol
# GULP energy per Si atom -5570.999232 kJ/mol
# Density = 2.014961 g / cm^3
# Si number density = 20.195572 Si / 1000 Ang^3
#
#
#
# Elastic Constant Matrix: (Units=GPa)
#
#
# Indices 1 2 3 4 5 6 
#
# 1 74.6400 22.2621 -1.4402 0.0000 0.0000 0.0000
# 2 22.2621 148.0245 40.1426 0.0000 0.0000 0.0000
# 3 -1.4402 40.1426 54.7671 0.0000 0.0000 0.0000
# 4 0.0000 0.0000 0.0000 -76.3279 0.0000 0.0000
# 5 0.0000 0.0000 0.0000 0.0000 16.3948 0.0000
# 6 0.0000 0.0000 0.0000 0.0000 0.0000 39.6832
#
#
#
# Elastic Compliance Matrix: (Units=1/GPa)
#
#
# Indices 1 2 3 4 5 6 
#
# 1 0.014282 -0.002808 0.002434 0.000000 0.000000 0.000000
# 2 -0.002808 0.008984 -0.006659 0.000000 0.000000 0.000000
# 3 0.002434 -0.006659 0.023204 0.000000 0.000000 0.000000
# 4 0.000000 0.000000 0.000000 -0.013101 0.000000 0.000000
# 5 0.000000 0.000000 0.000000 0.000000 0.060995 0.000000
# 6 0.000000 0.000000 0.000000 0.000000 0.000000 0.025200
#
#
# Mechanical properties :
#
#
# Convention : Reuss Voigt Hill
#
# Bulk Modulus (GPa) = 30.86060 44.37339 37.61699
# Shear Modulus (GPa) = 34.61893 10.38114 22.50004
#
# Velocity S-wave (km/s) = 4.14476 2.26968 3.34145
# Velocity P-wave (km/s) = 6.18219 5.37477 5.79256
#
# Compressibility (1/GPa) = 0.03240378
#
# Stress axis : x y z
#
# Youngs Moduli (GPa) = 70.01770 111.31304 43.09663
#
# Poissons Ratio (x) = 0.31256 -0.10488
# Poissons Ratio (y) = 0.19661 0.28696
# Poissons Ratio (z) = -0.17040 0.74119
#
# Static dielectric constant tensor:
#      x y z
#    x 1.715730 0.000000 0.000000 
#    y 0.000000 1.811130 0.000000 
#    z 0.000000 0.000000 1.720080 
# 
# From -- ./inp_files/37479.got.cif
#   From: 2010.05.17/outbox.cif.g08.bks.cpg/sg67_19_cif.got.tgz:37479.got - 2010.06.03 18:28:57.
