data_PCOD9501580
_publ_section_title
;
Structure prediction by ZEFSAII (Michael W. Deem and Ramdas Pophale) SiO2 
 PCOD9501580
Probable space group: C M M A
;
_chemical_formula_sum "Si O2"
_cell_formula_units_Z 120
_cell_length_a 28.266446
_cell_length_b 14.075286
_cell_length_c 16.779521
_cell_angle_alpha 90.000000
_cell_angle_beta 90.000000
_cell_angle_gamma 90.000000
_cell_volume 6675.871895
_symmetry_space_group_name_H-M "C M M A"
_symmetry_group_IT_number 67
_symmetry_cell_setting 'orthorhombic'
loop_
_space_group_symop_operation_xyz
x,y,z
-x,1/2-y,z
x,-y,-z
-x,1/2+y,-z
-x,-y,-z
x,1/2+y,-z
-x,y,z
x,1/2-y,z
1/2+x,1/2+y,z
1/2-x,-y,z
1/2+x,1/2-y,-z
1/2-x,y,-z
1/2-x,1/2-y,-z
1/2+x,y,-z
1/2-x,1/2+y,z
1/2+x,-y,z
loop_
_atom_site_type_symbol
_atom_site_label
_atom_site_fract_x
_atom_site_fract_y
_atom_site_fract_z
Si Si1 0.835792 0.141034 0.624902
Si Si2 0.556465 0.353794 0.948248
Si Si3 0.724174 0.355230 0.605807
Si Si4 0.187997 0.143268 0.214166
Si Si5 0.648484 0.558887 0.799753
Si Si6 0.555901 0.559362 0.879716
Si Si7 0.728347 0.138721 0.085189
Si Si8 0.334819 0.000000 0.500000
O O1 0.851906 0.250000 0.620856
O O2 0.780462 0.138298 0.599896
O O3 0.836720 0.104888 0.715834
O O4 0.860913 0.070733 0.561809
O O5 0.500000 0.347825 0.936854
O O6 0.577128 0.250000 0.928041
O O7 0.569264 0.450364 0.902766
O O8 0.563473 0.377716 0.041215
O O9 0.709375 0.250000 0.578110
O O10 0.711476 0.362897 0.698772
O O11 0.696836 0.434435 0.557480
O O12 0.168010 0.250000 0.205430
O O13 0.229111 0.131482 0.148727
O O14 0.153340 0.054714 0.207649
O O15 0.594756 0.589306 0.816406
O O16 0.683349 0.589036 0.872737
O O17 0.500000 0.563652 0.859421
O O18 0.715802 0.250000 0.075339
O O19 0.750000 0.106536 0.000000
#
# Coordination Sequence:
#
# PCOD9501580 Si02
#       8
#    16  16  16  16  16  16  16   8
#     4  11  22  34  51  79 108 140 178 215 266 324
#     4   8  15  32  55  74  99 133 169 221 279 320
#     4  10  19  33  51  74 107 140 173 216 261 315
#     4  10  21  36  52  72 105 142 181 222 261 314
#     4  12  22  35  56  76 110 150 179 222 279 318
#     4   9  20  35  53  81 107 135 184 233 276 327
#     4  10  22  38  54  74 104 146 191 226 257 310
#     4  12  21  32  56  80 103 142 179 218 260 330
#
# _framework density 17.975180000000002
#
# number of rings (size 3 to 8) (size 9 to 14) (size 15 to 20)
#    0.000    1.867    2.667    3.200    0.000    5.867 
#    0.000    1.333    0.000    0.000    0.000    0.467 
#    0.000    0.000    0.000    0.000    0.000    0.000 
#
# Total GULP energy -334591.927128 kJ/mol
# GULP energy per Si atom -5576.532119 kJ/mol
# Density = 1.793427 g / cm^3
# Si number density = 17.975180 Si / 1000 Ang^3
#
#
#
# Elastic Constant Matrix: (Units=GPa)
#
#
# Indices 1 2 3 4 5 6 
#
# 1 30.3960 16.7155 26.2466 0.0000 0.0000 0.0000
# 2 16.7155 100.4047 42.0066 0.0000 0.0000 0.0000
# 3 26.2466 42.0066 108.8801 0.0000 0.0000 0.0000
# 4 0.0000 0.0000 0.0000 17.3421 0.0000 0.0000
# 5 0.0000 0.0000 0.0000 0.0000 13.2558 0.0000
# 6 0.0000 0.0000 0.0000 0.0000 0.0000 5.3614
#
#
#
# Elastic Compliance Matrix: (Units=1/GPa)
#
#
# Indices 1 2 3 4 5 6 
#
# 1 0.042457 -0.003323 -0.008953 0.000000 0.000000 0.000000
# 2 -0.003323 0.012137 -0.003881 0.000000 0.000000 0.000000
# 3 -0.008953 -0.003881 0.012840 0.000000 0.000000 0.000000
# 4 0.000000 0.000000 0.000000 0.057663 0.000000 0.000000
# 5 0.000000 0.000000 0.000000 0.000000 0.075439 0.000000
# 6 0.000000 0.000000 0.000000 0.000000 0.000000 0.186517
#
#
# Mechanical properties :
#
#
# Convention : Reuss Voigt Hill
#
# Bulk Modulus (GPa) = 28.47391 45.51314 36.99353
# Shear Modulus (GPa) = 11.59895 17.50600 14.55248
#
# Velocity S-wave (km/s) = 2.54298 3.12412 2.84841
# Velocity P-wave (km/s) = 4.94949 6.19584 5.60740
#
# Compressibility (1/GPa) = 0.03511987
#
# Stress axis : x y z
#
# Youngs Moduli (GPa) = 23.55334 82.39433 77.88139
#
# Poissons Ratio (x) = 0.27377 0.69725
# Poissons Ratio (y) = 0.07826 0.30229
# Poissons Ratio (z) = 0.21087 0.31981
#
# Static dielectric constant tensor:
#      x y z
#    x 1.583400 0.000000 0.000000 
#    y 0.000000 1.707920 0.000000 
#    z 0.000000 0.000000 1.643410 
# 
# From -- ./inp_files/31275.got.cif
#   From: 2010.05.17/outbox.cif.g08.bks.cpg/sg67_16_cif.got.tgz:31275.got - 2010.06.03 18:28:57.
