data_PCOD9501825
_publ_section_title
;
Structure prediction by ZEFSAII (Michael W. Deem and Ramdas Pophale) SiO2 
 PCOD9501825
Probable space group: C M M A
;
_chemical_formula_sum "Si O2"
_cell_formula_units_Z 96
_cell_length_a 30.583184
_cell_length_b 14.343288
_cell_length_c 11.174707
_cell_angle_alpha 90.000000
_cell_angle_beta 90.000000
_cell_angle_gamma 90.000000
_cell_volume 4901.935146
_symmetry_space_group_name_H-M "C M M A"
_symmetry_group_IT_number 67
_symmetry_cell_setting 'orthorhombic'
loop_
_space_group_symop_operation_xyz
x,y,z
-x,1/2-y,z
x,-y,-z
-x,1/2+y,-z
-x,-y,-z
x,1/2+y,-z
-x,y,z
x,1/2-y,z
1/2+x,1/2+y,z
1/2-x,-y,z
1/2+x,1/2-y,-z
1/2-x,y,-z
1/2-x,1/2-y,-z
1/2+x,y,-z
1/2-x,1/2+y,z
1/2+x,-y,z
loop_
_atom_site_type_symbol
_atom_site_label
_atom_site_fract_x
_atom_site_fract_y
_atom_site_fract_z
Si Si1 0.046768 0.639975 0.026030
Si Si2 0.318987 0.250000 0.572319
Si Si3 0.640562 0.915520 0.277772
Si Si4 0.451556 0.359937 0.736865
Si Si5 0.206270 0.939693 0.187243
Si Si6 0.721408 0.250000 0.325768
Si Si7 0.141826 0.860844 0.001285
O O1 0.046684 0.750000 0.057183
O O2 0.046142 0.635231 0.881598
O O3 0.000000 0.599659 0.069948
O O4 0.095174 0.603438 0.055840
O O5 0.341391 0.340718 0.628628
O O6 0.315169 0.250000 0.429498
O O7 0.269306 0.250000 0.617662
O O8 0.588802 0.923576 0.302364
O O9 0.671847 0.004511 0.270813
O O10 0.643254 0.875423 0.141316
O O11 0.500000 0.383106 0.690910
O O12 0.442404 0.250000 0.709540
O O13 0.217813 0.842536 0.248316
O O14 0.180927 0.912581 0.066546
O O15 0.250000 0.000000 0.170280
O O16 0.144246 0.750000 0.023212
#
# Coordination Sequence:
#
# PCOD9501825 Si02
#       7
#    16   8  16  16  16   8  16
#     4   7  11  22  44  76 110 153 193 220 262 328
#     4  11  22  43  68  85 110 142 198 253 294 343
#     4  11  20  36  60  95 119 152 194 239 296 347
#     4   8  13  25  50  84 122 152 185 233 284 340
#     4  12  25  41  59  84 118 158 195 240 292 356
#     4  11  26  47  61  81 108 150 201 247 298 339
#     4  10  19  34  57  83 126 159 186 233 286 358
#
# _framework density 19.584102999999999
#
# number of rings (size 3 to 8) (size 9 to 14) (size 15 to 20)
#    0.000    2.167    4.167    2.500    0.000    2.000 
#    0.000    2.500    0.000    4.000    0.000    5.833 
#    0.000    0.000    0.000    0.000    0.000    0.000 
#
# Total GULP energy -267694.302487 kJ/mol
# GULP energy per Si atom -5576.964635 kJ/mol
# Density = 1.953953 g / cm^3
# Si number density = 19.584103 Si / 1000 Ang^3
#
#
#
# Elastic Constant Matrix: (Units=GPa)
#
#
# Indices 1 2 3 4 5 6 
#
# 1 164.2149 53.3563 29.4325 0.0000 0.0000 0.0000
# 2 53.3563 96.6576 13.1884 0.0000 0.0000 0.0000
# 3 29.4325 13.1884 45.1930 0.0000 0.0000 0.0000
# 4 0.0000 0.0000 0.0000 -19.2458 0.0000 0.0000
# 5 0.0000 0.0000 0.0000 0.0000 -150.2874 0.0000
# 6 0.0000 0.0000 0.0000 0.0000 0.0000 0.4601
#
#
#
# Elastic Compliance Matrix: (Units=1/GPa)
#
#
# Indices 1 2 3 4 5 6 
#
# 1 0.008100 -0.003907 -0.004135 0.000000 0.000000 0.000000
# 2 -0.003907 0.012660 -0.001150 0.000000 0.000000 0.000000
# 3 -0.004135 -0.001150 0.025156 0.000000 0.000000 0.000000
# 4 0.000000 0.000000 0.000000 -0.051959 0.000000 0.000000
# 5 0.000000 0.000000 0.000000 0.000000 -0.006654 0.000000
# 6 0.000000 0.000000 0.000000 0.000000 0.000000 2.173249
#
#
# Mechanical properties :
#
#
# Convention : Reuss Voigt Hill
#
# Bulk Modulus (GPa) = 36.32207 55.33554 45.82880
# Shear Modulus (GPa) = 2.28507 -19.80873 -8.76183
#
# Velocity S-wave (km/s) = 1.08136 -3.18381 -2.11747
# Velocity P-wave (km/s) = 4.48844 3.84722 4.18014
#
# Compressibility (1/GPa) = 0.02753147
#
# Stress axis : x y z
#
# Youngs Moduli (GPa) = 123.45267 78.99195 39.75205
#
# Poissons Ratio (x) = 0.30864 0.16438
# Poissons Ratio (y) = 0.48236 0.04570
# Poissons Ratio (z) = 0.51050 0.09082
#
# Static dielectric constant tensor:
#      x y z
#    x 1.767910 0.000000 0.000000 
#    y 0.000000 1.833480 0.000000 
#    z 0.000000 0.000000 1.650740 
# 
# From -- ./inp_files/18533.got.cif
#   From: 2010.05.17/outbox.cif.g08.bks.cpg/sg67_10_cif.got.tgz:18533.got - 2010.06.03 18:28:57.
