data_PCOD9501587
_publ_section_title
;
Structure prediction by ZEFSAII (Michael W. Deem and Ramdas Pophale) SiO2 
 PCOD9501587
Probable space group: C M M A
;
_chemical_formula_sum "Si O2"
_cell_formula_units_Z 80
_cell_length_a 19.639158
_cell_length_b 8.708467
_cell_length_c 26.797378
_cell_angle_alpha 90.000000
_cell_angle_beta 90.000000
_cell_angle_gamma 90.000000
_cell_volume 4583.074078
_symmetry_space_group_name_H-M "C M M A"
_symmetry_group_IT_number 67
_symmetry_cell_setting 'orthorhombic'
loop_
_space_group_symop_operation_xyz
x,y,z
-x,1/2-y,z
x,-y,-z
-x,1/2+y,-z
-x,-y,-z
x,1/2+y,-z
-x,y,z
x,1/2-y,z
1/2+x,1/2+y,z
1/2-x,-y,z
1/2+x,1/2-y,-z
1/2-x,y,-z
1/2-x,1/2-y,-z
1/2+x,y,-z
1/2-x,1/2+y,z
1/2+x,-y,z
loop_
_atom_site_type_symbol
_atom_site_label
_atom_site_fract_x
_atom_site_fract_y
_atom_site_fract_z
Si Si1 0.325714 0.064837 0.752151
Si Si2 0.921382 0.437589 0.339336
Si Si3 0.419569 0.066711 0.945625
Si Si4 0.582849 0.572056 0.448295
Si Si5 0.174090 0.066433 0.858957
O O1 0.323512 0.250000 0.754787
O O2 0.374279 0.017498 0.706652
O O3 0.250000 0.000000 0.743989
O O4 0.349498 0.999443 0.805429
O O5 0.921417 0.250000 0.341362
O O6 0.896721 0.492597 0.394071
O O7 0.000000 0.484666 0.332065
O O8 0.500000 0.036194 0.937503
O O9 0.409347 0.250000 0.945258
O O10 0.374952 0.989478 0.902807
O O11 0.401643 0.000000 0.000000
O O12 0.607108 0.500000 0.500000
O O13 0.500000 0.563181 0.448092
O O14 0.601737 0.750000 0.449510
O O15 0.177275 0.250000 0.856899
O O16 0.250000 0.000000 0.867173
#
# Coordination Sequence:
#
# PCOD9501587 Si02
#       5
#    16  16  16  16  16
#     4  10  19  33  52  72  97 130 166 204 250 300
#     4   8  15  28  47  70  94 123 161 201 241 291
#     4  10  21  38  59  83 111 141 172 207 251 301
#     4   8  13  23  40  63  90 118 150 191 239 288
#     4  11  22  37  56  78 105 136 174 215 255 300
#
# _framework density 17.455532000000002
#
# number of rings (size 3 to 8) (size 9 to 14) (size 15 to 20)
#    0.000    2.600    0.000    5.400    0.000    2.400 
#    0.000    6.000    0.000    4.800    0.000    4.200 
#    0.000    0.000    0.000    0.000    0.000    0.000 
#
# Total GULP energy -222974.004464 kJ/mol
# GULP energy per Si atom -5574.350112 kJ/mol
# Density = 1.741580 g / cm^3
# Si number density = 17.455532 Si / 1000 Ang^3
#
#
#
# Elastic Constant Matrix: (Units=GPa)
#
#
# Indices 1 2 3 4 5 6 
#
# 1 49.4177 33.4299 89.4911 0.0000 0.0000 0.0000
# 2 33.4299 76.0717 69.6091 0.0000 0.0000 0.0000
# 3 89.4911 69.6091 219.2778 0.0000 0.0000 0.0000
# 4 0.0000 0.0000 0.0000 30.0130 0.0000 0.0000
# 5 0.0000 0.0000 0.0000 0.0000 -99.7888 0.0000
# 6 0.0000 0.0000 0.0000 0.0000 0.0000 18.6241
#
#
#
# Elastic Compliance Matrix: (Units=1/GPa)
#
#
# Indices 1 2 3 4 5 6 
#
# 1 0.080465 -0.007486 -0.030463 0.000000 0.000000 0.000000
# 2 -0.007486 0.019224 -0.003047 0.000000 0.000000 0.000000
# 3 -0.030463 -0.003047 0.017960 0.000000 0.000000 0.000000
# 4 0.000000 0.000000 0.000000 0.033319 0.000000 0.000000
# 5 0.000000 0.000000 0.000000 0.000000 -0.010021 0.000000
# 6 0.000000 0.000000 0.000000 0.000000 0.000000 0.053694
#
#
# Mechanical properties :
#
#
# Convention : Reuss Voigt Hill
#
# Bulk Modulus (GPa) = 28.04490 81.09196 54.56843
# Shear Modulus (GPa) = 17.32986 -0.08120 8.62433
#
# Velocity S-wave (km/s) = 3.15429 -0.21592 2.22519
# Velocity P-wave (km/s) = 5.41917 6.81872 6.15883
#
# Compressibility (1/GPa) = 0.03565711
#
# Stress axis : x y z
#
# Youngs Moduli (GPa) = 12.42769 52.01928 55.67816
#
# Poissons Ratio (x) = 0.38940 1.69613
# Poissons Ratio (y) = 0.09303 0.16968
# Poissons Ratio (z) = 0.37859 0.15853
#
# Static dielectric constant tensor:
#      x y z
#    x 1.570680 0.000000 0.000000 
#    y 0.000000 1.594610 0.000000 
#    z 0.000000 0.000000 1.607720 
# 
# From -- ./inp_files/44442.got.cif
#   From: 2010.05.17/outbox.cif.g08.bks.cpg/sg67_23_cif.got.tgz:44442.got - 2010.06.03 18:28:57.
