data_PCOD9501653
_publ_section_title
;
Structure prediction by ZEFSAII (Michael W. Deem and Ramdas Pophale) SiO2 
 PCOD9501653
Probable space group: C M M A
;
_chemical_formula_sum "Si O2"
_cell_formula_units_Z 80
_cell_length_a 15.207019
_cell_length_b 10.664026
_cell_length_c 28.288815
_cell_angle_alpha 90.000000
_cell_angle_beta 90.000000
_cell_angle_gamma 90.000000
_cell_volume 4587.541852
_symmetry_space_group_name_H-M "C M M A"
_symmetry_group_IT_number 67
_symmetry_cell_setting 'orthorhombic'
loop_
_space_group_symop_operation_xyz
x,y,z
-x,1/2-y,z
x,-y,-z
-x,1/2+y,-z
-x,-y,-z
x,1/2+y,-z
-x,y,z
x,1/2-y,z
1/2+x,1/2+y,z
1/2-x,-y,z
1/2+x,1/2-y,-z
1/2-x,y,-z
1/2-x,1/2-y,-z
1/2+x,y,-z
1/2-x,1/2+y,z
1/2+x,-y,z
loop_
_atom_site_type_symbol
_atom_site_label
_atom_site_fract_x
_atom_site_fract_y
_atom_site_fract_z
Si Si1 0.846912 0.883976 0.975438
Si Si2 0.000000 0.598574 0.700522
Si Si3 0.893863 0.890990 0.535912
Si Si4 0.500000 0.901261 0.192208
Si Si5 0.175067 0.398044 0.357564
Si Si6 0.322739 0.397295 0.862963
O O1 0.890134 0.750000 0.983371
O O2 0.836045 0.902972 0.919613
O O3 0.750000 0.877305 0.000000
O O4 0.892924 0.000000 0.000000
O O5 0.000000 0.550008 0.754169
O O6 0.088212 0.566442 0.672185
O O7 0.000000 0.750000 0.702401
O O8 0.874670 0.750000 0.517833
O O9 0.849996 0.904987 0.587016
O O10 0.000000 0.899182 0.542200
O O11 0.866883 0.000000 0.500000
O O12 0.500000 0.750000 0.194927
O O13 0.587596 0.932962 0.163521
O O14 0.197024 0.250000 0.347738
O O15 0.250000 0.500000 0.347373
O O16 0.301152 0.250000 0.852139
O O17 0.250000 0.500000 0.850059
#
# Coordination Sequence:
#
# PCOD9501653 Si02
#       6
#    16   8  16   8  16  16
#     4   9  15  25  45  70  99 136 169 200 247 301
#     4   9  18  38  60  75 103 141 177 221 274 325
#     4   9  17  31  51  76 108 146 181 215 260 314
#     4   9  20  36  56  81 103 135 181 223 264 321
#     4  10  20  35  57  82 107 140 182 223 266 321
#     4  10  19  33  54  78 106 137 174 216 259 311
#
# _framework density 17.438534000000001
#
# number of rings (size 3 to 8) (size 9 to 14) (size 15 to 20)
#    0.000    2.600    3.000    0.000    0.000    2.000 
#    0.000    3.500    0.000    1.200    0.000    0.000 
#    0.000    0.000    0.000    0.000    0.000    0.000 
#
# Total GULP energy -222800.844901 kJ/mol
# GULP energy per Si atom -5570.021123 kJ/mol
# Density = 1.739884 g / cm^3
# Si number density = 17.438534 Si / 1000 Ang^3
#
#
#
# Elastic Constant Matrix: (Units=GPa)
#
#
# Indices 1 2 3 4 5 6 
#
# 1 116.5834 78.7987 62.1884 0.0000 0.0000 0.0000
# 2 78.7987 128.1411 50.2539 0.0000 0.0000 0.0000
# 3 62.1884 50.2539 101.7456 0.0000 0.0000 0.0000
# 4 0.0000 0.0000 0.0000 89.8665 0.0000 0.0000
# 5 0.0000 0.0000 0.0000 0.0000 4.2566 0.0000
# 6 0.0000 0.0000 0.0000 0.0000 0.0000 24.2939
#
#
#
# Elastic Compliance Matrix: (Units=1/GPa)
#
#
# Indices 1 2 3 4 5 6 
#
# 1 0.017795 -0.008281 -0.006786 0.000000 0.000000 0.000000
# 2 -0.008281 0.013533 -0.001622 0.000000 0.000000 0.000000
# 3 -0.006786 -0.001622 0.014778 0.000000 0.000000 0.000000
# 4 0.000000 0.000000 0.000000 0.011128 0.000000 0.000000
# 5 0.000000 0.000000 0.000000 0.000000 0.234931 0.000000
# 6 0.000000 0.000000 0.000000 0.000000 0.000000 0.041163
#
#
# Mechanical properties :
#
#
# Convention : Reuss Voigt Hill
#
# Bulk Modulus (GPa) = 78.58334 80.99467 79.78901
# Shear Modulus (GPa) = 13.47898 34.03200 23.75549
#
# Velocity S-wave (km/s) = 2.78320 4.42242 3.69486
# Velocity P-wave (km/s) = 7.44910 8.52195 8.00352
#
# Compressibility (1/GPa) = 0.01272534
#
# Stress axis : x y z
#
# Youngs Moduli (GPa) = 56.19627 73.89551 67.67027
#
# Poissons Ratio (x) = 0.61195 0.45922
# Poissons Ratio (y) = 0.46538 0.10978
# Poissons Ratio (z) = 0.38136 0.11988
#
# Static dielectric constant tensor:
#      x y z
#    x 1.502900 0.000000 0.000000 
#    y 0.000000 1.630270 0.000000 
#    z 0.000000 0.000000 1.580110 
# 
# From -- ./inp_files/44289.got.cif
#   From: 2010.05.17/outbox.cif.g08.bks.cpg/sg67_23_cif.got.tgz:44289.got - 2010.06.03 18:28:57.
