data_PCOD9501689
_publ_section_title
;
Structure prediction by ZEFSAII (Michael W. Deem and Ramdas Pophale) SiO2 
 PCOD9501689
Probable space group: C M M A
;
_chemical_formula_sum "Si O2"
_cell_formula_units_Z 80
_cell_length_a 25.825244
_cell_length_b 19.077664
_cell_length_c 9.029760
_cell_angle_alpha 90.000000
_cell_angle_beta 90.000000
_cell_angle_gamma 90.000000
_cell_volume 4448.830265
_symmetry_space_group_name_H-M "C M M A"
_symmetry_group_IT_number 67
_symmetry_cell_setting 'orthorhombic'
loop_
_space_group_symop_operation_xyz
x,y,z
-x,1/2-y,z
x,-y,-z
-x,1/2+y,-z
-x,-y,-z
x,1/2+y,-z
-x,y,z
x,1/2-y,z
1/2+x,1/2+y,z
1/2-x,-y,z
1/2+x,1/2-y,-z
1/2-x,y,-z
1/2-x,1/2-y,-z
1/2+x,y,-z
1/2-x,1/2+y,z
1/2+x,-y,z
loop_
_atom_site_type_symbol
_atom_site_label
_atom_site_fract_x
_atom_site_fract_y
_atom_site_fract_z
Si Si1 0.712009 0.420790 0.354340
Si Si2 0.345781 0.534418 0.156357
Si Si3 0.629324 0.171112 0.508622
Si Si4 0.794817 0.671830 0.794005
Si Si5 0.058953 0.559398 0.626766
O O1 0.750000 0.429692 0.500000
O O2 0.694215 0.489557 0.260898
O O3 0.658944 0.384529 0.406439
O O4 0.741056 0.362400 0.256730
O O5 0.321746 0.610085 0.116153
O O6 0.398083 0.542717 0.249953
O O7 0.355264 0.500000 0.000000
O O8 0.623231 0.250000 0.449669
O O9 0.668184 0.176183 0.649171
O O10 0.576602 0.134074 0.559138
O O11 0.790189 0.750000 0.855412
O O12 0.062439 0.500000 0.500000
O O13 0.000000 0.561175 0.681107
#
# Coordination Sequence:
#
# PCOD9501689 Si02
#       5
#    16  16  16  16  16
#     4  10  19  33  55  80 114 154 188 227 273 327
#     4  11  23  37  56  82 113 147 190 231 279 338
#     4   9  17  31  54  85 111 139 185 231 276 325
#     4   9  19  33  52  77 112 150 186 224 267 328
#     4  10  20  36  59  82 105 139 186 233 281 333
#
# _framework density 17.982254999999999
#
# number of rings (size 3 to 8) (size 9 to 14) (size 15 to 20)
#    0.000    2.200    2.000    1.200    0.000    8.800 
#    0.000    3.000    0.000    0.000    0.000    0.000 
#    0.000    0.000    0.000    0.000    0.000    0.000 
#
# Total GULP energy -222848.318566 kJ/mol
# GULP energy per Si atom -5571.207964 kJ/mol
# Density = 1.794133 g / cm^3
# Si number density = 17.982255 Si / 1000 Ang^3
#
#
#
# Elastic Constant Matrix: (Units=GPa)
#
#
# Indices 1 2 3 4 5 6 
#
# 1 120.3115 44.5954 35.4598 0.0000 0.0000 0.0000
# 2 44.5954 146.2029 29.0659 0.0000 0.0000 0.0000
# 3 35.4598 29.0659 48.1570 0.0000 0.0000 0.0000
# 4 0.0000 0.0000 0.0000 11.4811 0.0000 0.0000
# 5 0.0000 0.0000 0.0000 0.0000 7.3991 0.0000
# 6 0.0000 0.0000 0.0000 0.0000 0.0000 8.8437
#
#
#
# Elastic Compliance Matrix: (Units=1/GPa)
#
#
# Indices 1 2 3 4 5 6 
#
# 1 0.011109 -0.002003 -0.006971 0.000000 0.000000 0.000000
# 2 -0.002003 0.008133 -0.003435 0.000000 0.000000 0.000000
# 3 -0.006971 -0.003435 0.027971 0.000000 0.000000 0.000000
# 4 0.000000 0.000000 0.000000 0.087099 0.000000 0.000000
# 5 0.000000 0.000000 0.000000 0.000000 0.135152 0.000000
# 6 0.000000 0.000000 0.000000 0.000000 0.000000 0.113075
#
#
# Mechanical properties :
#
#
# Convention : Reuss Voigt Hill
#
# Bulk Modulus (GPa) = 44.64827 59.21264 51.93045
# Shear Modulus (GPa) = 12.05338 19.24813 15.65075
#
# Velocity S-wave (km/s) = 2.59181 3.27524 2.95336
# Velocity P-wave (km/s) = 5.81718 6.87770 6.36955
#
# Compressibility (1/GPa) = 0.02239729
#
# Stress axis : x y z
#
# Youngs Moduli (GPa) = 90.02013 122.94937 35.75075
#
# Poissons Ratio (x) = 0.24621 0.24922
# Poissons Ratio (y) = 0.18027 0.12279
# Poissons Ratio (z) = 0.62753 0.42227
#
# Static dielectric constant tensor:
#      x y z
#    x 1.609570 0.000000 0.000000 
#    y 0.000000 1.672960 0.000000 
#    z 0.000000 0.000000 1.614740 
# 
# From -- ./inp_files/9913.got.cif
#   From: 2010.05.17/outbox.cif.g08.bks.cpg/sg67_5_cif.got.tgz:9913.got - 2010.06.03 18:28:57.
