data_PCOD9501195
_publ_section_title
;
Structure prediction by ZEFSAII (Michael W. Deem and Ramdas Pophale) SiO2 
 PCOD9501195
Probable space group: C M M A
;
_chemical_formula_sum "Si O2"
_cell_formula_units_Z 112
_cell_length_a 25.278521
_cell_length_b 15.145459
_cell_length_c 14.246840
_cell_angle_alpha 90.000000
_cell_angle_beta 90.000000
_cell_angle_gamma 90.000000
_cell_volume 5454.471127
_symmetry_space_group_name_H-M "C M M A"
_symmetry_group_IT_number 67
_symmetry_cell_setting 'orthorhombic'
loop_
_space_group_symop_operation_xyz
x,y,z
-x,1/2-y,z
x,-y,-z
-x,1/2+y,-z
-x,-y,-z
x,1/2+y,-z
-x,y,z
x,1/2-y,z
1/2+x,1/2+y,z
1/2-x,-y,z
1/2+x,1/2-y,-z
1/2-x,y,-z
1/2-x,1/2-y,-z
1/2+x,y,-z
1/2-x,1/2+y,z
1/2+x,-y,z
loop_
_atom_site_type_symbol
_atom_site_label
_atom_site_fract_x
_atom_site_fract_y
_atom_site_fract_z
Si Si1 0.441206 0.599690 0.036072
Si Si2 0.833525 0.602729 0.021150
Si Si3 0.436013 0.350108 0.756979
Si Si4 0.166050 0.142317 0.533043
Si Si5 0.258319 0.147393 0.849921
Si Si6 0.734562 0.857761 0.354415
Si Si7 0.439579 0.641773 0.451557
O O1 0.500000 0.640757 0.029169
O O2 0.392511 0.641457 0.979059
O O3 0.424475 0.600715 0.146029
O O4 0.446518 0.500000 0.000000
O O5 0.800250 0.639802 0.933603
O O6 0.839131 0.500000 0.000000
O O7 0.796840 0.609715 0.111970
O O8 0.500000 0.344977 0.752118
O O9 0.414693 0.250000 0.766418
O O10 0.421505 0.385038 0.653998
O O11 0.165410 0.250000 0.534022
O O12 0.205630 0.116330 0.616276
O O13 0.195484 0.113436 0.437139
O O14 0.105162 0.113699 0.525445
O O15 0.247802 0.250000 0.834998
O O16 0.277565 0.110847 0.750386
O O17 0.731387 0.750000 0.356954
O O18 0.500000 0.613213 0.469837
O O19 0.440564 0.750000 0.448879
#
# Coordination Sequence:
#
# PCOD9501195 Si02
#       7
#    16  16  16  16  16  16  16
#     4   9  18  31  45  62  88 118 151 188 226 274
#     4  10  20  33  48  67  92 120 156 189 231 278
#     4   8  14  23  36  59  89 118 147 182 226 268
#     4   8  13  23  37  57  86 114 142 176 216 267
#     4  10  19  31  48  69  92 120 155 194 228 266
#     4   8  15  25  39  60  85 114 145 179 220 259
#     4   8  13  20  33  56  86 117 145 178 222 269
#
# _framework density 20.533614
#
# number of rings (size 3 to 8) (size 9 to 14) (size 15 to 20)
#    0.000    3.286    0.000    3.429    2.000    1.143 
#    0.000    0.000    0.000    0.857    0.000   10.000 
#    0.000    0.000    0.000   16.714    0.000    5.857 
#
# Total GULP energy -311838.058619 kJ/mol
# GULP energy per Si atom -5568.536761 kJ/mol
# Density = 2.048688 g / cm^3
# Si number density = 20.533614 Si / 1000 Ang^3
#
#
#
# Elastic Constant Matrix: (Units=GPa)
#
#
# Indices 1 2 3 4 5 6 
#
# 1 100.5934 -5.9632 -1.5998 0.0000 0.0000 0.0000
# 2 -5.9632 28.4307 -5.6026 0.0000 0.0000 0.0000
# 3 -1.5998 -5.6026 41.7464 0.0000 0.0000 0.0000
# 4 0.0000 0.0000 0.0000 -17.1512 0.0000 0.0000
# 5 0.0000 0.0000 0.0000 0.0000 22.7429 0.0000
# 6 0.0000 0.0000 0.0000 0.0000 0.0000 -11.5977
#
#
#
# Elastic Compliance Matrix: (Units=1/GPa)
#
#
# Indices 1 2 3 4 5 6 
#
# 1 0.010085 0.002251 0.000689 0.000000 0.000000 0.000000
# 2 0.002251 0.036631 0.005002 0.000000 0.000000 0.000000
# 3 0.000689 0.005002 0.024652 0.000000 0.000000 0.000000
# 4 0.000000 0.000000 0.000000 -0.058305 0.000000 0.000000
# 5 0.000000 0.000000 0.000000 0.000000 0.043970 0.000000
# 6 0.000000 0.000000 0.000000 0.000000 0.000000 -0.086224
#
#
# Mechanical properties :
#
#
# Convention : Reuss Voigt Hill
#
# Bulk Modulus (GPa) = 11.46101 16.04885 13.75493
# Shear Modulus (GPa) = -312.68215 11.06121 -150.81047
#
# Velocity S-wave (km/s) = -12.35349 2.32348 -8.57934
# Velocity P-wave (km/s) = 14.06715 3.87698 9.56174
#
# Compressibility (1/GPa) = 0.08725233
#
# Stress axis : x y z
#
# Youngs Moduli (GPa) = 99.15326 27.29916 40.56490
#
# Poissons Ratio (x) = -0.06145 -0.02793
# Poissons Ratio (y) = -0.22320 -0.20292
# Poissons Ratio (z) = -0.06828 -0.13656
#
# Static dielectric constant tensor:
#      x y z
#    x 1.818590 0.000000 0.000000 
#    y 0.000000 1.776060 0.000000 
#    z 0.000000 0.000000 1.758700 
# 
# From -- ./inp_files/30823.got.cif
#   From: 2010.05.17/outbox.cif.g08.bks.cpg/sg67_16_cif.got.tgz:30823.got - 2010.06.03 18:28:57.
