data_PCOD9501588
_publ_section_title
;
Structure prediction by ZEFSAII (Michael W. Deem and Ramdas Pophale) SiO2 
 PCOD9501588
Probable space group: C M M A
;
_chemical_formula_sum "Si O2"
_cell_formula_units_Z 72
_cell_length_a 15.923178
_cell_length_b 7.938703
_cell_length_c 29.072579
_cell_angle_alpha 90.000000
_cell_angle_beta 90.000000
_cell_angle_gamma 90.000000
_cell_volume 3675.046714
_symmetry_space_group_name_H-M "C M M A"
_symmetry_group_IT_number 67
_symmetry_cell_setting 'orthorhombic'
loop_
_space_group_symop_operation_xyz
x,y,z
-x,1/2-y,z
x,-y,-z
-x,1/2+y,-z
-x,-y,-z
x,1/2+y,-z
-x,y,z
x,1/2-y,z
1/2+x,1/2+y,z
1/2-x,-y,z
1/2+x,1/2-y,-z
1/2-x,y,-z
1/2-x,1/2-y,-z
1/2+x,y,-z
1/2-x,1/2+y,z
1/2+x,-y,z
loop_
_atom_site_type_symbol
_atom_site_label
_atom_site_fract_x
_atom_site_fract_y
_atom_site_fract_z
Si Si1 0.844021 0.952826 0.781170
Si Si2 0.155128 0.950073 0.552953
Si Si3 0.000000 0.043519 0.280137
Si Si4 0.000000 0.546614 0.946797
Si Si5 0.000000 0.542928 0.613968
Si Si6 0.655999 0.952980 0.113587
O O1 0.848921 0.750000 0.782499
O O2 0.917165 0.012419 0.747420
O O3 0.856093 0.014166 0.833781
O O4 0.750000 0.000000 0.766415
O O5 0.151430 0.750000 0.554711
O O6 0.082765 0.015556 0.586604
O O7 0.139774 0.000000 0.500000
O O8 0.250000 0.000000 0.565497
O O9 0.000000 0.250000 0.279984
O O10 0.000000 0.989797 0.333050
O O11 0.083031 0.485295 0.920052
O O12 0.000000 0.750000 0.943974
O O13 0.000000 0.500000 0.000000
O O14 0.000000 0.750000 0.613683
O O15 0.651204 0.750000 0.114860
O O16 0.750000 0.000000 0.098817
#
# Coordination Sequence:
#
# PCOD9501588 Si02
#       6
#    16  16   8   8   8  16
#     4   9  17  31  53  75  96 125 162 199 237 281
#     4  10  19  33  52  73  96 125 162 202 241 283
#     4   9  17  31  50  72  99 132 162 190 234 293
#     4  10  21  35  50  70  99 130 162 197 239 288
#     4   9  19  32  48  72 101 130 160 195 238 287
#     4   9  18  33  52  74  97 125 161 201 239 281
#
# _framework density 19.591588000000002
#
# number of rings (size 3 to 8) (size 9 to 14) (size 15 to 20)
#    0.000    2.667    0.000    2.333    0.000    4.889 
#    0.000    4.444    0.000    9.333    0.000    0.000 
#    0.000    0.000    0.000    0.000    0.000    0.000 
#
# Total GULP energy -200894.660013 kJ/mol
# GULP energy per Si atom -5580.407223 kJ/mol
# Density = 1.954700 g / cm^3
# Si number density = 19.591588 Si / 1000 Ang^3
#
#
#
# Elastic Constant Matrix: (Units=GPa)
#
#
# Indices 1 2 3 4 5 6 
#
# 1 224.8990 9.8144 156.2620 0.0000 0.0000 0.0000
# 2 9.8144 18.2322 8.3777 0.0000 0.0000 0.0000
# 3 156.2620 8.3777 148.4790 0.0000 0.0000 0.0000
# 4 0.0000 0.0000 0.0000 15.2833 0.0000 0.0000
# 5 0.0000 0.0000 0.0000 0.0000 -1.4316 0.0000
# 6 0.0000 0.0000 0.0000 0.0000 0.0000 17.9151
#
#
#
# Elastic Compliance Matrix: (Units=1/GPa)
#
#
# Indices 1 2 3 4 5 6 
#
# 1 0.016559 -0.000930 -0.017375 0.000000 0.000000 0.000000
# 2 -0.000930 0.056360 -0.002201 0.000000 0.000000 0.000000
# 3 -0.017375 -0.002201 0.025144 0.000000 0.000000 0.000000
# 4 0.000000 0.000000 0.000000 0.065431 0.000000 0.000000
# 5 0.000000 0.000000 0.000000 0.000000 -0.698502 0.000000
# 6 0.000000 0.000000 0.000000 0.000000 0.000000 0.055819
#
#
# Mechanical properties :
#
#
# Convention : Reuss Voigt Hill
#
# Bulk Modulus (GPa) = 17.52791 82.27981 49.90386
# Shear Modulus (GPa) = -11.92861 20.83043 4.45091
#
# Velocity S-wave (km/s) = -2.47019 3.26426 1.50890
# Velocity P-wave (km/s) = 0.91119 7.50306 5.34444
#
# Compressibility (1/GPa) = 0.05705186
#
# Stress axis : x y z
#
# Youngs Moduli (GPa) = 60.39005 17.74307 39.77024
#
# Poissons Ratio (x) = 0.01650 0.69099
# Poissons Ratio (y) = 0.05617 0.08754
# Poissons Ratio (z) = 1.04925 0.03906
#
# Static dielectric constant tensor:
#      x y z
#    x 1.681270 0.000000 0.000000 
#    y 0.000000 1.709470 0.000000 
#    z 0.000000 0.000000 1.666040 
# 
# From -- ./inp_files/40546.got.cif
#   From: 2010.05.17/outbox.cif.g08.bks.cpg/sg67_21_cif.got.tgz:40546.got - 2010.06.03 18:28:57.
