data_PCOD9501367
_publ_section_title
;
Structure prediction by ZEFSAII (Michael W. Deem and Ramdas Pophale) SiO2 
 PCOD9501367
Probable space group: C M M A
;
_chemical_formula_sum "Si O2"
_cell_formula_units_Z 96
_cell_length_a 20.659525
_cell_length_b 8.680213
_cell_length_c 30.666062
_cell_angle_alpha 90.000000
_cell_angle_beta 90.000000
_cell_angle_gamma 90.000000
_cell_volume 5499.316608
_symmetry_space_group_name_H-M "C M M A"
_symmetry_group_IT_number 67
_symmetry_cell_setting 'orthorhombic'
loop_
_space_group_symop_operation_xyz
x,y,z
-x,1/2-y,z
x,-y,-z
-x,1/2+y,-z
-x,-y,-z
x,1/2+y,-z
-x,y,z
x,1/2-y,z
1/2+x,1/2+y,z
1/2-x,-y,z
1/2+x,1/2-y,-z
1/2-x,y,-z
1/2-x,1/2-y,-z
1/2+x,y,-z
1/2-x,1/2+y,z
1/2+x,-y,z
loop_
_atom_site_type_symbol
_atom_site_label
_atom_site_fract_x
_atom_site_fract_y
_atom_site_fract_z
Si Si1 0.425192 0.934579 0.951983
Si Si2 0.821169 0.064047 0.547912
Si Si3 0.573560 0.062548 0.381062
Si Si4 0.574721 0.064173 0.281355
Si Si5 0.320564 0.434734 0.885507
Si Si6 0.679787 0.065915 0.784526
O O1 0.500000 0.976706 0.941902
O O2 0.420622 0.750000 0.952953
O O3 0.375834 0.000889 0.916791
O O4 0.410371 0.000000 0.000000
O O5 0.818853 0.250000 0.546344
O O6 0.873850 0.013765 0.583586
O O7 0.837752 0.000000 0.500000
O O8 0.750000 0.000000 0.558905
O O9 0.500000 0.012656 0.391249
O O10 0.573164 0.250000 0.381281
O O11 0.589057 0.016139 0.331350
O O12 0.500000 0.021655 0.272038
O O13 0.578774 0.250000 0.279638
O O14 0.624461 0.994587 0.247278
O O15 0.319128 0.250000 0.887994
O O16 0.250000 0.500000 0.897783
O O17 0.332509 0.480115 0.834967
O O18 0.682290 0.250000 0.782820
O O19 0.750000 0.000000 0.772031
#
# Coordination Sequence:
#
# PCOD9501367 Si02
#       6
#    16  16  16  16  16  16
#     4  10  21  37  57  81 109 140 175 215 258 306
#     4  10  19  32  50  71  98 129 163 204 248 297
#     4   8  16  32  52  73  98 130 166 204 248 297
#     4   9  18  34  55  77 103 136 172 209 253 307
#     4  10  21  37  56  78 106 139 175 216 260 307
#     4  10  21  36  54  77 106 138 173 215 260 305
#
# _framework density 17.456714999999999
#
# number of rings (size 3 to 8) (size 9 to 14) (size 15 to 20)
#    0.000    2.500    0.000    3.500    0.000    5.333 
#    0.000    8.333    0.000    3.500    0.000    0.000 
#    0.000    0.000    0.000    0.000    0.000    0.000 
#
# Total GULP energy -267814.452527 kJ/mol
# GULP energy per Si atom -5579.467761 kJ/mol
# Density = 1.741698 g / cm^3
# Si number density = 17.456715 Si / 1000 Ang^3
#
#
#
# Elastic Constant Matrix: (Units=GPa)
#
#
# Indices 1 2 3 4 5 6 
#
# 1 160.4072 47.4702 134.1848 0.0000 0.0000 0.0000
# 2 47.4702 41.9186 41.8235 0.0000 0.0000 0.0000
# 3 134.1848 41.8235 133.2349 0.0000 0.0000 0.0000
# 4 0.0000 0.0000 0.0000 26.3047 0.0000 0.0000
# 5 0.0000 0.0000 0.0000 0.0000 44.6308 0.0000
# 6 0.0000 0.0000 0.0000 0.0000 0.0000 27.9918
#
#
#
# Elastic Compliance Matrix: (Units=1/GPa)
#
#
# Indices 1 2 3 4 5 6 
#
# 1 0.041200 -0.007654 -0.039091 0.000000 0.000000 0.000000
# 2 -0.007654 0.036156 -0.003641 0.000000 0.000000 0.000000
# 3 -0.039091 -0.003641 0.048018 0.000000 0.000000 0.000000
# 4 0.000000 0.000000 0.000000 0.038016 0.000000 0.000000
# 5 0.000000 0.000000 0.000000 0.000000 0.022406 0.000000
# 6 0.000000 0.000000 0.000000 0.000000 0.000000 0.035725
#
#
# Mechanical properties :
#
#
# Convention : Reuss Voigt Hill
#
# Bulk Modulus (GPa) = 40.64691 86.94642 63.79666
# Shear Modulus (GPa) = 15.12891 27.25760 21.19326
#
# Velocity S-wave (km/s) = 2.94709 3.95579 3.48810
# Velocity P-wave (km/s) = 5.90893 8.41305 7.26962
#
# Compressibility (1/GPa) = 0.02460212
#
# Stress axis : x y z
#
# Youngs Moduli (GPa) = 24.27212 27.65765 20.82558
#
# Poissons Ratio (x) = 0.21169 0.81408
# Poissons Ratio (y) = 0.18578 0.07583
# Poissons Ratio (z) = 0.94881 0.10071
#
# Static dielectric constant tensor:
#      x y z
#    x 1.569880 0.000000 0.000000 
#    y 0.000000 1.591070 0.000000 
#    z 0.000000 0.000000 1.577640 
# 
# From -- ./inp_files/43461.got.cif
#   From: 2010.05.17/outbox.cif.g08.bks.cpg/sg67_22_cif.got.tgz:43461.got - 2010.06.03 18:28:57.
