data_PCOD9501221
_publ_section_title
;
Structure prediction by ZEFSAII (Michael W. Deem and Ramdas Pophale) SiO2 
 PCOD9501221
Probable space group: C M M A
;
_chemical_formula_sum "Si O2"
_cell_formula_units_Z 80
_cell_length_a 18.843199
_cell_length_b 20.165327
_cell_length_c 12.164732
_cell_angle_alpha 90.000000
_cell_angle_beta 90.000000
_cell_angle_gamma 90.000000
_cell_volume 4622.345980
_symmetry_space_group_name_H-M "C M M A"
_symmetry_group_IT_number 67
_symmetry_cell_setting 'orthorhombic'
loop_
_space_group_symop_operation_xyz
x,y,z
-x,1/2-y,z
x,-y,-z
-x,1/2+y,-z
-x,-y,-z
x,1/2+y,-z
-x,y,z
x,1/2-y,z
1/2+x,1/2+y,z
1/2-x,-y,z
1/2+x,1/2-y,-z
1/2-x,y,-z
1/2-x,1/2-y,-z
1/2+x,y,-z
1/2-x,1/2+y,z
1/2+x,-y,z
loop_
_atom_site_type_symbol
_atom_site_label
_atom_site_fract_x
_atom_site_fract_y
_atom_site_fract_z
Si Si1 0.000000 0.675315 0.865823
Si Si2 0.364299 0.674039 0.292475
Si Si3 0.225639 0.398474 0.120996
Si Si4 0.863182 0.021090 0.827078
Si Si5 0.414539 0.046812 0.603334
Si Si6 0.500000 0.429911 0.059436
O O1 0.067053 0.667264 0.786390
O O2 0.000000 0.750000 0.909598
O O3 0.000000 0.625699 0.966943
O O4 0.359306 0.750000 0.330971
O O5 0.301707 0.654833 0.208170
O O6 0.375888 0.618337 0.386151
O O7 0.163397 0.454659 0.107042
O O8 0.292696 0.435112 0.174942
O O9 0.250000 0.375423 0.000000
O O10 0.927468 0.065568 0.872072
O O11 0.889378 0.991949 0.711821
O O12 0.500000 0.056451 0.605031
O O13 0.397227 0.000000 0.500000
O O14 0.500000 0.500000 0.000000
#
# Coordination Sequence:
#
# PCOD9501221 Si02
#       6
#     8  16  16  16  16   8
#     4  10  20  32  48  77 110 135 169 218 263 316
#     4  10  20  35  54  79 109 142 180 219 267 323
#     4  10  19  32  48  77 115 147 177 213 265 321
#     4  10  19  31  48  77 106 137 180 231 270 310
#     4  10  19  34  56  82 104 132 179 234 283 316
#     4  12  18  28  52  75 101 139 183 222 269 316
#
# _framework density 17.307229
#
# number of rings (size 3 to 8) (size 9 to 14) (size 15 to 20)
#    0.000    1.800    2.000    6.000    0.000    0.400 
#    0.000    9.000    0.000    3.600    0.000    0.000 
#    0.000    0.000    0.000    0.000    0.000    0.000 
#
# Total GULP energy -222942.804370 kJ/mol
# GULP energy per Si atom -5573.570109 kJ/mol
# Density = 1.726784 g / cm^3
# Si number density = 17.307229 Si / 1000 Ang^3
#
#
#
# Elastic Constant Matrix: (Units=GPa)
#
#
# Indices 1 2 3 4 5 6 
#
# 1 64.7894 23.5794 13.8490 0.0000 0.0000 0.0000
# 2 23.5794 122.5642 49.8323 0.0000 0.0000 0.0000
# 3 13.8490 49.8323 68.7410 0.0000 0.0000 0.0000
# 4 0.0000 0.0000 0.0000 29.0269 0.0000 0.0000
# 5 0.0000 0.0000 0.0000 0.0000 23.2861 0.0000
# 6 0.0000 0.0000 0.0000 0.0000 0.0000 9.3459
#
#
#
# Elastic Compliance Matrix: (Units=1/GPa)
#
#
# Indices 1 2 3 4 5 6 
#
# 1 0.016701 -0.002616 -0.001468 0.000000 0.000000 0.000000
# 2 -0.002616 0.011979 -0.008157 0.000000 0.000000 0.000000
# 3 -0.001468 -0.008157 0.020756 0.000000 0.000000 0.000000
# 4 0.000000 0.000000 0.000000 0.034451 0.000000 0.000000
# 5 0.000000 0.000000 0.000000 0.000000 0.042944 0.000000
# 6 0.000000 0.000000 0.000000 0.000000 0.000000 0.106999
#
#
# Mechanical properties :
#
#
# Convention : Reuss Voigt Hill
#
# Bulk Modulus (GPa) = 40.07428 47.84623 43.96025
# Shear Modulus (GPa) = 18.75269 23.58737 21.17003
#
# Velocity S-wave (km/s) = 3.29525 3.69570 3.50121
# Velocity P-wave (km/s) = 6.13866 6.77615 6.46527
#
# Compressibility (1/GPa) = 0.02495366
#
# Stress axis : x y z
#
# Youngs Moduli (GPa) = 59.87844 83.48250 48.17862
#
# Poissons Ratio (x) = 0.21839 0.07074
# Poissons Ratio (y) = 0.15664 0.39297
# Poissons Ratio (z) = 0.08791 0.68093
#
# Static dielectric constant tensor:
#      x y z
#    x 1.695160 0.000000 0.000000 
#    y 0.000000 1.602230 0.000000 
#    z 0.000000 0.000000 1.606530 
# 
# From -- ./inp_files/19371.got.cif
#   From: 2010.05.17/outbox.cif.g08.bks.cpg/sg67_10_cif.got.tgz:19371.got - 2010.06.03 18:28:57.
