data_PCOD9501020
_publ_section_title
;
Structure prediction by ZEFSAII (Michael W. Deem and Ramdas Pophale) SiO2 
 PCOD9501020
Probable space group: C M M A
;
_chemical_formula_sum "Si O2"
_cell_formula_units_Z 104
_cell_length_a 8.707273
_cell_length_b 26.357687
_cell_length_c 28.790107
_cell_angle_alpha 90.000000
_cell_angle_beta 90.000000
_cell_angle_gamma 90.000000
_cell_volume 6607.432520
_symmetry_space_group_name_H-M "C M M A"
_symmetry_group_IT_number 67
_symmetry_cell_setting 'orthorhombic'
loop_
_space_group_symop_operation_xyz
x,y,z
-x,1/2-y,z
x,-y,-z
-x,1/2+y,-z
-x,-y,-z
x,1/2+y,-z
-x,y,z
x,1/2-y,z
1/2+x,1/2+y,z
1/2-x,-y,z
1/2+x,1/2-y,-z
1/2-x,y,-z
1/2-x,1/2-y,-z
1/2+x,y,-z
1/2-x,1/2+y,z
1/2+x,-y,z
loop_
_atom_site_type_symbol
_atom_site_label
_atom_site_fract_x
_atom_site_fract_y
_atom_site_fract_z
Si Si1 0.820326 0.307551 0.217712
Si Si2 0.684858 0.750000 0.051931
Si Si3 0.816772 0.056394 0.351893
Si Si4 0.314463 0.335549 0.118862
Si Si5 0.315958 0.942531 0.452862
Si Si6 0.181219 0.595708 0.256559
Si Si7 0.814977 0.945195 0.155665
O O1 0.809632 0.250000 0.233903
O O2 0.753604 0.311712 0.165894
O O3 0.721404 0.346021 0.247547
O O4 0.000000 0.322568 0.217512
O O5 0.500000 0.750000 0.052704
O O6 0.746378 0.800745 0.078061
O O7 0.750000 0.750000 0.000000
O O8 0.774157 0.080155 0.402271
O O9 0.757606 0.080387 0.304566
O O10 0.000000 0.054289 0.350374
O O11 0.750000 0.000000 0.352157
O O12 0.500000 0.331931 0.118450
O O13 0.274233 0.395851 0.123994
O O14 0.500000 0.944923 0.456405
O O15 0.250000 0.918391 0.500000
O O16 0.250000 0.000000 0.451863
O O17 0.235431 0.567335 0.209049
O O18 0.000000 0.587089 0.259779
O O19 0.000000 0.947747 0.155917
O O20 0.750000 0.000000 0.141599
#
# Coordination Sequence:
#
# PCOD9501020 Si02
#       7
#    16   8  16  16  16  16  16
#     4  10  19  31  49  72  97 126 160 196 237 286
#     4  12  24  38  58  84 108 134 166 206 257 300
#     4  10  19  29  41  59  86 119 154 194 237 282
#     4  10  20  35  54  77 106 136 167 206 247 292
#     4   9  16  25  38  55  76 106 145 188 233 280
#     4  10  20  31  44  65  93 128 164 198 240 284
#     4   9  19  32  48  72 100 133 169 202 239 282
#
# _framework density 15.739851
#
# number of rings (size 3 to 8) (size 9 to 14) (size 15 to 20)
#    0.000    2.154    0.769    4.846    0.000    7.692 
#    0.000    0.000    0.000    0.462    0.000    3.231 
#    0.000    0.615    0.000    2.000    0.000    2.769 
#
# Total GULP energy -289602.252545 kJ/mol
# GULP energy per Si atom -5569.274087 kJ/mol
# Density = 1.570403 g / cm^3
# Si number density = 15.739851 Si / 1000 Ang^3
#
#
#
# Elastic Constant Matrix: (Units=GPa)
#
#
# Indices 1 2 3 4 5 6 
#
# 1 36.6495 7.7394 24.9581 0.0000 0.0000 0.0000
# 2 7.7394 68.7287 37.7019 0.0000 0.0000 0.0000
# 3 24.9581 37.7019 122.4574 0.0000 0.0000 0.0000
# 4 0.0000 0.0000 0.0000 33.9637 0.0000 0.0000
# 5 0.0000 0.0000 0.0000 0.0000 27.0157 0.0000
# 6 0.0000 0.0000 0.0000 0.0000 0.0000 25.6452
#
#
#
# Elastic Compliance Matrix: (Units=1/GPa)
#
#
# Indices 1 2 3 4 5 6 
#
# 1 0.031683 -0.000031 -0.006448 0.000000 0.000000 0.000000
# 2 -0.000031 0.017507 -0.005384 0.000000 0.000000 0.000000
# 3 -0.006448 -0.005384 0.011138 0.000000 0.000000 0.000000
# 4 0.000000 0.000000 0.000000 0.029443 0.000000 0.000000
# 5 0.000000 0.000000 0.000000 0.000000 0.037015 0.000000
# 6 0.000000 0.000000 0.000000 0.000000 0.000000 0.038994
#
#
# Mechanical properties :
#
#
# Convention : Reuss Voigt Hill
#
# Bulk Modulus (GPa) = 27.32019 40.95939 34.13979
# Shear Modulus (GPa) = 24.78866 27.82068 26.30467
#
# Velocity S-wave (km/s) = 3.97280 4.20876 4.09248
# Velocity P-wave (km/s) = 6.19994 7.04964 6.63840
#
# Compressibility (1/GPa) = 0.03660296
#
# Stress axis : x y z
#
# Youngs Moduli (GPa) = 31.56270 57.12105 89.78457
#
# Poissons Ratio (x) = 0.00175 0.57892
# Poissons Ratio (y) = 0.00097 0.48337
# Poissons Ratio (z) = 0.20351 0.30752
#
# Static dielectric constant tensor:
#      x y z
#    x 1.528130 0.000000 0.000000 
#    y 0.000000 1.531110 0.000000 
#    z 0.000000 0.000000 1.570200 
# 
# From -- ./inp_files/43840.got.cif
#   From: 2010.05.17/outbox.cif.g08.bks.cpg/sg67_22_cif.got.tgz:43840.got - 2010.06.03 18:28:57.
