data_PCOD9501307
_publ_section_title
;
Structure prediction by ZEFSAII (Michael W. Deem and Ramdas Pophale) SiO2 
 PCOD9501307
Probable space group: C M M A
;
_chemical_formula_sum "Si O2"
_cell_formula_units_Z 112
_cell_length_a 15.045447
_cell_length_b 25.907548
_cell_length_c 12.988378
_cell_angle_alpha 90.000000
_cell_angle_beta 90.000000
_cell_angle_gamma 90.000000
_cell_volume 5062.748178
_symmetry_space_group_name_H-M "C M M A"
_symmetry_group_IT_number 67
_symmetry_cell_setting 'orthorhombic'
loop_
_space_group_symop_operation_xyz
x,y,z
-x,1/2-y,z
x,-y,-z
-x,1/2+y,-z
-x,-y,-z
x,1/2+y,-z
-x,y,z
x,1/2-y,z
1/2+x,1/2+y,z
1/2-x,-y,z
1/2+x,1/2-y,-z
1/2-x,y,-z
1/2-x,1/2-y,-z
1/2+x,y,-z
1/2-x,1/2+y,z
1/2+x,-y,z
loop_
_atom_site_type_symbol
_atom_site_label
_atom_site_fract_x
_atom_site_fract_y
_atom_site_fract_z
Si Si1 0.341822 0.692888 0.740278
Si Si2 0.897247 0.600064 0.861178
Si Si3 0.607514 0.548488 0.570585
Si Si4 0.108191 0.010775 0.793266
Si Si5 0.893009 0.610938 0.086793
Si Si6 0.129719 0.307365 0.293168
Si Si7 0.148085 0.663082 0.483547
O O1 0.368362 0.750000 0.776283
O O2 0.359424 0.650008 0.826063
O O3 0.236647 0.692481 0.717944
O O4 0.384691 0.682157 0.627955
O O5 0.857637 0.546711 0.817145
O O6 0.898180 0.645592 0.778783
O O7 0.000000 0.586826 0.884476
O O8 0.859368 0.618878 0.970464
O O9 0.629575 0.500000 0.500000
O O10 0.500000 0.554222 0.571989
O O11 0.639099 0.535134 0.685434
O O12 0.644688 0.601319 0.525516
O O13 0.000000 0.007951 0.783599
O O14 0.128187 0.052189 0.881263
O O15 0.000000 0.616822 0.090124
O O16 0.099966 0.250000 0.262181
O O17 0.103316 0.318107 0.411481
O O18 0.250000 0.680143 0.500000
#
# Coordination Sequence:
#
# PCOD9501307 Si02
#       7
#    16  16  16  16  16  16  16
#     4  10  21  38  59  82 110 144 185 234 282 328
#     4  10  21  37  58  83 112 147 188 229 272 327
#     4  10  19  31  52  82 115 146 178 220 271 329
#     4   9  17  33  56  82 111 143 178 220 275 330
#     4  10  20  36  59  85 112 144 184 231 279 328
#     4  10  22  39  57  79 110 150 189 227 278 335
#     4  10  20  36  57  81 108 143 185 230 276 330
#
# _framework density 22.122371999999999
#
# number of rings (size 3 to 8) (size 9 to 14) (size 15 to 20)
#    0.000    2.143    1.429    1.714    0.000    7.143 
#    0.000    3.571    0.000    4.286    0.000    0.000 
#    0.000    0.000    0.000    0.000    0.000    0.000 
#
# Total GULP energy -312773.988431 kJ/mol
# GULP energy per Si atom -5585.249793 kJ/mol
# Density = 2.207202 g / cm^3
# Si number density = 22.122372 Si / 1000 Ang^3
#
#
#
# Elastic Constant Matrix: (Units=GPa)
#
#
# Indices 1 2 3 4 5 6 
#
# 1 42.2447 3.4724 3.4231 0.0000 0.0000 0.0000
# 2 3.4724 148.7685 49.7417 0.0000 0.0000 0.0000
# 3 3.4231 49.7417 106.4155 0.0000 0.0000 0.0000
# 4 0.0000 0.0000 0.0000 4.2707 0.0000 0.0000
# 5 0.0000 0.0000 0.0000 0.0000 18.7679 0.0000
# 6 0.0000 0.0000 0.0000 0.0000 0.0000 15.2262
#
#
#
# Elastic Compliance Matrix: (Units=1/GPa)
#
#
# Indices 1 2 3 4 5 6 
#
# 1 0.023749 -0.000354 -0.000598 0.000000 0.000000 0.000000
# 2 -0.000354 0.007972 -0.003715 0.000000 0.000000 0.000000
# 3 -0.000598 -0.003715 0.011153 0.000000 0.000000 0.000000
# 4 0.000000 0.000000 0.000000 0.234151 0.000000 0.000000
# 5 0.000000 0.000000 0.000000 0.000000 0.053282 0.000000
# 6 0.000000 0.000000 0.000000 0.000000 0.000000 0.065676
#
#
# Mechanical properties :
#
#
# Convention : Reuss Voigt Hill
#
# Bulk Modulus (GPa) = 29.81602 45.63368 37.72485
# Shear Modulus (GPa) = 12.00483 23.70576 17.85529
#
# Velocity S-wave (km/s) = 2.33202 3.27704 2.84406
# Velocity P-wave (km/s) = 4.55611 5.91534 5.27965
#
# Compressibility (1/GPa) = 0.03353901
#
# Stress axis : x y z
#
# Youngs Moduli (GPa) = 42.10666 125.43460 89.66269
#
# Poissons Ratio (x) = 0.04444 0.05365
# Poissons Ratio (y) = 0.01492 0.33310
# Poissons Ratio (z) = 0.02519 0.46600
#
# Static dielectric constant tensor:
#      x y z
#    x 1.880840 0.000000 0.000000 
#    y 0.000000 1.769470 0.000000 
#    z 0.000000 0.000000 1.805120 
# 
# From -- ./inp_files/21115.got.cif
#   From: 2010.05.17/outbox.cif.g08.bks.cpg/sg67_11_cif.got.tgz:21115.got - 2010.06.03 18:28:57.
