data_PCOD9501831
_publ_section_title
;
Structure prediction by ZEFSAII (Michael W. Deem and Ramdas Pophale) SiO2 
 PCOD9501831
Probable space group: C M M A
;
_chemical_formula_sum "Si O2"
_cell_formula_units_Z 72
_cell_length_a 22.012664
_cell_length_b 19.128992
_cell_length_c 8.575497
_cell_angle_alpha 90.000000
_cell_angle_beta 90.000000
_cell_angle_gamma 90.000000
_cell_volume 3610.970908
_symmetry_space_group_name_H-M "C M M A"
_symmetry_group_IT_number 67
_symmetry_cell_setting 'orthorhombic'
loop_
_space_group_symop_operation_xyz
x,y,z
-x,1/2-y,z
x,-y,-z
-x,1/2+y,-z
-x,-y,-z
x,1/2+y,-z
-x,y,z
x,1/2-y,z
1/2+x,1/2+y,z
1/2-x,-y,z
1/2+x,1/2-y,-z
1/2-x,y,-z
1/2-x,1/2-y,-z
1/2+x,y,-z
1/2-x,1/2+y,z
1/2+x,-y,z
loop_
_atom_site_type_symbol
_atom_site_label
_atom_site_fract_x
_atom_site_fract_y
_atom_site_fract_z
Si Si1 0.107069 0.131660 0.860773
Si Si2 0.318819 0.250000 0.965417
Si Si3 0.604575 0.750000 0.311148
Si Si4 0.566874 0.098773 0.808450
Si Si5 0.820805 0.501109 0.190172
Si Si6 0.934346 0.750000 0.363428
O O1 0.145977 0.073824 0.771883
O O2 0.071920 0.182163 0.744214
O O3 0.151825 0.182636 0.955316
O O4 0.068384 0.098892 0.001844
O O5 0.332933 0.250000 0.783672
O O6 0.250000 0.250000 0.000000
O O7 0.572185 0.821342 0.253122
O O8 0.612276 0.750000 0.495384
O O9 0.500000 0.070978 0.758949
O O10 0.629085 0.057683 0.761914
O O11 0.750000 0.500000 0.243803
O O12 0.818014 0.500000 0.000000
O O13 0.000000 0.750000 0.441972
#
# Coordination Sequence:
#
# PCOD9501831 Si02
#       6
#    16   8   8  16  16   8
#     4   9  20  33  53  85 112 145 191 231 288 345
#     4   9  19  33  60  82 111 146 186 238 285 335
#     4  10  22  36  57  85 108 147 191 236 284 352
#     4  10  19  34  57  85 111 144 192 245 289 342
#     4   9  19  33  55  82 113 146 187 237 291 343
#     4  11  21  37  56  79 117 153 186 238 293 343
#
# _framework density 19.939235
#
# number of rings (size 3 to 8) (size 9 to 14) (size 15 to 20)
#    0.000    2.444    0.000    2.333    9.333    4.889 
#    0.000    3.333    0.000    4.000    0.000    0.000 
#    0.000    0.000    0.000    0.000    0.000    0.000 
#
# Total GULP energy -200463.007584 kJ/mol
# GULP energy per Si atom -5568.416877 kJ/mol
# Density = 1.989385 g / cm^3
# Si number density = 19.939235 Si / 1000 Ang^3
#
#
#
# Elastic Constant Matrix: (Units=GPa)
#
#
# Indices 1 2 3 4 5 6 
#
# 1 148.6322 47.5916 6.7917 0.0000 0.0000 0.0000
# 2 47.5916 113.2116 3.4366 0.0000 0.0000 0.0000
# 3 6.7917 3.4366 47.9290 0.0000 0.0000 0.0000
# 4 0.0000 0.0000 0.0000 0.1609 0.0000 0.0000
# 5 0.0000 0.0000 0.0000 0.0000 9.3336 0.0000
# 6 0.0000 0.0000 0.0000 0.0000 0.0000 139.9891
#
#
#
# Elastic Compliance Matrix: (Units=1/GPa)
#
#
# Indices 1 2 3 4 5 6 
#
# 1 0.007811 -0.003257 -0.000873 0.000000 0.000000 0.000000
# 2 -0.003257 0.010210 -0.000271 0.000000 0.000000 0.000000
# 3 -0.000873 -0.000271 0.021007 0.000000 0.000000 0.000000
# 4 0.000000 0.000000 0.000000 6.216158 0.000000 0.000000
# 5 0.000000 0.000000 0.000000 0.000000 0.107140 0.000000
# 6 0.000000 0.000000 0.000000 0.000000 0.000000 0.007143
#
#
# Mechanical properties :
#
#
# Convention : Reuss Voigt Hill
#
# Bulk Modulus (GPa) = 33.08317 47.26805 40.17561
# Shear Modulus (GPa) = 0.78268 46.69358 23.73813
#
# Velocity S-wave (km/s) = 0.62720 4.84446 3.45414
# Velocity P-wave (km/s) = 4.14156 7.41952 6.00840
#
# Compressibility (1/GPa) = 0.03022685
#
# Stress axis : x y z
#
# Youngs Moduli (GPa) = 128.02794 97.93945 47.60245
#
# Poissons Ratio (x) = 0.31899 0.04157
# Poissons Ratio (y) = 0.41698 0.01288
# Poissons Ratio (z) = 0.11180 0.02650
#
# Static dielectric constant tensor:
#      x y z
#    x 1.728820 0.000000 0.000000 
#    y 0.000000 1.746300 0.000000 
#    z 0.000000 0.000000 1.678450 
# 
# From -- ./inp_files/10984.got.cif
#   From: 2010.05.17/outbox.cif.g08.bks.cpg/sg67_6_cif.got.tgz:10984.got - 2010.06.03 18:28:57.
