data_PCOD9501817
_publ_section_title
;
Structure prediction by ZEFSAII (Michael W. Deem and Ramdas Pophale) SiO2 
 PCOD9501817
Probable space group: C M M A
;
_chemical_formula_sum "Si O2"
_cell_formula_units_Z 72
_cell_length_a 14.520969
_cell_length_b 18.558008
_cell_length_c 15.779663
_cell_angle_alpha 90.000000
_cell_angle_beta 90.000000
_cell_angle_gamma 90.000000
_cell_volume 4252.307670
_symmetry_space_group_name_H-M "C M M A"
_symmetry_group_IT_number 67
_symmetry_cell_setting 'orthorhombic'
loop_
_space_group_symop_operation_xyz
x,y,z
-x,1/2-y,z
x,-y,-z
-x,1/2+y,-z
-x,-y,-z
x,1/2+y,-z
-x,y,z
x,1/2-y,z
1/2+x,1/2+y,z
1/2-x,-y,z
1/2+x,1/2-y,-z
1/2-x,y,-z
1/2-x,1/2-y,-z
1/2+x,y,-z
1/2-x,1/2+y,z
1/2+x,-y,z
loop_
_atom_site_type_symbol
_atom_site_label
_atom_site_fract_x
_atom_site_fract_y
_atom_site_fract_z
Si Si1 0.790490 0.918337 0.591263
Si Si2 0.000000 0.572892 0.261993
Si Si3 0.814175 0.835100 0.264532
Si Si4 0.674608 0.833646 0.927919
Si Si5 0.000000 0.563327 0.068411
Si Si6 0.500000 0.542643 0.411786
O O1 0.750000 0.894872 0.500000
O O2 0.753405 0.869933 0.667404
O O3 0.901443 0.917691 0.590251
O O4 0.750000 0.000000 0.603391
O O5 0.089075 0.623301 0.271641
O O6 0.000000 0.539609 0.167288
O O7 0.000000 0.512509 0.333444
O O8 0.825305 0.750000 0.279253
O O9 0.784871 0.845358 0.166406
O O10 0.643252 0.750000 0.930572
O O11 0.589654 0.886698 0.941492
O O12 0.750000 0.844355 0.000000
O O13 0.000000 0.500000 0.000000
O O14 0.500000 0.500000 0.500000
#
# Coordination Sequence:
#
# PCOD9501817 Si02
#       6
#    16   8  16  16   8   8
#     4  11  21  36  57  82 110 148 181 222 274 329
#     4  10  19  34  57  80 108 141 181 234 274 319
#     4  10  20  36  57  82 108 140 186 231 276 327
#     4   9  19  37  57  75 105 148 184 220 273 333
#     4  10  21  33  50  84 112 136 180 233 276 313
#     4  12  20  35  56  80 110 144 187 216 265 335
#
# _framework density 16.931982999999999
#
# number of rings (size 3 to 8) (size 9 to 14) (size 15 to 20)
#    0.000    1.778    4.444    0.667    0.000    5.333 
#    0.000    0.556    0.000    2.667    0.000    0.000 
#    0.000    0.000    0.000    0.000    0.000    0.000 
#
# Total GULP energy -200810.575524 kJ/mol
# GULP energy per Si atom -5578.071542 kJ/mol
# Density = 1.689345 g / cm^3
# Si number density = 16.931983 Si / 1000 Ang^3
#
#
#
# Elastic Constant Matrix: (Units=GPa)
#
#
# Indices 1 2 3 4 5 6 
#
# 1 127.9230 46.7176 88.8408 0.0000 0.0000 0.0000
# 2 46.7176 64.2077 86.4978 0.0000 0.0000 0.0000
# 3 88.8408 86.4978 171.9587 0.0000 0.0000 0.0000
# 4 0.0000 0.0000 0.0000 36.2494 0.0000 0.0000
# 5 0.0000 0.0000 0.0000 0.0000 27.6498 0.0000
# 6 0.0000 0.0000 0.0000 0.0000 0.0000 29.1452
#
#
#
# Elastic Compliance Matrix: (Units=1/GPa)
#
#
# Indices 1 2 3 4 5 6 
#
# 1 0.012221 -0.001198 -0.005711 0.000000 0.000000 0.000000
# 2 -0.001198 0.048431 -0.023743 0.000000 0.000000 0.000000
# 3 -0.005711 -0.023743 0.020709 0.000000 0.000000 0.000000
# 4 0.000000 0.000000 0.000000 0.027587 0.000000 0.000000
# 5 0.000000 0.000000 0.000000 0.000000 0.036167 0.000000
# 6 0.000000 0.000000 0.000000 0.000000 0.000000 0.034311
#
#
# Mechanical properties :
#
#
# Convention : Reuss Voigt Hill
#
# Bulk Modulus (GPa) = 49.85730 89.80021 69.82875
# Shear Modulus (GPa) = 20.20891 28.07777 24.14334
#
# Velocity S-wave (km/s) = 3.45851 4.07660 3.78021
# Velocity P-wave (km/s) = 6.74225 8.67809 7.77069
#
# Compressibility (1/GPa) = 0.02005725
#
# Stress axis : x y z
#
# Youngs Moduli (GPa) = 81.82528 20.64777 48.28842
#
# Poissons Ratio (x) = 0.02474 0.27579
# Poissons Ratio (y) = 0.09805 1.14650
# Poissons Ratio (z) = 0.46732 0.49023
#
# Static dielectric constant tensor:
#      x y z
#    x 1.576110 0.000000 0.000000 
#    y 0.000000 1.552270 0.000000 
#    z 0.000000 0.000000 1.570900 
# 
# From -- ./inp_files/26868.got.cif
#   From: 2010.05.17/outbox.cif.g08.bks.cpg/sg67_14_cif.got.tgz:26868.got - 2010.06.03 18:28:57.
