data_PCOD9501999
_publ_section_title
;
Structure prediction by ZEFSAII (Michael W. Deem and Ramdas Pophale) SiO2 
 PCOD9501999
Probable space group: C M M A
;
_chemical_formula_sum "Si O2"
_cell_formula_units_Z 48
_cell_length_a 26.235647
_cell_length_b 5.595652
_cell_length_c 12.674797
_cell_angle_alpha 90.000000
_cell_angle_beta 90.000000
_cell_angle_gamma 90.000000
_cell_volume 1860.730552
_symmetry_space_group_name_H-M "C M M A"
_symmetry_group_IT_number 67
_symmetry_cell_setting 'orthorhombic'
loop_
_space_group_symop_operation_xyz
x,y,z
-x,1/2-y,z
x,-y,-z
-x,1/2+y,-z
-x,-y,-z
x,1/2+y,-z
-x,y,z
x,1/2-y,z
1/2+x,1/2+y,z
1/2-x,-y,z
1/2+x,1/2-y,-z
1/2-x,y,-z
1/2-x,1/2-y,-z
1/2+x,y,-z
1/2-x,1/2+y,z
1/2+x,-y,z
loop_
_atom_site_type_symbol
_atom_site_label
_atom_site_fract_x
_atom_site_fract_y
_atom_site_fract_z
Si Si1 0.695509 0.250000 0.710286
Si Si2 0.816005 0.250000 0.703189
Si Si3 0.939519 0.250000 0.545832
Si Si4 0.944171 0.750000 0.904241
Si Si5 0.832631 0.750000 0.955086
Si Si6 0.919633 0.750000 0.205260
O O1 0.756195 0.250000 0.731114
O O2 0.678740 0.490575 0.651811
O O3 0.672816 0.250000 0.828281
O O4 0.857630 0.250000 0.796496
O O5 0.919328 0.500000 0.500000
O O6 0.931742 0.250000 0.670738
O O7 0.000000 0.250000 0.522347
O O8 0.893877 0.750000 0.976373
O O9 0.939936 0.502366 0.839028
O O10 0.000000 0.750000 0.955964
O O11 0.811515 0.500000 0.000000
#
# Coordination Sequence:
#
# PCOD9501999 Si02
#       6
#     8   8   8   8   8   8
#     4  10  20  38  58  85 115 143 196 246 309 350
#     4  10  19  36  62  84 114 145 195 245 288 357
#     4  10  21  36  56  90 129 157 188 234 293 350
#     4  12  25  40  61  86 116 157 214 252 284 354
#     4  12  24  40  60  83 118 157 196 254 312 363
#     4  12  21  40  66  88 120 161 198 244 290 350
#
# _framework density 25.796317999999999
#
# number of rings (size 3 to 8) (size 9 to 14) (size 15 to 20)
#    0.000    1.000    3.333    4.500    0.000    2.000 
#    0.000   10.000    0.000    0.000    0.000   14.000 
#    0.000    0.000    0.000    0.000    0.000    0.000 
#
# Total GULP energy -134125.834653 kJ/mol
# GULP energy per Si atom -5588.576444 kJ/mol
# Density = 2.573760 g / cm^3
# Si number density = 25.796318 Si / 1000 Ang^3
#
#
#
# Elastic Constant Matrix: (Units=GPa)
#
#
# Indices 1 2 3 4 5 6 
#
# 1 140.4212 26.9055 -0.3021 0.0000 0.0000 0.0000
# 2 26.9055 358.7316 68.2334 0.0000 0.0000 0.0000
# 3 -0.3021 68.2334 50.5535 0.0000 0.0000 0.0000
# 4 0.0000 0.0000 0.0000 18.4295 0.0000 0.0000
# 5 0.0000 0.0000 0.0000 0.0000 2.7416 0.0000
# 6 0.0000 0.0000 0.0000 0.0000 0.0000 7.6024
#
#
#
# Elastic Compliance Matrix: (Units=1/GPa)
#
#
# Indices 1 2 3 4 5 6 
#
# 1 0.007266 -0.000744 0.001048 0.000000 0.000000 0.000000
# 2 -0.000744 0.003827 -0.005169 0.000000 0.000000 0.000000
# 3 0.001048 -0.005169 0.026765 0.000000 0.000000 0.000000
# 4 0.000000 0.000000 0.000000 0.054261 0.000000 0.000000
# 5 0.000000 0.000000 0.000000 0.000000 0.364747 0.000000
# 6 0.000000 0.000000 0.000000 0.000000 0.000000 0.131538
#
#
# Mechanical properties :
#
#
# Convention : Reuss Voigt Hill
#
# Bulk Modulus (GPa) = 35.55403 82.15332 58.85368
# Shear Modulus (GPa) = 8.23031 36.07933 22.15482
#
# Velocity S-wave (km/s) = 1.78813 3.74387 2.93377
# Velocity P-wave (km/s) = 4.25156 7.11371 5.86006
#
# Compressibility (1/GPa) = 0.02812620
#
# Stress axis : x y z
#
# Youngs Moduli (GPa) = 137.62148 261.32243 37.36280
#
# Poissons Ratio (x) = 0.19451 -0.03916
# Poissons Ratio (y) = 0.10244 0.19314
# Poissons Ratio (z) = -0.14424 1.35089
#
# Static dielectric constant tensor:
#      x y z
#    x 2.050240 0.000000 0.000000 
#    y 0.000000 2.072870 0.000000 
#    z 0.000000 0.000000 1.943350 
# 
# From -- ./inp_files/30385.got.cif
#   From: 2010.05.17/outbox.cif.g08.bks.cpg/sg67_16_cif.got.tgz:30385.got - 2010.06.03 18:28:57.
