data_PCOD9501607
_publ_section_title
;
Structure prediction by ZEFSAII (Michael W. Deem and Ramdas Pophale) SiO2 
 PCOD9501607
Probable space group: C M M A
;
_chemical_formula_sum "Si O2"
_cell_formula_units_Z 80
_cell_length_a 8.700929
_cell_length_b 18.247429
_cell_length_c 27.373541
_cell_angle_alpha 90.000000
_cell_angle_beta 90.000000
_cell_angle_gamma 90.000000
_cell_volume 4346.085722
_symmetry_space_group_name_H-M "C M M A"
_symmetry_group_IT_number 67
_symmetry_cell_setting 'orthorhombic'
loop_
_space_group_symop_operation_xyz
x,y,z
-x,1/2-y,z
x,-y,-z
-x,1/2+y,-z
-x,-y,-z
x,1/2+y,-z
-x,y,z
x,1/2-y,z
1/2+x,1/2+y,z
1/2-x,-y,z
1/2+x,1/2-y,-z
1/2-x,y,-z
1/2-x,1/2-y,-z
1/2+x,y,-z
1/2-x,1/2+y,z
1/2+x,-y,z
loop_
_atom_site_type_symbol
_atom_site_label
_atom_site_fract_x
_atom_site_fract_y
_atom_site_fract_z
Si Si1 0.680471 0.162785 0.143994
Si Si2 0.684547 0.416673 0.549680
Si Si3 0.684964 0.082525 0.655314
Si Si4 0.685007 0.917301 0.237756
Si Si5 0.317089 0.918208 0.051329
O O1 0.500000 0.144293 0.140552
O O2 0.697358 0.250000 0.144635
O O3 0.748043 0.128826 0.193425
O O4 0.765443 0.129379 0.097233
O O5 0.500000 0.419539 0.546182
O O6 0.750000 0.500000 0.550764
O O7 0.750000 0.382065 0.500000
O O8 0.729098 0.383593 0.602719
O O9 0.500000 0.078450 0.654984
O O10 0.729000 0.113837 0.708323
O O11 0.750000 0.000000 0.655413
O O12 0.500000 0.919707 0.234490
O O13 0.750000 0.000000 0.234487
O O14 0.500000 0.922230 0.048112
O O15 0.250000 0.000000 0.057781
O O16 0.250000 0.889449 0.000000
#
# Coordination Sequence:
#
# PCOD9501607 Si02
#       5
#    16  16  16  16  16
#     4  11  24  40  56  77 107 140 174 213 257 304
#     4   9  14  20  30  48  77 113 151 189 235 288
#     4   8  15  25  38  58  85 118 156 199 243 292
#     4  10  19  33  53  75 100 132 172 214 257 305
#     4  11  22  39  63  88 114 142 175 211 249 295
#
# _framework density 18.407367000000001
#
# number of rings (size 3 to 8) (size 9 to 14) (size 15 to 20)
#    0.000    2.200    0.000    5.400    0.000    3.600 
#    0.000    0.000    0.000    0.000    0.000    0.000 
#    0.000    0.800    0.000    1.800    0.000    9.800 
#
# Total GULP energy -222954.555598 kJ/mol
# GULP energy per Si atom -5573.863890 kJ/mol
# Density = 1.836547 g / cm^3
# Si number density = 18.407367 Si / 1000 Ang^3
#
#
#
# Elastic Constant Matrix: (Units=GPa)
#
#
# Indices 1 2 3 4 5 6 
#
# 1 108.3588 30.0505 77.7330 0.0000 0.0000 0.0000
# 2 30.0505 14.8419 40.1689 0.0000 0.0000 0.0000
# 3 77.7330 40.1689 222.0213 0.0000 0.0000 0.0000
# 4 0.0000 0.0000 0.0000 -10.5525 0.0000 0.0000
# 5 0.0000 0.0000 0.0000 0.0000 26.3749 0.0000
# 6 0.0000 0.0000 0.0000 0.0000 0.0000 14.4615
#
#
#
# Elastic Compliance Matrix: (Units=1/GPa)
#
#
# Indices 1 2 3 4 5 6 
#
# 1 0.021096 -0.044527 0.000670 0.000000 0.000000 0.000000
# 2 -0.044527 0.226003 -0.025300 0.000000 0.000000 0.000000
# 3 0.000670 -0.025300 0.008847 0.000000 0.000000 0.000000
# 4 0.000000 0.000000 0.000000 -0.094764 0.000000 0.000000
# 5 0.000000 0.000000 0.000000 0.000000 0.037915 0.000000
# 6 0.000000 0.000000 0.000000 0.000000 0.000000 0.069149
#
#
# Mechanical properties :
#
#
# Convention : Reuss Voigt Hill
#
# Bulk Modulus (GPa) = 8.50104 71.23631 39.86868
# Shear Modulus (GPa) = 11.21653 19.20807 15.21230
#
# Velocity S-wave (km/s) = 2.47118 3.23383 2.87788
# Velocity P-wave (km/s) = 3.57360 7.26137 5.72268
#
# Compressibility (1/GPa) = 0.11763261
#
# Stress axis : x y z
#
# Youngs Moduli (GPa) = 47.40126 4.42472 113.03382
#
# Poissons Ratio (x) = 0.19702 -0.07570
# Poissons Ratio (y) = 2.11063 2.85973
# Poissons Ratio (z) = -0.03175 0.11194
#
# Static dielectric constant tensor:
#      x y z
#    x 1.621210 0.000000 0.000000 
#    y 0.000000 1.582020 0.000000 
#    z 0.000000 0.000000 1.703840 
# 
# From -- ./inp_files/43341.got.cif
#   From: 2010.05.17/outbox.cif.g08.bks.cpg/sg67_22_cif.got.tgz:43341.got - 2010.06.03 18:28:57.
