data_PCOD9501403
_publ_section_title
;
Structure prediction by ZEFSAII (Michael W. Deem and Ramdas Pophale) SiO2 
 PCOD9501403
Probable space group: C M M A
;
_chemical_formula_sum "Si O2"
_cell_formula_units_Z 80
_cell_length_a 19.810495
_cell_length_b 7.822001
_cell_length_c 26.359642
_cell_angle_alpha 90.000000
_cell_angle_beta 90.000000
_cell_angle_gamma 90.000000
_cell_volume 4084.629806
_symmetry_space_group_name_H-M "C M M A"
_symmetry_group_IT_number 67
_symmetry_cell_setting 'orthorhombic'
loop_
_space_group_symop_operation_xyz
x,y,z
-x,1/2-y,z
x,-y,-z
-x,1/2+y,-z
-x,-y,-z
x,1/2+y,-z
-x,y,z
x,1/2-y,z
1/2+x,1/2+y,z
1/2-x,-y,z
1/2+x,1/2-y,-z
1/2-x,y,-z
1/2-x,1/2-y,-z
1/2+x,y,-z
1/2-x,1/2+y,z
1/2+x,-y,z
loop_
_atom_site_type_symbol
_atom_site_label
_atom_site_fract_x
_atom_site_fract_y
_atom_site_fract_z
Si Si1 0.422151 0.459986 0.351679
Si Si2 0.172817 0.956023 0.145643
Si Si3 0.577136 0.955923 0.943849
Si Si4 0.672680 0.952511 0.558272
Si Si5 0.672650 0.955798 0.739771
O O1 0.500000 0.514113 0.351462
O O2 0.422173 0.250000 0.351800
O O3 0.380868 0.520660 0.401122
O O4 0.380348 0.516061 0.302132
O O5 0.166939 0.750000 0.146989
O O6 0.122976 0.020730 0.102110
O O7 0.159071 0.019461 0.202951
O O8 0.250000 0.000000 0.133466
O O9 0.500000 0.019697 0.940071
O O10 0.575213 0.750000 0.940460
O O11 0.603093 0.000000 0.000000
O O12 0.669144 0.750000 0.561204
O O13 0.658965 0.000000 0.500000
O O14 0.750000 0.000000 0.570601
O O15 0.668375 0.750000 0.740931
O O16 0.750000 0.000000 0.726363
#
# Coordination Sequence:
#
# PCOD9501403 Si02
#       5
#    16  16  16  16  16
#     4   9  18  31  48  72  98 123 154 192 233 275
#     4   9  18  31  48  71  95 120 152 191 233 274
#     4   9  18  32  48  67  92 122 156 191 228 273
#     4  10  19  32  51  72  95 124 158 194 230 273
#     4   9  17  31  51  71  93 122 154 190 231 275
#
# _framework density 19.585619000000001
#
# number of rings (size 3 to 8) (size 9 to 14) (size 15 to 20)
#    0.000    2.800    0.000    1.800    0.000    2.400 
#    0.000    7.000    0.000    4.800    0.000    5.600 
#    0.000    0.000    0.000    0.000    0.000    0.000 
#
# Total GULP energy -223128.768075 kJ/mol
# GULP energy per Si atom -5578.219202 kJ/mol
# Density = 1.954104 g / cm^3
# Si number density = 19.585619 Si / 1000 Ang^3
#
#
#
# Elastic Constant Matrix: (Units=GPa)
#
#
# Indices 1 2 3 4 5 6 
#
# 1 161.9244 4.4416 147.4305 0.0000 0.0000 0.0000
# 2 4.4416 23.9749 7.4731 0.0000 0.0000 0.0000
# 3 147.4305 7.4731 175.9368 0.0000 0.0000 0.0000
# 4 0.0000 0.0000 0.0000 -43.2381 0.0000 0.0000
# 5 0.0000 0.0000 0.0000 0.0000 -0.8661 0.0000
# 6 0.0000 0.0000 0.0000 0.0000 0.0000 19.2629
#
#
#
# Elastic Compliance Matrix: (Units=1/GPa)
#
#
# Indices 1 2 3 4 5 6 
#
# 1 0.026150 0.002013 -0.021998 0.000000 0.000000 0.000000
# 2 0.002013 0.042425 -0.003489 0.000000 0.000000 0.000000
# 3 -0.021998 -0.003489 0.024266 0.000000 0.000000 0.000000
# 4 0.000000 0.000000 0.000000 -0.023128 0.000000 0.000000
# 5 0.000000 0.000000 0.000000 0.000000 -1.154617 0.000000
# 6 0.000000 0.000000 0.000000 0.000000 0.000000 0.051913
#
#
# Mechanical properties :
#
#
# Convention : Reuss Voigt Hill
#
# Bulk Modulus (GPa) = 21.79024 75.61406 48.70215
# Shear Modulus (GPa) = -5.15069 8.53114 1.69023
#
# Velocity S-wave (km/s) = -1.62343 2.08932 0.92998
# Velocity P-wave (km/s) = 2.76328 6.67166 5.10621
#
# Compressibility (1/GPa) = 0.04589210
#
# Stress axis : x y z
#
# Youngs Moduli (GPa) = 38.24125 23.57110 41.20980
#
# Poissons Ratio (x) = -0.04744 0.90655
# Poissons Ratio (y) = -0.07696 0.14376
# Poissons Ratio (z) = 0.84124 0.08223
#
# Static dielectric constant tensor:
#      x y z
#    x 1.661290 0.000000 0.000000 
#    y 0.000000 1.719060 0.000000 
#    z 0.000000 0.000000 1.704600 
# 
# From -- ./inp_files/43226.got.cif
#   From: 2010.05.17/outbox.cif.g08.bks.cpg/sg67_22_cif.got.tgz:43226.got - 2010.06.03 18:28:57.
