data_PCOD9501914
_publ_section_title
;
Structure prediction by ZEFSAII (Michael W. Deem and Ramdas Pophale) SiO2 
 PCOD9501914
Probable space group: C M M A
;
_chemical_formula_sum "Si O2"
_cell_formula_units_Z 68
_cell_length_a 17.055079
_cell_length_b 15.526347
_cell_length_c 13.453323
_cell_angle_alpha 90.000000
_cell_angle_beta 90.000000
_cell_angle_gamma 90.000000
_cell_volume 3562.481295
_symmetry_space_group_name_H-M "C M M A"
_symmetry_group_IT_number 67
_symmetry_cell_setting 'orthorhombic'
loop_
_space_group_symop_operation_xyz
x,y,z
-x,1/2-y,z
x,-y,-z
-x,1/2+y,-z
-x,-y,-z
x,1/2+y,-z
-x,y,z
x,1/2-y,z
1/2+x,1/2+y,z
1/2-x,-y,z
1/2+x,1/2-y,-z
1/2-x,y,-z
1/2-x,1/2-y,-z
1/2+x,y,-z
1/2-x,1/2+y,z
1/2+x,-y,z
loop_
_atom_site_type_symbol
_atom_site_label
_atom_site_fract_x
_atom_site_fract_y
_atom_site_fract_z
Si Si1 0.344678 0.651248 0.005974
Si Si2 0.089359 0.396062 0.792852
Si Si3 0.750000 0.000000 0.500000
Si Si4 0.779307 0.846903 0.354040
Si Si5 0.171462 0.940537 0.791618
O O1 0.370736 0.750000 0.010793
O O2 0.382507 0.611188 0.907430
O O3 0.250000 0.650233 0.000000
O O4 0.359035 0.602772 0.108333
O O5 0.149535 0.344784 0.724218
O O6 0.104392 0.494098 0.758804
O O7 0.000000 0.369278 0.783885
O O8 0.791767 0.928912 0.428008
O O9 0.771611 0.750000 0.395025
O O10 0.702298 0.873230 0.289844
O O11 0.250000 0.000000 0.810999
#
# Coordination Sequence:
#
# PCOD9501914 Si02
#       5
#    16  16   4  16  16
#     4  11  20  31  53  85 120 163 210 245 284 354
#     4  11  23  38  58  90 130 166 202 247 307 369
#     4  12  22  44  66 104 112 148 212 264 316 368
#     4  11  22  40  68  94 121 157 204 260 307 364
#     4  10  19  35  57  85 120 162 205 239 296 358
#
# _framework density 19.087819
#
# number of rings (size 3 to 8) (size 9 to 14) (size 15 to 20)
#    0.000    1.176    8.235    2.471    0.000    3.765 
#    0.000    0.588    0.000    2.118    0.000    0.000 
#    0.000    0.000    0.000    0.000    0.000    0.000 
#
# Total GULP energy -189396.619558 kJ/mol
# GULP energy per Si atom -5570.488811 kJ/mol
# Density = 1.904437 g / cm^3
# Si number density = 19.087819 Si / 1000 Ang^3
#
#
#
# Elastic Constant Matrix: (Units=GPa)
#
#
# Indices 1 2 3 4 5 6 
#
# 1 41.1970 18.3320 22.8272 0.0000 0.0000 0.0000
# 2 18.3320 121.7149 26.9358 0.0000 0.0000 0.0000
# 3 22.8272 26.9358 90.5626 0.0000 0.0000 0.0000
# 4 0.0000 0.0000 0.0000 3.2040 0.0000 0.0000
# 5 0.0000 0.0000 0.0000 0.0000 7.2951 0.0000
# 6 0.0000 0.0000 0.0000 0.0000 0.0000 2.2537
#
#
#
# Elastic Compliance Matrix: (Units=1/GPa)
#
#
# Indices 1 2 3 4 5 6 
#
# 1 0.029179 -0.002962 -0.006474 0.000000 0.000000 0.000000
# 2 -0.002962 0.009096 -0.001959 0.000000 0.000000 0.000000
# 3 -0.006474 -0.001959 0.013256 0.000000 0.000000 0.000000
# 4 0.000000 0.000000 0.000000 0.312108 0.000000 0.000000
# 5 0.000000 0.000000 0.000000 0.000000 0.137078 0.000000
# 6 0.000000 0.000000 0.000000 0.000000 0.000000 0.443716
#
#
# Mechanical properties :
#
#
# Convention : Reuss Voigt Hill
#
# Bulk Modulus (GPa) = 34.79261 43.29605 39.04433
# Shear Modulus (GPa) = 5.11874 14.90919 10.01397
#
# Velocity S-wave (km/s) = 1.63936 2.79782 2.29296
# Velocity P-wave (km/s) = 4.67446 5.75924 5.24497
#
# Compressibility (1/GPa) = 0.02874174
#
# Stress axis : x y z
#
# Youngs Moduli (GPa) = 34.27142 109.94443 75.43514
#
# Poissons Ratio (x) = 0.32566 0.48835
# Poissons Ratio (y) = 0.10151 0.14775
# Poissons Ratio (z) = 0.22187 0.21534
#
# Static dielectric constant tensor:
#      x y z
#    x 1.655120 0.000000 0.000000 
#    y 0.000000 1.728610 0.000000 
#    z 0.000000 0.000000 1.731550 
# 
# From -- ./inp_files/19137.got.cif
#   From: 2010.05.17/outbox.cif.g08.bks.cpg/sg67_10_cif.got.tgz:19137.got - 2010.06.03 18:28:57.
