data_PCOD9501916
_publ_section_title
;
Structure prediction by ZEFSAII (Michael W. Deem and Ramdas Pophale) SiO2 
 PCOD9501916
Probable space group: C M M A
;
_chemical_formula_sum "Si O2"
_cell_formula_units_Z 96
_cell_length_a 15.809615
_cell_length_b 25.861475
_cell_length_c 11.978483
_cell_angle_alpha 90.000000
_cell_angle_beta 90.000000
_cell_angle_gamma 90.000000
_cell_volume 4897.522117
_symmetry_space_group_name_H-M "C M M A"
_symmetry_group_IT_number 67
_symmetry_cell_setting 'orthorhombic'
loop_
_space_group_symop_operation_xyz
x,y,z
-x,1/2-y,z
x,-y,-z
-x,1/2+y,-z
-x,-y,-z
x,1/2+y,-z
-x,y,z
x,1/2-y,z
1/2+x,1/2+y,z
1/2-x,-y,z
1/2+x,1/2-y,-z
1/2-x,y,-z
1/2-x,1/2-y,-z
1/2+x,y,-z
1/2-x,1/2+y,z
1/2+x,-y,z
loop_
_atom_site_type_symbol
_atom_site_label
_atom_site_fract_x
_atom_site_fract_y
_atom_site_fract_z
Si Si1 0.597017 0.193127 0.644996
Si Si2 0.101534 0.403806 0.224420
Si Si3 0.169122 0.189313 0.580972
Si Si4 0.148233 0.997715 0.371919
Si Si5 0.396638 0.439848 0.013613
Si Si6 0.899644 0.892646 0.250257
O O1 0.500000 0.196710 0.680863
O O2 0.636552 0.250000 0.660592
O O3 0.637092 0.146860 0.714652
O O4 0.597477 0.181595 0.513322
O O5 0.118621 0.453897 0.299059
O O6 0.000000 0.399338 0.217606
O O7 0.132617 0.411783 0.098913
O O8 0.170700 0.250000 0.611972
O O9 0.250000 0.178043 0.500000
O O10 0.151321 0.152217 0.684916
O O11 0.114069 0.944980 0.320172
O O12 0.120165 0.000000 0.500000
O O13 0.250000 0.000000 0.369782
O O14 0.500000 0.440928 0.016765
O O15 0.370918 0.409645 0.125632
O O16 0.369975 0.500000 0.000000
O O17 0.000000 0.879533 0.246843
#
# Coordination Sequence:
#
# PCOD9501916 Si02
#       6
#    16  16  16  16  16  16
#     4   9  18  33  55  81 106 138 185 234 277 334
#     4  10  19  35  58  79 109 151 194 234 287 351
#     4  10  22  38  59  84 116 154 188 234 301 360
#     4  11  24  35  51  81 119 152 185 242 295 350
#     4   9  17  34  55  79 111 151 195 241 290 345
#     4  11  22  37  60  84 112 152 198 242 292 354
#
# _framework density 19.601749999999999
#
# number of rings (size 3 to 8) (size 9 to 14) (size 15 to 20)
#    0.000    2.000    1.667    2.000    4.667    3.667 
#    0.000    2.500    0.000    3.000    0.000    3.500 
#    0.000    0.000    0.000    0.000    0.000    0.000 
#
# Total GULP energy -267732.568281 kJ/mol
# GULP energy per Si atom -5577.761839 kJ/mol
# Density = 1.955714 g / cm^3
# Si number density = 19.601750 Si / 1000 Ang^3
#
#
#
# Elastic Constant Matrix: (Units=GPa)
#
#
# Indices 1 2 3 4 5 6 
#
# 1 46.5945 19.3663 20.4288 0.0000 0.0000 0.0000
# 2 19.3663 151.0099 105.1760 0.0000 0.0000 0.0000
# 3 20.4288 105.1760 192.2693 0.0000 0.0000 0.0000
# 4 0.0000 0.0000 0.0000 -494.8291 0.0000 0.0000
# 5 0.0000 0.0000 0.0000 0.0000 0.2583 0.0000
# 6 0.0000 0.0000 0.0000 0.0000 0.0000 12.1278
#
#
#
# Elastic Compliance Matrix: (Units=1/GPa)
#
#
# Indices 1 2 3 4 5 6 
#
# 1 0.022880 -0.002005 -0.001334 0.000000 0.000000 0.000000
# 2 -0.002005 0.010874 -0.005735 0.000000 0.000000 0.000000
# 3 -0.001334 -0.005735 0.008480 0.000000 0.000000 0.000000
# 4 0.000000 0.000000 0.000000 -0.002021 0.000000 0.000000
# 5 0.000000 0.000000 0.000000 0.000000 3.872008 0.000000
# 6 0.000000 0.000000 0.000000 0.000000 0.000000 0.082455
#
#
# Mechanical properties :
#
#
# Convention : Reuss Voigt Hill
#
# Bulk Modulus (GPa) = 41.51946 75.53509 58.52728
# Shear Modulus (GPa) = 1.24352 -80.16177 -39.45913
#
# Velocity S-wave (km/s) = 0.79735 -6.40187 -4.49156
# Velocity P-wave (km/s) = 4.69842 4.00335 1.73902
#
# Compressibility (1/GPa) = 0.02408509
#
# Stress axis : x y z
#
# Youngs Moduli (GPa) = 43.70611 91.96571 117.92386
#
# Poissons Ratio (x) = 0.18439 0.15734
# Poissons Ratio (y) = 0.08763 0.67631
# Poissons Ratio (z) = 0.05832 0.52743
#
# Static dielectric constant tensor:
#      x y z
#    x 1.791140 0.000000 0.000000 
#    y 0.000000 1.686710 0.000000 
#    z 0.000000 0.000000 1.683920 
# 
# From -- ./inp_files/19659.got.cif
#   From: 2010.05.17/outbox.cif.g08.bks.cpg/sg67_10_cif.got.tgz:19659.got - 2010.06.03 18:28:57.
