data_PCOD9501907
_publ_section_title
;
Structure prediction by ZEFSAII (Michael W. Deem and Ramdas Pophale) SiO2 
 PCOD9501907
Probable space group: C M M A
;
_chemical_formula_sum "Si O2"
_cell_formula_units_Z 64
_cell_length_a 10.544667
_cell_length_b 14.781916
_cell_length_c 19.148194
_cell_angle_alpha 90.000000
_cell_angle_beta 90.000000
_cell_angle_gamma 90.000000
_cell_volume 2984.636310
_symmetry_space_group_name_H-M "C M M A"
_symmetry_group_IT_number 67
_symmetry_cell_setting 'orthorhombic'
loop_
_space_group_symop_operation_xyz
x,y,z
-x,1/2-y,z
x,-y,-z
-x,1/2+y,-z
-x,-y,-z
x,1/2+y,-z
-x,y,z
x,1/2-y,z
1/2+x,1/2+y,z
1/2-x,-y,z
1/2+x,1/2-y,-z
1/2-x,y,-z
1/2-x,1/2-y,-z
1/2+x,y,-z
1/2-x,1/2+y,z
1/2+x,-y,z
loop_
_atom_site_type_symbol
_atom_site_label
_atom_site_fract_x
_atom_site_fract_y
_atom_site_fract_z
Si Si1 0.500000 0.082254 0.943904
Si Si2 0.855169 0.860517 0.444975
Si Si3 0.354922 0.640056 0.713742
Si Si4 0.734706 0.139902 0.854367
Si Si5 0.000000 0.348577 0.914995
O O1 0.621018 0.093413 0.894894
O O2 0.500000 0.159594 0.002266
O O3 0.500000 0.000000 0.000000
O O4 0.854071 0.750000 0.445277
O O5 0.750000 0.890861 0.500000
O O6 0.826494 0.889018 0.365310
O O7 0.000000 0.887582 0.462023
O O8 0.500000 0.611684 0.731348
O O9 0.356515 0.750000 0.713395
O O10 0.255090 0.614678 0.773379
O O11 0.718856 0.250000 0.859736
O O12 0.866949 0.112198 0.890658
O O13 0.000000 0.250000 0.879842
#
# Coordination Sequence:
#
# PCOD9501907 Si02
#       5
#     8  16  16  16   8
#     4  12  26  38  48  72 109 140 166 214 283 336
#     4   8  13  21  34  57  94 134 168 201 247 308
#     4   8  13  25  46  69  93 128 175 222 261 305
#     4  10  19  35  57  78  99 130 179 228 269 318
#     4  10  20  36  60  80  95 124 173 224 269 322
#
# _framework density 21.443147
#
# number of rings (size 3 to 8) (size 9 to 14) (size 15 to 20)
#    0.000    2.750    1.250    3.375    0.000    4.000 
#    2.250    0.000    0.000    0.000    0.000    0.000 
#    0.000    0.000    0.000    6.750    0.000    8.250 
#
# Total GULP energy -178484.407504 kJ/mol
# GULP energy per Si atom -5577.637734 kJ/mol
# Density = 2.139434 g / cm^3
# Si number density = 21.443147 Si / 1000 Ang^3
#
#
#
# Elastic Constant Matrix: (Units=GPa)
#
#
# Indices 1 2 3 4 5 6 
#
# 1 199.7865 27.2437 136.5508 0.0000 0.0000 0.0000
# 2 27.2437 80.3599 23.7440 0.0000 0.0000 0.0000
# 3 136.5508 23.7440 204.8258 0.0000 0.0000 0.0000
# 4 0.0000 0.0000 0.0000 -6.0067 0.0000 0.0000
# 5 0.0000 0.0000 0.0000 0.0000 56.9764 0.0000
# 6 0.0000 0.0000 0.0000 0.0000 0.0000 -6.0818
#
#
#
# Elastic Compliance Matrix: (Units=1/GPa)
#
#
# Indices 1 2 3 4 5 6 
#
# 1 0.009339 -0.001374 -0.006067 0.000000 0.000000 0.000000
# 2 -0.001374 0.013087 -0.000601 0.000000 0.000000 0.000000
# 3 -0.006067 -0.000601 0.008997 0.000000 0.000000 0.000000
# 4 0.000000 0.000000 0.000000 -0.166480 0.000000 0.000000
# 5 0.000000 0.000000 0.000000 0.000000 0.017551 0.000000
# 6 0.000000 0.000000 0.000000 0.000000 0.000000 -0.164424
#
#
# Mechanical properties :
#
#
# Convention : Reuss Voigt Hill
#
# Bulk Modulus (GPa) = 65.19196 95.56103 80.37650
# Shear Modulus (GPa) = -19.17678 28.80648 4.81485
#
# Velocity S-wave (km/s) = -2.99374 3.66920 1.50009
# Velocity P-wave (km/s) = 4.30328 7.91279 6.36909
#
# Compressibility (1/GPa) = 0.01533931
#
# Stress axis : x y z
#
# Youngs Moduli (GPa) = 107.07367 76.40941 111.15312
#
# Poissons Ratio (x) = 0.10496 0.67437
# Poissons Ratio (y) = 0.14708 0.06685
# Poissons Ratio (z) = 0.64962 0.04595
#
# Static dielectric constant tensor:
#      x y z
#    x 1.744100 0.000000 0.000000 
#    y 0.000000 1.995690 0.000000 
#    z 0.000000 0.000000 1.773530 
# 
# From -- ./inp_files/36594.got.cif
#   From: 2010.05.17/outbox.cif.g08.bks.cpg/sg67_19_cif.got.tgz:36594.got - 2010.06.03 18:28:57.
