data_PCOD9501008
_publ_section_title
;
Structure prediction by ZEFSAII (Michael W. Deem and Ramdas Pophale) SiO2 
 PCOD9501008
Probable space group: C M M A
;
_chemical_formula_sum "Si O2"
_cell_formula_units_Z 96
_cell_length_a 25.656119
_cell_length_b 23.169257
_cell_length_c 6.774398
_cell_angle_alpha 90.000000
_cell_angle_beta 90.000000
_cell_angle_gamma 90.000000
_cell_volume 4026.927181
_symmetry_space_group_name_H-M "C M M A"
_symmetry_group_IT_number 67
_symmetry_cell_setting 'orthorhombic'
loop_
_space_group_symop_operation_xyz
x,y,z
-x,1/2-y,z
x,-y,-z
-x,1/2+y,-z
-x,-y,-z
x,1/2+y,-z
-x,y,z
x,1/2-y,z
1/2+x,1/2+y,z
1/2-x,-y,z
1/2+x,1/2-y,-z
1/2-x,y,-z
1/2-x,1/2-y,-z
1/2+x,y,-z
1/2-x,1/2+y,z
1/2+x,-y,z
loop_
_atom_site_type_symbol
_atom_site_label
_atom_site_fract_x
_atom_site_fract_y
_atom_site_fract_z
Si Si1 0.060465 0.950945 0.274843
Si Si2 0.559716 0.080847 0.807293
Si Si3 0.230232 0.131308 0.227012
Si Si4 0.655837 0.889663 0.752750
Si Si5 0.310766 0.489783 0.731130
Si Si6 0.633413 0.815337 0.133695
O O1 0.102353 0.905294 0.362625
O O2 0.000000 0.946251 0.338018
O O3 0.076139 0.019092 0.289424
O O4 0.059941 0.934216 0.041975
O O5 0.500000 0.090881 0.752957
O O6 0.592464 0.138786 0.781283
O O7 0.286412 0.124351 0.337686
O O8 0.189418 0.078185 0.241479
O O9 0.189531 0.183133 0.245578
O O10 0.250000 0.131504 0.000000
O O11 0.664230 0.955281 0.840114
O O12 0.644282 0.840375 0.912120
O O13 0.320321 0.500000 0.500000
O O14 0.250000 0.500000 0.769726
O O15 0.614194 0.750000 0.128167
#
# Coordination Sequence:
#
# PCOD9501008 Si02
#       6
#    16  16  16  16  16  16
#     4   8  13  23  40  61  84 110 142 184 235 286
#     4   8  14  24  38  58  86 117 146 181 231 285
#     4   9  18  28  43  66  92 119 151 189 230 275
#     4   9  17  27  42  62  86 116 146 181 232 280
#     4   9  17  29  46  68  90 112 145 189 237 288
#     4  10  19  28  40  62  92 124 159 193 220 262
#
# _framework density 23.839516
#
# number of rings (size 3 to 8) (size 9 to 14) (size 15 to 20)
#    0.000    3.167    0.000    2.000    0.000   15.000 
#    0.000    0.000    0.000    1.500    0.000    8.167 
#    0.000    0.000    0.000   12.833    0.000    3.167 
#
# Total GULP energy -267352.788508 kJ/mol
# GULP energy per Si atom -5569.849761 kJ/mol
# Density = 2.378526 g / cm^3
# Si number density = 23.839516 Si / 1000 Ang^3
#
#
#
# Elastic Constant Matrix: (Units=GPa)
#
#
# Indices 1 2 3 4 5 6 
#
# 1 164.1239 84.9760 26.1097 0.0000 0.0000 0.0000
# 2 84.9760 165.9889 34.3241 0.0000 0.0000 0.0000
# 3 26.1097 34.3241 74.0704 0.0000 0.0000 0.0000
# 4 0.0000 0.0000 0.0000 15.2064 0.0000 0.0000
# 5 0.0000 0.0000 0.0000 0.0000 7.2184 0.0000
# 6 0.0000 0.0000 0.0000 0.0000 0.0000 26.6741
#
#
#
# Elastic Compliance Matrix: (Units=1/GPa)
#
#
# Indices 1 2 3 4 5 6 
#
# 1 0.008366 -0.004062 -0.001067 0.000000 0.000000 0.000000
# 2 -0.004062 0.008636 -0.002570 0.000000 0.000000 0.000000
# 3 -0.001067 -0.002570 0.015067 0.000000 0.000000 0.000000
# 4 0.000000 0.000000 0.000000 0.065762 0.000000 0.000000
# 5 0.000000 0.000000 0.000000 0.000000 0.138535 0.000000
# 6 0.000000 0.000000 0.000000 0.000000 0.000000 0.037490
#
#
# Mechanical properties :
#
#
# Convention : Reuss Voigt Hill
#
# Bulk Modulus (GPa) = 59.98162 77.22254 68.60208
# Shear Modulus (GPa) = 16.96011 27.07133 22.01572
#
# Velocity S-wave (km/s) = 2.67016 3.37347 3.04221
# Velocity P-wave (km/s) = 5.89250 6.90194 6.41710
#
# Compressibility (1/GPa) = 0.01667177
#
# Stress axis : x y z
#
# Youngs Moduli (GPa) = 119.53303 115.80078 66.36837
#
# Poissons Ratio (x) = 0.47041 0.07078
# Poissons Ratio (y) = 0.48558 0.17055
# Poissons Ratio (z) = 0.12748 0.29758
#
# Static dielectric constant tensor:
#      x y z
#    x 2.039520 0.000000 0.000000 
#    y 0.000000 1.912680 0.000000 
#    z 0.000000 0.000000 2.072500 
# 
# From -- ./inp_files/23076.got.cif
#   From: 2010.05.17/outbox.cif.g08.bks.cpg/sg67_12_cif.got.tgz:23076.got - 2010.06.03 18:28:57.
