data_PCOD9501222
_publ_section_title
;
Structure prediction by ZEFSAII (Michael W. Deem and Ramdas Pophale) SiO2 
 PCOD9501222
Probable space group: C M M A
;
_chemical_formula_sum "Si O2"
_cell_formula_units_Z 112
_cell_length_a 14.435778
_cell_length_b 25.942220
_cell_length_c 14.576923
_cell_angle_alpha 90.000000
_cell_angle_beta 90.000000
_cell_angle_gamma 90.000000
_cell_volume 5459.001233
_symmetry_space_group_name_H-M "C M M A"
_symmetry_group_IT_number 67
_symmetry_cell_setting 'orthorhombic'
loop_
_space_group_symop_operation_xyz
x,y,z
-x,1/2-y,z
x,-y,-z
-x,1/2+y,-z
-x,-y,-z
x,1/2+y,-z
-x,y,z
x,1/2-y,z
1/2+x,1/2+y,z
1/2-x,-y,z
1/2+x,1/2-y,-z
1/2-x,y,-z
1/2-x,1/2-y,-z
1/2+x,y,-z
1/2-x,1/2+y,z
1/2+x,-y,z
loop_
_atom_site_type_symbol
_atom_site_label
_atom_site_fract_x
_atom_site_fract_y
_atom_site_fract_z
Si Si1 0.109033 0.410251 0.013081
Si Si2 0.607884 0.192579 0.103033
Si Si3 0.139381 0.503834 0.395251
Si Si4 0.269294 0.056294 0.144924
Si Si5 0.605883 0.110026 0.639780
Si Si6 0.894151 0.880825 0.425920
Si Si7 0.720277 0.150909 0.266669
O O1 0.176423 0.420612 0.098287
O O2 0.000000 0.418150 0.029497
O O3 0.123664 0.352748 0.971005
O O4 0.151870 0.446522 0.933421
O O5 0.500000 0.185823 0.134996
O O6 0.615629 0.250000 0.063350
O O7 0.679736 0.187536 0.187558
O O8 0.104802 0.500000 0.500000
O O9 0.250000 0.500000 0.396529
O O10 0.108953 0.452113 0.342178
O O11 0.110642 0.562557 0.378271
O O12 0.301588 0.095853 0.220158
O O13 0.250000 0.000000 0.181761
O O14 0.500000 0.126556 0.647944
O O15 0.636730 0.114750 0.532416
O O16 0.672941 0.143560 0.703816
O O17 0.834144 0.844061 0.361815
O O18 0.000000 0.864009 0.427281
#
# Coordination Sequence:
#
# PCOD9501222 Si02
#       7
#    16  16  16  16  16  16  16
#     4   9  18  37  59  76 101 140 179 212 257 322
#     4   9  19  38  64  90 109 127 165 226 284 327
#     4   9  15  26  43  63  93 138 187 235 269 300
#     4  10  22  34  49  80 116 147 175 211 257 317
#     4  10  20  32  47  70 105 153 197 232 267 312
#     4  10  19  31  49  70 100 146 199 240 270 307
#     4  11  21  33  52  78 112 145 180 226 274 328
#
# _framework density 20.516573000000001
#
# number of rings (size 3 to 8) (size 9 to 14) (size 15 to 20)
#    0.000    2.286    1.429    2.143    2.000    4.000 
#    0.000    5.714    0.000    2.143    0.000    2.000 
#    0.000    0.000    0.000    0.143    0.000    0.000 
#
# Total GULP energy -312082.257208 kJ/mol
# GULP energy per Si atom -5572.897450 kJ/mol
# Density = 2.046988 g / cm^3
# Si number density = 20.516573 Si / 1000 Ang^3
#
#
#
# Elastic Constant Matrix: (Units=GPa)
#
#
# Indices 1 2 3 4 5 6 
#
# 1 101.4412 5.5461 25.4674 0.0000 0.0000 0.0000
# 2 5.5461 53.8505 1.9080 0.0000 0.0000 0.0000
# 3 25.4674 1.9080 63.8812 0.0000 0.0000 0.0000
# 4 0.0000 0.0000 0.0000 11.5191 0.0000 0.0000
# 5 0.0000 0.0000 0.0000 0.0000 38.5964 0.0000
# 6 0.0000 0.0000 0.0000 0.0000 0.0000 19.5777
#
#
#
# Elastic Compliance Matrix: (Units=1/GPa)
#
#
# Indices 1 2 3 4 5 6 
#
# 1 0.011006 -0.000979 -0.004358 0.000000 0.000000 0.000000
# 2 -0.000979 0.018677 -0.000168 0.000000 0.000000 0.000000
# 3 -0.004358 -0.000168 0.017397 0.000000 0.000000 0.000000
# 4 0.000000 0.000000 0.000000 0.086812 0.000000 0.000000
# 5 0.000000 0.000000 0.000000 0.000000 0.025909 0.000000
# 6 0.000000 0.000000 0.000000 0.000000 0.000000 0.051079
#
#
# Mechanical properties :
#
#
# Convention : Reuss Voigt Hill
#
# Bulk Modulus (GPa) = 27.72459 31.66845 29.69652
# Shear Modulus (GPa) = 21.37557 26.35539 23.86548
#
# Velocity S-wave (km/s) = 3.23130 3.58801 3.41431
# Velocity P-wave (km/s) = 5.24064 5.71263 5.48172
#
# Compressibility (1/GPa) = 0.03606906
#
# Stress axis : x y z
#
# Youngs Moduli (GPa) = 90.86242 53.54266 57.48242
#
# Poissons Ratio (x) = 0.05242 0.25053
# Poissons Ratio (y) = 0.08896 0.00963
# Poissons Ratio (z) = 0.39601 0.00897
#
# Static dielectric constant tensor:
#      x y z
#    x 1.750980 0.000000 0.000000 
#    y 0.000000 1.737850 0.000000 
#    z 0.000000 0.000000 1.789840 
# 
# From -- ./inp_files/27714.got.cif
#   From: 2010.05.17/outbox.cif.g08.bks.cpg/sg67_14_cif.got.tgz:27714.got - 2010.06.03 18:28:57.
