data_PCOD9501465
_publ_section_title
;
Structure prediction by ZEFSAII (Michael W. Deem and Ramdas Pophale) SiO2 
 PCOD9501465
Probable space group: C M M A
;
_chemical_formula_sum "Si O2"
_cell_formula_units_Z 96
_cell_length_a 8.635308
_cell_length_b 19.015635
_cell_length_c 31.768955
_cell_angle_alpha 90.000000
_cell_angle_beta 90.000000
_cell_angle_gamma 90.000000
_cell_volume 5216.648737
_symmetry_space_group_name_H-M "C M M A"
_symmetry_group_IT_number 67
_symmetry_cell_setting 'orthorhombic'
loop_
_space_group_symop_operation_xyz
x,y,z
-x,1/2-y,z
x,-y,-z
-x,1/2+y,-z
-x,-y,-z
x,1/2+y,-z
-x,y,z
x,1/2-y,z
1/2+x,1/2+y,z
1/2-x,-y,z
1/2+x,1/2-y,-z
1/2-x,y,-z
1/2-x,1/2-y,-z
1/2+x,y,-z
1/2-x,1/2+y,z
1/2+x,-y,z
loop_
_atom_site_type_symbol
_atom_site_label
_atom_site_fract_x
_atom_site_fract_y
_atom_site_fract_z
Si Si1 0.813692 0.421652 0.045636
Si Si2 0.687444 0.578830 0.206844
Si Si3 0.186798 0.331904 0.288104
Si Si4 0.315774 0.833006 0.621065
Si Si5 0.183959 0.578679 0.544312
Si Si6 0.311199 0.669318 0.125972
O O1 0.750000 0.500000 0.054165
O O2 0.765579 0.369395 0.082901
O O3 0.000000 0.424631 0.044005
O O4 0.750000 0.399895 0.000000
O O5 0.500000 0.576692 0.206435
O O6 0.750000 0.500000 0.205392
O O7 0.735559 0.619438 0.249306
O O8 0.738334 0.623725 0.166211
O O9 0.229939 0.250000 0.280519
O O10 0.257129 0.354609 0.332688
O O11 0.000000 0.334416 0.291076
O O12 0.500000 0.842474 0.618503
O O13 0.280487 0.750000 0.616839
O O14 0.235922 0.875363 0.583788
O O15 0.250000 0.500000 0.549306
O O16 0.250000 0.606901 0.500000
O O17 0.000000 0.575330 0.541581
O O18 0.500000 0.670469 0.126624
O O19 0.258442 0.750000 0.128137
#
# Coordination Sequence:
#
# PCOD9501465 Si02
#       6
#    16  16  16  16  16  16
#     4  10  19  32  52  75 102 135 170 211 257 307
#     4  10  20  34  54  78 104 134 170 214 260 311
#     4   9  18  34  55  77 102 136 177 217 259 309
#     4  10  21  37  57  82 112 145 181 222 268 318
#     4  11  22  38  59  82 111 145 183 226 272 322
#     4   9  18  33  53  76 101 133 173 214 257 306
#
# _framework density 18.402619000000001
#
# number of rings (size 3 to 8) (size 9 to 14) (size 15 to 20)
#    0.000    2.167    0.000    4.500    0.000    5.000 
#    0.000    2.500    0.000    5.000    0.000    0.000 
#    0.000    0.000    0.000    0.000    0.000    0.000 
#
# Total GULP energy -268033.264323 kJ/mol
# GULP energy per Si atom -5584.026340 kJ/mol
# Density = 1.836073 g / cm^3
# Si number density = 18.402619 Si / 1000 Ang^3
#
#
#
# Elastic Constant Matrix: (Units=GPa)
#
#
# Indices 1 2 3 4 5 6 
#
# 1 48.4924 42.4267 59.6374 0.0000 0.0000 0.0000
# 2 42.4267 118.7936 121.5819 0.0000 0.0000 0.0000
# 3 59.6374 121.5819 205.6866 0.0000 0.0000 0.0000
# 4 0.0000 0.0000 0.0000 41.4450 0.0000 0.0000
# 5 0.0000 0.0000 0.0000 0.0000 20.7961 0.0000
# 6 0.0000 0.0000 0.0000 0.0000 0.0000 26.4184
#
#
#
# Elastic Compliance Matrix: (Units=1/GPa)
#
#
# Indices 1 2 3 4 5 6 
#
# 1 0.033218 -0.005079 -0.006629 0.000000 0.000000 0.000000
# 2 -0.005079 0.022087 -0.011583 0.000000 0.000000 0.000000
# 3 -0.006629 -0.011583 0.013630 0.000000 0.000000 0.000000
# 4 0.000000 0.000000 0.000000 0.024128 0.000000 0.000000
# 5 0.000000 0.000000 0.000000 0.000000 0.048086 0.000000
# 6 0.000000 0.000000 0.000000 0.000000 0.000000 0.037852
#
#
# Mechanical properties :
#
#
# Convention : Reuss Voigt Hill
#
# Bulk Modulus (GPa) = 44.73608 91.14050 67.93829
# Shear Modulus (GPa) = 21.45598 27.68702 24.57150
#
# Velocity S-wave (km/s) = 3.41826 3.88302 3.65803
# Velocity P-wave (km/s) = 6.31995 8.35087 7.40536
#
# Compressibility (1/GPa) = 0.02235332
#
# Stress axis : x y z
#
# Youngs Moduli (GPa) = 30.10390 45.27631 73.36499
#
# Poissons Ratio (x) = 0.22996 0.48635
# Poissons Ratio (y) = 0.15290 0.84977
# Poissons Ratio (z) = 0.19956 0.52443
#
# Static dielectric constant tensor:
#      x y z
#    x 1.627310 0.000000 0.000000 
#    y 0.000000 1.608290 0.000000 
#    z 0.000000 0.000000 1.619330 
# 
# From -- ./inp_files/43440.got.cif
#   From: 2010.05.17/outbox.cif.g08.bks.cpg/sg67_22_cif.got.tgz:43440.got - 2010.06.03 18:28:57.
