data_PCOD9501971
_publ_section_title
;
Structure prediction by ZEFSAII (Michael W. Deem and Ramdas Pophale) SiO2 
 PCOD9501971
Probable space group: C M M A
;
_chemical_formula_sum "Si O2"
_cell_formula_units_Z 88
_cell_length_a 13.142875
_cell_length_b 14.510940
_cell_length_c 23.384145
_cell_angle_alpha 90.000000
_cell_angle_beta 90.000000
_cell_angle_gamma 90.000000
_cell_volume 4459.718217
_symmetry_space_group_name_H-M "C M M A"
_symmetry_group_IT_number 67
_symmetry_cell_setting 'orthorhombic'
loop_
_space_group_symop_operation_xyz
x,y,z
-x,1/2-y,z
x,-y,-z
-x,1/2+y,-z
-x,-y,-z
x,1/2+y,-z
-x,y,z
x,1/2-y,z
1/2+x,1/2+y,z
1/2-x,-y,z
1/2+x,1/2-y,-z
1/2-x,y,-z
1/2-x,1/2-y,-z
1/2+x,y,-z
1/2-x,1/2+y,z
1/2+x,-y,z
loop_
_atom_site_type_symbol
_atom_site_label
_atom_site_fract_x
_atom_site_fract_y
_atom_site_fract_z
Si Si1 0.250000 0.000000 0.177343
Si Si2 0.703002 0.856758 0.619989
Si Si3 0.694689 0.651696 0.095400
Si Si4 0.611953 0.395467 0.020110
Si Si5 0.113871 0.026787 0.434552
Si Si6 0.621890 0.856019 0.748035
O O1 0.182198 0.066169 0.137110
O O2 0.323056 0.068084 0.212805
O O3 0.695577 0.750000 0.601370
O O4 0.806883 0.903974 0.596078
O O5 0.682972 0.858435 0.687866
O O6 0.620035 0.927791 0.596104
O O7 0.690016 0.750000 0.125538
O O8 0.620902 0.653030 0.041070
O O9 0.804113 0.638172 0.064320
O O10 0.500000 0.386822 0.044832
O O11 0.631563 0.500000 0.000000
O O12 0.000000 0.064854 0.432436
O O13 0.138651 0.000000 0.500000
O O14 0.500000 0.873902 0.740466
O O15 0.629936 0.750000 0.769865
#
# Coordination Sequence:
#
# PCOD9501971 Si02
#       6
#     8  16  16  16  16  16
#     4  12  22  39  60  84 115 148 186 244 302 350
#     4  10  20  37  60  83 112 154 201 245 287 336
#     4  11  22  36  56  84 115 146 182 229 283 341
#     4  10  19  36  58  80 111 152 189 221 271 338
#     4  10  21  35  54  88 128 160 192 232 284 345
#     4  10  23  42  63  86 111 148 200 249 296 351
#
# _framework density 19.732189000000002
#
# number of rings (size 3 to 8) (size 9 to 14) (size 15 to 20)
#    0.000    1.636    1.818    4.909    0.000    5.818 
#    0.000    1.818    0.000    2.727    0.000    0.000 
#    0.000    0.000    0.000    0.000    0.000    0.000 
#
# Total GULP energy -245293.557465 kJ/mol
# GULP energy per Si atom -5574.853579 kJ/mol
# Density = 1.968728 g / cm^3
# Si number density = 19.732189 Si / 1000 Ang^3
#
#
#
# Elastic Constant Matrix: (Units=GPa)
#
#
# Indices 1 2 3 4 5 6 
#
# 1 104.8923 6.3993 9.9420 0.0000 0.0000 0.0000
# 2 6.3993 149.2296 44.4718 0.0000 0.0000 0.0000
# 3 9.9420 44.4718 72.5148 0.0000 0.0000 0.0000
# 4 0.0000 0.0000 0.0000 -3.0622 0.0000 0.0000
# 5 0.0000 0.0000 0.0000 0.0000 -8.8085 0.0000
# 6 0.0000 0.0000 0.0000 0.0000 0.0000 21.6825
#
#
#
# Elastic Compliance Matrix: (Units=1/GPa)
#
#
# Indices 1 2 3 4 5 6 
#
# 1 0.009659 -0.000024 -0.001310 0.000000 0.000000 0.000000
# 2 -0.000024 0.008200 -0.005025 0.000000 0.000000 0.000000
# 3 -0.001310 -0.005025 0.017052 0.000000 0.000000 0.000000
# 4 0.000000 0.000000 0.000000 -0.326558 0.000000 0.000000
# 5 0.000000 0.000000 0.000000 0.000000 -0.113527 0.000000
# 6 0.000000 0.000000 0.000000 0.000000 0.000000 0.046120
#
#
# Mechanical properties :
#
#
# Convention : Reuss Voigt Hill
#
# Bulk Modulus (GPa) = 45.05975 49.80699 47.43337
# Shear Modulus (GPa) = -14.75196 19.68392 2.46598
#
# Velocity S-wave (km/s) = -2.73721 3.16183 1.11912
# Velocity P-wave (km/s) = 3.59103 6.21497 5.07550
#
# Compressibility (1/GPa) = 0.02219275
#
# Stress axis : x y z
#
# Youngs Moduli (GPa) = 103.52846 121.95503 58.64464
#
# Poissons Ratio (x) = 0.00292 0.07680
# Poissons Ratio (y) = 0.00248 0.29472
# Poissons Ratio (z) = 0.13558 0.61288
#
# Static dielectric constant tensor:
#      x y z
#    x 1.700510 0.000000 0.000000 
#    y 0.000000 1.831960 0.000000 
#    z 0.000000 0.000000 1.714500 
# 
# From -- ./inp_files/38313.got.cif
#   From: 2010.05.17/outbox.cif.g08.bks.cpg/sg67_20_cif.got.tgz:38313.got - 2010.06.03 18:28:57.
