data_PCOD9501437
_publ_section_title
;
Structure prediction by ZEFSAII (Michael W. Deem and Ramdas Pophale) SiO2 
 PCOD9501437
Probable space group: C M M A
;
_chemical_formula_sum "Si O2"
_cell_formula_units_Z 88
_cell_length_a 15.103489
_cell_length_b 8.809768
_cell_length_c 32.255234
_cell_angle_alpha 90.000000
_cell_angle_beta 90.000000
_cell_angle_gamma 90.000000
_cell_volume 4291.824476
_symmetry_space_group_name_H-M "C M M A"
_symmetry_group_IT_number 67
_symmetry_cell_setting 'orthorhombic'
loop_
_space_group_symop_operation_xyz
x,y,z
-x,1/2-y,z
x,-y,-z
-x,1/2+y,-z
-x,-y,-z
x,1/2+y,-z
-x,y,z
x,1/2-y,z
1/2+x,1/2+y,z
1/2-x,-y,z
1/2+x,1/2-y,-z
1/2-x,y,-z
1/2-x,1/2-y,-z
1/2+x,y,-z
1/2-x,1/2+y,z
1/2+x,-y,z
loop_
_atom_site_type_symbol
_atom_site_label
_atom_site_fract_x
_atom_site_fract_y
_atom_site_fract_z
Si Si1 0.104462 0.582654 0.540526
Si Si2 0.150554 0.066908 0.715058
Si Si3 0.000000 0.567523 0.954348
Si Si4 0.150047 0.066925 0.804864
Si Si5 0.348643 0.432478 0.890269
Si Si6 0.848278 0.431616 0.625636
O O1 0.142195 0.500000 0.500000
O O2 0.144651 0.750000 0.545517
O O3 0.111537 0.493251 0.583377
O O4 0.000000 0.599481 0.532764
O O5 0.156567 0.250000 0.715116
O O6 0.109784 0.025979 0.759785
O O7 0.110013 0.023655 0.670410
O O8 0.250000 0.000000 0.715051
O O9 0.913476 0.523913 0.927678
O O10 0.000000 0.750000 0.957195
O O11 0.000000 0.500000 0.000000
O O12 0.151883 0.250000 0.808579
O O13 0.250000 0.000000 0.803621
O O14 0.112693 0.995644 0.846817
O O15 0.342993 0.250000 0.887775
O O16 0.250000 0.500000 0.895659
O O17 0.846518 0.250000 0.623853
O O18 0.750000 0.500000 0.626336
#
# Coordination Sequence:
#
# PCOD9501437 Si02
#       6
#    16  16   8  16  16  16
#     4  10  21  37  55  73  94 124 165 210 257 313
#     4   8  15  26  43  70 103 135 169 206 250 303
#     4  10  24  42  60  82 114 150 188 232 285 336
#     4   9  15  26  47  76 106 139 178 217 257 308
#     4  10  20  36  57  84 113 147 187 232 279 332
#     4  10  19  32  51  76 105 135 166 207 256 306
#
# _framework density 20.504100000000001
#
# number of rings (size 3 to 8) (size 9 to 14) (size 15 to 20)
#    0.000    2.545    0.000    3.273    0.000    4.727 
#    0.000    3.636    2.000    0.000    0.000    0.000 
#    0.000    0.000    0.000    0.000    0.000    0.000 
#
# Total GULP energy -245199.496531 kJ/mol
# GULP energy per Si atom -5572.715830 kJ/mol
# Density = 2.045743 g / cm^3
# Si number density = 20.504100 Si / 1000 Ang^3
#
#
#
# Elastic Constant Matrix: (Units=GPa)
#
#
# Indices 1 2 3 4 5 6 
#
# 1 59.3001 18.6032 46.8134 0.0000 0.0000 0.0000
# 2 18.6032 75.7040 71.0364 0.0000 0.0000 0.0000
# 3 46.8134 71.0364 247.4618 0.0000 0.0000 0.0000
# 4 0.0000 0.0000 0.0000 9.2372 0.0000 0.0000
# 5 0.0000 0.0000 0.0000 0.0000 -346.2325 0.0000
# 6 0.0000 0.0000 0.0000 0.0000 0.0000 12.0319
#
#
#
# Elastic Compliance Matrix: (Units=1/GPa)
#
#
# Indices 1 2 3 4 5 6 
#
# 1 0.020015 -0.001869 -0.003250 0.000000 0.000000 0.000000
# 2 -0.001869 0.018254 -0.004886 0.000000 0.000000 0.000000
# 3 -0.003250 -0.004886 0.006058 0.000000 0.000000 0.000000
# 4 0.000000 0.000000 0.000000 0.108258 0.000000 0.000000
# 5 0.000000 0.000000 0.000000 0.000000 -0.002888 0.000000
# 6 0.000000 0.000000 0.000000 0.000000 0.000000 0.083113
#
#
# Mechanical properties :
#
#
# Convention : Reuss Voigt Hill
#
# Bulk Modulus (GPa) = 41.12337 72.81910 56.97123
# Shear Modulus (GPa) = 19.16252 -48.59183 -14.71466
#
# Velocity S-wave (km/s) = 3.06039 -4.87340 -2.68180
# Velocity P-wave (km/s) = 5.70856 1.98111 4.27273
#
# Compressibility (1/GPa) = 0.02431707
#
# Stress axis : x y z
#
# Youngs Moduli (GPa) = 49.96190 54.78350 165.05764
#
# Poissons Ratio (x) = 0.10239 0.53642
# Poissons Ratio (y) = 0.09338 0.80653
# Poissons Ratio (z) = 0.16237 0.26769
#
# Static dielectric constant tensor:
#      x y z
#    x 1.969230 0.000000 0.000000 
#    y 0.000000 1.713250 0.000000 
#    z 0.000000 0.000000 1.786610 
# 
# From -- ./inp_files/45791.got.cif
#   From: 2010.05.17/outbox.cif.g08.bks.cpg/sg67_23_cif.got.tgz:45791.got - 2010.06.03 18:28:57.
