data_PCOD9501134
_publ_section_title
;
Structure prediction by ZEFSAII (Michael W. Deem and Ramdas Pophale) SiO2 
 PCOD9501134
Probable space group: C M M A
;
_chemical_formula_sum "Si O2"
_cell_formula_units_Z 104
_cell_length_a 29.576959
_cell_length_b 23.832424
_cell_length_c 8.906422
_cell_angle_alpha 90.000000
_cell_angle_beta 90.000000
_cell_angle_gamma 90.000000
_cell_volume 6278.053393
_symmetry_space_group_name_H-M "C M M A"
_symmetry_group_IT_number 67
_symmetry_cell_setting 'orthorhombic'
loop_
_space_group_symop_operation_xyz
x,y,z
-x,1/2-y,z
x,-y,-z
-x,1/2+y,-z
-x,-y,-z
x,1/2+y,-z
-x,y,z
x,1/2-y,z
1/2+x,1/2+y,z
1/2-x,-y,z
1/2+x,1/2-y,-z
1/2-x,y,-z
1/2-x,1/2-y,-z
1/2+x,y,-z
1/2-x,1/2+y,z
1/2+x,-y,z
loop_
_atom_site_type_symbol
_atom_site_label
_atom_site_fract_x
_atom_site_fract_y
_atom_site_fract_z
Si Si1 0.699782 0.156570 0.500201
Si Si2 0.619870 0.750000 0.001861
Si Si3 0.051127 0.933272 0.676741
Si Si4 0.553248 0.356505 0.961648
Si Si5 0.868409 0.440944 0.555225
Si Si6 0.412260 0.536459 0.859524
Si Si7 0.699060 0.750000 0.246172
Si Si8 0.197846 0.250000 0.753940
O O1 0.750000 0.131732 0.500000
O O2 0.662779 0.109523 0.491987
O O3 0.695744 0.196179 0.645184
O O4 0.695639 0.196571 0.355665
O O5 0.587176 0.695255 0.008776
O O6 0.654382 0.750000 0.860919
O O7 0.656526 0.750000 0.136334
O O8 0.085046 0.934343 0.537916
O O9 0.000000 0.928153 0.623972
O O10 0.056856 0.991175 0.770919
O O11 0.060711 0.883307 0.795537
O O12 0.500000 0.340857 0.973496
O O13 0.563330 0.408772 0.073637
O O14 0.848675 0.500000 0.500000
O O15 0.877158 0.443976 0.732882
O O16 0.393442 0.500000 0.000000
O O17 0.750581 0.750000 0.180432
#
# Coordination Sequence:
#
# PCOD9501134 Si02
#       8
#    16   8  16  16  16  16   8   8
#     4   9  18  35  53  71  95 124 158 197 240 289
#     4  12  20  30  50  74 100 124 154 200 248 290
#     4   9  18  32  49  69  94 126 166 205 234 269
#     4  10  20  32  46  68  99 133 163 192 237 291
#     4  10  19  30  49  76  99 123 159 198 241 288
#     4   9  18  32  49  69  97 130 164 199 232 272
#     4   9  19  34  54  72  92 121 161 205 242 279
#     4   9  19  34  52  72  92 121 161 201 238 285
#
# _framework density 16.565643000000001
#
# number of rings (size 3 to 8) (size 9 to 14) (size 15 to 20)
#    0.000    2.462    0.000    3.692    0.000    5.538 
#    0.000    0.000    0.000    0.000    0.000   15.077 
#    0.000    0.000    0.000    0.000    0.000    0.000 
#
# Total GULP energy -289667.338750 kJ/mol
# GULP energy per Si atom -5570.525745 kJ/mol
# Density = 1.652794 g / cm^3
# Si number density = 16.565643 Si / 1000 Ang^3
#
#
#
# Elastic Constant Matrix: (Units=GPa)
#
#
# Indices 1 2 3 4 5 6 
#
# 1 106.9584 73.8652 48.3612 0.0000 0.0000 0.0000
# 2 73.8652 100.6049 32.4940 0.0000 0.0000 0.0000
# 3 48.3612 32.4940 82.8249 0.0000 0.0000 0.0000
# 4 0.0000 0.0000 0.0000 -12.0592 0.0000 0.0000
# 5 0.0000 0.0000 0.0000 0.0000 18.8044 0.0000
# 6 0.0000 0.0000 0.0000 0.0000 0.0000 32.7230
#
#
#
# Elastic Compliance Matrix: (Units=1/GPa)
#
#
# Indices 1 2 3 4 5 6 
#
# 1 0.022510 -0.014064 -0.007626 0.000000 0.000000 0.000000
# 2 -0.014064 0.020169 0.000299 0.000000 0.000000 0.000000
# 3 -0.007626 0.000299 0.016409 0.000000 0.000000 0.000000
# 4 0.000000 0.000000 0.000000 -0.082924 0.000000 0.000000
# 5 0.000000 0.000000 0.000000 0.000000 0.053179 0.000000
# 6 0.000000 0.000000 0.000000 0.000000 0.000000 0.030560
#
#
# Mechanical properties :
#
#
# Convention : Reuss Voigt Hill
#
# Bulk Modulus (GPa) = 61.32461 66.64766 63.98614
# Shear Modulus (GPa) = 46.24469 16.93814 31.59142
#
# Velocity S-wave (km/s) = 5.28929 3.20110 4.37171
# Velocity P-wave (km/s) = 8.62564 7.34728 8.01200
#
# Compressibility (1/GPa) = 0.01630667
#
# Stress axis : x y z
#
# Youngs Moduli (GPa) = 44.42447 49.58033 60.94194
#
# Poissons Ratio (x) = 0.69730 0.46474
# Poissons Ratio (y) = 0.62479 -0.01823
# Poissons Ratio (z) = 0.33878 -0.01483
#
# Static dielectric constant tensor:
#      x y z
#    x 1.540910 0.000000 0.000000 
#    y 0.000000 1.543520 0.000000 
#    z 0.000000 0.000000 1.566450 
# 
# From -- ./inp_files/13853.got.cif
#   From: 2010.05.17/outbox.cif.g08.bks.cpg/sg67_7_cif.got.tgz:13853.got - 2010.06.03 18:28:57.
