data_PCOD9501764
_publ_section_title
;
Structure prediction by ZEFSAII (Michael W. Deem and Ramdas Pophale) SiO2 
 PCOD9501764
Probable space group: C M M A
;
_chemical_formula_sum "Si O2"
_cell_formula_units_Z 80
_cell_length_a 17.861097
_cell_length_b 21.202237
_cell_length_c 11.513596
_cell_angle_alpha 90.000000
_cell_angle_beta 90.000000
_cell_angle_gamma 90.000000
_cell_volume 4360.143674
_symmetry_space_group_name_H-M "C M M A"
_symmetry_group_IT_number 67
_symmetry_cell_setting 'orthorhombic'
loop_
_space_group_symop_operation_xyz
x,y,z
-x,1/2-y,z
x,-y,-z
-x,1/2+y,-z
-x,-y,-z
x,1/2+y,-z
-x,y,z
x,1/2-y,z
1/2+x,1/2+y,z
1/2-x,-y,z
1/2+x,1/2-y,-z
1/2-x,y,-z
1/2-x,1/2-y,-z
1/2+x,y,-z
1/2-x,1/2+y,z
1/2+x,-y,z
loop_
_atom_site_type_symbol
_atom_site_label
_atom_site_fract_x
_atom_site_fract_y
_atom_site_fract_z
Si Si1 0.245163 0.925056 0.362047
Si Si2 0.500000 0.158838 0.836506
Si Si3 0.500000 0.679371 0.890515
Si Si4 0.250000 0.879952 0.000000
Si Si5 0.831681 0.179049 0.219433
Si Si6 0.872269 0.416082 0.820045
Si Si7 0.000000 0.010667 0.138148
O O1 0.250000 0.919121 0.500000
O O2 0.304191 0.877719 0.302208
O O3 0.167445 0.905190 0.302320
O O4 0.250000 0.000000 0.332782
O O5 0.578492 0.179839 0.783331
O O6 0.500000 0.083386 0.835172
O O7 0.500000 0.179410 0.970460
O O8 0.500000 0.750000 0.845586
O O9 0.572867 0.641061 0.851432
O O10 0.298183 0.838908 0.091997
O O11 0.191736 0.918943 0.080135
O O12 0.805130 0.250000 0.250500
O O13 0.925181 0.476931 0.816869
O O14 0.000000 0.000000 0.000000
#
# Coordination Sequence:
#
# PCOD9501764 Si02
#       7
#    16   8   8   8  16  16   8
#     4  10  23  44  64  84 114 155 204 254 299 347
#     4  12  21  35  54  85 125 162 187 230 287 363
#     4  11  21  36  55  82 122 158 189 231 288 362
#     4  10  19  34  53  88 121 154 191 238 297 368
#     4  11  22  36  59  88 119 156 197 242 297 357
#     4  10  21  35  57  88 115 156 196 239 299 357
#     4  11  18  34  53  85 124 152 189 238 294 357
#
# _framework density 18.348020000000002
#
# number of rings (size 3 to 8) (size 9 to 14) (size 15 to 20)
#    0.000    1.400    4.000    2.400    0.000    5.200 
#    0.000    7.500    0.000    7.200    0.000    0.000 
#    0.000    0.000    0.000    0.000    0.000    0.000 
#
# Total GULP energy -223223.903060 kJ/mol
# GULP energy per Si atom -5580.597577 kJ/mol
# Density = 1.830626 g / cm^3
# Si number density = 18.348020 Si / 1000 Ang^3
#
#
#
# Elastic Constant Matrix: (Units=GPa)
#
#
# Indices 1 2 3 4 5 6 
#
# 1 123.2063 41.4704 44.1474 0.0000 0.0000 0.0000
# 2 41.4704 139.7870 39.1683 0.0000 0.0000 0.0000
# 3 44.1474 39.1683 91.6881 0.0000 0.0000 0.0000
# 4 0.0000 0.0000 0.0000 -55.8848 0.0000 0.0000
# 5 0.0000 0.0000 0.0000 0.0000 15.1975 0.0000
# 6 0.0000 0.0000 0.0000 0.0000 0.0000 62.4931
#
#
#
# Elastic Compliance Matrix: (Units=1/GPa)
#
#
# Indices 1 2 3 4 5 6 
#
# 1 0.010225 -0.001879 -0.004121 0.000000 0.000000 0.000000
# 2 -0.001879 0.008472 -0.002714 0.000000 0.000000 0.000000
# 3 -0.004121 -0.002714 0.014050 0.000000 0.000000 0.000000
# 4 0.000000 0.000000 0.000000 -0.017894 0.000000 0.000000
# 5 0.000000 0.000000 0.000000 0.000000 0.065800 0.000000
# 6 0.000000 0.000000 0.000000 0.000000 0.000000 0.016002
#
#
# Mechanical properties :
#
#
# Convention : Reuss Voigt Hill
#
# Bulk Modulus (GPa) = 65.27752 67.13926 66.20839
# Shear Modulus (GPa) = 41.94978 19.68754 30.81866
#
# Velocity S-wave (km/s) = 4.78675 3.27923 4.10283
# Velocity P-wave (km/s) = 8.13667 7.14208 7.65554
#
# Compressibility (1/GPa) = 0.01531921
#
# Stress axis : x y z
#
# Youngs Moduli (GPa) = 97.79485 118.03983 71.17300
#
# Poissons Ratio (x) = 0.22179 0.29329
# Poissons Ratio (y) = 0.18375 0.19319
# Poissons Ratio (z) = 0.40300 0.32040
#
# Static dielectric constant tensor:
#      x y z
#    x 1.615860 0.000000 0.000000 
#    y 0.000000 1.687050 0.000000 
#    z 0.000000 0.000000 1.604480 
# 
# From -- ./inp_files/19399.got.cif
#   From: 2010.05.17/outbox.cif.g08.bks.cpg/sg67_10_cif.got.tgz:19399.got - 2010.06.03 18:28:57.
