data_PCOD9501849
_publ_section_title
;
Structure prediction by ZEFSAII (Michael W. Deem and Ramdas Pophale) SiO2 
 PCOD9501849
Probable space group: C M M A
;
_chemical_formula_sum "Si O2"
_cell_formula_units_Z 56
_cell_length_a 30.813526
_cell_length_b 16.301154
_cell_length_c 5.210442
_cell_angle_alpha 90.000000
_cell_angle_beta 90.000000
_cell_angle_gamma 90.000000
_cell_volume 2617.184345
_symmetry_space_group_name_H-M "C M M A"
_symmetry_group_IT_number 67
_symmetry_cell_setting 'orthorhombic'
loop_
_space_group_symop_operation_xyz
x,y,z
-x,1/2-y,z
x,-y,-z
-x,1/2+y,-z
-x,-y,-z
x,1/2+y,-z
-x,y,z
x,1/2-y,z
1/2+x,1/2+y,z
1/2-x,-y,z
1/2+x,1/2-y,-z
1/2-x,y,-z
1/2-x,1/2-y,-z
1/2+x,y,-z
1/2-x,1/2+y,z
1/2+x,-y,z
loop_
_atom_site_type_symbol
_atom_site_label
_atom_site_fract_x
_atom_site_fract_y
_atom_site_fract_z
Si Si1 0.769438 0.593312 0.747532
Si Si2 0.586749 0.654790 0.860590
Si Si3 0.000000 0.942883 0.250113
Si Si4 0.870495 0.588712 0.623242
O O1 0.750000 0.500000 0.748570
O O2 0.750000 0.635730 0.500000
O O3 0.820845 0.589288 0.719540
O O4 0.750000 0.632891 0.000000
O O5 0.580366 0.750000 0.921706
O O6 0.542647 0.613263 0.761880
O O7 0.620187 0.646475 0.621634
O O8 0.602064 0.610268 0.122935
O O9 0.000000 0.000000 0.500000
O O10 0.000000 0.000000 0.000000
O O11 0.880263 0.500000 0.500000
#
# Coordination Sequence:
#
# PCOD9501849 Si02
#       4
#    16  16   8  16
#     4  10  19  34  59 100 128 163 226 295 342 378
#     4  12  27  45  68 100 147 188 218 273 366 422
#     4  12  25  48  73 104 133 168 237 288 319 396
#     4  12  23  41  71 104 133 176 243 293 327 403
#
# _framework density 21.397043
#
# number of rings (size 3 to 8) (size 9 to 14) (size 15 to 20)
#    0.000    0.571    2.857    8.143    4.000    0.000 
#    0.000    4.286    0.000   17.143    0.000    0.000 
#    0.000    0.000    0.000    0.000    0.000    0.000 
#
# Total GULP energy -156523.021325 kJ/mol
# GULP energy per Si atom -5590.107904 kJ/mol
# Density = 2.134834 g / cm^3
# Si number density = 21.397043 Si / 1000 Ang^3
#
#
#
# Elastic Constant Matrix: (Units=GPa)
#
#
# Indices 1 2 3 4 5 6 
#
# 1 146.8685 67.8527 74.1452 0.0000 0.0000 0.0000
# 2 67.8527 100.1548 55.5274 0.0000 0.0000 0.0000
# 3 74.1452 55.5274 229.6813 0.0000 0.0000 0.0000
# 4 0.0000 0.0000 0.0000 14.2621 0.0000 0.0000
# 5 0.0000 0.0000 0.0000 0.0000 40.7200 0.0000
# 6 0.0000 0.0000 0.0000 0.0000 0.0000 -4.3522
#
#
#
# Elastic Compliance Matrix: (Units=1/GPa)
#
#
# Indices 1 2 3 4 5 6 
#
# 1 0.010617 -0.006112 -0.001950 0.000000 0.000000 0.000000
# 2 -0.006112 0.015048 -0.001665 0.000000 0.000000 0.000000
# 3 -0.001950 -0.001665 0.005386 0.000000 0.000000 0.000000
# 4 0.000000 0.000000 0.000000 0.070116 0.000000 0.000000
# 5 0.000000 0.000000 0.000000 0.000000 0.024558 0.000000
# 6 0.000000 0.000000 0.000000 0.000000 0.000000 -0.229770
#
#
# Mechanical properties :
#
#
# Convention : Reuss Voigt Hill
#
# Bulk Modulus (GPa) = 86.22300 96.86167 91.54234
# Shear Modulus (GPa) = -61.93757 28.73793 -16.59982
#
# Velocity S-wave (km/s) = -5.38606 3.66878 -2.78834
# Velocity P-wave (km/s) = 1.30563 7.95698 5.70168
#
# Compressibility (1/GPa) = 0.01159783
#
# Stress axis : x y z
#
# Youngs Moduli (GPa) = 94.19183 66.45328 185.67302
#
# Poissons Ratio (x) = 0.40613 0.36201
# Poissons Ratio (y) = 0.57566 0.30916
# Poissons Ratio (z) = 0.18365 0.11065
#
# Static dielectric constant tensor:
#      x y z
#    x 1.793250 0.000000 0.000000 
#    y 0.000000 1.755520 0.000000 
#    z 0.000000 0.000000 1.770200 
# 
# From -- ./inp_files/4453.got.cif
#   From: 2010.05.17/outbox.cif.g08.bks.cpg/sg67_3_cif.got.tgz:4453.got - 2010.06.03 18:28:57.
