data_PCOD9501534
_publ_section_title
;
Structure prediction by ZEFSAII (Michael W. Deem and Ramdas Pophale) SiO2 
 PCOD9501534
Probable space group: C M M A
;
_chemical_formula_sum "Si O2"
_cell_formula_units_Z 116
_cell_length_a 23.702084
_cell_length_b 15.652713
_cell_length_c 18.123534
_cell_angle_alpha 90.000000
_cell_angle_beta 90.000000
_cell_angle_gamma 90.000000
_cell_volume 6723.865881
_symmetry_space_group_name_H-M "C M M A"
_symmetry_group_IT_number 67
_symmetry_cell_setting 'orthorhombic'
loop_
_space_group_symop_operation_xyz
x,y,z
-x,1/2-y,z
x,-y,-z
-x,1/2+y,-z
-x,-y,-z
x,1/2+y,-z
-x,y,z
x,1/2-y,z
1/2+x,1/2+y,z
1/2-x,-y,z
1/2+x,1/2-y,-z
1/2-x,y,-z
1/2-x,1/2-y,-z
1/2+x,y,-z
1/2-x,1/2+y,z
1/2+x,-y,z
loop_
_atom_site_type_symbol
_atom_site_label
_atom_site_fract_x
_atom_site_fract_y
_atom_site_fract_z
Si Si1 0.815525 0.650898 0.642410
Si Si2 0.853309 0.846771 0.187643
Si Si3 0.184475 0.349102 0.642410
Si Si4 0.250000 0.102947 0.914040
Si Si5 0.602649 0.500000 0.615940
Si Si6 0.500000 0.500000 0.500000
Si Si7 0.066515 0.500000 0.212393
Si Si8 0.853309 0.153229 0.187643
O O1 0.826863 0.750000 0.622496
O O2 0.750000 0.632141 0.626295
O O3 0.857919 0.583474 0.606544
O O4 0.825236 0.643226 0.730953
O O5 0.874651 0.750000 0.182773
O O6 0.825237 0.856774 0.269047
O O7 0.804895 0.862535 0.127840
O O8 0.902181 0.916523 0.181064
O O9 0.173137 0.250000 0.622496
O O10 0.142081 0.416526 0.606544
O O11 0.304896 0.137465 0.872160
O O12 0.250000 0.000000 0.907725
O O13 0.250000 0.126080 0.000000
O O14 0.549668 0.500000 0.563270
O O15 0.579882 0.500000 0.700029
O O16 0.097818 0.416523 0.181064
O O17 0.000000 0.500000 0.199718
O O18 0.874651 0.250000 0.182773
#
# Coordination Sequence:
#
# PCOD9501534 Si02
#       8
#    16  16  16  16  16   4  16  16
#     4   9  17  32  57  86 109 134 179 229 278 324
#     4  10  19  32  54  82 112 145 182 229 278 325
#     4   9  17  32  57  86 109 134 179 229 278 324
#     4  11  21  33  53  86 123 155 179 213 280 349
#     4  10  21  36  56  77 109 146 179 222 270 322
#     4  12  24  44  56  76 112 150 194 214 262 348
#     4  10  20  36  56  79 105 141 187 240 276 308
#     4  10  19  32  54  82 112 145 182 229 278 325
#
# _framework density 17.25198
#
# number of rings (size 3 to 8) (size 9 to 14) (size 15 to 20)
#    0.000    2.069    3.448    0.828    0.000    1.655 
#    0.000    3.448    0.000    3.310    0.000    1.931 
#    0.000    0.000    0.000    0.000    0.000    0.000 
#
# Total GULP energy -323162.398118 kJ/mol
# GULP energy per Si atom -5571.765485 kJ/mol
# Density = 1.721271 g / cm^3
# Si number density = 17.251980 Si / 1000 Ang^3
#
#
#
# Elastic Constant Matrix: (Units=GPa)
#
#
# Indices 1 2 3 4 5 6 
#
# 1 182.8521 106.9534 47.4126 0.0000 0.0000 0.0000
# 2 106.9534 134.2512 44.5062 0.0000 0.0000 0.0000
# 3 47.4126 44.5062 54.5507 0.0000 0.0000 0.0000
# 4 0.0000 0.0000 0.0000 -26.8833 0.0000 0.0000
# 5 0.0000 0.0000 0.0000 0.0000 35.0884 0.0000
# 6 0.0000 0.0000 0.0000 0.0000 0.0000 -0.2890
#
#
#
# Elastic Compliance Matrix: (Units=1/GPa)
#
#
# Indices 1 2 3 4 5 6 
#
# 1 0.010632 -0.007411 -0.003194 0.000000 0.000000 0.000000
# 2 -0.007411 0.015377 -0.006104 0.000000 0.000000 0.000000
# 3 -0.003194 -0.006104 0.026088 0.000000 0.000000 0.000000
# 4 0.000000 0.000000 0.000000 -0.037198 0.000000 0.000000
# 5 0.000000 0.000000 0.000000 0.000000 0.028499 0.000000
# 6 0.000000 0.000000 0.000000 0.000000 0.000000 -3.460133
#
#
# Mechanical properties :
#
#
# Convention : Reuss Voigt Hill
#
# Bulk Modulus (GPa) = 53.53949 85.48873 69.51411
# Shear Modulus (GPa) = -1.48056 13.10202 5.81073
#
# Velocity S-wave (km/s) = -0.92740 2.75880 1.83724
# Velocity P-wave (km/s) = 5.47307 7.73360 6.69937
#
# Compressibility (1/GPa) = 0.01867780
#
# Stress axis : x y z
#
# Youngs Moduli (GPa) = 94.05394 65.03395 38.33236
#
# Poissons Ratio (x) = 0.48199 0.12244
# Poissons Ratio (y) = 0.69707 0.23397
# Poissons Ratio (z) = 0.30043 0.39695
#
# Static dielectric constant tensor:
#      x y z
#    x 1.535200 0.000000 0.000000 
#    y 0.000000 1.604360 0.000000 
#    z 0.000000 0.000000 1.570460 
# 
# From -- ./inp_files/35572.got.cif
#   From: 2010.05.17/outbox.cif.g08.bks.cpg/sg67_18_cif.got.tgz:35572.got - 2010.06.03 18:28:57.
