data_PCOD9501120
_publ_section_title
;
Structure prediction by ZEFSAII (Michael W. Deem and Ramdas Pophale) SiO2 
 PCOD9501120
Probable space group: C M M A
;
_chemical_formula_sum "Si O2"
_cell_formula_units_Z 72
_cell_length_a 7.722463
_cell_length_b 25.834145
_cell_length_c 23.124527
_cell_angle_alpha 90.000000
_cell_angle_beta 90.000000
_cell_angle_gamma 90.000000
_cell_volume 4613.417803
_symmetry_space_group_name_H-M "C M M A"
_symmetry_group_IT_number 67
_symmetry_cell_setting 'orthorhombic'
loop_
_space_group_symop_operation_xyz
x,y,z
-x,1/2-y,z
x,-y,-z
-x,1/2+y,-z
-x,-y,-z
x,1/2+y,-z
-x,y,z
x,1/2-y,z
1/2+x,1/2+y,z
1/2-x,-y,z
1/2+x,1/2-y,-z
1/2-x,y,-z
1/2-x,1/2-y,-z
1/2+x,y,-z
1/2-x,1/2+y,z
1/2+x,-y,z
loop_
_atom_site_type_symbol
_atom_site_label
_atom_site_fract_x
_atom_site_fract_y
_atom_site_fract_z
Si Si1 0.500000 0.312651 0.150954
Si Si2 0.304631 0.687064 0.064573
Si Si3 0.202118 0.940448 0.683144
Si Si4 0.500000 0.633069 0.725744
Si Si5 0.298125 0.614399 0.436938
Si Si6 0.500000 0.311160 0.395972
O O1 0.500000 0.250000 0.156279
O O2 0.333157 0.328182 0.112909
O O3 0.500000 0.338099 0.213510
O O4 0.500000 0.670178 0.077014
O O5 0.303409 0.750000 0.063480
O O6 0.250000 0.670471 0.000000
O O7 0.500000 0.068475 0.696655
O O8 0.331397 0.903127 0.717704
O O9 0.228544 0.925754 0.615451
O O10 0.250000 0.000000 0.692627
O O11 0.500000 0.672793 0.671696
O O12 0.500000 0.629738 0.436456
O O13 0.250000 0.593077 0.500000
O O14 0.168711 0.661841 0.424006
O O15 0.500000 0.250000 0.403390
#
# Coordination Sequence:
#
# PCOD9501120 Si02
#       6
#     8  16  16   8  16   8
#     4  10  19  30  48  73 106 144 171 198 237 284
#     4   9  15  25  43  69 101 137 172 202 236 277
#     4  10  20  35  56  75  95 127 158 205 267 308
#     4  10  21  36  51  74 102 129 170 206 242 299
#     4  10  20  34  50  75 102 122 161 208 249 306
#     4  10  21  36  51  67  98 139 170 204 241 281
#
# _framework density 15.606652
#
# number of rings (size 3 to 8) (size 9 to 14) (size 15 to 20)
#    0.000    2.222    3.333    0.333    0.000    2.222 
#    0.000    2.222    0.000    4.000    0.000    0.000 
#    0.000    2.667    0.000    0.000    0.000    0.000 
#
# Total GULP energy -200681.630750 kJ/mol
# GULP energy per Si atom -5574.489743 kJ/mol
# Density = 1.557113 g / cm^3
# Si number density = 15.606652 Si / 1000 Ang^3
#
#
#
# Elastic Constant Matrix: (Units=GPa)
#
#
# Indices 1 2 3 4 5 6 
#
# 1 131.4531 19.7709 53.9540 0.0000 0.0000 0.0000
# 2 19.7709 33.4211 12.4420 0.0000 0.0000 0.0000
# 3 53.9540 12.4420 112.5852 0.0000 0.0000 0.0000
# 4 0.0000 0.0000 0.0000 12.8068 0.0000 0.0000
# 5 0.0000 0.0000 0.0000 0.0000 17.6688 0.0000
# 6 0.0000 0.0000 0.0000 0.0000 0.0000 10.9833
#
#
#
# Elastic Compliance Matrix: (Units=1/GPa)
#
#
# Indices 1 2 3 4 5 6 
#
# 1 0.010035 -0.004324 -0.004331 0.000000 0.000000 0.000000
# 2 -0.004324 0.033068 -0.001582 0.000000 0.000000 0.000000
# 3 -0.004331 -0.001582 0.011133 0.000000 0.000000 0.000000
# 4 0.000000 0.000000 0.000000 0.078083 0.000000 0.000000
# 5 0.000000 0.000000 0.000000 0.000000 0.056597 0.000000
# 6 0.000000 0.000000 0.000000 0.000000 0.000000 0.091047
#
#
# Mechanical properties :
#
#
# Convention : Reuss Voigt Hill
#
# Bulk Modulus (GPa) = 29.62000 49.97701 39.79851
# Shear Modulus (GPa) = 16.04142 21.04462 18.54302
#
# Velocity S-wave (km/s) = 3.20950 3.67609 3.45069
# Velocity P-wave (km/s) = 5.72318 7.07889 6.43683
#
# Compressibility (1/GPa) = 0.03376097
#
# Stress axis : x y z
#
# Youngs Moduli (GPa) = 99.64690 30.24049 89.82520
#
# Poissons Ratio (x) = 0.13077 0.38907
# Poissons Ratio (y) = 0.43089 0.14212
# Poissons Ratio (z) = 0.43161 0.04785
#
# Static dielectric constant tensor:
#      x y z
#    x 1.541370 0.000000 0.000000 
#    y 0.000000 1.479390 0.000000 
#    z 0.000000 0.000000 1.507330 
# 
# From -- ./inp_files/37070.got.cif
#   From: 2010.05.17/outbox.cif.g08.bks.cpg/sg67_19_cif.got.tgz:37070.got - 2010.06.03 18:28:57.
