data_PCOD9501468
_publ_section_title
;
Structure prediction by ZEFSAII (Michael W. Deem and Ramdas Pophale) SiO2 
 PCOD9501468
Probable space group: C M M A
;
_chemical_formula_sum "Si O2"
_cell_formula_units_Z 116
_cell_length_a 9.494744
_cell_length_b 29.240167
_cell_length_c 22.120650
_cell_angle_alpha 90.000000
_cell_angle_beta 90.000000
_cell_angle_gamma 90.000000
_cell_volume 6141.309610
_symmetry_space_group_name_H-M "C M M A"
_symmetry_group_IT_number 67
_symmetry_cell_setting 'orthorhombic'
loop_
_space_group_symop_operation_xyz
x,y,z
-x,1/2-y,z
x,-y,-z
-x,1/2+y,-z
-x,-y,-z
x,1/2+y,-z
-x,y,z
x,1/2-y,z
1/2+x,1/2+y,z
1/2-x,-y,z
1/2+x,1/2-y,-z
1/2-x,y,-z
1/2-x,1/2-y,-z
1/2+x,y,-z
1/2-x,1/2+y,z
1/2+x,-y,z
loop_
_atom_site_type_symbol
_atom_site_label
_atom_site_fract_x
_atom_site_fract_y
_atom_site_fract_z
Si Si1 0.663596 0.830934 0.445250
Si Si2 0.661155 0.920092 0.588948
Si Si3 0.750000 0.500000 0.500000
Si Si4 0.668649 0.451945 0.942056
Si Si5 0.160349 0.887215 0.282697
Si Si6 0.837262 0.390628 0.858248
Si Si7 0.666614 0.197183 0.061805
Si Si8 0.664794 0.798919 0.311370
O O1 0.500000 0.835894 0.460203
O O2 0.750000 0.810007 0.500000
O O3 0.732022 0.880795 0.432589
O O4 0.675686 0.802655 0.383869
O O5 0.500000 0.904205 0.581488
O O6 0.687692 0.922777 0.661972
O O7 0.675914 0.965032 0.547376
O O8 0.500000 0.456629 0.949806
O O9 0.750000 0.500000 0.933488
O O10 0.714574 0.420242 0.887639
O O11 0.750000 0.431311 0.000000
O O12 0.169159 0.900883 0.213022
O O13 0.259298 0.843614 0.288364
O O14 0.000000 0.871522 0.292408
O O15 0.812801 0.338974 0.883491
O O16 0.000000 0.402393 0.877438
O O17 0.500000 0.195999 0.047746
O O18 0.703417 0.250000 0.077842
O O19 0.750000 0.185274 0.000000
O O20 0.500000 0.800951 0.295979
O O21 0.722630 0.750000 0.290566
#
# Coordination Sequence:
#
# PCOD9501468 Si02
#       8
#    16  16   4  16  16  16  16  16
#     4  10  19  32  52  75 104 136 167 211 269 324
#     4  10  21  37  55  79 108 138 175 220 275 335
#     4  12  22  32  60  86 108 132 176 224 278 352
#     4  11  22  38  61  88 118 150 193 242 291 344
#     4   9  20  38  57  78 111 148 185 233 281 334
#     4  10  20  36  58  83 115 154 195 240 292 345
#     4   9  18  32  51  79 115 153 192 235 281 330
#     4   9  19  35  53  75 105 141 181 225 271 323
#
# _framework density 18.888477999999999
#
# number of rings (size 3 to 8) (size 9 to 14) (size 15 to 20)
#    0.000    2.207    0.690    2.690    0.000    4.414 
#    1.241    1.379    0.000    1.655    0.000    0.000 
#    0.000    0.000    0.000    0.000    0.000    0.000 
#
# Total GULP energy -322887.416109 kJ/mol
# GULP energy per Si atom -5567.024416 kJ/mol
# Density = 1.884549 g / cm^3
# Si number density = 18.888478 Si / 1000 Ang^3
#
#
#
# Elastic Constant Matrix: (Units=GPa)
#
#
# Indices 1 2 3 4 5 6 
#
# 1 101.1494 30.4740 34.9940 0.0000 0.0000 0.0000
# 2 30.4740 62.8564 21.6569 0.0000 0.0000 0.0000
# 3 34.9940 21.6569 77.9328 0.0000 0.0000 0.0000
# 4 0.0000 0.0000 0.0000 1.3119 0.0000 0.0000
# 5 0.0000 0.0000 0.0000 0.0000 28.2421 0.0000
# 6 0.0000 0.0000 0.0000 0.0000 0.0000 29.2388
#
#
#
# Elastic Compliance Matrix: (Units=1/GPa)
#
#
# Indices 1 2 3 4 5 6 
#
# 1 0.012843 -0.004689 -0.004464 0.000000 0.000000 0.000000
# 2 -0.004689 0.019305 -0.003260 0.000000 0.000000 0.000000
# 3 -0.004464 -0.003260 0.015742 0.000000 0.000000 0.000000
# 4 0.000000 0.000000 0.000000 0.762275 0.000000 0.000000
# 5 0.000000 0.000000 0.000000 0.000000 0.035408 0.000000
# 6 0.000000 0.000000 0.000000 0.000000 0.000000 0.034201
#
#
# Mechanical properties :
#
#
# Convention : Reuss Voigt Hill
#
# Bulk Modulus (GPa) = 43.35342 46.24315 44.79828
# Shear Modulus (GPa) = 5.48073 22.07946 13.78009
#
# Velocity S-wave (km/s) = 1.70526 3.42268 2.70395
# Velocity P-wave (km/s) = 5.18453 6.33680 5.78940
#
# Compressibility (1/GPa) = 0.02306623
#
# Stress axis : x y z
#
# Youngs Moduli (GPa) = 77.86125 51.79878 63.52494
#
# Poissons Ratio (x) = 0.24287 0.28358
# Poissons Ratio (y) = 0.36506 0.20706
# Poissons Ratio (z) = 0.34758 0.16884
#
# Static dielectric constant tensor:
#      x y z
#    x 1.644110 0.000000 0.000000 
#    y 0.000000 1.677250 0.000000 
#    z 0.000000 0.000000 1.713770 
# 
# From -- ./inp_files/41240.got.cif
#   From: 2010.05.17/outbox.cif.g08.bks.cpg/sg67_21_cif.got.tgz:41240.got - 2010.06.03 18:28:57.
