data_PCOD9501875
_publ_section_title
;
Structure prediction by ZEFSAII (Michael W. Deem and Ramdas Pophale) SiO2 
 PCOD9501875
Probable space group: C M M A
;
_chemical_formula_sum "Si O2"
_cell_formula_units_Z 80
_cell_length_a 18.336697
_cell_length_b 17.978787
_cell_length_c 14.037570
_cell_angle_alpha 90.000000
_cell_angle_beta 90.000000
_cell_angle_gamma 90.000000
_cell_volume 4627.787736
_symmetry_space_group_name_H-M "C M M A"
_symmetry_group_IT_number 67
_symmetry_cell_setting 'orthorhombic'
loop_
_space_group_symop_operation_xyz
x,y,z
-x,1/2-y,z
x,-y,-z
-x,1/2+y,-z
-x,-y,-z
x,1/2+y,-z
-x,y,z
x,1/2-y,z
1/2+x,1/2+y,z
1/2-x,-y,z
1/2+x,1/2-y,-z
1/2-x,y,-z
1/2-x,1/2-y,-z
1/2+x,y,-z
1/2-x,1/2+y,z
1/2+x,-y,z
loop_
_atom_site_type_symbol
_atom_site_label
_atom_site_fract_x
_atom_site_fract_y
_atom_site_fract_z
Si Si1 0.823514 0.663579 0.557846
Si Si2 0.914864 0.603973 0.389944
Si Si3 0.163451 0.979779 0.104300
Si Si4 0.086780 0.663682 0.179893
Si Si5 0.332392 0.030894 0.694481
O O1 0.820341 0.750000 0.582573
O O2 0.750000 0.643433 0.500000
O O3 0.886324 0.646310 0.481996
O O4 0.831577 0.611853 0.649357
O O5 0.900758 0.650442 0.292926
O O6 0.875342 0.525395 0.373999
O O7 0.000000 0.591056 0.397275
O O8 0.139569 0.894930 0.127125
O O9 0.250000 0.000000 0.100866
O O10 0.136399 0.024087 0.198329
O O11 0.133806 0.000000 0.000000
O O12 0.100288 0.750000 0.156332
O O13 0.000000 0.647878 0.162219
O O14 0.250000 0.000000 0.697691
#
# Coordination Sequence:
#
# PCOD9501875 Si02
#       5
#    16  16  16  16  16
#     4  11  22  33  49  76 108 143 176 208 257 313
#     4  10  20  34  55  79 104 138 178 219 261 309
#     4   9  19  36  54  78 109 142 179 222 272 325
#     4   9  18  34  57  83 107 136 180 231 274 311
#     4  10  19  35  54  74 103 141 179 221 258 311
#
# _framework density 17.286877
#
# number of rings (size 3 to 8) (size 9 to 14) (size 15 to 20)
#    0.000    2.200    2.000    1.200    0.000    3.200 
#    0.000    3.000    0.000    0.000    0.000    0.000 
#    0.000    0.000    0.000    0.000    0.000    0.000 
#
# Total GULP energy -222924.228081 kJ/mol
# GULP energy per Si atom -5573.105702 kJ/mol
# Density = 1.724753 g / cm^3
# Si number density = 17.286877 Si / 1000 Ang^3
#
#
#
# Elastic Constant Matrix: (Units=GPa)
#
#
# Indices 1 2 3 4 5 6 
#
# 1 51.8694 32.0579 17.6248 0.0000 0.0000 0.0000
# 2 32.0579 110.0483 57.0290 0.0000 0.0000 0.0000
# 3 17.6248 57.0290 93.2380 0.0000 0.0000 0.0000
# 4 0.0000 0.0000 0.0000 20.3633 0.0000 0.0000
# 5 0.0000 0.0000 0.0000 0.0000 8.6360 0.0000
# 6 0.0000 0.0000 0.0000 0.0000 0.0000 23.3743
#
#
#
# Elastic Compliance Matrix: (Units=1/GPa)
#
#
# Indices 1 2 3 4 5 6 
#
# 1 0.023521 -0.006658 -0.000374 0.000000 0.000000 0.000000
# 2 -0.006658 0.015189 -0.008031 0.000000 0.000000 0.000000
# 3 -0.000374 -0.008031 0.015708 0.000000 0.000000 0.000000
# 4 0.000000 0.000000 0.000000 0.049108 0.000000 0.000000
# 5 0.000000 0.000000 0.000000 0.000000 0.115795 0.000000
# 6 0.000000 0.000000 0.000000 0.000000 0.000000 0.042782
#
#
# Mechanical properties :
#
#
# Convention : Reuss Voigt Hill
#
# Bulk Modulus (GPa) = 41.16696 52.06433 46.61565
# Shear Modulus (GPa) = 16.64851 20.37098 18.50974
#
# Velocity S-wave (km/s) = 3.10671 3.43652 3.27577
# Velocity P-wave (km/s) = 6.06090 6.77713 6.42900
#
# Compressibility (1/GPa) = 0.02429132
#
# Stress axis : x y z
#
# Youngs Moduli (GPa) = 42.51462 65.83891 63.66046
#
# Poissons Ratio (x) = 0.43837 0.02379
# Poissons Ratio (y) = 0.28307 0.51129
# Poissons Ratio (z) = 0.01589 0.52878
#
# Static dielectric constant tensor:
#      x y z
#    x 1.627850 0.000000 0.000000 
#    y 0.000000 1.576580 0.000000 
#    z 0.000000 0.000000 1.612760 
# 
# From -- ./inp_files/28366.got.cif
#   From: 2010.05.17/outbox.cif.g08.bks.cpg/sg67_15_cif.got.tgz:28366.got - 2010.06.03 18:28:57.
