data_PCOD9501171
_publ_section_title
;
Structure prediction by ZEFSAII (Michael W. Deem and Ramdas Pophale) SiO2 
 PCOD9501171
Probable space group: C M M A
;
_chemical_formula_sum "Si O2"
_cell_formula_units_Z 104
_cell_length_a 27.849358
_cell_length_b 8.644884
_cell_length_c 24.493214
_cell_angle_alpha 90.000000
_cell_angle_beta 90.000000
_cell_angle_gamma 90.000000
_cell_volume 5896.850740
_symmetry_space_group_name_H-M "C M M A"
_symmetry_group_IT_number 67
_symmetry_cell_setting 'orthorhombic'
loop_
_space_group_symop_operation_xyz
x,y,z
-x,1/2-y,z
x,-y,-z
-x,1/2+y,-z
-x,-y,-z
x,1/2+y,-z
-x,y,z
x,1/2-y,z
1/2+x,1/2+y,z
1/2-x,-y,z
1/2+x,1/2-y,-z
1/2-x,y,-z
1/2-x,1/2-y,-z
1/2+x,y,-z
1/2-x,1/2+y,z
1/2+x,-y,z
loop_
_atom_site_type_symbol
_atom_site_label
_atom_site_fract_x
_atom_site_fract_y
_atom_site_fract_z
Si Si1 0.893607 0.564897 0.561082
Si Si2 0.500000 0.436585 0.561486
Si Si3 0.353852 0.564243 0.664991
Si Si4 0.105699 0.065814 0.164933
Si Si5 0.946970 0.436648 0.733630
Si Si6 0.055793 0.435420 0.939853
Si Si7 0.801872 0.564250 0.226757
O O1 0.886528 0.500000 0.500000
O O2 0.893413 0.750000 0.558353
O O3 0.854998 0.508279 0.605185
O O4 0.947271 0.512611 0.581603
O O5 0.500000 0.250000 0.562537
O O6 0.500000 0.500000 0.500000
O O7 0.352889 0.750000 0.659717
O O8 0.404048 0.517411 0.693775
O O9 0.314625 0.518745 0.710389
O O10 0.107764 0.250000 0.164923
O O11 0.065582 0.007424 0.207805
O O12 0.090565 0.003617 0.105955
O O13 0.155801 0.999154 0.188172
O O14 0.945556 0.250000 0.738338
O O15 0.000000 0.483188 0.714952
O O16 0.059039 0.250000 0.939973
O O17 0.000000 0.477642 0.927520
O O18 0.066644 0.500000 0.000000
O O19 0.802788 0.750000 0.224240
O O20 0.750000 0.500000 0.211691
#
# Coordination Sequence:
#
# PCOD9501171 Si02
#       7
#    16   8  16  16  16  16  16
#     4  10  19  31  47  67  96 132 171 211 252 302
#     4   8  16  28  40  60  88 124 166 204 237 278
#     4   9  19  33  50  74 101 130 165 207 258 315
#     4  11  21  33  52  79 109 142 181 221 264 314
#     4   9  18  32  48  69 101 140 176 214 262 311
#     4  10  20  34  53  79 114 155 194 230 266 306
#     4  10  21  39  61  82 105 132 169 217 271 325
#
# _framework density 17.636531000000002
#
# number of rings (size 3 to 8) (size 9 to 14) (size 15 to 20)
#    0.000    2.308    0.000    4.154    1.077    6.769 
#    0.000    0.000    0.000    0.923    0.000    6.462 
#    0.000    0.000    0.000    0.000    0.000    0.000 
#
# Total GULP energy -289985.504946 kJ/mol
# GULP energy per Si atom -5576.644326 kJ/mol
# Density = 1.759639 g / cm^3
# Si number density = 17.636531 Si / 1000 Ang^3
#
#
#
# Elastic Constant Matrix: (Units=GPa)
#
#
# Indices 1 2 3 4 5 6 
#
# 1 64.6351 13.2426 27.8161 0.0000 0.0000 0.0000
# 2 13.2426 20.3661 18.0326 0.0000 0.0000 0.0000
# 3 27.8161 18.0326 102.8446 0.0000 0.0000 0.0000
# 4 0.0000 0.0000 0.0000 28.8614 0.0000 0.0000
# 5 0.0000 0.0000 0.0000 0.0000 19.0831 0.0000
# 6 0.0000 0.0000 0.0000 0.0000 0.0000 17.4245
#
#
#
# Elastic Compliance Matrix: (Units=1/GPa)
#
#
# Indices 1 2 3 4 5 6 
#
# 1 0.018852 -0.009167 -0.003492 0.000000 0.000000 0.000000
# 2 -0.009167 0.062582 -0.008494 0.000000 0.000000 0.000000
# 3 -0.003492 -0.008494 0.012157 0.000000 0.000000 0.000000
# 4 0.000000 0.000000 0.000000 0.034648 0.000000 0.000000
# 5 0.000000 0.000000 0.000000 0.000000 0.052402 0.000000
# 6 0.000000 0.000000 0.000000 0.000000 0.000000 0.057391
#
#
# Mechanical properties :
#
#
# Convention : Reuss Voigt Hill
#
# Bulk Modulus (GPa) = 19.49802 34.00315 26.75059
# Shear Modulus (GPa) = 16.81053 21.65742 19.23398
#
# Velocity S-wave (km/s) = 3.09069 3.50807 3.30597
# Velocity P-wave (km/s) = 4.88016 5.97750 5.45648
#
# Compressibility (1/GPa) = 0.05128725
#
# Stress axis : x y z
#
# Youngs Moduli (GPa) = 53.04422 15.97903 82.25676
#
# Poissons Ratio (x) = 0.14647 0.28721
# Poissons Ratio (y) = 0.48624 0.69867
# Poissons Ratio (z) = 0.18521 0.13572
#
# Static dielectric constant tensor:
#      x y z
#    x 1.611120 0.000000 0.000000 
#    y 0.000000 1.587560 0.000000 
#    z 0.000000 0.000000 1.594990 
# 
# From -- ./inp_files/40235.got.cif
#   From: 2010.05.17/outbox.cif.g08.bks.cpg/sg67_21_cif.got.tgz:40235.got - 2010.06.03 18:28:57.
