data_PCOD9501126
_publ_section_title
;
Structure prediction by ZEFSAII (Michael W. Deem and Ramdas Pophale) SiO2 
 PCOD9501126
Probable space group: C M M A
;
_chemical_formula_sum "Si O2"
_cell_formula_units_Z 104
_cell_length_a 15.354558
_cell_length_b 15.998961
_cell_length_c 19.529627
_cell_angle_alpha 90.000000
_cell_angle_beta 90.000000
_cell_angle_gamma 90.000000
_cell_volume 4797.589084
_symmetry_space_group_name_H-M "C M M A"
_symmetry_group_IT_number 67
_symmetry_cell_setting 'orthorhombic'
loop_
_space_group_symop_operation_xyz
x,y,z
-x,1/2-y,z
x,-y,-z
-x,1/2+y,-z
-x,-y,-z
x,1/2+y,-z
-x,y,z
x,1/2-y,z
1/2+x,1/2+y,z
1/2-x,-y,z
1/2+x,1/2-y,-z
1/2-x,y,-z
1/2-x,1/2-y,-z
1/2+x,y,-z
1/2-x,1/2+y,z
1/2+x,-y,z
loop_
_atom_site_type_symbol
_atom_site_label
_atom_site_fract_x
_atom_site_fract_y
_atom_site_fract_z
Si Si1 0.649254 0.148469 0.478775
Si Si2 0.264870 0.655187 0.924737
Si Si3 0.132199 0.657951 0.682339
Si Si4 0.000000 0.587830 0.582246
Si Si5 0.659111 0.847741 0.677010
Si Si6 0.157105 0.454164 0.807769
Si Si7 0.593609 0.628545 0.160649
O O1 0.640311 0.250000 0.485591
O O2 0.750000 0.129243 0.500000
O O3 0.577515 0.103408 0.524669
O O4 0.631471 0.127074 0.399265
O O5 0.296860 0.750000 0.933131
O O6 0.325209 0.605442 0.872218
O O7 0.171709 0.655825 0.887312
O O8 0.250000 0.617590 0.000000
O O9 0.108034 0.750000 0.652565
O O10 0.235273 0.647861 0.675515
O O11 0.110168 0.658945 0.762139
O O12 0.075994 0.590849 0.642615
O O13 0.636229 0.750000 0.687943
O O14 0.629284 0.903734 0.740496
O O15 0.250000 0.500000 0.791689
O O16 0.096668 0.528787 0.831362
O O17 0.500000 0.655978 0.135762
#
# Coordination Sequence:
#
# PCOD9501126 Si02
#       7
#    16  16  16   8  16  16  16
#     4  10  19  30  48  76 110 150 196 252 319 377
#     4  10  21  39  65  95 123 152 194 247 300 355
#     4  11  19  30  57  90 116 148 195 261 319 358
#     4  12  21  32  52  85 124 152 195 270 335 369
#     4  10  19  34  56  81 110 151 206 256 299 365
#     4  10  20  36  59  84 116 161 199 236 289 363
#     4  11  23  37  59  93 127 160 198 244 301 364
#
# _framework density 21.677555999999999
#
# number of rings (size 3 to 8) (size 9 to 14) (size 15 to 20)
#    0.000    1.538    5.385    2.308    0.000    3.692 
#    1.385    1.538    0.000    6.462    0.000    0.000 
#    0.000    0.000    0.000    0.000    0.000    0.000 
#
# Total GULP energy -289622.254647 kJ/mol
# GULP energy per Si atom -5569.658743 kJ/mol
# Density = 2.162822 g / cm^3
# Si number density = 21.677556 Si / 1000 Ang^3
#
#
#
# Elastic Constant Matrix: (Units=GPa)
#
#
# Indices 1 2 3 4 5 6 
#
# 1 60.8135 -0.6520 2.4374 0.0000 0.0000 0.0000
# 2 -0.6520 63.7851 37.5926 0.0000 0.0000 0.0000
# 3 2.4374 37.5926 158.3928 0.0000 0.0000 0.0000
# 4 0.0000 0.0000 0.0000 57.1190 0.0000 0.0000
# 5 0.0000 0.0000 0.0000 0.0000 165.4255 0.0000
# 6 0.0000 0.0000 0.0000 0.0000 0.0000 -30.6619
#
#
#
# Elastic Compliance Matrix: (Units=1/GPa)
#
#
# Indices 1 2 3 4 5 6 
#
# 1 0.016461 0.000369 -0.000341 0.000000 0.000000 0.000000
# 2 0.000369 0.018236 -0.004334 0.000000 0.000000 0.000000
# 3 -0.000341 -0.004334 0.007347 0.000000 0.000000 0.000000
# 4 0.000000 0.000000 0.000000 0.017507 0.000000 0.000000
# 5 0.000000 0.000000 0.000000 0.000000 0.006045 0.000000
# 6 0.000000 0.000000 0.000000 0.000000 0.000000 -0.032614
#
#
# Mechanical properties :
#
#
# Convention : Reuss Voigt Hill
#
# Bulk Modulus (GPa) = 29.91033 40.19414 35.05224
# Shear Modulus (GPa) = 94.80851 54.61741 74.71296
#
# Velocity S-wave (km/s) = 6.62048 5.02494 5.87711
# Velocity P-wave (km/s) = 8.50110 7.22834 7.89042
#
# Compressibility (1/GPa) = 0.03343327
#
# Stress axis : x y z
#
# Youngs Moduli (GPa) = 60.74835 54.83807 136.10624
#
# Poissons Ratio (x) = -0.02025 0.04640
# Poissons Ratio (y) = -0.02243 0.58984
# Poissons Ratio (z) = 0.02071 0.23765
#
# Static dielectric constant tensor:
#      x y z
#    x 1.959500 0.000000 0.000000 
#    y 0.000000 1.879660 0.000000 
#    z 0.000000 0.000000 1.773530 
# 
# From -- ./inp_files/34296.got.cif
#   From: 2010.05.17/outbox.cif.g08.bks.cpg/sg67_18_cif.got.tgz:34296.got - 2010.06.03 18:28:57.
