data_PCOD9501509
_publ_section_title
;
Structure prediction by ZEFSAII (Michael W. Deem and Ramdas Pophale) SiO2 
 PCOD9501509
Probable space group: C M M A
;
_chemical_formula_sum "Si O2"
_cell_formula_units_Z 80
_cell_length_a 25.726456
_cell_length_b 18.314937
_cell_length_c 8.748567
_cell_angle_alpha 90.000000
_cell_angle_beta 90.000000
_cell_angle_gamma 90.000000
_cell_volume 4122.135984
_symmetry_space_group_name_H-M "C M M A"
_symmetry_group_IT_number 67
_symmetry_cell_setting 'orthorhombic'
loop_
_space_group_symop_operation_xyz
x,y,z
-x,1/2-y,z
x,-y,-z
-x,1/2+y,-z
-x,-y,-z
x,1/2+y,-z
-x,y,z
x,1/2-y,z
1/2+x,1/2+y,z
1/2-x,-y,z
1/2+x,1/2-y,-z
1/2-x,y,-z
1/2-x,1/2-y,-z
1/2+x,y,-z
1/2-x,1/2+y,z
1/2+x,-y,z
loop_
_atom_site_type_symbol
_atom_site_label
_atom_site_fract_x
_atom_site_fract_y
_atom_site_fract_z
Si Si1 0.124788 0.165056 0.545856
Si Si2 0.282232 0.396815 0.644341
Si Si3 0.439314 0.837917 0.270987
Si Si4 0.813408 0.836839 0.169880
Si Si5 0.646997 0.069619 0.899573
O O1 0.115881 0.250000 0.573056
O O2 0.174249 0.154592 0.433458
O O3 0.076667 0.138696 0.444224
O O4 0.142272 0.135176 0.709902
O O5 0.250000 0.425910 0.500000
O O6 0.240906 0.354319 0.747945
O O7 0.315259 0.449332 0.755754
O O8 0.500000 0.849457 0.242370
O O9 0.428937 0.750000 0.256439
O O10 0.402075 0.884772 0.161930
O O11 0.817989 0.750000 0.149201
O O12 0.820650 0.877916 0.011908
O O13 0.632565 0.000000 0.000000
#
# Coordination Sequence:
#
# PCOD9501509 Si02
#       5
#    16  16  16  16  16
#     4   8  15  30  52  79 105 131 174 227 275 326
#     4   9  18  33  52  73 103 144 185 222 265 324
#     4   9  18  36  61  82 103 139 185 230 277 331
#     4  10  19  32  53  79 107 139 176 224 277 325
#     4  11  23  36  51  77 114 148 182 224 275 329
#
# _framework density 19.407415
#
# number of rings (size 3 to 8) (size 9 to 14) (size 15 to 20)
#    0.000    2.600    0.000    1.800    0.000    7.600 
#    0.000   13.000    0.000    4.800    0.000    0.000 
#    0.000    0.000    0.000    0.000    0.000    0.000 
#
# Total GULP energy -222870.572038 kJ/mol
# GULP energy per Si atom -5571.764301 kJ/mol
# Density = 1.936324 g / cm^3
# Si number density = 19.407415 Si / 1000 Ang^3
#
#
#
# Elastic Constant Matrix: (Units=GPa)
#
#
# Indices 1 2 3 4 5 6 
#
# 1 90.9336 31.2795 49.9302 0.0000 0.0000 0.0000
# 2 31.2795 57.2555 30.2519 0.0000 0.0000 0.0000
# 3 49.9302 30.2519 114.6722 0.0000 0.0000 0.0000
# 4 0.0000 0.0000 0.0000 -53.0943 0.0000 0.0000
# 5 0.0000 0.0000 0.0000 0.0000 21.4157 0.0000
# 6 0.0000 0.0000 0.0000 0.0000 0.0000 3.8407
#
#
#
# Elastic Compliance Matrix: (Units=1/GPa)
#
#
# Indices 1 2 3 4 5 6 
#
# 1 0.015990 -0.005876 -0.005412 0.000000 0.000000 0.000000
# 2 -0.005876 0.022454 -0.003365 0.000000 0.000000 0.000000
# 3 -0.005412 -0.003365 0.011965 0.000000 0.000000 0.000000
# 4 0.000000 0.000000 0.000000 -0.018834 0.000000 0.000000
# 5 0.000000 0.000000 0.000000 0.000000 0.046695 0.000000
# 6 0.000000 0.000000 0.000000 0.000000 0.000000 0.260370
#
#
# Mechanical properties :
#
#
# Convention : Reuss Voigt Hill
#
# Bulk Modulus (GPa) = 47.38864 53.97607 50.68235
# Shear Modulus (GPa) = 13.33407 4.52575 8.92991
#
# Velocity S-wave (km/s) = 2.62403 1.52874 2.14739
# Velocity P-wave (km/s) = 5.80099 5.56673 5.68507
#
# Compressibility (1/GPa) = 0.02110211
#
# Stress axis : x y z
#
# Youngs Moduli (GPa) = 62.53910 44.53615 83.57851
#
# Poissons Ratio (x) = 0.26169 0.45234
# Poissons Ratio (y) = 0.36748 0.28125
# Poissons Ratio (z) = 0.33847 0.14987
#
# Static dielectric constant tensor:
#      x y z
#    x 1.672610 0.000000 0.000000 
#    y 0.000000 1.675260 0.000000 
#    z 0.000000 0.000000 1.718220 
# 
# From -- ./inp_files/13511.got.cif
#   From: 2010.05.17/outbox.cif.g08.bks.cpg/sg67_7_cif.got.tgz:13511.got - 2010.06.03 18:28:57.
