data_PCOD9501192
_publ_section_title
;
Structure prediction by ZEFSAII (Michael W. Deem and Ramdas Pophale) SiO2 
 PCOD9501192
Probable space group: C M M A
;
_chemical_formula_sum "Si O2"
_cell_formula_units_Z 80
_cell_length_a 28.355954
_cell_length_b 10.569170
_cell_length_c 18.821795
_cell_angle_alpha 90.000000
_cell_angle_beta 90.000000
_cell_angle_gamma 90.000000
_cell_volume 5640.871226
_symmetry_space_group_name_H-M "C M M A"
_symmetry_group_IT_number 67
_symmetry_cell_setting 'orthorhombic'
loop_
_space_group_symop_operation_xyz
x,y,z
-x,1/2-y,z
x,-y,-z
-x,1/2+y,-z
-x,-y,-z
x,1/2+y,-z
-x,y,z
x,1/2-y,z
1/2+x,1/2+y,z
1/2-x,-y,z
1/2+x,1/2-y,-z
1/2-x,y,-z
1/2-x,1/2-y,-z
1/2+x,y,-z
1/2-x,1/2+y,z
1/2+x,-y,z
loop_
_atom_site_type_symbol
_atom_site_label
_atom_site_fract_x
_atom_site_fract_y
_atom_site_fract_z
Si Si1 0.057482 0.750000 0.937691
Si Si2 0.638246 0.496785 0.585662
Si Si3 0.057275 0.019379 0.162074
Si Si4 0.944289 0.401204 0.321929
Si Si5 0.806345 0.250000 0.586915
Si Si6 0.557538 0.750000 0.897691
Si Si7 0.198277 0.750000 0.585548
O O1 0.072651 0.874754 0.894652
O O2 0.000000 0.750000 0.937537
O O3 0.072021 0.750000 0.019704
O O4 0.632981 0.500000 0.500000
O O5 0.588287 0.475581 0.623058
O O6 0.664930 0.624869 0.607225
O O7 0.670522 0.376548 0.606090
O O8 0.069775 0.060309 0.241773
O O9 0.000000 0.019431 0.159834
O O10 0.073036 0.879059 0.140486
O O11 0.938055 0.250000 0.330683
O O12 0.000000 0.428340 0.330884
O O13 0.802326 0.250000 0.500742
O O14 0.752126 0.250000 0.611538
O O15 0.500000 0.750000 0.896794
#
# Coordination Sequence:
#
# PCOD9501192 Si02
#       7
#     8  16  16  16   8   8   8
#     4   9  14  23  38  56  77 104 140 178 217 260
#     4  10  19  31  48  68  87 111 148 187 221 262
#     4   9  16  26  39  56  78 109 147 180 215 258
#     4  10  19  32  47  59  82 123 162 190 217 258
#     4   9  18  29  47  71  91 104 131 179 230 277
#     4   9  16  23  36  58  81 100 132 188 229 250
#     4   9  16  31  49  67  89 112 131 167 228 287
#
# _framework density 14.182207
#
# number of rings (size 3 to 8) (size 9 to 14) (size 15 to 20)
#    0.000    2.600    2.000    1.200    0.000    6.000 
#    0.000    1.500    0.000    0.000    0.000    0.000 
#    0.000    0.000    0.000    0.000    0.000   70.000 
#
# Total GULP energy -222755.974284 kJ/mol
# GULP energy per Si atom -5568.899357 kJ/mol
# Density = 1.414993 g / cm^3
# Si number density = 14.182207 Si / 1000 Ang^3
#
#
#
# Elastic Constant Matrix: (Units=GPa)
#
#
# Indices 1 2 3 4 5 6 
#
# 1 62.9198 42.3117 32.7534 0.0000 0.0000 0.0000
# 2 42.3117 120.3007 30.4099 0.0000 0.0000 0.0000
# 3 32.7534 30.4099 44.0629 0.0000 0.0000 0.0000
# 4 0.0000 0.0000 0.0000 17.5076 0.0000 0.0000
# 5 0.0000 0.0000 0.0000 0.0000 -0.9597 0.0000
# 6 0.0000 0.0000 0.0000 0.0000 0.0000 16.7516
#
#
#
# Elastic Compliance Matrix: (Units=1/GPa)
#
#
# Indices 1 2 3 4 5 6 
#
# 1 0.028850 -0.005725 -0.017494 0.000000 0.000000 0.000000
# 2 -0.005725 0.011205 -0.003478 0.000000 0.000000 0.000000
# 3 -0.017494 -0.003478 0.038099 0.000000 0.000000 0.000000
# 4 0.000000 0.000000 0.000000 0.057118 0.000000 0.000000
# 5 0.000000 0.000000 0.000000 0.000000 -1.041966 0.000000
# 6 0.000000 0.000000 0.000000 0.000000 0.000000 0.059696
#
#
# Mechanical properties :
#
#
# Convention : Reuss Voigt Hill
#
# Bulk Modulus (GPa) = 40.38672 48.69260 44.53966
# Shear Modulus (GPa) = -6.36657 14.78043 4.20693
#
# Velocity S-wave (km/s) = -2.12105 3.23179 1.72418
# Velocity P-wave (km/s) = 4.74767 6.95227 5.95291
#
# Compressibility (1/GPa) = 0.02476062
#
# Stress axis : x y z
#
# Youngs Moduli (GPa) = 34.66256 89.24499 26.24749
#
# Poissons Ratio (x) = 0.51090 0.45917
# Poissons Ratio (y) = 0.19843 0.09128
# Poissons Ratio (z) = 0.60639 0.31038
#
# Static dielectric constant tensor:
#      x y z
#    x 1.443640 0.000000 0.000000 
#    y 0.000000 1.479360 0.000000 
#    z 0.000000 0.000000 1.456880 
# 
# From -- ./inp_files/35424.got.cif
#   From: 2010.05.17/outbox.cif.g08.bks.cpg/sg67_18_cif.got.tgz:35424.got - 2010.06.03 18:28:57.
