data_PCOD9501284
_publ_section_title
;
Structure prediction by ZEFSAII (Michael W. Deem and Ramdas Pophale) SiO2 
 PCOD9501284
Probable space group: C M M A
;
_chemical_formula_sum "Si O2"
_cell_formula_units_Z 80
_cell_length_a 18.464929
_cell_length_b 20.554397
_cell_length_c 10.385933
_cell_angle_alpha 90.000000
_cell_angle_beta 90.000000
_cell_angle_gamma 90.000000
_cell_volume 3941.830079
_symmetry_space_group_name_H-M "C M M A"
_symmetry_group_IT_number 67
_symmetry_cell_setting 'orthorhombic'
loop_
_space_group_symop_operation_xyz
x,y,z
-x,1/2-y,z
x,-y,-z
-x,1/2+y,-z
-x,-y,-z
x,1/2+y,-z
-x,y,z
x,1/2-y,z
1/2+x,1/2+y,z
1/2-x,-y,z
1/2+x,1/2-y,-z
1/2-x,y,-z
1/2-x,1/2-y,-z
1/2+x,y,-z
1/2-x,1/2+y,z
1/2+x,-y,z
loop_
_atom_site_type_symbol
_atom_site_label
_atom_site_fract_x
_atom_site_fract_y
_atom_site_fract_z
Si Si1 0.159759 0.109953 0.704561
Si Si2 0.219686 0.573414 0.872265
Si Si3 0.583563 0.883572 0.436120
Si Si4 0.918205 0.017450 0.205377
Si Si5 0.347593 0.250000 0.619109
Si Si6 0.316120 0.250000 0.311289
O O1 0.244353 0.099862 0.741566
O O2 0.137192 0.104945 0.555837
O O3 0.148172 0.184746 0.742538
O O4 0.114667 0.054488 0.777539
O O5 0.250000 0.500000 0.873071
O O6 0.134519 0.562872 0.877927
O O7 0.250000 0.607486 0.000000
O O8 0.500000 0.875316 0.482041
O O9 0.584442 0.945790 0.343121
O O10 0.607980 0.817155 0.363733
O O11 0.000000 0.015205 0.160268
O O12 0.330115 0.250000 0.465575
O O13 0.271692 0.250000 0.696337
#
# Coordination Sequence:
#
# PCOD9501284 Si02
#       6
#    16  16  16  16   8   8
#     4  10  19  33  52  75 107 141 175 220 261 309
#     4   9  19  36  54  74 101 133 175 222 263 309
#     4  10  19  31  50  79 111 140 172 213 266 321
#     4  10  20  34  54  80 108 137 172 216 269 320
#     4   9  17  30  46  70 105 143 176 209 252 312
#     4   9  18  30  47  72 100 138 184 214 253 311
#
# _framework density 20.295141000000001
#
# number of rings (size 3 to 8) (size 9 to 14) (size 15 to 20)
#    0.000    2.400    0.000    2.700    0.000    4.000 
#    0.000   18.000    0.000    0.000    0.000    0.000 
#    0.000    0.000    0.000    0.000    0.000    0.000 
#
# Total GULP energy -222774.294366 kJ/mol
# GULP energy per Si atom -5569.357359 kJ/mol
# Density = 2.024895 g / cm^3
# Si number density = 20.295141 Si / 1000 Ang^3
#
#
#
# Elastic Constant Matrix: (Units=GPa)
#
#
# Indices 1 2 3 4 5 6 
#
# 1 134.1116 44.7061 32.5336 0.0000 0.0000 0.0000
# 2 44.7061 111.5083 20.0645 0.0000 0.0000 0.0000
# 3 32.5336 20.0645 46.5706 0.0000 0.0000 0.0000
# 4 0.0000 0.0000 0.0000 1.7558 0.0000 0.0000
# 5 0.0000 0.0000 0.0000 0.0000 10.4119 0.0000
# 6 0.0000 0.0000 0.0000 0.0000 0.0000 22.4580
#
#
#
# Elastic Compliance Matrix: (Units=1/GPa)
#
#
# Indices 1 2 3 4 5 6 
#
# 1 0.009782 -0.002918 -0.005576 0.000000 0.000000 0.000000
# 2 -0.002918 0.010592 -0.002525 0.000000 0.000000 0.000000
# 3 -0.005576 -0.002525 0.026456 0.000000 0.000000 0.000000
# 4 0.000000 0.000000 0.000000 0.569547 0.000000 0.000000
# 5 0.000000 0.000000 0.000000 0.000000 0.096044 0.000000
# 6 0.000000 0.000000 0.000000 0.000000 0.000000 0.044527
#
#
# Mechanical properties :
#
#
# Convention : Reuss Voigt Hill
#
# Bulk Modulus (GPa) = 40.33652 54.08878 47.21265
# Shear Modulus (GPa) = 6.35122 19.91757 13.13439
#
# Velocity S-wave (km/s) = 1.77094 3.13612 2.54671
# Velocity P-wave (km/s) = 4.90915 6.31052 5.65342
#
# Compressibility (1/GPa) = 0.02479143
#
# Stress axis : x y z
#
# Youngs Moduli (GPa) = 102.22790 94.40800 37.79856
#
# Poissons Ratio (x) = 0.27553 0.21077
# Poissons Ratio (y) = 0.29835 0.09543
# Poissons Ratio (z) = 0.57005 0.23836
#
# Static dielectric constant tensor:
#      x y z
#    x 1.774530 0.000000 0.000000 
#    y 0.000000 1.739960 0.000000 
#    z 0.000000 0.000000 1.791220 
# 
# From -- ./inp_files/19340.got.cif
#   From: 2010.05.17/outbox.cif.g08.bks.cpg/sg67_10_cif.got.tgz:19340.got - 2010.06.03 18:28:57.
