data_PCOD9501137
_publ_section_title
;
Structure prediction by ZEFSAII (Michael W. Deem and Ramdas Pophale) SiO2 
 PCOD9501137
Probable space group: C M M A
;
_chemical_formula_sum "Si O2"
_cell_formula_units_Z 88
_cell_length_a 25.212009
_cell_length_b 10.951026
_cell_length_c 17.670148
_cell_angle_alpha 90.000000
_cell_angle_beta 90.000000
_cell_angle_gamma 90.000000
_cell_volume 4878.681321
_symmetry_space_group_name_H-M "C M M A"
_symmetry_group_IT_number 67
_symmetry_cell_setting 'orthorhombic'
loop_
_space_group_symop_operation_xyz
x,y,z
-x,1/2-y,z
x,-y,-z
-x,1/2+y,-z
-x,-y,-z
x,1/2+y,-z
-x,y,z
x,1/2-y,z
1/2+x,1/2+y,z
1/2-x,-y,z
1/2+x,1/2-y,-z
1/2-x,y,-z
1/2-x,1/2-y,-z
1/2+x,y,-z
1/2-x,1/2+y,z
1/2+x,-y,z
loop_
_atom_site_type_symbol
_atom_site_label
_atom_site_fract_x
_atom_site_fract_y
_atom_site_fract_z
Si Si1 0.395219 0.112825 0.721586
Si Si2 0.281372 0.384786 0.132011
Si Si3 0.730871 0.879854 0.300211
Si Si4 0.597097 0.111791 0.169731
Si Si5 0.000000 0.615331 0.053991
Si Si6 0.935944 0.386540 0.449388
O O1 0.410610 0.250000 0.749087
O O2 0.331237 0.110493 0.718108
O O3 0.416789 0.099772 0.636719
O O4 0.412455 0.998773 0.772359
O O5 0.269794 0.250000 0.099455
O O6 0.250000 0.500000 0.098458
O O7 0.262362 0.378658 0.220171
O O8 0.344412 0.404862 0.133809
O O9 0.740581 0.750000 0.338598
O O10 0.750000 0.000000 0.342736
O O11 0.596809 0.250000 0.203843
O O12 0.551707 0.109220 0.106966
O O13 0.000000 0.750000 0.016179
O O14 0.000000 0.500000 0.000000
O O15 0.917091 0.500000 0.500000
O O16 0.919474 0.250000 0.475695
O O17 0.000000 0.388723 0.449702
#
# Coordination Sequence:
#
# PCOD9501137 Si02
#       6
#    16  16  16  16   8  16
#     4  10  19  30  49  80 109 133 171 222 268 319
#     4   9  15  26  46  75 107 135 165 208 262 313
#     4   9  15  25  42  69 104 134 162 202 259 314
#     4  10  20  34  54  81 110 138 175 222 265 311
#     4  10  24  44  60  78 109 148 183 218 263 316
#     4   9  19  35  51  69  99 139 180 224 271 316
#
# _framework density 18.037659999999999
#
# number of rings (size 3 to 8) (size 9 to 14) (size 15 to 20)
#    0.000    2.545    3.636    0.000    1.273    1.455 
#    0.000    0.000    0.000    1.091    0.000    7.636 
#    0.000    0.000    0.000    0.000    0.000    0.000 
#
# Total GULP energy -244943.068618 kJ/mol
# GULP energy per Si atom -5566.887923 kJ/mol
# Density = 1.799661 g / cm^3
# Si number density = 18.037660 Si / 1000 Ang^3
#
#
#
# Elastic Constant Matrix: (Units=GPa)
#
#
# Indices 1 2 3 4 5 6 
#
# 1 44.6073 41.5047 21.7013 0.0000 0.0000 0.0000
# 2 41.5047 230.4999 58.7253 0.0000 0.0000 0.0000
# 3 21.7013 58.7253 30.2134 0.0000 0.0000 0.0000
# 4 0.0000 0.0000 0.0000 24.9675 0.0000 0.0000
# 5 0.0000 0.0000 0.0000 0.0000 410.3458 0.0000
# 6 0.0000 0.0000 0.0000 0.0000 0.0000 17.5226
#
#
#
# Elastic Compliance Matrix: (Units=1/GPa)
#
#
# Indices 1 2 3 4 5 6 
#
# 1 0.034464 0.000200 -0.025143 0.000000 0.000000 0.000000
# 2 0.000200 0.008595 -0.016851 0.000000 0.000000 0.000000
# 3 -0.025143 -0.016851 0.083910 0.000000 0.000000 0.000000
# 4 0.000000 0.000000 0.000000 0.040052 0.000000 0.000000
# 5 0.000000 0.000000 0.000000 0.000000 0.002437 0.000000
# 6 0.000000 0.000000 0.000000 0.000000 0.000000 0.057069
#
#
# Mechanical properties :
#
#
# Convention : Reuss Voigt Hill
#
# Bulk Modulus (GPa) = 23.05124 61.02033 42.03579
# Shear Modulus (GPa) = 15.40478 102.79313 59.09896
#
# Velocity S-wave (km/s) = 2.92556 7.55723 5.73021
# Velocity P-wave (km/s) = 4.92129 10.49056 8.19363
#
# Compressibility (1/GPa) = 0.04338161
#
# Stress axis : x y z
#
# Youngs Moduli (GPa) = 29.01609 116.34076 11.91759
#
# Poissons Ratio (x) = -0.02328 0.29965
# Poissons Ratio (y) = -0.00581 0.20082
# Poissons Ratio (z) = 0.72955 1.96041
#
# Static dielectric constant tensor:
#      x y z
#    x 1.605130 0.000000 0.000000 
#    y 0.000000 1.718580 0.000000 
#    z 0.000000 0.000000 1.564520 
# 
# From -- ./inp_files/29931.got.cif
#   From: 2010.05.17/outbox.cif.g08.bks.cpg/sg67_15_cif.got.tgz:29931.got - 2010.06.03 18:28:57.
