data_PCOD9501470
_publ_section_title
;
Structure prediction by ZEFSAII (Michael W. Deem and Ramdas Pophale) SiO2 
 PCOD9501470
Probable space group: C M M A
;
_chemical_formula_sum "Si O2"
_cell_formula_units_Z 80
_cell_length_a 28.612655
_cell_length_b 16.794656
_cell_length_c 9.449448
_cell_angle_alpha 90.000000
_cell_angle_beta 90.000000
_cell_angle_gamma 90.000000
_cell_volume 4540.834888
_symmetry_space_group_name_H-M "C M M A"
_symmetry_group_IT_number 67
_symmetry_cell_setting 'orthorhombic'
loop_
_space_group_symop_operation_xyz
x,y,z
-x,1/2-y,z
x,-y,-z
-x,1/2+y,-z
-x,-y,-z
x,1/2+y,-z
-x,y,z
x,1/2-y,z
1/2+x,1/2+y,z
1/2-x,-y,z
1/2+x,1/2-y,-z
1/2-x,y,-z
1/2-x,1/2-y,-z
1/2+x,y,-z
1/2-x,1/2+y,z
1/2+x,-y,z
loop_
_atom_site_type_symbol
_atom_site_label
_atom_site_fract_x
_atom_site_fract_y
_atom_site_fract_z
Si Si1 0.554274 0.417753 0.750506
Si Si2 0.634492 0.658607 0.412654
Si Si3 0.697938 0.979846 0.331870
Si Si4 0.611179 0.576938 0.712474
Si Si5 0.053462 0.342402 0.948659
O O1 0.500000 0.410195 0.712182
O O2 0.587677 0.353349 0.678197
O O3 0.574668 0.503393 0.704570
O O4 0.558349 0.401400 0.918274
O O5 0.647321 0.750000 0.429468
O O6 0.675902 0.608660 0.335955
O O7 0.621000 0.619794 0.563717
O O8 0.697396 0.000000 0.500000
O O9 0.750000 0.000000 0.281880
O O10 0.660381 0.034817 0.252274
O O11 0.590407 0.635639 0.828702
O O12 0.058406 0.250000 0.993274
O O13 0.000000 0.351773 0.894525
#
# Coordination Sequence:
#
# PCOD9501470 Si02
#       5
#    16  16  16  16  16
#     4  10  20  34  51  70  98 141 179 201 238 302
#     4  10  20  33  51  77 105 130 163 210 255 292
#     4   8  16  33  53  73  99 129 164 202 246 303
#     4  10  19  32  52  75  99 128 166 211 252 294
#     4  10  20  33  49  72 102 133 168 210 251 292
#
# _framework density 17.617906000000001
#
# number of rings (size 3 to 8) (size 9 to 14) (size 15 to 20)
#    0.000    2.400    0.000    4.200    0.000    5.200 
#    0.000    9.000    0.000    9.600    0.000    7.000 
#    0.000    0.000    0.000    0.000    0.000    0.000 
#
# Total GULP energy -222827.658515 kJ/mol
# GULP energy per Si atom -5570.691463 kJ/mol
# Density = 1.757781 g / cm^3
# Si number density = 17.617906 Si / 1000 Ang^3
#
#
#
# Elastic Constant Matrix: (Units=GPa)
#
#
# Indices 1 2 3 4 5 6 
#
# 1 144.5496 54.6611 38.5628 0.0000 0.0000 0.0000
# 2 54.6611 92.1194 26.2460 0.0000 0.0000 0.0000
# 3 38.5628 26.2460 37.0999 0.0000 0.0000 0.0000
# 4 0.0000 0.0000 0.0000 25.6423 0.0000 0.0000
# 5 0.0000 0.0000 0.0000 0.0000 -109.9793 0.0000
# 6 0.0000 0.0000 0.0000 0.0000 0.0000 7.0915
#
#
#
# Elastic Compliance Matrix: (Units=1/GPa)
#
#
# Indices 1 2 3 4 5 6 
#
# 1 0.010607 -0.003949 -0.008232 0.000000 0.000000 0.000000
# 2 -0.003949 0.015066 -0.006554 0.000000 0.000000 0.000000
# 3 -0.008232 -0.006554 0.040148 0.000000 0.000000 0.000000
# 4 0.000000 0.000000 0.000000 0.038998 0.000000 0.000000
# 5 0.000000 0.000000 0.000000 0.000000 -0.009093 0.000000
# 6 0.000000 0.000000 0.000000 0.000000 0.000000 0.141015
#
#
# Mechanical properties :
#
#
# Convention : Reuss Voigt Hill
#
# Bulk Modulus (GPa) = 35.27168 56.96765 46.11967
# Shear Modulus (GPa) = 17.62670 -5.16250 6.23210
#
# Velocity S-wave (km/s) = 3.16650 -1.71366 1.88283
# Velocity P-wave (km/s) = 5.78211 5.33758 5.56429
#
# Compressibility (1/GPa) = 0.02835135
#
# Stress axis : x y z
#
# Youngs Moduli (GPa) = 94.27372 66.37568 24.90811
#
# Poissons Ratio (x) = 0.26210 0.20505
# Poissons Ratio (y) = 0.37226 0.16324
# Poissons Ratio (z) = 0.77608 0.43501
#
# Static dielectric constant tensor:
#      x y z
#    x 1.602820 0.000000 0.000000 
#    y 0.000000 1.625260 0.000000 
#    z 0.000000 0.000000 1.595730 
# 
# From -- ./inp_files/9905.got.cif
#   From: 2010.05.17/outbox.cif.g08.bks.cpg/sg67_5_cif.got.tgz:9905.got - 2010.06.03 18:28:57.
