data_PCOD9501174
_publ_section_title
;
Structure prediction by ZEFSAII (Michael W. Deem and Ramdas Pophale) SiO2 
 PCOD9501174
Probable space group: C M M A
;
_chemical_formula_sum "Si O2"
_cell_formula_units_Z 96
_cell_length_a 8.743089
_cell_length_b 27.976980
_cell_length_c 24.988520
_cell_angle_alpha 90.000000
_cell_angle_beta 90.000000
_cell_angle_gamma 90.000000
_cell_volume 6112.322584
_symmetry_space_group_name_H-M "C M M A"
_symmetry_group_IT_number 67
_symmetry_cell_setting 'orthorhombic'
loop_
_space_group_symop_operation_xyz
x,y,z
-x,1/2-y,z
x,-y,-z
-x,1/2+y,-z
-x,-y,-z
x,1/2+y,-z
-x,y,z
x,1/2-y,z
1/2+x,1/2+y,z
1/2-x,-y,z
1/2+x,1/2-y,-z
1/2-x,y,-z
1/2-x,1/2-y,-z
1/2+x,y,-z
1/2-x,1/2+y,z
1/2+x,-y,z
loop_
_atom_site_type_symbol
_atom_site_label
_atom_site_fract_x
_atom_site_fract_y
_atom_site_fract_z
Si Si1 0.315815 0.053417 0.828302
Si Si2 0.184831 0.195604 0.667632
Si Si3 0.316803 0.446101 0.945988
Si Si4 0.316757 0.852285 0.557139
Si Si5 0.316303 0.397285 0.719024
Si Si6 0.316387 0.948508 0.615740
O O1 0.500000 0.049685 0.827193
O O2 0.274839 0.073661 0.887235
O O3 0.268065 0.084879 0.777686
O O4 0.250000 0.000000 0.822997
O O5 0.227920 0.250000 0.679626
O O6 0.228677 0.181499 0.606699
O O7 0.258537 0.155740 0.705335
O O8 0.000000 0.191391 0.670867
O O9 0.500000 0.448117 0.950504
O O10 0.250000 0.500000 0.944710
O O11 0.250000 0.423057 0.000000
O O12 0.500000 0.851051 0.553768
O O13 0.250000 0.839177 0.500000
O O14 0.271578 0.906147 0.574844
O O15 0.500000 0.399201 0.715352
O O16 0.246219 0.431727 0.673491
O O17 0.500000 0.950475 0.617946
O O18 0.250000 0.000000 0.601469
#
# Coordination Sequence:
#
# PCOD9501174 Si02
#       6
#    16  16  16  16  16  16
#     4   9  18  28  40  61  90 121 151 184 217 251
#     4   9  19  36  53  68  89 115 140 173 221 269
#     4   9  15  24  36  53  80 115 152 185 215 245
#     4   9  19  33  48  67  90 114 142 176 213 257
#     4  10  19  31  47  68  91 115 147 184 220 262
#     4  10  20  33  47  65  90 120 150 181 218 256
#
# _framework density 15.705977000000001
#
# number of rings (size 3 to 8) (size 9 to 14) (size 15 to 20)
#    0.000    2.667    0.000    3.500    0.000    7.667 
#    0.000    1.667    0.000    0.000    0.000    0.000 
#    0.000    0.667    0.000    1.500    0.000    3.000 
#
# Total GULP energy -267462.066061 kJ/mol
# GULP energy per Si atom -5572.126376 kJ/mol
# Density = 1.567023 g / cm^3
# Si number density = 15.705977 Si / 1000 Ang^3
#
#
#
# Elastic Constant Matrix: (Units=GPa)
#
#
# Indices 1 2 3 4 5 6 
#
# 1 25.0493 12.8362 20.0931 0.0000 0.0000 0.0000
# 2 12.8362 58.4418 21.7654 0.0000 0.0000 0.0000
# 3 20.0931 21.7654 119.3022 0.0000 0.0000 0.0000
# 4 0.0000 0.0000 0.0000 10.6658 0.0000 0.0000
# 5 0.0000 0.0000 0.0000 0.0000 17.6435 0.0000
# 6 0.0000 0.0000 0.0000 0.0000 0.0000 12.1083
#
#
#
# Elastic Compliance Matrix: (Units=1/GPa)
#
#
# Indices 1 2 3 4 5 6 
#
# 1 0.049699 -0.008367 -0.006844 0.000000 0.000000 0.000000
# 2 -0.008367 0.019767 -0.002197 0.000000 0.000000 0.000000
# 3 -0.006844 -0.002197 0.009936 0.000000 0.000000 0.000000
# 4 0.000000 0.000000 0.000000 0.093757 0.000000 0.000000
# 5 0.000000 0.000000 0.000000 0.000000 0.056678 0.000000
# 6 0.000000 0.000000 0.000000 0.000000 0.000000 0.082588
#
#
# Mechanical properties :
#
#
# Convention : Reuss Voigt Hill
#
# Bulk Modulus (GPa) = 22.42892 34.68695 28.55794
# Shear Modulus (GPa) = 13.80826 17.95677 15.88252
#
# Velocity S-wave (km/s) = 2.96830 3.38495 3.18345
# Velocity P-wave (km/s) = 5.10483 6.11640 5.63336
#
# Compressibility (1/GPa) = 0.04458529
#
# Stress axis : x y z
#
# Youngs Moduli (GPa) = 20.12132 50.58929 100.64855
#
# Poissons Ratio (x) = 0.42328 0.68882
# Poissons Ratio (y) = 0.16835 0.22113
# Poissons Ratio (z) = 0.13771 0.11115
#
# Static dielectric constant tensor:
#      x y z
#    x 1.530740 0.000000 0.000000 
#    y 0.000000 1.499670 0.000000 
#    z 0.000000 0.000000 1.554900 
# 
# From -- ./inp_files/40948.got.cif
#   From: 2010.05.17/outbox.cif.g08.bks.cpg/sg67_21_cif.got.tgz:40948.got - 2010.06.03 18:28:57.
