data_PCOD9501771
_publ_section_title
;
Structure prediction by ZEFSAII (Michael W. Deem and Ramdas Pophale) SiO2 
 PCOD9501771
Probable space group: C M M A
;
_chemical_formula_sum "Si O2"
_cell_formula_units_Z 100
_cell_length_a 13.749601
_cell_length_b 24.400176
_cell_length_c 16.154809
_cell_angle_alpha 90.000000
_cell_angle_beta 90.000000
_cell_angle_gamma 90.000000
_cell_volume 5419.820236
_symmetry_space_group_name_H-M "C M M A"
_symmetry_group_IT_number 67
_symmetry_cell_setting 'orthorhombic'
loop_
_space_group_symop_operation_xyz
x,y,z
-x,1/2-y,z
x,-y,-z
-x,1/2+y,-z
-x,-y,-z
x,1/2+y,-z
-x,y,z
x,1/2-y,z
1/2+x,1/2+y,z
1/2-x,-y,z
1/2+x,1/2-y,-z
1/2-x,y,-z
1/2-x,1/2-y,-z
1/2+x,y,-z
1/2-x,1/2+y,z
1/2+x,-y,z
loop_
_atom_site_type_symbol
_atom_site_label
_atom_site_fract_x
_atom_site_fract_y
_atom_site_fract_z
Si Si1 0.750000 0.000000 0.500000
Si Si2 0.236315 0.187124 0.849317
Si Si3 0.115596 0.606275 0.053323
Si Si4 0.615899 0.407141 0.862083
Si Si5 0.115404 0.188850 0.679517
Si Si6 0.617721 0.523756 0.801018
Si Si7 0.116758 0.571760 0.379651
O O1 0.819328 0.961824 0.444104
O O2 0.262409 0.250000 0.864797
O O3 0.172616 0.161233 0.923287
O O4 0.327957 0.147503 0.837248
O O5 0.171570 0.184266 0.766200
O O6 0.146433 0.562121 0.122242
O O7 0.000000 0.615467 0.061386
O O8 0.133279 0.585709 0.960590
O O9 0.500000 0.401229 0.850309
O O10 0.650320 0.461354 0.814007
O O11 0.134320 0.250000 0.645205
O O12 0.139002 0.136799 0.622585
O O13 0.000000 0.184723 0.697304
O O14 0.500000 0.521980 0.805386
O O15 0.640656 0.549293 0.712369
O O16 0.000000 0.564694 0.393231
#
# Coordination Sequence:
#
# PCOD9501771 Si02
#       7
#     4  16  16  16  16  16  16
#     4  12  26  36  58  94 126 152 166 214 280 338
#     4  11  22  34  51  76 106 143 193 236 272 322
#     4  10  19  34  54  79 109 139 182 241 289 321
#     4  10  22  35  50  75 110 150 190 232 278 324
#     4   9  18  36  63  88 108 138 184 235 277 318
#     4   9  18  35  58  80 105 143 186 227 273 326
#     4  10  21  39  61  88 118 146 182 223 271 334
#
# _framework density 18.450794999999999
#
# number of rings (size 3 to 8) (size 9 to 14) (size 15 to 20)
#    0.000    2.080    1.600    1.680    2.240    5.120 
#    0.000    3.600    0.000    0.000    0.000    0.000 
#    0.000    0.000    0.000    0.000    0.000    0.000 
#
# Total GULP energy -279262.104598 kJ/mol
# GULP energy per Si atom -5585.242092 kJ/mol
# Density = 1.840880 g / cm^3
# Si number density = 18.450795 Si / 1000 Ang^3
#
#
#
# Elastic Constant Matrix: (Units=GPa)
#
#
# Indices 1 2 3 4 5 6 
#
# 1 65.6415 59.9349 34.0968 0.0000 0.0000 0.0000
# 2 59.9349 180.0659 62.4969 0.0000 0.0000 0.0000
# 3 34.0968 62.4969 58.8203 0.0000 0.0000 0.0000
# 4 0.0000 0.0000 0.0000 21.8120 0.0000 0.0000
# 5 0.0000 0.0000 0.0000 0.0000 18.4681 0.0000
# 6 0.0000 0.0000 0.0000 0.0000 0.0000 31.5909
#
#
#
# Elastic Compliance Matrix: (Units=1/GPa)
#
#
# Indices 1 2 3 4 5 6 
#
# 1 0.024431 -0.005096 -0.008748 0.000000 0.000000 0.000000
# 2 -0.005096 0.009861 -0.007523 0.000000 0.000000 0.000000
# 3 -0.008748 -0.007523 0.030065 0.000000 0.000000 0.000000
# 4 0.000000 0.000000 0.000000 0.045846 0.000000 0.000000
# 5 0.000000 0.000000 0.000000 0.000000 0.054147 0.000000
# 6 0.000000 0.000000 0.000000 0.000000 0.000000 0.031655
#
#
# Mechanical properties :
#
#
# Convention : Reuss Voigt Hill
#
# Bulk Modulus (GPa) = 46.24609 68.62053 57.43331
# Shear Modulus (GPa) = 20.32958 24.24081 22.28519
#
# Velocity S-wave (km/s) = 3.32298 3.62858 3.47914
# Velocity P-wave (km/s) = 6.31204 7.40455 6.88001
#
# Compressibility (1/GPa) = 0.02162345
#
# Stress axis : x y z
#
# Youngs Moduli (GPa) = 40.93181 101.41201 33.26074
#
# Poissons Ratio (x) = 0.51676 0.29096
# Poissons Ratio (y) = 0.20857 0.25023
# Poissons Ratio (z) = 0.35807 0.76295
#
# Static dielectric constant tensor:
#      x y z
#    x 1.672340 0.000000 0.000000 
#    y 0.000000 1.651350 0.000000 
#    z 0.000000 0.000000 1.597380 
# 
# From -- ./inp_files/33711.got.cif
#   From: 2010.05.17/outbox.cif.g08.bks.cpg/sg67_17_cif.got.tgz:33711.got - 2010.06.03 18:28:57.
