data_PCOD9501826
_publ_section_title
;
Structure prediction by ZEFSAII (Michael W. Deem and Ramdas Pophale) SiO2 
 PCOD9501826
Probable space group: C M M A
;
_chemical_formula_sum "Si O2"
_cell_formula_units_Z 96
_cell_length_a 20.930634
_cell_length_b 19.087023
_cell_length_c 13.978357
_cell_angle_alpha 90.000000
_cell_angle_beta 90.000000
_cell_angle_gamma 90.000000
_cell_volume 5584.402442
_symmetry_space_group_name_H-M "C M M A"
_symmetry_group_IT_number 67
_symmetry_cell_setting 'orthorhombic'
loop_
_space_group_symop_operation_xyz
x,y,z
-x,1/2-y,z
x,-y,-z
-x,1/2+y,-z
-x,-y,-z
x,1/2+y,-z
-x,y,z
x,1/2-y,z
1/2+x,1/2+y,z
1/2-x,-y,z
1/2+x,1/2-y,-z
1/2-x,y,-z
1/2-x,1/2-y,-z
1/2+x,y,-z
1/2-x,1/2+y,z
1/2+x,-y,z
loop_
_atom_site_type_symbol
_atom_site_label
_atom_site_fract_x
_atom_site_fract_y
_atom_site_fract_z
Si Si1 0.263414 0.672205 0.385749
Si Si2 0.425715 0.473003 0.261661
Si Si3 0.317196 0.527140 0.391216
Si Si4 0.356267 0.329788 0.241368
Si Si5 0.677569 0.668196 0.982190
Si Si6 0.573584 0.935449 0.073552
O O1 0.286157 0.750000 0.359530
O O2 0.250000 0.671694 0.500000
O O3 0.313490 0.610037 0.375307
O O4 0.200244 0.659027 0.320337
O O5 0.500000 0.478885 0.283137
O O6 0.379475 0.496482 0.345009
O O7 0.407608 0.391855 0.244535
O O8 0.411619 0.525706 0.173479
O O9 0.316125 0.500000 0.500000
O O10 0.250000 0.500000 0.347653
O O11 0.380196 0.250000 0.257223
O O12 0.331164 0.333452 0.132505
O O13 0.672456 0.750000 0.012506
O O14 0.750000 0.643518 0.000000
O O15 0.624931 0.621350 0.037033
O O16 0.500000 0.907933 0.076233
O O17 0.574301 0.000000 0.000000
#
# Coordination Sequence:
#
# PCOD9501826 Si02
#       6
#    16  16  16  16  16  16
#     4  10  19  34  57  84 113 145 181 225 276 333
#     4  11  23  37  56  82 112 149 190 232 278 332
#     4  11  20  36  58  86 115 146 187 230 276 342
#     4  10  20  35  55  82 113 144 182 230 287 337
#     4  10  22  37  55  83 113 141 182 236 286 330
#     4  10  21  38  55  76 108 147 190 225 269 335
#
# _framework density 17.190739000000001
#
# number of rings (size 3 to 8) (size 9 to 14) (size 15 to 20)
#    0.000    1.667    5.000    0.000    2.333    1.333 
#    0.000    1.667    0.000    1.500    0.000    0.000 
#    0.000    0.000    0.000    0.000    0.000    0.000 
#
# Total GULP energy -267351.707116 kJ/mol
# GULP energy per Si atom -5569.827232 kJ/mol
# Density = 1.715161 g / cm^3
# Si number density = 17.190739 Si / 1000 Ang^3
#
#
#
# Elastic Constant Matrix: (Units=GPa)
#
#
# Indices 1 2 3 4 5 6 
#
# 1 107.5208 66.6435 58.4478 0.0000 0.0000 0.0000
# 2 66.6435 113.1550 30.2905 0.0000 0.0000 0.0000
# 3 58.4478 30.2905 69.8510 0.0000 0.0000 0.0000
# 4 0.0000 0.0000 0.0000 22.5418 0.0000 0.0000
# 5 0.0000 0.0000 0.0000 0.0000 -18.7582 0.0000
# 6 0.0000 0.0000 0.0000 0.0000 0.0000 49.9041
#
#
#
# Elastic Compliance Matrix: (Units=1/GPa)
#
#
# Indices 1 2 3 4 5 6 
#
# 1 0.024060 -0.009934 -0.015824 0.000000 0.000000 0.000000
# 2 -0.009934 0.014100 0.002198 0.000000 0.000000 0.000000
# 3 -0.015824 0.002198 0.026604 0.000000 0.000000 0.000000
# 4 0.000000 0.000000 0.000000 0.044362 0.000000 0.000000
# 5 0.000000 0.000000 0.000000 0.000000 -0.053310 0.000000
# 6 0.000000 0.000000 0.000000 0.000000 0.000000 0.020038
#
#
# Mechanical properties :
#
#
# Convention : Reuss Voigt Hill
#
# Bulk Modulus (GPa) = 56.67957 66.81004 61.74481
# Shear Modulus (GPa) = 38.80317 19.74722 29.27519
#
# Velocity S-wave (km/s) = 4.75617 3.39294 4.13117
# Velocity P-wave (km/s) = 7.95010 7.36870 7.66492
#
# Compressibility (1/GPa) = 0.01764304
#
# Stress axis : x y z
#
# Youngs Moduli (GPa) = 41.56293 70.92259 37.58863
#
# Poissons Ratio (x) = 0.70457 0.59481
# Poissons Ratio (y) = 0.41290 -0.08263
# Poissons Ratio (z) = 0.65770 -0.15590
#
# Static dielectric constant tensor:
#      x y z
#    x 1.553190 0.000000 0.000000 
#    y 0.000000 1.623080 0.000000 
#    z 0.000000 0.000000 1.601280 
# 
# From -- ./inp_files/27224.got.cif
#   From: 2010.05.17/outbox.cif.g08.bks.cpg/sg67_14_cif.got.tgz:27224.got - 2010.06.03 18:28:57.
