data_PCOD9501439
_publ_section_title
;
Structure prediction by ZEFSAII (Michael W. Deem and Ramdas Pophale) SiO2 
 PCOD9501439
Probable space group: C M M A
;
_chemical_formula_sum "Si O2"
_cell_formula_units_Z 104
_cell_length_a 27.501006
_cell_length_b 8.704874
_cell_length_c 24.478793
_cell_angle_alpha 90.000000
_cell_angle_beta 90.000000
_cell_angle_gamma 90.000000
_cell_volume 5860.046604
_symmetry_space_group_name_H-M "C M M A"
_symmetry_group_IT_number 67
_symmetry_cell_setting 'orthorhombic'
loop_
_space_group_symop_operation_xyz
x,y,z
-x,1/2-y,z
x,-y,-z
-x,1/2+y,-z
-x,-y,-z
x,1/2+y,-z
-x,y,z
x,1/2-y,z
1/2+x,1/2+y,z
1/2-x,-y,z
1/2+x,1/2-y,-z
1/2-x,y,-z
1/2-x,1/2-y,-z
1/2+x,y,-z
1/2-x,1/2+y,z
1/2+x,-y,z
loop_
_atom_site_type_symbol
_atom_site_label
_atom_site_fract_x
_atom_site_fract_y
_atom_site_fract_z
Si Si1 0.556487 0.433966 0.060141
Si Si2 0.697967 0.566523 0.352447
Si Si3 0.401902 0.065655 0.375185
Si Si4 0.889284 0.570301 0.837684
Si Si5 0.801166 0.066805 0.770385
Si Si6 0.500000 0.063865 0.439104
Si Si7 0.056714 0.573331 0.256820
O O1 0.500000 0.473157 0.073565
O O2 0.560388 0.250000 0.059555
O O3 0.591912 0.502941 0.105453
O O4 0.566468 0.500000 0.000000
O O5 0.700313 0.750000 0.351074
O O6 0.750000 0.500000 0.371991
O O7 0.650256 0.511770 0.385520
O O8 0.691858 0.503536 0.290312
O O9 0.396964 0.250000 0.381316
O O10 0.449598 0.015891 0.409307
O O11 0.414974 0.034777 0.311888
O O12 0.879364 0.750000 0.842460
O O13 0.843202 0.484904 0.811350
O O14 0.930724 0.537175 0.792600
O O15 0.799569 0.250000 0.765248
O O16 0.750000 0.000000 0.790366
O O17 0.500000 0.250000 0.438573
O O18 0.500000 0.000000 0.500000
O O19 0.069193 0.750000 0.240970
O O20 0.000000 0.570417 0.269953
#
# Coordination Sequence:
#
# PCOD9501439 Si02
#       7
#    16  16  16  16  16   8  16
#     4  10  21  38  58  79 105 142 185 230 279 330
#     4  11  21  34  54  83 115 151 190 233 286 344
#     4  10  19  35  57  81 113 153 192 233 282 337
#     4  12  23  34  51  79 111 145 184 227 277 334
#     4  11  21  35  53  76 109 146 183 226 276 334
#     4  10  22  40  62  88 118 160 201 238 285 338
#     4  10  19  32  51  76 108 147 184 224 279 336
#
# _framework density 17.747299000000002
#
# number of rings (size 3 to 8) (size 9 to 14) (size 15 to 20)
#    0.000    1.385    2.308    6.000    0.000    3.692 
#    0.000    0.000    0.000    0.923    0.000    6.462 
#    0.000    0.000    0.000    0.000    0.000    0.000 
#
# Total GULP energy -290369.957216 kJ/mol
# GULP energy per Si atom -5584.037639 kJ/mol
# Density = 1.770691 g / cm^3
# Si number density = 17.747299 Si / 1000 Ang^3
#
#
#
# Elastic Constant Matrix: (Units=GPa)
#
#
# Indices 1 2 3 4 5 6 
#
# 1 142.3536 42.7069 39.7601 0.0000 0.0000 0.0000
# 2 42.7069 90.9527 31.1304 0.0000 0.0000 0.0000
# 3 39.7601 31.1304 45.9519 0.0000 0.0000 0.0000
# 4 0.0000 0.0000 0.0000 24.1859 0.0000 0.0000
# 5 0.0000 0.0000 0.0000 0.0000 9.9707 0.0000
# 6 0.0000 0.0000 0.0000 0.0000 0.0000 29.5354
#
#
#
# Elastic Compliance Matrix: (Units=1/GPa)
#
#
# Indices 1 2 3 4 5 6 
#
# 1 0.009579 -0.002162 -0.006824 0.000000 0.000000 0.000000
# 2 -0.002162 0.014802 -0.008156 0.000000 0.000000 0.000000
# 3 -0.006824 -0.008156 0.033192 0.000000 0.000000 0.000000
# 4 0.000000 0.000000 0.000000 0.041346 0.000000 0.000000
# 5 0.000000 0.000000 0.000000 0.000000 0.100294 0.000000
# 6 0.000000 0.000000 0.000000 0.000000 0.000000 0.033858
#
#
# Mechanical properties :
#
#
# Convention : Reuss Voigt Hill
#
# Bulk Modulus (GPa) = 42.94106 56.27257 49.60681
# Shear Modulus (GPa) = 18.17400 23.78246 20.97823
#
# Velocity S-wave (km/s) = 3.20354 3.66466 3.44183
# Velocity P-wave (km/s) = 6.15889 7.04860 6.61871
#
# Compressibility (1/GPa) = 0.02328774
#
# Stress axis : x y z
#
# Youngs Moduli (GPa) = 104.39068 67.55912 30.12800
#
# Poissons Ratio (x) = 0.14610 0.20558
# Poissons Ratio (y) = 0.22574 0.24574
# Poissons Ratio (z) = 0.71232 0.55105
#
# Static dielectric constant tensor:
#      x y z
#    x 1.652780 0.000000 0.000000 
#    y 0.000000 1.605590 0.000000 
#    z 0.000000 0.000000 1.568840 
# 
# From -- ./inp_files/42782.got.cif
#   From: 2010.05.17/outbox.cif.g08.bks.cpg/sg67_22_cif.got.tgz:42782.got - 2010.06.03 18:28:57.
