data_PCOD9501133
_publ_section_title
;
Structure prediction by ZEFSAII (Michael W. Deem and Ramdas Pophale) SiO2 
 PCOD9501133
Probable space group: C M M A
;
_chemical_formula_sum "Si O2"
_cell_formula_units_Z 80
_cell_length_a 14.706793
_cell_length_b 28.663655
_cell_length_c 9.437154
_cell_angle_alpha 90.000000
_cell_angle_beta 90.000000
_cell_angle_gamma 90.000000
_cell_volume 3978.236428
_symmetry_space_group_name_H-M "C M M A"
_symmetry_group_IT_number 67
_symmetry_cell_setting 'orthorhombic'
loop_
_space_group_symop_operation_xyz
x,y,z
-x,1/2-y,z
x,-y,-z
-x,1/2+y,-z
-x,-y,-z
x,1/2+y,-z
-x,y,z
x,1/2-y,z
1/2+x,1/2+y,z
1/2-x,-y,z
1/2+x,1/2-y,-z
1/2-x,y,-z
1/2-x,1/2-y,-z
1/2+x,y,-z
1/2-x,1/2+y,z
1/2+x,-y,z
loop_
_atom_site_type_symbol
_atom_site_label
_atom_site_fract_x
_atom_site_fract_y
_atom_site_fract_z
Si Si1 0.399430 0.457276 0.912223
Si Si2 0.110102 0.129481 0.265897
Si Si3 0.738165 0.697828 0.670589
Si Si4 0.855290 0.513960 0.345805
Si Si5 0.607272 0.117217 0.400657
O O1 0.500000 0.448818 0.976660
O O2 0.361752 0.407419 0.857641
O O3 0.408126 0.483214 0.763777
O O4 0.353781 0.500000 0.000000
O O5 0.170861 0.176103 0.259962
O O6 0.130519 0.113062 0.429693
O O7 0.000000 0.135405 0.256578
O O8 0.717811 0.750000 0.723051
O O9 0.750000 0.701500 0.500000
O O10 0.659518 0.659052 0.676749
O O11 0.887831 0.500000 0.500000
O O12 0.750000 0.500000 0.333845
O O13 0.866650 0.568786 0.327797
O O14 0.500000 0.124665 0.393781
#
# Coordination Sequence:
#
# PCOD9501133 Si02
#       5
#    16  16  16  16  16
#     4  10  20  33  49  73 107 142 175 218 269 325
#     4   9  17  30  49  73 103 138 177 221 272 330
#     4   9  18  31  48  72 105 139 176 229 283 330
#     4  11  21  31  51  75 102 141 179 221 267 329
#     4  10  19  30  49  74 101 137 180 222 271 328
#
# _framework density 20.109411999999999
#
# number of rings (size 3 to 8) (size 9 to 14) (size 15 to 20)
#    0.000    2.200    2.000    1.800    5.600    2.000 
#    0.000    4.000    0.000    0.000    0.000    2.800 
#    0.000    4.800    0.000    0.000    0.000    0.000 
#
# Total GULP energy -222707.212190 kJ/mol
# GULP energy per Si atom -5567.680305 kJ/mol
# Density = 2.006364 g / cm^3
# Si number density = 20.109412 Si / 1000 Ang^3
#
#
#
# Elastic Constant Matrix: (Units=GPa)
#
#
# Indices 1 2 3 4 5 6 
#
# 1 61.9898 28.3919 5.2301 0.0000 0.0000 0.0000
# 2 28.3919 158.0232 0.9970 0.0000 0.0000 0.0000
# 3 5.2301 0.9970 25.7416 0.0000 0.0000 0.0000
# 4 0.0000 0.0000 0.0000 18.1727 0.0000 0.0000
# 5 0.0000 0.0000 0.0000 0.0000 8.3635 0.0000
# 6 0.0000 0.0000 0.0000 0.0000 0.0000 32.6460
#
#
#
# Elastic Compliance Matrix: (Units=1/GPa)
#
#
# Indices 1 2 3 4 5 6 
#
# 1 0.017890 -0.003192 -0.003511 0.000000 0.000000 0.000000
# 2 -0.003192 0.006899 0.000381 0.000000 0.000000 0.000000
# 3 -0.003511 0.000381 0.039546 0.000000 0.000000 0.000000
# 4 0.000000 0.000000 0.000000 0.055028 0.000000 0.000000
# 5 0.000000 0.000000 0.000000 0.000000 0.119567 0.000000
# 6 0.000000 0.000000 0.000000 0.000000 0.000000 0.030632
#
#
# Mechanical properties :
#
#
# Convention : Reuss Voigt Hill
#
# Bulk Modulus (GPa) = 19.34553 34.99918 27.17236
# Shear Modulus (GPa) = 16.69804 25.91215 21.30510
#
# Velocity S-wave (km/s) = 2.88472 3.59354 3.25846
# Velocity P-wave (km/s) = 4.55374 5.88729 5.26292
#
# Compressibility (1/GPa) = 0.05169154
#
# Stress axis : x y z
#
# Youngs Moduli (GPa) = 55.89734 144.94219 25.28684
#
# Poissons Ratio (x) = 0.46267 0.08879
# Poissons Ratio (y) = 0.17843 -0.00964
# Poissons Ratio (z) = 0.19627 -0.05527
#
# Static dielectric constant tensor:
#      x y z
#    x 1.790600 0.000000 0.000000 
#    y 0.000000 0.545360 0.000000 
#    z 0.000000 0.000000 2.203640 
# 
# From -- ./inp_files/18241.got.cif
#   From: 2010.05.17/outbox.cif.g08.bks.cpg/sg67_10_cif.got.tgz:18241.got - 2010.06.03 18:28:57.
