data_PCOD9501787
_publ_section_title
;
Structure prediction by ZEFSAII (Michael W. Deem and Ramdas Pophale) SiO2 
 PCOD9501787
Probable space group: C M M A
;
_chemical_formula_sum "Si O2"
_cell_formula_units_Z 116
_cell_length_a 8.010004
_cell_length_b 29.038191
_cell_length_c 24.371322
_cell_angle_alpha 90.000000
_cell_angle_beta 90.000000
_cell_angle_gamma 90.000000
_cell_volume 5668.672647
_symmetry_space_group_name_H-M "C M M A"
_symmetry_group_IT_number 67
_symmetry_cell_setting 'orthorhombic'
loop_
_space_group_symop_operation_xyz
x,y,z
-x,1/2-y,z
x,-y,-z
-x,1/2+y,-z
-x,-y,-z
x,1/2+y,-z
-x,y,z
x,1/2-y,z
1/2+x,1/2+y,z
1/2-x,-y,z
1/2+x,1/2-y,-z
1/2-x,y,-z
1/2-x,1/2-y,-z
1/2+x,y,-z
1/2-x,1/2+y,z
1/2+x,-y,z
loop_
_atom_site_type_symbol
_atom_site_label
_atom_site_fract_x
_atom_site_fract_y
_atom_site_fract_z
Si Si1 0.300940 0.052937 0.376431
Si Si2 0.194685 0.358621 0.438072
Si Si3 0.306341 0.549763 0.822554
Si Si4 0.700109 0.686165 0.062824
Si Si5 0.302017 0.801596 0.665785
Si Si6 0.295995 0.388194 0.270297
Si Si7 0.500000 0.250000 0.101080
Si Si8 0.193323 0.924118 0.939293
O O1 0.500000 0.055725 0.380004
O O2 0.229719 0.088426 0.421160
O O3 0.251419 0.074846 0.317616
O O4 0.250000 0.000000 0.382077
O O5 0.250000 0.350057 0.500000
O O6 0.281583 0.325983 0.393218
O O7 0.000000 0.349717 0.433062
O O8 0.500000 0.551900 0.811679
O O9 0.250000 0.500000 0.802606
O O10 0.231711 0.591749 0.787195
O O11 0.280413 0.553884 0.887200
O O12 0.500000 0.697031 0.071775
O O13 0.846931 0.710418 0.097750
O O14 0.715502 0.631026 0.066152
O O15 0.750000 0.698728 0.000000
O O16 0.500000 0.797846 0.675797
O O17 0.231099 0.750000 0.667452
O O18 0.233247 0.838360 0.709922
O O19 0.500000 0.384744 0.269940
O O20 0.000000 0.935280 0.934192
O O21 0.250000 0.937873 0.000000
#
# Coordination Sequence:
#
# PCOD9501787 Si02
#       8
#    16  16  16  16  16  16   4  16
#     4  10  19  34  55  81 115 150 192 238 293 350
#     4  11  22  36  53  78 114 154 201 248 294 342
#     4  11  22  37  61  87 118 149 189 232 286 347
#     4  10  20  31  49  78 110 146 186 235 279 330
#     4   9  18  36  62  87 115 153 195 238 291 342
#     4   8  17  34  57  87 116 147 184 235 284 341
#     4  12  20  28  54  78 112 140 202 224 286 322
#     4  10  22  40  59  82 116 153 190 233 290 347
#
# _framework density 20.463345
#
# number of rings (size 3 to 8) (size 9 to 14) (size 15 to 20)
#    0.000    2.069    0.690    4.138    1.931    1.103 
#    0.000    8.966    1.517    0.000    0.000    0.000 
#    0.000    0.000    0.000    0.000    0.000    0.000 
#
# Total GULP energy -322993.021473 kJ/mol
# GULP energy per Si atom -5568.845198 kJ/mol
# Density = 2.041677 g / cm^3
# Si number density = 20.463345 Si / 1000 Ang^3
#
#
#
# Elastic Constant Matrix: (Units=GPa)
#
#
# Indices 1 2 3 4 5 6 
#
# 1 73.5952 12.9458 -0.0873 0.0000 0.0000 0.0000
# 2 12.9458 142.9793 51.9965 0.0000 0.0000 0.0000
# 3 -0.0873 51.9965 86.8379 0.0000 0.0000 0.0000
# 4 0.0000 0.0000 0.0000 -7.6158 0.0000 0.0000
# 5 0.0000 0.0000 0.0000 0.0000 5.3844 0.0000
# 6 0.0000 0.0000 0.0000 0.0000 0.0000 20.7574
#
#
#
# Elastic Compliance Matrix: (Units=1/GPa)
#
#
# Indices 1 2 3 4 5 6 
#
# 1 0.013873 -0.001612 0.000979 0.000000 0.000000 0.000000
# 2 -0.001612 0.009128 -0.005467 0.000000 0.000000 0.000000
# 3 0.000979 -0.005467 0.014790 0.000000 0.000000 0.000000
# 4 0.000000 0.000000 0.000000 -0.131306 0.000000 0.000000
# 5 0.000000 0.000000 0.000000 0.000000 0.185723 0.000000
# 6 0.000000 0.000000 0.000000 0.000000 0.000000 0.048176
#
#
# Mechanical properties :
#
#
# Convention : Reuss Voigt Hill
#
# Bulk Modulus (GPa) = 39.07669 48.12470 43.60070
# Shear Modulus (GPa) = 31.03392 19.60904 25.32148
#
# Velocity S-wave (km/s) = 3.89853 3.09892 3.52150
# Velocity P-wave (km/s) = 6.27711 6.03100 6.15529
#
# Compressibility (1/GPa) = 0.02559070
#
# Stress axis : x y z
#
# Youngs Moduli (GPa) = 72.08451 109.54935 67.61112
#
# Poissons Ratio (x) = 0.17662 -0.06621
# Poissons Ratio (y) = 0.11622 0.36966
# Poissons Ratio (z) = -0.07059 0.59895
#
# Static dielectric constant tensor:
#      x y z
#    x 1.737710 0.000000 0.000000 
#    y 0.000000 1.839540 0.000000 
#    z 0.000000 0.000000 1.792030 
# 
# From -- ./inp_files/41230.got.cif
#   From: 2010.05.17/outbox.cif.g08.bks.cpg/sg67_21_cif.got.tgz:41230.got - 2010.06.03 18:28:57.
