data_PCOD9501526
_publ_section_title
;
Structure prediction by ZEFSAII (Michael W. Deem and Ramdas Pophale) SiO2 
 PCOD9501526
Probable space group: C M M A
;
_chemical_formula_sum "Si O2"
_cell_formula_units_Z 104
_cell_length_a 10.437517
_cell_length_b 26.582512
_cell_length_c 21.138670
_cell_angle_alpha 90.000000
_cell_angle_beta 90.000000
_cell_angle_gamma 90.000000
_cell_volume 5865.038582
_symmetry_space_group_name_H-M "C M M A"
_symmetry_group_IT_number 67
_symmetry_cell_setting 'orthorhombic'
loop_
_space_group_symop_operation_xyz
x,y,z
-x,1/2-y,z
x,-y,-z
-x,1/2+y,-z
-x,-y,-z
x,1/2+y,-z
-x,y,z
x,1/2-y,z
1/2+x,1/2+y,z
1/2-x,-y,z
1/2+x,1/2-y,-z
1/2-x,y,-z
1/2-x,1/2-y,-z
1/2+x,y,-z
1/2-x,1/2+y,z
1/2+x,-y,z
loop_
_atom_site_type_symbol
_atom_site_label
_atom_site_fract_x
_atom_site_fract_y
_atom_site_fract_z
Si Si1 0.852351 0.250000 0.855897
Si Si2 0.149128 0.348483 0.943704
Si Si3 0.355218 0.750000 0.254004
Si Si4 0.250000 0.500000 0.633860
Si Si5 0.642079 0.428916 0.262443
Si Si6 0.645624 0.642839 0.314646
Si Si7 0.853051 0.091682 0.445063
Si Si8 0.647103 0.958566 0.882582
O O1 0.834985 0.199269 0.897233
O O2 0.750896 0.250000 0.799864
O O3 0.000000 0.250000 0.833139
O O4 0.169798 0.402512 0.909886
O O5 0.000000 0.347557 0.965247
O O6 0.250000 0.343770 0.000000
O O7 0.500000 0.750000 0.226450
O O8 0.343069 0.799451 0.296398
O O9 0.341342 0.530859 0.681283
O O10 0.173765 0.538676 0.589914
O O11 0.500000 0.406006 0.265315
O O12 0.752871 0.388809 0.274719
O O13 0.655525 0.453516 0.193601
O O14 0.500000 0.625641 0.300267
O O15 0.665639 0.631893 0.388719
O O16 0.750000 0.098069 0.500000
O O17 0.000000 0.093652 0.467659
O O18 0.500000 0.972973 0.898469
O O19 0.750000 0.000000 0.904258
#
# Coordination Sequence:
#
# PCOD9501526 Si02
#       8
#     8  16   8   8  16  16  16  16
#     4  10  21  39  63  89 117 142 174 232 291 336
#     4  10  22  39  59  83 113 149 188 230 277 329
#     4  10  20  37  60  85 110 140 177 220 273 332
#     4  10  19  32  54  78 105 140 178 220 272 324
#     4  10  19  33  54  80 109 141 179 223 274 327
#     4   9  20  36  54  77 108 142 178 221 272 325
#     4  10  21  35  51  74 105 141 180 221 264 316
#     4  10  21  36  54  80 112 148 189 229 273 326
#
# _framework density 17.732192999999999
#
# number of rings (size 3 to 8) (size 9 to 14) (size 15 to 20)
#    0.000    2.154    0.769    1.846    0.000    8.308 
#    0.000    1.923    0.000    0.000    0.000    0.000 
#    0.000    0.000    0.000    0.000    0.000    0.000 
#
# Total GULP energy -290137.973231 kJ/mol
# GULP energy per Si atom -5579.576408 kJ/mol
# Density = 1.769183 g / cm^3
# Si number density = 17.732193 Si / 1000 Ang^3
#
#
#
# Elastic Constant Matrix: (Units=GPa)
#
#
# Indices 1 2 3 4 5 6 
#
# 1 131.6718 84.7511 70.5366 0.0000 0.0000 0.0000
# 2 84.7511 109.0809 40.4930 0.0000 0.0000 0.0000
# 3 70.5366 40.4930 63.8907 0.0000 0.0000 0.0000
# 4 0.0000 0.0000 0.0000 3.7212 0.0000 0.0000
# 5 0.0000 0.0000 0.0000 0.0000 29.6607 0.0000
# 6 0.0000 0.0000 0.0000 0.0000 0.0000 23.8969
#
#
#
# Elastic Compliance Matrix: (Units=1/GPa)
#
#
# Indices 1 2 3 4 5 6 
#
# 1 0.028924 -0.013886 -0.023132 0.000000 0.000000 0.000000
# 2 -0.013886 0.018654 0.003507 0.000000 0.000000 0.000000
# 3 -0.023132 0.003507 0.038967 0.000000 0.000000 0.000000
# 4 0.000000 0.000000 0.000000 0.268734 0.000000 0.000000
# 5 0.000000 0.000000 0.000000 0.000000 0.033715 0.000000
# 6 0.000000 0.000000 0.000000 0.000000 0.000000 0.041847
#
#
# Mechanical properties :
#
#
# Convention : Reuss Voigt Hill
#
# Bulk Modulus (GPa) = 51.21812 77.35610 64.28711
# Shear Modulus (GPa) = 9.91336 18.71326 14.31331
#
# Velocity S-wave (km/s) = 2.36701 3.25210 2.84420
# Velocity P-wave (km/s) = 6.03467 7.60401 6.86434
#
# Compressibility (1/GPa) = 0.01952434
#
# Stress axis : x y z
#
# Youngs Moduli (GPa) = 34.57315 53.60765 25.66251
#
# Poissons Ratio (x) = 0.74438 0.59363
# Poissons Ratio (y) = 0.48007 -0.09001
# Poissons Ratio (z) = 0.79976 -0.18802
#
# Static dielectric constant tensor:
#      x y z
#    x 1.609320 0.000000 0.000000 
#    y 0.000000 1.599420 0.000000 
#    z 0.000000 0.000000 1.581210 
# 
# From -- ./inp_files/37361.got.cif
#   From: 2010.05.17/outbox.cif.g08.bks.cpg/sg67_19_cif.got.tgz:37361.got - 2010.06.03 18:28:57.
