data_PCOD9501267
_publ_section_title
;
Structure prediction by ZEFSAII (Michael W. Deem and Ramdas Pophale) SiO2 
 PCOD9501267
Probable space group: C M M A
;
_chemical_formula_sum "Si O2"
_cell_formula_units_Z 80
_cell_length_a 14.388826
_cell_length_b 21.408398
_cell_length_c 12.371106
_cell_angle_alpha 90.000000
_cell_angle_beta 90.000000
_cell_angle_gamma 90.000000
_cell_volume 3810.816693
_symmetry_space_group_name_H-M "C M M A"
_symmetry_group_IT_number 67
_symmetry_cell_setting 'orthorhombic'
loop_
_space_group_symop_operation_xyz
x,y,z
-x,1/2-y,z
x,-y,-z
-x,1/2+y,-z
-x,-y,-z
x,1/2+y,-z
-x,y,z
x,1/2-y,z
1/2+x,1/2+y,z
1/2-x,-y,z
1/2+x,1/2-y,-z
1/2-x,y,-z
1/2-x,1/2-y,-z
1/2+x,y,-z
1/2-x,1/2+y,z
1/2+x,-y,z
loop_
_atom_site_type_symbol
_atom_site_label
_atom_site_fract_x
_atom_site_fract_y
_atom_site_fract_z
Si Si1 0.888237 0.319425 0.767500
Si Si2 0.113238 0.458702 0.167725
Si Si3 0.386668 0.589642 0.948309
Si Si4 0.607269 0.048774 0.589821
Si Si5 0.858065 0.822395 0.475247
O O1 0.849006 0.250000 0.766529
O O2 0.852861 0.356356 0.870181
O O3 0.870814 0.345177 0.648016
O O4 0.000000 0.316762 0.777176
O O5 0.134568 0.525864 0.115655
O O6 0.149778 0.452751 0.289502
O O7 0.000000 0.453008 0.172562
O O8 0.145660 0.412168 0.072358
O O9 0.500000 0.592265 0.952603
O O10 0.500000 0.028494 0.603960
O O11 0.606863 0.120415 0.548448
O O12 0.645610 0.000000 0.500000
O O13 0.895020 0.750000 0.485384
O O14 0.750000 0.817863 0.500000
#
# Coordination Sequence:
#
# PCOD9501267 Si02
#       5
#    16  16  16  16  16
#     4   9  16  27  46  69  90 117 157 200 237 277
#     4   8  14  24  41  66  94 121 147 183 234 283
#     4   8  13  24  42  65  93 120 148 186 231 278
#     4  10  19  31  50  76 101 125 158 198 240 289
#     4  10  21  35  49  67  95 130 164 199 241 288
#
# _framework density 20.992877
#
# number of rings (size 3 to 8) (size 9 to 14) (size 15 to 20)
#    0.000    3.000    0.000    3.000    0.000    4.800 
#    0.000    1.000    0.000    4.800    0.000    7.000 
#    0.000    0.000    0.000    0.000    0.000    0.000 
#
# Total GULP energy -222847.175270 kJ/mol
# GULP energy per Si atom -5571.179382 kJ/mol
# Density = 2.094510 g / cm^3
# Si number density = 20.992877 Si / 1000 Ang^3
#
#
#
# Elastic Constant Matrix: (Units=GPa)
#
#
# Indices 1 2 3 4 5 6 
#
# 1 44.2517 0.5522 6.4058 0.0000 0.0000 0.0000
# 2 0.5522 51.3501 72.2805 0.0000 0.0000 0.0000
# 3 6.4058 72.2805 231.3174 0.0000 0.0000 0.0000
# 4 0.0000 0.0000 0.0000 38.5810 0.0000 0.0000
# 5 0.0000 0.0000 0.0000 0.0000 -10.7155 0.0000
# 6 0.0000 0.0000 0.0000 0.0000 0.0000 15.0063
#
#
#
# Elastic Compliance Matrix: (Units=1/GPa)
#
#
# Indices 1 2 3 4 5 6 
#
# 1 0.022727 0.001145 -0.000987 0.000000 0.000000 0.000000
# 2 0.001145 0.034823 -0.010913 0.000000 0.000000 0.000000
# 3 -0.000987 -0.010913 0.007760 0.000000 0.000000 0.000000
# 4 0.000000 0.000000 0.000000 0.025920 0.000000 0.000000
# 5 0.000000 0.000000 0.000000 0.000000 -0.093322 0.000000
# 6 0.000000 0.000000 0.000000 0.000000 0.000000 0.066639
#
#
# Mechanical properties :
#
#
# Convention : Reuss Voigt Hill
#
# Bulk Modulus (GPa) = 22.83104 53.93292 38.38198
# Shear Modulus (GPa) = 49.67436 25.08640 37.38038
#
# Velocity S-wave (km/s) = 4.86969 3.46062 4.22432
# Velocity P-wave (km/s) = 6.52056 6.45869 6.48970
#
# Compressibility (1/GPa) = 0.04380002
#
# Stress axis : x y z
#
# Youngs Moduli (GPa) = 44.00128 28.71674 128.85931
#
# Poissons Ratio (x) = -0.03289 0.12721
# Poissons Ratio (y) = -0.05039 1.40623
# Poissons Ratio (z) = 0.04344 0.31338
#
# Static dielectric constant tensor:
#      x y z
#    x 1.796290 0.000000 0.000000 
#    y 0.000000 1.786980 0.000000 
#    z 0.000000 0.000000 1.784840 
# 
# From -- ./inp_files/17906.got.cif
#   From: 2010.05.17/outbox.cif.g08.bks.cpg/sg67_9_cif.got.tgz:17906.got - 2010.06.03 18:28:57.
