data_PCOD9501355
_publ_section_title
;
Structure prediction by ZEFSAII (Michael W. Deem and Ramdas Pophale) SiO2 
 PCOD9501355
Probable space group: C M M A
;
_chemical_formula_sum "Si O2"
_cell_formula_units_Z 104
_cell_length_a 8.022407
_cell_length_b 27.959160
_cell_length_c 23.575592
_cell_angle_alpha 90.000000
_cell_angle_beta 90.000000
_cell_angle_gamma 90.000000
_cell_volume 5287.999649
_symmetry_space_group_name_H-M "C M M A"
_symmetry_group_IT_number 67
_symmetry_cell_setting 'orthorhombic'
loop_
_space_group_symop_operation_xyz
x,y,z
-x,1/2-y,z
x,-y,-z
-x,1/2+y,-z
-x,-y,-z
x,1/2+y,-z
-x,y,z
x,1/2-y,z
1/2+x,1/2+y,z
1/2-x,-y,z
1/2+x,1/2-y,-z
1/2-x,y,-z
1/2-x,1/2-y,-z
1/2+x,y,-z
1/2-x,1/2+y,z
1/2+x,-y,z
loop_
_atom_site_type_symbol
_atom_site_label
_atom_site_fract_x
_atom_site_fract_y
_atom_site_fract_z
Si Si1 0.694576 0.948177 0.240302
Si Si2 0.699167 0.946056 0.934688
Si Si3 0.204378 0.194830 0.751740
Si Si4 0.699821 0.948910 0.629004
Si Si5 0.190100 0.127442 0.843629
Si Si6 0.300203 0.155321 0.368057
Si Si7 0.803096 0.750000 0.565093
O O1 0.500000 0.939558 0.228868
O O2 0.726849 0.948488 0.307365
O O3 0.806361 0.909846 0.208512
O O4 0.750000 0.000000 0.219063
O O5 0.500000 0.944560 0.930459
O O6 0.767509 0.903410 0.894811
O O7 0.750000 0.000000 0.917839
O O8 0.750000 0.939466 0.000000
O O9 0.250814 0.250000 0.744302
O O10 0.265212 0.173403 0.811775
O O11 0.262470 0.165436 0.696235
O O12 0.000000 0.192533 0.752676
O O13 0.500000 0.949822 0.632577
O O14 0.753896 0.896327 0.606922
O O15 0.750000 0.000000 0.602008
O O16 0.000000 0.139402 0.860028
O O17 0.500000 0.152963 0.364008
O O18 0.258963 0.201759 0.404659
O O19 0.750000 0.750000 0.500000
O O20 0.000000 0.750000 0.568980
#
# Coordination Sequence:
#
# PCOD9501355 Si02
#       7
#    16  16  16  16  16  16   8
#     4  11  20  28  42  67 102 139 174 213 258 314
#     4  10  20  33  51  71  99 133 176 225 272 332
#     4   9  16  30  54  79 105 140 179 220 271 333
#     4  10  19  32  51  77 114 154 190 228 272 336
#     4  10  19  32  49  73 100 133 177 220 270 328
#     4  10  19  36  61  85 116 156 193 234 287 340
#     4  12  26  42  64  92 122 152 195 244 285 336
#
# _framework density 19.667173999999999
#
# number of rings (size 3 to 8) (size 9 to 14) (size 15 to 20)
#    0.000    1.846    2.308    4.846    0.000    3.692 
#    0.000    0.000    0.000    0.923    0.000    3.231 
#    0.000    0.000    0.000    0.000    0.000    0.615 
#
# Total GULP energy -289839.343843 kJ/mol
# GULP energy per Si atom -5573.833535 kJ/mol
# Density = 1.962241 g / cm^3
# Si number density = 19.667174 Si / 1000 Ang^3
#
#
#
# Elastic Constant Matrix: (Units=GPa)
#
#
# Indices 1 2 3 4 5 6 
#
# 1 48.1053 13.1464 -1.5839 0.0000 0.0000 0.0000
# 2 13.1464 165.3488 42.3128 0.0000 0.0000 0.0000
# 3 -1.5839 42.3128 67.7071 0.0000 0.0000 0.0000
# 4 0.0000 0.0000 0.0000 21.1509 0.0000 0.0000
# 5 0.0000 0.0000 0.0000 0.0000 5.5349 0.0000
# 6 0.0000 0.0000 0.0000 0.0000 0.0000 18.1630
#
#
#
# Elastic Compliance Matrix: (Units=1/GPa)
#
#
# Indices 1 2 3 4 5 6 
#
# 1 0.021446 -0.002182 0.001866 0.000000 0.000000 0.000000
# 2 -0.002182 0.007421 -0.004689 0.000000 0.000000 0.000000
# 3 0.001866 -0.004689 0.017743 0.000000 0.000000 0.000000
# 4 0.000000 0.000000 0.000000 0.047279 0.000000 0.000000
# 5 0.000000 0.000000 0.000000 0.000000 0.180672 0.000000
# 6 0.000000 0.000000 0.000000 0.000000 0.000000 0.055057
#
#
# Mechanical properties :
#
#
# Convention : Reuss Voigt Hill
#
# Bulk Modulus (GPa) = 27.32335 43.21242 35.26788
# Shear Modulus (GPa) = 14.21140 24.12214 19.16677
#
# Velocity S-wave (km/s) = 2.69103 3.50597 3.12518
# Velocity P-wave (km/s) = 4.85577 6.19747 5.56719
#
# Compressibility (1/GPa) = 0.03659874
#
# Stress axis : x y z
#
# Youngs Moduli (GPa) = 46.62963 134.74855 56.35892
#
# Poissons Ratio (x) = 0.29409 -0.10514
# Poissons Ratio (y) = 0.10177 0.26426
# Poissons Ratio (z) = -0.08699 0.63182
#
# Static dielectric constant tensor:
#      x y z
#    x 1.725840 0.000000 0.000000 
#    y 0.000000 1.740650 0.000000 
#    z 0.000000 0.000000 1.686310 
# 
# From -- ./inp_files/40991.got.cif
#   From: 2010.05.17/outbox.cif.g08.bks.cpg/sg67_21_cif.got.tgz:40991.got - 2010.06.03 18:28:57.
