data_PCOD9501676
_publ_section_title
;
Structure prediction by ZEFSAII (Michael W. Deem and Ramdas Pophale) SiO2 
 PCOD9501676
Probable space group: C M M A
;
_chemical_formula_sum "Si O2"
_cell_formula_units_Z 112
_cell_length_a 14.962132
_cell_length_b 23.332085
_cell_length_c 15.012519
_cell_angle_alpha 90.000000
_cell_angle_beta 90.000000
_cell_angle_gamma 90.000000
_cell_volume 5240.836389
_symmetry_space_group_name_H-M "C M M A"
_symmetry_group_IT_number 67
_symmetry_cell_setting 'orthorhombic'
loop_
_space_group_symop_operation_xyz
x,y,z
-x,1/2-y,z
x,-y,-z
-x,1/2+y,-z
-x,-y,-z
x,1/2+y,-z
-x,y,z
x,1/2-y,z
1/2+x,1/2+y,z
1/2-x,-y,z
1/2+x,1/2-y,-z
1/2-x,y,-z
1/2-x,1/2-y,-z
1/2+x,y,-z
1/2-x,1/2+y,z
1/2+x,-y,z
loop_
_atom_site_type_symbol
_atom_site_label
_atom_site_fract_x
_atom_site_fract_y
_atom_site_fract_z
Si Si1 0.393013 0.318248 0.139082
Si Si2 0.598386 0.980295 0.662680
Si Si3 0.604758 0.589562 0.996967
Si Si4 0.103468 0.895748 0.625229
Si Si5 0.397883 0.814391 0.543285
Si Si6 0.149416 0.990413 0.853845
Si Si7 0.211452 0.131510 0.693630
O O1 0.500000 0.329008 0.155792
O O2 0.379842 0.250000 0.137635
O O3 0.370474 0.350047 0.046355
O O4 0.333324 0.348222 0.214630
O O5 0.500000 0.957761 0.638561
O O6 0.668679 0.929388 0.664740
O O7 0.618416 0.036855 0.606215
O O8 0.594923 0.005367 0.763705
O O9 0.500000 0.589693 0.016310
O O10 0.621375 0.541251 0.921107
O O11 0.648935 0.566955 0.087048
O O12 0.113169 0.859564 0.535375
O O13 0.181823 0.874800 0.691100
O O14 0.000000 0.889168 0.655719
O O15 0.500000 0.819631 0.579505
O O16 0.389279 0.750000 0.507492
O O17 0.325598 0.825098 0.619284
O O18 0.250000 0.000000 0.824826
#
# Coordination Sequence:
#
# PCOD9501676 Si02
#       7
#    16  16  16  16  16  16  16
#     4  10  21  36  57  89 124 154 192 248 306 352
#     4  11  22  38  60  91 124 155 194 247 304 356
#     4  10  19  33  54  83 117 154 192 238 294 351
#     4  10  24  41  57  84 122 161 199 242 293 352
#     4  10  22  41  64  89 118 155 201 250 296 349
#     4  11  20  33  56  87 118 152 195 240 287 354
#     4  12  21  36  63  92 120 153 197 245 301 357
#
# _framework density 21.370636000000001
#
# number of rings (size 3 to 8) (size 9 to 14) (size 15 to 20)
#    0.000    1.429    1.429    6.000    0.000    3.429 
#    0.000    3.571    0.000    2.571    0.000    4.000 
#    0.000    0.000    0.000    0.000    0.000    0.000 
#
# Total GULP energy -312998.968656 kJ/mol
# GULP energy per Si atom -5589.267297 kJ/mol
# Density = 2.132200 g / cm^3
# Si number density = 21.370636 Si / 1000 Ang^3
#
#
#
# Elastic Constant Matrix: (Units=GPa)
#
#
# Indices 1 2 3 4 5 6 
#
# 1 110.9358 32.0674 12.1458 0.0000 0.0000 0.0000
# 2 32.0674 111.2013 30.8813 0.0000 0.0000 0.0000
# 3 12.1458 30.8813 24.6661 0.0000 0.0000 0.0000
# 4 0.0000 0.0000 0.0000 32.5319 0.0000 0.0000
# 5 0.0000 0.0000 0.0000 0.000010428.8256 0.0000
# 6 0.0000 0.0000 0.0000 0.0000 0.0000 315.4256
#
#
#
# Elastic Compliance Matrix: (Units=1/GPa)
#
#
# Indices 1 2 3 4 5 6 
#
# 1 0.009897 -0.002301 -0.001993 0.000000 0.000000 0.000000
# 2 -0.002301 0.014320 -0.016796 0.000000 0.000000 0.000000
# 3 -0.001993 -0.016796 0.062551 0.000000 0.000000 0.000000
# 4 0.000000 0.000000 0.000000 0.030739 0.000000 0.000000
# 5 0.000000 0.000000 0.000000 0.000000 0.000096 0.000000
# 6 0.000000 0.000000 0.000000 0.000000 0.000000 0.003170
#
#
# Mechanical properties :
#
#
# Convention : Reuss Voigt Hill
#
# Bulk Modulus (GPa) = 22.42695 44.11024 33.26859
# Shear Modulus (GPa) = 28.11877 2166.80387 1097.46132
#
# Velocity S-wave (km/s) = 3.63128 31.87660 22.68594
# Velocity P-wave (km/s) = 5.30082 37.08785 26.49158
#
# Compressibility (1/GPa) = 0.04458922
#
# Stress axis : x y z
#
# Youngs Moduli (GPa) = 101.03580 69.83012 15.98693
#
# Poissons Ratio (x) = 0.16065 0.03187
# Poissons Ratio (y) = 0.23244 0.26852
# Poissons Ratio (z) = 0.20140 1.17287
#
# Static dielectric constant tensor:
#      x y z
#    x 1.801130 0.000000 0.000000 
#    y 0.000000 1.794440 0.000000 
#    z 0.000000 0.000000 1.767880 
# 
# From -- ./inp_files/27594.got.cif
#   From: 2010.05.17/outbox.cif.g08.bks.cpg/sg67_14_cif.got.tgz:27594.got - 2010.06.03 18:28:57.
