data_PCOD9501723
_publ_section_title
;
Structure prediction by ZEFSAII (Michael W. Deem and Ramdas Pophale) SiO2 
 PCOD9501723
Probable space group: C M M A
;
_chemical_formula_sum "Si O2"
_cell_formula_units_Z 112
_cell_length_a 29.787421
_cell_length_b 18.335083
_cell_length_c 12.365791
_cell_angle_alpha 90.000000
_cell_angle_beta 90.000000
_cell_angle_gamma 90.000000
_cell_volume 6753.636560
_symmetry_space_group_name_H-M "C M M A"
_symmetry_group_IT_number 67
_symmetry_cell_setting 'orthorhombic'
loop_
_space_group_symop_operation_xyz
x,y,z
-x,1/2-y,z
x,-y,-z
-x,1/2+y,-z
-x,-y,-z
x,1/2+y,-z
-x,y,z
x,1/2-y,z
1/2+x,1/2+y,z
1/2-x,-y,z
1/2+x,1/2-y,-z
1/2-x,y,-z
1/2-x,1/2-y,-z
1/2+x,y,-z
1/2-x,1/2+y,z
1/2+x,-y,z
loop_
_atom_site_type_symbol
_atom_site_label
_atom_site_fract_x
_atom_site_fract_y
_atom_site_fract_z
Si Si1 0.551824 0.045098 0.388037
Si Si2 0.660222 0.580585 0.032003
Si Si3 0.616024 0.038884 0.762862
Si Si4 0.626605 0.167469 0.403981
Si Si5 0.338845 0.334213 0.634351
Si Si6 0.731066 0.163595 0.816580
Si Si7 0.329080 0.603328 0.799120
O O1 0.500000 0.063907 0.369070
O O2 0.584672 0.113401 0.403019
O O3 0.554557 0.000000 0.500000
O O4 0.572613 0.998958 0.288225
O O5 0.618794 0.565590 0.113150
O O6 0.696181 0.628677 0.097643
O O7 0.678893 0.500000 0.000000
O O8 0.648493 0.614967 0.916591
O O9 0.628488 0.107604 0.689439
O O10 0.655714 0.977396 0.759788
O O11 0.610905 0.250000 0.414493
O O12 0.659035 0.152323 0.506438
O O13 0.653352 0.156413 0.293301
O O14 0.352798 0.250000 0.653175
O O15 0.292154 0.342417 0.698469
O O16 0.738438 0.250000 0.839087
O O17 0.776770 0.118204 0.817307
#
# Coordination Sequence:
#
# PCOD9501723 Si02
#       7
#    16  16  16  16  16  16  16
#     4  10  19  33  57  84 105 126 160 212 264 319
#     4   9  19  33  50  70  99 137 177 220 255 296
#     4   9  18  34  53  71 103 134 166 207 262 311
#     4  10  20  34  52  73 107 140 165 207 258 320
#     4   9  18  32  49  70  99 137 172 206 258 311
#     4  10  20  32  48  72 102 137 180 227 263 298
#     4  10  20  30  48  73 100 138 180 214 251 297
#
# _framework density 16.583658
#
# number of rings (size 3 to 8) (size 9 to 14) (size 15 to 20)
#    0.000    2.429    1.429    0.857    0.000    9.429 
#    0.000    2.143    0.000   16.286    0.000    0.000 
#    0.000    0.000    0.000    0.000    0.000    0.000 
#
# Total GULP energy -311793.791556 kJ/mol
# GULP energy per Si atom -5567.746278 kJ/mol
# Density = 1.654591 g / cm^3
# Si number density = 16.583658 Si / 1000 Ang^3
#
#
#
# Elastic Constant Matrix: (Units=GPa)
#
#
# Indices 1 2 3 4 5 6 
#
# 1 29.7437 6.9734 37.7536 0.0000 0.0000 0.0000
# 2 6.9734 32.2147 36.0099 0.0000 0.0000 0.0000
# 3 37.7536 36.0099 130.6400 0.0000 0.0000 0.0000
# 4 0.0000 0.0000 0.0000 26.1932 0.0000 0.0000
# 5 0.0000 0.0000 0.0000 0.0000 16.9382 0.0000
# 6 0.0000 0.0000 0.0000 0.0000 0.0000 7.0251
#
#
#
# Elastic Compliance Matrix: (Units=1/GPa)
#
#
# Indices 1 2 3 4 5 6 
#
# 1 0.054631 0.008415 -0.018107 0.000000 0.000000 0.000000
# 2 0.008415 0.046162 -0.015156 0.000000 0.000000 0.000000
# 3 -0.018107 -0.015156 0.017065 0.000000 0.000000 0.000000
# 4 0.000000 0.000000 0.000000 0.038178 0.000000 0.000000
# 5 0.000000 0.000000 0.000000 0.000000 0.059038 0.000000
# 6 0.000000 0.000000 0.000000 0.000000 0.000000 0.142346
#
#
# Mechanical properties :
#
#
# Convention : Reuss Voigt Hill
#
# Bulk Modulus (GPa) = 14.67113 39.34133 27.00623
# Shear Modulus (GPa) = 11.63232 17.48876 14.56054
#
# Velocity S-wave (km/s) = 2.65133 3.25095 2.96633
# Velocity P-wave (km/s) = 4.27068 6.15354 5.29645
#
# Compressibility (1/GPa) = 0.06816106
#
# Stress axis : x y z
#
# Youngs Moduli (GPa) = 18.30455 21.66302 58.59934
#
# Poissons Ratio (x) = -0.18229 1.06108
# Poissons Ratio (y) = -0.15403 0.88812
# Poissons Ratio (z) = 0.33145 0.32832
#
# Static dielectric constant tensor:
#      x y z
#    x 1.520360 0.000000 0.000000 
#    y 0.000000 1.584590 0.000000 
#    z 0.000000 0.000000 1.596430 
# 
# From -- ./inp_files/23147.got.cif
#   From: 2010.05.17/outbox.cif.g08.bks.cpg/sg67_12_cif.got.tgz:23147.got - 2010.06.03 18:28:57.
