data_PCOD9501990
_publ_section_title
;
Structure prediction by ZEFSAII (Michael W. Deem and Ramdas Pophale) SiO2 
 PCOD9501990
Probable space group: C M M A
;
_chemical_formula_sum "Si O2"
_cell_formula_units_Z 88
_cell_length_a 8.690489
_cell_length_b 27.904651
_cell_length_c 19.359363
_cell_angle_alpha 90.000000
_cell_angle_beta 90.000000
_cell_angle_gamma 90.000000
_cell_volume 4694.743536
_symmetry_space_group_name_H-M "C M M A"
_symmetry_group_IT_number 67
_symmetry_cell_setting 'orthorhombic'
loop_
_space_group_symop_operation_xyz
x,y,z
-x,1/2-y,z
x,-y,-z
-x,1/2+y,-z
-x,-y,-z
x,1/2+y,-z
-x,y,z
x,1/2-y,z
1/2+x,1/2+y,z
1/2-x,-y,z
1/2+x,1/2-y,-z
1/2-x,y,-z
1/2-x,1/2-y,-z
1/2+x,y,-z
1/2-x,1/2+y,z
1/2+x,-y,z
loop_
_atom_site_type_symbol
_atom_site_label
_atom_site_fract_x
_atom_site_fract_y
_atom_site_fract_z
Si Si1 0.684676 0.344810 0.840315
Si Si2 0.312868 0.750000 0.077149
Si Si3 0.814251 0.449149 0.177614
Si Si4 0.184824 0.949791 0.660835
Si Si5 0.679137 0.805953 0.702452
Si Si6 0.184524 0.144198 0.423496
O O1 0.500000 0.344916 0.844710
O O2 0.739593 0.299081 0.884684
O O3 0.736532 0.399120 0.857851
O O4 0.731275 0.334564 0.761427
O O5 0.500000 0.750000 0.077366
O O6 0.250000 0.750000 0.000000
O O7 0.750000 0.500000 0.151543
O O8 0.767275 0.444951 0.258739
O O9 0.000000 0.451269 0.175157
O O10 0.233480 0.905507 0.613597
O O11 0.000000 0.951191 0.660547
O O12 0.250000 0.000000 0.634708
O O13 0.500000 0.819703 0.702707
O O14 0.691180 0.750000 0.719467
O O15 0.750731 0.815737 0.627867
O O16 0.250000 0.147776 0.500000
O O17 0.000000 0.146063 0.425157
#
# Coordination Sequence:
#
# PCOD9501990 Si02
#       6
#    16   8  16  16  16  16
#     4  10  19  36  61  86 115 155 193 227 278 337
#     4  10  22  38  62  92 125 158 187 228 278 330
#     4   9  17  31  52  82 113 144 188 233 280 335
#     4   9  18  32  51  74 103 138 177 228 281 335
#     4  11  23  37  56  83 109 138 182 234 284 339
#     4  11  23  39  55  74 103 143 188 235 287 343
#
# _framework density 18.744368000000001
#
# number of rings (size 3 to 8) (size 9 to 14) (size 15 to 20)
#    0.000    2.000    2.727    1.091    0.000    4.727 
#    0.000    1.818    0.000    0.545    0.000    3.818 
#    0.000    0.000    0.000    0.000    0.000    0.000 
#
# Total GULP energy -245424.699092 kJ/mol
# GULP energy per Si atom -5577.834070 kJ/mol
# Density = 1.870170 g / cm^3
# Si number density = 18.744368 Si / 1000 Ang^3
#
#
#
# Elastic Constant Matrix: (Units=GPa)
#
#
# Indices 1 2 3 4 5 6 
#
# 1 -12.5600 20.3226 2.7138 0.0000 0.0000 0.0000
# 2 20.3226 136.3743 47.1623 0.0000 0.0000 0.0000
# 3 2.7138 47.1623 54.9571 0.0000 0.0000 0.0000
# 4 0.0000 0.0000 0.0000 16.3785 0.0000 0.0000
# 5 0.0000 0.0000 0.0000 0.0000 24.2675 0.0000
# 6 0.0000 0.0000 0.0000 0.0000 0.0000 25.9099
#
#
#
# Elastic Compliance Matrix: (Units=1/GPa)
#
#
# Indices 1 2 3 4 5 6 
#
# 1 -0.062227 0.011676 -0.006947 0.000000 0.000000 0.000000
# 2 0.011676 0.008237 -0.007645 0.000000 0.000000 0.000000
# 3 -0.006947 -0.007645 0.025100 0.000000 0.000000 0.000000
# 4 0.000000 0.000000 0.000000 0.061056 0.000000 0.000000
# 5 0.000000 0.000000 0.000000 0.000000 0.041207 0.000000
# 6 0.000000 0.000000 0.000000 0.000000 0.000000 0.038595
#
#
# Mechanical properties :
#
#
# Convention : Reuss Voigt Hill
#
# Bulk Modulus (GPa) = -28.79931 35.46319 3.33194
# Shear Modulus (GPa) = 47.06945 20.54935 33.80940
#
# Velocity S-wave (km/s) = 5.01655 3.31463 4.25162
# Velocity P-wave (km/s) = 4.26107 5.79737 5.08754
#
# Compressibility (1/GPa) = -0.03472306
#
# Stress axis : x y z
#
# Youngs Moduli (GPa) = -16.07019 121.40728 39.84101
#
# Poissons Ratio (x) = -1.41750 0.27677
# Poissons Ratio (y) = 0.18763 0.30459
# Poissons Ratio (z) = -0.11164 0.92816
#
# Static dielectric constant tensor:
#      x y z
#    x 1.636490 0.000000 0.000000 
#    y 0.000000 1.692200 0.000000 
#    z 0.000000 0.000000 1.609020 
# 
# From -- ./inp_files/32454.got.cif
#   From: 2010.05.17/outbox.cif.g08.bks.cpg/sg67_17_cif.got.tgz:32454.got - 2010.06.03 18:28:57.
