data_PCOD9501036
_publ_section_title
;
Structure prediction by ZEFSAII (Michael W. Deem and Ramdas Pophale) SiO2 
 PCOD9501036
Probable space group: C M M A
;
_chemical_formula_sum "Si O2"
_cell_formula_units_Z 96
_cell_length_a 27.902201
_cell_length_b 8.909836
_cell_length_c 24.653515
_cell_angle_alpha 90.000000
_cell_angle_beta 90.000000
_cell_angle_gamma 90.000000
_cell_volume 6128.963305
_symmetry_space_group_name_H-M "C M M A"
_symmetry_group_IT_number 67
_symmetry_cell_setting 'orthorhombic'
loop_
_space_group_symop_operation_xyz
x,y,z
-x,1/2-y,z
x,-y,-z
-x,1/2+y,-z
-x,-y,-z
x,1/2+y,-z
-x,y,z
x,1/2-y,z
1/2+x,1/2+y,z
1/2-x,-y,z
1/2+x,1/2-y,-z
1/2-x,y,-z
1/2-x,1/2-y,-z
1/2+x,y,-z
1/2-x,1/2+y,z
1/2+x,-y,z
loop_
_atom_site_type_symbol
_atom_site_label
_atom_site_fract_x
_atom_site_fract_y
_atom_site_fract_z
Si Si1 0.196910 0.429315 0.674275
Si Si2 0.945062 0.569900 0.168279
Si Si3 0.893336 0.570884 0.056304
Si Si4 0.144891 0.928620 0.775825
Si Si5 0.301979 0.429528 0.888411
Si Si6 0.803330 0.070745 0.553640
O O1 0.201214 0.250000 0.679344
O O2 0.250000 0.500000 0.678501
O O3 0.164768 0.494374 0.722048
O O4 0.176728 0.461882 0.613692
O O5 0.941069 0.750000 0.175426
O O6 0.928582 0.537059 0.106560
O O7 0.907031 0.489552 0.206953
O O8 0.000000 0.525675 0.177129
O O9 0.889108 0.750000 0.051394
O O10 0.842023 0.500816 0.072639
O O11 0.909822 0.500000 0.000000
O O12 0.143790 0.750000 0.769033
O O13 0.179859 0.962357 0.827004
O O14 0.300707 0.250000 0.895357
O O15 0.250000 0.500000 0.897253
O O16 0.800045 0.250000 0.547163
O O17 0.827049 0.000000 0.500000
O O18 0.750000 0.000000 0.555539
#
# Coordination Sequence:
#
# PCOD9501036 Si02
#       6
#    16  16  16  16  16  16
#     4  10  19  29  43  65  94 128 163 196 230 270
#     4   9  19  36  55  72  92 119 147 180 228 279
#     4  10  20  34  51  71  94 118 147 182 220 266
#     4  10  20  32  48  70  94 120 152 191 231 272
#     4  10  20  33  48  67  91 120 153 186 223 265
#     4   9  16  25  38  57  84 121 161 197 230 263
#
# _framework density 15.663334000000001
#
# number of rings (size 3 to 8) (size 9 to 14) (size 15 to 20)
#    0.000    2.333    0.000    3.500    0.000    7.000 
#    0.000    1.667    0.000    0.000    0.000    0.000 
#    0.000    0.667    0.000    2.167    0.000    3.000 
#
# Total GULP energy -267700.921984 kJ/mol
# GULP energy per Si atom -5577.102541 kJ/mol
# Density = 1.562768 g / cm^3
# Si number density = 15.663334 Si / 1000 Ang^3
#
#
#
# Elastic Constant Matrix: (Units=GPa)
#
#
# Indices 1 2 3 4 5 6 
#
# 1 65.3475 23.2156 26.9228 0.0000 0.0000 0.0000
# 2 23.2156 54.1000 48.1621 0.0000 0.0000 0.0000
# 3 26.9228 48.1621 118.7389 0.0000 0.0000 0.0000
# 4 0.0000 0.0000 0.0000 29.7798 0.0000 0.0000
# 5 0.0000 0.0000 0.0000 0.0000 9.9347 0.0000
# 6 0.0000 0.0000 0.0000 0.0000 0.0000 20.2022
#
#
#
# Elastic Compliance Matrix: (Units=1/GPa)
#
#
# Indices 1 2 3 4 5 6 
#
# 1 0.018225 -0.006483 -0.001503 0.000000 0.000000 0.000000
# 2 -0.006483 0.031237 -0.011200 0.000000 0.000000 0.000000
# 3 -0.001503 -0.011200 0.013306 0.000000 0.000000 0.000000
# 4 0.000000 0.000000 0.000000 0.033580 0.000000 0.000000
# 5 0.000000 0.000000 0.000000 0.000000 0.100657 0.000000
# 6 0.000000 0.000000 0.000000 0.000000 0.000000 0.049500
#
#
# Mechanical properties :
#
#
# Convention : Reuss Voigt Hill
#
# Bulk Modulus (GPa) = 40.99064 48.30971 44.65018
# Shear Modulus (GPa) = 17.06435 21.30908 19.18672
#
# Velocity S-wave (km/s) = 3.30426 3.69242 3.50372
# Velocity P-wave (km/s) = 6.38624 7.00629 6.70344
#
# Compressibility (1/GPa) = 0.02439581
#
# Stress axis : x y z
#
# Youngs Moduli (GPa) = 54.86942 32.01306 75.15650
#
# Poissons Ratio (x) = 0.20754 0.11294
# Poissons Ratio (y) = 0.35572 0.84178
# Poissons Ratio (z) = 0.08246 0.35856
#
# Static dielectric constant tensor:
#      x y z
#    x 1.484660 0.000000 0.000000 
#    y 0.000000 1.520220 0.000000 
#    z 0.000000 0.000000 1.550200 
# 
# From -- ./inp_files/37201.got.cif
#   From: 2010.05.17/outbox.cif.g08.bks.cpg/sg67_19_cif.got.tgz:37201.got - 2010.06.03 18:28:57.
