data_PCOD9501046
_publ_section_title
;
Structure prediction by ZEFSAII (Michael W. Deem and Ramdas Pophale) SiO2 
 PCOD9501046
Probable space group: C M M A
;
_chemical_formula_sum "Si O2"
_cell_formula_units_Z 64
_cell_length_a 8.694738
_cell_length_b 26.247525
_cell_length_c 15.824856
_cell_angle_alpha 90.000000
_cell_angle_beta 90.000000
_cell_angle_gamma 90.000000
_cell_volume 3611.475099
_symmetry_space_group_name_H-M "C M M A"
_symmetry_group_IT_number 67
_symmetry_cell_setting 'orthorhombic'
loop_
_space_group_symop_operation_xyz
x,y,z
-x,1/2-y,z
x,-y,-z
-x,1/2+y,-z
-x,-y,-z
x,1/2+y,-z
-x,y,z
x,1/2-y,z
1/2+x,1/2+y,z
1/2-x,-y,z
1/2+x,1/2-y,-z
1/2-x,y,-z
1/2-x,1/2-y,-z
1/2+x,y,-z
1/2-x,1/2+y,z
1/2+x,-y,z
loop_
_atom_site_type_symbol
_atom_site_label
_atom_site_fract_x
_atom_site_fract_y
_atom_site_fract_z
Si Si1 0.684458 0.555582 0.593449
Si Si2 0.685297 0.859694 0.281567
Si Si3 0.173112 0.250000 0.899694
Si Si4 0.172150 0.750000 0.301042
Si Si5 0.182124 0.859164 0.913282
O O1 0.500000 0.554012 0.590732
O O2 0.750000 0.500000 0.617308
O O3 0.750000 0.566792 0.500000
O O4 0.743411 0.597810 0.658265
O O5 0.500000 0.860305 0.283688
O O6 0.741202 0.803816 0.314001
O O7 0.732587 0.871905 0.183386
O O8 0.154077 0.250000 0.799596
O O9 0.269354 0.199861 0.917848
O O10 0.000000 0.250000 0.936647
O O11 0.000000 0.750000 0.339586
O O12 0.000000 0.865192 0.916933
O O13 0.250000 0.883279 0.000000
#
# Coordination Sequence:
#
# PCOD9501046 Si02
#       5
#    16  16   8   8  16
#     4  11  22  39  63  88 111 136 171 219 269 320
#     4  10  20  35  54  79 111 147 183 223 270 320
#     4   9  16  26  41  62  94 134 180 225 264 306
#     4   9  17  30  49  76 108 146 185 221 265 320
#     4  10  19  29  44  67 100 139 180 221 262 309
#
# _framework density 17.72129
#
# number of rings (size 3 to 8) (size 9 to 14) (size 15 to 20)
#    0.000    2.000    0.000    5.625    0.000    6.000 
#    0.000    0.625    0.000    0.750    0.000    5.250 
#    0.000    0.000    0.000    0.000    0.000    0.000 
#
# Total GULP energy -178177.229637 kJ/mol
# GULP energy per Si atom -5568.038426 kJ/mol
# Density = 1.768096 g / cm^3
# Si number density = 17.721290 Si / 1000 Ang^3
#
#
#
# Elastic Constant Matrix: (Units=GPa)
#
#
# Indices 1 2 3 4 5 6 
#
# 1 103.7854 53.0630 53.2074 0.0000 0.0000 0.0000
# 2 53.0630 102.9633 92.5620 0.0000 0.0000 0.0000
# 3 53.2074 92.5620 106.2351 0.0000 0.0000 0.0000
# 4 0.0000 0.0000 0.0000 -126.3767 0.0000 0.0000
# 5 0.0000 0.0000 0.0000 0.0000 29.0229 0.0000
# 6 0.0000 0.0000 0.0000 0.0000 0.0000 24.5300
#
#
#
# Elastic Compliance Matrix: (Units=1/GPa)
#
#
# Indices 1 2 3 4 5 6 
#
# 1 0.013312 -0.003999 -0.003183 0.000000 0.000000 0.000000
# 2 -0.003999 0.046015 -0.038090 0.000000 0.000000 0.000000
# 3 -0.003183 -0.038090 0.044195 0.000000 0.000000 0.000000
# 4 0.000000 0.000000 0.000000 -0.007913 0.000000 0.000000
# 5 0.000000 0.000000 0.000000 0.000000 0.034455 0.000000
# 6 0.000000 0.000000 0.000000 0.000000 0.000000 0.040766
#
#
# Mechanical properties :
#
#
# Convention : Reuss Voigt Hill
#
# Bulk Modulus (GPa) = 77.05264 78.96096 78.00680
# Shear Modulus (GPa) = 18.81827 -6.95467 5.93180
#
# Velocity S-wave (km/s) = 3.26222 -1.98318 1.83154
# Velocity P-wave (km/s) = 7.60027 6.27773 6.97044
#
# Compressibility (1/GPa) = 0.01297814
#
# Stress axis : x y z
#
# Youngs Moduli (GPa) = 75.12277 21.73200 22.62725
#
# Poissons Ratio (x) = 0.08691 0.07202
# Poissons Ratio (y) = 0.30042 0.86187
# Poissons Ratio (z) = 0.23909 0.82777
#
# Static dielectric constant tensor:
#      x y z
#    x 1.633480 0.000000 0.000000 
#    y 0.000000 1.575900 0.000000 
#    z 0.000000 0.000000 1.661630 
# 
# From -- ./inp_files/24833.got.cif
#   From: 2010.05.17/outbox.cif.g08.bks.cpg/sg67_13_cif.got.tgz:24833.got - 2010.06.03 18:28:57.
