data_PCOD9501861
_publ_section_title
;
Structure prediction by ZEFSAII (Michael W. Deem and Ramdas Pophale) SiO2 
 PCOD9501861
Probable space group: C M M A
;
_chemical_formula_sum "Si O2"
_cell_formula_units_Z 48
_cell_length_a 16.769056
_cell_length_b 25.842768
_cell_length_c 5.228443
_cell_angle_alpha 90.000000
_cell_angle_beta 90.000000
_cell_angle_gamma 90.000000
_cell_volume 2265.791909
_symmetry_space_group_name_H-M "C M M A"
_symmetry_group_IT_number 67
_symmetry_cell_setting 'orthorhombic'
loop_
_space_group_symop_operation_xyz
x,y,z
-x,1/2-y,z
x,-y,-z
-x,1/2+y,-z
-x,-y,-z
x,1/2+y,-z
-x,y,z
x,1/2-y,z
1/2+x,1/2+y,z
1/2-x,-y,z
1/2+x,1/2-y,-z
1/2-x,y,-z
1/2-x,1/2-y,-z
1/2+x,y,-z
1/2-x,1/2+y,z
1/2+x,-y,z
loop_
_atom_site_type_symbol
_atom_site_label
_atom_site_fract_x
_atom_site_fract_y
_atom_site_fract_z
Si Si1 0.592349 0.309880 0.634065
Si Si2 0.664741 0.355967 0.128008
Si Si3 0.659332 0.976912 0.752863
O O1 0.500000 0.315187 0.556576
O O2 0.607700 0.250000 0.702764
O O3 0.644225 0.324933 0.385866
O O4 0.607189 0.343544 0.888974
O O5 0.663660 0.415658 0.217848
O O6 0.750000 0.344158 0.000000
O O7 0.621094 0.000000 0.500000
O O8 0.750000 0.000000 0.751682
O O9 0.617948 0.000000 0.000000
#
# Coordination Sequence:
#
# PCOD9501861 Si02
#       3
#    16  16  16
#     4  11  26  46  65  90 137 186 214 260 341 403
#     4  12  23  39  71 105 124 166 230 280 314 380
#     4  10  19  34  59  95 126 166 198 258 327 397
#
# _framework density 21.184647999999999
#
# number of rings (size 3 to 8) (size 9 to 14) (size 15 to 20)
#    0.000    1.000    3.333    5.000    4.667    6.667 
#    0.000    0.000    0.000   20.000    0.000    0.000 
#    0.000    0.000    0.000    0.000    0.000    0.000 
#
# Total GULP energy -133988.594696 kJ/mol
# GULP energy per Si atom -5582.858112 kJ/mol
# Density = 2.113643 g / cm^3
# Si number density = 21.184648 Si / 1000 Ang^3
#
#
#
# Elastic Constant Matrix: (Units=GPa)
#
#
# Indices 1 2 3 4 5 6 
#
# 1 41.6823 42.0858 23.0629 0.0000 0.0000 0.0000
# 2 42.0858 116.2338 51.7592 0.0000 0.0000 0.0000
# 3 23.0629 51.7592 193.6758 0.0000 0.0000 0.0000
# 4 0.0000 0.0000 0.0000 47.1263 0.0000 0.0000
# 5 0.0000 0.0000 0.0000 0.0000 -34.8358 0.0000
# 6 0.0000 0.0000 0.0000 0.0000 0.0000 69.8323
#
#
#
# Elastic Compliance Matrix: (Units=1/GPa)
#
#
# Indices 1 2 3 4 5 6 
#
# 1 0.037973 -0.013321 -0.000962 0.000000 0.000000 0.000000
# 2 -0.013321 0.014438 -0.002272 0.000000 0.000000 0.000000
# 3 -0.000962 -0.002272 0.005885 0.000000 0.000000 0.000000
# 4 0.000000 0.000000 0.000000 0.021220 0.000000 0.000000
# 5 0.000000 0.000000 0.000000 0.000000 -0.028706 0.000000
# 6 0.000000 0.000000 0.000000 0.000000 0.000000 0.014320
#
#
# Mechanical properties :
#
#
# Convention : Reuss Voigt Hill
#
# Bulk Modulus (GPa) = 39.70415 65.04531 52.37473
# Shear Modulus (GPa) = 46.88852 32.07016 39.47934
#
# Velocity S-wave (km/s) = 4.70970 3.89503 4.32161
# Velocity P-wave (km/s) = 6.95397 7.14136 7.04829
#
# Compressibility (1/GPa) = 0.02518629
#
# Stress axis : x y z
#
# Youngs Moduli (GPa) = 26.33445 69.25937 169.92096
#
# Poissons Ratio (x) = 0.92260 0.16344
# Poissons Ratio (y) = 0.35080 0.38612
# Poissons Ratio (z) = 0.02533 0.15738
#
# Static dielectric constant tensor:
#      x y z
#    x 1.764890 0.000000 0.000000 
#    y 0.000000 1.764090 0.000000 
#    z 0.000000 0.000000 1.760130 
# 
# From -- ./inp_files/1162.got.cif
#   From: 2010.05.17/outbox.cif.g08.bks.cpg/sg67_1_cif.got.tgz:1162.got - 2010.06.03 18:28:57.
