data_PCOD9501887
_publ_section_title
;
Structure prediction by ZEFSAII (Michael W. Deem and Ramdas Pophale) SiO2 
 PCOD9501887
Probable space group: C M M A
;
_chemical_formula_sum "Si O2"
_cell_formula_units_Z 116
_cell_length_a 17.578726
_cell_length_b 18.118156
_cell_length_c 18.673047
_cell_angle_alpha 90.000000
_cell_angle_beta 90.000000
_cell_angle_gamma 90.000000
_cell_volume 5947.255298
_symmetry_space_group_name_H-M "C M M A"
_symmetry_group_IT_number 67
_symmetry_cell_setting 'orthorhombic'
loop_
_space_group_symop_operation_xyz
x,y,z
-x,1/2-y,z
x,-y,-z
-x,1/2+y,-z
-x,-y,-z
x,1/2+y,-z
-x,y,z
x,1/2-y,z
1/2+x,1/2+y,z
1/2-x,-y,z
1/2+x,1/2-y,-z
1/2-x,y,-z
1/2-x,1/2-y,-z
1/2+x,y,-z
1/2-x,1/2+y,z
1/2+x,-y,z
loop_
_atom_site_type_symbol
_atom_site_label
_atom_site_fract_x
_atom_site_fract_y
_atom_site_fract_z
Si Si1 0.408317 0.833606 0.061711
Si Si2 0.088404 0.976653 0.846392
Si Si3 0.090758 0.015934 0.579718
Si Si4 0.000000 0.750000 0.129923
Si Si5 0.724760 0.335054 0.222746
Si Si6 0.870320 0.129064 0.905663
Si Si7 0.823557 0.547471 0.705787
Si Si8 0.911123 0.834850 0.335695
O O1 0.500000 0.837540 0.044226
O O2 0.394225 0.750000 0.087129
O O3 0.392254 0.898643 0.117083
O O4 0.363824 0.848000 0.988133
O O5 0.135404 0.988278 0.774217
O O6 0.000000 0.974548 0.827007
O O7 0.102111 0.044832 0.899281
O O8 0.105973 0.099223 0.608708
O O9 0.000000 0.008525 0.578386
O O10 0.120375 0.000000 0.500000
O O11 0.123229 0.958287 0.637296
O O12 0.933184 0.814525 0.125879
O O13 0.743005 0.250000 0.215473
O O14 0.703947 0.365213 0.144241
O O15 0.791218 0.375835 0.265478
O O16 0.648027 0.342174 0.270855
O O17 0.750000 0.500000 0.686895
O O18 0.903734 0.750000 0.363093
O O19 0.000000 0.842784 0.312440
#
# Coordination Sequence:
#
# PCOD9501887 Si02
#       8
#    16  16  16   4  16  16  16  16
#     4  10  19  35  55  84 117 154 205 264 311 356
#     4  11  23  36  61  86 114 155 203 254 307 361
#     4  10  21  40  67  95 120 153 193 237 288 349
#     4  12  20  28  58  92 124 144 194 274 328 354
#     4  11  23  36  57  84 122 163 199 246 301 359
#     4  12  19  33  56  89 119 150 199 259 319 361
#     4  12  23  41  58  85 122 158 194 235 288 360
#     4   9  18  32  56  89 122 150 189 240 297 349
#
# _framework density 19.504795999999999
#
# number of rings (size 3 to 8) (size 9 to 14) (size 15 to 20)
#    0.000    1.241    5.517    0.828    0.966    3.034 
#    0.000    1.379    0.000    5.379    0.000    0.000 
#    0.000    0.000    0.000    0.000    0.000    0.000 
#
# Total GULP energy -323413.416235 kJ/mol
# GULP energy per Si atom -5576.093383 kJ/mol
# Density = 1.946040 g / cm^3
# Si number density = 19.504796 Si / 1000 Ang^3
#
#
#
# Elastic Constant Matrix: (Units=GPa)
#
#
# Indices 1 2 3 4 5 6 
#
# 1 25.9023 21.3179 8.8033 0.0000 0.0000 0.0000
# 2 21.3179 99.9248 20.4639 0.0000 0.0000 0.0000
# 3 8.8033 20.4639 62.9895 0.0000 0.0000 0.0000
# 4 0.0000 0.0000 0.0000 15.8414 0.0000 0.0000
# 5 0.0000 0.0000 0.0000 0.0000 18.7011 0.0000
# 6 0.0000 0.0000 0.0000 0.0000 0.0000 25.7620
#
#
#
# Elastic Compliance Matrix: (Units=1/GPa)
#
#
# Indices 1 2 3 4 5 6 
#
# 1 0.047575 -0.009414 -0.003591 0.000000 0.000000 0.000000
# 2 -0.009414 0.012584 -0.002772 0.000000 0.000000 0.000000
# 3 -0.003591 -0.002772 0.017278 0.000000 0.000000 0.000000
# 4 0.000000 0.000000 0.000000 0.063126 0.000000 0.000000
# 5 0.000000 0.000000 0.000000 0.000000 0.053473 0.000000
# 6 0.000000 0.000000 0.000000 0.000000 0.000000 0.038817
#
#
# Mechanical properties :
#
#
# Convention : Reuss Voigt Hill
#
# Bulk Modulus (GPa) = 21.79489 32.22076 27.00782
# Shear Modulus (GPa) = 17.87627 21.27636 19.57631
#
# Velocity S-wave (km/s) = 3.03067 3.30635 3.17151
# Velocity P-wave (km/s) = 4.84200 5.57953 5.22380
#
# Compressibility (1/GPa) = 0.04588232
#
# Stress axis : x y z
#
# Youngs Moduli (GPa) = 21.01948 79.46767 57.87647
#
# Poissons Ratio (x) = 0.74813 0.20781
# Poissons Ratio (y) = 0.19788 0.16046
# Poissons Ratio (z) = 0.07547 0.22032
#
# Static dielectric constant tensor:
#      x y z
#    x 1.729530 0.000000 0.000000 
#    y 0.000000 1.701710 0.000000 
#    z 0.000000 0.000000 1.667690 
# 
# From -- ./inp_files/34370.got.cif
#   From: 2010.05.17/outbox.cif.g08.bks.cpg/sg67_18_cif.got.tgz:34370.got - 2010.06.03 18:28:57.
