data_PCOD9501954
_publ_section_title
;
Structure prediction by ZEFSAII (Michael W. Deem and Ramdas Pophale) SiO2 
 PCOD9501954
Probable space group: C M M A
;
_chemical_formula_sum "Si O2"
_cell_formula_units_Z 64
_cell_length_a 9.849080
_cell_length_b 15.551112
_cell_length_c 23.116501
_cell_angle_alpha 90.000000
_cell_angle_beta 90.000000
_cell_angle_gamma 90.000000
_cell_volume 3540.619138
_symmetry_space_group_name_H-M "C M M A"
_symmetry_group_IT_number 67
_symmetry_cell_setting 'orthorhombic'
loop_
_space_group_symop_operation_xyz
x,y,z
-x,1/2-y,z
x,-y,-z
-x,1/2+y,-z
-x,-y,-z
x,1/2+y,-z
-x,y,z
x,1/2-y,z
1/2+x,1/2+y,z
1/2-x,-y,z
1/2+x,1/2-y,-z
1/2-x,y,-z
1/2-x,1/2-y,-z
1/2+x,y,-z
1/2-x,1/2+y,z
1/2+x,-y,z
loop_
_atom_site_type_symbol
_atom_site_label
_atom_site_fract_x
_atom_site_fract_y
_atom_site_fract_z
Si Si1 0.331381 0.585037 0.560205
Si Si2 0.758282 0.096628 0.854823
Si Si3 0.664871 0.250000 0.229098
Si Si4 0.662520 0.750000 0.638926
Si Si5 0.500000 0.854903 0.937996
Si Si6 0.500000 0.647002 0.071602
O O1 0.500000 0.574788 0.553767
O O2 0.250000 0.500000 0.581647
O O3 0.250000 0.603075 0.500000
O O4 0.304759 0.664478 0.602824
O O5 0.783778 0.166316 0.805087
O O6 0.626208 0.116439 0.891676
O O7 0.874496 0.108876 0.902527
O O8 0.750000 0.000000 0.831693
O O9 0.500000 0.250000 0.226770
O O10 0.713736 0.250000 0.295363
O O11 0.500000 0.750000 0.643973
O O12 0.500000 0.750000 0.934952
O O13 0.500000 0.881584 0.004892
O O14 0.500000 0.750000 0.069424
#
# Coordination Sequence:
#
# PCOD9501954 Si02
#       6
#    16  16   8   8   8   8
#     4  10  19  35  61  93 127 158 193 238 289 338
#     4  12  23  38  62  84 112 150 190 239 295 349
#     4  11  22  44  61  80 114 157 204 237 283 350
#     4   9  21  37  61  84 115 161 205 240 278 339
#     4  11  21  41  61  86 109 157 184 225 300 370
#     4  11  23  37  61  86 123 137 182 247 298 352
#
# _framework density 18.075934
#
# number of rings (size 3 to 8) (size 9 to 14) (size 15 to 20)
#    0.000    1.250    3.750    3.375    0.000    6.000 
#    0.000    1.875   11.000    0.000    0.000    0.000 
#    0.000    0.000    0.000    0.000    0.000    0.000 
#
# Total GULP energy -178448.078513 kJ/mol
# GULP energy per Si atom -5576.502454 kJ/mol
# Density = 1.803479 g / cm^3
# Si number density = 18.075934 Si / 1000 Ang^3
#
#
#
# Elastic Constant Matrix: (Units=GPa)
#
#
# Indices 1 2 3 4 5 6 
#
# 1 139.7751 47.7208 54.7318 0.0000 0.0000 0.0000
# 2 47.7208 175.1192 102.7910 0.0000 0.0000 0.0000
# 3 54.7318 102.7910 138.3294 0.0000 0.0000 0.0000
# 4 0.0000 0.0000 0.0000 -3.8657 0.0000 0.0000
# 5 0.0000 0.0000 0.0000 0.0000 -10.0428 0.0000
# 6 0.0000 0.0000 0.0000 0.0000 0.0000 29.1000
#
#
#
# Elastic Compliance Matrix: (Units=1/GPa)
#
#
# Indices 1 2 3 4 5 6 
#
# 1 0.008502 -0.000607 -0.002913 0.000000 0.000000 0.000000
# 2 -0.000607 0.010171 -0.007318 0.000000 0.000000 0.000000
# 3 -0.002913 -0.007318 0.013820 0.000000 0.000000 0.000000
# 4 0.000000 0.000000 0.000000 -0.258687 0.000000 0.000000
# 5 0.000000 0.000000 0.000000 0.000000 -0.099573 0.000000
# 6 0.000000 0.000000 0.000000 0.000000 0.000000 0.034364
#
#
# Mechanical properties :
#
#
# Convention : Reuss Voigt Hill
#
# Bulk Modulus (GPa) = 92.44572 95.96787 94.20679
# Shear Modulus (GPa) = -18.78841 19.57029 0.39094
#
# Velocity S-wave (km/s) = -3.22749 3.29397 0.46556
# Velocity P-wave (km/s) = 6.11270 8.22640 7.24703
#
# Compressibility (1/GPa) = 0.01081716
#
# Stress axis : x y z
#
# Youngs Moduli (GPa) = 117.61633 98.31550 72.36116
#
# Poissons Ratio (x) = 0.05969 0.21078
# Poissons Ratio (y) = 0.07140 0.52954
# Poissons Ratio (z) = 0.34260 0.71947
#
# Static dielectric constant tensor:
#      x y z
#    x 1.603900 0.000000 0.000000 
#    y 0.000000 1.650590 0.000000 
#    z 0.000000 0.000000 1.599300 
# 
# From -- ./inp_files/40445.got.cif
#   From: 2010.05.17/outbox.cif.g08.bks.cpg/sg67_21_cif.got.tgz:40445.got - 2010.06.03 18:28:57.
