data_PCOD9501427
_publ_section_title
;
Structure prediction by ZEFSAII (Michael W. Deem and Ramdas Pophale) SiO2 
 PCOD9501427
Probable space group: C M M A
;
_chemical_formula_sum "Si O2"
_cell_formula_units_Z 96
_cell_length_a 28.592185
_cell_length_b 17.409663
_cell_length_c 10.918202
_cell_angle_alpha 90.000000
_cell_angle_beta 90.000000
_cell_angle_gamma 90.000000
_cell_volume 5434.865925
_symmetry_space_group_name_H-M "C M M A"
_symmetry_group_IT_number 67
_symmetry_cell_setting 'orthorhombic'
loop_
_space_group_symop_operation_xyz
x,y,z
-x,1/2-y,z
x,-y,-z
-x,1/2+y,-z
-x,-y,-z
x,1/2+y,-z
-x,y,z
x,1/2-y,z
1/2+x,1/2+y,z
1/2-x,-y,z
1/2+x,1/2-y,-z
1/2-x,y,-z
1/2-x,1/2-y,-z
1/2+x,y,-z
1/2-x,1/2+y,z
1/2+x,-y,z
loop_
_atom_site_type_symbol
_atom_site_label
_atom_site_fract_x
_atom_site_fract_y
_atom_site_fract_z
Si Si1 0.154953 0.662370 0.520063
Si Si2 0.213655 0.933716 0.324723
Si Si3 0.274791 0.160601 0.869389
Si Si4 0.449183 0.523502 0.290326
Si Si5 0.351208 0.936115 0.229217
Si Si6 0.447799 0.122120 0.457539
O O1 0.170819 0.750000 0.537701
O O2 0.189071 0.615223 0.430507
O O3 0.153217 0.615228 0.646831
O O4 0.101909 0.664357 0.466058
O O5 0.241915 0.878330 0.233256
O O6 0.250000 0.000000 0.365752
O O7 0.173976 0.982951 0.255070
O O8 0.283267 0.250000 0.841385
O O9 0.322448 0.111646 0.869750
O O10 0.250000 0.155226 0.000000
O O11 0.500000 0.531576 0.231685
O O12 0.405644 0.548569 0.209423
O O13 0.448915 0.575035 0.414209
O O14 0.444001 0.438240 0.346002
O O15 0.500000 0.158829 0.448290
#
# Coordination Sequence:
#
# PCOD9501427 Si02
#       6
#    16  16  16  16  16  16
#     4  11  20  30  46  73 108 136 164 201 250 301
#     4  10  21  34  51  70  95 130 169 210 243 296
#     4  10  22  39  55  72  95 123 161 210 262 309
#     4   8  13  25  46  71  99 130 165 201 239 284
#     4  10  19  32  51  75 101 131 168 205 245 294
#     4   8  14  25  43  67  99 137 168 195 233 287
#
# _framework density 17.663730000000001
#
# number of rings (size 3 to 8) (size 9 to 14) (size 15 to 20)
#    0.000    2.500    1.667    2.500    0.000    8.000 
#    0.000    4.167    0.000    1.500    0.000    3.500 
#    0.000    2.667    0.000    0.000    0.000    0.000 
#
# Total GULP energy -267463.837002 kJ/mol
# GULP energy per Si atom -5572.163271 kJ/mol
# Density = 1.762353 g / cm^3
# Si number density = 17.663730 Si / 1000 Ang^3
#
#
#
# Elastic Constant Matrix: (Units=GPa)
#
#
# Indices 1 2 3 4 5 6 
#
# 1 119.7972 16.8798 8.6778 0.0000 0.0000 0.0000
# 2 16.8798 58.2376 -3.6274 0.0000 0.0000 0.0000
# 3 8.6778 -3.6274 14.4800 0.0000 0.0000 0.0000
# 4 0.0000 0.0000 0.0000 15.6090 0.0000 0.0000
# 5 0.0000 0.0000 0.0000 0.0000 17.1404 0.0000
# 6 0.0000 0.0000 0.0000 0.0000 0.0000 15.3135
#
#
#
# Elastic Compliance Matrix: (Units=1/GPa)
#
#
# Indices 1 2 3 4 5 6 
#
# 1 0.009237 -0.003070 -0.006305 0.000000 0.000000 0.000000
# 2 -0.003070 0.018464 0.006465 0.000000 0.000000 0.000000
# 3 -0.006305 0.006465 0.074458 0.000000 0.000000 0.000000
# 4 0.000000 0.000000 0.000000 0.064065 0.000000 0.000000
# 5 0.000000 0.000000 0.000000 0.000000 0.058342 0.000000
# 6 0.000000 0.000000 0.000000 0.000000 0.000000 0.065302
#
#
# Mechanical properties :
#
#
# Convention : Reuss Voigt Hill
#
# Bulk Modulus (GPa) = 10.37991 26.26390 18.32191
# Shear Modulus (GPa) = 15.25323 20.98491 18.11907
#
# Velocity S-wave (km/s) = 2.94178 3.45051 3.20625
# Velocity P-wave (km/s) = 4.17468 5.54759 4.90937
#
# Compressibility (1/GPa) = 0.09633994
#
# Stress axis : x y z
#
# Youngs Moduli (GPa) = 108.26411 54.16090 13.43032
#
# Poissons Ratio (x) = 0.16627 0.08467
# Poissons Ratio (y) = 0.33236 -0.08683
# Poissons Ratio (z) = 0.68255 -0.35015
#
# Static dielectric constant tensor:
#      x y z
#    x 1.657100 0.000000 0.000000 
#    y 0.000000 1.612680 0.000000 
#    z 0.000000 0.000000 1.570510 
# 
# From -- ./inp_files/19790.got.cif
#   From: 2010.05.17/outbox.cif.g08.bks.cpg/sg67_10_cif.got.tgz:19790.got - 2010.06.03 18:28:57.
