data_PCOD9501635
_publ_section_title
;
Structure prediction by ZEFSAII (Michael W. Deem and Ramdas Pophale) SiO2 
 PCOD9501635
Probable space group: C M M A
;
_chemical_formula_sum "Si O2"
_cell_formula_units_Z 96
_cell_length_a 8.788960
_cell_length_b 29.535268
_cell_length_c 21.105278
_cell_angle_alpha 90.000000
_cell_angle_beta 90.000000
_cell_angle_gamma 90.000000
_cell_volume 5478.598585
_symmetry_space_group_name_H-M "C M M A"
_symmetry_group_IT_number 67
_symmetry_cell_setting 'orthorhombic'
loop_
_space_group_symop_operation_xyz
x,y,z
-x,1/2-y,z
x,-y,-z
-x,1/2+y,-z
-x,-y,-z
x,1/2+y,-z
-x,y,z
x,1/2-y,z
1/2+x,1/2+y,z
1/2-x,-y,z
1/2+x,1/2-y,-z
1/2-x,y,-z
1/2-x,1/2-y,-z
1/2+x,y,-z
1/2-x,1/2+y,z
1/2+x,-y,z
loop_
_atom_site_type_symbol
_atom_site_label
_atom_site_fract_x
_atom_site_fract_y
_atom_site_fract_z
Si Si1 0.317448 0.952423 0.885077
Si Si2 0.316172 0.139921 0.689544
Si Si3 0.316511 0.197593 0.568156
Si Si4 0.682015 0.047921 0.263761
Si Si5 0.182481 0.644904 0.066526
Si Si6 0.683359 0.802813 0.186009
O O1 0.500000 0.955181 0.888253
O O2 0.274579 0.946705 0.810788
O O3 0.267642 0.907248 0.921184
O O4 0.250000 0.000000 0.907956
O O5 0.500000 0.136720 0.689134
O O6 0.267815 0.165386 0.625530
O O7 0.246666 0.090446 0.698455
O O8 0.272596 0.170018 0.750650
O O9 0.500000 0.196339 0.565061
O O10 0.272325 0.250000 0.580803
O O11 0.250000 0.184580 0.500000
O O12 0.500000 0.046892 0.267204
O O13 0.750000 0.000000 0.285112
O O14 0.241122 0.674466 0.125044
O O15 0.000000 0.645981 0.064828
O O16 0.250000 0.660792 0.000000
O O17 0.500000 0.805881 0.179920
O O18 0.723581 0.750000 0.191420
#
# Coordination Sequence:
#
# PCOD9501635 Si02
#       6
#    16  16  16  16  16  16
#     4   9  19  34  53  76 104 134 169 213 263 317
#     4  10  19  33  56  83 111 143 178 220 267 314
#     4   9  18  33  53  80 115 151 185 220 261 313
#     4  10  19  33  53  80 110 140 176 218 266 319
#     4  11  23  39  55  76 104 138 177 220 269 322
#     4  10  21  37  57  80 104 135 177 222 268 317
#
# _framework density 17.522729000000002
#
# number of rings (size 3 to 8) (size 9 to 14) (size 15 to 20)
#    0.000    2.167    1.667    1.500    0.000    5.667 
#    0.000    1.667    0.000    3.500    0.000    3.500 
#    0.000    0.000    0.000    0.000    0.000    0.000 
#
# Total GULP energy -267967.221800 kJ/mol
# GULP energy per Si atom -5582.650454 kJ/mol
# Density = 1.748285 g / cm^3
# Si number density = 17.522729 Si / 1000 Ang^3
#
#
#
# Elastic Constant Matrix: (Units=GPa)
#
#
# Indices 1 2 3 4 5 6 
#
# 1 20.6777 38.5728 37.2469 0.0000 0.0000 0.0000
# 2 38.5728 137.0648 82.4953 0.0000 0.0000 0.0000
# 3 37.2469 82.4953 134.4330 0.0000 0.0000 0.0000
# 4 0.0000 0.0000 0.0000 18.9531 0.0000 0.0000
# 5 0.0000 0.0000 0.0000 0.0000 16.7079 0.0000
# 6 0.0000 0.0000 0.0000 0.0000 0.0000 28.3891
#
#
#
# Elastic Compliance Matrix: (Units=1/GPa)
#
#
# Indices 1 2 3 4 5 6 
#
# 1 0.133325 -0.024240 -0.022065 0.000000 0.000000 0.000000
# 2 -0.024240 0.015976 -0.003087 0.000000 0.000000 0.000000
# 3 -0.022065 -0.003087 0.015447 0.000000 0.000000 0.000000
# 4 0.000000 0.000000 0.000000 0.052762 0.000000 0.000000
# 5 0.000000 0.000000 0.000000 0.000000 0.059852 0.000000
# 6 0.000000 0.000000 0.000000 0.000000 0.000000 0.035225
#
#
# Mechanical properties :
#
#
# Convention : Reuss Voigt Hill
#
# Bulk Modulus (GPa) = 15.16014 67.64506 41.40260
# Shear Modulus (GPa) = 11.53782 21.73406 16.63594
#
# Velocity S-wave (km/s) = 2.56881 3.52566 3.08456
# Velocity P-wave (km/s) = 4.17958 7.43382 6.03036
#
# Compressibility (1/GPa) = 0.06596245
#
# Stress axis : x y z
#
# Youngs Moduli (GPa) = 7.50049 62.59494 64.73890
#
# Poissons Ratio (x) = 1.51731 1.42845
# Poissons Ratio (y) = 0.18181 0.19988
# Poissons Ratio (z) = 0.16550 0.19326
#
# Static dielectric constant tensor:
#      x y z
#    x 1.586230 0.000000 0.000000 
#    y 0.000000 1.585640 0.000000 
#    z 0.000000 0.000000 1.578080 
# 
# From -- ./inp_files/37125.got.cif
#   From: 2010.05.17/outbox.cif.g08.bks.cpg/sg67_19_cif.got.tgz:37125.got - 2010.06.03 18:28:57.
