data_PCOD9501879
_publ_section_title
;
Structure prediction by ZEFSAII (Michael W. Deem and Ramdas Pophale) SiO2 
 PCOD9501879
Probable space group: C M M A
;
_chemical_formula_sum "Si O2"
_cell_formula_units_Z 80
_cell_length_a 8.173625
_cell_length_b 29.806375
_cell_length_c 14.761790
_cell_angle_alpha 90.000000
_cell_angle_beta 90.000000
_cell_angle_gamma 90.000000
_cell_volume 3596.357797
_symmetry_space_group_name_H-M "C M M A"
_symmetry_group_IT_number 67
_symmetry_cell_setting 'orthorhombic'
loop_
_space_group_symop_operation_xyz
x,y,z
-x,1/2-y,z
x,-y,-z
-x,1/2+y,-z
-x,-y,-z
x,1/2+y,-z
-x,y,z
x,1/2-y,z
1/2+x,1/2+y,z
1/2-x,-y,z
1/2+x,1/2-y,-z
1/2-x,y,-z
1/2-x,1/2-y,-z
1/2+x,y,-z
1/2-x,1/2+y,z
1/2+x,-y,z
loop_
_atom_site_type_symbol
_atom_site_label
_atom_site_fract_x
_atom_site_fract_y
_atom_site_fract_z
Si Si1 0.804631 0.451430 0.104985
Si Si2 0.500000 0.697432 0.139177
Si Si3 0.000000 0.198077 0.361536
Si Si4 0.314388 0.353706 0.354602
Si Si5 0.806515 0.546976 0.395896
Si Si6 0.319896 0.145791 0.144709
O O1 0.750000 0.500000 0.141817
O O2 0.718688 0.407326 0.144140
O O3 0.000000 0.447224 0.112482
O O4 0.750000 0.451296 0.000000
O O5 0.500000 0.750000 0.116050
O O6 0.500000 0.694176 0.250397
O O7 0.663972 0.672190 0.106099
O O8 0.166736 0.174880 0.395232
O O9 0.000000 0.250000 0.384839
O O10 0.500000 0.350791 0.393547
O O11 0.255335 0.405499 0.355772
O O12 0.329436 0.340106 0.249749
O O13 0.750000 0.500000 0.354392
O O14 0.750000 0.547570 0.500000
O O15 0.000000 0.546118 0.393105
O O16 0.500000 0.153534 0.103565
#
# Coordination Sequence:
#
# PCOD9501879 Si02
#       6
#    16   8   8  16  16  16
#     4  11  21  35  53  79 108 143 183 216 255 316
#     4   9  18  34  54  81 106 136 177 218 264 318
#     4   9  18  32  56  79 102 136 173 216 268 310
#     4   9  20  34  52  79 109 136 174 217 263 311
#     4  10  20  33  50  76 103 140 179 213 256 312
#     4  10  19  35  54  80 110 139 174 219 266 311
#
# _framework density 22.244727000000001
#
# number of rings (size 3 to 8) (size 9 to 14) (size 15 to 20)
#    0.000    2.200    1.000    3.600    2.800    1.600 
#    0.000    6.000    0.000    1.200    0.000    0.000 
#    0.000    0.000    0.000    0.000    0.000    0.000 
#
# Total GULP energy -223287.056117 kJ/mol
# GULP energy per Si atom -5582.176403 kJ/mol
# Density = 2.219410 g / cm^3
# Si number density = 22.244727 Si / 1000 Ang^3
#
#
#
# Elastic Constant Matrix: (Units=GPa)
#
#
# Indices 1 2 3 4 5 6 
#
# 1 188.4991 108.2178 7.7842 0.0000 0.0000 0.0000
# 2 108.2178 156.3512 -4.3458 0.0000 0.0000 0.0000
# 3 7.7842 -4.3458 43.7034 0.0000 0.0000 0.0000
# 4 0.0000 0.0000 0.0000 35.1063 0.0000 0.0000
# 5 0.0000 0.0000 0.0000 0.0000 -20.8343 0.0000
# 6 0.0000 0.0000 0.0000 0.0000 0.0000 37.3290
#
#
#
# Elastic Compliance Matrix: (Units=1/GPa)
#
#
# Indices 1 2 3 4 5 6 
#
# 1 0.009015 -0.006302 -0.002232 0.000000 0.000000 0.000000
# 2 -0.006302 0.010819 0.002198 0.000000 0.000000 0.000000
# 3 -0.002232 0.002198 0.023498 0.000000 0.000000 0.000000
# 4 0.000000 0.000000 0.000000 0.028485 0.000000 0.000000
# 5 0.000000 0.000000 0.000000 0.000000 -0.047998 0.000000
# 6 0.000000 0.000000 0.000000 0.000000 0.000000 0.026789
#
#
# Mechanical properties :
#
#
# Convention : Reuss Voigt Hill
#
# Bulk Modulus (GPa) = 32.61612 67.98513 50.30063
# Shear Modulus (GPa) = 68.02772 28.78003 48.40387
#
# Velocity S-wave (km/s) = 5.53605 3.60083 4.66979
# Velocity P-wave (km/s) = 7.45373 6.92219 7.19287
#
# Compressibility (1/GPa) = 0.03065969
#
# Stress axis : x y z
#
# Youngs Moduli (GPa) = 110.92415 92.43196 42.55730
#
# Poissons Ratio (x) = 0.58249 0.09500
# Poissons Ratio (y) = 0.69903 -0.09355
# Poissons Ratio (z) = 0.24762 -0.20319
#
# Static dielectric constant tensor:
#      x y z
#    x 1.813180 0.000000 0.000000 
#    y 0.000000 1.811660 0.000000 
#    z 0.000000 0.000000 1.265670 
# 
# From -- ./inp_files/32168.got.cif
#   From: 2010.05.17/outbox.cif.g08.bks.cpg/sg67_17_cif.got.tgz:32168.got - 2010.06.03 18:28:57.
