data_PCOD9501694
_publ_section_title
;
Structure prediction by ZEFSAII (Michael W. Deem and Ramdas Pophale) SiO2 
 PCOD9501694
Probable space group: C M M A
;
_chemical_formula_sum "Si O2"
_cell_formula_units_Z 64
_cell_length_a 15.922452
_cell_length_b 34.871157
_cell_length_c 4.780353
_cell_angle_alpha 90.000000
_cell_angle_beta 90.000000
_cell_angle_gamma 90.000000
_cell_volume 2654.216064
_symmetry_space_group_name_H-M "C M M A"
_symmetry_group_IT_number 67
_symmetry_cell_setting 'orthorhombic'
loop_
_space_group_symop_operation_xyz
x,y,z
-x,1/2-y,z
x,-y,-z
-x,1/2+y,-z
-x,-y,-z
x,1/2+y,-z
-x,y,z
x,1/2-y,z
1/2+x,1/2+y,z
1/2-x,-y,z
1/2+x,1/2-y,-z
1/2-x,y,-z
1/2-x,1/2-y,-z
1/2+x,y,-z
1/2-x,1/2+y,z
1/2+x,-y,z
loop_
_atom_site_type_symbol
_atom_site_label
_atom_site_fract_x
_atom_site_fract_y
_atom_site_fract_z
Si Si1 0.097249 0.405985 0.480687
Si Si2 0.164555 0.165199 0.826546
Si Si3 0.094901 0.706955 0.669381
Si Si4 0.401701 0.542411 0.999514
O O1 0.144045 0.372451 0.645515
O O2 0.133989 0.423684 0.195844
O O3 0.000000 0.393424 0.440143
O O4 0.097676 0.442071 0.687870
O O5 0.156071 0.197265 0.586563
O O6 0.250000 0.162843 0.000000
O O7 0.101840 0.176939 0.076515
O O8 0.110722 0.750000 0.776669
O O9 0.000000 0.705360 0.556636
O O10 0.500000 0.538848 0.092965
O O11 0.363821 0.500000 0.000000
#
# Coordination Sequence:
#
# PCOD9501694 Si02
#       4
#    16  16  16  16
#     4  10  19  33  55  82 118 161 203 250 305 371
#     4  12  25  40  61  92 129 168 213 266 328 393
#     4  11  24  43  66  90 120 163 217 274 330 393
#     4   9  17  30  52  84 117 151 198 253 301 352
#
# _framework density 24.112582
#
# number of rings (size 3 to 8) (size 9 to 14) (size 15 to 20)
#    0.000    1.500    0.000    6.000    0.000   10.000 
#    0.000    0.000    0.000    0.750    0.000    3.500 
#    0.000    0.000    0.000    0.000    0.000   16.750 
#
# Total GULP energy -178854.220620 kJ/mol
# GULP energy per Si atom -5589.194394 kJ/mol
# Density = 2.405770 g / cm^3
# Si number density = 24.112582 Si / 1000 Ang^3
#
#
#
# Elastic Constant Matrix: (Units=GPa)
#
#
# Indices 1 2 3 4 5 6 
#
# 1 65.7309 13.1695 8.4807 0.0000 0.0000 0.0000
# 2 13.1695 75.0440 -4.1906 0.0000 0.0000 0.0000
# 3 8.4807 -4.1906 106.5320 0.0000 0.0000 0.0000
# 4 0.0000 0.0000 0.0000 30.6137 0.0000 0.0000
# 5 0.0000 0.0000 0.0000 0.0000 23.6445 0.0000
# 6 0.0000 0.0000 0.0000 0.0000 0.0000 17.4062
#
#
#
# Elastic Compliance Matrix: (Units=1/GPa)
#
#
# Indices 1 2 3 4 5 6 
#
# 1 0.015969 -0.002880 -0.001385 0.000000 0.000000 0.000000
# 2 -0.002880 0.013874 0.000775 0.000000 0.000000 0.000000
# 3 -0.001385 0.000775 0.009528 0.000000 0.000000 0.000000
# 4 0.000000 0.000000 0.000000 0.032665 0.000000 0.000000
# 5 0.000000 0.000000 0.000000 0.000000 0.042293 0.000000
# 6 0.000000 0.000000 0.000000 0.000000 0.000000 0.057451
#
#
# Mechanical properties :
#
#
# Convention : Reuss Voigt Hill
#
# Bulk Modulus (GPa) = 30.87150 31.35844 31.11497
# Shear Modulus (GPa) = 26.37744 29.65603 28.01673
#
# Velocity S-wave (km/s) = 3.31105 3.51080 3.41238
# Velocity P-wave (km/s) = 5.23911 5.42840 5.33459
#
# Compressibility (1/GPa) = 0.03239234
#
# Stress axis : x y z
#
# Youngs Moduli (GPa) = 62.62073 72.07638 104.95868
#
# Poissons Ratio (x) = 0.20756 0.14532
# Poissons Ratio (y) = 0.18033 -0.08134
# Poissons Ratio (z) = 0.08670 -0.05586
#
# Static dielectric constant tensor:
#      x y z
#    x 1.996750 0.000000 0.000000 
#    y 0.000000 1.954400 0.000000 
#    z 0.000000 0.000000 1.863800 
# 
# From -- ./inp_files/2219.got.cif
#   From: 2010.05.17/outbox.cif.g08.bks.cpg/sg67_2_cif.got.tgz:2219.got - 2010.06.03 18:28:57.
