data_PCOD9501620
_publ_section_title
;
Structure prediction by ZEFSAII (Michael W. Deem and Ramdas Pophale) SiO2 
 PCOD9501620
Probable space group: C M M A
;
_chemical_formula_sum "Si O2"
_cell_formula_units_Z 80
_cell_length_a 27.233121
_cell_length_b 8.383396
_cell_length_c 19.520449
_cell_angle_alpha 90.000000
_cell_angle_beta 90.000000
_cell_angle_gamma 90.000000
_cell_volume 4456.636365
_symmetry_space_group_name_H-M "C M M A"
_symmetry_group_IT_number 67
_symmetry_cell_setting 'orthorhombic'
loop_
_space_group_symop_operation_xyz
x,y,z
-x,1/2-y,z
x,-y,-z
-x,1/2+y,-z
-x,-y,-z
x,1/2+y,-z
-x,y,z
x,1/2-y,z
1/2+x,1/2+y,z
1/2-x,-y,z
1/2+x,1/2-y,-z
1/2-x,y,-z
1/2-x,1/2-y,-z
1/2+x,y,-z
1/2-x,1/2+y,z
1/2+x,-y,z
loop_
_atom_site_type_symbol
_atom_site_label
_atom_site_fract_x
_atom_site_fract_y
_atom_site_fract_z
Si Si1 0.303381 0.057288 0.327582
Si Si2 0.500000 0.557699 0.578560
Si Si3 0.696671 0.559404 0.830190
Si Si4 0.892850 0.941273 0.921644
Si Si5 0.000000 0.442350 0.078578
Si Si6 0.607089 0.556774 0.578362
O O1 0.303623 0.250000 0.327842
O O2 0.309462 0.003401 0.248687
O O3 0.347936 0.000616 0.375035
O O4 0.250000 0.000000 0.351774
O O5 0.500000 0.750000 0.580170
O O6 0.500000 0.500000 0.500000
O O7 0.553180 0.504935 0.606116
O O8 0.697218 0.750000 0.830068
O O9 0.750000 0.500000 0.854548
O O10 0.652019 0.501733 0.876513
O O11 0.892140 0.750000 0.922226
O O12 0.946774 0.995265 0.893790
O O13 0.888257 0.000000 0.000000
O O14 0.000000 0.250000 0.080061
O O15 0.000000 0.500000 0.000000
O O16 0.612085 0.500000 0.500000
O O17 0.607754 0.750000 0.577997
#
# Coordination Sequence:
#
# PCOD9501620 Si02
#       6
#    16   8  16  16   8  16
#     4   9  19  34  50  68  94 126 160 195 237 285
#     4   8  14  26  45  66  92 122 152 188 233 278
#     4  10  20  35  52  71  96 129 165 202 244 291
#     4  10  19  33  53  77 102 129 161 199 239 284
#     4   8  16  30  49  72 100 130 158 190 235 284
#     4   9  17  30  48  71  95 122 156 195 235 279
#
# _framework density 17.950756999999999
#
# number of rings (size 3 to 8) (size 9 to 14) (size 15 to 20)
#    0.000    2.800    0.000    1.200    0.000    3.200 
#    0.000    5.000    0.000    2.400    0.000    4.200 
#    0.000    0.000    0.000    0.000    0.000    0.000 
#
# Total GULP energy -222779.583155 kJ/mol
# GULP energy per Si atom -5569.489579 kJ/mol
# Density = 1.790990 g / cm^3
# Si number density = 17.950757 Si / 1000 Ang^3
#
#
#
# Elastic Constant Matrix: (Units=GPa)
#
#
# Indices 1 2 3 4 5 6 
#
# 1 241.3813 28.5087 85.7585 0.0000 0.0000 0.0000
# 2 28.5087 19.2166 11.1107 0.0000 0.0000 0.0000
# 3 85.7585 11.1107 51.6738 0.0000 0.0000 0.0000
# 4 0.0000 0.0000 0.0000 18.7760 0.0000 0.0000
# 5 0.0000 0.0000 0.0000 0.0000 -37.6076 0.0000
# 6 0.0000 0.0000 0.0000 0.0000 0.0000 22.5940
#
#
#
# Elastic Compliance Matrix: (Units=1/GPa)
#
#
# Indices 1 2 3 4 5 6 
#
# 1 0.010749 -0.006432 -0.016456 0.000000 0.000000 0.000000
# 2 -0.006432 0.063275 -0.002930 0.000000 0.000000 0.000000
# 3 -0.016456 -0.002930 0.047294 0.000000 0.000000 0.000000
# 4 0.000000 0.000000 0.000000 0.053259 0.000000 0.000000
# 5 0.000000 0.000000 0.000000 0.000000 -0.026590 0.000000
# 6 0.000000 0.000000 0.000000 0.000000 0.000000 0.044260
#
#
# Mechanical properties :
#
#
# Convention : Reuss Voigt Hill
#
# Bulk Modulus (GPa) = 14.35137 62.55860 38.45498
# Shear Modulus (GPa) = 18.71881 13.21207 15.96544
#
# Velocity S-wave (km/s) = 3.23272 2.71591 2.98552
# Velocity P-wave (km/s) = 4.68468 6.69034 5.77524
#
# Compressibility (1/GPa) = 0.06967978
#
# Stress axis : x y z
#
# Youngs Moduli (GPa) = 93.03035 15.80405 21.14449
#
# Poissons Ratio (x) = 0.10165 0.34796
# Poissons Ratio (y) = 0.59837 0.06196
# Poissons Ratio (z) = 1.53095 0.04631
#
# Static dielectric constant tensor:
#      x y z
#    x 1.658140 0.000000 0.000000 
#    y 0.000000 1.622330 0.000000 
#    z 0.000000 0.000000 1.577160 
# 
# From -- ./inp_files/32204.got.cif
#   From: 2010.05.17/outbox.cif.g08.bks.cpg/sg67_17_cif.got.tgz:32204.got - 2010.06.03 18:28:57.
