data_PCOD9501165
_publ_section_title
;
Structure prediction by ZEFSAII (Michael W. Deem and Ramdas Pophale) SiO2 
 PCOD9501165
Probable space group: C M M A
;
_chemical_formula_sum "Si O2"
_cell_formula_units_Z 96
_cell_length_a 20.791521
_cell_length_b 7.674922
_cell_length_c 31.132046
_cell_angle_alpha 90.000000
_cell_angle_beta 90.000000
_cell_angle_gamma 90.000000
_cell_volume 4967.843376
_symmetry_space_group_name_H-M "C M M A"
_symmetry_group_IT_number 67
_symmetry_cell_setting 'orthorhombic'
loop_
_space_group_symop_operation_xyz
x,y,z
-x,1/2-y,z
x,-y,-z
-x,1/2+y,-z
-x,-y,-z
x,1/2+y,-z
-x,y,z
x,1/2-y,z
1/2+x,1/2+y,z
1/2-x,-y,z
1/2+x,1/2-y,-z
1/2-x,y,-z
1/2-x,1/2-y,-z
1/2+x,y,-z
1/2-x,1/2+y,z
1/2+x,-y,z
loop_
_atom_site_type_symbol
_atom_site_label
_atom_site_fract_x
_atom_site_fract_y
_atom_site_fract_z
Si Si1 0.323278 0.959464 0.785002
Si Si2 0.073438 0.037230 0.716009
Si Si3 0.676701 0.459620 0.117411
Si Si4 0.675804 0.955718 0.549544
Si Si5 0.573041 0.959593 0.950982
Si Si6 0.573464 0.963156 0.618067
O O1 0.329408 0.750000 0.786430
O O2 0.375189 0.024963 0.750821
O O3 0.333148 0.025139 0.833779
O O4 0.250000 0.000000 0.772361
O O5 0.074377 0.250000 0.716405
O O6 0.088503 0.983904 0.667063
O O7 0.000000 0.984903 0.725850
O O8 0.670976 0.250000 0.118790
O O9 0.750000 0.500000 0.104693
O O10 0.624317 0.526008 0.083590
O O11 0.670882 0.750000 0.552823
O O12 0.624889 0.029367 0.583560
O O13 0.661914 0.000000 0.500000
O O14 0.750000 0.000000 0.558774
O O15 0.500000 0.024968 0.944129
O O16 0.571013 0.750000 0.947080
O O17 0.591622 0.000000 0.000000
O O18 0.500000 0.015434 0.608157
O O19 0.574058 0.750000 0.617778
#
# Coordination Sequence:
#
# PCOD9501165 Si02
#       6
#    16  16  16  16  16  16
#     4   9  17  29  46  68  92 118 147 180 219 261
#     4   8  14  26  45  68  91 115 147 184 218 257
#     4   9  18  31  46  66  92 119 147 181 220 261
#     4  10  19  31  47  66  90 118 148 183 221 262
#     4   9  18  32  48  66  89 116 147 184 223 262
#     4   8  15  28  45  66  91 117 146 182 222 261
#
# _framework density 19.324280000000002
#
# number of rings (size 3 to 8) (size 9 to 14) (size 15 to 20)
#    0.000    3.167    0.000    2.000    0.000    2.667 
#    0.000    5.000    0.000    3.000    0.000    9.333 
#    0.000    0.000    0.000    0.000    0.000    0.000 
#
# Total GULP energy -267605.346599 kJ/mol
# GULP energy per Si atom -5575.111387 kJ/mol
# Density = 1.928030 g / cm^3
# Si number density = 19.324280 Si / 1000 Ang^3
#
#
#
# Elastic Constant Matrix: (Units=GPa)
#
#
# Indices 1 2 3 4 5 6 
#
# 1 174.5861 4.1395 156.9087 0.0000 0.0000 0.0000
# 2 4.1395 34.5398 5.3713 0.0000 0.0000 0.0000
# 3 156.9087 5.3713 163.3796 0.0000 0.0000 0.0000
# 4 0.0000 0.0000 0.0000 4.0676 0.0000 0.0000
# 5 0.0000 0.0000 0.0000 0.0000 52.3170 0.0000
# 6 0.0000 0.0000 0.0000 0.0000 0.0000 15.6664
#
#
#
# Elastic Compliance Matrix: (Units=1/GPa)
#
#
# Indices 1 2 3 4 5 6 
#
# 1 0.041908 0.001243 -0.040289 0.000000 0.000000 0.000000
# 2 0.001243 0.029138 -0.002151 0.000000 0.000000 0.000000
# 3 -0.040289 -0.002151 0.044885 0.000000 0.000000 0.000000
# 4 0.000000 0.000000 0.000000 0.245843 0.000000 0.000000
# 5 0.000000 0.000000 0.000000 0.000000 0.019114 0.000000
# 6 0.000000 0.000000 0.000000 0.000000 0.000000 0.063831
#
#
# Mechanical properties :
#
#
# Convention : Reuss Voigt Hill
#
# Bulk Modulus (GPa) = 29.81960 78.37161 54.09560
# Shear Modulus (GPa) = 9.28863 28.14926 18.71895
#
# Velocity S-wave (km/s) = 2.19480 3.82079 3.11573
# Velocity P-wave (km/s) = 4.67841 7.75297 6.40297
#
# Compressibility (1/GPa) = 0.03353500
#
# Stress axis : x y z
#
# Youngs Moduli (GPa) = 23.86184 34.31978 22.27932
#
# Poissons Ratio (x) = -0.04265 0.89761
# Poissons Ratio (y) = -0.02965 0.04793
# Poissons Ratio (z) = 0.96137 0.07384
#
# Static dielectric constant tensor:
#      x y z
#    x 1.670360 0.000000 0.000000 
#    y 0.000000 1.725100 0.000000 
#    z 0.000000 0.000000 1.679330 
# 
# From -- ./inp_files/44567.got.cif
#   From: 2010.05.17/outbox.cif.g08.bks.cpg/sg67_23_cif.got.tgz:44567.got - 2010.06.03 18:28:57.
