data_PCOD9501714
_publ_section_title
;
Structure prediction by ZEFSAII (Michael W. Deem and Ramdas Pophale) SiO2 
 PCOD9501714
Probable space group: C M M A
;
_chemical_formula_sum "Si O2"
_cell_formula_units_Z 96
_cell_length_a 21.521209
_cell_length_b 18.029624
_cell_length_c 13.422495
_cell_angle_alpha 90.000000
_cell_angle_beta 90.000000
_cell_angle_gamma 90.000000
_cell_volume 5208.187199
_symmetry_space_group_name_H-M "C M M A"
_symmetry_group_IT_number 67
_symmetry_cell_setting 'orthorhombic'
loop_
_space_group_symop_operation_xyz
x,y,z
-x,1/2-y,z
x,-y,-z
-x,1/2+y,-z
-x,-y,-z
x,1/2+y,-z
-x,y,z
x,1/2-y,z
1/2+x,1/2+y,z
1/2-x,-y,z
1/2+x,1/2-y,-z
1/2-x,y,-z
1/2-x,1/2-y,-z
1/2+x,y,-z
1/2-x,1/2+y,z
1/2+x,-y,z
loop_
_atom_site_type_symbol
_atom_site_label
_atom_site_fract_x
_atom_site_fract_y
_atom_site_fract_z
Si Si1 0.239599 0.415371 0.261763
Si Si2 0.070156 0.339290 0.582864
Si Si3 0.314570 0.338926 0.555615
Si Si4 0.622284 0.896146 0.784246
Si Si5 0.926007 0.165953 0.990099
Si Si6 0.350963 0.956801 0.100545
O O1 0.250000 0.500000 0.297701
O O2 0.193517 0.374594 0.336458
O O3 0.307118 0.379068 0.250317
O O4 0.208090 0.421573 0.154121
O O5 0.076331 0.250000 0.597790
O O6 0.124924 0.362478 0.507032
O O7 0.080531 0.378546 0.688997
O O8 0.000000 0.353483 0.546257
O O9 0.316944 0.250000 0.564215
O O10 0.250000 0.358453 0.500000
O O11 0.602136 0.849668 0.880699
O O12 0.622326 0.981403 0.823101
O O13 0.911522 0.250000 0.020642
O O14 0.000000 0.157381 0.983104
O O15 0.898612 0.106017 0.066254
O O16 0.333381 0.000000 0.000000
#
# Coordination Sequence:
#
# PCOD9501714 Si02
#       6
#    16  16  16  16  16  16
#     4  10  21  37  58  85 111 147 190 231 288 341
#     4  10  20  35  56  84 118 152 186 233 288 339
#     4  10  20  36  58  86 117 149 190 236 284 344
#     4  10  19  33  56  84 110 143 188 237 282 339
#     4  10  21  36  54  78 110 149 190 232 285 345
#     4   9  21  38  56  80 113 148 187 235 288 340
#
# _framework density 18.432517000000001
#
# number of rings (size 3 to 8) (size 9 to 14) (size 15 to 20)
#    0.000    2.167    1.667    1.000    0.000   14.333 
#    0.000    1.667    0.000    8.000    0.000    0.000 
#    0.000    0.000    0.000    0.000    0.000    0.000 
#
# Total GULP energy -267775.114230 kJ/mol
# GULP energy per Si atom -5578.648213 kJ/mol
# Density = 1.839056 g / cm^3
# Si number density = 18.432517 Si / 1000 Ang^3
#
#
#
# Elastic Constant Matrix: (Units=GPa)
#
#
# Indices 1 2 3 4 5 6 
#
# 1 114.0456 37.1291 50.9445 0.0000 0.0000 0.0000
# 2 37.1291 31.9209 34.6513 0.0000 0.0000 0.0000
# 3 50.9445 34.6513 83.3244 0.0000 0.0000 0.0000
# 4 0.0000 0.0000 0.0000 13.7431 0.0000 0.0000
# 5 0.0000 0.0000 0.0000 0.0000 31.5185 0.0000
# 6 0.0000 0.0000 0.0000 0.0000 0.0000 23.9478
#
#
#
# Elastic Compliance Matrix: (Units=1/GPa)
#
#
# Indices 1 2 3 4 5 6 
#
# 1 0.014624 -0.013315 -0.003404 0.000000 0.000000 0.000000
# 2 -0.013315 0.069230 -0.020650 0.000000 0.000000 0.000000
# 3 -0.003404 -0.020650 0.022670 0.000000 0.000000 0.000000
# 4 0.000000 0.000000 0.000000 0.072764 0.000000 0.000000
# 5 0.000000 0.000000 0.000000 0.000000 0.031727 0.000000
# 6 0.000000 0.000000 0.000000 0.000000 0.000000 0.041757
#
#
# Mechanical properties :
#
#
# Convention : Reuss Voigt Hill
#
# Bulk Modulus (GPa) = 31.45885 52.74897 42.10391
# Shear Modulus (GPa) = 14.78831 20.94627 17.86729
#
# Velocity S-wave (km/s) = 2.83555 3.37468 3.11679
# Velocity P-wave (km/s) = 5.27490 6.62299 5.98701
#
# Compressibility (1/GPa) = 0.03178756
#
# Stress axis : x y z
#
# Youngs Moduli (GPa) = 68.38200 14.44452 44.11159
#
# Poissons Ratio (x) = 0.19232 0.15015
# Poissons Ratio (y) = 0.91049 0.91089
# Poissons Ratio (z) = 0.23276 0.29827
#
# Static dielectric constant tensor:
#      x y z
#    x 1.646880 0.000000 0.000000 
#    y 0.000000 1.642610 0.000000 
#    z 0.000000 0.000000 1.633830 
# 
# From -- ./inp_files/21955.got.cif
#   From: 2010.05.17/outbox.cif.g08.bks.cpg/sg67_11_cif.got.tgz:21955.got - 2010.06.03 18:28:57.
