data_PCOD9501830
_publ_section_title
;
Structure prediction by ZEFSAII (Michael W. Deem and Ramdas Pophale) SiO2 
 PCOD9501830
Probable space group: C M M A
;
_chemical_formula_sum "Si O2"
_cell_formula_units_Z 96
_cell_length_a 8.209795
_cell_length_b 29.847769
_cell_length_c 21.153983
_cell_angle_alpha 90.000000
_cell_angle_beta 90.000000
_cell_angle_gamma 90.000000
_cell_volume 5183.657979
_symmetry_space_group_name_H-M "C M M A"
_symmetry_group_IT_number 67
_symmetry_cell_setting 'orthorhombic'
loop_
_space_group_symop_operation_xyz
x,y,z
-x,1/2-y,z
x,-y,-z
-x,1/2+y,-z
-x,-y,-z
x,1/2+y,-z
-x,y,z
x,1/2-y,z
1/2+x,1/2+y,z
1/2-x,-y,z
1/2+x,1/2-y,-z
1/2-x,y,-z
1/2-x,1/2-y,-z
1/2+x,y,-z
1/2-x,1/2+y,z
1/2+x,-y,z
loop_
_atom_site_type_symbol
_atom_site_label
_atom_site_fract_x
_atom_site_fract_y
_atom_site_fract_z
Si Si1 0.198482 0.700632 0.241159
Si Si2 0.192928 0.948743 0.691510
Si Si3 0.195031 0.949014 0.070508
Si Si4 0.195404 0.607892 0.188352
Si Si5 0.695253 0.104542 0.431988
Si Si6 0.698045 0.700736 0.610380
O O1 0.252414 0.750000 0.219720
O O2 0.258614 0.657889 0.202465
O O3 0.240884 0.695910 0.315359
O O4 0.000000 0.700271 0.239208
O O5 0.269774 0.922288 0.750394
O O6 0.241258 0.924322 0.626505
O O7 0.000000 0.947392 0.698824
O O8 0.250000 0.000000 0.690899
O O9 0.258528 0.916386 0.125434
O O10 0.000000 0.948679 0.071728
O O11 0.250000 0.000000 0.082761
O O12 0.250000 0.936476 0.000000
O O13 0.000000 0.611220 0.181885
O O14 0.500000 0.104827 0.428723
O O15 0.750000 0.087026 0.500000
O O16 0.755787 0.156060 0.424322
O O17 0.500000 0.701188 0.607015
O O18 0.755364 0.750000 0.588424
#
# Coordination Sequence:
#
# PCOD9501830 Si02
#       6
#    16  16  16  16  16  16
#     4   8  13  25  50  81 108 136 174 217 260 309
#     4  12  25  40  58  80 105 137 177 222 272 322
#     4  10  20  33  52  77 110 145 181 219 265 317
#     4  10  19  34  57  85 111 141 179 222 266 312
#     4  11  22  38  57  78 108 141 179 223 268 322
#     4   8  14  27  51  79 106 138 173 214 263 313
#
# _framework density 18.519739000000001
#
# number of rings (size 3 to 8) (size 9 to 14) (size 15 to 20)
#    0.000    2.167    1.667    4.500    0.000    3.333 
#    0.000    1.667    0.000    3.500    0.000    0.000 
#    0.000    0.000    0.000    0.000    0.000    0.667 
#
# Total GULP energy -267884.535960 kJ/mol
# GULP energy per Si atom -5580.927833 kJ/mol
# Density = 1.847759 g / cm^3
# Si number density = 18.519739 Si / 1000 Ang^3
#
#
#
# Elastic Constant Matrix: (Units=GPa)
#
#
# Indices 1 2 3 4 5 6 
#
# 1 10.2669 -6.0893 -10.6315 0.0000 0.0000 0.0000
# 2 -6.0893 132.3565 68.8476 0.0000 0.0000 0.0000
# 3 -10.6315 68.8476 111.1775 0.0000 0.0000 0.0000
# 4 0.0000 0.0000 0.0000 20.6083 0.0000 0.0000
# 5 0.0000 0.0000 0.0000 0.0000 16.8149 0.0000
# 6 0.0000 0.0000 0.0000 0.0000 0.0000 12.5693
#
#
#
# Elastic Compliance Matrix: (Units=1/GPa)
#
#
# Indices 1 2 3 4 5 6 
#
# 1 0.108137 -0.000596 0.010710 0.000000 0.000000 0.000000
# 2 -0.000596 0.011149 -0.006961 0.000000 0.000000 0.000000
# 3 0.010710 -0.006961 0.014329 0.000000 0.000000 0.000000
# 4 0.000000 0.000000 0.000000 0.048524 0.000000 0.000000
# 5 0.000000 0.000000 0.000000 0.000000 0.059471 0.000000
# 6 0.000000 0.000000 0.000000 0.000000 0.000000 0.079559
#
#
# Mechanical properties :
#
#
# Convention : Reuss Voigt Hill
#
# Bulk Modulus (GPa) = 7.14686 39.78382 23.46534
# Shear Modulus (GPa) = 13.83110 23.44346 18.63728
#
# Velocity S-wave (km/s) = 2.73578 3.56176 3.17574
# Velocity P-wave (km/s) = 3.72113 6.20027 5.11322
#
# Compressibility (1/GPa) = 0.13992162
#
# Stress axis : x y z
#
# Youngs Moduli (GPa) = 9.24749 89.69573 69.78667
#
# Poissons Ratio (x) = 0.05344 -0.74740
# Poissons Ratio (y) = 0.00551 0.48578
# Poissons Ratio (z) = -0.09904 0.62437
#
# Static dielectric constant tensor:
#      x y z
#    x 1.665250 0.000000 0.000000 
#    y 0.000000 1.655490 0.000000 
#    z 0.000000 0.000000 1.611100 
# 
# From -- ./inp_files/37159.got.cif
#   From: 2010.05.17/outbox.cif.g08.bks.cpg/sg67_19_cif.got.tgz:37159.got - 2010.06.03 18:28:57.
