data_PCOD9501102
_publ_section_title
;
Structure prediction by ZEFSAII (Michael W. Deem and Ramdas Pophale) SiO2 
 PCOD9501102
Probable space group: C M M A
;
_chemical_formula_sum "Si O2"
_cell_formula_units_Z 88
_cell_length_a 16.480764
_cell_length_b 7.436076
_cell_length_c 31.610625
_cell_angle_alpha 90.000000
_cell_angle_beta 90.000000
_cell_angle_gamma 90.000000
_cell_volume 3873.952068
_symmetry_space_group_name_H-M "C M M A"
_symmetry_group_IT_number 67
_symmetry_cell_setting 'orthorhombic'
loop_
_space_group_symop_operation_xyz
x,y,z
-x,1/2-y,z
x,-y,-z
-x,1/2+y,-z
-x,-y,-z
x,1/2+y,-z
-x,y,z
x,1/2-y,z
1/2+x,1/2+y,z
1/2-x,-y,z
1/2+x,1/2-y,-z
1/2-x,y,-z
1/2-x,1/2-y,-z
1/2+x,y,-z
1/2-x,1/2+y,z
1/2+x,-y,z
loop_
_atom_site_type_symbol
_atom_site_label
_atom_site_fract_x
_atom_site_fract_y
_atom_site_fract_z
Si Si1 0.159699 0.964982 0.598370
Si Si2 0.406434 0.034969 0.954347
Si Si3 0.000000 0.534640 0.549727
Si Si4 0.092065 0.468627 0.315295
Si Si5 0.344298 0.964791 0.226235
Si Si6 0.597166 0.034945 0.863771
O O1 0.151602 0.750000 0.599901
O O2 0.149611 0.031491 0.646791
O O3 0.083260 0.033357 0.571242
O O4 0.250000 0.000000 0.581893
O O5 0.500000 0.966389 0.956630
O O6 0.410920 0.250000 0.950718
O O7 0.371438 0.967720 0.909530
O O8 0.367216 0.000000 0.000000
O O9 0.000000 0.500000 0.500000
O O10 0.000000 0.750000 0.555854
O O11 0.097505 0.250000 0.313560
O O12 0.111344 0.534414 0.268159
O O13 0.000000 0.513522 0.327044
O O14 0.360032 0.750000 0.224845
O O15 0.369226 0.038508 0.180270
O O16 0.250000 0.000000 0.232434
O O17 0.500000 0.009776 0.863799
O O18 0.612448 0.250000 0.863051
#
# Coordination Sequence:
#
# PCOD9501102 Si02
#       6
#    16  16   8  16  16  16
#     4  10  20  36  58  84 114 147 184 228 275 322
#     4   8  13  22  38  60  84 107 138 185 235 281
#     4  10  22  40  60  82 114 152 190 232 275 322
#     4   9  16  30  54  79 102 133 174 213 251 304
#     4  10  19  30  47  70  96 126 160 198 242 294
#     4   8  14  26  44  65  87 115 154 194 230 278
#
# _framework density 22.715820999999998
#
# number of rings (size 3 to 8) (size 9 to 14) (size 15 to 20)
#    0.000    2.909    0.909    2.182    0.000    3.273 
#    0.000    2.727    0.000    4.909    0.000    3.818 
#    0.000    0.000    0.000    0.000    0.000    0.000 
#
# Total GULP energy -245383.305986 kJ/mol
# GULP energy per Si atom -5576.893318 kJ/mol
# Density = 2.266412 g / cm^3
# Si number density = 22.715821 Si / 1000 Ang^3
#
#
#
# Elastic Constant Matrix: (Units=GPa)
#
#
# Indices 1 2 3 4 5 6 
#
# 1 89.3575 -2.4437 71.9581 0.0000 0.0000 0.0000
# 2 -2.4437 72.6254 7.5062 0.0000 0.0000 0.0000
# 3 71.9581 7.5062 171.2342 0.0000 0.0000 0.0000
# 4 0.0000 0.0000 0.0000 7.2096 0.0000 0.0000
# 5 0.0000 0.0000 0.0000 0.0000 4.1508 0.0000
# 6 0.0000 0.0000 0.0000 0.0000 0.0000 9.2696
#
#
#
# Elastic Compliance Matrix: (Units=1/GPa)
#
#
# Indices 1 2 3 4 5 6 
#
# 1 0.017040 0.001319 -0.007219 0.000000 0.000000 0.000000
# 2 0.001319 0.013934 -0.001165 0.000000 0.000000 0.000000
# 3 -0.007219 -0.001165 0.008925 0.000000 0.000000 0.000000
# 4 0.000000 0.000000 0.000000 0.138704 0.000000 0.000000
# 5 0.000000 0.000000 0.000000 0.000000 0.240917 0.000000
# 6 0.000000 0.000000 0.000000 0.000000 0.000000 0.107880
#
#
# Mechanical properties :
#
#
# Convention : Reuss Voigt Hill
#
# Bulk Modulus (GPa) = 38.80508 54.13981 46.47244
# Shear Modulus (GPa) = 9.08895 21.20576 15.14736
#
# Velocity S-wave (km/s) = 2.00246 3.05868 2.58509
# Velocity P-wave (km/s) = 4.73987 6.02987 5.42336
#
# Compressibility (1/GPa) = 0.02576982
#
# Stress axis : x y z
#
# Youngs Moduli (GPa) = 58.68493 71.76626 112.05047
#
# Poissons Ratio (x) = -0.09469 0.80885
# Poissons Ratio (y) = -0.07743 0.13057
# Poissons Ratio (z) = 0.42363 0.08363
#
# Static dielectric constant tensor:
#      x y z
#    x 1.805900 0.000000 0.000000 
#    y 0.000000 1.923920 0.000000 
#    z 0.000000 0.000000 1.887300 
# 
# From -- ./inp_files/45759.got.cif
#   From: 2010.05.17/outbox.cif.g08.bks.cpg/sg67_23_cif.got.tgz:45759.got - 2010.06.03 18:28:57.
