data_PCOD9501717
_publ_section_title
;
Structure prediction by ZEFSAII (Michael W. Deem and Ramdas Pophale) SiO2 
 PCOD9501717
Probable space group: C M M A
;
_chemical_formula_sum "Si O2"
_cell_formula_units_Z 112
_cell_length_a 23.300272
_cell_length_b 15.259417
_cell_length_c 14.006593
_cell_angle_alpha 90.000000
_cell_angle_beta 90.000000
_cell_angle_gamma 90.000000
_cell_volume 4980.024065
_symmetry_space_group_name_H-M "C M M A"
_symmetry_group_IT_number 67
_symmetry_cell_setting 'orthorhombic'
loop_
_space_group_symop_operation_xyz
x,y,z
-x,1/2-y,z
x,-y,-z
-x,1/2+y,-z
-x,-y,-z
x,1/2+y,-z
-x,y,z
x,1/2-y,z
1/2+x,1/2+y,z
1/2-x,-y,z
1/2+x,1/2-y,-z
1/2-x,y,-z
1/2-x,1/2-y,-z
1/2+x,y,-z
1/2-x,1/2+y,z
1/2+x,-y,z
loop_
_atom_site_type_symbol
_atom_site_label
_atom_site_fract_x
_atom_site_fract_y
_atom_site_fract_z
Si Si1 0.371232 0.152404 0.341857
Si Si2 0.568586 0.521126 0.284436
Si Si3 0.378792 0.150953 0.563083
Si Si4 0.239809 0.397075 0.352335
Si Si5 0.845097 0.847302 0.032476
Si Si6 0.259350 0.101571 0.864043
Si Si7 0.567736 0.146110 0.894018
O O1 0.386519 0.250000 0.307100
O O2 0.392520 0.142762 0.451448
O O3 0.302274 0.145840 0.352306
O O4 0.397473 0.070799 0.284456
O O5 0.500000 0.506905 0.287559
O O6 0.589633 0.577340 0.375436
O O7 0.582383 0.582785 0.193858
O O8 0.393948 0.250000 0.594303
O O9 0.310264 0.138251 0.580428
O O10 0.250000 0.500000 0.371454
O O11 0.218809 0.386903 0.242677
O O12 0.864963 0.750000 0.049404
O O13 0.800865 0.855937 0.942211
O O14 0.900651 0.891546 0.988152
O O15 0.805789 0.866946 0.122444
O O16 0.250000 0.000000 0.886023
O O17 0.500000 0.144918 0.906955
O O18 0.583364 0.250000 0.875161
#
# Coordination Sequence:
#
# PCOD9501717 Si02
#       7
#    16  16  16  16  16  16  16
#     4  11  25  41  59  88 124 163 207 254 306 370
#     4  11  23  40  62  88 122 162 208 257 307 362
#     4  11  23  39  62  92 124 158 201 257 316 369
#     4  11  22  38  63  89 120 163 204 247 307 370
#     4  10  19  33  56  84 118 153 187 236 297 358
#     4  10  21  34  53  86 120 152 191 239 289 360
#     4   9  19  36  61  92 121 154 202 258 309 359
#
# _framework density 22.489851000000002
#
# number of rings (size 3 to 8) (size 9 to 14) (size 15 to 20)
#    0.000    1.571    1.429    4.286    2.000    7.429 
#    0.000    1.429    0.000    2.571    0.000    2.000 
#    0.000    0.000    0.000    0.000    0.000    0.000 
#
# Total GULP energy -312783.746341 kJ/mol
# GULP energy per Si atom -5585.424042 kJ/mol
# Density = 2.243866 g / cm^3
# Si number density = 22.489851 Si / 1000 Ang^3
#
#
#
# Elastic Constant Matrix: (Units=GPa)
#
#
# Indices 1 2 3 4 5 6 
#
# 1 80.3578 30.1799 11.8259 0.0000 0.0000 0.0000
# 2 30.1799 113.3829 4.3940 0.0000 0.0000 0.0000
# 3 11.8259 4.3940 33.2222 0.0000 0.0000 0.0000
# 4 0.0000 0.0000 0.0000 25.5161 0.0000 0.0000
# 5 0.0000 0.0000 0.0000 0.0000 34.1081 0.0000
# 6 0.0000 0.0000 0.0000 0.0000 0.0000 12.9462
#
#
#
# Elastic Compliance Matrix: (Units=1/GPa)
#
#
# Indices 1 2 3 4 5 6 
#
# 1 0.014516 -0.003682 -0.004680 0.000000 0.000000 0.000000
# 2 -0.003682 0.009799 0.000015 0.000000 0.000000 0.000000
# 3 -0.004680 0.000015 0.031764 0.000000 0.000000 0.000000
# 4 0.000000 0.000000 0.000000 0.039191 0.000000 0.000000
# 5 0.000000 0.000000 0.000000 0.000000 0.029319 0.000000
# 6 0.000000 0.000000 0.000000 0.000000 0.000000 0.077243
#
#
# Mechanical properties :
#
#
# Convention : Reuss Voigt Hill
#
# Bulk Modulus (GPa) = 25.39101 35.52917 30.46009
# Shear Modulus (GPa) = 21.58376 26.55161 24.06768
#
# Velocity S-wave (km/s) = 3.10128 3.43972 3.27488
# Velocity P-wave (km/s) = 4.91309 5.62208 5.27950
#
# Compressibility (1/GPa) = 0.03938402
#
# Stress axis : x y z
#
# Youngs Moduli (GPa) = 68.88888 102.04811 31.48182
#
# Poissons Ratio (x) = 0.37579 0.14734
# Poissons Ratio (y) = 0.25368 -0.00046
# Poissons Ratio (z) = 0.32241 -0.00151
#
# Static dielectric constant tensor:
#      x y z
#    x 1.792100 0.000000 0.000000 
#    y 0.000000 1.854710 0.000000 
#    z 0.000000 0.000000 1.622970 
# 
# From -- ./inp_files/27494.got.cif
#   From: 2010.05.17/outbox.cif.g08.bks.cpg/sg67_14_cif.got.tgz:27494.got - 2010.06.03 18:28:57.
