data_PCOD9501652
_publ_section_title
;
Structure prediction by ZEFSAII (Michael W. Deem and Ramdas Pophale) SiO2 
 PCOD9501652
Probable space group: C M M A
;
_chemical_formula_sum "Si O2"
_cell_formula_units_Z 128
_cell_length_a 19.770869
_cell_length_b 19.825014
_cell_length_c 19.984580
_cell_angle_alpha 90.000000
_cell_angle_beta 90.000000
_cell_angle_gamma 90.000000
_cell_volume 7833.111106
_symmetry_space_group_name_H-M "C M M A"
_symmetry_group_IT_number 67
_symmetry_cell_setting 'orthorhombic'
loop_
_space_group_symop_operation_xyz
x,y,z
-x,1/2-y,z
x,-y,-z
-x,1/2+y,-z
-x,-y,-z
x,1/2+y,-z
-x,y,z
x,1/2-y,z
1/2+x,1/2+y,z
1/2-x,-y,z
1/2+x,1/2-y,-z
1/2-x,y,-z
1/2-x,1/2-y,-z
1/2+x,y,-z
1/2-x,1/2+y,z
1/2+x,-y,z
loop_
_atom_site_type_symbol
_atom_site_label
_atom_site_fract_x
_atom_site_fract_y
_atom_site_fract_z
Si Si1 0.919235 0.671671 0.417880
Si Si2 0.319602 0.670491 0.038156
Si Si3 0.310662 0.090599 0.672744
Si Si4 0.696741 0.899053 0.176289
Si Si5 0.850677 0.561560 0.322440
Si Si6 0.148982 0.448301 0.828043
Si Si7 0.419991 0.428098 0.033572
Si Si8 0.817620 0.670562 0.538156
O O1 0.904042 0.750000 0.396271
O O2 0.890335 0.613729 0.369156
O O3 0.880507 0.662111 0.488172
O O4 0.000000 0.665895 0.424065
O O5 0.326911 0.750000 0.029294
O O6 0.318683 0.651477 0.116441
O O7 0.250000 0.649610 0.000000
O O8 0.379928 0.629656 0.004680
O O9 0.322511 0.119996 0.747439
O O10 0.229403 0.078704 0.672913
O O11 0.327269 0.135845 0.609287
O O12 0.349254 0.019000 0.663970
O O13 0.776790 0.914577 0.170146
O O14 0.660982 0.971402 0.165619
O O15 0.876578 0.568177 0.246258
O O16 0.103175 0.426693 0.889436
O O17 0.500000 0.420377 0.027841
O O18 0.400979 0.500000 0.000000
O O19 0.807039 0.750000 0.549443
O O20 0.750000 0.644467 0.500000
#
# Coordination Sequence:
#
# PCOD9501652 Si02
#       8
#    16  16  16  16  16  16  16  16
#     4  10  21  37  55  77 110 150 186 220 267 328
#     4  11  22  35  54  82 110 141 182 225 271 321
#     4   9  18  32  53  83 111 135 176 228 276 316
#     4   9  17  32  55  79 106 139 176 223 274 317
#     4   9  18  33  52  81 111 140 177 222 271 324
#     4   9  17  32  55  79 106 139 179 223 266 317
#     4  11  22  35  56  82 105 142 187 223 268 322
#     4  10  19  33  54  78 105 143 187 226 266 320
#
# _framework density 16.340888
#
# number of rings (size 3 to 8) (size 9 to 14) (size 15 to 20)
#    0.000    2.250    3.750    1.500    0.000    2.000 
#    0.000    3.750    0.000    1.500    0.000    1.750 
#    0.000    0.000    0.000    0.000    0.000    0.000 
#
# Total GULP energy -356508.946253 kJ/mol
# GULP energy per Si atom -5570.452285 kJ/mol
# Density = 1.630370 g / cm^3
# Si number density = 16.340888 Si / 1000 Ang^3
#
#
#
# Elastic Constant Matrix: (Units=GPa)
#
#
# Indices 1 2 3 4 5 6 
#
# 1 55.6574 40.6567 44.8448 0.0000 0.0000 0.0000
# 2 40.6567 70.1842 73.4135 0.0000 0.0000 0.0000
# 3 44.8448 73.4135 144.7013 0.0000 0.0000 0.0000
# 4 0.0000 0.0000 0.0000 26.5101 0.0000 0.0000
# 5 0.0000 0.0000 0.0000 0.0000 18.1717 0.0000
# 6 0.0000 0.0000 0.0000 0.0000 0.0000 21.4072
#
#
#
# Elastic Compliance Matrix: (Units=1/GPa)
#
#
# Indices 1 2 3 4 5 6 
#
# 1 0.031224 -0.016973 -0.001066 0.000000 0.000000 0.000000
# 2 -0.016973 0.039586 -0.014824 0.000000 0.000000 0.000000
# 3 -0.001066 -0.014824 0.014762 0.000000 0.000000 0.000000
# 4 0.000000 0.000000 0.000000 0.037721 0.000000 0.000000
# 5 0.000000 0.000000 0.000000 0.000000 0.055030 0.000000
# 6 0.000000 0.000000 0.000000 0.000000 0.000000 0.046713
#
#
# Mechanical properties :
#
#
# Convention : Reuss Voigt Hill
#
# Bulk Modulus (GPa) = 50.38436 65.37477 57.87956
# Shear Modulus (GPa) = 16.81360 20.65966 18.73663
#
# Velocity S-wave (km/s) = 3.21117 3.55955 3.38984
# Velocity P-wave (km/s) = 6.68200 7.54901 7.12870
#
# Compressibility (1/GPa) = 0.01984743
#
# Stress axis : x y z
#
# Youngs Moduli (GPa) = 32.02644 25.26124 67.74258
#
# Poissons Ratio (x) = 0.42876 0.07218
# Poissons Ratio (y) = 0.54359 1.00420
# Poissons Ratio (z) = 0.03413 0.37447
#
# Static dielectric constant tensor:
#      x y z
#    x 1.533980 0.000000 0.000000 
#    y 0.000000 1.540280 0.000000 
#    z 0.000000 0.000000 1.554550 
# 
# From -- ./inp_files/35239.got.cif
#   From: 2010.05.17/outbox.cif.g08.bks.cpg/sg67_18_cif.got.tgz:35239.got - 2010.06.03 18:28:57.
