data_PCOD9501877
_publ_section_title
;
Structure prediction by ZEFSAII (Michael W. Deem and Ramdas Pophale) SiO2 
 PCOD9501877
Probable space group: C M M A
;
_chemical_formula_sum "Si O2"
_cell_formula_units_Z 104
_cell_length_a 9.583667
_cell_length_b 21.403397
_cell_length_c 28.744389
_cell_angle_alpha 90.000000
_cell_angle_beta 90.000000
_cell_angle_gamma 90.000000
_cell_volume 5896.136153
_symmetry_space_group_name_H-M "C M M A"
_symmetry_group_IT_number 67
_symmetry_cell_setting 'orthorhombic'
loop_
_space_group_symop_operation_xyz
x,y,z
-x,1/2-y,z
x,-y,-z
-x,1/2+y,-z
-x,-y,-z
x,1/2+y,-z
-x,y,z
x,1/2-y,z
1/2+x,1/2+y,z
1/2-x,-y,z
1/2+x,1/2-y,-z
1/2-x,y,-z
1/2-x,1/2-y,-z
1/2+x,y,-z
1/2-x,1/2+y,z
1/2+x,-y,z
loop_
_atom_site_type_symbol
_atom_site_label
_atom_site_fract_x
_atom_site_fract_y
_atom_site_fract_z
Si Si1 0.000000 0.554271 0.562048
Si Si2 0.334621 0.825671 0.301728
Si Si3 0.830832 0.938237 0.951051
Si Si4 0.765766 0.868294 0.599367
Si Si5 0.164240 0.823068 0.880841
Si Si6 0.839681 0.174443 0.788662
Si Si7 0.500000 0.408069 0.457631
Si Si8 0.352368 0.750000 0.457266
O O1 0.864890 0.573089 0.590745
O O2 0.000000 0.593628 0.513583
O O3 0.000000 0.481859 0.551601
O O4 0.500000 0.842175 0.302568
O O5 0.327984 0.750000 0.304698
O O6 0.255586 0.854146 0.346259
O O7 0.256028 0.845800 0.254714
O O8 0.814558 0.875794 0.920075
O O9 0.000000 0.948956 0.956297
O O10 0.750000 0.000000 0.931330
O O11 0.750000 0.928183 0.000000
O O12 0.630892 0.878567 0.568090
O O13 0.838306 0.808637 0.576349
O O14 0.191814 0.750000 0.894737
O O15 0.261828 0.839048 0.837038
O O16 0.000000 0.825311 0.867284
O O17 0.845441 0.250000 0.785852
O O18 0.000000 0.151659 0.786887
O O19 0.500000 0.750000 0.481228
O O20 0.250000 0.750000 0.500000
#
# Coordination Sequence:
#
# PCOD9501877 Si02
#       8
#     8  16  16  16  16  16   8   8
#     4  11  22  45  61  77 105 142 189 221 258 325
#     4  10  19  35  54  78 110 146 177 210 268 338
#     4  10  20  34  54  80 114 157 201 240 285 338
#     4  12  23  38  59  84 111 140 176 220 272 329
#     4   9  18  34  55  82 113 150 193 235 284 338
#     4   9  18  31  52  82 113 141 177 227 276 327
#     4  11  26  39  61  83 103 142 185 227 264 307
#     4  12  24  38  56  82 116 144 170 212 277 336
#
# _framework density 17.638670999999999
#
# number of rings (size 3 to 8) (size 9 to 14) (size 15 to 20)
#    0.000    1.692    2.308    3.231    2.154    4.615 
#    0.000    0.000    0.000    1.846    0.000    0.000 
#    0.000    0.000    0.000    0.000    0.000    0.000 
#
# Total GULP energy -289856.306465 kJ/mol
# GULP energy per Si atom -5574.159740 kJ/mol
# Density = 1.759852 g / cm^3
# Si number density = 17.638671 Si / 1000 Ang^3
#
#
#
# Elastic Constant Matrix: (Units=GPa)
#
#
# Indices 1 2 3 4 5 6 
#
# 1 99.7237 27.8976 43.3866 0.0000 0.0000 0.0000
# 2 27.8976 69.2298 40.1800 0.0000 0.0000 0.0000
# 3 43.3866 40.1800 101.7064 0.0000 0.0000 0.0000
# 4 0.0000 0.0000 0.0000 14.5283 0.0000 0.0000
# 5 0.0000 0.0000 0.0000 0.0000 2.3371 0.0000
# 6 0.0000 0.0000 0.0000 0.0000 0.0000 23.5533
#
#
#
# Elastic Compliance Matrix: (Units=1/GPa)
#
#
# Indices 1 2 3 4 5 6 
#
# 1 0.012651 -0.002551 -0.004389 0.000000 0.000000 0.000000
# 2 -0.002551 0.019256 -0.006519 0.000000 0.000000 0.000000
# 3 -0.004389 -0.006519 0.014280 0.000000 0.000000 0.000000
# 4 0.000000 0.000000 0.000000 0.068831 0.000000 0.000000
# 5 0.000000 0.000000 0.000000 0.000000 0.427882 0.000000
# 6 0.000000 0.000000 0.000000 0.000000 0.000000 0.042457
#
#
# Mechanical properties :
#
#
# Convention : Reuss Voigt Hill
#
# Bulk Modulus (GPa) = 51.89632 54.84317 53.36974
# Shear Modulus (GPa) = 8.08149 18.69677 13.38913
#
# Velocity S-wave (km/s) = 2.14281 3.25928 2.75813
# Velocity P-wave (km/s) = 5.96724 6.73230 6.36128
#
# Compressibility (1/GPa) = 0.01926919
#
# Stress axis : x y z
#
# Youngs Moduli (GPa) = 79.04674 51.93152 70.02797
#
# Poissons Ratio (x) = 0.13245 0.30735
# Poissons Ratio (y) = 0.20161 0.45653
# Poissons Ratio (z) = 0.34694 0.33856
#
# Static dielectric constant tensor:
#      x y z
#    x 1.606990 0.000000 0.000000 
#    y 0.000000 1.608320 0.000000 
#    z 0.000000 0.000000 1.581810 
# 
# From -- ./inp_files/43765.got.cif
#   From: 2010.05.17/outbox.cif.g08.bks.cpg/sg67_22_cif.got.tgz:43765.got - 2010.06.03 18:28:57.
