data_PCOD9501503
_publ_section_title
;
Structure prediction by ZEFSAII (Michael W. Deem and Ramdas Pophale) SiO2 
 PCOD9501503
Probable space group: C M M A
;
_chemical_formula_sum "Si O2"
_cell_formula_units_Z 112
_cell_length_a 13.890614
_cell_length_b 14.586386
_cell_length_c 29.255862
_cell_angle_alpha 90.000000
_cell_angle_beta 90.000000
_cell_angle_gamma 90.000000
_cell_volume 5927.643057
_symmetry_space_group_name_H-M "C M M A"
_symmetry_group_IT_number 67
_symmetry_cell_setting 'orthorhombic'
loop_
_space_group_symop_operation_xyz
x,y,z
-x,1/2-y,z
x,-y,-z
-x,1/2+y,-z
-x,-y,-z
x,1/2+y,-z
-x,y,z
x,1/2-y,z
1/2+x,1/2+y,z
1/2-x,-y,z
1/2+x,1/2-y,-z
1/2-x,y,-z
1/2-x,1/2-y,-z
1/2+x,y,-z
1/2-x,1/2+y,z
1/2+x,-y,z
loop_
_atom_site_type_symbol
_atom_site_label
_atom_site_fract_x
_atom_site_fract_y
_atom_site_fract_z
Si Si1 0.262341 0.143635 0.445457
Si Si2 0.888086 0.481734 0.703278
Si Si3 0.109778 0.361038 0.162067
Si Si4 0.888364 0.998082 0.596187
Si Si5 0.213641 0.853375 0.927544
Si Si6 0.721334 0.640010 0.254324
Si Si7 0.393971 0.102467 0.018020
O O1 0.264326 0.250000 0.431485
O O2 0.250000 0.139296 0.500000
O O3 0.177980 0.085924 0.420563
O O4 0.357666 0.087154 0.432579
O O5 0.870324 0.475708 0.649053
O O6 0.819709 0.411378 0.730976
O O7 0.858443 0.585560 0.716286
O O8 0.000000 0.465067 0.712688
O O9 0.102216 0.250000 0.159414
O O10 0.152872 0.394895 0.113937
O O11 0.184844 0.379388 0.202730
O O12 0.000000 0.394737 0.170229
O O13 0.000000 0.975415 0.590848
O O14 0.238888 0.750000 0.913741
O O15 0.314079 0.897385 0.942619
O O16 0.149494 0.848490 0.973407
O O17 0.725204 0.750000 0.261152
O O18 0.500000 0.136133 0.031008
O O19 0.401723 0.000000 0.000000
#
# Coordination Sequence:
#
# PCOD9501503 Si02
#       7
#    16  16  16  16  16  16  16
#     4  10  21  36  55  82 115 150 192 239 284 332
#     4  10  22  38  56  86 116 143 188 238 284 339
#     4   9  18  33  54  80 106 134 173 218 266 322
#     4  10  21  37  57  80 113 151 189 235 286 339
#     4  10  19  32  53  77  99 129 172 218 261 309
#     4  10  20  37  60  82 110 148 185 228 283 341
#     4  10  20  34  49  70 104 138 170 210 257 313
#
# _framework density 18.894525000000002
#
# number of rings (size 3 to 8) (size 9 to 14) (size 15 to 20)
#    0.000    2.143    0.000    5.143    0.000    6.857 
#    5.143    5.000    0.000    2.571    0.000    0.000 
#    0.000    0.000    0.000    0.000    0.000    0.000 
#
# Total GULP energy -312152.197313 kJ/mol
# GULP energy per Si atom -5574.146381 kJ/mol
# Density = 1.885152 g / cm^3
# Si number density = 18.894525 Si / 1000 Ang^3
#
#
#
# Elastic Constant Matrix: (Units=GPa)
#
#
# Indices 1 2 3 4 5 6 
#
# 1 121.7832 19.5954 32.4941 0.0000 0.0000 0.0000
# 2 19.5954 93.0985 20.2341 0.0000 0.0000 0.0000
# 3 32.4941 20.2341 71.6196 0.0000 0.0000 0.0000
# 4 0.0000 0.0000 0.0000 11.8828 0.0000 0.0000
# 5 0.0000 0.0000 0.0000 0.0000 12.1167 0.0000
# 6 0.0000 0.0000 0.0000 0.0000 0.0000 -23.9527
#
#
#
# Elastic Compliance Matrix: (Units=1/GPa)
#
#
# Indices 1 2 3 4 5 6 
#
# 1 0.009452 -0.001127 -0.003970 0.000000 0.000000 0.000000
# 2 -0.001127 0.011578 -0.002760 0.000000 0.000000 0.000000
# 3 -0.003970 -0.002760 0.016544 0.000000 0.000000 0.000000
# 4 0.000000 0.000000 0.000000 0.084155 0.000000 0.000000
# 5 0.000000 0.000000 0.000000 0.000000 0.082531 0.000000
# 6 0.000000 0.000000 0.000000 0.000000 0.000000 -0.041749
#
#
# Mechanical properties :
#
#
# Convention : Reuss Voigt Hill
#
# Bulk Modulus (GPa) = 45.74449 47.90538 46.82493
# Shear Modulus (GPa) = 26.95262 14.28788 20.62025
#
# Velocity S-wave (km/s) = 3.78097 2.75288 3.30712
# Velocity P-wave (km/s) = 6.58210 5.95933 6.27844
#
# Compressibility (1/GPa) = 0.02186056
#
# Stress axis : x y z
#
# Youngs Moduli (GPa) = 105.79908 86.36854 60.44613
#
# Poissons Ratio (x) = 0.09730 0.23998
# Poissons Ratio (y) = 0.11919 0.16683
# Poissons Ratio (z) = 0.42003 0.23838
#
# Static dielectric constant tensor:
#      x y z
#    x 1.683230 0.000000 0.000000 
#    y 0.000000 1.691610 0.000000 
#    z 0.000000 0.000000 1.673180 
# 
# From -- ./inp_files/42023.got.cif
#   From: 2010.05.17/outbox.cif.g08.bks.cpg/sg67_22_cif.got.tgz:42023.got - 2010.06.03 18:28:57.
