data_PCOD9501781
_publ_section_title
;
Structure prediction by ZEFSAII (Michael W. Deem and Ramdas Pophale) SiO2 
 PCOD9501781
Probable space group: C M M A
;
_chemical_formula_sum "Si O2"
_cell_formula_units_Z 88
_cell_length_a 8.860896
_cell_length_b 27.859808
_cell_length_c 19.391272
_cell_angle_alpha 90.000000
_cell_angle_beta 90.000000
_cell_angle_gamma 90.000000
_cell_volume 4786.984890
_symmetry_space_group_name_H-M "C M M A"
_symmetry_group_IT_number 67
_symmetry_cell_setting 'orthorhombic'
loop_
_space_group_symop_operation_xyz
x,y,z
-x,1/2-y,z
x,-y,-z
-x,1/2+y,-z
-x,-y,-z
x,1/2+y,-z
-x,y,z
x,1/2-y,z
1/2+x,1/2+y,z
1/2-x,-y,z
1/2+x,1/2-y,-z
1/2-x,y,-z
1/2-x,1/2-y,-z
1/2+x,y,-z
1/2-x,1/2+y,z
1/2+x,-y,z
loop_
_atom_site_type_symbol
_atom_site_label
_atom_site_fract_x
_atom_site_fract_y
_atom_site_fract_z
Si Si1 0.683229 0.250000 0.923873
Si Si2 0.178660 0.361261 0.575196
Si Si3 0.825521 0.193801 0.308855
Si Si4 0.683916 0.655605 0.161652
Si Si5 0.680062 0.550560 0.341504
Si Si6 0.680315 0.949396 0.177186
O O1 0.500000 0.250000 0.925511
O O2 0.731130 0.299100 0.884744
O O3 0.750000 0.250000 0.000000
O O4 0.250000 0.356818 0.500000
O O5 0.227803 0.317789 0.624687
O O6 0.246006 0.407300 0.614779
O O7 0.000000 0.364982 0.569790
O O8 0.826079 0.250000 0.292802
O O9 0.771011 0.166717 0.240471
O O10 0.000000 0.178911 0.322157
O O11 0.500000 0.655685 0.161346
O O12 0.732201 0.601191 0.143673
O O13 0.500000 0.550913 0.350204
O O14 0.750000 0.500000 0.363670
O O15 0.711556 0.555452 0.259458
O O16 0.500000 0.952661 0.169217
O O17 0.750000 0.000000 0.153579
#
# Coordination Sequence:
#
# PCOD9501781 Si02
#       6
#     8  16  16  16  16  16
#     4  10  20  36  60  90 123 154 187 222 273 330
#     4  12  25  39  54  74 105 144 187 235 289 341
#     4  10  19  36  61  83 103 136 185 233 282 343
#     4   9  16  32  59  85 111 150 188 223 272 338
#     4  10  19  34  55  79 108 139 181 231 286 341
#     4   9  17  30  52  81 112 143 183 229 276 329
#
# _framework density 18.383178000000001
#
# number of rings (size 3 to 8) (size 9 to 14) (size 15 to 20)
#    0.000    2.000    2.727    2.182    0.000    1.818 
#    0.000    3.636    0.000    0.545    0.000    3.818 
#    0.000    0.000    0.000    0.000    0.000    0.000 
#
# Total GULP energy -245448.273446 kJ/mol
# GULP energy per Si atom -5578.369851 kJ/mol
# Density = 1.834134 g / cm^3
# Si number density = 18.383178 Si / 1000 Ang^3
#
#
#
# Elastic Constant Matrix: (Units=GPa)
#
#
# Indices 1 2 3 4 5 6 
#
# 1 43.4949 26.5198 20.4973 0.0000 0.0000 0.0000
# 2 26.5198 152.9445 41.5026 0.0000 0.0000 0.0000
# 3 20.4973 41.5026 50.7536 0.0000 0.0000 0.0000
# 4 0.0000 0.0000 0.0000 17.0365 0.0000 0.0000
# 5 0.0000 0.0000 0.0000 0.0000 22.4814 0.0000
# 6 0.0000 0.0000 0.0000 0.0000 0.0000 29.1772
#
#
#
# Elastic Compliance Matrix: (Units=1/GPa)
#
#
# Indices 1 2 3 4 5 6 
#
# 1 0.029056 -0.002383 -0.009786 0.000000 0.000000 0.000000
# 2 -0.002383 0.008598 -0.006069 0.000000 0.000000 0.000000
# 3 -0.009786 -0.006069 0.028618 0.000000 0.000000 0.000000
# 4 0.000000 0.000000 0.000000 0.058697 0.000000 0.000000
# 5 0.000000 0.000000 0.000000 0.000000 0.044481 0.000000
# 6 0.000000 0.000000 0.000000 0.000000 0.000000 0.034273
#
#
# Mechanical properties :
#
#
# Convention : Reuss Voigt Hill
#
# Bulk Modulus (GPa) = 33.56059 47.13694 40.34877
# Shear Modulus (GPa) = 19.98953 24.31725 22.15339
#
# Velocity S-wave (km/s) = 3.30112 3.64098 3.47521
# Velocity P-wave (km/s) = 5.72937 6.58579 6.17245
#
# Compressibility (1/GPa) = 0.02979685
#
# Stress axis : x y z
#
# Youngs Moduli (GPa) = 34.41669 116.30255 34.94325
#
# Poissons Ratio (x) = 0.27710 0.34196
# Poissons Ratio (y) = 0.08200 0.21206
# Poissons Ratio (z) = 0.33680 0.70582
#
# Static dielectric constant tensor:
#      x y z
#    x 1.618980 0.000000 0.000000 
#    y 0.000000 1.681660 0.000000 
#    z 0.000000 0.000000 1.598850 
# 
# From -- ./inp_files/32420.got.cif
#   From: 2010.05.17/outbox.cif.g08.bks.cpg/sg67_17_cif.got.tgz:32420.got - 2010.06.03 18:28:57.
