data_PCOD9501056
_publ_section_title
;
Structure prediction by ZEFSAII (Michael W. Deem and Ramdas Pophale) SiO2 
 PCOD9501056
Probable space group: C M M A
;
_chemical_formula_sum "Si O2"
_cell_formula_units_Z 64
_cell_length_a 32.809494
_cell_length_b 11.159970
_cell_length_c 7.128756
_cell_angle_alpha 90.000000
_cell_angle_beta 90.000000
_cell_angle_gamma 90.000000
_cell_volume 2610.215173
_symmetry_space_group_name_H-M "C M M A"
_symmetry_group_IT_number 67
_symmetry_cell_setting 'orthorhombic'
loop_
_space_group_symop_operation_xyz
x,y,z
-x,1/2-y,z
x,-y,-z
-x,1/2+y,-z
-x,-y,-z
x,1/2+y,-z
-x,y,z
x,1/2-y,z
1/2+x,1/2+y,z
1/2-x,-y,z
1/2+x,1/2-y,-z
1/2-x,y,-z
1/2-x,1/2-y,-z
1/2+x,y,-z
1/2-x,1/2+y,z
1/2+x,-y,z
loop_
_atom_site_type_symbol
_atom_site_label
_atom_site_fract_x
_atom_site_fract_y
_atom_site_fract_z
Si Si1 0.908661 0.992152 0.226626
Si Si2 0.047450 0.250000 0.780939
Si Si3 0.824054 0.250000 0.239563
Si Si4 0.080572 0.250000 0.198717
Si Si5 0.210713 0.250000 0.635698
Si Si6 0.312370 0.006995 0.283879
O O1 0.931685 0.872656 0.285252
O O2 0.861187 0.981478 0.276372
O O3 0.925794 0.120766 0.293899
O O4 0.910733 0.000000 0.000000
O O5 0.000000 0.250000 0.739104
O O6 0.055254 0.250000 0.006603
O O7 0.870152 0.250000 0.161017
O O8 0.824849 0.250000 0.471683
O O9 0.804128 0.378033 0.192447
O O10 0.250000 0.250000 0.500000
O O11 0.206735 0.133795 0.765600
O O12 0.298994 0.000000 0.500000
#
# Coordination Sequence:
#
# PCOD9501056 Si02
#       6
#    16   8   8   8   8  16
#     4   9  17  30  48  71  96 124 160 200 239 285
#     4  10  19  29  46  73  99 122 155 202 248 287
#     4   8  16  29  44  65  93 123 154 192 235 279
#     4   8  16  29  44  65  93 123 155 190 235 283
#     4  10  19  29  46  75 101 124 158 202 243 283
#     4   9  17  30  48  71  95 125 162 197 236 285
#
# _framework density 24.51905
#
# number of rings (size 3 to 8) (size 9 to 14) (size 15 to 20)
#    0.000    3.000    0.000    0.750    0.000    9.000 
#    0.000    0.000    0.000    0.750    0.000  115.500 
#    0.000    0.000    0.000    0.000    0.000    0.000 
#
# Total GULP energy -178547.243411 kJ/mol
# GULP energy per Si atom -5579.601357 kJ/mol
# Density = 2.446324 g / cm^3
# Si number density = 24.519050 Si / 1000 Ang^3
#
#
#
# Elastic Constant Matrix: (Units=GPa)
#
#
# Indices 1 2 3 4 5 6 
#
# 1 82.8282 73.0876 10.5428 0.0000 0.0000 0.0000
# 2 73.0876 352.3283 14.2038 0.0000 0.0000 0.0000
# 3 10.5428 14.2038 104.1707 0.0000 0.0000 0.0000
# 4 0.0000 0.0000 0.0000 -20.8921 0.0000 0.0000
# 5 0.0000 0.0000 0.0000 0.0000 24.6344 0.0000
# 6 0.0000 0.0000 0.0000 0.0000 0.0000 -22.3932
#
#
#
# Elastic Compliance Matrix: (Units=1/GPa)
#
#
# Indices 1 2 3 4 5 6 
#
# 1 0.014901 -0.003047 -0.001093 0.000000 0.000000 0.000000
# 2 -0.003047 0.003477 -0.000166 0.000000 0.000000 0.000000
# 3 -0.001093 -0.000166 0.009733 0.000000 0.000000 0.000000
# 4 0.000000 0.000000 0.000000 -0.047865 0.000000 0.000000
# 5 0.000000 0.000000 0.000000 0.000000 0.040594 0.000000
# 6 0.000000 0.000000 0.000000 0.000000 0.000000 -0.044656
#
#
# Mechanical properties :
#
#
# Convention : Reuss Voigt Hill
#
# Bulk Modulus (GPa) = 51.28189 81.66618 66.47403
# Shear Modulus (GPa) = -574.30947 25.70268 -274.30340
#
# Velocity S-wave (km/s) = -15.32117 3.24122 -10.58851
# Velocity P-wave (km/s) = 17.08871 6.88381 11.05977
#
# Compressibility (1/GPa) = 0.01950006
#
# Stress axis : x y z
#
# Youngs Moduli (GPa) = 67.10981 287.60222 102.74535
#
# Poissons Ratio (x) = 0.87633 0.11226
# Poissons Ratio (y) = 0.20449 0.01703
# Poissons Ratio (z) = 0.07332 0.04766
#
# Static dielectric constant tensor:
#      x y z
#    x 1.873590 0.000000 0.000000 
#    y 0.000000 2.097270 0.000000 
#    z 0.000000 0.000000 1.907480 
# 
# From -- ./inp_files/14392.got.cif
#   From: 2010.05.17/outbox.cif.g08.bks.cpg/sg67_8_cif.got.tgz:14392.got - 2010.06.03 18:28:57.
