data_PCOD9501204
_publ_section_title
;
Structure prediction by ZEFSAII (Michael W. Deem and Ramdas Pophale) SiO2 
 PCOD9501204
Probable space group: C M M A
;
_chemical_formula_sum "Si O2"
_cell_formula_units_Z 96
_cell_length_a 8.682577
_cell_length_b 27.806659
_cell_length_c 24.781667
_cell_angle_alpha 90.000000
_cell_angle_beta 90.000000
_cell_angle_gamma 90.000000
_cell_volume 5983.123556
_symmetry_space_group_name_H-M "C M M A"
_symmetry_group_IT_number 67
_symmetry_cell_setting 'orthorhombic'
loop_
_space_group_symop_operation_xyz
x,y,z
-x,1/2-y,z
x,-y,-z
-x,1/2+y,-z
-x,-y,-z
x,1/2+y,-z
-x,y,z
x,1/2-y,z
1/2+x,1/2+y,z
1/2-x,-y,z
1/2+x,1/2-y,-z
1/2-x,y,-z
1/2-x,1/2-y,-z
1/2+x,y,-z
1/2-x,1/2+y,z
1/2+x,-y,z
loop_
_atom_site_type_symbol
_atom_site_label
_atom_site_fract_x
_atom_site_fract_y
_atom_site_fract_z
Si Si1 0.685655 0.307014 0.174431
Si Si2 0.315717 0.644712 0.280436
Si Si3 0.686702 0.696572 0.390439
Si Si4 0.185267 0.097185 0.442136
Si Si5 0.816478 0.051459 0.665491
Si Si6 0.684443 0.693129 0.944486
O O1 0.500000 0.311352 0.177824
O O2 0.721476 0.250000 0.178405
O O3 0.762173 0.334763 0.223518
O O4 0.734248 0.324914 0.114605
O O5 0.500000 0.639519 0.282086
O O6 0.272074 0.681102 0.329319
O O7 0.239514 0.593980 0.295278
O O8 0.500000 0.697928 0.392700
O O9 0.744575 0.750000 0.403669
O O10 0.734730 0.652337 0.428420
O O11 0.250000 0.082856 0.500000
O O12 0.249754 0.065236 0.393429
O O13 0.000000 0.095019 0.441591
O O14 0.000000 0.050116 0.663262
O O15 0.750000 0.000000 0.681870
O O16 0.500000 0.690051 0.946598
O O17 0.725227 0.750000 0.944025
O O18 0.750000 0.672022 0.000000
#
# Coordination Sequence:
#
# PCOD9501204 Si02
#       6
#    16  16  16  16  16  16
#     4   9  17  28  42  64  96 132 166 200 238 277
#     4  10  19  31  48  71  96 122 156 194 232 279
#     4   8  15  28  45  65  92 124 154 186 222 260
#     4  10  20  34  51  73  98 123 154 189 226 272
#     4  11  22  38  57  74  93 117 146 185 236 287
#     4   8  14  24  37  55  84 123 165 204 238 272
#
# _framework density 16.04513
#
# number of rings (size 3 to 8) (size 9 to 14) (size 15 to 20)
#    0.000    2.667    0.000    5.000    0.000    2.333 
#    0.000    3.333    0.000    9.500    0.000    0.000 
#    0.000    0.667    0.000    7.000    0.000    4.167 
#
# Total GULP energy -267525.335818 kJ/mol
# GULP energy per Si atom -5573.444496 kJ/mol
# Density = 1.600861 g / cm^3
# Si number density = 16.045130 Si / 1000 Ang^3
#
#
#
# Elastic Constant Matrix: (Units=GPa)
#
#
# Indices 1 2 3 4 5 6 
#
# 1 58.9024 20.9787 30.4228 0.0000 0.0000 0.0000
# 2 20.9787 53.4073 7.3611 0.0000 0.0000 0.0000
# 3 30.4228 7.3611 97.5525 0.0000 0.0000 0.0000
# 4 0.0000 0.0000 0.0000 8.6536 0.0000 0.0000
# 5 0.0000 0.0000 0.0000 0.0000 27.3915 0.0000
# 6 0.0000 0.0000 0.0000 0.0000 0.0000 19.1066
#
#
#
# Elastic Compliance Matrix: (Units=1/GPa)
#
#
# Indices 1 2 3 4 5 6 
#
# 1 0.023359 -0.008257 -0.006662 0.000000 0.000000 0.000000
# 2 -0.008257 0.021840 0.000927 0.000000 0.000000 0.000000
# 3 -0.006662 0.000927 0.012258 0.000000 0.000000 0.000000
# 4 0.000000 0.000000 0.000000 0.115559 0.000000 0.000000
# 5 0.000000 0.000000 0.000000 0.000000 0.036508 0.000000
# 6 0.000000 0.000000 0.000000 0.000000 0.000000 0.052338
#
#
# Mechanical properties :
#
#
# Convention : Reuss Voigt Hill
#
# Bulk Modulus (GPa) = 33.92885 36.37638 35.15262
# Shear Modulus (GPa) = 16.68506 21.10366 18.89436
#
# Velocity S-wave (km/s) = 3.22822 3.63060 3.43531
# Velocity P-wave (km/s) = 5.92343 6.34787 6.13932
#
# Compressibility (1/GPa) = 0.02947344
#
# Stress axis : x y z
#
# Youngs Moduli (GPa) = 42.81029 45.78804 81.57648
#
# Poissons Ratio (x) = 0.37809 0.54343
# Poissons Ratio (y) = 0.35350 -0.07563
# Poissons Ratio (z) = 0.28519 -0.04245
#
# Static dielectric constant tensor:
#      x y z
#    x 1.536500 0.000000 0.000000 
#    y 0.000000 1.529810 0.000000 
#    z 0.000000 0.000000 1.545840 
# 
# From -- ./inp_files/40771.got.cif
#   From: 2010.05.17/outbox.cif.g08.bks.cpg/sg67_21_cif.got.tgz:40771.got - 2010.06.03 18:28:57.
