data_PCOD9501473
_publ_section_title
;
Structure prediction by ZEFSAII (Michael W. Deem and Ramdas Pophale) SiO2 
 PCOD9501473
Probable space group: C M M A
;
_chemical_formula_sum "Si O2"
_cell_formula_units_Z 116
_cell_length_a 25.849784
_cell_length_b 7.565782
_cell_length_c 27.628212
_cell_angle_alpha 90.000000
_cell_angle_beta 90.000000
_cell_angle_gamma 90.000000
_cell_volume 5403.355250
_symmetry_space_group_name_H-M "C M M A"
_symmetry_group_IT_number 67
_symmetry_cell_setting 'orthorhombic'
loop_
_space_group_symop_operation_xyz
x,y,z
-x,1/2-y,z
x,-y,-z
-x,1/2+y,-z
-x,-y,-z
x,1/2+y,-z
-x,y,z
x,1/2-y,z
1/2+x,1/2+y,z
1/2-x,-y,z
1/2+x,1/2-y,-z
1/2-x,y,-z
1/2-x,1/2-y,-z
1/2+x,y,-z
1/2-x,1/2+y,z
1/2+x,-y,z
loop_
_atom_site_type_symbol
_atom_site_label
_atom_site_fract_x
_atom_site_fract_y
_atom_site_fract_z
Si Si1 0.169846 0.043978 0.312869
Si Si2 0.194235 0.539343 0.790826
Si Si3 0.056962 0.965047 0.340423
Si Si4 0.307152 0.039315 0.580355
Si Si5 0.580705 0.948670 0.553159
Si Si6 0.087288 0.033299 0.159837
Si Si7 0.000000 0.750000 0.187512
Si Si8 0.558637 0.460181 0.947610
O O1 0.184292 0.250000 0.314678
O O2 0.191452 0.963350 0.263787
O O3 0.188798 0.968887 0.364224
O O4 0.107427 0.030765 0.312599
O O5 0.190210 0.750000 0.786161
O O6 0.250000 0.500000 0.812807
O O7 0.143688 0.486804 0.820003
O O8 0.059827 0.750000 0.339460
O O9 0.062955 0.033482 0.396128
O O10 0.000000 0.014602 0.322137
O O11 0.314802 0.250000 0.579945
O O12 0.250000 0.000000 0.561330
O O13 0.356822 0.960372 0.553806
O O14 0.563472 0.750000 0.558974
O O15 0.562586 0.000000 0.500000
O O16 0.078502 0.250000 0.165240
O O17 0.084670 0.987919 0.102528
O O18 0.044988 0.908076 0.184835
O O19 0.500000 0.536045 0.947260
O O20 0.554502 0.250000 0.945466
O O21 0.582523 0.500000 0.000000
#
# Coordination Sequence:
#
# PCOD9501473 Si02
#       8
#    16  16  16  16  16  16   4  16
#     4   9  19  36  56  80 105 138 175 220 276 328
#     4  10  22  40  61  84 118 155 201 250 297 355
#     4   9  19  36  54  76 106 136 169 218 267 321
#     4  10  19  32  52  76 101 127 164 205 257 316
#     4  10  20  34  51  71  99 132 167 206 254 306
#     4  10  22  39  57  89 128 163 202 261 312 363
#     4  12  22  36  66  86 126 166 214 244 318 388
#     4   9  17  29  50  79 117 157 198 249 310 365
#
# _framework density 21.468139999999998
#
# number of rings (size 3 to 8) (size 9 to 14) (size 15 to 20)
#    0.000    2.345    0.690    1.448    1.931    2.483 
#    1.241    1.379    0.000    0.414    0.000    2.897 
#    0.000    0.000    0.000    0.000    0.000    0.000 
#
# Total GULP energy -323079.686890 kJ/mol
# GULP energy per Si atom -5570.339429 kJ/mol
# Density = 2.141928 g / cm^3
# Si number density = 21.468140 Si / 1000 Ang^3
#
#
#
# Elastic Constant Matrix: (Units=GPa)
#
#
# Indices 1 2 3 4 5 6 
#
# 1 145.6672 8.3147 29.2064 0.0000 0.0000 0.0000
# 2 8.3147 70.6513 7.1962 0.0000 0.0000 0.0000
# 3 29.2064 7.1962 55.5423 0.0000 0.0000 0.0000
# 4 0.0000 0.0000 0.0000 8.6937 0.0000 0.0000
# 5 0.0000 0.0000 0.0000 0.0000 -28.1192 0.0000
# 6 0.0000 0.0000 0.0000 0.0000 0.0000 17.2182
#
#
#
# Elastic Compliance Matrix: (Units=1/GPa)
#
#
# Indices 1 2 3 4 5 6 
#
# 1 0.007691 -0.000500 -0.003980 0.000000 0.000000 0.000000
# 2 -0.000500 0.014376 -0.001600 0.000000 0.000000 0.000000
# 3 -0.003980 -0.001600 0.020304 0.000000 0.000000 0.000000
# 4 0.000000 0.000000 0.000000 0.115026 0.000000 0.000000
# 5 0.000000 0.000000 0.000000 0.000000 -0.035563 0.000000
# 6 0.000000 0.000000 0.000000 0.000000 0.000000 0.058078
#
#
# Mechanical properties :
#
#
# Convention : Reuss Voigt Hill
#
# Bulk Modulus (GPa) = 33.09842 40.14396 36.62119
# Shear Modulus (GPa) = 24.73511 14.70144 19.71827
#
# Velocity S-wave (km/s) = 3.39806 2.61971 3.03395
# Velocity P-wave (km/s) = 5.55398 5.28114 5.41927
#
# Compressibility (1/GPa) = 0.03021293
#
# Stress axis : x y z
#
# Youngs Moduli (GPa) = 130.01484 69.56146 49.25076
#
# Poissons Ratio (x) = 0.03477 0.19600
# Poissons Ratio (y) = 0.06499 0.07879
# Poissons Ratio (z) = 0.51742 0.11128
#
# Static dielectric constant tensor:
#      x y z
#    x 1.778080 0.000000 0.000000 
#    y 0.000000 1.819100 0.000000 
#    z 0.000000 0.000000 1.837360 
# 
# From -- ./inp_files/43913.got.cif
#   From: 2010.05.17/outbox.cif.g08.bks.cpg/sg67_22_cif.got.tgz:43913.got - 2010.06.03 18:28:57.
