data_PCOD9501216
_publ_section_title
;
Structure prediction by ZEFSAII (Michael W. Deem and Ramdas Pophale) SiO2 
 PCOD9501216
Probable space group: C M M A
;
_chemical_formula_sum "Si O2"
_cell_formula_units_Z 80
_cell_length_a 8.717778
_cell_length_b 28.165347
_cell_length_c 19.226792
_cell_angle_alpha 90.000000
_cell_angle_beta 90.000000
_cell_angle_gamma 90.000000
_cell_volume 4720.931942
_symmetry_space_group_name_H-M "C M M A"
_symmetry_group_IT_number 67
_symmetry_cell_setting 'orthorhombic'
loop_
_space_group_symop_operation_xyz
x,y,z
-x,1/2-y,z
x,-y,-z
-x,1/2+y,-z
-x,-y,-z
x,1/2+y,-z
-x,y,z
x,1/2-y,z
1/2+x,1/2+y,z
1/2-x,-y,z
1/2+x,1/2-y,-z
1/2-x,y,-z
1/2-x,1/2-y,-z
1/2+x,y,-z
1/2-x,1/2+y,z
1/2+x,-y,z
loop_
_atom_site_type_symbol
_atom_site_label
_atom_site_fract_x
_atom_site_fract_y
_atom_site_fract_z
Si Si1 0.815664 0.893612 0.713257
Si Si2 0.815188 0.446978 0.426102
Si Si3 0.184040 0.947844 0.853897
Si Si4 0.184876 0.196217 0.785495
Si Si5 0.316268 0.643079 0.926260
O O1 0.768239 0.914814 0.639234
O O2 0.771975 0.928977 0.776578
O O3 0.748196 0.842410 0.731823
O O4 0.000000 0.890445 0.713837
O O5 0.750000 0.500000 0.415636
O O6 0.750000 0.429773 0.500000
O O7 0.000000 0.449199 0.429185
O O8 0.250759 0.908697 0.906372
O O9 0.000000 0.948553 0.858795
O O10 0.250000 0.000000 0.865759
O O11 0.237813 0.250000 0.773888
O O12 0.228589 0.177565 0.862516
O O13 0.000000 0.195575 0.782323
O O14 0.500000 0.640967 0.929346
O O15 0.250000 0.658619 0.000000
#
# Coordination Sequence:
#
# PCOD9501216 Si02
#       5
#    16  16  16  16  16
#     4   9  19  33  50  73 100 129 162 201 241 285
#     4  10  19  31  48  74 106 137 168 198 234 280
#     4  10  19  32  49  70  96 127 163 199 239 285
#     4   9  19  35  54  75  97 123 158 200 246 293
#     4  10  20  34  50  70  97 126 158 197 241 289
#
# _framework density 16.945806000000001
#
# number of rings (size 3 to 8) (size 9 to 14) (size 15 to 20)
#    0.000    2.400    0.000    3.000    0.000    4.400 
#    0.000    2.000    0.000    0.600    0.000    0.000 
#    0.000    0.000    0.000    0.000    0.000    0.000 
#
# Total GULP energy -223198.614269 kJ/mol
# GULP energy per Si atom -5579.965357 kJ/mol
# Density = 1.690724 g / cm^3
# Si number density = 16.945806 Si / 1000 Ang^3
#
#
#
# Elastic Constant Matrix: (Units=GPa)
#
#
# Indices 1 2 3 4 5 6 
#
# 1 34.7414 16.7912 25.0538 0.0000 0.0000 0.0000
# 2 16.7912 81.0956 33.4760 0.0000 0.0000 0.0000
# 3 25.0538 33.4760 113.4277 0.0000 0.0000 0.0000
# 4 0.0000 0.0000 0.0000 11.5580 0.0000 0.0000
# 5 0.0000 0.0000 0.0000 0.0000 27.8748 0.0000
# 6 0.0000 0.0000 0.0000 0.0000 0.0000 25.6239
#
#
#
# Elastic Compliance Matrix: (Units=1/GPa)
#
#
# Indices 1 2 3 4 5 6 
#
# 1 0.035756 -0.004718 -0.006505 0.000000 0.000000 0.000000
# 2 -0.004718 0.014664 -0.003286 0.000000 0.000000 0.000000
# 3 -0.006505 -0.003286 0.011223 0.000000 0.000000 0.000000
# 4 0.000000 0.000000 0.000000 0.086520 0.000000 0.000000
# 5 0.000000 0.000000 0.000000 0.000000 0.035875 0.000000
# 6 0.000000 0.000000 0.000000 0.000000 0.000000 0.039026
#
#
# Mechanical properties :
#
#
# Convention : Reuss Voigt Hill
#
# Bulk Modulus (GPa) = 30.65157 42.21185 36.43171
# Shear Modulus (GPa) = 19.01451 23.27426 21.14439
#
# Velocity S-wave (km/s) = 3.35338 3.71003 3.53620
# Velocity P-wave (km/s) = 5.75507 6.58152 6.18212
#
# Compressibility (1/GPa) = 0.03262476
#
# Stress axis : x y z
#
# Youngs Moduli (GPa) = 27.96754 68.19246 89.10429
#
# Poissons Ratio (x) = 0.32173 0.57965
# Poissons Ratio (y) = 0.13195 0.29278
# Poissons Ratio (z) = 0.18194 0.22407
#
# Static dielectric constant tensor:
#      x y z
#    x 1.570840 0.000000 0.000000 
#    y 0.000000 1.546370 0.000000 
#    z 0.000000 0.000000 1.573510 
# 
# From -- ./inp_files/32127.got.cif
#   From: 2010.05.17/outbox.cif.g08.bks.cpg/sg67_17_cif.got.tgz:32127.got - 2010.06.03 18:28:57.
