data_PCOD9501551
_publ_section_title
;
Structure prediction by ZEFSAII (Michael W. Deem and Ramdas Pophale) SiO2 
 PCOD9501551
Probable space group: C M M A
;
_chemical_formula_sum "Si O2"
_cell_formula_units_Z 96
_cell_length_a 15.027210
_cell_length_b 14.181928
_cell_length_c 22.024958
_cell_angle_alpha 90.000000
_cell_angle_beta 90.000000
_cell_angle_gamma 90.000000
_cell_volume 4693.844745
_symmetry_space_group_name_H-M "C M M A"
_symmetry_group_IT_number 67
_symmetry_cell_setting 'orthorhombic'
loop_
_space_group_symop_operation_xyz
x,y,z
-x,1/2-y,z
x,-y,-z
-x,1/2+y,-z
-x,-y,-z
x,1/2+y,-z
-x,y,z
x,1/2-y,z
1/2+x,1/2+y,z
1/2-x,-y,z
1/2+x,1/2-y,-z
1/2-x,y,-z
1/2-x,1/2-y,-z
1/2+x,y,-z
1/2-x,1/2+y,z
1/2+x,-y,z
loop_
_atom_site_type_symbol
_atom_site_label
_atom_site_fract_x
_atom_site_fract_y
_atom_site_fract_z
Si Si1 0.601974 0.478095 0.402549
Si Si2 0.296256 0.362880 0.168903
Si Si3 0.147538 0.854703 0.517352
Si Si4 0.892717 0.858415 0.291330
Si Si5 0.903618 0.637449 0.834195
Si Si6 0.897507 0.018944 0.931132
O O1 0.500000 0.500743 0.388691
O O2 0.603447 0.406077 0.459612
O O3 0.643569 0.574562 0.426179
O O4 0.641575 0.426366 0.344281
O O5 0.300638 0.250000 0.158289
O O6 0.360729 0.386622 0.224745
O O7 0.195129 0.385878 0.190251
O O8 0.331861 0.416618 0.109251
O O9 0.111585 0.750000 0.528299
O O10 0.250000 0.847409 0.500000
O O11 0.863479 0.750000 0.302340
O O12 0.000000 0.858602 0.293349
O O13 0.904602 0.750000 0.841525
O O14 0.902430 0.581338 0.897207
O O15 0.000000 0.611777 0.804151
O O16 0.000000 0.057382 0.931082
O O17 0.869560 0.000000 0.000000
#
# Coordination Sequence:
#
# PCOD9501551 Si02
#       6
#    16  16  16  16  16  16
#     4  10  19  32  55  84 112 144 180 224 281 336
#     4  10  20  35  58  85 112 147 190 237 288 342
#     4  10  20  34  52  78 114 151 189 231 269 315
#     4   9  18  33  54  83 116 145 180 231 289 347
#     4   9  19  36  55  77 108 145 184 225 275 337
#     4  10  21  36  55  81 113 147 185 234 288 340
#
# _framework density 20.452316
#
# number of rings (size 3 to 8) (size 9 to 14) (size 15 to 20)
#    0.000    2.333    0.000    3.500    0.000    5.000 
#    0.000    6.667    0.000    3.000    0.000    7.000 
#    0.000   10.667    0.000    0.000    0.000    0.000 
#
# Total GULP energy -267592.490218 kJ/mol
# GULP energy per Si atom -5574.843546 kJ/mol
# Density = 2.040577 g / cm^3
# Si number density = 20.452316 Si / 1000 Ang^3
#
#
#
# Elastic Constant Matrix: (Units=GPa)
#
#
# Indices 1 2 3 4 5 6 
#
# 1 81.7843 25.6762 19.9673 0.0000 0.0000 0.0000
# 2 25.6762 99.4850 44.1545 0.0000 0.0000 0.0000
# 3 19.9673 44.1545 91.4300 0.0000 0.0000 0.0000
# 4 0.0000 0.0000 0.0000 -61.7050 0.0000 0.0000
# 5 0.0000 0.0000 0.0000 0.0000 -28.1429 0.0000
# 6 0.0000 0.0000 0.0000 0.0000 0.0000 31.4317
#
#
#
# Elastic Compliance Matrix: (Units=1/GPa)
#
#
# Indices 1 2 3 4 5 6 
#
# 1 0.013489 -0.002767 -0.001610 0.000000 0.000000 0.000000
# 2 -0.002767 0.013362 -0.005848 0.000000 0.000000 0.000000
# 3 -0.001610 -0.005848 0.014113 0.000000 0.000000 0.000000
# 4 0.000000 0.000000 0.000000 -0.016206 0.000000 0.000000
# 5 0.000000 0.000000 0.000000 0.000000 -0.035533 0.000000
# 6 0.000000 0.000000 0.000000 0.000000 0.000000 0.031815
#
#
# Mechanical properties :
#
#
# Convention : Reuss Voigt Hill
#
# Bulk Modulus (GPa) = 48.74778 50.25503 49.50140
# Shear Modulus (GPa) = 103.46016 0.51018 51.98517
#
# Velocity S-wave (km/s) = 7.12010 0.49999 5.04707
# Velocity P-wave (km/s) = 9.56457 4.99585 7.63019
#
# Compressibility (1/GPa) = 0.02051376
#
# Stress axis : x y z
#
# Youngs Moduli (GPa) = 74.13474 74.84112 70.85533
#
# Poissons Ratio (x) = 0.20709 0.11405
# Poissons Ratio (y) = 0.20513 0.41440
# Poissons Ratio (z) = 0.11932 0.43771
#
# Static dielectric constant tensor:
#      x y z
#    x 1.806090 0.000000 0.000000 
#    y 0.000000 1.754490 0.000000 
#    z 0.000000 0.000000 1.690310 
# 
# From -- ./inp_files/38497.got.cif
#   From: 2010.05.17/outbox.cif.g08.bks.cpg/sg67_20_cif.got.tgz:38497.got - 2010.06.03 18:28:57.
