data_PCOD9501932
_publ_section_title
;
Structure prediction by ZEFSAII (Michael W. Deem and Ramdas Pophale) SiO2 
 PCOD9501932
Probable space group: C M M A
;
_chemical_formula_sum "Si O2"
_cell_formula_units_Z 88
_cell_length_a 25.205232
_cell_length_b 33.206880
_cell_length_c 5.371242
_cell_angle_alpha 90.000000
_cell_angle_beta 90.000000
_cell_angle_gamma 90.000000
_cell_volume 4495.660342
_symmetry_space_group_name_H-M "C M M A"
_symmetry_group_IT_number 67
_symmetry_cell_setting 'orthorhombic'
loop_
_space_group_symop_operation_xyz
x,y,z
-x,1/2-y,z
x,-y,-z
-x,1/2+y,-z
-x,-y,-z
x,1/2+y,-z
-x,y,z
x,1/2-y,z
1/2+x,1/2+y,z
1/2-x,-y,z
1/2+x,1/2-y,-z
1/2-x,y,-z
1/2-x,1/2-y,-z
1/2+x,y,-z
1/2-x,1/2+y,z
1/2+x,-y,z
loop_
_atom_site_type_symbol
_atom_site_label
_atom_site_fract_x
_atom_site_fract_y
_atom_site_fract_z
Si Si1 0.310253 0.482611 0.250000
Si Si2 0.939632 0.312450 0.250000
Si Si3 0.623623 0.312698 0.250000
Si Si4 0.125262 0.090691 0.750000
Si Si5 0.784114 0.750000 0.250000
Si Si6 0.439245 0.089898 0.750000
O O1 0.335176 0.500000 0.500000
O O2 0.250000 0.500000 0.250000
O O3 0.320240 0.434917 0.250000
O O4 0.335176 0.500000 0.000000
O O5 0.908947 0.301338 0.501716
O O6 0.941739 0.361246 0.250000
O O7 0.000000 0.297801 0.250000
O O8 0.908947 0.301338 0.998283
O O9 0.632448 0.361051 0.250000
O O10 0.678176 0.288894 0.250000
O O11 0.092166 0.079517 0.502202
O O12 0.092166 0.079517 0.997798
O O13 0.750000 0.750000 0.500000
O O14 0.750000 0.750000 0.000000
O O15 0.500000 0.075051 0.750000
#
# Coordination Sequence:
#
# PCOD9501932 Si02
#       6
#    16  16  16  16   8  16
#     4  10  21  38  56  81 110 143 179 237 304 331
#     4   9  17  33  59  91 122 149 186 238 294 346
#     4  10  21  38  59  86 117 156 199 236 283 351
#     4  10  19  35  59  84 112 150 191 231 281 347
#     4  12  26  46  59  80 117 164 202 252 292 322
#     4   9  17  30  55  87 117 150 188 226 272 339
#
# _framework density 19.574432999999999
#
# number of rings (size 3 to 8) (size 9 to 14) (size 15 to 20)
#    0.000    2.182    0.000    3.273    0.000    4.364 
#    6.545    2.727    0.000   10.909    0.000    0.000 
#    0.000    0.000    0.000    0.000    0.000    0.000 
#
# Total GULP energy -245406.289415 kJ/mol
# GULP energy per Si atom -5577.415669 kJ/mol
# Density = 1.952988 g / cm^3
# Si number density = 19.574433 Si / 1000 Ang^3
#
#
#
# Elastic Constant Matrix: (Units=GPa)
#
#
# Indices 1 2 3 4 5 6 
#
# 1 144.4989 61.9503 83.2860 0.0000 0.0000 0.0000
# 2 61.9503 88.1134 43.4006 0.0000 0.0000 0.0000
# 3 83.2860 43.4006 220.8459 0.0000 0.0000 0.0000
# 4 0.0000 0.0000 0.0000 -34.0894 0.0000 0.0000
# 5 0.0000 0.0000 0.0000 0.0000 -1.2993 0.0000
# 6 0.0000 0.0000 0.0000 0.0000 0.0000 -64.5437
#
#
#
# Elastic Compliance Matrix: (Units=1/GPa)
#
#
# Indices 1 2 3 4 5 6 
#
# 1 0.011497 -0.006585 -0.003042 0.000000 0.000000 0.000000
# 2 -0.006585 0.016337 -0.000727 0.000000 0.000000 0.000000
# 3 -0.003042 -0.000727 0.005818 0.000000 0.000000 0.000000
# 4 0.000000 0.000000 0.000000 -0.029335 0.000000 0.000000
# 5 0.000000 0.000000 0.000000 0.000000 -0.769660 0.000000
# 6 0.000000 0.000000 0.000000 0.000000 0.000000 -0.015493
#
#
# Mechanical properties :
#
#
# Convention : Reuss Voigt Hill
#
# Bulk Modulus (GPa) = 77.25479 92.30356 84.77918
# Shear Modulus (GPa) = -6.61538 -2.33170 -4.47354
#
# Velocity S-wave (km/s) = -1.84036 -1.09260 -1.51339
# Velocity P-wave (km/s) = 5.91920 6.75765 6.35227
#
# Compressibility (1/GPa) = 0.01294418
#
# Stress axis : x y z
#
# Youngs Moduli (GPa) = 86.98166 61.21125 171.88008
#
# Poissons Ratio (x) = 0.40307 0.52279
# Poissons Ratio (y) = 0.57276 0.12499
# Poissons Ratio (z) = 0.26456 0.04451
#
# Static dielectric constant tensor:
#      x y z
#    x 1.646550 0.000000 0.000000 
#    y 0.000000 1.702550 0.000000 
#    z 0.000000 0.000000 1.696110 
# 
# From -- ./inp_files/3606.got.cif
#   From: 2010.05.17/outbox.cif.g08.bks.cpg/sg67_2_cif.got.tgz:3606.got - 2010.06.03 18:28:57.
