data_PCOD9501775
_publ_section_title
;
Structure prediction by ZEFSAII (Michael W. Deem and Ramdas Pophale) SiO2 
 PCOD9501775
Probable space group: C M M A
;
_chemical_formula_sum "Si O2"
_cell_formula_units_Z 128
_cell_length_a 20.254246
_cell_length_b 17.163558
_cell_length_c 20.273690
_cell_angle_alpha 90.000000
_cell_angle_beta 90.000000
_cell_angle_gamma 90.000000
_cell_volume 7047.842722
_symmetry_space_group_name_H-M "C M M A"
_symmetry_group_IT_number 67
_symmetry_cell_setting 'orthorhombic'
loop_
_space_group_symop_operation_xyz
x,y,z
-x,1/2-y,z
x,-y,-z
-x,1/2+y,-z
-x,-y,-z
x,1/2+y,-z
-x,y,z
x,1/2-y,z
1/2+x,1/2+y,z
1/2-x,-y,z
1/2+x,1/2-y,-z
1/2-x,y,-z
1/2-x,1/2-y,-z
1/2+x,y,-z
1/2-x,1/2+y,z
1/2+x,-y,z
loop_
_atom_site_type_symbol
_atom_site_label
_atom_site_fract_x
_atom_site_fract_y
_atom_site_fract_z
Si Si1 0.804648 0.103852 0.824445
Si Si2 0.838837 0.655037 0.685360
Si Si3 0.578024 0.075778 0.952768
Si Si4 0.817435 0.341118 0.966565
Si Si5 0.311850 0.660267 0.686132
Si Si6 0.424340 0.345330 0.410550
Si Si7 0.345080 0.571473 0.183421
Si Si8 0.424617 0.655350 0.439927
O O1 0.832612 0.120991 0.896168
O O2 0.827278 0.156582 0.763831
O O3 0.725442 0.111473 0.833895
O O4 0.824706 0.017364 0.802669
O O5 0.840187 0.750000 0.692128
O O6 0.762394 0.627765 0.679908
O O7 0.868588 0.615751 0.751026
O O8 0.877334 0.631856 0.619392
O O9 0.500000 0.090108 0.952096
O O10 0.606121 0.068754 0.878634
O O11 0.621622 0.143041 0.985759
O O12 0.589912 0.000000 0.000000
O O13 0.806780 0.250000 0.955084
O O14 0.750000 0.373589 0.000000
O O15 0.305967 0.750000 0.665250
O O16 0.370023 0.625907 0.641462
O O17 0.500000 0.370087 0.397048
O O18 0.425418 0.250000 0.408487
O O19 0.406406 0.368371 0.485565
O O20 0.500000 0.630320 0.427785
O O21 0.424334 0.750000 0.440213
#
# Coordination Sequence:
#
# PCOD9501775 Si02
#       8
#    16  16  16  16  16  16  16  16
#     4  10  19  34  55  77 101 134 178 216 257 316
#     4   9  18  30  47  75 105 130 165 215 266 310
#     4  11  23  39  57  79 109 142 179 221 265 317
#     4  11  22  36  60  86 106 136 179 223 268 319
#     4   9  17  29  46  72 104 129 161 215 262 304
#     4   8  14  26  45  69  97 133 173 208 253 311
#     4  10  20  34  55  75 100 140 175 212 261 319
#     4   8  14  26  45  69  98 132 170 210 254 311
#
# _framework density 18.161586
#
# number of rings (size 3 to 8) (size 9 to 14) (size 15 to 20)
#    0.000    2.500    2.500    1.125    0.000    2.500 
#    0.000    3.750    0.000    2.250    0.000    5.250 
#    0.000    0.000    0.000    0.000    0.000    0.000 
#
# Total GULP energy -356391.489660 kJ/mol
# GULP energy per Si atom -5568.617026 kJ/mol
# Density = 1.812025 g / cm^3
# Si number density = 18.161586 Si / 1000 Ang^3
#
#
#
# Elastic Constant Matrix: (Units=GPa)
#
#
# Indices 1 2 3 4 5 6 
#
# 1 85.5100 10.7541 80.0434 0.0000 0.0000 0.0000
# 2 10.7541 17.8539 15.7968 0.0000 0.0000 0.0000
# 3 80.0434 15.7968 139.1195 0.0000 0.0000 0.0000
# 4 0.0000 0.0000 0.0000 6.4715 0.0000 0.0000
# 5 0.0000 0.0000 0.0000 0.0000 30.2200 0.0000
# 6 0.0000 0.0000 0.0000 0.0000 0.0000 9.6408
#
#
#
# Elastic Compliance Matrix: (Units=1/GPa)
#
#
# Indices 1 2 3 4 5 6 
#
# 1 0.025456 -0.002640 -0.014346 0.000000 0.000000 0.000000
# 2 -0.002640 0.062540 -0.005583 0.000000 0.000000 0.000000
# 3 -0.014346 -0.005583 0.016076 0.000000 0.000000 0.000000
# 4 0.000000 0.000000 0.000000 0.154523 0.000000 0.000000
# 5 0.000000 0.000000 0.000000 0.000000 0.033091 0.000000
# 6 0.000000 0.000000 0.000000 0.000000 0.000000 0.103726
#
#
# Mechanical properties :
#
#
# Convention : Reuss Voigt Hill
#
# Bulk Modulus (GPa) = 16.96799 50.63023 33.79911
# Shear Modulus (GPa) = 10.86501 18.32573 14.59537
#
# Velocity S-wave (km/s) = 2.44855 3.17998 2.83793
# Velocity P-wave (km/s) = 4.16617 6.43593 5.42117
#
# Compressibility (1/GPa) = 0.05893448
#
# Stress axis : x y z
#
# Youngs Moduli (GPa) = 39.28373 15.98988 62.20330
#
# Poissons Ratio (x) = 0.04221 0.89240
# Poissons Ratio (y) = 0.10369 0.34726
# Poissons Ratio (z) = 0.56358 0.08927
#
# Static dielectric constant tensor:
#      x y z
#    x 1.626120 0.000000 0.000000 
#    y 0.000000 1.648340 0.000000 
#    z 0.000000 0.000000 1.624630 
# 
# From -- ./inp_files/35241.got.cif
#   From: 2010.05.17/outbox.cif.g08.bks.cpg/sg67_18_cif.got.tgz:35241.got - 2010.06.03 18:28:57.
