data_PCOD9501901
_publ_section_title
;
Structure prediction by ZEFSAII (Michael W. Deem and Ramdas Pophale) SiO2 
 PCOD9501901
Probable space group: C M M A
;
_chemical_formula_sum "Si O2"
_cell_formula_units_Z 72
_cell_length_a 8.542938
_cell_length_b 15.479609
_cell_length_c 29.163402
_cell_angle_alpha 90.000000
_cell_angle_beta 90.000000
_cell_angle_gamma 90.000000
_cell_volume 3856.607358
_symmetry_space_group_name_H-M "C M M A"
_symmetry_group_IT_number 67
_symmetry_cell_setting 'orthorhombic'
loop_
_space_group_symop_operation_xyz
x,y,z
-x,1/2-y,z
x,-y,-z
-x,1/2+y,-z
-x,-y,-z
x,1/2+y,-z
-x,y,z
x,1/2-y,z
1/2+x,1/2+y,z
1/2-x,-y,z
1/2+x,1/2-y,-z
1/2-x,y,-z
1/2-x,1/2-y,-z
1/2+x,y,-z
1/2-x,1/2+y,z
1/2+x,-y,z
loop_
_atom_site_type_symbol
_atom_site_label
_atom_site_fract_x
_atom_site_fract_y
_atom_site_fract_z
Si Si1 0.187216 0.750000 0.551638
Si Si2 0.812608 0.095767 0.284125
Si Si3 0.190529 0.750000 0.116420
Si Si4 0.811316 0.250000 0.777898
Si Si5 0.812522 0.595961 0.386010
Si Si6 0.811840 0.404104 0.949520
O O1 0.250000 0.750000 0.500000
O O2 0.249483 0.833820 0.578580
O O3 0.000000 0.750000 0.551777
O O4 0.751793 0.166077 0.248412
O O5 0.748663 0.117489 0.334912
O O6 0.000000 0.094873 0.285454
O O7 0.750000 0.000000 0.272940
O O8 0.240598 0.750000 0.169105
O O9 0.239825 0.834595 0.088130
O O10 0.000000 0.750000 0.116524
O O11 0.000000 0.250000 0.776272
O O12 0.750000 0.500000 0.396871
O O13 0.000000 0.595531 0.385712
O O14 0.750000 0.500000 0.939343
O O15 0.000000 0.406044 0.951076
O O16 0.750000 0.379656 0.000000
#
# Coordination Sequence:
#
# PCOD9501901 Si02
#       6
#     8  16   8   8  16  16
#     4  12  25  42  61  88 122 159 197 240 289 345
#     4  11  22  39  61  88 116 150 193 240 286 339
#     4   9  21  37  55  78 111 147 183 224 277 333
#     4  11  22  39  58  82 116 154 189 234 287 342
#     4  11  22  40  64  91 118 153 195 241 290 342
#     4  10  19  35  56  81 107 140 181 227 275 328
#
# _framework density 18.669260000000001
#
# number of rings (size 3 to 8) (size 9 to 14) (size 15 to 20)
#    0.000    1.333    0.000    9.000    0.000    1.333 
#    0.000   10.556    0.000    0.000    0.000    0.000 
#    0.000    0.000    0.000    0.000    0.000    0.000 
#
# Total GULP energy -201325.597356 kJ/mol
# GULP energy per Si atom -5592.377704 kJ/mol
# Density = 1.862677 g / cm^3
# Si number density = 18.669260 Si / 1000 Ang^3
#
#
#
# Elastic Constant Matrix: (Units=GPa)
#
#
# Indices 1 2 3 4 5 6 
#
# 1 164.4354 63.6981 72.3417 0.0000 0.0000 0.0000
# 2 63.6981 147.6440 150.0447 0.0000 0.0000 0.0000
# 3 72.3417 150.0447 189.7690 0.0000 0.0000 0.0000
# 4 0.0000 0.0000 0.0000 -102.5891 0.0000 0.0000
# 5 0.0000 0.0000 0.0000 0.0000 26.2078 0.0000
# 6 0.0000 0.0000 0.0000 0.0000 0.0000 30.1471
#
#
#
# Elastic Compliance Matrix: (Units=1/GPa)
#
#
# Indices 1 2 3 4 5 6 
#
# 1 0.007385 -0.001655 -0.001507 0.000000 0.000000 0.000000
# 2 -0.001655 0.034844 -0.026919 0.000000 0.000000 0.000000
# 3 -0.001507 -0.026919 0.027128 0.000000 0.000000 0.000000
# 4 0.000000 0.000000 0.000000 -0.009748 0.000000 0.000000
# 5 0.000000 0.000000 0.000000 0.000000 0.038157 0.000000
# 6 0.000000 0.000000 0.000000 0.000000 0.000000 0.033171
#
#
# Mechanical properties :
#
#
# Convention : Reuss Voigt Hill
#
# Bulk Modulus (GPa) = 108.74785 119.33528 114.04157
# Shear Modulus (GPa) = 25.75136 5.13742 15.44439
#
# Velocity S-wave (km/s) = 3.71798 1.66066 2.87934
# Velocity P-wave (km/s) = 8.76398 8.23022 8.50129
#
# Compressibility (1/GPa) = 0.00919558
#
# Stress axis : x y z
#
# Youngs Moduli (GPa) = 135.40176 28.69942 36.86192
#
# Poissons Ratio (x) = 0.04749 0.05555
# Poissons Ratio (y) = 0.22406 0.99229
# Poissons Ratio (z) = 0.20405 0.77257
#
# Static dielectric constant tensor:
#      x y z
#    x 1.626560 0.000000 0.000000 
#    y 0.000000 1.626090 0.000000 
#    z 0.000000 0.000000 1.615880 
# 
# From -- ./inp_files/43126.got.cif
#   From: 2010.05.17/outbox.cif.g08.bks.cpg/sg67_22_cif.got.tgz:43126.got - 2010.06.03 18:28:57.
