data_PCOD9501880
_publ_section_title
;
Structure prediction by ZEFSAII (Michael W. Deem and Ramdas Pophale) SiO2 
 PCOD9501880
Probable space group: C M M A
;
_chemical_formula_sum "Si O2"
_cell_formula_units_Z 80
_cell_length_a 25.896403
_cell_length_b 17.518677
_cell_length_c 10.226630
_cell_angle_alpha 90.000000
_cell_angle_beta 90.000000
_cell_angle_gamma 90.000000
_cell_volume 4639.522591
_symmetry_space_group_name_H-M "C M M A"
_symmetry_group_IT_number 67
_symmetry_cell_setting 'orthorhombic'
loop_
_space_group_symop_operation_xyz
x,y,z
-x,1/2-y,z
x,-y,-z
-x,1/2+y,-z
-x,-y,-z
x,1/2+y,-z
-x,y,z
x,1/2-y,z
1/2+x,1/2+y,z
1/2-x,-y,z
1/2+x,1/2-y,-z
1/2-x,y,-z
1/2-x,1/2-y,-z
1/2+x,y,-z
1/2-x,1/2+y,z
1/2+x,-y,z
loop_
_atom_site_type_symbol
_atom_site_label
_atom_site_fract_x
_atom_site_fract_y
_atom_site_fract_z
Si Si1 0.410237 0.660119 0.442614
Si Si2 0.061421 0.335429 0.976865
Si Si3 0.309205 0.408945 0.476517
Si Si4 0.058862 0.554125 0.788041
Si Si5 0.391415 0.104366 0.280212
O O1 0.418117 0.750000 0.431537
O O2 0.349398 0.636955 0.432444
O O3 0.439165 0.612639 0.332747
O O4 0.422557 0.631423 0.589971
O O5 0.069557 0.250000 0.030239
O O6 0.093229 0.346695 0.844487
O O7 0.000000 0.342923 0.948989
O O8 0.074979 0.399499 0.083058
O O9 0.315421 0.500000 0.500000
O O10 0.250000 0.388883 0.500000
O O11 0.332556 0.391750 0.332406
O O12 0.093662 0.481955 0.754336
O O13 0.000000 0.527262 0.807596
#
# Coordination Sequence:
#
# PCOD9501880 Si02
#       5
#    16  16  16  16  16
#     4  10  20  34  52  81 109 140 180 226 276 318
#     4  10  21  35  52  77 112 150 183 220 269 322
#     4   9  18  36  58  81 106 132 174 226 279 325
#     4  11  21  35  52  76 111 152 186 216 263 323
#     4  10  19  35  54  81 102 139 184 230 264 318
#
# _framework density 17.243154000000001
#
# number of rings (size 3 to 8) (size 9 to 14) (size 15 to 20)
#    1.200    0.800    2.000    3.000    0.000    5.600 
#    0.000    0.000    0.000    1.200    0.000    2.800 
#    0.000    0.000    0.000    0.000    0.000    0.000 
#
# Total GULP energy -222759.407115 kJ/mol
# GULP energy per Si atom -5568.985178 kJ/mol
# Density = 1.720391 g / cm^3
# Si number density = 17.243154 Si / 1000 Ang^3
#
#
#
# Elastic Constant Matrix: (Units=GPa)
#
#
# Indices 1 2 3 4 5 6 
#
# 1 60.1816 10.0484 13.9213 0.0000 0.0000 0.0000
# 2 10.0484 77.6667 4.4472 0.0000 0.0000 0.0000
# 3 13.9213 4.4472 59.8886 0.0000 0.0000 0.0000
# 4 0.0000 0.0000 0.0000 27.9041 0.0000 0.0000
# 5 0.0000 0.0000 0.0000 0.0000 6.0750 0.0000
# 6 0.0000 0.0000 0.0000 0.0000 0.0000 15.6663
#
#
#
# Elastic Compliance Matrix: (Units=1/GPa)
#
#
# Indices 1 2 3 4 5 6 
#
# 1 0.017891 -0.002085 -0.004004 0.000000 0.000000 0.000000
# 2 -0.002085 0.013174 -0.000493 0.000000 0.000000 0.000000
# 3 -0.004004 -0.000493 0.017665 0.000000 0.000000 0.000000
# 4 0.000000 0.000000 0.000000 0.035837 0.000000 0.000000
# 5 0.000000 0.000000 0.000000 0.000000 0.164610 0.000000
# 6 0.000000 0.000000 0.000000 0.000000 0.000000 0.063831
#
#
# Mechanical properties :
#
#
# Convention : Reuss Voigt Hill
#
# Bulk Modulus (GPa) = 28.11847 28.28561 28.20204
# Shear Modulus (GPa) = 14.79170 21.21708 18.00439
#
# Velocity S-wave (km/s) = 2.93205 3.51160 3.23483
# Velocity P-wave (km/s) = 5.27305 5.73423 5.50847
#
# Compressibility (1/GPa) = 0.03556381
#
# Stress axis : x y z
#
# Youngs Moduli (GPa) = 55.89477 75.90945 56.60900
#
# Poissons Ratio (x) = 0.15830 0.22666
# Poissons Ratio (y) = 0.11656 0.02794
# Poissons Ratio (z) = 0.22380 0.03746
#
# Static dielectric constant tensor:
#      x y z
#    x 1.579940 0.000000 0.000000 
#    y 0.000000 1.591580 0.000000 
#    z 0.000000 0.000000 1.584230 
# 
# From -- ./inp_files/22769.got.cif
#   From: 2010.05.17/outbox.cif.g08.bks.cpg/sg67_12_cif.got.tgz:22769.got - 2010.06.03 18:28:57.
