data_PCOD9501415
_publ_section_title
;
Structure prediction by ZEFSAII (Michael W. Deem and Ramdas Pophale) SiO2 
 PCOD9501415
Probable space group: C M M A
;
_chemical_formula_sum "Si O2"
_cell_formula_units_Z 120
_cell_length_a 8.825993
_cell_length_b 27.616723
_cell_length_c 28.824153
_cell_angle_alpha 90.000000
_cell_angle_beta 90.000000
_cell_angle_gamma 90.000000
_cell_volume 7025.743285
_symmetry_space_group_name_H-M "C M M A"
_symmetry_group_IT_number 67
_symmetry_cell_setting 'orthorhombic'
loop_
_space_group_symop_operation_xyz
x,y,z
-x,1/2-y,z
x,-y,-z
-x,1/2+y,-z
-x,-y,-z
x,1/2+y,-z
-x,y,z
x,1/2-y,z
1/2+x,1/2+y,z
1/2-x,-y,z
1/2+x,1/2-y,-z
1/2-x,y,-z
1/2-x,1/2-y,-z
1/2+x,y,-z
1/2-x,1/2+y,z
1/2+x,-y,z
loop_
_atom_site_type_symbol
_atom_site_label
_atom_site_fract_x
_atom_site_fract_y
_atom_site_fract_z
Si Si1 0.181962 0.649839 0.550028
Si Si2 0.317470 0.552293 0.885966
Si Si3 0.317496 0.250000 0.051754
Si Si4 0.679491 0.305774 0.359365
Si Si5 0.816534 0.856674 0.051786
Si Si6 0.681297 0.552214 0.778148
Si Si7 0.681547 0.393456 0.693925
Si Si8 0.318634 0.051641 0.600872
O O1 0.250000 0.660682 0.500000
O O2 0.249470 0.683461 0.590261
O O3 0.223463 0.595034 0.565998
O O4 0.000000 0.653645 0.549640
O O5 0.500000 0.548964 0.888795
O O6 0.250000 0.500000 0.899569
O O7 0.267425 0.597641 0.917267
O O8 0.277670 0.561381 0.831960
O O9 0.500000 0.250000 0.049480
O O10 0.273568 0.303013 0.071425
O O11 0.250000 0.250000 0.000000
O O12 0.500000 0.315872 0.360964
O O13 0.702249 0.250000 0.346945
O O14 0.758939 0.341934 0.323627
O O15 0.000000 0.858035 0.049123
O O16 0.750000 0.860715 0.000000
O O17 0.500000 0.550651 0.774615
O O18 0.750000 0.500000 0.765665
O O19 0.747579 0.590466 0.742236
O O20 0.500000 0.393382 0.696508
O O21 0.727026 0.430730 0.652572
O O22 0.500000 0.047995 0.600515
O O23 0.250000 0.000000 0.589287
#
# Coordination Sequence:
#
# PCOD9501415 Si02
#       8
#    16  16   8  16  16  16  16  16
#     4  10  21  36  52  73 101 133 170 207 247 296
#     4   9  19  33  48  69 101 136 172 210 254 306
#     4   8  14  26  46  68  90 118 158 204 252 296
#     4  10  21  37  57  79 101 128 164 206 253 301
#     4   9  17  30  48  71  97 129 169 214 259 307
#     4  10  19  32  51  74 102 134 169 208 248 297
#     4  10  20  34  53  77 102 130 164 203 250 301
#     4   9  19  32  47  70  98 127 160 196 238 288
#
# _framework density 17.080043
#
# number of rings (size 3 to 8) (size 9 to 14) (size 15 to 20)
#    0.000    2.533    0.000    2.800    0.000    7.200 
#    0.000    2.667    1.467    0.000    0.000    0.000 
#    0.000    0.000    0.000    0.000    0.000    0.000 
#
# Total GULP energy -334528.795801 kJ/mol
# GULP energy per Si atom -5575.479930 kJ/mol
# Density = 1.704117 g / cm^3
# Si number density = 17.080043 Si / 1000 Ang^3
#
#
#
# Elastic Constant Matrix: (Units=GPa)
#
#
# Indices 1 2 3 4 5 6 
#
# 1 33.5840 33.0063 26.8111 0.0000 0.0000 0.0000
# 2 33.0063 110.0912 62.4648 0.0000 0.0000 0.0000
# 3 26.8111 62.4648 80.6071 0.0000 0.0000 0.0000
# 4 0.0000 0.0000 0.0000 5.0549 0.0000 0.0000
# 5 0.0000 0.0000 0.0000 0.0000 23.8396 0.0000
# 6 0.0000 0.0000 0.0000 0.0000 0.0000 28.0047
#
#
#
# Elastic Compliance Matrix: (Units=1/GPa)
#
#
# Indices 1 2 3 4 5 6 
#
# 1 0.044961 -0.008914 -0.008047 0.000000 0.000000 0.000000
# 2 -0.008914 0.017979 -0.010967 0.000000 0.000000 0.000000
# 3 -0.008047 -0.010967 0.023581 0.000000 0.000000 0.000000
# 4 0.000000 0.000000 0.000000 0.197827 0.000000 0.000000
# 5 0.000000 0.000000 0.000000 0.000000 0.041947 0.000000
# 6 0.000000 0.000000 0.000000 0.000000 0.000000 0.035708
#
#
# Mechanical properties :
#
#
# Convention : Reuss Voigt Hill
#
# Bulk Modulus (GPa) = 32.61108 52.09406 42.35257
# Shear Modulus (GPa) = 11.68006 18.17987 14.92996
#
# Velocity S-wave (km/s) = 2.61787 3.26604 2.95976
# Velocity P-wave (km/s) = 5.31716 6.69245 6.04405
#
# Compressibility (1/GPa) = 0.03066443
#
# Stress axis : x y z
#
# Youngs Moduli (GPa) = 22.24160 55.62199 42.40662
#
# Poissons Ratio (x) = 0.49580 0.34125
# Poissons Ratio (y) = 0.19826 0.46508
# Poissons Ratio (z) = 0.17898 0.61002
#
# Static dielectric constant tensor:
#      x y z
#    x 1.573220 0.000000 0.000000 
#    y 0.000000 1.592310 0.000000 
#    z 0.000000 0.000000 1.560680 
# 
# From -- ./inp_files/43887.got.cif
#   From: 2010.05.17/outbox.cif.g08.bks.cpg/sg67_22_cif.got.tgz:43887.got - 2010.06.03 18:28:57.
