data_PCOD9501522
_publ_section_title
;
Structure prediction by ZEFSAII (Michael W. Deem and Ramdas Pophale) SiO2 
 PCOD9501522
Probable space group: C M M A
;
_chemical_formula_sum "Si O2"
_cell_formula_units_Z 112
_cell_length_a 30.012178
_cell_length_b 14.611939
_cell_length_c 11.387123
_cell_angle_alpha 90.000000
_cell_angle_beta 90.000000
_cell_angle_gamma 90.000000
_cell_volume 4993.664672
_symmetry_space_group_name_H-M "C M M A"
_symmetry_group_IT_number 67
_symmetry_cell_setting 'orthorhombic'
loop_
_space_group_symop_operation_xyz
x,y,z
-x,1/2-y,z
x,-y,-z
-x,1/2+y,-z
-x,-y,-z
x,1/2+y,-z
-x,y,z
x,1/2-y,z
1/2+x,1/2+y,z
1/2-x,-y,z
1/2+x,1/2-y,-z
1/2-x,y,-z
1/2-x,1/2-y,-z
1/2+x,y,-z
1/2-x,1/2+y,z
1/2+x,-y,z
loop_
_atom_site_type_symbol
_atom_site_label
_atom_site_fract_x
_atom_site_fract_y
_atom_site_fract_z
Si Si1 0.785049 0.145208 0.395487
Si Si2 0.701943 0.149230 0.057190
Si Si3 0.140072 0.643140 0.423996
Si Si4 0.625305 0.652360 0.137376
Si Si5 0.550493 0.604623 0.958865
Si Si6 0.550428 0.140092 0.309104
Si Si7 0.177612 0.499231 0.243883
O O1 0.776639 0.250000 0.358437
O O2 0.750000 0.124856 0.500000
O O3 0.834479 0.138258 0.452432
O O4 0.786040 0.073862 0.290000
O O5 0.698277 0.250000 0.117695
O O6 0.691805 0.061803 0.135814
O O7 0.750000 0.142699 0.000000
O O8 0.666485 0.150406 0.952421
O O9 0.144694 0.750000 0.386764
O O10 0.088217 0.617664 0.405169
O O11 0.166531 0.572515 0.343517
O O12 0.625952 0.750000 0.202757
O O13 0.582600 0.649406 0.053616
O O14 0.634228 0.562438 0.213265
O O15 0.500000 0.640880 0.961340
O O16 0.549405 0.500000 0.000000
O O17 0.565701 0.613619 0.823321
O O18 0.500000 0.103688 0.328302
O O19 0.547391 0.250000 0.308704
#
# Coordination Sequence:
#
# PCOD9501522 Si02
#       7
#    16  16  16  16  16  16  16
#     4  10  24  45  65  88 117 151 198 253 305 359
#     4  10  23  41  60  88 124 158 196 242 295 357
#     4  10  21  37  60  89 118 149 194 253 308 356
#     4  11  23  37  55  84 123 164 203 244 292 351
#     4  10  19  32  53  83 119 159 204 251 297 353
#     4   9  17  31  54  83 114 151 195 242 293 348
#     4  12  23  39  63  87 115 158 201 243 298 361
#
# _framework density 22.428417
#
# number of rings (size 3 to 8) (size 9 to 14) (size 15 to 20)
#    0.000    1.714    0.000    4.714    0.000    7.714 
#    0.000    4.286    0.000    5.143    0.000    2.000 
#    0.000    0.000    0.000    0.000    0.000    0.000 
#
# Total GULP energy -313035.606024 kJ/mol
# GULP energy per Si atom -5589.921536 kJ/mol
# Density = 2.237737 g / cm^3
# Si number density = 22.428417 Si / 1000 Ang^3
#
#
#
# Elastic Constant Matrix: (Units=GPa)
#
#
# Indices 1 2 3 4 5 6 
#
# 1 67.9498 14.7373 18.0588 0.0000 0.0000 0.0000
# 2 14.7373 120.2927 25.3246 0.0000 0.0000 0.0000
# 3 18.0588 25.3246 35.0007 0.0000 0.0000 0.0000
# 4 0.0000 0.0000 0.0000 189.5539 0.0000 0.0000
# 5 0.0000 0.0000 0.0000 0.0000 37.7922 0.0000
# 6 0.0000 0.0000 0.0000 0.0000 0.0000 32.9641
#
#
#
# Elastic Compliance Matrix: (Units=1/GPa)
#
#
# Indices 1 2 3 4 5 6 
#
# 1 0.017063 -0.000280 -0.008602 0.000000 0.000000 0.000000
# 2 -0.000280 0.009811 -0.006955 0.000000 0.000000 0.000000
# 3 -0.008602 -0.006955 0.038041 0.000000 0.000000 0.000000
# 4 0.000000 0.000000 0.000000 0.005276 0.000000 0.000000
# 5 0.000000 0.000000 0.000000 0.000000 0.026460 0.000000
# 6 0.000000 0.000000 0.000000 0.000000 0.000000 0.030336
#
#
# Mechanical properties :
#
#
# Convention : Reuss Voigt Hill
#
# Bulk Modulus (GPa) = 30.08074 37.72050 33.90062
# Shear Modulus (GPa) = 29.45659 63.07020 46.26339
#
# Velocity S-wave (km/s) = 3.62796 5.30864 4.54664
# Velocity P-wave (km/s) = 5.56691 7.37769 6.53532
#
# Compressibility (1/GPa) = 0.03324386
#
# Stress axis : x y z
#
# Youngs Moduli (GPa) = 58.60489 101.92158 26.28741
#
# Poissons Ratio (x) = 0.02850 0.22611
# Poissons Ratio (y) = 0.01639 0.18282
# Poissons Ratio (z) = 0.50410 0.70884
#
# Static dielectric constant tensor:
#      x y z
#    x 1.909460 0.000000 0.000000 
#    y 0.000000 1.865660 0.000000 
#    z 0.000000 0.000000 1.827330 
# 
# From -- ./inp_files/23840.got.cif
#   From: 2010.05.17/outbox.cif.g08.bks.cpg/sg67_12_cif.got.tgz:23840.got - 2010.06.03 18:28:57.
