data_PCOD9501389
_publ_section_title
;
Structure prediction by ZEFSAII (Michael W. Deem and Ramdas Pophale) SiO2 
 PCOD9501389
Probable space group: C M M A
;
_chemical_formula_sum "Si O2"
_cell_formula_units_Z 120
_cell_length_a 28.219456
_cell_length_b 14.045668
_cell_length_c 16.919005
_cell_angle_alpha 90.000000
_cell_angle_beta 90.000000
_cell_angle_gamma 90.000000
_cell_volume 6706.035604
_symmetry_space_group_name_H-M "C M M A"
_symmetry_group_IT_number 67
_symmetry_cell_setting 'orthorhombic'
loop_
_space_group_symop_operation_xyz
x,y,z
-x,1/2-y,z
x,-y,-z
-x,1/2+y,-z
-x,-y,-z
x,1/2+y,-z
-x,y,z
x,1/2-y,z
1/2+x,1/2+y,z
1/2-x,-y,z
1/2+x,1/2-y,-z
1/2-x,y,-z
1/2-x,1/2-y,-z
1/2+x,y,-z
1/2-x,1/2+y,z
1/2+x,-y,z
loop_
_atom_site_type_symbol
_atom_site_label
_atom_site_fract_x
_atom_site_fract_y
_atom_site_fract_z
Si Si1 0.835384 0.140664 0.625392
Si Si2 0.556452 0.354144 0.947920
Si Si3 0.723017 0.355796 0.606985
Si Si4 0.183972 0.145786 0.215501
Si Si5 0.650183 0.569022 0.802946
Si Si6 0.555982 0.559126 0.880068
Si Si7 0.737318 0.110947 0.088668
Si Si8 0.334962 0.000000 0.500000
O O1 0.850995 0.250000 0.618561
O O2 0.779436 0.136180 0.604497
O O3 0.837764 0.107342 0.716126
O O4 0.860490 0.070050 0.562750
O O5 0.500000 0.347519 0.936336
O O6 0.577450 0.250000 0.929697
O O7 0.569352 0.449254 0.900640
O O8 0.563051 0.380889 0.039643
O O9 0.709765 0.250000 0.578716
O O10 0.706526 0.364590 0.697550
O O11 0.696716 0.433129 0.555559
O O12 0.158893 0.250000 0.213656
O O13 0.226289 0.151028 0.152447
O O14 0.157761 0.046017 0.198417
O O15 0.595465 0.592486 0.819496
O O16 0.684780 0.613201 0.871457
O O17 0.500000 0.564120 0.859378
O O18 0.750000 0.000000 0.085517
O O19 0.750000 0.146380 0.000000
#
# Coordination Sequence:
#
# PCOD9501389 Si02
#       8
#    16  16  16  16  16  16  16   8
#     4  11  22  34  51  78 106 138 175 211 263 321
#     4   8  15  31  53  74 100 132 169 222 277 318
#     4  10  19  32  50  74 105 137 171 211 257 314
#     4  10  20  34  51  71 102 140 179 218 260 313
#     4  11  21  35  53  72 110 146 175 224 275 311
#     4   9  19  33  52  79 105 137 183 228 276 327
#     4   9  19  33  49  68  96 143 189 219 252 301
#     4  12  21  32  56  78 103 140 175 214 256 322
#
# _framework density 17.894328000000002
#
# number of rings (size 3 to 8) (size 9 to 14) (size 15 to 20)
#    0.000    2.133    2.667    2.400    0.000    6.667 
#    0.000    0.000    0.000    0.000    0.000    0.467 
#    0.000    0.000    0.000    0.000    0.000    0.000 
#
# Total GULP energy -334232.519467 kJ/mol
# GULP energy per Si atom -5570.541991 kJ/mol
# Density = 1.785360 g / cm^3
# Si number density = 17.894328 Si / 1000 Ang^3
#
#
#
# Elastic Constant Matrix: (Units=GPa)
#
#
# Indices 1 2 3 4 5 6 
#
# 1 41.7533 16.9255 31.3677 0.0000 0.0000 0.0000
# 2 16.9255 90.2080 41.7973 0.0000 0.0000 0.0000
# 3 31.3677 41.7973 119.6044 0.0000 0.0000 0.0000
# 4 0.0000 0.0000 0.0000 655.6739 0.0000 0.0000
# 5 0.0000 0.0000 0.0000 0.0000 12.7821 0.0000
# 6 0.0000 0.0000 0.0000 0.0000 0.0000 5.0690
#
#
#
# Elastic Compliance Matrix: (Units=1/GPa)
#
#
# Indices 1 2 3 4 5 6 
#
# 1 0.030251 -0.002386 -0.007100 0.000000 0.000000 0.000000
# 2 -0.002386 0.013416 -0.004062 0.000000 0.000000 0.000000
# 3 -0.007100 -0.004062 0.011643 0.000000 0.000000 0.000000
# 4 0.000000 0.000000 0.000000 0.001525 0.000000 0.000000
# 5 0.000000 0.000000 0.000000 0.000000 0.078234 0.000000
# 6 0.000000 0.000000 0.000000 0.000000 0.000000 0.197277
#
#
# Mechanical properties :
#
#
# Convention : Reuss Voigt Hill
#
# Bulk Modulus (GPa) = 35.44546 47.97183 41.70865
# Shear Modulus (GPa) = 13.55576 145.47003 79.51289
#
# Velocity S-wave (km/s) = 2.75534 9.02610 6.67317
# Velocity P-wave (km/s) = 5.47483 11.64018 9.09581
#
# Compressibility (1/GPa) = 0.02821236
#
# Stress axis : x y z
#
# Youngs Moduli (GPa) = 33.05634 74.54058 85.89175
#
# Poissons Ratio (x) = 0.17788 0.60982
# Poissons Ratio (y) = 0.07888 0.34892
# Poissons Ratio (z) = 0.23469 0.30281
#
# Static dielectric constant tensor:
#      x y z
#    x 1.584700 0.000000 0.000000 
#    y 0.000000 1.714210 0.000000 
#    z 0.000000 0.000000 1.633200 
# 
# From -- ./inp_files/31276.got.cif
#   From: 2010.05.17/outbox.cif.g08.bks.cpg/sg67_16_cif.got.tgz:31276.got - 2010.06.03 18:28:57.
