data_PCOD9501913
_publ_section_title
;
Structure prediction by ZEFSAII (Michael W. Deem and Ramdas Pophale) SiO2 
 PCOD9501913
Probable space group: C M M A
;
_chemical_formula_sum "Si O2"
_cell_formula_units_Z 96
_cell_length_a 8.735267
_cell_length_b 29.475038
_cell_length_c 20.972708
_cell_angle_alpha 90.000000
_cell_angle_beta 90.000000
_cell_angle_gamma 90.000000
_cell_volume 5399.891927
_symmetry_space_group_name_H-M "C M M A"
_symmetry_group_IT_number 67
_symmetry_cell_setting 'orthorhombic'
loop_
_space_group_symop_operation_xyz
x,y,z
-x,1/2-y,z
x,-y,-z
-x,1/2+y,-z
-x,-y,-z
x,1/2+y,-z
-x,y,z
x,1/2-y,z
1/2+x,1/2+y,z
1/2-x,-y,z
1/2+x,1/2-y,-z
1/2-x,y,-z
1/2-x,1/2-y,-z
1/2+x,y,-z
1/2-x,1/2+y,z
1/2+x,-y,z
loop_
_atom_site_type_symbol
_atom_site_label
_atom_site_fract_x
_atom_site_fract_y
_atom_site_fract_z
Si Si1 0.682490 0.301137 0.887734
Si Si2 0.817568 0.450881 0.430070
Si Si3 0.182178 0.698811 0.253077
Si Si4 0.817184 0.393585 0.933852
Si Si5 0.684529 0.949617 0.809211
Si Si6 0.815798 0.106693 0.682517
O O1 0.500000 0.304832 0.894646
O O2 0.729659 0.250000 0.907238
O O3 0.728824 0.306109 0.813396
O O4 0.762857 0.341894 0.924328
O O5 0.750000 0.500000 0.410579
O O6 0.750000 0.440854 0.500000
O O7 0.765726 0.414136 0.378549
O O8 0.000000 0.454083 0.433770
O O9 0.207267 0.750000 0.277144
O O10 0.222682 0.658810 0.301413
O O11 0.000000 0.693813 0.238658
O O12 0.765177 0.422276 0.872246
O O13 0.000000 0.394720 0.936142
O O14 0.750000 0.411536 0.000000
O O15 0.500000 0.951629 0.810550
O O16 0.727186 0.922228 0.745410
O O17 0.750000 0.000000 0.808198
O O18 0.000000 0.103217 0.674227
#
# Coordination Sequence:
#
# PCOD9501913 Si02
#       6
#    16  16  16  16  16  16
#     4  10  20  34  54  81 110 140 177 222 273 329
#     4  11  22  37  57  84 116 153 188 227 274 324
#     4   9  17  32  56  83 113 148 182 221 270 322
#     4  11  23  40  57  77 104 141 183 227 279 333
#     4  10  22  38  56  79 107 140 180 226 274 325
#     4  10  19  35  57  85 116 146 183 226 270 324
#
# _framework density 17.778134000000001
#
# number of rings (size 3 to 8) (size 9 to 14) (size 15 to 20)
#    0.000    1.833    1.667    3.500    0.000    5.667 
#    0.000    1.667    0.000    0.500    0.000    0.000 
#    0.000    0.000    0.000    0.000    0.000    0.000 
#
# Total GULP energy -268089.692185 kJ/mol
# GULP energy per Si atom -5585.201921 kJ/mol
# Density = 1.773767 g / cm^3
# Si number density = 17.778134 Si / 1000 Ang^3
#
#
#
# Elastic Constant Matrix: (Units=GPa)
#
#
# Indices 1 2 3 4 5 6 
#
# 1 52.3044 33.4055 30.7880 0.0000 0.0000 0.0000
# 2 33.4055 107.1849 50.0861 0.0000 0.0000 0.0000
# 3 30.7880 50.0861 76.9286 0.0000 0.0000 0.0000
# 4 0.0000 0.0000 0.0000 15.3858 0.0000 0.0000
# 5 0.0000 0.0000 0.0000 0.0000 28.1363 0.0000
# 6 0.0000 0.0000 0.0000 0.0000 0.0000 23.4283
#
#
#
# Elastic Compliance Matrix: (Units=1/GPa)
#
#
# Indices 1 2 3 4 5 6 
#
# 1 0.026603 -0.004766 -0.007544 0.000000 0.000000 0.000000
# 2 -0.004766 0.014263 -0.007379 0.000000 0.000000 0.000000
# 3 -0.007544 -0.007379 0.020823 0.000000 0.000000 0.000000
# 4 0.000000 0.000000 0.000000 0.064995 0.000000 0.000000
# 5 0.000000 0.000000 0.000000 0.000000 0.035541 0.000000
# 6 0.000000 0.000000 0.000000 0.000000 0.000000 0.042683
#
#
# Mechanical properties :
#
#
# Convention : Reuss Voigt Hill
#
# Bulk Modulus (GPa) = 44.82077 51.66413 48.24245
# Shear Modulus (GPa) = 19.86304 21.53264 20.69784
#
# Velocity S-wave (km/s) = 3.34619 3.48399 3.41578
# Velocity P-wave (km/s) = 6.33997 6.73111 6.53846
#
# Compressibility (1/GPa) = 0.02231108
#
# Stress axis : x y z
#
# Youngs Moduli (GPa) = 37.58907 70.11088 48.02495
#
# Poissons Ratio (x) = 0.33415 0.36230
# Poissons Ratio (y) = 0.17915 0.35437
# Poissons Ratio (z) = 0.28358 0.51734
#
# Static dielectric constant tensor:
#      x y z
#    x 1.599050 0.000000 0.000000 
#    y 0.000000 1.606100 0.000000 
#    z 0.000000 0.000000 1.591010 
# 
# From -- ./inp_files/37147.got.cif
#   From: 2010.05.17/outbox.cif.g08.bks.cpg/sg67_19_cif.got.tgz:37147.got - 2010.06.03 18:28:57.
