data_PCOD9501852
_publ_section_title
;
Structure prediction by ZEFSAII (Michael W. Deem and Ramdas Pophale) SiO2 
 PCOD9501852
Probable space group: C M M A
;
_chemical_formula_sum "Si O2"
_cell_formula_units_Z 88
_cell_length_a 14.634110
_cell_length_b 29.149387
_cell_length_c 11.701104
_cell_angle_alpha 90.000000
_cell_angle_beta 90.000000
_cell_angle_gamma 90.000000
_cell_volume 4991.402368
_symmetry_space_group_name_H-M "C M M A"
_symmetry_group_IT_number 67
_symmetry_cell_setting 'orthorhombic'
loop_
_space_group_symop_operation_xyz
x,y,z
-x,1/2-y,z
x,-y,-z
-x,1/2+y,-z
-x,-y,-z
x,1/2+y,-z
-x,y,z
x,1/2-y,z
1/2+x,1/2+y,z
1/2-x,-y,z
1/2+x,1/2-y,-z
1/2-x,y,-z
1/2-x,1/2-y,-z
1/2+x,y,-z
1/2-x,1/2+y,z
1/2+x,-y,z
loop_
_atom_site_type_symbol
_atom_site_label
_atom_site_fract_x
_atom_site_fract_y
_atom_site_fract_z
Si Si1 0.750000 0.620846 0.000000
Si Si2 0.750900 0.051928 0.787086
Si Si3 0.106832 0.542283 0.417023
Si Si4 0.893300 0.699002 0.964841
Si Si5 0.391809 0.799206 0.310450
Si Si6 0.892303 0.398735 0.367904
O O1 0.755434 0.588475 0.111038
O O2 0.664814 0.655871 0.995631
O O3 0.832639 0.050512 0.694049
O O4 0.662028 0.066487 0.713467
O O5 0.750000 0.000000 0.833291
O O6 0.135779 0.500000 0.500000
O O7 0.114746 0.585255 0.501932
O O8 0.000000 0.534425 0.388185
O O9 0.863266 0.750000 0.005442
O O10 0.886234 0.699444 0.826988
O O11 0.000000 0.694013 0.993858
O O12 0.500000 0.798929 0.339630
O O13 0.352813 0.750000 0.349030
O O14 0.354213 0.847337 0.354191
O O15 0.000000 0.399421 0.336288
#
# Coordination Sequence:
#
# PCOD9501852 Si02
#       6
#     8  16  16  16  16  16
#     4  12  24  36  54  84 118 156 184 226 290 340
#     4  12  24  37  54  79 116 153 190 230 279 336
#     4  10  21  38  61  82 103 145 198 240 278 327
#     4   9  18  35  58  81 107 145 193 238 278 332
#     4   8  14  28  53  82 108 137 178 227 279 336
#     4  10  19  34  59  85 109 140 186 238 287 329
#
# _framework density 17.630316000000001
#
# number of rings (size 3 to 8) (size 9 to 14) (size 15 to 20)
#    0.000    2.000    3.636    2.182    0.000    0.727 
#    0.000    0.000    0.000    7.636    0.000    2.545 
#    0.000    0.000    0.000    0.000    0.000    0.000 
#
# Total GULP energy -245151.244651 kJ/mol
# GULP energy per Si atom -5571.619197 kJ/mol
# Density = 1.759019 g / cm^3
# Si number density = 17.630316 Si / 1000 Ang^3
#
#
#
# Elastic Constant Matrix: (Units=GPa)
#
#
# Indices 1 2 3 4 5 6 
#
# 1 74.8674 49.2355 41.2441 0.0000 0.0000 0.0000
# 2 49.2355 156.1309 43.0969 0.0000 0.0000 0.0000
# 3 41.2441 43.0969 72.1782 0.0000 0.0000 0.0000
# 4 0.0000 0.0000 0.0000 19.8581 0.0000 0.0000
# 5 0.0000 0.0000 0.0000 0.0000 16.6937 0.0000
# 6 0.0000 0.0000 0.0000 0.0000 0.0000 23.5436
#
#
#
# Elastic Compliance Matrix: (Units=1/GPa)
#
#
# Indices 1 2 3 4 5 6 
#
# 1 0.021434 -0.004045 -0.009832 0.000000 0.000000 0.000000
# 2 -0.004045 0.008432 -0.002723 0.000000 0.000000 0.000000
# 3 -0.009832 -0.002723 0.021099 0.000000 0.000000 0.000000
# 4 0.000000 0.000000 0.000000 0.050357 0.000000 0.000000
# 5 0.000000 0.000000 0.000000 0.000000 0.059903 0.000000
# 6 0.000000 0.000000 0.000000 0.000000 0.000000 0.042474
#
#
# Mechanical properties :
#
#
# Convention : Reuss Voigt Hill
#
# Bulk Modulus (GPa) = 56.29542 63.36994 59.83268
# Shear Modulus (GPa) = 20.59119 23.32576 21.95848
#
# Velocity S-wave (km/s) = 3.42122 3.64132 3.53299
# Velocity P-wave (km/s) = 6.89976 7.32808 7.11714
#
# Compressibility (1/GPa) = 0.01776343
#
# Stress axis : x y z
#
# Youngs Moduli (GPa) = 46.65547 118.59296 47.39535
#
# Poissons Ratio (x) = 0.47971 0.46601
# Poissons Ratio (y) = 0.18872 0.12908
# Poissons Ratio (z) = 0.45874 0.32297
#
# Static dielectric constant tensor:
#      x y z
#    x 1.622800 0.000000 0.000000 
#    y 0.000000 1.657660 0.000000 
#    z 0.000000 0.000000 1.566990 
# 
# From -- ./inp_files/18440.got.cif
#   From: 2010.05.17/outbox.cif.g08.bks.cpg/sg67_10_cif.got.tgz:18440.got - 2010.06.03 18:28:57.
