data_PCOD9501266
_publ_section_title
;
Structure prediction by ZEFSAII (Michael W. Deem and Ramdas Pophale) SiO2 
 PCOD9501266
Probable space group: C M M A
;
_chemical_formula_sum "Si O2"
_cell_formula_units_Z 96
_cell_length_a 10.067641
_cell_length_b 24.339136
_cell_length_c 22.852539
_cell_angle_alpha 90.000000
_cell_angle_beta 90.000000
_cell_angle_gamma 90.000000
_cell_volume 5599.733219
_symmetry_space_group_name_H-M "C M M A"
_symmetry_group_IT_number 67
_symmetry_cell_setting 'orthorhombic'
loop_
_space_group_symop_operation_xyz
x,y,z
-x,1/2-y,z
x,-y,-z
-x,1/2+y,-z
-x,-y,-z
x,1/2+y,-z
-x,y,z
x,1/2-y,z
1/2+x,1/2+y,z
1/2-x,-y,z
1/2+x,1/2-y,-z
1/2-x,y,-z
1/2-x,1/2-y,-z
1/2+x,y,-z
1/2-x,1/2+y,z
1/2+x,-y,z
loop_
_atom_site_type_symbol
_atom_site_label
_atom_site_fract_x
_atom_site_fract_y
_atom_site_fract_z
Si Si1 0.500000 0.865602 0.429645
Si Si2 0.773160 0.812822 0.402301
Si Si3 0.154767 0.683152 0.946275
Si Si4 0.223937 0.870211 0.280371
Si Si5 0.500000 0.105454 0.444404
Si Si6 0.000000 0.078703 0.303050
Si Si7 0.849205 0.815966 0.158186
Si Si8 0.000000 0.548798 0.327269
O O1 0.629318 0.827375 0.427664
O O2 0.500000 0.904146 0.486603
O O3 0.500000 0.900651 0.370342
O O4 0.810037 0.750000 0.413437
O O5 0.771716 0.825366 0.332626
O O6 0.874679 0.856154 0.429483
O O7 0.150942 0.750000 0.947733
O O8 0.234772 0.667413 0.887556
O O9 0.000000 0.664950 0.949060
O O10 0.250000 0.665858 0.000000
O O11 0.369177 0.896160 0.274029
O O12 0.173089 0.844158 0.220560
O O13 0.126400 0.917943 0.303072
O O14 0.500000 0.055830 0.397974
O O15 0.000000 0.013195 0.305707
O O16 0.840766 0.750000 0.165112
O O17 0.000000 0.827986 0.136846
#
# Coordination Sequence:
#
# PCOD9501266 Si02
#       8
#     8  16  16  16   8   8  16   8
#     4  10  21  35  48  73  97 125 163 207 253 312
#     4  10  20  33  49  70 100 134 162 199 250 304
#     4   9  17  29  46  72 109 151 188 214 240 281
#     4  10  20  35  51  75 100 128 171 212 255 316
#     4  10  21  33  52  73  95 121 169 209 247 312
#     4  10  22  36  55  70  97 128 160 214 277 316
#     4  10  19  31  50  75 107 144 176 211 251 294
#     4  10  20  38  55  72  93 126 164 216 269 316
#
# _framework density 17.143674000000001
#
# number of rings (size 3 to 8) (size 9 to 14) (size 15 to 20)
#    0.000    2.167    0.833    2.500    1.167    4.333 
#    0.000    0.833    0.000    6.000    0.000    0.000 
#    0.000    4.000    0.000    0.000    0.000    0.000 
#
# Total GULP energy -267740.772112 kJ/mol
# GULP energy per Si atom -5577.932752 kJ/mol
# Density = 1.710465 g / cm^3
# Si number density = 17.143674 Si / 1000 Ang^3
#
#
#
# Elastic Constant Matrix: (Units=GPa)
#
#
# Indices 1 2 3 4 5 6 
#
# 1 124.1199 7.2564 20.0666 0.0000 0.0000 0.0000
# 2 7.2564 27.9786 -1.7388 0.0000 0.0000 0.0000
# 3 20.0666 -1.7388 80.7415 0.0000 0.0000 0.0000
# 4 0.0000 0.0000 0.0000 8.5028 0.0000 0.0000
# 5 0.0000 0.0000 0.0000 0.0000 36.4096 0.0000
# 6 0.0000 0.0000 0.0000 0.0000 0.0000 62.9954
#
#
#
# Elastic Compliance Matrix: (Units=1/GPa)
#
#
# Indices 1 2 3 4 5 6 
#
# 1 0.008546 -0.002352 -0.002175 0.000000 0.000000 0.000000
# 2 -0.002352 0.036437 0.001369 0.000000 0.000000 0.000000
# 3 -0.002175 0.001369 0.012955 0.000000 0.000000 0.000000
# 4 0.000000 0.000000 0.000000 0.117608 0.000000 0.000000
# 5 0.000000 0.000000 0.000000 0.000000 0.027465 0.000000
# 6 0.000000 0.000000 0.000000 0.000000 0.000000 0.015874
#
#
# Mechanical properties :
#
#
# Convention : Reuss Voigt Hill
#
# Bulk Modulus (GPa) = 19.37095 31.55645 25.46370
# Shear Modulus (GPa) = 20.62647 35.39862 28.01254
#
# Velocity S-wave (km/s) = 3.47241 4.54896 4.04665
# Velocity P-wave (km/s) = 5.23456 6.78511 6.05963
#
# Compressibility (1/GPa) = 0.05162369
#
# Stress axis : x y z
#
# Youngs Moduli (GPa) = 117.01715 27.44491 77.18954
#
# Poissons Ratio (x) = 0.06454 0.16785
# Poissons Ratio (y) = 0.27517 -0.10568
# Poissons Ratio (z) = 0.25445 -0.03758
#
# Static dielectric constant tensor:
#      x y z
#    x 1.613010 0.000000 0.000000 
#    y 0.000000 1.530130 0.000000 
#    z 0.000000 0.000000 1.589140 
# 
# From -- ./inp_files/40863.got.cif
#   From: 2010.05.17/outbox.cif.g08.bks.cpg/sg67_21_cif.got.tgz:40863.got - 2010.06.03 18:28:57.
