data_PCOD9501806
_publ_section_title
;
Structure prediction by ZEFSAII (Michael W. Deem and Ramdas Pophale) SiO2 
 PCOD9501806
Probable space group: C M M A
;
_chemical_formula_sum "Si O2"
_cell_formula_units_Z 84
_cell_length_a 23.079880
_cell_length_b 15.850533
_cell_length_c 11.994494
_cell_angle_alpha 90.000000
_cell_angle_beta 90.000000
_cell_angle_gamma 90.000000
_cell_volume 4387.926544
_symmetry_space_group_name_H-M "C M M A"
_symmetry_group_IT_number 67
_symmetry_cell_setting 'orthorhombic'
loop_
_space_group_symop_operation_xyz
x,y,z
-x,1/2-y,z
x,-y,-z
-x,1/2+y,-z
-x,-y,-z
x,1/2+y,-z
-x,y,z
x,1/2-y,z
1/2+x,1/2+y,z
1/2-x,-y,z
1/2+x,1/2-y,-z
1/2-x,y,-z
1/2-x,1/2-y,-z
1/2+x,y,-z
1/2-x,1/2+y,z
1/2+x,-y,z
loop_
_atom_site_type_symbol
_atom_site_label
_atom_site_fract_x
_atom_site_fract_y
_atom_site_fract_z
Si Si1 0.149750 0.111635 0.266054
Si Si2 0.261177 0.101792 0.124732
Si Si3 0.627487 0.911356 0.740395
Si Si4 0.500000 0.250000 0.520700
Si Si5 0.000000 0.154825 0.703656
Si Si6 0.436433 0.250000 0.747548
Si Si7 0.183954 0.102554 0.507751
O O1 0.211530 0.131609 0.209882
O O2 0.099467 0.168641 0.217596
O O3 0.153338 0.132227 0.396555
O O4 0.135255 0.012741 0.256491
O O5 0.326131 0.119835 0.167438
O O6 0.250000 0.000000 0.123738
O O7 0.250000 0.132951 0.000000
O O8 0.559769 0.888405 0.742025
O O9 0.652479 0.877375 0.622571
O O10 0.500000 0.328409 0.432419
O O11 0.448625 0.250000 0.612470
O O12 0.000000 0.250000 0.749293
O O13 0.500000 0.250000 0.797986
O O14 0.250000 0.131998 0.500000
O O15 0.185497 0.000000 0.500000
#
# Coordination Sequence:
#
# PCOD9501806 Si02
#       7
#    16  16  16   4   8   8  16
#     4  10  19  34  56  81 111 148 186 229 282 331
#     4   9  18  35  61  87 110 139 189 244 284 328
#     4  10  19  34  59  83 111 151 186 225 285 339
#     4   8  20  38  50  74 124 158 174 224 276 326
#     4  10  22  37  54  78 118 147 186 225 271 341
#     4  10  22  36  49  75 121 148 187 230 267 334
#     4   9  15  28  50  81 111 137 179 228 274 335
#
# _framework density 19.143436999999999
#
# number of rings (size 3 to 8) (size 9 to 14) (size 15 to 20)
#    0.571    1.905    1.905    1.143    1.333    0.000 
#    1.714    3.333    2.095    2.286    0.000    0.000 
#    0.000    0.000    0.000    0.000    0.000    0.000 
#
# Total GULP energy -233867.147400 kJ/mol
# GULP energy per Si atom -5568.265414 kJ/mol
# Density = 1.909987 g / cm^3
# Si number density = 19.143437 Si / 1000 Ang^3
#
#
#
# Elastic Constant Matrix: (Units=GPa)
#
#
# Indices 1 2 3 4 5 6 
#
# 1 183.3534 35.9191 45.9429 0.0000 0.0000 0.0000
# 2 35.9191 29.0474 11.8011 0.0000 0.0000 0.0000
# 3 45.9429 11.8011 85.9899 0.0000 0.0000 0.0000
# 4 0.0000 0.0000 0.0000 -6.3967 0.0000 0.0000
# 5 0.0000 0.0000 0.0000 0.0000 11.8770 0.0000
# 6 0.0000 0.0000 0.0000 0.0000 0.0000 11.5340
#
#
#
# Elastic Compliance Matrix: (Units=1/GPa)
#
#
# Indices 1 2 3 4 5 6 
#
# 1 0.007884 -0.008513 -0.003044 0.000000 0.000000 0.000000
# 2 -0.008513 0.045651 -0.001717 0.000000 0.000000 0.000000
# 3 -0.003044 -0.001717 0.013491 0.000000 0.000000 0.000000
# 4 0.000000 0.000000 0.000000 -0.156330 0.000000 0.000000
# 5 0.000000 0.000000 0.000000 0.000000 0.084197 0.000000
# 6 0.000000 0.000000 0.000000 0.000000 0.000000 0.086700
#
#
# Mechanical properties :
#
#
# Convention : Reuss Voigt Hill
#
# Bulk Modulus (GPa) = 24.70433 53.96855 39.33644
# Shear Modulus (GPa) = 41.10725 17.05136 29.07930
#
# Velocity S-wave (km/s) = 4.63895 2.98772 3.90169
# Velocity P-wave (km/s) = 6.45183 6.33679 6.39457
#
# Compressibility (1/GPa) = 0.04047873
#
# Stress axis : x y z
#
# Youngs Moduli (GPa) = 126.83267 21.90553 74.12157
#
# Poissons Ratio (x) = 0.18648 0.22564
# Poissons Ratio (y) = 1.07970 0.12725
# Poissons Ratio (z) = 0.38611 0.03761
#
# Static dielectric constant tensor:
#      x y z
#    x 1.665220 0.000000 0.000000 
#    y 0.000000 1.678230 0.000000 
#    z 0.000000 0.000000 1.668200 
# 
# From -- ./inp_files/20605.got.cif
#   From: 2010.05.17/outbox.cif.g08.bks.cpg/sg67_11_cif.got.tgz:20605.got - 2010.06.03 18:28:57.
