data_PCOD9501905
_publ_section_title
;
Structure prediction by ZEFSAII (Michael W. Deem and Ramdas Pophale) SiO2 
 PCOD9501905
Probable space group: C M M A
;
_chemical_formula_sum "Si O2"
_cell_formula_units_Z 100
_cell_length_a 8.015211
_cell_length_b 32.108158
_cell_length_c 20.385048
_cell_angle_alpha 90.000000
_cell_angle_beta 90.000000
_cell_angle_gamma 90.000000
_cell_volume 5246.166736
_symmetry_space_group_name_H-M "C M M A"
_symmetry_group_IT_number 67
_symmetry_cell_setting 'orthorhombic'
loop_
_space_group_symop_operation_xyz
x,y,z
-x,1/2-y,z
x,-y,-z
-x,1/2+y,-z
-x,-y,-z
x,1/2+y,-z
-x,y,z
x,1/2-y,z
1/2+x,1/2+y,z
1/2-x,-y,z
1/2+x,1/2-y,-z
1/2-x,y,-z
1/2-x,1/2-y,-z
1/2+x,y,-z
1/2-x,1/2+y,z
1/2+x,-y,z
loop_
_atom_site_type_symbol
_atom_site_label
_atom_site_fract_x
_atom_site_fract_y
_atom_site_fract_z
Si Si1 0.701340 0.954236 0.782077
Si Si2 0.302433 0.795909 0.075061
Si Si3 0.300068 0.546027 0.629647
Si Si4 0.694366 0.867511 0.426316
Si Si5 0.190861 0.183624 0.695689
Si Si6 0.500000 0.250000 0.701904
Si Si7 0.305793 0.131681 0.172202
O O1 0.500000 0.951885 0.780759
O O2 0.756959 0.950624 0.705919
O O3 0.766960 0.914909 0.823359
O O4 0.750000 0.000000 0.806182
O O5 0.500000 0.792582 0.076403
O O6 0.233339 0.750000 0.095837
O O7 0.259120 0.833912 0.122031
O O8 0.250000 0.803022 0.000000
O O9 0.500000 0.549936 0.628014
O O10 0.250000 0.500000 0.606292
O O11 0.224005 0.583861 0.589158
O O12 0.500000 0.857785 0.418788
O O13 0.750000 0.858196 0.500000
O O14 0.793518 0.840757 0.372841
O O15 0.348613 0.214339 0.701541
O O16 0.207331 0.150841 0.755119
O O17 0.000000 0.200883 0.700733
O O18 0.500000 0.127206 0.155691
#
# Coordination Sequence:
#
# PCOD9501905 Si02
#       7
#    16  16  16  16  16   4  16
#     4   9  18  33  54  84 120 158 199 245 297 357
#     4  10  22  38  59  88 125 162 203 248 302 369
#     4  10  19  35  56  86 122 158 200 250 309 372
#     4  12  24  41  64  87 118 161 206 257 316 381
#     4  11  24  44  66  93 125 159 204 260 313 371
#     4  12  26  44  66  94 124 154 210 256 322 376
#     4  10  21  37  61  90 126 164 201 249 305 360
#
# _framework density 19.061536
#
# number of rings (size 3 to 8) (size 9 to 14) (size 15 to 20)
#    0.000    1.600    2.400    2.640    2.240    2.560 
#    0.000    2.000    0.000    0.480    0.000    3.360 
#    0.000    0.000    0.000    0.000    0.000    0.000 
#
# Total GULP energy -278499.776612 kJ/mol
# GULP energy per Si atom -5569.995532 kJ/mol
# Density = 1.901815 g / cm^3
# Si number density = 19.061536 Si / 1000 Ang^3
#
#
#
# Elastic Constant Matrix: (Units=GPa)
#
#
# Indices 1 2 3 4 5 6 
#
# 1 91.8958 37.6370 13.5252 0.0000 0.0000 0.0000
# 2 37.6370 118.0280 49.8735 0.0000 0.0000 0.0000
# 3 13.5252 49.8735 67.8127 0.0000 0.0000 0.0000
# 4 0.0000 0.0000 0.0000 44.6196 0.0000 0.0000
# 5 0.0000 0.0000 0.0000 0.0000 20.5036 0.0000
# 6 0.0000 0.0000 0.0000 0.0000 0.0000 26.2648
#
#
#
# Elastic Compliance Matrix: (Units=1/GPa)
#
#
# Indices 1 2 3 4 5 6 
#
# 1 0.012536 -0.004267 0.000638 0.000000 0.000000 0.000000
# 2 -0.004267 0.013745 -0.009258 0.000000 0.000000 0.000000
# 3 0.000638 -0.009258 0.021428 0.000000 0.000000 0.000000
# 4 0.000000 0.000000 0.000000 0.022412 0.000000 0.000000
# 5 0.000000 0.000000 0.000000 0.000000 0.048772 0.000000
# 6 0.000000 0.000000 0.000000 0.000000 0.000000 0.038074
#
#
# Mechanical properties :
#
#
# Convention : Reuss Voigt Hill
#
# Bulk Modulus (GPa) = 45.58935 53.31199 49.45067
# Shear Modulus (GPa) = 26.30857 30.05765 28.18311
#
# Velocity S-wave (km/s) = 3.71912 3.97530 3.84934
# Velocity P-wave (km/s) = 6.51240 7.00712 6.76428
#
# Compressibility (1/GPa) = 0.02193495
#
# Stress axis : x y z
#
# Youngs Moduli (GPa) = 79.77306 72.75229 46.66747
#
# Poissons Ratio (x) = 0.31043 -0.02977
# Poissons Ratio (y) = 0.34039 0.43205
# Poissons Ratio (z) = -0.05089 0.67355
#
# Static dielectric constant tensor:
#      x y z
#    x 1.673360 0.000000 0.000000 
#    y 0.000000 4.556200 0.000000 
#    z 0.000000 0.000000 1.615990 
# 
# From -- ./inp_files/37482.got.cif
#   From: 2010.05.17/outbox.cif.g08.bks.cpg/sg67_19_cif.got.tgz:37482.got - 2010.06.03 18:28:57.
