data_PCOD9501683
_publ_section_title
;
Structure prediction by ZEFSAII (Michael W. Deem and Ramdas Pophale) SiO2 
 PCOD9501683
Probable space group: C M M A
;
_chemical_formula_sum "Si O2"
_cell_formula_units_Z 112
_cell_length_a 27.263892
_cell_length_b 15.089256
_cell_length_c 13.334902
_cell_angle_alpha 90.000000
_cell_angle_beta 90.000000
_cell_angle_gamma 90.000000
_cell_volume 5485.869949
_symmetry_space_group_name_H-M "C M M A"
_symmetry_group_IT_number 67
_symmetry_cell_setting 'orthorhombic'
loop_
_space_group_symop_operation_xyz
x,y,z
-x,1/2-y,z
x,-y,-z
-x,1/2+y,-z
-x,-y,-z
x,1/2+y,-z
-x,y,z
x,1/2-y,z
1/2+x,1/2+y,z
1/2-x,-y,z
1/2+x,1/2-y,-z
1/2-x,y,-z
1/2-x,1/2-y,-z
1/2+x,y,-z
1/2-x,1/2+y,z
1/2+x,-y,z
loop_
_atom_site_type_symbol
_atom_site_label
_atom_site_fract_x
_atom_site_fract_y
_atom_site_fract_z
Si Si1 0.943005 0.357891 0.979646
Si Si2 0.877212 0.143271 0.160835
Si Si3 0.146817 0.603768 0.622736
Si Si4 0.744125 0.103211 0.325281
Si Si5 0.232586 0.642486 0.890904
Si Si6 0.140729 0.891854 0.401630
Si Si7 0.944075 0.644088 0.242234
O O1 0.938891 0.250000 0.980792
O O2 0.927119 0.387879 0.868390
O O3 0.000000 0.379872 0.989264
O O4 0.913876 0.391101 0.076139
O O5 0.877407 0.250000 0.155652
O O6 0.884603 0.120819 0.277423
O O7 0.822870 0.112801 0.129895
O O8 0.202086 0.639908 0.645244
O O9 0.147380 0.497928 0.608141
O O10 0.128990 0.637286 0.514988
O O11 0.737366 0.110439 0.205413
O O12 0.695356 0.142453 0.374409
O O13 0.750000 0.000000 0.353119
O O14 0.234128 0.750000 0.889533
O O15 0.250000 0.613167 0.000000
O O16 0.096942 0.871367 0.325624
O O17 0.948459 0.750000 0.233768
O O18 0.000000 0.610725 0.262854
#
# Coordination Sequence:
#
# PCOD9501683 Si02
#       7
#    16  16  16  16  16  16  16
#     4   8  15  30  52  74  95 124 161 200 245 297
#     4   9  17  31  50  69  98 131 158 200 253 297
#     4   9  19  35  49  74 104 130 169 213 252 292
#     4   9  18  32  50  71  97 132 173 209 244 297
#     4   9  18  29  43  68 100 128 158 200 248 299
#     4  10  19  33  55  72  96 139 174 205 254 307
#     4   9  19  35  54  78 104 128 166 217 257 297
#
# _framework density 20.416087000000001
#
# number of rings (size 3 to 8) (size 9 to 14) (size 15 to 20)
#    0.000    3.000    0.000    1.286    2.000    3.143 
#    0.000    3.571    0.000    7.714    0.000    0.000 
#    0.000    0.000    0.000    0.000    0.000    0.000 
#
# Total GULP energy -312032.710361 kJ/mol
# GULP energy per Si atom -5572.012685 kJ/mol
# Density = 2.036962 g / cm^3
# Si number density = 20.416087 Si / 1000 Ang^3
#
#
#
# Elastic Constant Matrix: (Units=GPa)
#
#
# Indices 1 2 3 4 5 6 
#
# 1 73.4433 4.2671 90.7455 0.0000 0.0000 0.0000
# 2 4.2671 31.2543 1.3212 0.0000 0.0000 0.0000
# 3 90.7455 1.3212 211.5163 0.0000 0.0000 0.0000
# 4 0.0000 0.0000 0.0000 20.7263 0.0000 0.0000
# 5 0.0000 0.0000 0.0000 0.0000 31.7670 0.0000
# 6 0.0000 0.0000 0.0000 0.0000 0.0000 -10.4146
#
#
#
# Elastic Compliance Matrix: (Units=1/GPa)
#
#
# Indices 1 2 3 4 5 6 
#
# 1 0.029349 -0.003476 -0.012570 0.000000 0.000000 0.000000
# 2 -0.003476 0.032416 0.001289 0.000000 0.000000 0.000000
# 3 -0.012570 0.001289 0.010112 0.000000 0.000000 0.000000
# 4 0.000000 0.000000 0.000000 0.048248 0.000000 0.000000
# 5 0.000000 0.000000 0.000000 0.000000 0.031479 0.000000
# 6 0.000000 0.000000 0.000000 0.000000 0.000000 -0.096019
#
#
# Mechanical properties :
#
#
# Convention : Reuss Voigt Hill
#
# Bulk Modulus (GPa) = 23.60517 56.54239 40.07378
# Shear Modulus (GPa) = 50.39362 23.07442 36.73402
#
# Velocity S-wave (km/s) = 4.97362 3.36550 4.24638
# Velocity P-wave (km/s) = 6.67605 6.54655 6.61162
#
# Compressibility (1/GPa) = 0.04236360
#
# Stress axis : x y z
#
# Youngs Moduli (GPa) = 34.07316 30.84933 98.88900
#
# Poissons Ratio (x) = 0.10722 1.24299
# Poissons Ratio (y) = 0.11842 -0.12743
# Poissons Ratio (z) = 0.42828 -0.03975
#
# Static dielectric constant tensor:
#      x y z
#    x 1.721380 0.000000 0.000000 
#    y 0.000000 1.777470 0.000000 
#    z 0.000000 0.000000 1.757120 
# 
# From -- ./inp_files/21130.got.cif
#   From: 2010.05.17/outbox.cif.g08.bks.cpg/sg67_11_cif.got.tgz:21130.got - 2010.06.03 18:28:57.
