data_PCOD9501791
_publ_section_title
;
Structure prediction by ZEFSAII (Michael W. Deem and Ramdas Pophale) SiO2 
 PCOD9501791
Probable space group: C M M A
;
_chemical_formula_sum "Si O2"
_cell_formula_units_Z 96
_cell_length_a 29.448477
_cell_length_b 8.805204
_cell_length_c 20.924890
_cell_angle_alpha 90.000000
_cell_angle_beta 90.000000
_cell_angle_gamma 90.000000
_cell_volume 5425.820785
_symmetry_space_group_name_H-M "C M M A"
_symmetry_group_IT_number 67
_symmetry_cell_setting 'orthorhombic'
loop_
_space_group_symop_operation_xyz
x,y,z
-x,1/2-y,z
x,-y,-z
-x,1/2+y,-z
-x,-y,-z
x,1/2+y,-z
-x,y,z
x,1/2-y,z
1/2+x,1/2+y,z
1/2-x,-y,z
1/2+x,1/2-y,-z
1/2-x,y,-z
1/2-x,1/2-y,-z
1/2+x,y,-z
1/2-x,1/2+y,z
1/2+x,-y,z
loop_
_atom_site_type_symbol
_atom_site_label
_atom_site_fract_x
_atom_site_fract_y
_atom_site_fract_z
Si Si1 0.604794 0.567893 0.433079
Si Si2 0.202297 0.068039 0.384361
Si Si3 0.201730 0.067961 0.233744
Si Si4 0.947021 0.568207 0.930330
Si Si5 0.052940 0.932650 0.312463
Si Si6 0.109521 0.567727 0.185682
O O1 0.588679 0.500000 0.500000
O O2 0.603873 0.750000 0.435093
O O3 0.657047 0.517469 0.420707
O O4 0.575275 0.510232 0.373794
O O5 0.205158 0.250000 0.388335
O O6 0.196415 0.027698 0.309233
O O7 0.250000 0.000000 0.407021
O O8 0.201991 0.250000 0.228798
O O9 0.250000 0.000000 0.213004
O O10 0.159628 0.998692 0.195875
O O11 0.942481 0.750000 0.931933
O O12 0.915188 0.498360 0.876264
O O13 0.000000 0.531445 0.916100
O O14 0.936707 0.500000 0.000000
O O15 0.056225 0.750000 0.319637
O O16 0.080248 0.975202 0.248536
O O17 0.000000 0.972724 0.306357
O O18 0.111160 0.750000 0.182075
#
# Coordination Sequence:
#
# PCOD9501791 Si02
#       6
#    16  16  16  16  16  16
#     4  11  23  39  56  78 106 142 183 229 282 339
#     4   9  19  34  54  78 107 139 177 223 276 333
#     4  10  19  34  55  83 115 147 187 231 280 335
#     4  10  21  37  58  86 121 159 196 235 280 331
#     4  10  22  39  58  81 108 141 184 232 280 332
#     4  11  21  35  59  88 118 151 187 232 283 334
#
# _framework density 17.693176000000001
#
# number of rings (size 3 to 8) (size 9 to 14) (size 15 to 20)
#    0.000    1.833    1.667    2.500    0.000    5.333 
#    0.000    1.667    0.000    0.500    0.000    3.500 
#    0.000    0.000    0.000    0.000    0.000    0.000 
#
# Total GULP energy -268161.286255 kJ/mol
# GULP energy per Si atom -5586.693464 kJ/mol
# Density = 1.765291 g / cm^3
# Si number density = 17.693176 Si / 1000 Ang^3
#
#
#
# Elastic Constant Matrix: (Units=GPa)
#
#
# Indices 1 2 3 4 5 6 
#
# 1 137.6066 51.3892 80.3173 0.0000 0.0000 0.0000
# 2 51.3892 48.6627 49.4975 0.0000 0.0000 0.0000
# 3 80.3173 49.4975 122.7472 0.0000 0.0000 0.0000
# 4 0.0000 0.0000 0.0000 19.0728 0.0000 0.0000
# 5 0.0000 0.0000 0.0000 0.0000 7.0816 0.0000
# 6 0.0000 0.0000 0.0000 0.0000 0.0000 29.9275
#
#
#
# Elastic Compliance Matrix: (Units=1/GPa)
#
#
# Indices 1 2 3 4 5 6 
#
# 1 0.013798 -0.009134 -0.005345 0.000000 0.000000 0.000000
# 2 -0.009134 0.040887 -0.010511 0.000000 0.000000 0.000000
# 3 -0.005345 -0.010511 0.015883 0.000000 0.000000 0.000000
# 4 0.000000 0.000000 0.000000 0.052431 0.000000 0.000000
# 5 0.000000 0.000000 0.000000 0.000000 0.141211 0.000000
# 6 0.000000 0.000000 0.000000 0.000000 0.000000 0.033414
#
#
# Mechanical properties :
#
#
# Convention : Reuss Voigt Hill
#
# Bulk Modulus (GPa) = 48.57358 74.60273 61.58816
# Shear Modulus (GPa) = 14.10574 19.73720 16.92147
#
# Velocity S-wave (km/s) = 2.82661 3.34357 3.09590
# Velocity P-wave (km/s) = 6.17785 7.56057 6.90391
#
# Compressibility (1/GPa) = 0.02058732
#
# Stress axis : x y z
#
# Youngs Moduli (GPa) = 72.47358 24.45789 62.96179
#
# Poissons Ratio (x) = 0.22341 0.33654
# Poissons Ratio (y) = 0.66200 0.66176
# Poissons Ratio (z) = 0.38738 0.25707
#
# Static dielectric constant tensor:
#      x y z
#    x 1.592340 0.000000 0.000000 
#    y 0.000000 1.584970 0.000000 
#    z 0.000000 0.000000 1.575960 
# 
# From -- ./inp_files/37143.got.cif
#   From: 2010.05.17/outbox.cif.g08.bks.cpg/sg67_19_cif.got.tgz:37143.got - 2010.06.03 18:28:57.
