data_PCOD9501986
_publ_section_title
;
Structure prediction by ZEFSAII (Michael W. Deem and Ramdas Pophale) SiO2 
 PCOD9501986
Probable space group: C M M A
;
_chemical_formula_sum "Si O2"
_cell_formula_units_Z 104
_cell_length_a 30.258104
_cell_length_b 8.852054
_cell_length_c 20.639472
_cell_angle_alpha 90.000000
_cell_angle_beta 90.000000
_cell_angle_gamma 90.000000
_cell_volume 5528.207665
_symmetry_space_group_name_H-M "C M M A"
_symmetry_group_IT_number 67
_symmetry_cell_setting 'orthorhombic'
loop_
_space_group_symop_operation_xyz
x,y,z
-x,1/2-y,z
x,-y,-z
-x,1/2+y,-z
-x,-y,-z
x,1/2+y,-z
-x,y,z
x,1/2-y,z
1/2+x,1/2+y,z
1/2-x,-y,z
1/2+x,1/2-y,-z
1/2-x,y,-z
1/2-x,1/2-y,-z
1/2+x,y,-z
1/2-x,1/2+y,z
1/2+x,-y,z
loop_
_atom_site_type_symbol
_atom_site_label
_atom_site_fract_x
_atom_site_fract_y
_atom_site_fract_z
Si Si1 0.204719 0.079841 0.087946
Si Si2 0.597200 0.931473 0.428004
Si Si3 0.000000 0.569564 0.570948
Si Si4 0.895023 0.066769 0.067170
Si Si5 0.119591 0.928592 0.299509
Si Si6 0.948004 0.932557 0.801702
Si Si7 0.295068 0.422259 0.756301
O O1 0.205220 0.250000 0.061707
O O2 0.156257 0.013208 0.072836
O O3 0.206440 0.086594 0.165910
O O4 0.250000 0.000000 0.068207
O O5 0.600876 0.750000 0.431691
O O6 0.547536 0.973574 0.402576
O O7 0.603249 0.000000 0.500000
O O8 0.625880 0.000676 0.371021
O O9 0.000000 0.500000 0.500000
O O10 0.000000 0.750000 0.566987
O O11 0.894719 0.250000 0.064915
O O12 0.923300 0.024715 0.130943
O O13 0.913116 0.000000 0.000000
O O14 0.114318 0.750000 0.304358
O O15 0.079046 0.997669 0.258093
O O16 0.163443 0.976333 0.261521
O O17 0.945370 0.750000 0.796096
O O18 0.000000 0.973737 0.802052
O O19 0.300088 0.250000 0.732096
O O20 0.250000 0.500000 0.733294
#
# Coordination Sequence:
#
# PCOD9501986 Si02
#       7
#    16  16   8  16  16  16  16
#     4   9  18  33  54  79 112 145 182 228 284 346
#     4  10  20  36  56  82 116 157 198 241 291 348
#     4   8  16  30  50  74 104 144 187 226 275 334
#     4  10  21  38  57  82 112 149 191 239 292 351
#     4  12  24  37  58  89 121 155 195 242 292 346
#     4  10  22  42  63  81 110 153 199 246 298 351
#     4  10  19  36  60  87 117 151 191 238 291 349
#
# _framework density 18.812607
#
# number of rings (size 3 to 8) (size 9 to 14) (size 15 to 20)
#    0.000    2.000    1.538    2.308    1.077    3.385 
#    0.000    1.538    0.000    0.462    0.000    3.231 
#    0.000    0.000    0.000    0.000    0.000    0.000 
#
# Total GULP energy -289918.035927 kJ/mol
# GULP energy per Si atom -5575.346845 kJ/mol
# Density = 1.876979 g / cm^3
# Si number density = 18.812607 Si / 1000 Ang^3
#
#
#
# Elastic Constant Matrix: (Units=GPa)
#
#
# Indices 1 2 3 4 5 6 
#
# 1 105.0662 29.1527 44.0706 0.0000 0.0000 0.0000
# 2 29.1527 50.7555 42.3981 0.0000 0.0000 0.0000
# 3 44.0706 42.3981 117.4856 0.0000 0.0000 0.0000
# 4 0.0000 0.0000 0.0000 25.9484 0.0000 0.0000
# 5 0.0000 0.0000 0.0000 0.0000 -3.6390 0.0000
# 6 0.0000 0.0000 0.0000 0.0000 0.0000 19.8358
#
#
#
# Elastic Compliance Matrix: (Units=1/GPa)
#
#
# Indices 1 2 3 4 5 6 
#
# 1 0.011964 -0.004471 -0.002875 0.000000 0.000000 0.000000
# 2 -0.004471 0.029875 -0.009104 0.000000 0.000000 0.000000
# 3 -0.002875 -0.009104 0.012876 0.000000 0.000000 0.000000
# 4 0.000000 0.000000 0.000000 0.038538 0.000000 0.000000
# 5 0.000000 0.000000 0.000000 0.000000 -0.274798 0.000000
# 6 0.000000 0.000000 0.000000 0.000000 0.000000 0.050414
#
#
# Mechanical properties :
#
#
# Convention : Reuss Voigt Hill
#
# Bulk Modulus (GPa) = 45.83825 56.06113 50.94969
# Shear Modulus (GPa) = -54.96940 18.94143 -18.01398
#
# Velocity S-wave (km/s) = -5.41137 3.17653 -3.09779
# Velocity P-wave (km/s) = 3.82429 6.58166 3.78768
#
# Compressibility (1/GPa) = 0.02181584
#
# Stress axis : x y z
#
# Youngs Moduli (GPa) = 83.58402 33.47235 77.66655
#
# Poissons Ratio (x) = 0.14964 0.22325
# Poissons Ratio (y) = 0.37367 0.70711
# Poissons Ratio (z) = 0.24026 0.30475
#
# Static dielectric constant tensor:
#      x y z
#    x 1.681610 0.000000 0.000000 
#    y 0.000000 1.634440 0.000000 
#    z 0.000000 0.000000 1.639080 
# 
# From -- ./inp_files/37489.got.cif
#   From: 2010.05.17/outbox.cif.g08.bks.cpg/sg67_19_cif.got.tgz:37489.got - 2010.06.03 18:28:57.
