data_PCOD9501176
_publ_section_title
;
Structure prediction by ZEFSAII (Michael W. Deem and Ramdas Pophale) SiO2 
 PCOD9501176
Probable space group: C M M A
;
_chemical_formula_sum "Si O2"
_cell_formula_units_Z 96
_cell_length_a 28.160995
_cell_length_b 8.618783
_cell_length_c 24.573384
_cell_angle_alpha 90.000000
_cell_angle_beta 90.000000
_cell_angle_gamma 90.000000
_cell_volume 5964.292160
_symmetry_space_group_name_H-M "C M M A"
_symmetry_group_IT_number 67
_symmetry_cell_setting 'orthorhombic'
loop_
_space_group_symop_operation_xyz
x,y,z
-x,1/2-y,z
x,-y,-z
-x,1/2+y,-z
-x,-y,-z
x,1/2+y,-z
-x,y,z
x,1/2-y,z
1/2+x,1/2+y,z
1/2-x,-y,z
1/2+x,1/2-y,-z
1/2-x,y,-z
1/2-x,1/2-y,-z
1/2+x,y,-z
1/2-x,1/2+y,z
1/2+x,-y,z
loop_
_atom_site_type_symbol
_atom_site_label
_atom_site_fract_x
_atom_site_fract_y
_atom_site_fract_z
Si Si1 0.647578 0.063550 0.664176
Si Si2 0.555184 0.937079 0.941345
Si Si3 0.896344 0.437190 0.831013
Si Si4 0.198470 0.063745 0.770363
Si Si5 0.053279 0.437114 0.274668
Si Si6 0.803050 0.064859 0.558879
O O1 0.650144 0.250000 0.661347
O O2 0.594561 0.016491 0.683178
O O3 0.682168 0.004636 0.712215
O O4 0.663503 0.991930 0.607353
O O5 0.500000 0.983851 0.932771
O O6 0.556414 0.750000 0.942993
O O7 0.586692 0.990000 0.890347
O O8 0.570478 0.000000 0.000000
O O9 0.898959 0.250000 0.829962
O O10 0.843051 0.481101 0.812901
O O11 0.930933 0.500531 0.784157
O O12 0.199822 0.250000 0.766521
O O13 0.250000 0.000000 0.785067
O O14 0.053657 0.250000 0.272533
O O15 0.000000 0.488871 0.288325
O O16 0.801018 0.250000 0.557012
O O17 0.818007 0.000000 0.500000
O O18 0.750000 0.000000 0.569257
#
# Coordination Sequence:
#
# PCOD9501176 Si02
#       6
#    16  16  16  16  16  16
#     4  10  19  32  49  70  97 126 155 188 228 272
#     4   9  17  29  45  66  91 118 148 184 227 273
#     4   9  18  31  47  67  92 122 154 189 229 275
#     4  10  19  31  47  68  93 121 154 190 230 274
#     4   9  18  31  48  71  97 124 154 189 229 272
#     4  11  21  34  51  72  97 124 156 191 231 275
#
# _framework density 16.095790999999998
#
# number of rings (size 3 to 8) (size 9 to 14) (size 15 to 20)
#    0.000    2.333    0.000    4.000    0.000    3.000 
#    0.000    1.667    0.000    1.000    0.000    3.500 
#    0.000    0.000    0.000    0.000    0.000    0.000 
#
# Total GULP energy -267753.785585 kJ/mol
# GULP energy per Si atom -5578.203866 kJ/mol
# Density = 1.605916 g / cm^3
# Si number density = 16.095791 Si / 1000 Ang^3
#
#
#
# Elastic Constant Matrix: (Units=GPa)
#
#
# Indices 1 2 3 4 5 6 
#
# 1 110.4320 31.2261 81.7297 0.0000 0.0000 0.0000
# 2 31.2261 50.9077 39.5151 0.0000 0.0000 0.0000
# 3 81.7297 39.5151 156.9821 0.0000 0.0000 0.0000
# 4 0.0000 0.0000 0.0000 24.7175 0.0000 0.0000
# 5 0.0000 0.0000 0.0000 0.0000 19.2333 0.0000
# 6 0.0000 0.0000 0.0000 0.0000 0.0000 16.6813
#
#
#
# Elastic Compliance Matrix: (Units=1/GPa)
#
#
# Indices 1 2 3 4 5 6 
#
# 1 0.015359 -0.003995 -0.006991 0.000000 0.000000 0.000000
# 2 -0.003995 0.025452 -0.004327 0.000000 0.000000 0.000000
# 3 -0.006991 -0.004327 0.011099 0.000000 0.000000 0.000000
# 4 0.000000 0.000000 0.000000 0.040457 0.000000 0.000000
# 5 0.000000 0.000000 0.000000 0.000000 0.051993 0.000000
# 6 0.000000 0.000000 0.000000 0.000000 0.000000 0.059947
#
#
# Mechanical properties :
#
#
# Convention : Reuss Voigt Hill
#
# Bulk Modulus (GPa) = 46.98098 69.25153 58.11625
# Shear Modulus (GPa) = 20.65886 23.18316 21.92101
#
# Velocity S-wave (km/s) = 3.58648 3.79928 3.69441
# Velocity P-wave (km/s) = 6.81191 7.89709 7.37449
#
# Compressibility (1/GPa) = 0.02128521
#
# Stress axis : x y z
#
# Youngs Moduli (GPa) = 65.11030 39.28915 90.09900
#
# Poissons Ratio (x) = 0.15694 0.62985
# Poissons Ratio (y) = 0.26008 0.38987
# Poissons Ratio (z) = 0.45516 0.17001
#
# Static dielectric constant tensor:
#      x y z
#    x 1.543180 0.000000 0.000000 
#    y 0.000000 1.540940 0.000000 
#    z 0.000000 0.000000 1.517850 
# 
# From -- ./inp_files/40893.got.cif
#   From: 2010.05.17/outbox.cif.g08.bks.cpg/sg67_21_cif.got.tgz:40893.got - 2010.06.03 18:28:57.
