data_PCOD9501162
_publ_section_title
;
Structure prediction by ZEFSAII (Michael W. Deem and Ramdas Pophale) SiO2 
 PCOD9501162
Probable space group: C M M A
;
_chemical_formula_sum "Si O2"
_cell_formula_units_Z 112
_cell_length_a 24.154405
_cell_length_b 15.015978
_cell_length_c 15.580387
_cell_angle_alpha 90.000000
_cell_angle_beta 90.000000
_cell_angle_gamma 90.000000
_cell_volume 5651.037745
_symmetry_space_group_name_H-M "C M M A"
_symmetry_group_IT_number 67
_symmetry_cell_setting 'orthorhombic'
loop_
_space_group_symop_operation_xyz
x,y,z
-x,1/2-y,z
x,-y,-z
-x,1/2+y,-z
-x,-y,-z
x,1/2+y,-z
-x,y,z
x,1/2-y,z
1/2+x,1/2+y,z
1/2-x,-y,z
1/2+x,1/2-y,-z
1/2-x,y,-z
1/2-x,1/2-y,-z
1/2+x,y,-z
1/2-x,1/2+y,z
1/2+x,-y,z
loop_
_atom_site_type_symbol
_atom_site_label
_atom_site_fract_x
_atom_site_fract_y
_atom_site_fract_z
Si Si1 0.830272 0.855273 0.255350
Si Si2 0.662763 0.143284 0.775284
Si Si3 0.234477 0.400773 0.383969
Si Si4 0.245641 0.857892 0.097079
Si Si5 0.439210 0.357161 0.685495
Si Si6 0.936323 0.645357 0.347097
Si Si7 0.631532 0.896101 0.482675
O O1 0.837467 0.750000 0.240430
O O2 0.789443 0.861195 0.338922
O O3 0.798869 0.890334 0.169455
O O4 0.890419 0.894178 0.280965
O O5 0.670147 0.250000 0.757636
O O6 0.694020 0.093990 0.698557
O O7 0.694639 0.124384 0.861346
O O8 0.598777 0.121740 0.766985
O O9 0.250000 0.500000 0.408952
O O10 0.193179 0.360007 0.456644
O O11 0.238022 0.750000 0.093149
O O12 0.250000 0.891227 0.000000
O O13 0.500000 0.395417 0.688987
O O14 0.442718 0.250000 0.681314
O O15 0.407019 0.384996 0.600339
O O16 0.941339 0.750000 0.326892
O O17 0.904038 0.640345 0.438086
O O18 0.000000 0.610353 0.350261
O O19 0.639150 0.000000 0.500000
#
# Coordination Sequence:
#
# PCOD9501162 Si02
#       7
#    16  16  16  16  16  16  16
#     4   9  18  32  49  68  89 117 151 182 219 268
#     4   8  15  28  46  68  91 116 147 179 215 265
#     4  10  19  31  46  65  91 118 145 183 231 269
#     4   8  13  24  46  72  92 111 139 177 220 266
#     4   9  17  30  47  64  86 119 155 188 220 255
#     4  10  21  35  48  62  85 120 159 192 218 253
#     4  11  22  32  44  65  91 118 151 191 229 264
#
# _framework density 19.819367
#
# number of rings (size 3 to 8) (size 9 to 14) (size 15 to 20)
#    0.000    2.714    0.000    3.000    0.000    6.000 
#    0.000    1.429    0.000    7.714    0.000    6.000 
#    0.000    0.000    0.000   27.429    0.000   25.714 
#
# Total GULP energy -311830.488420 kJ/mol
# GULP energy per Si atom -5568.401579 kJ/mol
# Density = 1.977426 g / cm^3
# Si number density = 19.819367 Si / 1000 Ang^3
#
#
#
# Elastic Constant Matrix: (Units=GPa)
#
#
# Indices 1 2 3 4 5 6 
#
# 1 204.4963 11.9533 82.7585 0.0000 0.0000 0.0000
# 2 11.9533 38.6753 9.0339 0.0000 0.0000 0.0000
# 3 82.7585 9.0339 133.0039 0.0000 0.0000 0.0000
# 4 0.0000 0.0000 0.0000 -44.3405 0.0000 0.0000
# 5 0.0000 0.0000 0.0000 0.0000 11.1232 0.0000
# 6 0.0000 0.0000 0.0000 0.0000 0.0000 7.9245
#
#
#
# Elastic Compliance Matrix: (Units=1/GPa)
#
#
# Indices 1 2 3 4 5 6 
#
# 1 0.006581 -0.001095 -0.004021 0.000000 0.000000 0.000000
# 2 -0.001095 0.026455 -0.001116 0.000000 0.000000 0.000000
# 3 -0.004021 -0.001116 0.010096 0.000000 0.000000 0.000000
# 4 0.000000 0.000000 0.000000 -0.022553 0.000000 0.000000
# 5 0.000000 0.000000 0.000000 0.000000 0.089903 0.000000
# 6 0.000000 0.000000 0.000000 0.000000 0.000000 0.126191
#
#
# Mechanical properties :
#
#
# Convention : Reuss Voigt Hill
#
# Bulk Modulus (GPa) = 32.60483 64.85187 48.72835
# Shear Modulus (GPa) = 19.27827 13.10341 16.19084
#
# Velocity S-wave (km/s) = 3.12220 2.57406 2.86128
# Velocity P-wave (km/s) = 5.42993 6.45189 5.96284
#
# Compressibility (1/GPa) = 0.03067031
#
# Stress axis : x y z
#
# Youngs Moduli (GPa) = 151.94834 37.79960 99.04828
#
# Poissons Ratio (x) = 0.04139 0.39824
# Poissons Ratio (y) = 0.16636 0.11050
# Poissons Ratio (z) = 0.61093 0.04217
#
# Static dielectric constant tensor:
#      x y z
#    x 1.772010 0.000000 0.000000 
#    y 0.000000 1.749820 0.000000 
#    z 0.000000 0.000000 1.697530 
# 
# From -- ./inp_files/35586.got.cif
#   From: 2010.05.17/outbox.cif.g08.bks.cpg/sg67_18_cif.got.tgz:35586.got - 2010.06.03 18:28:57.
