data_PCOD9501234
_publ_section_title
;
Structure prediction by ZEFSAII (Michael W. Deem and Ramdas Pophale) SiO2 
 PCOD9501234
Probable space group: C M M A
;
_chemical_formula_sum "Si O2"
_cell_formula_units_Z 128
_cell_length_a 16.188018
_cell_length_b 25.503060
_cell_length_c 18.729276
_cell_angle_alpha 90.000000
_cell_angle_beta 90.000000
_cell_angle_gamma 90.000000
_cell_volume 7732.269115
_symmetry_space_group_name_H-M "C M M A"
_symmetry_group_IT_number 67
_symmetry_cell_setting 'orthorhombic'
loop_
_space_group_symop_operation_xyz
x,y,z
-x,1/2-y,z
x,-y,-z
-x,1/2+y,-z
-x,-y,-z
x,1/2+y,-z
-x,y,z
x,1/2-y,z
1/2+x,1/2+y,z
1/2-x,-y,z
1/2+x,1/2-y,-z
1/2-x,y,-z
1/2-x,1/2-y,-z
1/2+x,y,-z
1/2-x,1/2+y,z
1/2+x,-y,z
loop_
_atom_site_type_symbol
_atom_site_label
_atom_site_fract_x
_atom_site_fract_y
_atom_site_fract_z
Si Si1 0.655584 0.100816 0.328498
Si Si2 0.094194 0.067659 0.819879
Si Si3 0.405617 0.809107 0.408281
Si Si4 0.829519 0.688122 0.448761
Si Si5 0.749726 0.436422 0.081518
Si Si6 0.850919 0.498968 0.580828
Si Si7 0.152747 0.904983 0.678507
Si Si8 0.407257 0.557737 0.175326
O O1 0.606829 0.098994 0.254166
O O2 0.659592 0.151789 0.379633
O O3 0.624195 0.053343 0.377983
O O4 0.750124 0.086939 0.307098
O O5 0.167904 0.080656 0.875065
O O6 0.000000 0.075614 0.846089
O O7 0.103644 0.004543 0.806765
O O8 0.500000 0.810535 0.385105
O O9 0.372716 0.750000 0.399879
O O10 0.400694 0.820909 0.492604
O O11 0.357054 0.850188 0.361158
O O12 0.826184 0.750000 0.430730
O O13 0.750000 0.675341 0.500000
O O14 0.750000 0.500000 0.079261
O O15 0.834593 0.424142 0.122771
O O16 0.750000 0.417363 0.000000
O O17 0.880806 0.500000 0.500000
O O18 0.750000 0.500000 0.578451
O O19 0.876694 0.549944 0.624510
O O20 0.103746 0.910901 0.751389
O O21 0.500000 0.563885 0.146272
#
# Coordination Sequence:
#
# PCOD9501234 Si02
#       8
#    16  16  16  16  16  16  16  16
#     4  11  19  30  50  69  97 134 170 215 259 304
#     4  10  20  33  49  72 104 138 170 205 253 308
#     4  10  21  35  50  70  97 129 169 222 275 313
#     4  10  20  34  51  70  91 127 179 224 268 314
#     4   9  18  32  51  74 101 135 170 202 241 295
#     4   9  18  26  41  68  94 126 170 210 255 301
#     4  11  18  30  50  69  97 133 170 209 256 309
#     4  10  19  31  49  73 102 135 169 205 250 305
#
# _framework density 16.554002000000001
#
# number of rings (size 3 to 8) (size 9 to 14) (size 15 to 20)
#    0.000    2.000    3.750    1.125    1.750    1.000 
#    0.000    2.500    0.000    1.875    0.000    0.000 
#    0.000    2.000    0.000    2.375    0.000    0.250 
#
# Total GULP energy -356704.003055 kJ/mol
# GULP energy per Si atom -5573.500048 kJ/mol
# Density = 1.651632 g / cm^3
# Si number density = 16.554002 Si / 1000 Ang^3
#
#
#
# Elastic Constant Matrix: (Units=GPa)
#
#
# Indices 1 2 3 4 5 6 
#
# 1 86.8941 18.5446 48.0217 0.0000 0.0000 0.0000
# 2 18.5446 52.3830 34.6679 0.0000 0.0000 0.0000
# 3 48.0217 34.6679 118.7286 0.0000 0.0000 0.0000
# 4 0.0000 0.0000 0.0000 8.5240 0.0000 0.0000
# 5 0.0000 0.0000 0.0000 0.0000 9.8156 0.0000
# 6 0.0000 0.0000 0.0000 0.0000 0.0000 11.6507
#
#
#
# Elastic Compliance Matrix: (Units=1/GPa)
#
#
# Indices 1 2 3 4 5 6 
#
# 1 0.014928 -0.001598 -0.005572 0.000000 0.000000 0.000000
# 2 -0.001598 0.023834 -0.006313 0.000000 0.000000 0.000000
# 3 -0.005572 -0.006313 0.012519 0.000000 0.000000 0.000000
# 4 0.000000 0.000000 0.000000 0.117316 0.000000 0.000000
# 5 0.000000 0.000000 0.000000 0.000000 0.101879 0.000000
# 6 0.000000 0.000000 0.000000 0.000000 0.000000 0.085832
#
#
# Mechanical properties :
#
#
# Convention : Reuss Voigt Hill
#
# Bulk Modulus (GPa) = 41.12328 51.16378 46.14353
# Shear Modulus (GPa) = 12.77536 16.44949 14.61243
#
# Velocity S-wave (km/s) = 2.78103 3.15570 2.97427
# Velocity P-wave (km/s) = 5.93363 6.65223 6.30318
#
# Compressibility (1/GPa) = 0.02431713
#
# Stress axis : x y z
#
# Youngs Moduli (GPa) = 66.98691 41.95712 79.87571
#
# Poissons Ratio (x) = 0.06703 0.44503
# Poissons Ratio (y) = 0.10702 0.50427
# Poissons Ratio (z) = 0.37322 0.26488
#
# Static dielectric constant tensor:
#      x y z
#    x 1.631670 0.000000 0.000000 
#    y 0.000000 1.545330 0.000000 
#    z 0.000000 0.000000 1.543270 
# 
# From -- ./inp_files/34565.got.cif
#   From: 2010.05.17/outbox.cif.g08.bks.cpg/sg67_18_cif.got.tgz:34565.got - 2010.06.03 18:28:57.
