data_PCOD9501101
_publ_section_title
;
Structure prediction by ZEFSAII (Michael W. Deem and Ramdas Pophale) SiO2 
 PCOD9501101
Probable space group: C M M A
;
_chemical_formula_sum "Si O2"
_cell_formula_units_Z 64
_cell_length_a 11.175404
_cell_length_b 36.820927
_cell_length_c 7.197645
_cell_angle_alpha 90.000000
_cell_angle_beta 90.000000
_cell_angle_gamma 90.000000
_cell_volume 2961.749835
_symmetry_space_group_name_H-M "C M M A"
_symmetry_group_IT_number 67
_symmetry_cell_setting 'orthorhombic'
loop_
_space_group_symop_operation_xyz
x,y,z
-x,1/2-y,z
x,-y,-z
-x,1/2+y,-z
-x,-y,-z
x,1/2+y,-z
-x,y,z
x,1/2-y,z
1/2+x,1/2+y,z
1/2-x,-y,z
1/2+x,1/2-y,-z
1/2-x,y,-z
1/2-x,1/2-y,-z
1/2+x,y,-z
1/2-x,1/2+y,z
1/2+x,-y,z
loop_
_atom_site_type_symbol
_atom_site_label
_atom_site_fract_x
_atom_site_fract_y
_atom_site_fract_z
Si Si1 0.135306 0.407025 0.135864
Si Si2 0.870622 0.484552 0.290682
Si Si3 0.370488 0.206908 0.192282
Si Si4 0.369596 0.675427 0.226437
O O1 0.138678 0.441122 0.274961
O O2 0.142400 0.367959 0.233788
O O3 0.000000 0.408136 0.047157
O O4 0.250000 0.409844 0.000000
O O5 0.872375 0.500000 0.500000
O O6 0.750000 0.500000 0.202854
O O7 0.000000 0.495168 0.209184
O O8 0.500000 0.199329 0.279846
O O9 0.361581 0.250000 0.160526
O O10 0.252005 0.193646 0.294940
O O11 0.372904 0.187046 0.992006
O O12 0.500000 0.686500 0.301185
#
# Coordination Sequence:
#
# PCOD9501101 Si02
#       4
#    16  16  16  16
#     4  10  19  30  47  70  95 123 157 202 249 291
#     4   9  19  36  54  70  90 120 158 199 245 297
#     4   9  15  22  34  53  81 121 161 191 224 270
#     4   9  15  23  35  54  82 115 153 191 230 272
#
# _framework density 21.608846
#
# number of rings (size 3 to 8) (size 9 to 14) (size 15 to 20)
#    0.000    2.750    2.500    1.500    0.000    3.000 
#    0.000    2.500    0.000    0.000    0.000    0.000 
#    0.000    0.000    0.000   18.000    0.000  186.000 
#
# Total GULP energy -178172.987417 kJ/mol
# GULP energy per Si atom -5567.905857 kJ/mol
# Density = 2.155966 g / cm^3
# Si number density = 21.608846 Si / 1000 Ang^3
#
#
#
# Elastic Constant Matrix: (Units=GPa)
#
#
# Indices 1 2 3 4 5 6 
#
# 1 264.7608 64.1297 13.9656 0.0000 0.0000 0.0000
# 2 64.1297 114.7026 13.3398 0.0000 0.0000 0.0000
# 3 13.9656 13.3398 69.3385 0.0000 0.0000 0.0000
# 4 0.0000 0.0000 0.0000 -360.2961 0.0000 0.0000
# 5 0.0000 0.0000 0.0000 0.0000 -20.2608 0.0000
# 6 0.0000 0.0000 0.0000 0.0000 0.0000 39.3714
#
#
#
# Elastic Compliance Matrix: (Units=1/GPa)
#
#
# Indices 1 2 3 4 5 6 
#
# 1 0.004381 -0.002400 -0.000421 0.000000 0.000000 0.000000
# 2 -0.002400 0.010233 -0.001485 0.000000 0.000000 0.000000
# 3 -0.000421 -0.001485 0.014792 0.000000 0.000000 0.000000
# 4 0.000000 0.000000 0.000000 -0.002775 0.000000 0.000000
# 5 0.000000 0.000000 0.000000 0.000000 -0.049356 0.000000
# 6 0.000000 0.000000 0.000000 0.000000 0.000000 0.025399
#
#
# Mechanical properties :
#
#
# Convention : Reuss Voigt Hill
#
# Bulk Modulus (GPa) = 48.09103 70.18578 59.13840
# Shear Modulus (GPa) = 274.47807 -44.41265 115.03271
#
# Velocity S-wave (km/s) = 11.28259 -4.53846 7.30408
# Velocity P-wave (km/s) = 13.85759 2.25547 9.92774
#
# Compressibility (1/GPa) = 0.02079390
#
# Stress axis : x y z
#
# Youngs Moduli (GPa) = 228.28149 97.72404 67.60208
#
# Poissons Ratio (x) = 0.23456 0.02843
# Poissons Ratio (y) = 0.54793 0.10040
# Poissons Ratio (z) = 0.09600 0.14514
#
# Static dielectric constant tensor:
#      x y z
#    x 1.899820 0.000000 0.000000 
#    y 0.000000 1.739660 0.000000 
#    z 0.000000 0.000000 1.730530 
# 
# From -- ./inp_files/6714.got.cif
#   From: 2010.05.17/outbox.cif.g08.bks.cpg/sg67_4_cif.got.tgz:6714.got - 2010.06.03 18:28:57.
