data_PCOD9501845
_publ_section_title
;
Structure prediction by ZEFSAII (Michael W. Deem and Ramdas Pophale) SiO2 
 PCOD9501845
Probable space group: C M M A
;
_chemical_formula_sum "Si O2"
_cell_formula_units_Z 68
_cell_length_a 7.641209
_cell_length_b 19.795909
_cell_length_c 20.805449
_cell_angle_alpha 90.000000
_cell_angle_beta 90.000000
_cell_angle_gamma 90.000000
_cell_volume 3147.129544
_symmetry_space_group_name_H-M "C M M A"
_symmetry_group_IT_number 67
_symmetry_cell_setting 'orthorhombic'
loop_
_space_group_symop_operation_xyz
x,y,z
-x,1/2-y,z
x,-y,-z
-x,1/2+y,-z
-x,-y,-z
x,1/2+y,-z
-x,y,z
x,1/2-y,z
1/2+x,1/2+y,z
1/2-x,-y,z
1/2+x,1/2-y,-z
1/2-x,y,-z
1/2-x,1/2-y,-z
1/2+x,y,-z
1/2-x,1/2+y,z
1/2+x,-y,z
loop_
_atom_site_type_symbol
_atom_site_label
_atom_site_fract_x
_atom_site_fract_y
_atom_site_fract_z
Si Si1 0.199089 0.633778 0.931885
Si Si2 0.706282 0.578159 0.574084
Si Si3 0.500000 0.750000 0.921752
Si Si4 0.714755 0.172390 0.311946
Si Si5 0.208364 0.074285 0.801275
O O1 0.344295 0.691533 0.921326
O O2 0.208312 0.585169 0.870787
O O3 0.000000 0.661013 0.937387
O O4 0.250000 0.600883 0.000000
O O5 0.500000 0.583311 0.579432
O O6 0.750000 0.500000 0.587591
O O7 0.750000 0.592961 0.500000
O O8 0.778988 0.630396 0.626169
O O9 0.500000 0.172836 0.312177
O O10 0.771390 0.250000 0.312134
O O11 0.768156 0.131872 0.248244
O O12 0.000000 0.080333 0.807881
O O13 0.250000 0.000000 0.775239
#
# Coordination Sequence:
#
# PCOD9501845 Si02
#       5
#    16  16   4  16  16
#     4  12  25  42  67 101 130 174 219 267 324 393
#     4  10  19  34  58  87 118 161 205 250 306 371
#     4  12  24  44  66 100 140 170 210 268 338 376
#     4   9  20  37  60  88 122 162 206 256 320 382
#     4  11  23  42  66  91 125 168 213 268 327 390
#
# _framework density 21.60699
#
# number of rings (size 3 to 8) (size 9 to 14) (size 15 to 20)
#    0.000    1.412    2.353    3.529    1.647    0.941 
#    0.000    5.882    0.000    7.765    0.000    0.000 
#    0.000    0.000    0.000    0.000    0.000    0.000 
#
# Total GULP energy -189484.782557 kJ/mol
# GULP energy per Si atom -5573.081840 kJ/mol
# Density = 2.155781 g / cm^3
# Si number density = 21.606990 Si / 1000 Ang^3
#
#
#
# Elastic Constant Matrix: (Units=GPa)
#
#
# Indices 1 2 3 4 5 6 
#
# 1 125.6677 13.7923 13.7213 0.0000 0.0000 0.0000
# 2 13.7923 142.5615 97.3153 0.0000 0.0000 0.0000
# 3 13.7213 97.3153 140.5849 0.0000 0.0000 0.0000
# 4 0.0000 0.0000 0.0000 113.4101 0.0000 0.0000
# 5 0.0000 0.0000 0.0000 0.0000 -22.3881 0.0000
# 6 0.0000 0.0000 0.0000 0.0000 0.0000 26.8819
#
#
#
# Elastic Compliance Matrix: (Units=1/GPa)
#
#
# Indices 1 2 3 4 5 6 
#
# 1 0.008059 -0.000460 -0.000468 0.000000 0.000000 0.000000
# 2 -0.000460 0.013324 -0.009179 0.000000 0.000000 0.000000
# 3 -0.000468 -0.009179 0.013512 0.000000 0.000000 0.000000
# 4 0.000000 0.000000 0.000000 0.008818 0.000000 0.000000
# 5 0.000000 0.000000 0.000000 0.000000 -0.044667 0.000000
# 6 0.000000 0.000000 0.000000 0.000000 0.000000 0.037200
#
#
# Mechanical properties :
#
#
# Convention : Reuss Voigt Hill
#
# Bulk Modulus (GPa) = 68.10857 73.16355 70.63606
# Shear Modulus (GPa) = 81.49381 42.51311 62.00346
#
# Velocity S-wave (km/s) = 6.14803 4.44053 5.36268
# Velocity P-wave (km/s) = 9.05471 7.76052 8.43248
#
# Compressibility (1/GPa) = 0.01468244
#
# Stress axis : x y z
#
# Youngs Moduli (GPa) = 124.08327 75.04976 74.00631
#
# Poissons Ratio (x) = 0.03454 0.03464
# Poissons Ratio (y) = 0.05710 0.67927
# Poissons Ratio (z) = 0.05807 0.68885
#
# Static dielectric constant tensor:
#      x y z
#    x 1.856810 0.000000 0.000000 
#    y 0.000000 1.772950 0.000000 
#    z 0.000000 0.000000 1.834550 
# 
# From -- ./inp_files/31807.got.cif
#   From: 2010.05.17/outbox.cif.g08.bks.cpg/sg67_16_cif.got.tgz:31807.got - 2010.06.03 18:28:57.
