data_PCOD9501060
_publ_section_title
;
Structure prediction by ZEFSAII (Michael W. Deem and Ramdas Pophale) SiO2 
 PCOD9501060
Probable space group: C M M A
;
_chemical_formula_sum "Si O2"
_cell_formula_units_Z 112
_cell_length_a 20.364501
_cell_length_b 28.135040
_cell_length_c 10.385111
_cell_angle_alpha 90.000000
_cell_angle_beta 90.000000
_cell_angle_gamma 90.000000
_cell_volume 5950.212180
_symmetry_space_group_name_H-M "C M M A"
_symmetry_group_IT_number 67
_symmetry_cell_setting 'orthorhombic'
loop_
_space_group_symop_operation_xyz
x,y,z
-x,1/2-y,z
x,-y,-z
-x,1/2+y,-z
-x,-y,-z
x,1/2+y,-z
-x,y,z
x,1/2-y,z
1/2+x,1/2+y,z
1/2-x,-y,z
1/2+x,1/2-y,-z
1/2-x,y,-z
1/2-x,1/2-y,-z
1/2+x,y,-z
1/2-x,1/2+y,z
1/2+x,-y,z
loop_
_atom_site_type_symbol
_atom_site_label
_atom_site_fract_x
_atom_site_fract_y
_atom_site_fract_z
Si Si1 0.920344 0.068681 0.762337
Si Si2 0.672973 0.305916 0.032866
Si Si3 0.215448 0.805350 0.302732
Si Si4 0.421221 0.885687 0.039616
Si Si5 0.921759 0.894734 0.510168
Si Si6 0.079792 0.460354 0.263875
Si Si7 0.151382 0.194524 0.413981
O O1 0.906405 0.091023 0.900692
O O2 0.896881 0.097164 0.635494
O O3 0.000000 0.067723 0.754949
O O4 0.896929 0.014093 0.755580
O O5 0.656656 0.250000 0.018214
O O6 0.671779 0.321366 0.183553
O O7 0.623036 0.338528 0.953926
O O8 0.750000 0.311996 0.000000
O O9 0.227357 0.750000 0.271946
O O10 0.180568 0.806157 0.440504
O O11 0.289263 0.823923 0.323383
O O12 0.500000 0.875807 0.047170
O O13 0.404217 0.924139 0.148821
O O14 0.897675 0.937006 0.602520
O O15 0.904363 0.844792 0.577013
O O16 0.000000 0.897811 0.504801
O O17 0.000000 0.462526 0.267328
O O18 0.134672 0.250000 0.385328
#
# Coordination Sequence:
#
# PCOD9501060 Si02
#       7
#    16  16  16  16  16  16  16
#     4   9  17  32  53  75 102 136 175 220 264 313
#     4  10  21  35  53  77 107 142 179 212 253 318
#     4   8  16  32  50  69  91 128 179 215 244 296
#     4  10  20  34  55  82 106 135 177 220 268 314
#     4  10  19  29  47  78 107 134 170 210 262 317
#     4   9  18  32  50  75 106 136 171 216 263 316
#     4   9  17  30  50  72 100 133 171 217 257 305
#
# _framework density 18.822858
#
# number of rings (size 3 to 8) (size 9 to 14) (size 15 to 20)
#    0.000    2.714    0.000    2.571    2.000    4.000 
#    0.000    0.000    0.000    9.429    0.000    4.000 
#    0.000    0.000    0.000    0.000    0.000    0.000 
#
# Total GULP energy -311823.814011 kJ/mol
# GULP energy per Si atom -5568.282393 kJ/mol
# Density = 1.878002 g / cm^3
# Si number density = 18.822858 Si / 1000 Ang^3
#
#
#
# Elastic Constant Matrix: (Units=GPa)
#
#
# Indices 1 2 3 4 5 6 
#
# 1 18.6962 24.8808 7.8685 0.0000 0.0000 0.0000
# 2 24.8808 90.3658 8.4065 0.0000 0.0000 0.0000
# 3 7.8685 8.4065 34.1043 0.0000 0.0000 0.0000
# 4 0.0000 0.0000 0.0000 25.4560 0.0000 0.0000
# 5 0.0000 0.0000 0.0000 0.0000 19.1226 0.0000
# 6 0.0000 0.0000 0.0000 0.0000 0.0000 -8.8544
#
#
#
# Elastic Compliance Matrix: (Units=1/GPa)
#
#
# Indices 1 2 3 4 5 6 
#
# 1 0.091576 -0.023794 -0.015263 0.000000 0.000000 0.000000
# 2 -0.023794 0.017508 0.001174 0.000000 0.000000 0.000000
# 3 -0.015263 0.001174 0.032554 0.000000 0.000000 0.000000
# 4 0.000000 0.000000 0.000000 0.039284 0.000000 0.000000
# 5 0.000000 0.000000 0.000000 0.000000 0.052294 0.000000
# 6 0.000000 0.000000 0.000000 0.000000 0.000000 -0.112938
#
#
# Mechanical properties :
#
#
# Convention : Reuss Voigt Hill
#
# Bulk Modulus (GPa) = 15.18108 25.05310 20.11709
# Shear Modulus (GPa) = 22.93570 13.94552 18.44061
#
# Velocity S-wave (km/s) = 3.49449 2.72487 3.13340
# Velocity P-wave (km/s) = 4.93606 4.82065 4.87870
#
# Compressibility (1/GPa) = 0.06587145
#
# Stress axis : x y z
#
# Youngs Moduli (GPa) = 10.91995 57.11593 30.71826
#
# Poissons Ratio (x) = 1.35902 0.46886
# Poissons Ratio (y) = 0.25983 -0.03607
# Poissons Ratio (z) = 0.16667 -0.06706
#
# Static dielectric constant tensor:
#      x y z
#    x 1.641410 0.000000 0.000000 
#    y 0.000000 1.653270 0.000000 
#    z 0.000000 0.000000 1.731960 
# 
# From -- ./inp_files/21068.got.cif
#   From: 2010.05.17/outbox.cif.g08.bks.cpg/sg67_11_cif.got.tgz:21068.got - 2010.06.03 18:28:57.
