data_PCOD9501190
_publ_section_title
;
Structure prediction by ZEFSAII (Michael W. Deem and Ramdas Pophale) SiO2 
 PCOD9501190
Probable space group: C M M A
;
_chemical_formula_sum "Si O2"
_cell_formula_units_Z 112
_cell_length_a 25.224807
_cell_length_b 16.537294
_cell_length_c 15.735519
_cell_angle_alpha 90.000000
_cell_angle_beta 90.000000
_cell_angle_gamma 90.000000
_cell_volume 6564.072529
_symmetry_space_group_name_H-M "C M M A"
_symmetry_group_IT_number 67
_symmetry_cell_setting 'orthorhombic'
loop_
_space_group_symop_operation_xyz
x,y,z
-x,1/2-y,z
x,-y,-z
-x,1/2+y,-z
-x,-y,-z
x,1/2+y,-z
-x,y,z
x,1/2-y,z
1/2+x,1/2+y,z
1/2-x,-y,z
1/2+x,1/2-y,-z
1/2-x,y,-z
1/2-x,1/2-y,-z
1/2+x,y,-z
1/2-x,1/2+y,z
1/2+x,-y,z
loop_
_atom_site_type_symbol
_atom_site_label
_atom_site_fract_x
_atom_site_fract_y
_atom_site_fract_z
Si Si1 0.872263 0.157785 0.809187
Si Si2 0.439510 0.892240 0.650244
Si Si3 0.776784 0.848650 0.305024
Si Si4 0.160923 0.152469 0.339696
Si Si5 0.153674 0.347990 0.534609
Si Si6 0.438853 0.031065 0.095112
Si Si7 0.440498 0.067761 0.736071
O O1 0.866175 0.250000 0.837743
O O2 0.912093 0.155031 0.728226
O O3 0.816897 0.126410 0.769573
O O4 0.897983 0.100550 0.879034
O O5 0.500000 0.867222 0.636853
O O6 0.402560 0.878524 0.569392
O O7 0.438964 0.985232 0.680764
O O8 0.777579 0.750000 0.304753
O O9 0.716203 0.875306 0.297723
O O10 0.802491 0.873396 0.395598
O O11 0.160518 0.250000 0.338958
O O12 0.162951 0.125863 0.438349
O O13 0.108152 0.121180 0.294850
O O14 0.153261 0.250000 0.535350
O O15 0.500000 0.060776 0.103532
O O16 0.433553 0.961334 0.166501
O O17 0.431347 0.000000 0.000000
O O18 0.500000 0.102869 0.726711
#
# Coordination Sequence:
#
# PCOD9501190 Si02
#       7
#    16  16  16  16  16  16  16
#     4   9  16  28  50  77  99 120 154 197 235 277
#     4   9  17  29  44  64  95 129 156 193 245 283
#     4   8  15  29  48  69  93 122 157 200 245 275
#     4  10  19  31  48  66  90 128 166 197 230 274
#     4   9  17  28  44  68  94 122 161 201 231 270
#     4   9  18  34  54  74  99 127 150 181 233 287
#     4   9  19  34  49  66  90 122 158 195 238 287
#
# _framework density 17.062577999999998
#
# number of rings (size 3 to 8) (size 9 to 14) (size 15 to 20)
#    0.000    3.000    0.000    3.000    0.000    5.143 
#    0.000   10.000    0.000    9.429    0.000    3.000 
#    0.000    0.000    0.000    0.000    0.000    0.000 
#
# Total GULP energy -312055.307259 kJ/mol
# GULP energy per Si atom -5572.416201 kJ/mol
# Density = 1.702374 g / cm^3
# Si number density = 17.062578 Si / 1000 Ang^3
#
#
#
# Elastic Constant Matrix: (Units=GPa)
#
#
# Indices 1 2 3 4 5 6 
#
# 1 146.7100 32.3051 57.3944 0.0000 0.0000 0.0000
# 2 32.3051 17.4749 27.2986 0.0000 0.0000 0.0000
# 3 57.3944 27.2986 78.9931 0.0000 0.0000 0.0000
# 4 0.0000 0.0000 0.0000 14.4266 0.0000 0.0000
# 5 0.0000 0.0000 0.0000 0.0000 19.3222 0.0000
# 6 0.0000 0.0000 0.0000 0.0000 0.0000 36.5772
#
#
#
# Elastic Compliance Matrix: (Units=1/GPa)
#
#
# Indices 1 2 3 4 5 6 
#
# 1 0.011673 -0.018103 -0.002225 0.000000 0.000000 0.000000
# 2 -0.018103 0.152438 -0.039527 0.000000 0.000000 0.000000
# 3 -0.002225 -0.039527 0.027936 0.000000 0.000000 0.000000
# 4 0.000000 0.000000 0.000000 0.069316 0.000000 0.000000
# 5 0.000000 0.000000 0.000000 0.000000 0.051754 0.000000
# 6 0.000000 0.000000 0.000000 0.000000 0.000000 0.027339
#
#
# Mechanical properties :
#
#
# Convention : Reuss Voigt Hill
#
# Bulk Modulus (GPa) = 13.82419 53.01937 33.42178
# Shear Modulus (GPa) = 10.32464 22.47721 16.40092
#
# Velocity S-wave (km/s) = 2.46256 3.63345 3.10372
# Velocity P-wave (km/s) = 4.02557 6.98166 5.69863
#
# Compressibility (1/GPa) = 0.07233697
#
# Stress axis : x y z
#
# Youngs Moduli (GPa) = 85.66842 6.56004 35.79646
#
# Poissons Ratio (x) = 0.11876 0.07965
# Poissons Ratio (y) = 1.55087 1.41491
# Poissons Ratio (z) = 0.19062 0.25930
#
# Static dielectric constant tensor:
#      x y z
#    x 1.593730 0.000000 0.000000 
#    y 0.000000 1.595020 0.000000 
#    z 0.000000 0.000000 1.556800 
# 
# From -- ./inp_files/30782.got.cif
#   From: 2010.05.17/outbox.cif.g08.bks.cpg/sg67_16_cif.got.tgz:30782.got - 2010.06.03 18:28:57.
