data_PCOD9501360
_publ_section_title
;
Structure prediction by ZEFSAII (Michael W. Deem and Ramdas Pophale) SiO2 
 PCOD9501360
Probable space group: C M M A
;
_chemical_formula_sum "Si O2"
_cell_formula_units_Z 80
_cell_length_a 19.837068
_cell_length_b 8.656596
_cell_length_c 26.913186
_cell_angle_alpha 90.000000
_cell_angle_beta 90.000000
_cell_angle_gamma 90.000000
_cell_volume 4621.572226
_symmetry_space_group_name_H-M "C M M A"
_symmetry_group_IT_number 67
_symmetry_cell_setting 'orthorhombic'
loop_
_space_group_symop_operation_xyz
x,y,z
-x,1/2-y,z
x,-y,-z
-x,1/2+y,-z
-x,-y,-z
x,1/2+y,-z
-x,y,z
x,1/2-y,z
1/2+x,1/2+y,z
1/2-x,-y,z
1/2+x,1/2-y,-z
1/2-x,y,-z
1/2-x,1/2-y,-z
1/2+x,y,-z
1/2-x,1/2+y,z
1/2+x,-y,z
loop_
_atom_site_type_symbol
_atom_site_label
_atom_site_fract_x
_atom_site_fract_y
_atom_site_fract_z
Si Si1 0.325179 0.436031 0.749907
Si Si2 0.922101 0.438837 0.339726
Si Si3 0.422224 0.936213 0.946570
Si Si4 0.581990 0.571086 0.448332
Si Si5 0.825187 0.436028 0.856896
O O1 0.322979 0.250000 0.751868
O O2 0.250000 0.500000 0.741462
O O3 0.374454 0.485011 0.705436
O O4 0.347940 0.499771 0.803429
O O5 0.922073 0.250000 0.341601
O O6 0.898130 0.494322 0.394339
O O7 0.000000 0.485757 0.332157
O O8 0.500000 0.985457 0.938690
O O9 0.421208 0.750000 0.948596
O O10 0.374556 0.984451 0.901339
O O11 0.399952 0.000000 0.000000
O O12 0.606129 0.500000 0.500000
O O13 0.500000 0.562164 0.448301
O O14 0.600790 0.750000 0.449202
O O15 0.822842 0.250000 0.854726
O O16 0.750000 0.500000 0.865517
#
# Coordination Sequence:
#
# PCOD9501360 Si02
#       5
#    16  16  16  16  16
#     4  10  19  32  50  69  92 123 157 191 230 276
#     4   8  15  28  46  68  92 119 153 191 229 272
#     4   9  19  35  53  73  98 127 156 188 229 274
#     4   8  13  23  40  62  88 115 144 182 227 271
#     4  10  20  34  51  71  96 124 156 193 231 272
#
# _framework density 17.310127000000001
#
# number of rings (size 3 to 8) (size 9 to 14) (size 15 to 20)
#    0.000    3.000    0.000    3.600    0.000    2.800 
#    0.000    4.000    0.000    4.800    0.000    4.200 
#    0.000    0.000    0.000    0.000    0.000    0.000 
#
# Total GULP energy -222791.662665 kJ/mol
# GULP energy per Si atom -5569.791567 kJ/mol
# Density = 1.727073 g / cm^3
# Si number density = 17.310127 Si / 1000 Ang^3
#
#
#
# Elastic Constant Matrix: (Units=GPa)
#
#
# Indices 1 2 3 4 5 6 
#
# 1 56.1540 19.0491 96.9253 0.0000 0.0000 0.0000
# 2 19.0491 29.1198 41.7274 0.0000 0.0000 0.0000
# 3 96.9253 41.7274 224.5724 0.0000 0.0000 0.0000
# 4 0.0000 0.0000 0.0000 26.6796 0.0000 0.0000
# 5 0.0000 0.0000 0.0000 0.0000 -34.8308 0.0000
# 6 0.0000 0.0000 0.0000 0.0000 0.0000 14.4270
#
#
#
# Elastic Compliance Matrix: (Units=1/GPa)
#
#
# Indices 1 2 3 4 5 6 
#
# 1 0.070074 -0.003409 -0.029611 0.000000 0.000000 0.000000
# 2 -0.003409 0.046968 -0.007256 0.000000 0.000000 0.000000
# 3 -0.029611 -0.007256 0.018581 0.000000 0.000000 0.000000
# 4 0.000000 0.000000 0.000000 0.037482 0.000000 0.000000
# 5 0.000000 0.000000 0.000000 0.000000 -0.028710 0.000000
# 6 0.000000 0.000000 0.000000 0.000000 0.000000 0.069315
#
#
# Mechanical properties :
#
#
# Convention : Reuss Voigt Hill
#
# Bulk Modulus (GPa) = 18.15789 69.47217 43.81503
# Shear Modulus (GPa) = 15.99395 11.39812 13.69603
#
# Velocity S-wave (km/s) = 3.04298 2.56884 2.81591
# Velocity P-wave (km/s) = 4.78109 7.00140 5.99493
#
# Compressibility (1/GPa) = 0.05507248
#
# Stress axis : x y z
#
# Youngs Moduli (GPa) = 14.27055 21.29102 53.81858
#
# Poissons Ratio (x) = 0.07259 1.59360
# Poissons Ratio (y) = 0.04865 0.39049
# Poissons Ratio (z) = 0.42256 0.15448
#
# Static dielectric constant tensor:
#      x y z
#    x 1.568490 0.000000 0.000000 
#    y 0.000000 1.597570 0.000000 
#    z 0.000000 0.000000 1.605250 
# 
# From -- ./inp_files/44420.got.cif
#   From: 2010.05.17/outbox.cif.g08.bks.cpg/sg67_23_cif.got.tgz:44420.got - 2010.06.03 18:28:57.
