data_PCOD9501448
_publ_section_title
;
Structure prediction by ZEFSAII (Michael W. Deem and Ramdas Pophale) SiO2 
 PCOD9501448
Probable space group: C M M A
;
_chemical_formula_sum "Si O2"
_cell_formula_units_Z 80
_cell_length_a 10.094098
_cell_length_b 15.071005
_cell_length_c 25.013216
_cell_angle_alpha 90.000000
_cell_angle_beta 90.000000
_cell_angle_gamma 90.000000
_cell_volume 3805.215562
_symmetry_space_group_name_H-M "C M M A"
_symmetry_group_IT_number 67
_symmetry_cell_setting 'orthorhombic'
loop_
_space_group_symop_operation_xyz
x,y,z
-x,1/2-y,z
x,-y,-z
-x,1/2+y,-z
-x,-y,-z
x,1/2+y,-z
-x,y,z
x,1/2-y,z
1/2+x,1/2+y,z
1/2-x,-y,z
1/2+x,1/2-y,-z
1/2-x,y,-z
1/2-x,1/2-y,-z
1/2+x,y,-z
1/2-x,1/2+y,z
1/2+x,-y,z
loop_
_atom_site_type_symbol
_atom_site_label
_atom_site_fract_x
_atom_site_fract_y
_atom_site_fract_z
Si Si1 0.837876 0.590649 0.452899
Si Si2 0.351026 0.355344 0.753669
Si Si3 0.745702 0.107028 0.870843
Si Si4 0.500000 0.391926 0.941528
Si Si5 0.000000 0.890923 0.064276
Si Si6 0.854110 0.144878 0.668252
O O1 0.750000 0.500000 0.446534
O O2 0.750000 0.636383 0.500000
O O3 0.830384 0.634459 0.394851
O O4 0.000000 0.581877 0.464438
O O5 0.500000 0.393298 0.757006
O O6 0.364640 0.250000 0.744757
O O7 0.277036 0.366309 0.809953
O O8 0.262205 0.392040 0.705391
O O9 0.625616 0.137322 0.907847
O O10 0.875487 0.137803 0.901149
O O11 0.750000 0.000000 0.870914
O O12 0.500000 0.500532 0.940072
O O13 0.500000 0.361951 0.002742
O O14 0.860700 0.250000 0.679289
O O15 0.000000 0.106373 0.680365
#
# Coordination Sequence:
#
# PCOD9501448 Si02
#       6
#    16  16  16   8   8  16
#     4  10  20  35  56  83 114 147 177 214 262 310
#     4  10  21  37  55  74 103 142 177 214 263 314
#     4  10  19  32  51  78 103 131 173 217 260 312
#     4   9  16  32  49  73 107 133 166 215 258 311
#     4   9  18  28  51  77 101 135 168 209 266 311
#     4   9  20  38  57  78 104 138 182 224 261 305
#
# _framework density 21.023776000000002
#
# number of rings (size 3 to 8) (size 9 to 14) (size 15 to 20)
#    0.000    2.400    1.000    1.800    1.400    5.200 
#    0.000    2.000    0.000    3.600    0.000    0.000 
#    0.000    0.000    0.000    0.000    0.000    0.000 
#
# Total GULP energy -222925.039718 kJ/mol
# GULP energy per Si atom -5573.125993 kJ/mol
# Density = 2.097592 g / cm^3
# Si number density = 21.023776 Si / 1000 Ang^3
#
#
#
# Elastic Constant Matrix: (Units=GPa)
#
#
# Indices 1 2 3 4 5 6 
#
# 1 202.2749 8.1577 109.8440 0.0000 0.0000 0.0000
# 2 8.1577 34.8924 -4.6417 0.0000 0.0000 0.0000
# 3 109.8440 -4.6417 178.3621 0.0000 0.0000 0.0000
# 4 0.0000 0.0000 0.0000 31.3614 0.0000 0.0000
# 5 0.0000 0.0000 0.0000 0.0000 34.5992 0.0000
# 6 0.0000 0.0000 0.0000 0.0000 0.0000 9.0678
#
#
#
# Elastic Compliance Matrix: (Units=1/GPa)
#
#
# Indices 1 2 3 4 5 6 
#
# 1 0.007626 -0.002416 -0.004759 0.000000 0.000000 0.000000
# 2 -0.002416 0.029525 0.002256 0.000000 0.000000 0.000000
# 3 -0.004759 0.002256 0.008596 0.000000 0.000000 0.000000
# 4 0.000000 0.000000 0.000000 0.031886 0.000000 0.000000
# 5 0.000000 0.000000 0.000000 0.000000 0.028902 0.000000
# 6 0.000000 0.000000 0.000000 0.000000 0.000000 0.110280
#
#
# Mechanical properties :
#
#
# Convention : Reuss Voigt Hill
#
# Bulk Modulus (GPa) = 27.84843 71.36104 49.60473
# Shear Modulus (GPa) = 20.95364 35.15031 28.05197
#
# Velocity S-wave (km/s) = 3.16042 4.09336 3.65677
# Velocity P-wave (km/s) = 5.15680 7.50716 6.44011
#
# Compressibility (1/GPa) = 0.03590866
#
# Stress axis : x y z
#
# Youngs Moduli (GPa) = 131.13740 33.87012 116.33099
#
# Poissons Ratio (x) = 0.08183 0.55363
# Poissons Ratio (y) = 0.31682 -0.26247
# Poissons Ratio (z) = 0.62409 -0.07642
#
# Static dielectric constant tensor:
#      x y z
#    x 1.754460 0.000000 0.000000 
#    y 0.000000 1.807400 0.000000 
#    z 0.000000 0.000000 1.720040 
# 
# From -- ./inp_files/40609.got.cif
#   From: 2010.05.17/outbox.cif.g08.bks.cpg/sg67_21_cif.got.tgz:40609.got - 2010.06.03 18:28:57.
