data_PCOD9501541
_publ_section_title
;
Structure prediction by ZEFSAII (Michael W. Deem and Ramdas Pophale) SiO2 
 PCOD9501541
Probable space group: C M M A
;
_chemical_formula_sum "Si O2"
_cell_formula_units_Z 120
_cell_length_a 27.036775
_cell_length_b 8.591861
_cell_length_c 27.652594
_cell_angle_alpha 90.000000
_cell_angle_beta 90.000000
_cell_angle_gamma 90.000000
_cell_volume 6423.592857
_symmetry_space_group_name_H-M "C M M A"
_symmetry_group_IT_number 67
_symmetry_cell_setting 'orthorhombic'
loop_
_space_group_symop_operation_xyz
x,y,z
-x,1/2-y,z
x,-y,-z
-x,1/2+y,-z
-x,-y,-z
x,1/2+y,-z
-x,y,z
x,1/2-y,z
1/2+x,1/2+y,z
1/2-x,-y,z
1/2+x,1/2-y,-z
1/2-x,y,-z
1/2-x,1/2-y,-z
1/2+x,y,-z
1/2-x,1/2+y,z
1/2+x,-y,z
loop_
_atom_site_type_symbol
_atom_site_label
_atom_site_fract_x
_atom_site_fract_y
_atom_site_fract_z
Si Si1 0.556667 0.430893 0.725143
Si Si2 0.305326 0.937363 0.661179
Si Si3 0.798674 0.569040 0.851824
Si Si4 0.500000 0.561940 0.445416
Si Si5 0.947972 0.561977 0.054874
Si Si6 0.649868 0.430739 0.234715
Si Si7 0.086924 0.938678 0.377449
Si Si8 0.839484 0.935277 0.053729
O O1 0.500000 0.443982 0.739849
O O2 0.572131 0.250000 0.730197
O O3 0.592665 0.544634 0.753426
O O4 0.562920 0.483143 0.669791
O O5 0.302664 0.750000 0.660442
O O6 0.321007 0.982956 0.716410
O O7 0.353637 0.978975 0.627469
O O8 0.250000 0.000000 0.649570
O O9 0.794558 0.750000 0.859638
O O10 0.750000 0.500000 0.827439
O O11 0.839940 0.527378 0.813193
O O12 0.804653 0.488343 0.903499
O O13 0.500000 0.750000 0.443049
O O14 0.500000 0.500000 0.500000
O O15 0.550638 0.498362 0.419930
O O16 0.947650 0.750000 0.054419
O O17 0.894160 0.510718 0.071852
O O18 0.000000 0.511245 0.078283
O O19 0.949218 0.500000 0.000000
O O20 0.661704 0.250000 0.226121
O O21 0.084074 0.750000 0.375163
O O22 0.838907 0.750000 0.049830
O O23 0.829749 0.000000 0.000000
#
# Coordination Sequence:
#
# PCOD9501541 Si02
#       8
#    16  16  16   8  16  16  16  16
#     4  10  19  32  54  85 119 154 193 235 282 337
#     4   9  19  33  54  84 115 149 189 235 287 343
#     4  12  25  41  59  78 103 136 175 222 276 334
#     4  12  24  38  58  86 118 158 204 254 309 360
#     4   8  14  26  47  74 101 127 155 190 234 286
#     4  10  21  37  56  81 112 149 188 227 280 339
#     4  10  20  35  55  82 118 158 201 249 299 352
#     4  10  20  36  57  81 107 135 172 216 263 318
#
# _framework density 18.681135000000001
#
# number of rings (size 3 to 8) (size 9 to 14) (size 15 to 20)
#    0.000    2.000    0.667    4.600    0.000    5.867 
#    0.000    2.000    0.000    2.800    0.000    2.800 
#    0.000    0.000    0.000    0.000    0.000    0.000 
#
# Total GULP energy -334183.895528 kJ/mol
# GULP energy per Si atom -5569.731592 kJ/mol
# Density = 1.863862 g / cm^3
# Si number density = 18.681135 Si / 1000 Ang^3
#
#
#
# Elastic Constant Matrix: (Units=GPa)
#
#
# Indices 1 2 3 4 5 6 
#
# 1 104.6042 16.2671 31.4256 0.0000 0.0000 0.0000
# 2 16.2671 51.5511 17.2762 0.0000 0.0000 0.0000
# 3 31.4256 17.2762 71.5786 0.0000 0.0000 0.0000
# 4 0.0000 0.0000 0.0000 22.8790 0.0000 0.0000
# 5 0.0000 0.0000 0.0000 0.0000 20.0194 0.0000
# 6 0.0000 0.0000 0.0000 0.0000 0.0000 28.8187
#
#
#
# Elastic Compliance Matrix: (Units=1/GPa)
#
#
# Indices 1 2 3 4 5 6 
#
# 1 0.011209 -0.002054 -0.004425 0.000000 0.000000 0.000000
# 2 -0.002054 0.021482 -0.004283 0.000000 0.000000 0.000000
# 3 -0.004425 -0.004283 0.016947 0.000000 0.000000 0.000000
# 4 0.000000 0.000000 0.000000 0.043708 0.000000 0.000000
# 5 0.000000 0.000000 0.000000 0.000000 0.049952 0.000000
# 6 0.000000 0.000000 0.000000 0.000000 0.000000 0.034700
#
#
# Mechanical properties :
#
#
# Convention : Reuss Voigt Hill
#
# Bulk Modulus (GPa) = 35.57054 39.74129 37.65592
# Shear Modulus (GPa) = 23.93571 25.19442 24.56506
#
# Velocity S-wave (km/s) = 3.58338 3.67639 3.63018
# Velocity P-wave (km/s) = 6.01689 6.27222 6.14588
#
# Compressibility (1/GPa) = 0.02811315
#
# Stress axis : x y z
#
# Youngs Moduli (GPa) = 89.21628 46.55117 59.00646
#
# Poissons Ratio (x) = 0.09561 0.26112
# Poissons Ratio (y) = 0.18324 0.25273
# Poissons Ratio (z) = 0.39481 0.19938
#
# Static dielectric constant tensor:
#      x y z
#    x 1.781450 0.000000 0.000000 
#    y 0.000000 1.636980 0.000000 
#    z 0.000000 0.000000 1.612870 
# 
# From -- ./inp_files/45043.got.cif
#   From: 2010.05.17/outbox.cif.g08.bks.cpg/sg67_23_cif.got.tgz:45043.got - 2010.06.03 18:28:57.
