data_PCOD9501342
_publ_section_title
;
Structure prediction by ZEFSAII (Michael W. Deem and Ramdas Pophale) SiO2 
 PCOD9501342
Probable space group: C M M A
;
_chemical_formula_sum "Si O2"
_cell_formula_units_Z 96
_cell_length_a 28.173760
_cell_length_b 8.513615
_cell_length_c 25.072901
_cell_angle_alpha 90.000000
_cell_angle_beta 90.000000
_cell_angle_gamma 90.000000
_cell_volume 6013.999717
_symmetry_space_group_name_H-M "C M M A"
_symmetry_group_IT_number 67
_symmetry_cell_setting 'orthorhombic'
loop_
_space_group_symop_operation_xyz
x,y,z
-x,1/2-y,z
x,-y,-z
-x,1/2+y,-z
-x,-y,-z
x,1/2+y,-z
-x,y,z
x,1/2-y,z
1/2+x,1/2+y,z
1/2-x,-y,z
1/2+x,1/2-y,-z
1/2-x,y,-z
1/2-x,1/2-y,-z
1/2+x,y,-z
1/2-x,1/2+y,z
1/2+x,-y,z
loop_
_atom_site_type_symbol
_atom_site_label
_atom_site_fract_x
_atom_site_fract_y
_atom_site_fract_z
Si Si1 0.197635 0.561504 0.388455
Si Si2 0.695824 0.562267 0.945143
Si Si3 0.053351 0.559948 0.337592
Si Si4 0.853007 0.059033 0.720659
Si Si5 0.303944 0.940140 0.828137
Si Si6 0.396072 0.436867 0.558031
O O1 0.196602 0.750000 0.391635
O O2 0.250000 0.500000 0.400255
O O3 0.181785 0.514768 0.328199
O O4 0.156982 0.494222 0.426822
O O5 0.696784 0.750000 0.947951
O O6 0.750000 0.500000 0.944597
O O7 0.676622 0.514314 0.886854
O O8 0.673316 0.500000 0.000000
O O9 0.053912 0.750000 0.337994
O O10 0.094276 0.507473 0.296451
O O11 0.070060 0.503069 0.395642
O O12 0.000000 0.507337 0.325344
O O13 0.853355 0.250000 0.722174
O O14 0.834194 0.003353 0.777635
O O15 0.302612 0.750000 0.826873
O O16 0.250000 0.000000 0.823114
O O17 0.409201 0.500000 0.500000
O O18 0.397481 0.250000 0.558554
#
# Coordination Sequence:
#
# PCOD9501342 Si02
#       6
#    16  16  16  16  16  16
#     4  10  19  32  49  69  93 121 150 179 215 257
#     4   9  15  22  33  49  74 109 146 180 210 242
#     4   9  18  34  54  72  90 113 139 172 219 269
#     4   8  15  28  45  65  89 113 141 177 214 257
#     4   9  16  25  38  58  84 115 147 177 210 247
#     4  11  22  36  52  70  92 116 145 180 215 255
#
# _framework density 15.962754
#
# number of rings (size 3 to 8) (size 9 to 14) (size 15 to 20)
#    0.000    2.667    0.000    4.500    0.000    1.667 
#    0.000    5.000    0.000    0.000    0.000    0.000 
#    0.000    0.667    0.000    0.500    0.000    1.333 
#
# Total GULP energy -267451.628792 kJ/mol
# GULP energy per Si atom -5571.908933 kJ/mol
# Density = 1.592642 g / cm^3
# Si number density = 15.962754 Si / 1000 Ang^3
#
#
#
# Elastic Constant Matrix: (Units=GPa)
#
#
# Indices 1 2 3 4 5 6 
#
# 1 69.6437 7.5319 28.6617 0.0000 0.0000 0.0000
# 2 7.5319 23.7100 11.7942 0.0000 0.0000 0.0000
# 3 28.6617 11.7942 125.2865 0.0000 0.0000 0.0000
# 4 0.0000 0.0000 0.0000 113.5597 0.0000 0.0000
# 5 0.0000 0.0000 0.0000 0.0000 11.0332 0.0000
# 6 0.0000 0.0000 0.0000 0.0000 0.0000 14.7950
#
#
#
# Elastic Compliance Matrix: (Units=1/GPa)
#
#
# Indices 1 2 3 4 5 6 
#
# 1 0.016115 -0.003447 -0.003362 0.000000 0.000000 0.000000
# 2 -0.003447 0.044986 -0.003446 0.000000 0.000000 0.000000
# 3 -0.003362 -0.003446 0.009075 0.000000 0.000000 0.000000
# 4 0.000000 0.000000 0.000000 0.008806 0.000000 0.000000
# 5 0.000000 0.000000 0.000000 0.000000 0.090636 0.000000
# 6 0.000000 0.000000 0.000000 0.000000 0.000000 0.067590
#
#
# Mechanical properties :
#
#
# Convention : Reuss Voigt Hill
#
# Bulk Modulus (GPa) = 20.13471 34.95731 27.54601
# Shear Modulus (GPa) = 18.22994 39.25439 28.74217
#
# Velocity S-wave (km/s) = 3.38306 4.96434 4.24792
# Velocity P-wave (km/s) = 5.28215 7.40313 6.43068
#
# Compressibility (1/GPa) = 0.04966549
#
# Stress axis : x y z
#
# Youngs Moduli (GPa) = 62.05289 22.22934 110.18918
#
# Poissons Ratio (x) = 0.07662 0.37048
# Poissons Ratio (y) = 0.21389 0.37975
# Poissons Ratio (z) = 0.20863 0.07661
#
# Static dielectric constant tensor:
#      x y z
#    x 1.513200 0.000000 0.000000 
#    y 0.000000 1.541700 0.000000 
#    z 0.000000 0.000000 1.570290 
# 
# From -- ./inp_files/42702.got.cif
#   From: 2010.05.17/outbox.cif.g08.bks.cpg/sg67_22_cif.got.tgz:42702.got - 2010.06.03 18:28:57.
