data_PCOD9501650
_publ_section_title
;
Structure prediction by ZEFSAII (Michael W. Deem and Ramdas Pophale) SiO2 
 PCOD9501650
Probable space group: C M M A
;
_chemical_formula_sum "Si O2"
_cell_formula_units_Z 96
_cell_length_a 8.594432
_cell_length_b 19.013566
_cell_length_c 31.824687
_cell_angle_alpha 90.000000
_cell_angle_beta 90.000000
_cell_angle_gamma 90.000000
_cell_volume 5200.497564
_symmetry_space_group_name_H-M "C M M A"
_symmetry_group_IT_number 67
_symmetry_cell_setting 'orthorhombic'
loop_
_space_group_symop_operation_xyz
x,y,z
-x,1/2-y,z
x,-y,-z
-x,1/2+y,-z
-x,-y,-z
x,1/2+y,-z
-x,y,z
x,1/2-y,z
1/2+x,1/2+y,z
1/2-x,-y,z
1/2+x,1/2-y,-z
1/2-x,y,-z
1/2-x,1/2-y,-z
1/2+x,y,-z
1/2-x,1/2+y,z
1/2+x,-y,z
loop_
_atom_site_type_symbol
_atom_site_label
_atom_site_fract_x
_atom_site_fract_y
_atom_site_fract_z
Si Si1 0.185182 0.578708 0.622410
Si Si2 0.187009 0.579056 0.287517
Si Si3 0.812299 0.668684 0.045652
Si Si4 0.814438 0.666886 0.454817
Si Si5 0.311567 0.578982 0.874013
Si Si6 0.310220 0.669188 0.793064
O O1 0.250000 0.500000 0.616352
O O2 0.252002 0.603996 0.667203
O O3 0.239388 0.625960 0.583763
O O4 0.000000 0.576163 0.624825
O O5 0.250000 0.500000 0.280775
O O6 0.236822 0.629373 0.249490
O O7 0.000000 0.576313 0.288633
O O8 0.764258 0.750000 0.053277
O O9 0.760778 0.618449 0.083395
O O10 0.000000 0.667656 0.044604
O O11 0.750000 0.647379 0.000000
O O12 0.779117 0.750000 0.451101
O O13 0.750000 0.642774 0.500000
O O14 0.000000 0.657885 0.453954
O O15 0.500000 0.577280 0.873887
O O16 0.250000 0.500000 0.871817
O O17 0.261083 0.624597 0.833691
O O18 0.500000 0.670272 0.793443
O O19 0.257640 0.750000 0.794668
#
# Coordination Sequence:
#
# PCOD9501650 Si02
#       6
#    16  16  16  16  16  16
#     4  11  22  37  57  81 111 145 183 224 268 318
#     4  10  19  33  54  78 105 137 172 213 263 315
#     4   9  18  33  53  75 100 133 172 213 257 305
#     4  10  21  38  59  83 112 145 182 224 271 322
#     4  10  20  34  53  76 103 135 171 212 258 309
#     4   9  18  33  54  78 102 132 173 216 257 307
#
# _framework density 18.459772999999998
#
# number of rings (size 3 to 8) (size 9 to 14) (size 15 to 20)
#    0.000    2.167    0.000    4.500    0.000    5.000 
#    0.000    5.833    0.000    5.000    0.000    0.000 
#    0.000    0.000    0.000    0.000    0.000    0.000 
#
# Total GULP energy -268027.538548 kJ/mol
# GULP energy per Si atom -5583.907053 kJ/mol
# Density = 1.841776 g / cm^3
# Si number density = 18.459773 Si / 1000 Ang^3
#
#
#
# Elastic Constant Matrix: (Units=GPa)
#
#
# Indices 1 2 3 4 5 6 
#
# 1 42.7864 38.0771 53.2980 0.0000 0.0000 0.0000
# 2 38.0771 117.0372 120.9480 0.0000 0.0000 0.0000
# 3 53.2980 120.9480 212.8170 0.0000 0.0000 0.0000
# 4 0.0000 0.0000 0.0000 50.5844 0.0000 0.0000
# 5 0.0000 0.0000 0.0000 0.0000 24.8030 0.0000
# 6 0.0000 0.0000 0.0000 0.0000 0.0000 26.5631
#
#
#
# Elastic Compliance Matrix: (Units=1/GPa)
#
#
# Indices 1 2 3 4 5 6 
#
# 1 0.035482 -0.005720 -0.005635 0.000000 0.000000 0.000000
# 2 -0.005720 0.021626 -0.010858 0.000000 0.000000 0.000000
# 3 -0.005635 -0.010858 0.012281 0.000000 0.000000 0.000000
# 4 0.000000 0.000000 0.000000 0.019769 0.000000 0.000000
# 5 0.000000 0.000000 0.000000 0.000000 0.040318 0.000000
# 6 0.000000 0.000000 0.000000 0.000000 0.000000 0.037646
#
#
# Mechanical properties :
#
#
# Convention : Reuss Voigt Hill
#
# Bulk Modulus (GPa) = 40.06035 88.58745 64.32390
# Shear Modulus (GPa) = 22.74071 31.07792 26.90932
#
# Velocity S-wave (km/s) = 3.51366 4.10756 3.82216
# Velocity P-wave (km/s) = 6.18139 8.40177 7.37561
#
# Compressibility (1/GPa) = 0.02496234
#
# Stress axis : x y z
#
# Youngs Moduli (GPa) = 28.18306 46.24038 81.42701
#
# Poissons Ratio (x) = 0.26451 0.45886
# Poissons Ratio (y) = 0.16122 0.88413
# Poissons Ratio (z) = 0.15882 0.50208
#
# Static dielectric constant tensor:
#      x y z
#    x 1.631290 0.000000 0.000000 
#    y 0.000000 1.610860 0.000000 
#    z 0.000000 0.000000 1.621950 
# 
# From -- ./inp_files/43517.got.cif
#   From: 2010.05.17/outbox.cif.g08.bks.cpg/sg67_22_cif.got.tgz:43517.got - 2010.06.03 18:28:57.
