data_PCOD9501449
_publ_section_title
;
Structure prediction by ZEFSAII (Michael W. Deem and Ramdas Pophale) SiO2 
 PCOD9501449
Probable space group: C M M A
;
_chemical_formula_sum "Si O2"
_cell_formula_units_Z 112
_cell_length_a 14.640066
_cell_length_b 18.957756
_cell_length_c 17.941762
_cell_angle_alpha 90.000000
_cell_angle_beta 90.000000
_cell_angle_gamma 90.000000
_cell_volume 4979.606845
_symmetry_space_group_name_H-M "C M M A"
_symmetry_group_IT_number 67
_symmetry_cell_setting 'orthorhombic'
loop_
_space_group_symop_operation_xyz
x,y,z
-x,1/2-y,z
x,-y,-z
-x,1/2+y,-z
-x,-y,-z
x,1/2+y,-z
-x,y,z
x,1/2-y,z
1/2+x,1/2+y,z
1/2-x,-y,z
1/2+x,1/2-y,-z
1/2-x,y,-z
1/2-x,1/2-y,-z
1/2+x,y,-z
1/2-x,1/2+y,z
1/2+x,-y,z
loop_
_atom_site_type_symbol
_atom_site_label
_atom_site_fract_x
_atom_site_fract_y
_atom_site_fract_z
Si Si1 0.868427 0.670064 0.871200
Si Si2 0.394699 0.072931 0.729443
Si Si3 0.110571 0.917161 0.290966
Si Si4 0.652162 0.170717 0.150628
Si Si5 0.360815 0.919648 0.988340
Si Si6 0.887959 0.329879 0.403360
Si Si7 0.611066 0.073812 0.462296
O O1 0.901833 0.750000 0.862922
O O2 0.893446 0.619445 0.803135
O O3 0.758819 0.674487 0.869311
O O4 0.895502 0.632866 0.947798
O O5 0.500000 0.061174 0.706946
O O6 0.354297 0.118746 0.662221
O O7 0.358326 0.994109 0.738777
O O8 0.144466 0.857970 0.234365
O O9 0.139953 0.914895 0.377258
O O10 0.000000 0.911902 0.288996
O O11 0.614130 0.250000 0.142892
O O12 0.614630 0.113617 0.091632
O O13 0.250000 0.921290 0.000000
O O14 0.391784 0.000000 0.000000
O O15 0.856280 0.250000 0.393248
O O16 0.862578 0.363531 0.482296
O O17 0.000000 0.328408 0.400280
O O18 0.500000 0.071167 0.460628
O O19 0.640453 0.000000 0.500000
#
# Coordination Sequence:
#
# PCOD9501449 Si02
#       7
#    16  16  16  16  16  16  16
#     4  10  20  34  54  78 105 138 173 213 263 315
#     4  10  19  32  51  78 107 132 167 217 268 313
#     4  10  20  33  53  78 106 140 175 215 264 313
#     4  10  21  36  53  77 108 140 176 217 261 315
#     4   9  17  32  55  78 100 132 178 221 260 307
#     4   9  16  26  44  71 100 129 163 207 256 304
#     4   9  15  28  48  71 100 133 171 214 257 305
#
# _framework density 22.491734999999998
#
# number of rings (size 3 to 8) (size 9 to 14) (size 15 to 20)
#    0.000    2.429    1.429    1.714    0.000    5.143 
#    0.000    2.143    0.000    5.143    0.000    3.000 
#    0.000    0.000    0.000    0.000    0.000    0.000 
#
# Total GULP energy -312901.239703 kJ/mol
# GULP energy per Si atom -5587.522138 kJ/mol
# Density = 2.244054 g / cm^3
# Si number density = 22.491735 Si / 1000 Ang^3
#
#
#
# Elastic Constant Matrix: (Units=GPa)
#
#
# Indices 1 2 3 4 5 6 
#
# 1 64.5137 -6.1421 -7.0395 0.0000 0.0000 0.0000
# 2 -6.1421 106.1382 34.6424 0.0000 0.0000 0.0000
# 3 -7.0395 34.6424 131.7316 0.0000 0.0000 0.0000
# 4 0.0000 0.0000 0.0000 29.4990 0.0000 0.0000
# 5 0.0000 0.0000 0.0000 0.0000 3.7610 0.0000
# 6 0.0000 0.0000 0.0000 0.0000 0.0000 3.4935
#
#
#
# Elastic Compliance Matrix: (Units=1/GPa)
#
#
# Indices 1 2 3 4 5 6 
#
# 1 0.015638 0.000692 0.000654 0.000000 0.000000 0.000000
# 2 0.000692 0.010337 -0.002681 0.000000 0.000000 0.000000
# 3 0.000654 -0.002681 0.008331 0.000000 0.000000 0.000000
# 4 0.000000 0.000000 0.000000 0.033899 0.000000 0.000000
# 5 0.000000 0.000000 0.000000 0.000000 0.265883 0.000000
# 6 0.000000 0.000000 0.000000 0.000000 0.000000 0.286243
#
#
# Mechanical properties :
#
#
# Convention : Reuss Voigt Hill
#
# Bulk Modulus (GPa) = 31.61177 38.36723 34.98950
# Shear Modulus (GPa) = 7.89205 26.07889 16.98547
#
# Velocity S-wave (km/s) = 1.87523 3.40882 2.75105
# Velocity P-wave (km/s) = 4.33290 5.70866 5.06768
#
# Compressibility (1/GPa) = 0.03163379
#
# Stress axis : x y z
#
# Youngs Moduli (GPa) = 63.94776 96.74096 120.02957
#
# Poissons Ratio (x) = -0.06690 -0.07847
# Poissons Ratio (y) = -0.04422 0.32185
# Poissons Ratio (z) = -0.04181 0.25940
#
# Static dielectric constant tensor:
#      x y z
#    x 1.924700 0.000000 0.000000 
#    y 0.000000 1.798220 0.000000 
#    z 0.000000 0.000000 1.784770 
# 
# From -- ./inp_files/35123.got.cif
#   From: 2010.05.17/outbox.cif.g08.bks.cpg/sg67_18_cif.got.tgz:35123.got - 2010.06.03 18:28:57.
