data_PCOD9501155
_publ_section_title
;
Structure prediction by ZEFSAII (Michael W. Deem and Ramdas Pophale) SiO2 
 PCOD9501155
Probable space group: C M M A
;
_chemical_formula_sum "Si O2"
_cell_formula_units_Z 104
_cell_length_a 8.846517
_cell_length_b 25.538474
_cell_length_c 30.884092
_cell_angle_alpha 90.000000
_cell_angle_beta 90.000000
_cell_angle_gamma 90.000000
_cell_volume 6977.536182
_symmetry_space_group_name_H-M "C M M A"
_symmetry_group_IT_number 67
_symmetry_cell_setting 'orthorhombic'
loop_
_space_group_symop_operation_xyz
x,y,z
-x,1/2-y,z
x,-y,-z
-x,1/2+y,-z
-x,-y,-z
x,1/2+y,-z
-x,y,z
x,1/2-y,z
1/2+x,1/2+y,z
1/2-x,-y,z
1/2+x,1/2-y,-z
1/2-x,y,-z
1/2-x,1/2-y,-z
1/2+x,y,-z
1/2-x,1/2+y,z
1/2+x,-y,z
loop_
_atom_site_type_symbol
_atom_site_label
_atom_site_fract_x
_atom_site_fract_y
_atom_site_fract_z
Si Si1 0.174467 0.313792 0.865545
Si Si2 0.682643 0.250000 0.451756
Si Si3 0.676737 0.686880 0.686752
Si Si4 0.182499 0.942342 0.453153
Si Si5 0.680601 0.151293 0.599773
Si Si6 0.826829 0.686325 0.776436
Si Si7 0.325278 0.686228 0.044837
O O1 0.180773 0.250000 0.865742
O O2 0.262622 0.331393 0.822684
O O3 0.244048 0.331283 0.911177
O O4 0.000000 0.328809 0.862503
O O5 0.500000 0.250000 0.452315
O O6 0.750000 0.250000 0.500000
O O7 0.744871 0.199258 0.426680
O O8 0.500000 0.675479 0.679739
O O9 0.695805 0.750000 0.683253
O O10 0.776770 0.660613 0.649741
O O11 0.728129 0.671081 0.734905
O O12 0.250000 0.926162 0.500000
O O13 0.243954 0.901302 0.418415
O O14 0.000000 0.943591 0.454785
O O15 0.250000 0.000000 0.444682
O O16 0.500000 0.150862 0.593627
O O17 0.824485 0.750000 0.777447
O O18 0.000000 0.669985 0.770741
O O19 0.500000 0.671343 0.045840
O O20 0.318269 0.750000 0.044735
O O21 0.250000 0.668626 0.000000
#
# Coordination Sequence:
#
# PCOD9501155 Si02
#       7
#    16   8  16  16  16  16  16
#     4   9  15  22  31  43  59  81 112 149 191 238
#     4  12  24  38  52  72  98 126 154 184 219 262
#     4  10  19  31  46  64  88 115 144 176 214 258
#     4  11  22  39  59  79 100 123 153 186 221 260
#     4  12  23  36  53  74  98 125 153 184 222 265
#     4   9  16  25  37  52  71  96 127 161 199 244
#     4   9  15  21  28  38  53  74 102 140 188 239
#
# _framework density 14.904975
#
# number of rings (size 3 to 8) (size 9 to 14) (size 15 to 20)
#    0.000    1.846    0.769    6.231    0.000    6.154 
#    0.000    0.000    0.000    0.000    0.000    0.000 
#    0.000    0.000    0.000    0.000    0.000    0.000 
#
# Total GULP energy -290071.199590 kJ/mol
# GULP energy per Si atom -5578.292300 kJ/mol
# Density = 1.487105 g / cm^3
# Si number density = 14.904975 Si / 1000 Ang^3
#
#
#
# Elastic Constant Matrix: (Units=GPa)
#
#
# Indices 1 2 3 4 5 6 
#
# 1 130.4007 20.0938 45.7874 0.0000 0.0000 0.0000
# 2 20.0938 20.5756 21.6413 0.0000 0.0000 0.0000
# 3 45.7874 21.6413 109.0307 0.0000 0.0000 0.0000
# 4 0.0000 0.0000 0.0000 3.7211 0.0000 0.0000
# 5 0.0000 0.0000 0.0000 0.0000 33.1827 0.0000
# 6 0.0000 0.0000 0.0000 0.0000 0.0000 13.2225
#
#
#
# Elastic Compliance Matrix: (Units=1/GPa)
#
#
# Indices 1 2 3 4 5 6 
#
# 1 0.009640 -0.006517 -0.002755 0.000000 0.000000 0.000000
# 2 -0.006517 0.065830 -0.010330 0.000000 0.000000 0.000000
# 3 -0.002755 -0.010330 0.012379 0.000000 0.000000 0.000000
# 4 0.000000 0.000000 0.000000 0.268737 0.000000 0.000000
# 5 0.000000 0.000000 0.000000 0.000000 0.030136 0.000000
# 6 0.000000 0.000000 0.000000 0.000000 0.000000 0.075629
#
#
# Mechanical properties :
#
#
# Convention : Reuss Voigt Hill
#
# Bulk Modulus (GPa) = 20.55648 48.33912 34.44780
# Shear Modulus (GPa) = 9.65681 21.52423 15.59052
#
# Velocity S-wave (km/s) = 2.54813 3.80425 3.23769
# Velocity P-wave (km/s) = 4.74120 7.19711 6.09415
#
# Compressibility (1/GPa) = 0.04864647
#
# Stress axis : x y z
#
# Youngs Moduli (GPa) = 103.73239 15.19055 80.78212
#
# Poissons Ratio (x) = 0.09900 0.22254
# Poissons Ratio (y) = 0.67601 0.83446
# Poissons Ratio (z) = 0.28577 0.15692
#
# Static dielectric constant tensor:
#      x y z
#    x 1.500070 0.000000 0.000000 
#    y 0.000000 1.464250 0.000000 
#    z 0.000000 0.000000 1.506080 
# 
# From -- ./inp_files/45399.got.cif
#   From: 2010.05.17/outbox.cif.g08.bks.cpg/sg67_23_cif.got.tgz:45399.got - 2010.06.03 18:28:57.
