data_PCOD9501478
_publ_section_title
;
Structure prediction by ZEFSAII (Michael W. Deem and Ramdas Pophale) SiO2 
 PCOD9501478
Probable space group: C M M A
;
_chemical_formula_sum "Si O2"
_cell_formula_units_Z 72
_cell_length_a 8.396815
_cell_length_b 25.479060
_cell_length_c 17.041791
_cell_angle_alpha 90.000000
_cell_angle_beta 90.000000
_cell_angle_gamma 90.000000
_cell_volume 3645.971094
_symmetry_space_group_name_H-M "C M M A"
_symmetry_group_IT_number 67
_symmetry_cell_setting 'orthorhombic'
loop_
_space_group_symop_operation_xyz
x,y,z
-x,1/2-y,z
x,-y,-z
-x,1/2+y,-z
-x,-y,-z
x,1/2+y,-z
-x,y,z
x,1/2-y,z
1/2+x,1/2+y,z
1/2-x,-y,z
1/2+x,1/2-y,-z
1/2-x,y,-z
1/2-x,1/2-y,-z
1/2+x,y,-z
1/2-x,1/2+y,z
1/2+x,-y,z
loop_
_atom_site_type_symbol
_atom_site_label
_atom_site_fract_x
_atom_site_fract_y
_atom_site_fract_z
Si Si1 0.187500 0.332644 0.711031
Si Si2 0.187343 0.691212 0.880809
Si Si3 0.684636 0.080997 0.083085
Si Si4 0.187057 0.943594 0.747267
Si Si5 0.690381 0.250000 0.588854
O O1 0.283208 0.312280 0.787188
O O2 0.223239 0.394599 0.708058
O O3 0.243766 0.300386 0.635960
O O4 0.000000 0.324086 0.724457
O O5 0.229413 0.750000 0.906569
O O6 0.291604 0.644187 0.915167
O O7 0.000000 0.681625 0.896699
O O8 0.500000 0.067803 0.092661
O O9 0.779253 0.061212 0.159109
O O10 0.750000 0.061934 0.000000
O O11 0.000000 0.938502 0.733688
O O12 0.250000 0.000000 0.721083
O O13 0.500000 0.250000 0.591486
O O14 0.750000 0.250000 0.500000
#
# Coordination Sequence:
#
# PCOD9501478 Si02
#       5
#    16  16  16  16   8
#     4  11  21  36  59  88 120 155 193 236 285 341
#     4  10  19  32  52  76 106 146 190 235 287 344
#     4  11  22  36  52  74 106 144 190 243 300 353
#     4  11  22  39  61  86 114 150 197 245 292 344
#     4  12  24  40  62  94 129 162 193 232 282 338
#
# _framework density 19.747824999999999
#
# number of rings (size 3 to 8) (size 9 to 14) (size 15 to 20)
#    0.000    1.111    1.111   10.333    0.000    2.222 
#    0.000    2.222    0.000    0.667    0.000    4.667 
#    0.000    0.000    0.000    0.000    0.000    0.000 
#
# Total GULP energy -201411.071929 kJ/mol
# GULP energy per Si atom -5594.751998 kJ/mol
# Density = 1.970288 g / cm^3
# Si number density = 19.747825 Si / 1000 Ang^3
#
#
#
# Elastic Constant Matrix: (Units=GPa)
#
#
# Indices 1 2 3 4 5 6 
#
# 1 83.6045 3.3196 -2.8219 0.0000 0.0000 0.0000
# 2 3.3196 120.2827 22.6061 0.0000 0.0000 0.0000
# 3 -2.8219 22.6061 92.4615 0.0000 0.0000 0.0000
# 4 0.0000 0.0000 0.0000 22.1642 0.0000 0.0000
# 5 0.0000 0.0000 0.0000 0.0000 25.9580 0.0000
# 6 0.0000 0.0000 0.0000 0.0000 0.0000 30.4549
#
#
#
# Elastic Compliance Matrix: (Units=1/GPa)
#
#
# Indices 1 2 3 4 5 6 
#
# 1 0.011994 -0.000419 0.000468 0.000000 0.000000 0.000000
# 2 -0.000419 0.008729 -0.002147 0.000000 0.000000 0.000000
# 3 0.000468 -0.002147 0.011355 0.000000 0.000000 0.000000
# 4 0.000000 0.000000 0.000000 0.045118 0.000000 0.000000
# 5 0.000000 0.000000 0.000000 0.000000 0.038524 0.000000
# 6 0.000000 0.000000 0.000000 0.000000 0.000000 0.032835
#
#
# Mechanical properties :
#
#
# Convention : Reuss Voigt Hill
#
# Bulk Modulus (GPa) = 35.86556 38.06182 36.96369
# Shear Modulus (GPa) = 30.85606 33.93175 32.39390
#
# Velocity S-wave (km/s) = 3.95714 4.14968 4.05455
# Velocity P-wave (km/s) = 6.25139 6.50196 6.37791
#
# Compressibility (1/GPa) = 0.02788190
#
# Stress axis : x y z
#
# Youngs Moduli (GPa) = 83.37825 114.56318 88.07066
#
# Poissons Ratio (x) = 0.04801 -0.04126
# Poissons Ratio (y) = 0.03494 0.18908
# Poissons Ratio (z) = -0.03906 0.24596
#
# Static dielectric constant tensor:
#      x y z
#    x 1.652770 0.000000 0.000000 
#    y 0.000000 1.743270 0.000000 
#    z 0.000000 0.000000 1.672940 
# 
# From -- ./inp_files/25095.got.cif
#   From: 2010.05.17/outbox.cif.g08.bks.cpg/sg67_13_cif.got.tgz:25095.got - 2010.06.03 18:28:57.
