data_PCOD9501024
_publ_section_title
;
Structure prediction by ZEFSAII (Michael W. Deem and Ramdas Pophale) SiO2 
 PCOD9501024
Probable space group: C M M A
;
_chemical_formula_sum "Si O2"
_cell_formula_units_Z 104
_cell_length_a 25.742209
_cell_length_b 9.176620
_cell_length_c 30.809554
_cell_angle_alpha 90.000000
_cell_angle_beta 90.000000
_cell_angle_gamma 90.000000
_cell_volume 7278.032182
_symmetry_space_group_name_H-M "C M M A"
_symmetry_group_IT_number 67
_symmetry_cell_setting 'orthorhombic'
loop_
_space_group_symop_operation_xyz
x,y,z
-x,1/2-y,z
x,-y,-z
-x,1/2+y,-z
-x,-y,-z
x,1/2+y,-z
-x,y,z
x,1/2-y,z
1/2+x,1/2+y,z
1/2-x,-y,z
1/2+x,1/2-y,-z
1/2-x,y,-z
1/2-x,1/2-y,-z
1/2+x,y,-z
1/2-x,1/2+y,z
1/2+x,-y,z
loop_
_atom_site_type_symbol
_atom_site_label
_atom_site_fract_x
_atom_site_fract_y
_atom_site_fract_z
Si Si1 0.597999 0.576481 0.393246
Si Si2 0.563203 0.917951 0.218797
Si Si3 0.061963 0.923223 0.307642
Si Si4 0.695174 0.924883 0.454605
Si Si5 0.500000 0.924778 0.453463
Si Si6 0.936667 0.918301 0.131425
Si Si7 0.063311 0.581773 0.956210
O O1 0.593473 0.750000 0.384590
O O2 0.591217 0.490256 0.348711
O O3 0.651701 0.549989 0.418295
O O4 0.550823 0.536080 0.425530
O O5 0.500000 0.918715 0.218035
O O6 0.579927 0.750000 0.219378
O O7 0.578323 0.001399 0.262624
O O8 0.580315 0.999198 0.175016
O O9 0.068845 0.750000 0.304924
O O10 0.000000 0.952034 0.313560
O O11 0.701101 0.750000 0.460485
O O12 0.678688 0.000000 0.500000
O O13 0.750000 0.000000 0.443333
O O14 0.500000 0.750000 0.459382
O O15 0.500000 0.000000 0.500000
O O16 0.920539 0.750000 0.131544
O O17 0.000000 0.919806 0.131505
O O18 0.920106 0.999667 0.087537
O O19 0.079537 0.750000 0.956146
O O20 0.000000 0.580463 0.956235
O O21 0.079960 0.500000 0.000000
#
# Coordination Sequence:
#
# PCOD9501024 Si02
#       7
#    16  16  16  16   8  16  16
#     4  10  20  33  48  65  87 114 139 165 201 243
#     4   9  16  25  37  50  67  93 121 151 187 230
#     4  10  19  29  42  61  82 105 132 162 197 238
#     4  10  20  34  52  71  89 112 140 170 203 239
#     4  10  20  32  46  64  88 112 136 164 195 236
#     4   9  15  22  31  43  59  79 108 146 185 228
#     4   9  15  21  28  38  53  74 102 138 184 234
#
# _framework density 14.289577
#
# number of rings (size 3 to 8) (size 9 to 14) (size 15 to 20)
#    0.000    2.462    0.769    3.231    0.000    8.000 
#    0.000    0.000    0.000    0.000    0.000    0.000 
#    0.000    0.000    0.000    0.000    0.000    0.000 
#
# Total GULP energy -289835.439783 kJ/mol
# GULP energy per Si atom -5573.758457 kJ/mol
# Density = 1.425705 g / cm^3
# Si number density = 14.289577 Si / 1000 Ang^3
#
#
#
# Elastic Constant Matrix: (Units=GPa)
#
#
# Indices 1 2 3 4 5 6 
#
# 1 27.0476 30.7921 37.2946 0.0000 0.0000 0.0000
# 2 30.7921 118.9339 95.3090 0.0000 0.0000 0.0000
# 3 37.2946 95.3090 165.9023 0.0000 0.0000 0.0000
# 4 0.0000 0.0000 0.0000 33.4428 0.0000 0.0000
# 5 0.0000 0.0000 0.0000 0.0000 6.9844 0.0000
# 6 0.0000 0.0000 0.0000 0.0000 0.0000 11.2068
#
#
#
# Elastic Compliance Matrix: (Units=1/GPa)
#
#
# Indices 1 2 3 4 5 6 
#
# 1 0.057814 -0.008438 -0.008149 0.000000 0.000000 0.000000
# 2 -0.008438 0.016813 -0.007762 0.000000 0.000000 0.000000
# 3 -0.008149 -0.007762 0.012319 0.000000 0.000000 0.000000
# 4 0.000000 0.000000 0.000000 0.029902 0.000000 0.000000
# 5 0.000000 0.000000 0.000000 0.000000 0.143177 0.000000
# 6 0.000000 0.000000 0.000000 0.000000 0.000000 0.089232
#
#
# Mechanical properties :
#
#
# Convention : Reuss Voigt Hill
#
# Bulk Modulus (GPa) = 26.14518 70.96391 48.55455
# Shear Modulus (GPa) = 12.17425 20.22600 16.20013
#
# Velocity S-wave (km/s) = 2.92201 3.76631 3.37070
# Velocity P-wave (km/s) = 5.45166 8.28750 7.01439
#
# Compressibility (1/GPa) = 0.03824797
#
# Stress axis : x y z
#
# Youngs Moduli (GPa) = 17.29679 59.47917 81.17759
#
# Poissons Ratio (x) = 0.50187 0.66153
# Poissons Ratio (y) = 0.14595 0.63009
# Poissons Ratio (z) = 0.14095 0.46167
#
# Static dielectric constant tensor:
#      x y z
#    x 1.438880 0.000000 0.000000 
#    y 0.000000 1.479000 0.000000 
#    z 0.000000 0.000000 1.463410 
# 
# From -- ./inp_files/46029.got.cif
#   From: 2010.05.17/outbox.cif.g08.bks.cpg/sg67_24_cif.got.tgz:46029.got - 2010.06.03 18:28:57.
