data_PCOD9501145
_publ_section_title
;
Structure prediction by ZEFSAII (Michael W. Deem and Ramdas Pophale) SiO2 
 PCOD9501145
Probable space group: C M M A
;
_chemical_formula_sum "Si O2"
_cell_formula_units_Z 128
_cell_length_a 17.102712
_cell_length_b 18.264537
_cell_length_c 27.012700
_cell_angle_alpha 90.000000
_cell_angle_beta 90.000000
_cell_angle_gamma 90.000000
_cell_volume 8438.041274
_symmetry_space_group_name_H-M "C M M A"
_symmetry_group_IT_number 67
_symmetry_cell_setting 'orthorhombic'
loop_
_space_group_symop_operation_xyz
x,y,z
-x,1/2-y,z
x,-y,-z
-x,1/2+y,-z
-x,-y,-z
x,1/2+y,-z
-x,y,z
x,1/2-y,z
1/2+x,1/2+y,z
1/2-x,-y,z
1/2+x,1/2-y,-z
1/2-x,y,-z
1/2-x,1/2-y,-z
1/2+x,y,-z
1/2-x,1/2+y,z
1/2+x,-y,z
loop_
_atom_site_type_symbol
_atom_site_label
_atom_site_fract_x
_atom_site_fract_y
_atom_site_fract_z
Si Si1 0.313198 0.560973 0.628319
Si Si2 0.092796 0.461888 0.447597
Si Si3 0.909514 0.836074 0.182139
Si Si4 0.091863 0.834352 0.300893
Si Si5 0.214276 0.335866 0.444735
Si Si6 0.315544 0.332418 0.956419
Si Si7 0.085243 0.576819 0.027388
Si Si8 0.288919 0.423180 0.114945
O O1 0.250000 0.500000 0.645625
O O2 0.373694 0.514767 0.594912
O O3 0.356299 0.606334 0.670908
O O4 0.270369 0.620146 0.592886
O O5 0.113188 0.500000 0.500000
O O6 0.134959 0.383368 0.444787
O O7 0.000000 0.455051 0.444212
O O8 0.901590 0.750000 0.168319
O O9 0.901552 0.841276 0.241527
O O10 0.841255 0.882119 0.155867
O O11 0.000000 0.857818 0.170087
O O12 0.113204 0.750000 0.313922
O O13 0.000000 0.843906 0.313519
O O14 0.205064 0.250000 0.431927
O O15 0.250000 0.339551 0.500000
O O16 0.331242 0.250000 0.941335
O O17 0.280614 0.376167 0.910109
O O18 0.250000 0.332536 0.000000
O O19 0.388211 0.367373 0.984828
O O20 0.149553 0.568045 0.069825
O O21 0.000000 0.596851 0.047656
O O22 0.081408 0.500000 0.000000
O O23 0.250000 0.500000 0.130368
#
# Coordination Sequence:
#
# PCOD9501145 Si02
#       8
#    16  16  16  16  16  16  16  16
#     4  10  19  30  51  72  96 126 159 197 239 289
#     4  10  19  31  46  65  94 128 161 197 236 280
#     4   9  19  35  53  72  96 126 159 199 245 290
#     4   9  18  34  53  73  98 123 155 203 249 289
#     4  10  19  31  46  65  94 128 162 198 233 276
#     4   9  18  30  45  66  91 121 157 196 236 276
#     4  10  19  31  46  65  93 126 162 193 229 276
#     4  11  19  30  49  72  96 128 156 197 239 287
#
# _framework density 15.169397
#
# number of rings (size 3 to 8) (size 9 to 14) (size 15 to 20)
#    0.000    2.250    2.500    2.250    0.000    1.500 
#    0.000    0.000    0.000    0.000    0.000    0.000 
#    0.000    0.000    0.000   19.750    0.000    0.000 
#
# Total GULP energy -356467.546600 kJ/mol
# GULP energy per Si atom -5569.805416 kJ/mol
# Density = 1.513487 g / cm^3
# Si number density = 15.169397 Si / 1000 Ang^3
#
#
#
# Elastic Constant Matrix: (Units=GPa)
#
#
# Indices 1 2 3 4 5 6 
#
# 1 70.1904 51.2462 31.5822 0.0000 0.0000 0.0000
# 2 51.2462 126.3806 42.0519 0.0000 0.0000 0.0000
# 3 31.5822 42.0519 54.2615 0.0000 0.0000 0.0000
# 4 0.0000 0.0000 0.0000 26.0117 0.0000 0.0000
# 5 0.0000 0.0000 0.0000 0.0000 26.4665 0.0000
# 6 0.0000 0.0000 0.0000 0.0000 0.0000 64.9565
#
#
#
# Elastic Compliance Matrix: (Units=1/GPa)
#
#
# Indices 1 2 3 4 5 6 
#
# 1 0.022641 -0.006462 -0.008170 0.000000 0.000000 0.000000
# 2 -0.006462 0.012507 -0.005931 0.000000 0.000000 0.000000
# 3 -0.008170 -0.005931 0.027781 0.000000 0.000000 0.000000
# 4 0.000000 0.000000 0.000000 0.038444 0.000000 0.000000
# 5 0.000000 0.000000 0.000000 0.000000 0.037784 0.000000
# 6 0.000000 0.000000 0.000000 0.000000 0.000000 0.015395
#
#
# Mechanical properties :
#
#
# Convention : Reuss Voigt Hill
#
# Bulk Modulus (GPa) = 45.86693 55.62144 50.74419
# Shear Modulus (GPa) = 24.63723 31.88376 28.26049
#
# Velocity S-wave (km/s) = 4.03443 4.58956 4.32092
# Velocity P-wave (km/s) = 7.21140 8.05183 7.64318
#
# Compressibility (1/GPa) = 0.02180220
#
# Stress axis : x y z
#
# Youngs Moduli (GPa) = 44.16744 79.95824 35.99608
#
# Poissons Ratio (x) = 0.51672 0.29408
# Poissons Ratio (y) = 0.28543 0.21349
# Poissons Ratio (z) = 0.36084 0.47424
#
# Static dielectric constant tensor:
#      x y z
#    x 1.513220 0.000000 0.000000 
#    y 0.000000 1.501300 0.000000 
#    z 0.000000 0.000000 1.496010 
# 
# From -- ./inp_files/42255.got.cif
#   From: 2010.05.17/outbox.cif.g08.bks.cpg/sg67_22_cif.got.tgz:42255.got - 2010.06.03 18:28:57.
