data_PCOD9501576
_publ_section_title
;
Structure prediction by ZEFSAII (Michael W. Deem and Ramdas Pophale) SiO2 
 PCOD9501576
Probable space group: C M M A
;
_chemical_formula_sum "Si O2"
_cell_formula_units_Z 52
_cell_length_a 17.874243
_cell_length_b 5.389159
_cell_length_c 26.421655
_cell_angle_alpha 90.000000
_cell_angle_beta 90.000000
_cell_angle_gamma 90.000000
_cell_volume 2545.122395
_symmetry_space_group_name_H-M "C M M A"
_symmetry_group_IT_number 67
_symmetry_cell_setting 'orthorhombic'
loop_
_space_group_symop_operation_xyz
x,y,z
-x,1/2-y,z
x,-y,-z
-x,1/2+y,-z
-x,-y,-z
x,1/2+y,-z
-x,y,z
x,1/2-y,z
1/2+x,1/2+y,z
1/2-x,-y,z
1/2+x,1/2-y,-z
1/2-x,y,-z
1/2-x,1/2-y,-z
1/2+x,y,-z
1/2-x,1/2+y,z
1/2+x,-y,z
loop_
_atom_site_type_symbol
_atom_site_label
_atom_site_fract_x
_atom_site_fract_y
_atom_site_fract_z
Si Si1 0.835804 0.250000 0.033647
Si Si2 0.000000 0.750000 0.966920
Si Si3 0.158579 0.750000 0.183671
Si Si4 0.591407 0.250000 0.528922
Si Si5 0.909100 0.250000 0.704986
Si Si6 0.177923 0.750000 0.857991
Si Si7 0.409132 0.250000 0.645515
O O1 0.789073 0.250000 0.085007
O O2 0.828163 0.500000 0.000000
O O3 0.919204 0.250000 0.057815
O O4 0.000000 0.500000 0.000000
O O5 0.128729 0.750000 0.240243
O O6 0.134571 0.500631 0.154893
O O7 0.248956 0.750000 0.178387
O O8 0.500000 0.250000 0.529025
O O9 0.614891 0.500000 0.500000
O O10 0.616103 0.250000 0.587272
O O11 0.887248 0.498962 0.674635
O O12 0.000000 0.250000 0.710262
O O13 0.500000 0.250000 0.644415
#
# Coordination Sequence:
#
# PCOD9501576 Si02
#       7
#     8   4   8   8   8   8   8
#     4  10  19  35  56  80 106 133 163 195 242 305
#     4   8  16  30  50  74 104 132 156 188 228 280
#     4  10  21  38  52  72 103 133 168 214 264 298
#     4   9  15  23  37  61  96 136 173 205 247 305
#     4  10  19  33  51  71  98 134 179 219 257 302
#     4  10  21  38  57  76 105 132 163 205 260 304
#     4   9  17  28  45  69  98 136 178 217 254 304
#
# _framework density 20.431238
#
# number of rings (size 3 to 8) (size 9 to 14) (size 15 to 20)
#    0.000    2.462    0.000    2.769    0.000    3.692 
#    2.769    9.231    0.000    0.000    0.000    0.000 
#    0.000    0.000    0.000  193.846    0.000   86.154 
#
# Total GULP energy -144932.923107 kJ/mol
# GULP energy per Si atom -5574.343196 kJ/mol
# Density = 2.038474 g / cm^3
# Si number density = 20.431238 Si / 1000 Ang^3
#
#
#
# Elastic Constant Matrix: (Units=GPa)
#
#
# Indices 1 2 3 4 5 6 
#
# 1 37.5416 2.6050 14.1672 0.0000 0.0000 0.0000
# 2 2.6050 261.4446 127.3832 0.0000 0.0000 0.0000
# 3 14.1672 127.3832 207.4273 0.0000 0.0000 0.0000
# 4 0.0000 0.0000 0.0000 43.0374 0.0000 0.0000
# 5 0.0000 0.0000 0.0000 0.0000 -1.4874 0.0000
# 6 0.0000 0.0000 0.0000 0.0000 0.0000 35.5044
#
#
#
# Elastic Compliance Matrix: (Units=1/GPa)
#
#
# Indices 1 2 3 4 5 6 
#
# 1 0.027494 0.000915 -0.002440 0.000000 0.000000 0.000000
# 2 0.000915 0.005488 -0.003433 0.000000 0.000000 0.000000
# 3 -0.002440 -0.003433 0.007096 0.000000 0.000000 0.000000
# 4 0.000000 0.000000 0.000000 0.023236 0.000000 0.000000
# 5 0.000000 0.000000 0.000000 0.000000 -0.672303 0.000000
# 6 0.000000 0.000000 0.000000 0.000000 0.000000 0.028165
#
#
# Mechanical properties :
#
#
# Convention : Reuss Voigt Hill
#
# Bulk Modulus (GPa) = 33.15343 88.30270 60.72806
# Shear Modulus (GPa) = -8.91498 39.56143 15.32322
#
# Velocity S-wave (km/s) = -2.09114 4.40514 2.74157
# Velocity P-wave (km/s) = 3.22979 8.31787 6.30946
#
# Compressibility (1/GPa) = 0.03016280
#
# Stress axis : x y z
#
# Youngs Moduli (GPa) = 36.37122 182.20152 140.92833
#
# Poissons Ratio (x) = -0.16665 0.34380
# Poissons Ratio (y) = -0.03327 0.48380
# Poissons Ratio (z) = 0.08873 0.62549
#
# Static dielectric constant tensor:
#      x y z
#    x 1.804720 0.000000 0.000000 
#    y 0.000000 1.561930 0.000000 
#    z 0.000000 0.000000 1.692540 
# 
# From -- ./inp_files/36395.got.cif
#   From: 2010.05.17/outbox.cif.g08.bks.cpg/sg67_19_cif.got.tgz:36395.got - 2010.06.03 18:28:57.
