data_PCOD9501616
_publ_section_title
;
Structure prediction by ZEFSAII (Michael W. Deem and Ramdas Pophale) SiO2 
 PCOD9501616
Probable space group: C M M A
;
_chemical_formula_sum "Si O2"
_cell_formula_units_Z 128
_cell_length_a 18.723864
_cell_length_b 15.226154
_cell_length_c 23.225321
_cell_angle_alpha 90.000000
_cell_angle_beta 90.000000
_cell_angle_gamma 90.000000
_cell_volume 6621.363358
_symmetry_space_group_name_H-M "C M M A"
_symmetry_group_IT_number 67
_symmetry_cell_setting 'orthorhombic'
loop_
_space_group_symop_operation_xyz
x,y,z
-x,1/2-y,z
x,-y,-z
-x,1/2+y,-z
-x,-y,-z
x,1/2+y,-z
-x,y,z
x,1/2-y,z
1/2+x,1/2+y,z
1/2-x,-y,z
1/2+x,1/2-y,-z
1/2-x,y,-z
1/2-x,1/2-y,-z
1/2+x,y,-z
1/2-x,1/2+y,z
1/2+x,-y,z
loop_
_atom_site_type_symbol
_atom_site_label
_atom_site_fract_x
_atom_site_fract_y
_atom_site_fract_z
Si Si1 0.086613 0.647743 0.480452
Si Si2 0.835498 0.354834 0.003791
Si Si3 0.416655 0.089252 0.885521
Si Si4 0.413890 0.525301 0.411618
Si Si5 0.670809 0.651983 0.878933
Si Si6 0.581498 0.427806 0.205224
Si Si7 0.300577 0.652337 0.192448
Si Si8 0.828668 0.474777 0.297242
O O1 0.111329 0.750000 0.475100
O O2 0.107489 0.573383 0.433125
O O3 0.105647 0.598722 0.540483
O O4 0.000000 0.651200 0.478759
O O5 0.848531 0.250000 0.014238
O O6 0.859164 0.381368 0.939437
O O7 0.750000 0.369107 0.000000
O O8 0.875314 0.407668 0.053776
O O9 0.500000 0.110016 0.893954
O O10 0.371785 0.154906 0.845475
O O11 0.412645 0.002574 0.844965
O O12 0.500000 0.525704 0.407200
O O13 0.378018 0.546546 0.351119
O O14 0.696321 0.750000 0.894551
O O15 0.611373 0.653520 0.830058
O O16 0.739469 0.608457 0.848143
O O17 0.500000 0.421642 0.223656
O O18 0.631650 0.451441 0.258718
O O19 0.275574 0.750000 0.206579
O O20 0.316142 0.601436 0.250630
O O21 0.750000 0.500000 0.317994
#
# Coordination Sequence:
#
# PCOD9501616 Si02
#       8
#    16  16  16  16  16  16  16  16
#     4   8  15  32  58  85 118 160 195 228 279 334
#     4  10  19  33  53  76 103 136 174 219 271 337
#     4  10  21  35  54  80 109 138 175 228 288 348
#     4   9  18  33  56  87 118 149 194 243 277 324
#     4  10  20  36  57  77 100 136 182 229 277 339
#     4  10  22  39  56  77 107 142 183 231 281 334
#     4  10  20  36  56  77 106 144 187 230 281 347
#     4  11  21  36  57  80 109 150 189 228 281 334
#
# _framework density 19.331367
#
# number of rings (size 3 to 8) (size 9 to 14) (size 15 to 20)
#    0.000    2.250    2.500    1.500    0.000    3.250 
#    0.000    5.625    0.000    2.250    0.000    0.000 
#    0.000    0.000    0.000    0.000    0.000    0.000 
#
# Total GULP energy -356395.400591 kJ/mol
# GULP energy per Si atom -5568.678134 kJ/mol
# Density = 1.928737 g / cm^3
# Si number density = 19.331367 Si / 1000 Ang^3
#
#
#
# Elastic Constant Matrix: (Units=GPa)
#
#
# Indices 1 2 3 4 5 6 
#
# 1 68.9291 6.9890 15.2135 0.0000 0.0000 0.0000
# 2 6.9890 72.3592 7.1368 0.0000 0.0000 0.0000
# 3 15.2135 7.1368 83.4106 0.0000 0.0000 0.0000
# 4 0.0000 0.0000 0.0000 14.2619 0.0000 0.0000
# 5 0.0000 0.0000 0.0000 0.0000 33.7265 0.0000
# 6 0.0000 0.0000 0.0000 0.0000 0.0000 15.1829
#
#
#
# Elastic Compliance Matrix: (Units=1/GPa)
#
#
# Indices 1 2 3 4 5 6 
#
# 1 0.015220 -0.001206 -0.002673 0.000000 0.000000 0.000000
# 2 -0.001206 0.014033 -0.000981 0.000000 0.000000 0.000000
# 3 -0.002673 -0.000981 0.012560 0.000000 0.000000 0.000000
# 4 0.000000 0.000000 0.000000 0.070117 0.000000 0.000000
# 5 0.000000 0.000000 0.000000 0.000000 0.029650 0.000000
# 6 0.000000 0.000000 0.000000 0.000000 0.000000 0.065864
#
#
# Mechanical properties :
#
#
# Convention : Reuss Voigt Hill
#
# Bulk Modulus (GPa) = 31.15884 31.48639 31.32262
# Shear Modulus (GPa) = 21.94314 25.65824 23.80069
#
# Velocity S-wave (km/s) = 3.37279 3.64715 3.51265
# Velocity P-wave (km/s) = 5.59651 5.83598 5.71750
#
# Compressibility (1/GPa) = 0.03209362
#
# Stress axis : x y z
#
# Youngs Moduli (GPa) = 65.70346 71.25967 79.61605
#
# Poissons Ratio (x) = 0.08597 0.21280
# Poissons Ratio (y) = 0.07927 0.07808
# Poissons Ratio (z) = 0.17561 0.06988
#
# Static dielectric constant tensor:
#      x y z
#    x 1.680480 0.000000 0.000000 
#    y 0.000000 1.765330 0.000000 
#    z 0.000000 0.000000 1.669640 
# 
# From -- ./inp_files/39413.got.cif
#   From: 2010.05.17/outbox.cif.g08.bks.cpg/sg67_20_cif.got.tgz:39413.got - 2010.06.03 18:28:57.
