data_PCOD9501993
_publ_section_title
;
Structure prediction by ZEFSAII (Michael W. Deem and Ramdas Pophale) SiO2 
 PCOD9501993
Probable space group: C M M A
;
_chemical_formula_sum "Si O2"
_cell_formula_units_Z 88
_cell_length_a 21.909360
_cell_length_b 15.394651
_cell_length_c 12.010435
_cell_angle_alpha 90.000000
_cell_angle_beta 90.000000
_cell_angle_gamma 90.000000
_cell_volume 4050.962999
_symmetry_space_group_name_H-M "C M M A"
_symmetry_group_IT_number 67
_symmetry_cell_setting 'orthorhombic'
loop_
_space_group_symop_operation_xyz
x,y,z
-x,1/2-y,z
x,-y,-z
-x,1/2+y,-z
-x,-y,-z
x,1/2+y,-z
-x,y,z
x,1/2-y,z
1/2+x,1/2+y,z
1/2-x,-y,z
1/2+x,1/2-y,-z
1/2-x,y,-z
1/2-x,1/2-y,-z
1/2+x,y,-z
1/2-x,1/2+y,z
1/2+x,-y,z
loop_
_atom_site_type_symbol
_atom_site_label
_atom_site_fract_x
_atom_site_fract_y
_atom_site_fract_z
Si Si1 0.893004 0.349007 0.980484
Si Si2 0.802309 0.616064 0.212697
Si Si3 0.665810 0.413177 0.792205
Si Si4 0.568639 0.355100 0.614121
Si Si5 0.909694 0.850741 0.357970
Si Si6 0.500000 0.915002 0.829244
O O1 0.916128 0.250000 0.992999
O O2 0.836158 0.346350 0.895232
O O3 0.946165 0.404781 0.924242
O O4 0.869757 0.385709 0.096839
O O5 0.730791 0.635553 0.216291
O O6 0.815076 0.513327 0.203478
O O7 0.839275 0.645536 0.321712
O O8 0.620897 0.395029 0.690019
O O9 0.500000 0.381732 0.649125
O O10 0.571870 0.250000 0.623019
O O11 0.578327 0.376843 0.484381
O O12 0.929841 0.750000 0.343562
O O13 0.947298 0.906391 0.269435
#
# Coordination Sequence:
#
# PCOD9501993 Si02
#       6
#    16  16  16  16  16   8
#     4  11  22  37  63  91 119 159 208 256 304 364
#     4  10  23  42  61  84 123 167 204 251 301 362
#     4  11  24  41  58  88 129 163 198 247 316 370
#     4  10  22  40  64  92 125 161 200 256 314 363
#     4  10  19  38  65  88 115 158 211 254 297 359
#     4  10  19  36  61  89 119 156 198 249 306 360
#
# _framework density 21.723229
#
# number of rings (size 3 to 8) (size 9 to 14) (size 15 to 20)
#    0.000    1.636    0.909    4.909    1.273    6.545 
#    6.545    8.182    0.000    0.000    0.000    0.000 
#    0.000    0.000    0.000    0.000    0.000    0.000 
#
# Total GULP energy -245064.698430 kJ/mol
# GULP energy per Si atom -5569.652237 kJ/mol
# Density = 2.167379 g / cm^3
# Si number density = 21.723229 Si / 1000 Ang^3
#
#
#
# Elastic Constant Matrix: (Units=GPa)
#
#
# Indices 1 2 3 4 5 6 
#
# 1 170.4416 7.4750 92.1337 0.0000 0.0000 0.0000
# 2 7.4750 46.5237 13.3924 0.0000 0.0000 0.0000
# 3 92.1337 13.3924 114.4546 0.0000 0.0000 0.0000
# 4 0.0000 0.0000 0.0000 21.5336 0.0000 0.0000
# 5 0.0000 0.0000 0.0000 0.0000 18.8111 0.0000
# 6 0.0000 0.0000 0.0000 0.0000 0.0000 8.2252
#
#
#
# Elastic Compliance Matrix: (Units=1/GPa)
#
#
# Indices 1 2 3 4 5 6 
#
# 1 0.010413 0.000766 -0.008472 0.000000 0.000000 0.000000
# 2 0.000766 0.022300 -0.003226 0.000000 0.000000 0.000000
# 3 -0.008472 -0.003226 0.015934 0.000000 0.000000 0.000000
# 4 0.000000 0.000000 0.000000 0.046439 0.000000 0.000000
# 5 0.000000 0.000000 0.000000 0.000000 0.053160 0.000000
# 6 0.000000 0.000000 0.000000 0.000000 0.000000 0.121577
#
#
# Mechanical properties :
#
#
# Convention : Reuss Voigt Hill
#
# Bulk Modulus (GPa) = 37.33650 61.93578 49.63614
# Shear Modulus (GPa) = 16.63255 24.27523 20.45389
#
# Velocity S-wave (km/s) = 2.77005 3.34650 3.07183
# Velocity P-wave (km/s) = 5.23981 6.59585 5.95655
#
# Compressibility (1/GPa) = 0.02678344
#
# Stress axis : x y z
#
# Youngs Moduli (GPa) = 96.03265 44.84315 62.75775
#
# Poissons Ratio (x) = -0.03433 0.53168
# Poissons Ratio (y) = -0.07353 0.20244
# Poissons Ratio (z) = 0.81358 0.14465
#
# Static dielectric constant tensor:
#      x y z
#    x 1.798470 0.000000 0.000000 
#    y 0.000000 1.879110 0.000000 
#    z 0.000000 0.000000 1.731120 
# 
# From -- ./inp_files/20650.got.cif
#   From: 2010.05.17/outbox.cif.g08.bks.cpg/sg67_11_cif.got.tgz:20650.got - 2010.06.03 18:28:57.
