data_PCOD9501634
_publ_section_title
;
Structure prediction by ZEFSAII (Michael W. Deem and Ramdas Pophale) SiO2 
 PCOD9501634
Probable space group: C M M A
;
_chemical_formula_sum "Si O2"
_cell_formula_units_Z 80
_cell_length_a 26.997695
_cell_length_b 8.865869
_cell_length_c 18.559675
_cell_angle_alpha 90.000000
_cell_angle_beta 90.000000
_cell_angle_gamma 90.000000
_cell_volume 4442.407193
_symmetry_space_group_name_H-M "C M M A"
_symmetry_group_IT_number 67
_symmetry_cell_setting 'orthorhombic'
loop_
_space_group_symop_operation_xyz
x,y,z
-x,1/2-y,z
x,-y,-z
-x,1/2+y,-z
-x,-y,-z
x,1/2+y,-z
-x,y,z
x,1/2-y,z
1/2+x,1/2+y,z
1/2-x,-y,z
1/2+x,1/2-y,-z
1/2-x,y,-z
1/2-x,1/2-y,-z
1/2+x,y,-z
1/2-x,1/2+y,z
1/2+x,-y,z
loop_
_atom_site_type_symbol
_atom_site_label
_atom_site_fract_x
_atom_site_fract_y
_atom_site_fract_z
Si Si1 0.500000 0.931005 0.578820
Si Si2 0.500000 0.568759 0.920507
Si Si3 0.591268 0.933134 0.166904
Si Si4 0.095413 0.431349 0.673517
Si Si5 0.301317 0.425256 0.665170
Si Si6 0.199885 0.076478 0.159286
O O1 0.500000 0.750000 0.573403
O O2 0.549539 0.973430 0.622559
O O3 0.500000 0.000000 0.500000
O O4 0.500000 0.750000 0.921864
O O5 0.452113 0.506171 0.878855
O O6 0.500000 0.500000 0.000000
O O7 0.589044 0.750000 0.165925
O O8 0.645685 0.982715 0.138487
O O9 0.587391 0.990739 0.249004
O O10 0.096499 0.250000 0.682337
O O11 0.148553 0.488003 0.644331
O O12 0.303881 0.250000 0.644435
O O13 0.250000 0.500000 0.639881
O O14 0.300030 0.430714 0.753001
O O15 0.202061 0.250000 0.138255
O O16 0.250000 0.000000 0.133177
#
# Coordination Sequence:
#
# PCOD9501634 Si02
#       6
#     8   8  16  16  16  16
#     4  10  23  38  53  73 101 137 177 218 265 316
#     4  12  25  40  57  77 103 139 177 220 269 316
#     4  10  20  35  55  81 109 140 176 215 258 310
#     4  10  19  33  53  80 109 138 174 217 261 312
#     4   9  16  27  45  73 105 138 171 210 259 309
#     4   8  15  26  44  72 105 135 166 203 248 297
#
# _framework density 18.008254000000001
#
# number of rings (size 3 to 8) (size 9 to 14) (size 15 to 20)
#    0.000    2.400    0.000    4.500    0.000    8.000 
#    0.000    0.000    0.000    1.200    0.000    8.400 
#    0.000    0.000    0.000    0.000    0.000    0.000 
#
# Total GULP energy -223042.494543 kJ/mol
# GULP energy per Si atom -5576.062364 kJ/mol
# Density = 1.796727 g / cm^3
# Si number density = 18.008254 Si / 1000 Ang^3
#
#
#
# Elastic Constant Matrix: (Units=GPa)
#
#
# Indices 1 2 3 4 5 6 
#
# 1 226.5313 81.1912 72.2005 0.0000 0.0000 0.0000
# 2 81.1912 93.8943 33.5691 0.0000 0.0000 0.0000
# 3 72.2005 33.5691 56.0565 0.0000 0.0000 0.0000
# 4 0.0000 0.0000 0.0000 21.5706 0.0000 0.0000
# 5 0.0000 0.0000 0.0000 0.0000 -6.8795 0.0000
# 6 0.0000 0.0000 0.0000 0.0000 0.0000 36.6711
#
#
#
# Elastic Compliance Matrix: (Units=1/GPa)
#
#
# Indices 1 2 3 4 5 6 
#
# 1 0.008771 -0.004511 -0.008595 0.000000 0.000000 0.000000
# 2 -0.004511 0.015872 -0.003694 0.000000 0.000000 0.000000
# 3 -0.008595 -0.003694 0.031122 0.000000 0.000000 0.000000
# 4 0.000000 0.000000 0.000000 0.046359 0.000000 0.000000
# 5 0.000000 0.000000 0.000000 0.000000 -0.145360 0.000000
# 6 0.000000 0.000000 0.000000 0.000000 0.000000 0.027269
#
#
# Mechanical properties :
#
#
# Convention : Reuss Voigt Hill
#
# Bulk Modulus (GPa) = 45.11987 83.37818 64.24902
# Shear Modulus (GPa) = 199.81993 22.90720 111.36356
#
# Velocity S-wave (km/s) = 10.54519 3.57043 7.87239
# Velocity P-wave (km/s) = 13.16729 7.96228 10.88061
#
# Compressibility (1/GPa) = 0.02216319
#
# Stress axis : x y z
#
# Youngs Moduli (GPa) = 114.01570 63.00411 32.13155
#
# Poissons Ratio (x) = 0.28422 0.27618
# Poissons Ratio (y) = 0.51435 0.11871
# Poissons Ratio (z) = 0.97998 0.23277
#
# Static dielectric constant tensor:
#      x y z
#    x 1.644760 0.000000 0.000000 
#    y 0.000000 1.609310 0.000000 
#    z 0.000000 0.000000 1.585060 
# 
# From -- ./inp_files/35806.got.cif
#   From: 2010.05.17/outbox.cif.g08.bks.cpg/sg67_18_cif.got.tgz:35806.got - 2010.06.03 18:28:57.
