data_PCOD9501149
_publ_section_title
;
Structure prediction by ZEFSAII (Michael W. Deem and Ramdas Pophale) SiO2 
 PCOD9501149
Probable space group: C M M A
;
_chemical_formula_sum "Si O2"
_cell_formula_units_Z 112
_cell_length_a 25.366302
_cell_length_b 14.524717
_cell_length_c 17.688649
_cell_angle_alpha 90.000000
_cell_angle_beta 90.000000
_cell_angle_gamma 90.000000
_cell_volume 6517.176791
_symmetry_space_group_name_H-M "C M M A"
_symmetry_group_IT_number 67
_symmetry_cell_setting 'orthorhombic'
loop_
_space_group_symop_operation_xyz
x,y,z
-x,1/2-y,z
x,-y,-z
-x,1/2+y,-z
-x,-y,-z
x,1/2+y,-z
-x,y,z
x,1/2-y,z
1/2+x,1/2+y,z
1/2-x,-y,z
1/2+x,1/2-y,-z
1/2-x,y,-z
1/2-x,1/2-y,-z
1/2+x,y,-z
1/2-x,1/2+y,z
1/2+x,-y,z
loop_
_atom_site_type_symbol
_atom_site_label
_atom_site_fract_x
_atom_site_fract_y
_atom_site_fract_z
Si Si1 0.709530 0.860406 0.158817
Si Si2 0.167393 0.854324 0.996099
Si Si3 0.829631 0.640386 0.166545
Si Si4 0.388382 0.973148 0.217440
Si Si5 0.064068 0.145873 0.525810
Si Si6 0.936469 0.969015 0.620055
Si Si7 0.441140 0.918431 0.062327
O O1 0.700060 0.750000 0.159214
O O2 0.703849 0.891782 0.070919
O O3 0.768607 0.875851 0.187273
O O4 0.664025 0.912532 0.203391
O O5 0.185406 0.750000 0.009236
O O6 0.108244 0.856598 0.962733
O O7 0.165554 0.895200 0.079573
O O8 0.840415 0.750000 0.170039
O O9 0.869521 0.578997 0.213826
O O10 0.426969 0.953966 0.146373
O O11 0.413691 0.951377 0.297616
O O12 0.082740 0.250000 0.538493
O O13 0.079976 0.069044 0.587058
O O14 0.000000 0.147432 0.527090
O O15 0.079035 0.105837 0.443475
O O16 0.000000 0.968551 0.624124
O O17 0.500000 0.877464 0.061747
O O18 0.441031 0.000000 0.000000
#
# Coordination Sequence:
#
# PCOD9501149 Si02
#       7
#    16  16  16  16  16  16  16
#     4   9  19  32  48  68  92 121 161 215 262 292
#     4   9  17  31  48  65  85 117 168 218 255 292
#     4  10  19  32  47  67  92 122 164 214 260 294
#     4  11  20  31  48  72  99 132 164 199 241 290
#     4   8  15  31  54  76  99 127 156 190 236 286
#     4   9  18  31  49  76 106 131 157 191 232 283
#     4  10  19  31  44  61  93 135 173 202 232 274
#
# _framework density 17.185355999999999
#
# number of rings (size 3 to 8) (size 9 to 14) (size 15 to 20)
#    0.000    2.571    1.429    2.143    0.000    3.143 
#    0.000    1.429    0.000    3.857    0.000    8.000 
#    0.000   13.714    0.000    0.000    0.000    0.000 
#
# Total GULP energy -312026.557565 kJ/mol
# GULP energy per Si atom -5571.902814 kJ/mol
# Density = 1.714624 g / cm^3
# Si number density = 17.185356 Si / 1000 Ang^3
#
#
#
# Elastic Constant Matrix: (Units=GPa)
#
#
# Indices 1 2 3 4 5 6 
#
# 1 47.0703 -1.5243 4.0495 0.0000 0.0000 0.0000
# 2 -1.5243 49.6803 0.1808 0.0000 0.0000 0.0000
# 3 4.0495 0.1808 78.4847 0.0000 0.0000 0.0000
# 4 0.0000 0.0000 0.0000 10.9427 0.0000 0.0000
# 5 0.0000 0.0000 0.0000 0.0000 16.3910 0.0000
# 6 0.0000 0.0000 0.0000 0.0000 0.0000 16.0772
#
#
#
# Elastic Compliance Matrix: (Units=1/GPa)
#
#
# Indices 1 2 3 4 5 6 
#
# 1 0.021361 0.000659 -0.001104 0.000000 0.000000 0.000000
# 2 0.000659 0.020149 -0.000080 0.000000 0.000000 0.000000
# 3 -0.001104 -0.000080 0.012798 0.000000 0.000000 0.000000
# 4 0.000000 0.000000 0.000000 0.091385 0.000000 0.000000
# 5 0.000000 0.000000 0.000000 0.000000 0.061009 0.000000
# 6 0.000000 0.000000 0.000000 0.000000 0.000000 0.062200
#
#
# Mechanical properties :
#
#
# Convention : Reuss Voigt Hill
#
# Bulk Modulus (GPa) = 18.77601 20.07192 19.42396
# Shear Modulus (GPa) = 17.37886 20.18412 18.78149
#
# Velocity S-wave (km/s) = 3.18348 3.43081 3.30946
# Velocity P-wave (km/s) = 4.94591 5.23440 5.09220
#
# Compressibility (1/GPa) = 0.05325946
#
# Stress axis : x y z
#
# Youngs Moduli (GPa) = 46.81400 49.62964 78.13434
#
# Poissons Ratio (x) = -0.03273 0.08623
# Poissons Ratio (y) = -0.03087 0.00629
# Poissons Ratio (z) = 0.05167 0.00399
#
# Static dielectric constant tensor:
#      x y z
#    x 1.578860 0.000000 0.000000 
#    y 0.000000 1.624280 0.000000 
#    z 0.000000 0.000000 1.566790 
# 
# From -- ./inp_files/27868.got.cif
#   From: 2010.05.17/outbox.cif.g08.bks.cpg/sg67_14_cif.got.tgz:27868.got - 2010.06.03 18:28:57.
