data_PCOD9501876
_publ_section_title
;
Structure prediction by ZEFSAII (Michael W. Deem and Ramdas Pophale) SiO2 
 PCOD9501876
Probable space group: C M M A
;
_chemical_formula_sum "Si O2"
_cell_formula_units_Z 96
_cell_length_a 24.105204
_cell_length_b 8.105541
_cell_length_c 26.584756
_cell_angle_alpha 90.000000
_cell_angle_beta 90.000000
_cell_angle_gamma 90.000000
_cell_volume 5194.281674
_symmetry_space_group_name_H-M "C M M A"
_symmetry_group_IT_number 67
_symmetry_cell_setting 'orthorhombic'
loop_
_space_group_symop_operation_xyz
x,y,z
-x,1/2-y,z
x,-y,-z
-x,1/2+y,-z
-x,-y,-z
x,1/2+y,-z
-x,y,z
x,1/2-y,z
1/2+x,1/2+y,z
1/2-x,-y,z
1/2+x,1/2-y,-z
1/2-x,y,-z
1/2-x,1/2-y,-z
1/2+x,y,-z
1/2-x,1/2+y,z
1/2+x,-y,z
loop_
_atom_site_type_symbol
_atom_site_label
_atom_site_fract_x
_atom_site_fract_y
_atom_site_fract_z
Si Si1 0.563215 0.445400 0.556415
Si Si2 0.116562 0.058735 0.654517
Si Si3 0.000000 0.439337 0.188918
Si Si4 0.382640 0.557624 0.845488
Si Si5 0.813844 0.049636 0.749645
Si Si6 0.064050 0.449439 0.943106
Si Si7 0.500000 0.561759 0.308031
O O1 0.577157 0.500000 0.500000
O O2 0.500000 0.511049 0.567754
O O3 0.559335 0.250000 0.556620
O O4 0.608730 0.491934 0.598110
O O5 0.130345 0.250000 0.649954
O O6 0.156832 0.987728 0.698028
O O7 0.055068 0.031201 0.676073
O O8 0.054704 0.537367 0.174001
O O9 0.000000 0.250000 0.169119
O O10 0.000000 0.426338 0.248574
O O11 0.367337 0.750000 0.850377
O O12 0.344028 0.487535 0.800934
O O13 0.391181 0.488437 0.902060
O O14 0.819115 0.250000 0.749692
O O15 0.750000 0.000000 0.750165
O O16 0.063377 0.250000 0.940062
O O17 0.000000 0.505027 0.932499
O O18 0.076864 0.500000 0.000000
O O19 0.500000 0.750000 0.329063
#
# Coordination Sequence:
#
# PCOD9501876 Si02
#       7
#    16  16   8  16  16  16   8
#     4  10  20  33  51  79 115 149 180 214 258 311
#     4  11  21  34  55  79 107 144 179 215 263 321
#     4  11  21  29  46  79 110 137 170 215 264 314
#     4  10  19  35  54  74 104 144 178 211 263 323
#     4  10  23  39  57  78 102 137 181 224 270 319
#     4   9  17  29  48  73 106 141 172 210 254 311
#     4  11  21  31  46  77 112 141 171 211 265 316
#
# _framework density 18.481863000000001
#
# number of rings (size 3 to 8) (size 9 to 14) (size 15 to 20)
#    0.000    1.833    3.333    1.500    0.000    4.000 
#    0.000    0.000    0.000    1.000    0.000    7.000 
#    0.000    0.000    0.000    0.000    0.000    0.000 
#
# Total GULP energy -267397.783238 kJ/mol
# GULP energy per Si atom -5570.787151 kJ/mol
# Density = 1.843980 g / cm^3
# Si number density = 18.481863 Si / 1000 Ang^3
#
#
#
# Elastic Constant Matrix: (Units=GPa)
#
#
# Indices 1 2 3 4 5 6 
#
# 1 93.6901 -8.6885 66.3195 0.0000 0.0000 0.0000
# 2 -8.6885 16.7404 17.5135 0.0000 0.0000 0.0000
# 3 66.3195 17.5135 185.9158 0.0000 0.0000 0.0000
# 4 0.0000 0.0000 0.0000 27.3867 0.0000 0.0000
# 5 0.0000 0.0000 0.0000 0.0000 11.7654 0.0000
# 6 0.0000 0.0000 0.0000 0.0000 0.0000 8.9312
#
#
#
# Elastic Compliance Matrix: (Units=1/GPa)
#
#
# Indices 1 2 3 4 5 6 
#
# 1 0.018099 0.017914 -0.008144 0.000000 0.000000 0.000000
# 2 0.017914 0.083996 -0.014303 0.000000 0.000000 0.000000
# 3 -0.008144 -0.014303 0.009631 0.000000 0.000000 0.000000
# 4 0.000000 0.000000 0.000000 0.036514 0.000000 0.000000
# 5 0.000000 0.000000 0.000000 0.000000 0.084995 0.000000
# 6 0.000000 0.000000 0.000000 0.000000 0.000000 0.111967
#
#
# Mechanical properties :
#
#
# Convention : Reuss Voigt Hill
#
# Bulk Modulus (GPa) = 9.74075 49.62614 29.68345
# Shear Modulus (GPa) = 12.87037 24.36346 18.61691
#
# Velocity S-wave (km/s) = 2.64176 3.63469 3.17725
# Velocity P-wave (km/s) = 3.81930 6.67265 5.43651
#
# Compressibility (1/GPa) = 0.10266147
#
# Stress axis : x y z
#
# Youngs Moduli (GPa) = 55.25022 11.90527 103.82940
#
# Poissons Ratio (x) = -0.21327 0.84558
# Poissons Ratio (y) = -0.98974 1.48504
# Poissons Ratio (z) = 0.44995 0.17028
#
# Static dielectric constant tensor:
#      x y z
#    x 1.599490 0.000000 0.000000 
#    y 0.000000 1.686400 0.000000 
#    z 0.000000 0.000000 1.718570 
# 
# From -- ./inp_files/44802.got.cif
#   From: 2010.05.17/outbox.cif.g08.bks.cpg/sg67_23_cif.got.tgz:44802.got - 2010.06.03 18:28:57.
