data_PCOD9501558
_publ_section_title
;
Structure prediction by ZEFSAII (Michael W. Deem and Ramdas Pophale) SiO2 
 PCOD9501558
Probable space group: C M M A
;
_chemical_formula_sum "Si O2"
_cell_formula_units_Z 112
_cell_length_a 16.584419
_cell_length_b 25.018323
_cell_length_c 13.586419
_cell_angle_alpha 90.000000
_cell_angle_beta 90.000000
_cell_angle_gamma 90.000000
_cell_volume 5637.200226
_symmetry_space_group_name_H-M "C M M A"
_symmetry_group_IT_number 67
_symmetry_cell_setting 'orthorhombic'
loop_
_space_group_symop_operation_xyz
x,y,z
-x,1/2-y,z
x,-y,-z
-x,1/2+y,-z
-x,-y,-z
x,1/2+y,-z
-x,y,z
x,1/2-y,z
1/2+x,1/2+y,z
1/2-x,-y,z
1/2+x,1/2-y,-z
1/2-x,y,-z
1/2-x,1/2-y,-z
1/2+x,y,-z
1/2-x,1/2+y,z
1/2+x,-y,z
loop_
_atom_site_type_symbol
_atom_site_label
_atom_site_fract_x
_atom_site_fract_y
_atom_site_fract_z
Si Si1 0.343880 0.809965 0.969747
Si Si2 0.904854 0.978167 0.753142
Si Si3 0.904610 0.876915 0.860385
Si Si4 0.593825 0.420856 0.346931
Si Si5 0.904107 0.596891 0.562408
Si Si6 0.641934 0.309432 0.265152
Si Si7 0.170918 0.811023 0.683229
O O1 0.372990 0.750000 0.997444
O O2 0.353438 0.815123 0.852999
O O3 0.250000 0.812553 0.000000
O O4 0.388270 0.855455 0.031143
O O5 0.872792 0.936400 0.834230
O O6 0.896892 0.946255 0.649710
O O7 0.000000 0.984615 0.777582
O O8 0.869611 0.036677 0.730320
O O9 0.863858 0.835921 0.784106
O O10 0.000000 0.876431 0.840015
O O11 0.500000 0.436530 0.356927
O O12 0.627594 0.423301 0.457442
O O13 0.598273 0.360454 0.309670
O O14 0.859386 0.650187 0.597486
O O15 0.000000 0.608389 0.553268
O O16 0.608583 0.250000 0.286822
O O17 0.732874 0.311351 0.306458
O O18 0.143961 0.750000 0.670550
#
# Coordination Sequence:
#
# PCOD9501558 Si02
#       7
#    16  16  16  16  16  16  16
#     4  10  19  35  57  78 107 148 182 215 269 328
#     4   8  16  33  56  81 107 136 175 226 279 322
#     4  10  19  32  56  87 111 135 177 231 275 318
#     4  10  20  36  56  76 106 147 184 222 269 324
#     4   9  18  32  54  82 108 139 181 225 268 321
#     4  10  22  37  54  76 106 146 186 223 269 327
#     4  10  19  33  52  77 111 145 178 224 278 323
#
# _framework density 19.868019
#
# number of rings (size 3 to 8) (size 9 to 14) (size 15 to 20)
#    0.000    2.429    1.429    2.143    0.000    5.714 
#    0.000    7.857    0.000    6.857    0.000    0.000 
#    0.000    0.000    0.000    0.000    0.000    0.000 
#
# Total GULP energy -312257.041689 kJ/mol
# GULP energy per Si atom -5576.018602 kJ/mol
# Density = 1.982280 g / cm^3
# Si number density = 19.868019 Si / 1000 Ang^3
#
#
#
# Elastic Constant Matrix: (Units=GPa)
#
#
# Indices 1 2 3 4 5 6 
#
# 1 14.2206 9.3425 -1.2592 0.0000 0.0000 0.0000
# 2 9.3425 107.9651 18.8126 0.0000 0.0000 0.0000
# 3 -1.2592 18.8126 38.0502 0.0000 0.0000 0.0000
# 4 0.0000 0.0000 0.0000 21.3116 0.0000 0.0000
# 5 0.0000 0.0000 0.0000 0.0000 21.2823 0.0000
# 6 0.0000 0.0000 0.0000 0.0000 0.0000 31.9101
#
#
#
# Elastic Compliance Matrix: (Units=1/GPa)
#
#
# Indices 1 2 3 4 5 6 
#
# 1 0.075916 -0.007667 0.006303 0.000000 0.000000 0.000000
# 2 -0.007667 0.010910 -0.005648 0.000000 0.000000 0.000000
# 3 0.006303 -0.005648 0.029282 0.000000 0.000000 0.000000
# 4 0.000000 0.000000 0.000000 0.046923 0.000000 0.000000
# 5 0.000000 0.000000 0.000000 0.000000 0.046988 0.000000
# 6 0.000000 0.000000 0.000000 0.000000 0.000000 0.031338
#
#
# Mechanical properties :
#
#
# Convention : Reuss Voigt Hill
#
# Bulk Modulus (GPa) = 9.79592 23.78086 16.78839
# Shear Modulus (GPa) = 17.27666 23.79011 20.53338
#
# Velocity S-wave (km/s) = 2.95205 3.46411 3.21828
# Velocity P-wave (km/s) = 4.06948 5.29108 4.71997
#
# Compressibility (1/GPa) = 0.10208328
#
# Stress axis : x y z
#
# Youngs Moduli (GPa) = 13.17251 91.66042 34.15076
#
# Poissons Ratio (x) = 0.70280 -0.21526
# Poissons Ratio (y) = 0.10100 0.19287
# Poissons Ratio (z) = -0.08303 0.51767
#
# Static dielectric constant tensor:
#      x y z
#    x 1.707030 0.000000 0.000000 
#    y 0.000000 1.727700 0.000000 
#    z 0.000000 0.000000 1.708670 
# 
# From -- ./inp_files/27483.got.cif
#   From: 2010.05.17/outbox.cif.g08.bks.cpg/sg67_14_cif.got.tgz:27483.got - 2010.06.03 18:28:57.
