data_PCOD9501500
_publ_section_title
;
Structure prediction by ZEFSAII (Michael W. Deem and Ramdas Pophale) SiO2 
 PCOD9501500
Probable space group: C M M A
;
_chemical_formula_sum "Si O2"
_cell_formula_units_Z 120
_cell_length_a 27.548823
_cell_length_b 8.850340
_cell_length_c 28.652187
_cell_angle_alpha 90.000000
_cell_angle_beta 90.000000
_cell_angle_gamma 90.000000
_cell_volume 6985.874523
_symmetry_space_group_name_H-M "C M M A"
_symmetry_group_IT_number 67
_symmetry_cell_setting 'orthorhombic'
loop_
_space_group_symop_operation_xyz
x,y,z
-x,1/2-y,z
x,-y,-z
-x,1/2+y,-z
-x,-y,-z
x,1/2+y,-z
-x,y,z
x,1/2-y,z
1/2+x,1/2+y,z
1/2-x,-y,z
1/2+x,1/2-y,-z
1/2-x,y,-z
1/2-x,1/2-y,-z
1/2+x,y,-z
1/2-x,1/2+y,z
1/2+x,-y,z
loop_
_atom_site_type_symbol
_atom_site_label
_atom_site_fract_x
_atom_site_fract_y
_atom_site_fract_z
Si Si1 0.197083 0.430838 0.109680
Si Si2 0.000000 0.431502 0.948141
Si Si3 0.197746 0.929738 0.780514
Si Si4 0.351176 0.930978 0.694653
Si Si5 0.053786 0.431250 0.639040
Si Si6 0.607555 0.432299 0.052252
Si Si7 0.601963 0.070090 0.550564
Si Si8 0.699439 0.069525 0.606058
O O1 0.198636 0.250000 0.102850
O O2 0.250000 0.500000 0.097246
O O3 0.188942 0.461615 0.164845
O O4 0.152518 0.501723 0.081235
O O5 0.053308 0.472998 0.928020
O O6 0.000000 0.250000 0.951392
O O7 0.000000 0.500000 0.000000
O O8 0.199194 0.750000 0.774202
O O9 0.250000 0.000000 0.768627
O O10 0.159808 0.002547 0.745163
O O11 0.346518 0.750000 0.695188
O O12 0.404316 0.973560 0.675398
O O13 0.314555 0.999192 0.656193
O O14 0.056221 0.250000 0.633309
O O15 0.065799 0.505588 0.589478
O O16 0.000000 0.472788 0.654798
O O17 0.611050 0.250000 0.050459
O O18 0.610024 0.500000 0.000000
O O19 0.597593 0.250000 0.548166
O O20 0.655605 0.032694 0.570721
O O21 0.594440 0.000000 0.500000
O O22 0.702805 0.250000 0.610298
O O23 0.750000 0.000000 0.590028
#
# Coordination Sequence:
#
# PCOD9501500 Si02
#       8
#    16   8  16  16  16  16  16  16
#     4  10  21  36  53  76 106 142 180 220 266 316
#     4   8  16  30  50  76 102 132 172 216 262 306
#     4  10  20  34  53  76 104 135 169 207 250 300
#     4  10  19  32  53  77 100 127 161 203 248 295
#     4   9  19  36  56  76  98 126 162 204 248 293
#     4  10  19  33  54  79 108 141 180 224 268 316
#     4  10  21  35  51  72  98 129 164 201 242 290
#     4  10  20  33  49  71  99 129 162 199 241 291
#
# _framework density 17.177520999999999
#
# number of rings (size 3 to 8) (size 9 to 14) (size 15 to 20)
#    0.000    2.267    0.000    2.800    0.000    5.333 
#    0.000    2.667    1.467    0.000    0.000    0.000 
#    0.000    0.000    0.000    0.000    0.000    0.000 
#
# Total GULP energy -334679.856832 kJ/mol
# GULP energy per Si atom -5577.997614 kJ/mol
# Density = 1.713842 g / cm^3
# Si number density = 17.177521 Si / 1000 Ang^3
#
#
#
# Elastic Constant Matrix: (Units=GPa)
#
#
# Indices 1 2 3 4 5 6 
#
# 1 129.6171 43.8268 61.3474 0.0000 0.0000 0.0000
# 2 43.8268 44.7889 38.1864 0.0000 0.0000 0.0000
# 3 61.3474 38.1864 75.4886 0.0000 0.0000 0.0000
# 4 0.0000 0.0000 0.0000 26.9325 0.0000 0.0000
# 5 0.0000 0.0000 0.0000 0.0000 8.1944 0.0000
# 6 0.0000 0.0000 0.0000 0.0000 0.0000 20.0816
#
#
#
# Elastic Compliance Matrix: (Units=1/GPa)
#
#
# Indices 1 2 3 4 5 6 
#
# 1 0.013636 -0.006849 -0.007617 0.000000 0.000000 0.000000
# 2 -0.006849 0.042699 -0.016033 0.000000 0.000000 0.000000
# 3 -0.007617 -0.016033 0.027548 0.000000 0.000000 0.000000
# 4 0.000000 0.000000 0.000000 0.037130 0.000000 0.000000
# 5 0.000000 0.000000 0.000000 0.000000 0.122034 0.000000
# 6 0.000000 0.000000 0.000000 0.000000 0.000000 0.049797
#
#
# Mechanical properties :
#
#
# Convention : Reuss Voigt Hill
#
# Bulk Modulus (GPa) = 43.69930 59.62397 51.66163
# Shear Modulus (GPa) = 13.83242 18.14397 15.98819
#
# Velocity S-wave (km/s) = 2.84079 3.25354 3.05415
# Velocity P-wave (km/s) = 6.02123 6.99285 6.52515
#
# Compressibility (1/GPa) = 0.02288366
#
# Stress axis : x y z
#
# Youngs Moduli (GPa) = 73.33588 23.41994 36.30058
#
# Poissons Ratio (x) = 0.16040 0.27650
# Poissons Ratio (y) = 0.50227 0.58203
# Poissons Ratio (z) = 0.55860 0.37550
#
# Static dielectric constant tensor:
#      x y z
#    x 1.600740 0.000000 0.000000 
#    y 0.000000 1.572200 0.000000 
#    z 0.000000 0.000000 1.553840 
# 
# From -- ./inp_files/44992.got.cif
#   From: 2010.05.17/outbox.cif.g08.bks.cpg/sg67_23_cif.got.tgz:44992.got - 2010.06.03 18:28:57.
