data_PCOD9501987
_publ_section_title
;
Structure prediction by ZEFSAII (Michael W. Deem and Ramdas Pophale) SiO2 
 PCOD9501987
Probable space group: C M M A
;
_chemical_formula_sum "Si O2"
_cell_formula_units_Z 80
_cell_length_a 29.312524
_cell_length_b 8.952779
_cell_length_c 15.753752
_cell_angle_alpha 90.000000
_cell_angle_beta 90.000000
_cell_angle_gamma 90.000000
_cell_volume 4134.234283
_symmetry_space_group_name_H-M "C M M A"
_symmetry_group_IT_number 67
_symmetry_cell_setting 'orthorhombic'
loop_
_space_group_symop_operation_xyz
x,y,z
-x,1/2-y,z
x,-y,-z
-x,1/2+y,-z
-x,-y,-z
x,1/2+y,-z
-x,y,z
x,1/2-y,z
1/2+x,1/2+y,z
1/2-x,-y,z
1/2+x,1/2-y,-z
1/2-x,y,-z
1/2-x,1/2-y,-z
1/2+x,y,-z
1/2-x,1/2+y,z
1/2+x,-y,z
loop_
_atom_site_type_symbol
_atom_site_label
_atom_site_fract_x
_atom_site_fract_y
_atom_site_fract_z
Si Si1 0.202005 0.572325 0.145554
Si Si2 0.297265 0.427024 0.349157
Si Si3 0.395208 0.429879 0.412627
Si Si4 0.945692 0.073607 0.760855
Si Si5 0.391330 0.572315 0.086732
O O1 0.201593 0.750000 0.129768
O O2 0.250000 0.500000 0.119157
O O3 0.197592 0.548690 0.247609
O O4 0.159190 0.493486 0.102532
O O5 0.293972 0.250000 0.362162
O O6 0.250000 0.500000 0.377396
O O7 0.343242 0.481575 0.394072
O O8 0.411821 0.500000 0.500000
O O9 0.394980 0.250000 0.419379
O O10 0.425339 0.468680 0.330733
O O11 0.934554 0.250000 0.774255
O O12 0.000000 0.056885 0.761967
O O13 0.921852 0.979782 0.834313
O O14 0.389725 0.750000 0.080131
O O15 0.409381 0.500000 0.000000
#
# Coordination Sequence:
#
# PCOD9501987 Si02
#       5
#    16  16  16  16  16
#     4  10  19  36  60  89 125 164 207 250 300 358
#     4   9  18  33  55  82 119 159 200 244 293 350
#     4  10  21  38  59  89 123 160 201 249 301 360
#     4  10  22  44  69  89 118 159 201 253 315 370
#     4  12  25  41  64  93 125 161 203 251 304 365
#
# _framework density 19.350622000000001
#
# number of rings (size 3 to 8) (size 9 to 14) (size 15 to 20)
#    0.000    1.800    2.000    2.400    0.000    4.400 
#    0.000    4.000    0.000    0.000    0.000    0.000 
#    0.000    0.000    0.000    0.000    0.000    0.000 
#
# Total GULP energy -223582.522737 kJ/mol
# GULP energy per Si atom -5589.563068 kJ/mol
# Density = 1.930658 g / cm^3
# Si number density = 19.350622 Si / 1000 Ang^3
#
#
#
# Elastic Constant Matrix: (Units=GPa)
#
#
# Indices 1 2 3 4 5 6 
#
# 1 72.2851 45.9594 51.5643 0.0000 0.0000 0.0000
# 2 45.9594 83.8961 70.4500 0.0000 0.0000 0.0000
# 3 51.5643 70.4500 128.9444 0.0000 0.0000 0.0000
# 4 0.0000 0.0000 0.0000 28.4761 0.0000 0.0000
# 5 0.0000 0.0000 0.0000 0.0000 -8.4615 0.0000
# 6 0.0000 0.0000 0.0000 0.0000 0.0000 21.5221
#
#
#
# Elastic Compliance Matrix: (Units=1/GPa)
#
#
# Indices 1 2 3 4 5 6 
#
# 1 0.022373 -0.008764 -0.004158 0.000000 0.000000 0.000000
# 2 -0.008764 0.025457 -0.010404 0.000000 0.000000 0.000000
# 3 -0.004158 -0.010404 0.015103 0.000000 0.000000 0.000000
# 4 0.000000 0.000000 0.000000 0.035117 0.000000 0.000000
# 5 0.000000 0.000000 0.000000 0.000000 -0.118182 0.000000
# 6 0.000000 0.000000 0.000000 0.000000 0.000000 0.046464
#
#
# Mechanical properties :
#
#
# Convention : Reuss Voigt Hill
#
# Bulk Modulus (GPa) = 61.42753 69.00809 65.21781
# Shear Modulus (GPa) = 63.76625 16.11747 39.94186
#
# Velocity S-wave (km/s) = 5.74670 2.88916 4.54818
# Velocity P-wave (km/s) = 8.70897 6.84610 7.83311
#
# Compressibility (1/GPa) = 0.01627935
#
# Stress axis : x y z
#
# Youngs Moduli (GPa) = 44.69708 39.28154 66.21399
#
# Poissons Ratio (x) = 0.34427 0.27534
# Poissons Ratio (y) = 0.39174 0.68889
# Poissons Ratio (z) = 0.18587 0.40869
#
# Static dielectric constant tensor:
#      x y z
#    x 1.659650 0.000000 0.000000 
#    y 0.000000 1.646500 0.000000 
#    z 0.000000 0.000000 1.687600 
# 
# From -- ./inp_files/32314.got.cif
#   From: 2010.05.17/outbox.cif.g08.bks.cpg/sg67_17_cif.got.tgz:32314.got - 2010.06.03 18:28:57.
