data_PCOD9501058
_publ_section_title
;
Structure prediction by ZEFSAII (Michael W. Deem and Ramdas Pophale) SiO2 
 PCOD9501058
Probable space group: C M M A
;
_chemical_formula_sum "Si O2"
_cell_formula_units_Z 96
_cell_length_a 8.318033
_cell_length_b 28.439111
_cell_length_c 20.364546
_cell_angle_alpha 90.000000
_cell_angle_beta 90.000000
_cell_angle_gamma 90.000000
_cell_volume 4817.385353
_symmetry_space_group_name_H-M "C M M A"
_symmetry_group_IT_number 67
_symmetry_cell_setting 'orthorhombic'
loop_
_space_group_symop_operation_xyz
x,y,z
-x,1/2-y,z
x,-y,-z
-x,1/2+y,-z
-x,-y,-z
x,1/2+y,-z
-x,y,z
x,1/2-y,z
1/2+x,1/2+y,z
1/2-x,-y,z
1/2+x,1/2-y,-z
1/2-x,y,-z
1/2-x,1/2-y,-z
1/2+x,y,-z
1/2-x,1/2+y,z
1/2+x,-y,z
loop_
_atom_site_type_symbol
_atom_site_label
_atom_site_fract_x
_atom_site_fract_y
_atom_site_fract_z
Si Si1 0.696283 0.305001 0.709095
Si Si2 0.819811 0.449500 0.584086
Si Si3 0.817210 0.127551 0.181300
Si Si4 0.312568 0.847473 0.429769
Si Si5 0.693473 0.946881 0.074510
Si Si6 0.181159 0.950456 0.259241
O O1 0.500000 0.310268 0.710505
O O2 0.733660 0.250000 0.707978
O O3 0.756160 0.329019 0.777323
O O4 0.755083 0.328103 0.640113
O O5 0.750000 0.500000 0.565753
O O6 0.717421 0.403483 0.568968
O O7 0.829343 0.450934 0.662799
O O8 0.000000 0.443461 0.557511
O O9 0.748166 0.096494 0.120714
O O10 0.807831 0.088284 0.237943
O O11 0.000000 0.140057 0.162985
O O12 0.500000 0.837117 0.428156
O O13 0.250000 0.828558 0.500000
O O14 0.500000 0.947236 0.078170
O O15 0.750000 0.000000 0.092202
O O16 0.750000 0.939015 0.000000
O O17 0.000000 0.941585 0.233837
O O18 0.250000 0.000000 0.236992
#
# Coordination Sequence:
#
# PCOD9501058 Si02
#       6
#    16  16  16  16  16  16
#     4   9  19  37  60  83 106 136 179 232 285 333
#     4  10  20  34  52  76 107 141 178 216 263 321
#     4  10  19  33  55  81 108 142 185 226 269 321
#     4  11  22  37  58  80 108 142 180 226 278 336
#     4  10  20  33  52  80 117 155 187 220 258 310
#     4  10  19  29  47  75 107 139 173 214 260 312
#
# _framework density 19.927823
#
# number of rings (size 3 to 8) (size 9 to 14) (size 15 to 20)
#    0.000    2.000    1.667    3.000    0.000    4.667 
#    0.000    1.667    0.000    4.500    0.000    0.000 
#    0.000    0.000    0.000    0.000    0.000    0.667 
#
# Total GULP energy -267380.928751 kJ/mol
# GULP energy per Si atom -5570.436016 kJ/mol
# Density = 1.988247 g / cm^3
# Si number density = 19.927823 Si / 1000 Ang^3
#
#
#
# Elastic Constant Matrix: (Units=GPa)
#
#
# Indices 1 2 3 4 5 6 
#
# 1 34.4282 -9.4387 15.1394 0.0000 0.0000 0.0000
# 2 -9.4387 102.5383 56.1083 0.0000 0.0000 0.0000
# 3 15.1394 56.1083 155.6561 0.0000 0.0000 0.0000
# 4 0.0000 0.0000 0.0000 45.0663 0.0000 0.0000
# 5 0.0000 0.0000 0.0000 0.0000 11.3972 0.0000
# 6 0.0000 0.0000 0.0000 0.0000 0.0000 13.3991
#
#
#
# Elastic Compliance Matrix: (Units=1/GPa)
#
#
# Indices 1 2 3 4 5 6 
#
# 1 0.033047 0.005980 -0.005370 0.000000 0.000000 0.000000
# 2 0.005980 0.013231 -0.005351 0.000000 0.000000 0.000000
# 3 -0.005370 -0.005351 0.008876 0.000000 0.000000 0.000000
# 4 0.000000 0.000000 0.000000 0.022190 0.000000 0.000000
# 5 0.000000 0.000000 0.000000 0.000000 0.087741 0.000000
# 6 0.000000 0.000000 0.000000 0.000000 0.000000 0.074632
#
#
# Mechanical properties :
#
#
# Convention : Reuss Voigt Hill
#
# Bulk Modulus (GPa) = 21.89508 46.24897 34.07203
# Shear Modulus (GPa) = 18.90926 29.36010 24.13468
#
# Velocity S-wave (km/s) = 3.08374 3.84255 3.48387
# Velocity P-wave (km/s) = 4.86727 6.55329 5.77217
#
# Compressibility (1/GPa) = 0.04567235
#
# Stress axis : x y z
#
# Youngs Moduli (GPa) = 30.26007 75.58044 112.66947
#
# Poissons Ratio (x) = -0.45200 0.60502
# Poissons Ratio (y) = -0.18097 0.60289
# Poissons Ratio (z) = 0.16249 0.40443
#
# Static dielectric constant tensor:
#      x y z
#    x 1.715320 0.000000 0.000000 
#    y 0.000000 1.696950 0.000000 
#    z 0.000000 0.000000 1.768930 
# 
# From -- ./inp_files/37219.got.cif
#   From: 2010.05.17/outbox.cif.g08.bks.cpg/sg67_19_cif.got.tgz:37219.got - 2010.06.03 18:28:57.
