data_PCOD9501352
_publ_section_title
;
Structure prediction by ZEFSAII (Michael W. Deem and Ramdas Pophale) SiO2 
 PCOD9501352
Probable space group: C M M A
;
_chemical_formula_sum "Si O2"
_cell_formula_units_Z 104
_cell_length_a 9.816593
_cell_length_b 31.356063
_cell_length_c 18.792541
_cell_angle_alpha 90.000000
_cell_angle_beta 90.000000
_cell_angle_gamma 90.000000
_cell_volume 5784.526568
_symmetry_space_group_name_H-M "C M M A"
_symmetry_group_IT_number 67
_symmetry_cell_setting 'orthorhombic'
loop_
_space_group_symop_operation_xyz
x,y,z
-x,1/2-y,z
x,-y,-z
-x,1/2+y,-z
-x,-y,-z
x,1/2+y,-z
-x,y,z
x,1/2-y,z
1/2+x,1/2+y,z
1/2-x,-y,z
1/2+x,1/2-y,-z
1/2-x,y,-z
1/2-x,1/2-y,-z
1/2+x,y,-z
1/2-x,1/2+y,z
1/2+x,-y,z
loop_
_atom_site_type_symbol
_atom_site_label
_atom_site_fract_x
_atom_site_fract_y
_atom_site_fract_z
Si Si1 0.664939 0.914135 0.069636
Si Si2 0.155705 0.250000 0.931775
Si Si3 0.261233 0.893883 0.416255
Si Si4 0.657013 0.960642 0.216265
Si Si5 0.000000 0.552376 0.406049
Si Si6 0.160147 0.865266 0.724873
Si Si7 0.000000 0.040252 0.424090
Si Si8 0.336970 0.660248 0.853862
O O1 0.500000 0.907081 0.058402
O O2 0.678463 0.948312 0.133231
O O3 0.745157 0.872135 0.098662
O O4 0.750000 0.927283 0.000000
O O5 0.175553 0.292658 0.886018
O O6 0.000000 0.250000 0.956989
O O7 0.250000 0.250000 0.000000
O O8 0.250000 0.881335 0.500000
O O9 0.305281 0.859227 0.358302
O O10 0.370202 0.931483 0.409084
O O11 0.125540 0.917427 0.391964
O O12 0.500000 0.972450 0.224708
O O13 0.678876 0.915665 0.256379
O O14 0.750000 0.000000 0.238259
O O15 0.000000 0.503692 0.380550
O O16 0.000000 0.540767 0.489994
O O17 0.265502 0.841854 0.776678
O O18 0.000000 0.855670 0.739045
O O19 0.500000 0.648956 0.852554
#
# Coordination Sequence:
#
# PCOD9501352 Si02
#       8
#    16   8  16  16   8  16   8  16
#     4  10  20  35  54  77 105 138 174 218 263 306
#     4  10  22  38  60  94 125 144 169 204 247 308
#     4  10  19  32  49  70  99 135 181 232 278 329
#     4   9  20  35  49  67  95 132 178 225 268 311
#     4   9  18  26  44  66  94 127 179 222 288 335
#     4  10  21  38  52  72 106 144 179 224 274 319
#     4   9  16  30  42  64  96 133 165 232 286 333
#     4  10  21  37  58  83 113 143 173 207 253 317
#
# _framework density 17.978999999999999
#
# number of rings (size 3 to 8) (size 9 to 14) (size 15 to 20)
#    0.000    2.308    0.769    2.769    1.077    8.923 
#    0.000    1.538    0.000    0.000    0.000    0.538 
#    0.000    0.000    0.000    0.000    0.000    0.000 
#
# Total GULP energy -289644.137883 kJ/mol
# GULP energy per Si atom -5570.079575 kJ/mol
# Density = 1.793808 g / cm^3
# Si number density = 17.979000 Si / 1000 Ang^3
#
#
#
# Elastic Constant Matrix: (Units=GPa)
#
#
# Indices 1 2 3 4 5 6 
#
# 1 141.1138 38.5895 39.1086 0.0000 0.0000 0.0000
# 2 38.5895 44.3599 12.1180 0.0000 0.0000 0.0000
# 3 39.1086 12.1180 110.6969 0.0000 0.0000 0.0000
# 4 0.0000 0.0000 0.0000 7.1698 0.0000 0.0000
# 5 0.0000 0.0000 0.0000 0.0000 33.6055 0.0000
# 6 0.0000 0.0000 0.0000 0.0000 0.0000 24.1828
#
#
#
# Elastic Compliance Matrix: (Units=1/GPa)
#
#
# Indices 1 2 3 4 5 6 
#
# 1 0.010006 -0.007977 -0.002662 0.000000 0.000000 0.000000
# 2 -0.007977 0.029597 -0.000422 0.000000 0.000000 0.000000
# 3 -0.002662 -0.000422 0.010020 0.000000 0.000000 0.000000
# 4 0.000000 0.000000 0.000000 0.139475 0.000000 0.000000
# 5 0.000000 0.000000 0.000000 0.000000 0.029757 0.000000
# 6 0.000000 0.000000 0.000000 0.000000 0.000000 0.041352
#
#
# Mechanical properties :
#
#
# Convention : Reuss Voigt Hill
#
# Bulk Modulus (GPa) = 36.36060 52.86698 44.61379
# Shear Modulus (GPa) = 17.15296 26.74857 21.95077
#
# Velocity S-wave (km/s) = 3.09213 3.86134 3.49794
# Velocity P-wave (km/s) = 5.74597 7.02486 6.41735
#
# Compressibility (1/GPa) = 0.02750230
#
# Stress axis : x y z
#
# Youngs Moduli (GPa) = 99.94466 33.78681 99.79828
#
# Poissons Ratio (x) = 0.26951 0.26563
# Poissons Ratio (y) = 0.79725 0.04210
# Poissons Ratio (z) = 0.26602 0.01425
#
# Static dielectric constant tensor:
#      x y z
#    x 1.525510 0.000000 0.000000 
#    y 0.000000 1.633290 0.000000 
#    z 0.000000 0.000000 1.723240 
# 
# From -- ./inp_files/37591.got.cif
#   From: 2010.05.17/outbox.cif.g08.bks.cpg/sg67_19_cif.got.tgz:37591.got - 2010.06.03 18:28:57.
