data_PCOD9501968
_publ_section_title
;
Structure prediction by ZEFSAII (Michael W. Deem and Ramdas Pophale) SiO2 
 PCOD9501968
Probable space group: C M M A
;
_chemical_formula_sum "Si O2"
_cell_formula_units_Z 80
_cell_length_a 31.453168
_cell_length_b 17.945714
_cell_length_c 7.242847
_cell_angle_alpha 90.000000
_cell_angle_beta 90.000000
_cell_angle_gamma 90.000000
_cell_volume 4088.221783
_symmetry_space_group_name_H-M "C M M A"
_symmetry_group_IT_number 67
_symmetry_cell_setting 'orthorhombic'
loop_
_space_group_symop_operation_xyz
x,y,z
-x,1/2-y,z
x,-y,-z
-x,1/2+y,-z
-x,-y,-z
x,1/2+y,-z
-x,y,z
x,1/2-y,z
1/2+x,1/2+y,z
1/2-x,-y,z
1/2+x,1/2-y,-z
1/2-x,y,-z
1/2-x,1/2-y,-z
1/2+x,y,-z
1/2-x,1/2+y,z
1/2+x,-y,z
loop_
_atom_site_type_symbol
_atom_site_label
_atom_site_fract_x
_atom_site_fract_y
_atom_site_fract_z
Si Si1 0.373823 0.575679 0.749588
Si Si2 0.453039 0.023694 0.715069
Si Si3 0.908694 0.333669 0.396831
Si Si4 0.295038 0.524911 0.213887
Si Si5 0.664911 0.333233 0.905276
O O1 0.414743 0.524783 0.800455
O O2 0.389102 0.626655 0.578853
O O3 0.335737 0.517757 0.702596
O O4 0.355539 0.626142 0.915849
O O5 0.500000 0.009466 0.790815
O O6 0.442306 0.110971 0.699001
O O7 0.453385 0.000000 0.500000
O O8 0.924209 0.250000 0.439684
O O9 0.871732 0.328114 0.246630
O O10 0.250000 0.500000 0.293189
O O11 0.300824 0.613224 0.193108
O O12 0.295420 0.500000 0.000000
O O13 0.680034 0.250000 0.951485
#
# Coordination Sequence:
#
# PCOD9501968 Si02
#       5
#    16  16  16  16  16
#     4  10  19  36  57  78 109 147 187 226 274 337
#     4   9  18  33  56  82 107 143 188 228 273 330
#     4  10  20  34  54  80 111 144 181 228 278 328
#     4   9  18  34  57  83 108 145 191 229 276 337
#     4  10  20  35  56  81 112 145 179 228 279 324
#
# _framework density 19.56841
#
# number of rings (size 3 to 8) (size 9 to 14) (size 15 to 20)
#    0.000    2.400    2.000    0.600    0.000    0.400 
#    0.000   13.000    0.000    5.400    0.000    0.000 
#    0.000    0.000    0.000    0.000    0.000    0.000 
#
# Total GULP energy -222872.643281 kJ/mol
# GULP energy per Si atom -5571.816082 kJ/mol
# Density = 1.952387 g / cm^3
# Si number density = 19.568410 Si / 1000 Ang^3
#
#
#
# Elastic Constant Matrix: (Units=GPa)
#
#
# Indices 1 2 3 4 5 6 
#
# 1 113.7525 61.4874 0.6182 0.0000 0.0000 0.0000
# 2 61.4874 175.4939 24.2889 0.0000 0.0000 0.0000
# 3 0.6182 24.2889 75.3622 0.0000 0.0000 0.0000
# 4 0.0000 0.0000 0.0000 30.4604 0.0000 0.0000
# 5 0.0000 0.0000 0.0000 0.0000 9.8760 0.0000
# 6 0.0000 0.0000 0.0000 0.0000 0.0000 28.8408
#
#
#
# Elastic Compliance Matrix: (Units=1/GPa)
#
#
# Indices 1 2 3 4 5 6 
#
# 1 0.010948 -0.004002 0.001200 0.000000 0.000000 0.000000
# 2 -0.004002 0.007427 -0.002361 0.000000 0.000000 0.000000
# 3 0.001200 -0.002361 0.014020 0.000000 0.000000 0.000000
# 4 0.000000 0.000000 0.000000 0.032830 0.000000 0.000000
# 5 0.000000 0.000000 0.000000 0.000000 0.101255 0.000000
# 6 0.000000 0.000000 0.000000 0.000000 0.000000 0.034673
#
#
# Mechanical properties :
#
#
# Convention : Reuss Voigt Hill
#
# Bulk Modulus (GPa) = 45.31129 59.71085 52.51107
# Shear Modulus (GPa) = 22.84828 32.38304 27.61566
#
# Velocity S-wave (km/s) = 3.42074 4.07241 3.76072
# Velocity P-wave (km/s) = 6.22957 7.25899 6.76389
#
# Compressibility (1/GPa) = 0.02206956
#
# Stress axis : x y z
#
# Youngs Moduli (GPa) = 91.34427 134.64311 71.32514
#
# Poissons Ratio (x) = 0.53881 -0.08559
# Poissons Ratio (y) = 0.36554 0.16839
# Poissons Ratio (z) = -0.10961 0.31788
#
# Static dielectric constant tensor:
#      x y z
#    x 1.713320 0.000000 0.000000 
#    y 0.000000 1.749940 0.000000 
#    z 0.000000 0.000000 1.709850 
# 
# From -- ./inp_files/13528.got.cif
#   From: 2010.05.17/outbox.cif.g08.bks.cpg/sg67_7_cif.got.tgz:13528.got - 2010.06.03 18:28:57.
