data_PCOD9501098
_publ_section_title
;
Structure prediction by ZEFSAII (Michael W. Deem and Ramdas Pophale) SiO2 
 PCOD9501098
Probable space group: C M M A
;
_chemical_formula_sum "Si O2"
_cell_formula_units_Z 112
_cell_length_a 18.538617
_cell_length_b 14.312752
_cell_length_c 19.435548
_cell_angle_alpha 90.000000
_cell_angle_beta 90.000000
_cell_angle_gamma 90.000000
_cell_volume 5157.001632
_symmetry_space_group_name_H-M "C M M A"
_symmetry_group_IT_number 67
_symmetry_cell_setting 'orthorhombic'
loop_
_space_group_symop_operation_xyz
x,y,z
-x,1/2-y,z
x,-y,-z
-x,1/2+y,-z
-x,-y,-z
x,1/2+y,-z
-x,y,z
x,1/2-y,z
1/2+x,1/2+y,z
1/2-x,-y,z
1/2+x,1/2-y,-z
1/2-x,y,-z
1/2-x,1/2-y,-z
1/2+x,y,-z
1/2-x,1/2+y,z
1/2+x,-y,z
loop_
_atom_site_type_symbol
_atom_site_label
_atom_site_fract_x
_atom_site_fract_y
_atom_site_fract_z
Si Si1 0.079238 0.136048 0.020210
Si Si2 0.078172 0.860861 0.208903
Si Si3 0.811219 0.635524 0.096885
Si Si4 0.727738 0.889484 0.573808
Si Si5 0.416410 0.931284 0.637624
Si Si6 0.342828 0.137558 0.850464
Si Si7 0.687457 0.923122 0.302948
O O1 0.080202 0.250000 0.018398
O O2 0.093346 0.106850 0.098880
O O3 0.000000 0.107589 0.995674
O O4 0.143492 0.106120 0.969608
O O5 0.076322 0.750000 0.196903
O O6 0.143004 0.896929 0.163071
O O7 0.087173 0.877633 0.289595
O O8 0.000000 0.900055 0.188859
O O9 0.809259 0.750000 0.094901
O O10 0.729791 0.606364 0.110005
O O11 0.750000 0.851216 0.500000
O O12 0.642020 0.885191 0.586760
O O13 0.771426 0.857136 0.641756
O O14 0.750000 0.000000 0.571595
O O15 0.500000 0.935206 0.615562
O O16 0.380425 0.030596 0.657540
O O17 0.343177 0.250000 0.851043
O O18 0.339284 0.111487 0.770639
O O19 0.750000 0.000000 0.287738
#
# Coordination Sequence:
#
# PCOD9501098 Si02
#       7
#    16  16  16  16  16  16  16
#     4   9  17  28  42  63  90 117 149 195 242 270
#     4   9  16  26  44  71  98 121 147 186 234 275
#     4   9  15  25  43  66  88 112 151 198 233 266
#     4   8  15  30  48  67  93 119 145 185 231 266
#     4   9  17  29  48  72  95 122 154 184 221 275
#     4  10  19  30  47  68  89 119 158 191 224 275
#     4   9  18  32  48  67  93 122 148 183 232 273
#
# _framework density 21.718046999999999
#
# number of rings (size 3 to 8) (size 9 to 14) (size 15 to 20)
#    0.000    3.286    0.000    2.571    0.000    4.000 
#    0.000    5.714    0.000    7.714    0.000    6.000 
#    0.000    0.000    0.000    0.000    0.000    0.000 
#
# Total GULP energy -312217.615241 kJ/mol
# GULP energy per Si atom -5575.314558 kJ/mol
# Density = 2.166862 g / cm^3
# Si number density = 21.718047 Si / 1000 Ang^3
#
#
#
# Elastic Constant Matrix: (Units=GPa)
#
#
# Indices 1 2 3 4 5 6 
#
# 1 119.6532 -13.1386 58.2741 0.0000 0.0000 0.0000
# 2 -13.1386 42.1795 1.7800 0.0000 0.0000 0.0000
# 3 58.2741 1.7800 125.9453 0.0000 0.0000 0.0000
# 4 0.0000 0.0000 0.0000 36.9102 0.0000 0.0000
# 5 0.0000 0.0000 0.0000 0.0000 20.6429 0.0000
# 6 0.0000 0.0000 0.0000 0.0000 0.0000 3.2403
#
#
#
# Elastic Compliance Matrix: (Units=1/GPa)
#
#
# Indices 1 2 3 4 5 6 
#
# 1 0.011355 0.003761 -0.005307 0.000000 0.000000 0.000000
# 2 0.003761 0.024968 -0.002093 0.000000 0.000000 0.000000
# 3 -0.005307 -0.002093 0.010425 0.000000 0.000000 0.000000
# 4 0.000000 0.000000 0.000000 0.027093 0.000000 0.000000
# 5 0.000000 0.000000 0.000000 0.000000 0.048443 0.000000
# 6 0.000000 0.000000 0.000000 0.000000 0.000000 0.308614
#
#
# Mechanical properties :
#
#
# Convention : Reuss Voigt Hill
#
# Bulk Modulus (GPa) = 25.33572 42.40101 33.86837
# Shear Modulus (GPa) = 11.07829 28.21617 19.64723
#
# Velocity S-wave (km/s) = 2.26098 3.60836 3.01100
# Velocity P-wave (km/s) = 4.30199 6.07669 5.26466
#
# Compressibility (1/GPa) = 0.03946996
#
# Stress axis : x y z
#
# Youngs Moduli (GPa) = 88.06563 40.05118 95.92221
#
# Poissons Ratio (x) = -0.15063 0.50907
# Poissons Ratio (y) = -0.33121 0.20077
# Poissons Ratio (z) = 0.46738 0.08383
#
# Static dielectric constant tensor:
#      x y z
#    x 1.804980 0.000000 0.000000 
#    y 0.000000 1.877380 0.000000 
#    z 0.000000 0.000000 1.811000 
# 
# From -- ./inp_files/34428.got.cif
#   From: 2010.05.17/outbox.cif.g08.bks.cpg/sg67_18_cif.got.tgz:34428.got - 2010.06.03 18:28:57.
