data_PCOD9501211
_publ_section_title
;
Structure prediction by ZEFSAII (Michael W. Deem and Ramdas Pophale) SiO2 
 PCOD9501211
Probable space group: C M M A
;
_chemical_formula_sum "Si O2"
_cell_formula_units_Z 128
_cell_length_a 23.733349
_cell_length_b 26.926060
_cell_length_c 12.166272
_cell_angle_alpha 90.000000
_cell_angle_beta 90.000000
_cell_angle_gamma 90.000000
_cell_volume 7774.802337
_symmetry_space_group_name_H-M "C M M A"
_symmetry_group_IT_number 67
_symmetry_cell_setting 'orthorhombic'
loop_
_space_group_symop_operation_xyz
x,y,z
-x,1/2-y,z
x,-y,-z
-x,1/2+y,-z
-x,-y,-z
x,1/2+y,-z
-x,y,z
x,1/2-y,z
1/2+x,1/2+y,z
1/2-x,-y,z
1/2+x,1/2-y,-z
1/2-x,y,-z
1/2-x,1/2-y,-z
1/2+x,y,-z
1/2-x,1/2+y,z
1/2+x,-y,z
loop_
_atom_site_type_symbol
_atom_site_label
_atom_site_fract_x
_atom_site_fract_y
_atom_site_fract_z
Si Si1 0.434124 0.364697 0.414308
Si Si2 0.124003 0.690715 0.211265
Si Si3 0.561217 0.808981 0.010677
Si Si4 0.252956 0.940886 0.318751
Si Si5 0.439003 0.690793 0.362685
Si Si6 0.649185 0.190240 0.811853
Si Si7 0.656747 0.940620 0.500323
Si Si8 0.261838 0.137177 0.130743
O O1 0.500000 0.376154 0.386854
O O2 0.399667 0.340148 0.314252
O O3 0.435264 0.324439 0.511726
O O4 0.399124 0.410492 0.466964
O O5 0.132768 0.750000 0.234200
O O6 0.077267 0.686907 0.115896
O O7 0.180135 0.665576 0.160330
O O8 0.500000 0.830759 0.034406
O O9 0.558369 0.750000 0.035383
O O10 0.611454 0.828127 0.085967
O O11 0.311060 0.928905 0.385009
O O12 0.202751 0.928976 0.404665
O O13 0.243047 0.912151 0.205320
O O14 0.250000 0.000000 0.301648
O O15 0.500000 0.672547 0.319492
O O16 0.439503 0.750000 0.352265
O O17 0.385555 0.673084 0.294329
O O18 0.651479 0.250000 0.812912
O O19 0.711385 0.170820 0.823465
O O20 0.646871 0.000000 0.500000
O O21 0.250000 0.130235 0.000000
#
# Coordination Sequence:
#
# PCOD9501211 Si02
#       8
#    16  16  16  16  16  16  16  16
#     4  11  21  34  54  80 111 142 176 222 268 319
#     4  11  22  35  50  74 111 150 185 220 262 318
#     4   9  17  30  48  68  95 137 186 223 252 300
#     4   9  19  37  60  80 103 137 176 224 275 328
#     4   9  18  32  49  71 102 139 177 214 254 307
#     4  10  19  31  48  72 102 137 176 217 265 310
#     4   9  18  36  60  82 106 136 174 222 274 326
#     4  12  22  34  53  77 109 139 177 228 276 321
#
# _framework density 16.463441
#
# number of rings (size 3 to 8) (size 9 to 14) (size 15 to 20)
#    0.000    2.000    2.500    3.000    0.000    3.750 
#    0.000    0.000    0.000    3.000    0.000    0.000 
#    0.000    3.250    0.000    0.000    0.000    0.000 
#
# Total GULP energy -356380.045391 kJ/mol
# GULP energy per Si atom -5568.438209 kJ/mol
# Density = 1.642597 g / cm^3
# Si number density = 16.463441 Si / 1000 Ang^3
#
#
#
# Elastic Constant Matrix: (Units=GPa)
#
#
# Indices 1 2 3 4 5 6 
#
# 1 112.1385 31.5501 40.2447 0.0000 0.0000 0.0000
# 2 31.5501 47.0622 29.6579 0.0000 0.0000 0.0000
# 3 40.2447 29.6579 84.5790 0.0000 0.0000 0.0000
# 4 0.0000 0.0000 0.0000 22.3505 0.0000 0.0000
# 5 0.0000 0.0000 0.0000 0.0000 5.3988 0.0000
# 6 0.0000 0.0000 0.0000 0.0000 0.0000 14.0189
#
#
#
# Elastic Compliance Matrix: (Units=1/GPa)
#
#
# Indices 1 2 3 4 5 6 
#
# 1 0.011807 -0.005616 -0.003649 0.000000 0.000000 0.000000
# 2 -0.005616 0.029947 -0.007829 0.000000 0.000000 0.000000
# 3 -0.003649 -0.007829 0.016305 0.000000 0.000000 0.000000
# 4 0.000000 0.000000 0.000000 0.044742 0.000000 0.000000
# 5 0.000000 0.000000 0.000000 0.000000 0.185225 0.000000
# 6 0.000000 0.000000 0.000000 0.000000 0.000000 0.071332
#
#
# Mechanical properties :
#
#
# Convention : Reuss Voigt Hill
#
# Bulk Modulus (GPa) = 41.89091 49.63170 45.76130
# Shear Modulus (GPa) = 12.45323 17.84211 15.14767
#
# Velocity S-wave (km/s) = 2.75329 3.29559 3.03657
# Velocity P-wave (km/s) = 5.96720 6.68531 6.33643
#
# Compressibility (1/GPa) = 0.02387153
#
# Stress axis : x y z
#
# Youngs Moduli (GPa) = 84.69478 33.39239 61.33210
#
# Poissons Ratio (x) = 0.18753 0.22379
# Poissons Ratio (y) = 0.47564 0.48016
# Poissons Ratio (z) = 0.30904 0.26142
#
# Static dielectric constant tensor:
#      x y z
#    x 1.584320 0.000000 0.000000 
#    y 0.000000 1.539810 0.000000 
#    z 0.000000 0.000000 1.567070 
# 
# From -- ./inp_files/22445.got.cif
#   From: 2010.05.17/outbox.cif.g08.bks.cpg/sg67_12_cif.got.tgz:22445.got - 2010.06.03 18:28:57.
