data_PCOD9501315
_publ_section_title
;
Structure prediction by ZEFSAII (Michael W. Deem and Ramdas Pophale) SiO2 
 PCOD9501315
Probable space group: C M M A
;
_chemical_formula_sum "Si O2"
_cell_formula_units_Z 60
_cell_length_a 19.303067
_cell_length_b 5.551694
_cell_length_c 24.796242
_cell_angle_alpha 90.000000
_cell_angle_beta 90.000000
_cell_angle_gamma 90.000000
_cell_volume 2657.282362
_symmetry_space_group_name_H-M "C M M A"
_symmetry_group_IT_number 67
_symmetry_cell_setting 'orthorhombic'
loop_
_space_group_symop_operation_xyz
x,y,z
-x,1/2-y,z
x,-y,-z
-x,1/2+y,-z
-x,-y,-z
x,1/2+y,-z
-x,y,z
x,1/2-y,z
1/2+x,1/2+y,z
1/2-x,-y,z
1/2+x,1/2-y,-z
1/2-x,y,-z
1/2-x,1/2-y,-z
1/2+x,y,-z
1/2-x,1/2+y,z
1/2+x,-y,z
loop_
_atom_site_type_symbol
_atom_site_label
_atom_site_fract_x
_atom_site_fract_y
_atom_site_fract_z
Si Si1 0.602944 0.750000 0.352315
Si Si2 0.000000 0.750000 0.966780
Si Si3 0.746228 0.250000 0.395817
Si Si4 0.580068 0.250000 0.521024
Si Si5 0.844381 0.250000 0.033711
Si Si6 0.882598 0.250000 0.685446
Si Si7 0.832909 0.750000 0.192644
Si Si8 0.321169 0.250000 0.849707
O O1 0.687715 0.750000 0.354980
O O2 0.581520 0.750000 0.414627
O O3 0.580068 0.503657 0.324421
O O4 0.000000 0.500000 0.000000
O O5 0.076806 0.750000 0.942057
O O6 0.750000 0.500000 0.426729
O O7 0.676794 0.250000 0.360726
O O8 0.500000 0.250000 0.501291
O O9 0.611128 0.500000 0.500000
O O10 0.799318 0.250000 0.087596
O O11 0.835408 0.500000 0.000000
O O12 0.851249 0.250000 0.744839
O O13 0.749936 0.750000 0.184399
O O14 0.858024 0.501303 0.165139
#
# Coordination Sequence:
#
# PCOD9501315 Si02
#       8
#     8   4   8   8   8   8   8   8
#     4  10  19  31  53  82  99 132 179 207 261 295
#     4   8  16  30  54  78  92 120 174 226 252 298
#     4   8  16  25  44  69 100 120 167 197 247 276
#     4  10  21  38  59  81 108 138 171 217 267 314
#     4  10  19  35  54  76 104 136 180 219 267 318
#     4  10  19  31  53  76 104 137 175 222 240 302
#     4  10  21  33  48  74 108 138 184 210 255 309
#     4  10  21  32  50  76 108 139 173 222 258 315
#
# _framework density 22.579460999999998
#
# number of rings (size 3 to 8) (size 9 to 14) (size 15 to 20)
#    0.000    2.400    0.000    2.400   11.200    0.000 
#    0.000    8.000    0.000   21.600   10.400    0.000 
#    0.000    0.000    0.000    0.000    0.000    0.000 
#
# Total GULP energy -167242.120808 kJ/mol
# GULP energy per Si atom -5574.737360 kJ/mol
# Density = 2.252807 g / cm^3
# Si number density = 22.579461 Si / 1000 Ang^3
#
#
#
# Elastic Constant Matrix: (Units=GPa)
#
#
# Indices 1 2 3 4 5 6 
#
# 1 61.7249 5.8805 1.9846 0.0000 0.0000 0.0000
# 2 5.8805 308.2053 79.1316 0.0000 0.0000 0.0000
# 3 1.9846 79.1316 128.5755 0.0000 0.0000 0.0000
# 4 0.0000 0.0000 0.0000 43.8471 0.0000 0.0000
# 5 0.0000 0.0000 0.0000 0.0000 4962.1355 0.0000
# 6 0.0000 0.0000 0.0000 0.0000 0.0000 -12.4775
#
#
#
# Elastic Compliance Matrix: (Units=1/GPa)
#
#
# Indices 1 2 3 4 5 6 
#
# 1 0.016231 -0.000291 -0.000071 0.000000 0.000000 0.000000
# 2 -0.000291 0.003859 -0.002370 0.000000 0.000000 0.000000
# 3 -0.000071 -0.002370 0.009237 0.000000 0.000000 0.000000
# 4 0.000000 0.000000 0.000000 0.022807 0.000000 0.000000
# 5 0.000000 0.000000 0.000000 0.000000 0.000202 0.000000
# 6 0.000000 0.000000 0.000000 0.000000 0.000000 -0.080144
#
#
# Mechanical properties :
#
#
# Convention : Reuss Voigt Hill
#
# Bulk Modulus (GPa) = 41.90891 74.72214 58.31553
# Shear Modulus (GPa) = -347.48372 1026.13494 339.32561
#
# Velocity S-wave (km/s) = -12.41885 21.34108 12.27220
# Velocity P-wave (km/s) = 13.67612 25.30653 15.05630
#
# Compressibility (1/GPa) = 0.02386127
#
# Stress axis : x y z
#
# Youngs Moduli (GPa) = 61.61060 259.15198 108.25478
#
# Poissons Ratio (x) = 0.07552 0.00771
# Poissons Ratio (y) = 0.01795 0.25660
# Poissons Ratio (z) = 0.00439 0.61428
#
# Static dielectric constant tensor:
#      x y z
#    x 1.839880 0.000000 0.000000 
#    y 0.000000 1.982340 0.000000 
#    z 0.000000 0.000000 1.748050 
# 
# From -- ./inp_files/39468.got.cif
#   From: 2010.05.17/outbox.cif.g08.bks.cpg/sg67_20_cif.got.tgz:39468.got - 2010.06.03 18:28:57.
