data_PCOD9501822
_publ_section_title
;
Structure prediction by ZEFSAII (Michael W. Deem and Ramdas Pophale) SiO2 
 PCOD9501822
Probable space group: C M M A
;
_chemical_formula_sum "Si O2"
_cell_formula_units_Z 80
_cell_length_a 18.805931
_cell_length_b 26.617843
_cell_length_c 8.230093
_cell_angle_alpha 90.000000
_cell_angle_beta 90.000000
_cell_angle_gamma 90.000000
_cell_volume 4119.764967
_symmetry_space_group_name_H-M "C M M A"
_symmetry_group_IT_number 67
_symmetry_cell_setting 'orthorhombic'
loop_
_space_group_symop_operation_xyz
x,y,z
-x,1/2-y,z
x,-y,-z
-x,1/2+y,-z
-x,-y,-z
x,1/2+y,-z
-x,y,z
x,1/2-y,z
1/2+x,1/2+y,z
1/2-x,-y,z
1/2+x,1/2-y,-z
1/2-x,y,-z
1/2-x,1/2-y,-z
1/2+x,y,-z
1/2-x,1/2+y,z
1/2+x,-y,z
loop_
_atom_site_type_symbol
_atom_site_label
_atom_site_fract_x
_atom_site_fract_y
_atom_site_fract_z
Si Si1 0.864918 0.250000 0.419768
Si Si2 0.584069 0.151779 0.749359
Si Si3 0.789137 0.250000 0.749013
Si Si4 0.417250 0.543898 0.227808
Si Si5 0.677436 0.148455 0.066473
Si Si6 0.083526 0.936151 0.163949
O O1 0.903284 0.198723 0.367200
O O2 0.847733 0.250000 0.608452
O O3 0.788868 0.250000 0.328879
O O4 0.500000 0.147563 0.783480
O O5 0.609293 0.095839 0.692851
O O6 0.626613 0.161485 0.915291
O O7 0.799168 0.199650 0.850143
O O8 0.500000 0.539307 0.273430
O O9 0.388913 0.487373 0.248581
O O10 0.414372 0.554217 0.032458
O O11 0.633763 0.111653 0.184752
O O12 0.750000 0.123192 0.000000
O O13 0.000000 0.927522 0.204282
#
# Coordination Sequence:
#
# PCOD9501822 Si02
#       6
#     8  16   8  16  16  16
#     4  11  22  39  55  70  99 146 188 218 264 324
#     4  10  19  34  57  83 107 139 181 225 260 313
#     4  11  24  38  52  71 106 142 173 225 281 316
#     4   7  12  25  47  74 107 138 164 204 264 311
#     4  11  19  33  55  81 107 141 177 217 270 327
#     4   8  14  27  47  75 109 138 163 208 264 313
#
# _framework density 19.418582000000001
#
# number of rings (size 3 to 8) (size 9 to 14) (size 15 to 20)
#    0.000    2.600    2.000    4.200    0.000    0.000 
#    0.000   13.500    0.000    1.200    0.000    7.000 
#    0.000    0.000    0.000    0.000    0.000    0.000 
#
# Total GULP energy -222755.766725 kJ/mol
# GULP energy per Si atom -5568.894168 kJ/mol
# Density = 1.937438 g / cm^3
# Si number density = 19.418582 Si / 1000 Ang^3
#
#
#
# Elastic Constant Matrix: (Units=GPa)
#
#
# Indices 1 2 3 4 5 6 
#
# 1 65.8202 25.9109 14.1187 0.0000 0.0000 0.0000
# 2 25.9109 144.2428 16.7787 0.0000 0.0000 0.0000
# 3 14.1187 16.7787 19.3219 0.0000 0.0000 0.0000
# 4 0.0000 0.0000 0.0000 -4.1997 0.0000 0.0000
# 5 0.0000 0.0000 0.0000 0.0000 16.7266 0.0000
# 6 0.0000 0.0000 0.0000 0.0000 0.0000 -38.5538
#
#
#
# Elastic Compliance Matrix: (Units=1/GPa)
#
#
# Indices 1 2 3 4 5 6 
#
# 1 0.018496 -0.001947 -0.011824 0.000000 0.000000 0.000000
# 2 -0.001947 0.007917 -0.005452 0.000000 0.000000 0.000000
# 3 -0.011824 -0.005452 0.065129 0.000000 0.000000 0.000000
# 4 0.000000 0.000000 0.000000 -0.238113 0.000000 0.000000
# 5 0.000000 0.000000 0.000000 0.000000 0.059785 0.000000
# 6 0.000000 0.000000 0.000000 0.000000 0.000000 -0.025938
#
#
# Mechanical properties :
#
#
# Convention : Reuss Voigt Hill
#
# Bulk Modulus (GPa) = 18.83411 38.11127 28.47269
# Shear Modulus (GPa) = -88.37189 6.29973 -41.03608
#
# Velocity S-wave (km/s) = -6.75335 1.80311 -4.60198
# Velocity P-wave (km/s) = 7.14774 4.89936 3.68011
#
# Compressibility (1/GPa) = 0.05309516
#
# Stress axis : x y z
#
# Youngs Moduli (GPa) = 54.06658 126.31535 15.35411
#
# Poissons Ratio (x) = 0.24594 0.18155
# Poissons Ratio (y) = 0.10527 0.08371
# Poissons Ratio (z) = 0.63929 0.68867
#
# Static dielectric constant tensor:
#      x y z
#    x 1.671550 0.000000 0.000000 
#    y 0.000000 1.747390 0.000000 
#    z 0.000000 0.000000 1.688230 
# 
# From -- ./inp_files/10023.got.cif
#   From: 2010.05.17/outbox.cif.g08.bks.cpg/sg67_6_cif.got.tgz:10023.got - 2010.06.03 18:28:57.
