data_PCOD9501742
_publ_section_title
;
Structure prediction by ZEFSAII (Michael W. Deem and Ramdas Pophale) SiO2 
 PCOD9501742
Probable space group: C M M A
;
_chemical_formula_sum "Si O2"
_cell_formula_units_Z 88
_cell_length_a 15.604620
_cell_length_b 20.090258
_cell_length_c 14.895793
_cell_angle_alpha 90.000000
_cell_angle_beta 90.000000
_cell_angle_gamma 90.000000
_cell_volume 4669.843645
_symmetry_space_group_name_H-M "C M M A"
_symmetry_group_IT_number 67
_symmetry_cell_setting 'orthorhombic'
loop_
_space_group_symop_operation_xyz
x,y,z
-x,1/2-y,z
x,-y,-z
-x,1/2+y,-z
-x,-y,-z
x,1/2+y,-z
-x,y,z
x,1/2-y,z
1/2+x,1/2+y,z
1/2-x,-y,z
1/2+x,1/2-y,-z
1/2-x,y,-z
1/2-x,1/2-y,-z
1/2+x,y,-z
1/2-x,1/2+y,z
1/2+x,-y,z
loop_
_atom_site_type_symbol
_atom_site_label
_atom_site_fract_x
_atom_site_fract_y
_atom_site_fract_z
Si Si1 0.897322 0.828048 0.996695
Si Si2 0.500000 0.669371 0.308453
Si Si3 0.500000 0.418258 0.510645
Si Si4 0.165862 0.628010 0.808582
Si Si5 0.093505 0.422505 0.653556
Si Si6 0.750000 0.000000 0.278267
Si Si7 0.149928 0.675488 0.193677
O O1 0.870884 0.750000 0.988227
O O2 0.868055 0.852876 0.094330
O O3 0.000000 0.830373 0.992502
O O4 0.859269 0.866975 0.912700
O O5 0.500000 0.750000 0.326591
O O6 0.500000 0.620827 0.396180
O O7 0.415632 0.650765 0.250057
O O8 0.500000 0.500000 0.500000
O O9 0.419526 0.397331 0.447943
O O10 0.202824 0.556111 0.780618
O O11 0.248190 0.674497 0.792453
O O12 0.174439 0.469489 0.662201
O O13 0.107910 0.366197 0.727315
O O14 0.000000 0.454321 0.675515
O O15 0.115430 0.750000 0.193507
#
# Coordination Sequence:
#
# PCOD9501742 Si02
#       7
#    16   8   8  16  16   8  16
#     4  10  19  33  58  91 122 161 206 251 315 384
#     4  12  24  40  67 100 131 164 211 272 339 388
#     4  10  22  42  65  86 122 166 211 264 321 402
#     4  11  22  38  59  89 129 167 208 258 311 380
#     4   9  21  39  62  88 115 155 207 260 311 367
#     4  10  22  40  64  88 118 172 216 262 308 378
#     4  10  20  36  59  89 125 162 204 255 314 381
#
# _framework density 18.844314000000001
#
# number of rings (size 3 to 8) (size 9 to 14) (size 15 to 20)
#    0.545    1.273    0.909    3.818    1.273    3.273 
#    0.000   15.909    0.000   10.909    0.000    0.000 
#    0.000    0.000    0.000    0.000    0.000    0.000 
#
# Total GULP energy -245148.377747 kJ/mol
# GULP energy per Si atom -5571.554040 kJ/mol
# Density = 1.880142 g / cm^3
# Si number density = 18.844314 Si / 1000 Ang^3
#
#
#
# Elastic Constant Matrix: (Units=GPa)
#
#
# Indices 1 2 3 4 5 6 
#
# 1 113.1704 28.6702 38.8681 0.0000 0.0000 0.0000
# 2 28.6702 73.7084 47.7494 0.0000 0.0000 0.0000
# 3 38.8681 47.7494 132.6868 0.0000 0.0000 0.0000
# 4 0.0000 0.0000 0.0000 -2.0443 0.0000 0.0000
# 5 0.0000 0.0000 0.0000 0.0000 -621.0640 0.0000
# 6 0.0000 0.0000 0.0000 0.0000 0.0000 5.0563
#
#
#
# Elastic Compliance Matrix: (Units=1/GPa)
#
#
# Indices 1 2 3 4 5 6 
#
# 1 0.010207 -0.002651 -0.002036 0.000000 0.000000 0.000000
# 2 -0.002651 0.018380 -0.005838 0.000000 0.000000 0.000000
# 3 -0.002036 -0.005838 0.010234 0.000000 0.000000 0.000000
# 4 0.000000 0.000000 0.000000 -0.489158 0.000000 0.000000
# 5 0.000000 0.000000 0.000000 0.000000 -0.001610 0.000000
# 6 0.000000 0.000000 0.000000 0.000000 0.000000 0.197773
#
#
# Mechanical properties :
#
#
# Convention : Reuss Voigt Hill
#
# Bulk Modulus (GPa) = 56.27133 61.12676 58.69904
# Shear Modulus (GPa) = -22.00699 -109.99189 -65.99944
#
# Velocity S-wave (km/s) = -3.42106 -7.64823 -5.92449
# Velocity P-wave (km/s) = 3.78432 6.74431 3.94745
#
# Compressibility (1/GPa) = 0.01777104
#
# Stress axis : x y z
#
# Youngs Moduli (GPa) = 97.97071 54.40695 97.71663
#
# Poissons Ratio (x) = 0.14425 0.19894
# Poissons Ratio (y) = 0.25976 0.57044
# Poissons Ratio (z) = 0.19945 0.31761
#
# Static dielectric constant tensor:
#      x y z
#    x 1.664490 0.000000 0.000000 
#    y 0.000000 1.704340 0.000000 
#    z 0.000000 0.000000 1.657620 
# 
# From -- ./inp_files/27104.got.cif
#   From: 2010.05.17/outbox.cif.g08.bks.cpg/sg67_14_cif.got.tgz:27104.got - 2010.06.03 18:28:57.
