data_PCOD9501346
_publ_section_title
;
Structure prediction by ZEFSAII (Michael W. Deem and Ramdas Pophale) SiO2 
 PCOD9501346
Probable space group: C M M A
;
_chemical_formula_sum "Si O2"
_cell_formula_units_Z 80
_cell_length_a 9.642032
_cell_length_b 27.651526
_cell_length_c 18.784507
_cell_angle_alpha 90.000000
_cell_angle_beta 90.000000
_cell_angle_gamma 90.000000
_cell_volume 5008.266997
_symmetry_space_group_name_H-M "C M M A"
_symmetry_group_IT_number 67
_symmetry_cell_setting 'orthorhombic'
loop_
_space_group_symop_operation_xyz
x,y,z
-x,1/2-y,z
x,-y,-z
-x,1/2+y,-z
-x,-y,-z
x,1/2+y,-z
-x,y,z
x,1/2-y,z
1/2+x,1/2+y,z
1/2-x,-y,z
1/2+x,1/2-y,-z
1/2-x,y,-z
1/2-x,1/2-y,-z
1/2+x,y,-z
1/2-x,1/2+y,z
1/2+x,-y,z
loop_
_atom_site_type_symbol
_atom_site_label
_atom_site_fract_x
_atom_site_fract_y
_atom_site_fract_z
Si Si1 0.658891 0.308829 0.067215
Si Si2 0.000000 0.692040 0.381951
Si Si3 0.669255 0.949642 0.428473
Si Si4 0.155219 0.193451 0.199986
Si Si5 0.500000 0.193110 0.550718
Si Si6 0.714834 0.644466 0.346339
O O1 0.500000 0.325200 0.063676
O O2 0.657966 0.250000 0.065309
O O3 0.733956 0.321677 0.140995
O O4 0.750000 0.325153 0.000000
O O5 0.867716 0.665657 0.350260
O O6 0.000000 0.750000 0.368947
O O7 0.000000 0.684175 0.467022
O O8 0.500000 0.954444 0.438746
O O9 0.750000 0.931302 0.500000
O O10 0.697417 0.911609 0.365686
O O11 0.750000 0.000000 0.414292
O O12 0.180603 0.250000 0.220237
O O13 0.158740 0.160939 0.270114
O O14 0.000000 0.191809 0.168369
O O15 0.500000 0.250000 0.562475
O O16 0.369390 0.170602 0.590492
#
# Coordination Sequence:
#
# PCOD9501346 Si02
#       6
#    16   8  16  16   8  16
#     4   9  17  29  46  69  97 132 173 210 244 290
#     4  11  24  34  49  73 102 138 177 216 255 305
#     4  11  23  39  59  78  97 127 172 226 280 327
#     4  10  19  32  49  70 101 138 171 207 254 308
#     4  11  20  36  51  69  98 136 175 210 251 311
#     4  12  23  35  53  74 102 135 174 219 268 314
#
# _framework density 15.97359
#
# number of rings (size 3 to 8) (size 9 to 14) (size 15 to 20)
#    0.000    1.400    2.000    5.400    4.200    4.000 
#    0.000    0.000    0.000    0.000    0.000    0.000 
#    0.000    0.800    0.000    5.800    0.000    1.800 
#
# Total GULP energy -223134.471297 kJ/mol
# GULP energy per Si atom -5578.361782 kJ/mol
# Density = 1.593723 g / cm^3
# Si number density = 15.973590 Si / 1000 Ang^3
#
#
#
# Elastic Constant Matrix: (Units=GPa)
#
#
# Indices 1 2 3 4 5 6 
#
# 1 149.3502 29.1069 37.2658 0.0000 0.0000 0.0000
# 2 29.1069 38.9743 47.2870 0.0000 0.0000 0.0000
# 3 37.2658 47.2870 66.4326 0.0000 0.0000 0.0000
# 4 0.0000 0.0000 0.0000 9.5157 0.0000 0.0000
# 5 0.0000 0.0000 0.0000 0.0000 23.9048 0.0000
# 6 0.0000 0.0000 0.0000 0.0000 0.0000 19.8305
#
#
#
# Elastic Compliance Matrix: (Units=1/GPa)
#
#
# Indices 1 2 3 4 5 6 
#
# 1 0.007862 -0.003818 -0.001693 0.000000 0.000000 0.000000
# 2 -0.003818 0.189993 -0.133096 0.000000 0.000000 0.000000
# 3 -0.001693 -0.133096 0.110741 0.000000 0.000000 0.000000
# 4 0.000000 0.000000 0.000000 0.105089 0.000000 0.000000
# 5 0.000000 0.000000 0.000000 0.000000 0.041833 0.000000
# 6 0.000000 0.000000 0.000000 0.000000 0.000000 0.050427
#
#
# Mechanical properties :
#
#
# Convention : Reuss Voigt Hill
#
# Bulk Modulus (GPa) = 31.86496 53.56406 42.71451
# Shear Modulus (GPa) = 6.30025 20.05670 13.17848
#
# Velocity S-wave (km/s) = 1.98815 3.54731 2.87543
# Velocity P-wave (km/s) = 5.02615 7.09814 6.15003
#
# Compressibility (1/GPa) = 0.03138244
#
# Stress axis : x y z
#
# Youngs Moduli (GPa) = 127.19249 5.26336 9.03009
#
# Poissons Ratio (x) = 0.02009 0.01529
# Poissons Ratio (y) = 0.48557 1.20187
# Poissons Ratio (z) = 0.21533 0.70053
#
# Static dielectric constant tensor:
#      x y z
#    x 1.535880 0.000000 0.000000 
#    y 0.000000 1.529530 0.000000 
#    z 0.000000 0.000000 1.524510 
# 
# From -- ./inp_files/32318.got.cif
#   From: 2010.05.17/outbox.cif.g08.bks.cpg/sg67_17_cif.got.tgz:32318.got - 2010.06.03 18:28:57.
