data_PCOD9501116
_publ_section_title
;
Structure prediction by ZEFSAII (Michael W. Deem and Ramdas Pophale) SiO2 
 PCOD9501116
Probable space group: C M M A
;
_chemical_formula_sum "Si O2"
_cell_formula_units_Z 112
_cell_length_a 20.597411
_cell_length_b 15.004497
_cell_length_c 18.535689
_cell_angle_alpha 90.000000
_cell_angle_beta 90.000000
_cell_angle_gamma 90.000000
_cell_volume 5728.524965
_symmetry_space_group_name_H-M "C M M A"
_symmetry_group_IT_number 67
_symmetry_cell_setting 'orthorhombic'
loop_
_space_group_symop_operation_xyz
x,y,z
-x,1/2-y,z
x,-y,-z
-x,1/2+y,-z
-x,-y,-z
x,1/2+y,-z
-x,y,z
x,1/2-y,z
1/2+x,1/2+y,z
1/2-x,-y,z
1/2+x,1/2-y,-z
1/2-x,y,-z
1/2-x,1/2-y,-z
1/2+x,y,-z
1/2-x,1/2+y,z
1/2+x,-y,z
loop_
_atom_site_type_symbol
_atom_site_label
_atom_site_fract_x
_atom_site_fract_y
_atom_site_fract_z
Si Si1 0.148555 0.143498 0.947484
Si Si2 0.073035 0.964937 0.420334
Si Si3 0.699716 0.856296 0.093198
Si Si4 0.425033 0.581758 0.808559
Si Si5 0.069902 0.095044 0.286663
Si Si6 0.836740 0.853134 0.320728
Si Si7 0.707600 0.647617 0.250907
O O1 0.132482 0.250000 0.945512
O O2 0.224648 0.135880 0.927115
O O3 0.105763 0.094312 0.887649
O O4 0.151505 0.109885 0.030630
O O5 0.127063 0.901815 0.385863
O O6 0.000000 0.923767 0.420931
O O7 0.087331 0.000000 0.500000
O O8 0.069380 0.045315 0.363266
O O9 0.685121 0.750000 0.096467
O O10 0.697545 0.896431 0.172744
O O11 0.500000 0.612556 0.808744
O O12 0.426060 0.482401 0.774549
O O13 0.381161 0.635358 0.750880
O O14 0.136551 0.147893 0.284483
O O15 0.000000 0.140910 0.276935
O O16 0.830433 0.750000 0.339464
O O17 0.765837 0.890776 0.298701
O O18 0.728671 0.750000 0.237116
#
# Coordination Sequence:
#
# PCOD9501116 Si02
#       7
#    16  16  16  16  16  16  16
#     4   9  15  27  46  70 101 137 175 214 260 316
#     4   9  19  37  58  80 111 146 174 203 251 320
#     4   8  15  28  47  69  98 135 173 216 264 311
#     4  10  19  30  47  75 111 142 172 220 275 324
#     4   9  20  37  54  74 101 138 181 221 266 323
#     4  10  19  32  53  84 112 137 176 222 269 318
#     4  10  19  34  55  77 101 134 178 230 272 310
#
# _framework density 19.551279999999998
#
# number of rings (size 3 to 8) (size 9 to 14) (size 15 to 20)
#    0.000    2.714    1.429    2.571    0.000    4.571 
#    0.000    3.571    0.000   10.286    0.000    0.000 
#    0.000    0.000    0.000    0.000    0.000    0.000 
#
# Total GULP energy -311870.337302 kJ/mol
# GULP energy per Si atom -5569.113166 kJ/mol
# Density = 1.950678 g / cm^3
# Si number density = 19.551280 Si / 1000 Ang^3
#
#
#
# Elastic Constant Matrix: (Units=GPa)
#
#
# Indices 1 2 3 4 5 6 
#
# 1 132.8106 26.0366 79.3939 0.0000 0.0000 0.0000
# 2 26.0366 32.5984 34.9516 0.0000 0.0000 0.0000
# 3 79.3939 34.9516 132.4113 0.0000 0.0000 0.0000
# 4 0.0000 0.0000 0.0000 14.8101 0.0000 0.0000
# 5 0.0000 0.0000 0.0000 0.0000-2897.2438 0.0000
# 6 0.0000 0.0000 0.0000 0.0000 0.0000 19.4424
#
#
#
# Elastic Compliance Matrix: (Units=1/GPa)
#
#
# Indices 1 2 3 4 5 6 
#
# 1 0.011890 -0.002584 -0.006447 0.000000 0.000000 0.000000
# 2 -0.002584 0.043347 -0.009893 0.000000 0.000000 0.000000
# 3 -0.006447 -0.009893 0.014029 0.000000 0.000000 0.000000
# 4 0.000000 0.000000 0.000000 0.067521 0.000000 0.000000
# 5 0.000000 0.000000 0.000000 0.000000 -0.000345 0.000000
# 6 0.000000 0.000000 0.000000 0.000000 0.000000 0.051434
#
#
# Mechanical properties :
#
#
# Convention : Reuss Voigt Hill
#
# Bulk Modulus (GPa) = 31.82827 64.28717 48.05772
# Shear Modulus (GPa) = 21.16871 -562.10238 -270.46683
#
# Velocity S-wave (km/s) = 3.29405 -16.97427 -11.77444
# Velocity P-wave (km/s) = 5.54819 18.74073 12.65766
#
# Compressibility (1/GPa) = 0.03141861
#
# Stress axis : x y z
#
# Youngs Moduli (GPa) = 84.10210 23.06967 71.27942
#
# Poissons Ratio (x) = 0.05961 0.45956
# Poissons Ratio (y) = 0.21733 0.70513
# Poissons Ratio (z) = 0.54223 0.22822
#
# Static dielectric constant tensor:
#      x y z
#    x 1.719680 0.000000 0.000000 
#    y 0.000000 1.739900 0.000000 
#    z 0.000000 0.000000 1.703700 
# 
# From -- ./inp_files/34424.got.cif
#   From: 2010.05.17/outbox.cif.g08.bks.cpg/sg67_18_cif.got.tgz:34424.got - 2010.06.03 18:28:57.
