data_PCOD9501850
_publ_section_title
;
Structure prediction by ZEFSAII (Michael W. Deem and Ramdas Pophale) SiO2 
 PCOD9501850
Probable space group: C M M A
;
_chemical_formula_sum "Si O2"
_cell_formula_units_Z 60
_cell_length_a 23.106026
_cell_length_b 10.551191
_cell_length_c 13.907043
_cell_angle_alpha 90.000000
_cell_angle_beta 90.000000
_cell_angle_gamma 90.000000
_cell_volume 3390.482757
_symmetry_space_group_name_H-M "C M M A"
_symmetry_group_IT_number 67
_symmetry_cell_setting 'orthorhombic'
loop_
_space_group_symop_operation_xyz
x,y,z
-x,1/2-y,z
x,-y,-z
-x,1/2+y,-z
-x,-y,-z
x,1/2+y,-z
-x,y,z
x,1/2-y,z
1/2+x,1/2+y,z
1/2-x,-y,z
1/2+x,1/2-y,-z
1/2-x,y,-z
1/2-x,1/2-y,-z
1/2+x,y,-z
1/2-x,1/2+y,z
1/2+x,-y,z
loop_
_atom_site_type_symbol
_atom_site_label
_atom_site_fract_x
_atom_site_fract_y
_atom_site_fract_z
Si Si1 0.750000 0.000000 0.670153
Si Si2 0.000000 0.750000 0.698700
Si Si3 0.793912 0.250000 0.245945
Si Si4 0.613990 0.250000 0.579412
Si Si5 0.894360 0.500000 0.000000
Si Si6 0.341938 0.500000 0.500000
Si Si7 0.000000 0.395913 0.116547
Si Si8 0.319235 0.250000 0.975828
O O1 0.742395 0.122758 0.736260
O O2 0.697284 0.983378 0.595240
O O3 0.945370 0.750000 0.632938
O O4 0.000000 0.869641 0.770518
O O5 0.838784 0.250000 0.334591
O O6 0.822273 0.250000 0.141019
O O7 0.622449 0.126043 0.516348
O O8 0.853137 0.623552 0.012005
O O9 0.941213 0.534514 0.916351
O O10 0.000000 0.250000 0.074429
O O11 0.250000 0.250000 0.000000
#
# Coordination Sequence:
#
# PCOD9501850 Si02
#       8
#     8   4   8   8   8   8   8   8
#     4   9  18  34  57  80 116 146 197 230 268 357
#     4  10  20  38  56  90 106 148 188 252 292 354
#     4  10  21  36  54  81 111 155 192 233 283 342
#     4  10  19  34  59  79 115 141 190 236 283 352
#     4  11  21  40  62  82 113 155 200 258 294 349
#     4   9  18  33  56  88 108 153 184 229 290 342
#     4   9  19  39  65  85 103 146 216 255 284 336
#     4  12  26  38  55  88 127 162 193 242 314 373
#
# _framework density 17.696596
#
# number of rings (size 3 to 8) (size 9 to 14) (size 15 to 20)
#    0.400    1.600    1.333    2.800    3.733    3.733 
#    0.000    0.000    0.000    1.600    0.000    0.000 
#    0.000    0.000    0.000    0.000    0.000    0.000 
#
# Total GULP energy -167112.836526 kJ/mol
# GULP energy per Si atom -5570.427884 kJ/mol
# Density = 1.765632 g / cm^3
# Si number density = 17.696596 Si / 1000 Ang^3
#
#
#
# Elastic Constant Matrix: (Units=GPa)
#
#
# Indices 1 2 3 4 5 6 
#
# 1 112.1666 82.1287 21.8877 0.0000 0.0000 0.0000
# 2 82.1287 182.2962 54.4155 0.0000 0.0000 0.0000
# 3 21.8877 54.4155 61.4001 0.0000 0.0000 0.0000
# 4 0.0000 0.0000 0.0000 396.5628 0.0000 0.0000
# 5 0.0000 0.0000 0.0000 0.0000 -3.5881 0.0000
# 6 0.0000 0.0000 0.0000 0.0000 0.0000 33.3182
#
#
#
# Elastic Compliance Matrix: (Units=1/GPa)
#
#
# Indices 1 2 3 4 5 6 
#
# 1 0.013331 -0.006238 0.000776 0.000000 0.000000 0.000000
# 2 -0.006238 0.010377 -0.006973 0.000000 0.000000 0.000000
# 3 0.000776 -0.006973 0.022190 0.000000 0.000000 0.000000
# 4 0.000000 0.000000 0.000000 0.002522 0.000000 0.000000
# 5 0.000000 0.000000 0.000000 0.000000 -0.278698 0.000000
# 6 0.000000 0.000000 0.000000 0.000000 0.000000 0.030014
#
#
# Mechanical properties :
#
#
# Convention : Reuss Voigt Hill
#
# Bulk Modulus (GPa) = 47.55481 74.74740 61.15111
# Shear Modulus (GPa) = -29.69392 98.42064 34.36336
#
# Velocity S-wave (km/s) = -4.10072 7.46568 4.41137
# Velocity P-wave (km/s) = 2.12355 10.80024 7.78314
#
# Compressibility (1/GPa) = 0.02102837
#
# Stress axis : x y z
#
# Youngs Moduli (GPa) = 75.01276 96.36472 45.06518
#
# Poissons Ratio (x) = 0.60108 -0.03496
# Poissons Ratio (y) = 0.46789 0.31425
# Poissons Ratio (z) = -0.05819 0.67197
#
# Static dielectric constant tensor:
#      x y z
#    x 1.581540 0.000000 0.000000 
#    y 0.000000 1.620230 0.000000 
#    z 0.000000 0.000000 1.572010 
# 
# From -- ./inp_files/20348.got.cif
#   From: 2010.05.17/outbox.cif.g08.bks.cpg/sg67_11_cif.got.tgz:20348.got - 2010.06.03 18:28:57.
