data_PCOD9501069
_publ_section_title
;
Structure prediction by ZEFSAII (Michael W. Deem and Ramdas Pophale) SiO2 
 PCOD9501069
Probable space group: C M M A
;
_chemical_formula_sum "Si O2"
_cell_formula_units_Z 96
_cell_length_a 27.798535
_cell_length_b 8.778793
_cell_length_c 24.791071
_cell_angle_alpha 90.000000
_cell_angle_beta 90.000000
_cell_angle_gamma 90.000000
_cell_volume 6049.953083
_symmetry_space_group_name_H-M "C M M A"
_symmetry_group_IT_number 67
_symmetry_cell_setting 'orthorhombic'
loop_
_space_group_symop_operation_xyz
x,y,z
-x,1/2-y,z
x,-y,-z
-x,1/2+y,-z
-x,-y,-z
x,1/2+y,-z
-x,y,z
x,1/2-y,z
1/2+x,1/2+y,z
1/2-x,-y,z
1/2+x,1/2-y,-z
1/2-x,y,-z
1/2-x,1/2-y,-z
1/2+x,y,-z
1/2-x,1/2+y,z
1/2+x,-y,z
loop_
_atom_site_type_symbol
_atom_site_label
_atom_site_fract_x
_atom_site_fract_y
_atom_site_fract_z
Si Si1 0.196031 0.432812 0.673856
Si Si2 0.944986 0.566265 0.169640
Si Si3 0.898683 0.567826 0.057373
Si Si4 0.148348 0.931659 0.778743
Si Si5 0.301534 0.566959 0.883603
Si Si6 0.803935 0.068315 0.553969
O O1 0.198486 0.250000 0.679662
O O2 0.250000 0.500000 0.677626
O O3 0.164966 0.504436 0.721366
O O4 0.176146 0.466952 0.613561
O O5 0.938636 0.750000 0.173873
O O6 0.932460 0.524085 0.107662
O O7 0.905353 0.485777 0.206381
O O8 0.000000 0.529082 0.182426
O O9 0.900001 0.750000 0.053341
O O10 0.844450 0.523688 0.075394
O O11 0.911895 0.500000 0.000000
O O12 0.152100 0.750000 0.780183
O O13 0.182316 0.002410 0.825443
O O14 0.299458 0.750000 0.880666
O O15 0.250000 0.500000 0.898839
O O16 0.801054 0.250000 0.548379
O O17 0.827553 0.000000 0.500000
O O18 0.750000 0.000000 0.555461
#
# Coordination Sequence:
#
# PCOD9501069 Si02
#       6
#    16  16  16  16  16  16
#     4  10  19  30  44  65  94 129 164 195 230 270
#     4   9  19  37  56  71  91 119 147 180 228 280
#     4   9  19  33  49  70  94 119 148 182 220 267
#     4  11  21  32  48  70  94 119 151 192 232 272
#     4  10  20  34  49  66  91 123 156 188 226 270
#     4   9  16  25  39  58  85 122 161 197 229 263
#
# _framework density 15.867891
#
# number of rings (size 3 to 8) (size 9 to 14) (size 15 to 20)
#    0.000    2.333    0.000    5.000    0.000    6.333 
#    0.000    1.667    0.000    0.000    0.000    0.000 
#    0.000    0.667    0.000    2.167    0.000    3.000 
#
# Total GULP energy -267663.628416 kJ/mol
# GULP energy per Si atom -5576.325592 kJ/mol
# Density = 1.583177 g / cm^3
# Si number density = 15.867891 Si / 1000 Ang^3
#
#
#
# Elastic Constant Matrix: (Units=GPa)
#
#
# Indices 1 2 3 4 5 6 
#
# 1 54.3245 19.8198 19.0407 0.0000 0.0000 0.0000
# 2 19.8198 55.7306 32.3081 0.0000 0.0000 0.0000
# 3 19.0407 32.3081 112.5942 0.0000 0.0000 0.0000
# 4 0.0000 0.0000 0.0000 29.7813 0.0000 0.0000
# 5 0.0000 0.0000 0.0000 0.0000 9.4726 0.0000
# 6 0.0000 0.0000 0.0000 0.0000 0.0000 18.2573
#
#
#
# Elastic Compliance Matrix: (Units=1/GPa)
#
#
# Indices 1 2 3 4 5 6 
#
# 1 0.021428 -0.006621 -0.001724 0.000000 0.000000 0.000000
# 2 -0.006621 0.023570 -0.005643 0.000000 0.000000 0.000000
# 3 -0.001724 -0.005643 0.010792 0.000000 0.000000 0.000000
# 4 0.000000 0.000000 0.000000 0.033578 0.000000 0.000000
# 5 0.000000 0.000000 0.000000 0.000000 0.105568 0.000000
# 6 0.000000 0.000000 0.000000 0.000000 0.000000 0.054772
#
#
# Mechanical properties :
#
#
# Convention : Reuss Voigt Hill
#
# Bulk Modulus (GPa) = 35.95433 40.55407 38.25420
# Shear Modulus (GPa) = 17.42427 21.60096 19.51261
#
# Velocity S-wave (km/s) = 3.31733 3.69358 3.51050
# Velocity P-wave (km/s) = 6.11397 6.61837 6.37117
#
# Compressibility (1/GPa) = 0.02781306
#
# Stress axis : x y z
#
# Youngs Moduli (GPa) = 46.66850 42.42709 92.65854
#
# Poissons Ratio (x) = 0.28092 0.15972
# Poissons Ratio (y) = 0.30900 0.52292
# Poissons Ratio (z) = 0.08044 0.23944
#
# Static dielectric constant tensor:
#      x y z
#    x 1.509390 0.000000 0.000000 
#    y 0.000000 1.530870 0.000000 
#    z 0.000000 0.000000 1.551380 
# 
# From -- ./inp_files/39871.got.cif
#   From: 2010.05.17/outbox.cif.g08.bks.cpg/sg67_20_cif.got.tgz:39871.got - 2010.06.03 18:28:57.
