data_PCOD9501929
_publ_section_title
;
Structure prediction by ZEFSAII (Michael W. Deem and Ramdas Pophale) SiO2 
 PCOD9501929
Probable space group: C M M A
;
_chemical_formula_sum "Si O2"
_cell_formula_units_Z 80
_cell_length_a 31.050162
_cell_length_b 24.149707
_cell_length_c 5.260223
_cell_angle_alpha 90.000000
_cell_angle_beta 90.000000
_cell_angle_gamma 90.000000
_cell_volume 3944.390392
_symmetry_space_group_name_H-M "C M M A"
_symmetry_group_IT_number 67
_symmetry_cell_setting 'orthorhombic'
loop_
_space_group_symop_operation_xyz
x,y,z
-x,1/2-y,z
x,-y,-z
-x,1/2+y,-z
-x,-y,-z
x,1/2+y,-z
-x,y,z
x,1/2-y,z
1/2+x,1/2+y,z
1/2-x,-y,z
1/2+x,1/2-y,-z
1/2-x,y,-z
1/2-x,1/2-y,-z
1/2+x,y,-z
1/2-x,1/2+y,z
1/2+x,-y,z
loop_
_atom_site_type_symbol
_atom_site_label
_atom_site_fract_x
_atom_site_fract_y
_atom_site_fract_z
Si Si1 0.310982 0.438438 0.941950
Si Si2 0.092006 0.584397 0.053120
Si Si3 0.550070 0.099190 0.552692
Si Si4 0.795898 0.631063 0.442417
Si Si5 0.387514 0.815049 0.636857
O O1 0.362625 0.439575 0.971420
O O2 0.294961 0.397579 0.165482
O O3 0.295562 0.500000 0.000000
O O4 0.300610 0.415340 0.662898
O O5 0.073722 0.565741 0.326062
O O6 0.102622 0.649526 0.108207
O O7 0.058268 0.575693 0.830661
O O8 0.500000 0.105424 0.495872
O O9 0.576165 0.157498 0.543002
O O10 0.750000 0.659572 0.500000
O O11 0.839284 0.667702 0.450012
O O12 0.391204 0.750000 0.663831
#
# Coordination Sequence:
#
# PCOD9501929 Si02
#       5
#    16  16  16  16  16
#     4  11  21  39  63  84 113 150 188 238 295 337
#     4   9  19  37  54  83 114 147 182 232 276 339
#     4  10  19  35  59  82 113 148 184 233 281 326
#     4  11  23  39  57  87 117 147 193 235 281 344
#     4   9  21  38  57  82 116 153 187 228 280 332
#
# _framework density 20.281967999999999
#
# number of rings (size 3 to 8) (size 9 to 14) (size 15 to 20)
#    1.200    0.800    2.000    1.800    0.000    4.000 
#    0.000    0.000    0.000    7.200    0.000    0.000 
#    0.000    0.000    0.000    0.000    0.000    0.000 
#
# Total GULP energy -222818.622787 kJ/mol
# GULP energy per Si atom -5570.465570 kJ/mol
# Density = 2.023581 g / cm^3
# Si number density = 20.281968 Si / 1000 Ang^3
#
#
#
# Elastic Constant Matrix: (Units=GPa)
#
#
# Indices 1 2 3 4 5 6 
#
# 1 121.3527 -27.4772 5.2238 0.0000 0.0000 0.0000
# 2 -27.4772 29.9729 3.3113 0.0000 0.0000 0.0000
# 3 5.2238 3.3113 91.8665 0.0000 0.0000 0.0000
# 4 0.0000 0.0000 0.0000 9.9219 0.0000 0.0000
# 5 0.0000 0.0000 0.0000 0.0000 30.5682 0.0000
# 6 0.0000 0.0000 0.0000 0.0000 0.0000 -27.7135
#
#
#
# Elastic Compliance Matrix: (Units=1/GPa)
#
#
# Indices 1 2 3 4 5 6 
#
# 1 0.010480 0.009712 -0.000946 0.000000 0.000000 0.000000
# 2 0.009712 0.042497 -0.002084 0.000000 0.000000 0.000000
# 3 -0.000946 -0.002084 0.011014 0.000000 0.000000 0.000000
# 4 0.000000 0.000000 0.000000 0.100787 0.000000 0.000000
# 5 0.000000 0.000000 0.000000 0.000000 0.032714 0.000000
# 6 0.000000 0.000000 0.000000 0.000000 0.000000 -0.036084
#
#
# Mechanical properties :
#
#
# Convention : Reuss Voigt Hill
#
# Bulk Modulus (GPa) = 12.92727 22.81197 17.86962
# Shear Modulus (GPa) = 28.76366 20.03093 24.39729
#
# Velocity S-wave (km/s) = 3.76997 3.14606 3.47206
# Velocity P-wave (km/s) = 5.03367 4.94659 4.99032
#
# Compressibility (1/GPa) = 0.07735587
#
# Stress axis : x y z
#
# Youngs Moduli (GPa) = 95.41774 23.53094 90.79128
#
# Poissons Ratio (x) = -0.22854 0.08589
# Poissons Ratio (y) = -0.92671 0.18922
# Poissons Ratio (z) = 0.09027 0.04904
#
# Static dielectric constant tensor:
#      x y z
#    x 1.755870 0.000000 0.000000 
#    y 0.000000 1.705040 0.000000 
#    z 0.000000 0.000000 1.754200 
# 
# From -- ./inp_files/4713.got.cif
#   From: 2010.05.17/outbox.cif.g08.bks.cpg/sg67_3_cif.got.tgz:4713.got - 2010.06.03 18:28:57.
