data_PCOD9501934
_publ_section_title
;
Structure prediction by ZEFSAII (Michael W. Deem and Ramdas Pophale) SiO2 
 PCOD9501934
Probable space group: C M M A
;
_chemical_formula_sum "Si O2"
_cell_formula_units_Z 96
_cell_length_a 8.906756
_cell_length_b 29.248127
_cell_length_c 20.966432
_cell_angle_alpha 90.000000
_cell_angle_beta 90.000000
_cell_angle_gamma 90.000000
_cell_volume 5461.879880
_symmetry_space_group_name_H-M "C M M A"
_symmetry_group_IT_number 67
_symmetry_cell_setting 'orthorhombic'
loop_
_space_group_symop_operation_xyz
x,y,z
-x,1/2-y,z
x,-y,-z
-x,1/2+y,-z
-x,-y,-z
x,1/2+y,-z
-x,y,z
x,1/2-y,z
1/2+x,1/2+y,z
1/2-x,-y,z
1/2+x,1/2-y,-z
1/2-x,y,-z
1/2-x,1/2-y,-z
1/2+x,y,-z
1/2-x,1/2+y,z
1/2+x,-y,z
loop_
_atom_site_type_symbol
_atom_site_label
_atom_site_fract_x
_atom_site_fract_y
_atom_site_fract_z
Si Si1 0.179411 0.803514 0.568260
Si Si2 0.321427 0.642295 0.064939
Si Si3 0.322258 0.195617 0.181525
Si Si4 0.179140 0.452269 0.739731
Si Si5 0.681178 0.855357 0.687018
Si Si6 0.679659 0.951537 0.891306
O O1 0.217519 0.750000 0.580293
O O2 0.250000 0.815968 0.500000
O O3 0.244225 0.833857 0.625074
O O4 0.000000 0.807420 0.565151
O O5 0.500000 0.640547 0.060167
O O6 0.269840 0.671987 0.125353
O O7 0.254764 0.591512 0.074989
O O8 0.250000 0.661388 0.000000
O O9 0.500000 0.185764 0.171069
O O10 0.301432 0.250000 0.182238
O O11 0.282058 0.174203 0.249974
O O12 0.250000 0.500000 0.718718
O O13 0.229137 0.407363 0.701847
O O14 0.211196 0.446161 0.815268
O O15 0.000000 0.455438 0.734047
O O16 0.500000 0.854477 0.679985
O O17 0.500000 0.951455 0.900482
O O18 0.750000 0.000000 0.911321
#
# Coordination Sequence:
#
# PCOD9501934 Si02
#       6
#    16  16  16  16  16  16
#     4  10  21  36  55  83 118 154 191 231 275 327
#     4  12  25  40  58  79 108 146 187 234 286 339
#     4  10  21  39  61  83 110 145 185 231 283 338
#     4   9  18  32  54  82 114 146 181 222 271 327
#     4  10  19  35  59  86 115 150 185 225 276 329
#     4  10  19  36  58  83 113 143 182 227 280 339
#
# _framework density 17.576366
#
# number of rings (size 3 to 8) (size 9 to 14) (size 15 to 20)
#    0.000    1.833    1.667    3.000    0.000    4.667 
#    0.000    1.667    0.000    0.500    0.000    3.500 
#    0.000    0.000    0.000    0.000    0.000    0.000 
#
# Total GULP energy -268167.846483 kJ/mol
# GULP energy per Si atom -5586.830135 kJ/mol
# Density = 1.753636 g / cm^3
# Si number density = 17.576366 Si / 1000 Ang^3
#
#
#
# Elastic Constant Matrix: (Units=GPa)
#
#
# Indices 1 2 3 4 5 6 
#
# 1 67.5193 51.5316 58.6598 0.0000 0.0000 0.0000
# 2 51.5316 91.7463 65.7549 0.0000 0.0000 0.0000
# 3 58.6598 65.7549 124.3317 0.0000 0.0000 0.0000
# 4 0.0000 0.0000 0.0000 -46.8813 0.0000 0.0000
# 5 0.0000 0.0000 0.0000 0.0000 27.8980 0.0000
# 6 0.0000 0.0000 0.0000 0.0000 0.0000 31.5767
#
#
#
# Elastic Compliance Matrix: (Units=1/GPa)
#
#
# Indices 1 2 3 4 5 6 
#
# 1 0.030806 -0.011090 -0.008669 0.000000 0.000000 0.000000
# 2 -0.011090 0.021545 -0.006162 0.000000 0.000000 0.000000
# 3 -0.008669 -0.006162 0.015392 0.000000 0.000000 0.000000
# 4 0.000000 0.000000 0.000000 -0.021330 0.000000 0.000000
# 5 0.000000 0.000000 0.000000 0.000000 0.035845 0.000000
# 6 0.000000 0.000000 0.000000 0.000000 0.000000 0.031669
#
#
# Mechanical properties :
#
#
# Convention : Reuss Voigt Hill
#
# Bulk Modulus (GPa) = 62.89048 70.60998 66.75023
# Shear Modulus (GPa) = 29.22782 9.69542 19.46162
#
# Velocity S-wave (km/s) = 4.08230 2.35120 3.33116
# Velocity P-wave (km/s) = 7.62097 6.90155 7.27016
#
# Compressibility (1/GPa) = 0.01590066
#
# Stress axis : x y z
#
# Youngs Moduli (GPa) = 32.46092 46.41458 64.96751
#
# Poissons Ratio (x) = 0.51472 0.56323
# Poissons Ratio (y) = 0.35998 0.40035
# Poissons Ratio (z) = 0.28142 0.28602
#
# Static dielectric constant tensor:
#      x y z
#    x 1.586330 0.000000 0.000000 
#    y 0.000000 1.591500 0.000000 
#    z 0.000000 0.000000 1.581370 
# 
# From -- ./inp_files/37119.got.cif
#   From: 2010.05.17/outbox.cif.g08.bks.cpg/sg67_19_cif.got.tgz:37119.got - 2010.06.03 18:28:57.
