data_PCOD9501364
_publ_section_title
;
Structure prediction by ZEFSAII (Michael W. Deem and Ramdas Pophale) SiO2 
 PCOD9501364
Probable space group: C M M A
;
_chemical_formula_sum "Si O2"
_cell_formula_units_Z 96
_cell_length_a 8.376654
_cell_length_b 20.827693
_cell_length_c 30.824409
_cell_angle_alpha 90.000000
_cell_angle_beta 90.000000
_cell_angle_gamma 90.000000
_cell_volume 5377.822988
_symmetry_space_group_name_H-M "C M M A"
_symmetry_group_IT_number 67
_symmetry_cell_setting 'orthorhombic'
loop_
_space_group_symop_operation_xyz
x,y,z
-x,1/2-y,z
x,-y,-z
-x,1/2+y,-z
-x,-y,-z
x,1/2+y,-z
-x,y,z
x,1/2-y,z
1/2+x,1/2+y,z
1/2-x,-y,z
1/2+x,1/2-y,-z
1/2-x,y,-z
1/2-x,1/2-y,-z
1/2+x,y,-z
1/2-x,1/2+y,z
1/2+x,-y,z
loop_
_atom_site_type_symbol
_atom_site_label
_atom_site_fract_x
_atom_site_fract_y
_atom_site_fract_z
Si Si1 0.305330 0.823105 0.117706
Si Si2 0.808344 0.428414 0.048643
Si Si3 0.307397 0.823100 0.216835
Si Si4 0.190652 0.429274 0.716408
Si Si5 0.306975 0.570988 0.617116
Si Si6 0.192946 0.176655 0.548314
O O1 0.500000 0.823607 0.117271
O O2 0.255952 0.750000 0.107215
O O3 0.250808 0.875627 0.083132
O O4 0.256280 0.837481 0.167257
O O5 0.750000 0.500000 0.059813
O O6 0.000000 0.428691 0.048470
O O7 0.750000 0.413772 0.000000
O O8 0.500000 0.823807 0.217198
O O9 0.255999 0.750000 0.227123
O O10 0.247387 0.874749 0.250921
O O11 0.250000 0.500000 0.729439
O O12 0.247026 0.417495 0.666792
O O13 0.000000 0.430017 0.715890
O O14 0.500000 0.571364 0.616999
O O15 0.250000 0.500000 0.604264
O O16 0.251041 0.625749 0.584053
O O17 0.245430 0.250000 0.557503
O O18 0.250000 0.159779 0.500000
O O19 0.000000 0.176308 0.548536
#
# Coordination Sequence:
#
# PCOD9501364 Si02
#       6
#    16  16  16  16  16  16
#     4   8  16  32  52  72  96 128 162 196 239 289
#     4  10  19  32  50  71  97 127 160 198 239 285
#     4   9  18  34  54  75 101 132 165 202 246 296
#     4  10  20  34  52  74 101 132 167 206 248 294
#     4   9  19  34  51  71  97 129 161 198 242 288
#     4   9  18  33  51  71  96 126 160 197 238 284
#
# _framework density 17.851089000000002
#
# number of rings (size 3 to 8) (size 9 to 14) (size 15 to 20)
#    0.000    2.833    0.000    2.500    0.000    3.667 
#    0.000    6.667    0.000    5.500    0.000    0.000 
#    0.000    0.000    0.000    0.000    0.000    0.000 
#
# Total GULP energy -267640.049526 kJ/mol
# GULP energy per Si atom -5575.834365 kJ/mol
# Density = 1.781046 g / cm^3
# Si number density = 17.851089 Si / 1000 Ang^3
#
#
#
# Elastic Constant Matrix: (Units=GPa)
#
#
# Indices 1 2 3 4 5 6 
#
# 1 16.6353 23.0971 20.2865 0.0000 0.0000 0.0000
# 2 23.0971 173.6422 141.7206 0.0000 0.0000 0.0000
# 3 20.2865 141.7206 137.3837 0.0000 0.0000 0.0000
# 4 0.0000 0.0000 0.0000 44.4696 0.0000 0.0000
# 5 0.0000 0.0000 0.0000 0.0000 21.3199 0.0000
# 6 0.0000 0.0000 0.0000 0.0000 0.0000 23.3129
#
#
#
# Elastic Compliance Matrix: (Units=1/GPa)
#
#
# Indices 1 2 3 4 5 6 
#
# 1 0.074249 -0.005871 -0.004908 0.000000 0.000000 0.000000
# 2 -0.005871 0.036897 -0.037195 0.000000 0.000000 0.000000
# 3 -0.004908 -0.037195 0.046373 0.000000 0.000000 0.000000
# 4 0.000000 0.000000 0.000000 0.022487 0.000000 0.000000
# 5 0.000000 0.000000 0.000000 0.000000 0.046904 0.000000
# 6 0.000000 0.000000 0.000000 0.000000 0.000000 0.042895
#
#
# Mechanical properties :
#
#
# Convention : Reuss Voigt Hill
#
# Bulk Modulus (GPa) = 16.24113 77.54106 46.89109
# Shear Modulus (GPa) = 12.94411 27.32430 20.13420
#
# Velocity S-wave (km/s) = 2.69572 3.91663 3.36206
# Velocity P-wave (km/s) = 4.33671 7.99909 6.43399
#
# Compressibility (1/GPa) = 0.06157206
#
# Stress axis : x y z
#
# Youngs Moduli (GPa) = 13.46815 27.10249 21.56445
#
# Poissons Ratio (x) = 0.15911 0.10584
# Poissons Ratio (y) = 0.07907 0.80209
# Poissons Ratio (z) = 0.06610 1.00807
#
# Static dielectric constant tensor:
#      x y z
#    x 1.620290 0.000000 0.000000 
#    y 0.000000 1.593210 0.000000 
#    z 0.000000 0.000000 1.599740 
# 
# From -- ./inp_files/43485.got.cif
#   From: 2010.05.17/outbox.cif.g08.bks.cpg/sg67_22_cif.got.tgz:43485.got - 2010.06.03 18:28:57.
