data_PCOD9501679
_publ_section_title
;
Structure prediction by ZEFSAII (Michael W. Deem and Ramdas Pophale) SiO2 
 PCOD9501679
Probable space group: C M M A
;
_chemical_formula_sum "Si O2"
_cell_formula_units_Z 88
_cell_length_a 27.579695
_cell_length_b 8.878545
_cell_length_c 19.270333
_cell_angle_alpha 90.000000
_cell_angle_beta 90.000000
_cell_angle_gamma 90.000000
_cell_volume 4718.679483
_symmetry_space_group_name_H-M "C M M A"
_symmetry_group_IT_number 67
_symmetry_cell_setting 'orthorhombic'
loop_
_space_group_symop_operation_xyz
x,y,z
-x,1/2-y,z
x,-y,-z
-x,1/2+y,-z
-x,-y,-z
x,1/2+y,-z
-x,y,z
x,1/2-y,z
1/2+x,1/2+y,z
1/2-x,-y,z
1/2+x,1/2-y,-z
1/2-x,y,-z
1/2-x,1/2-y,-z
1/2+x,y,-z
1/2-x,1/2+y,z
1/2+x,-y,z
loop_
_atom_site_type_symbol
_atom_site_label
_atom_site_fract_x
_atom_site_fract_y
_atom_site_fract_z
Si Si1 0.901772 0.932302 0.341839
Si Si2 0.944017 0.424551 0.803572
Si Si3 0.000000 0.932013 0.423665
Si Si4 0.606640 0.070791 0.924542
Si Si5 0.199840 0.430762 0.163665
Si Si6 0.698621 0.930807 0.327128
O O1 0.898041 0.750000 0.343911
O O2 0.913290 0.977867 0.262289
O O3 0.949742 0.976343 0.385257
O O4 0.850229 0.004277 0.361945
O O5 0.931480 0.250000 0.817868
O O6 0.935251 0.519203 0.872290
O O7 0.000000 0.428828 0.782185
O O8 0.000000 0.750000 0.425644
O O9 0.000000 0.000000 0.500000
O O10 0.607522 0.250000 0.930604
O O11 0.655322 0.019616 0.884046
O O12 0.602673 0.000000 0.000000
O O13 0.202150 0.250000 0.161319
O O14 0.250000 0.500000 0.138152
O O15 0.194658 0.472745 0.244908
O O16 0.699893 0.750000 0.332752
O O17 0.750000 0.000000 0.351595
#
# Coordination Sequence:
#
# PCOD9501679 Si02
#       6
#    16  16   8  16  16  16
#     4  10  19  35  60  88 119 155 192 235 283 338
#     4  10  20  36  58  81 104 138 184 231 283 339
#     4  10  22  40  62  94 131 162 193 228 277 338
#     4  11  23  38  52  73 103 140 185 235 287 343
#     4   9  19  33  50  73 103 136 177 228 280 334
#     4  10  19  33  54  85 118 151 193 241 290 342
#
# _framework density 18.649284999999999
#
# number of rings (size 3 to 8) (size 9 to 14) (size 15 to 20)
#    0.000    2.000    2.727    1.091    0.000    4.000 
#    0.000    1.818    0.000    0.545    0.000    3.818 
#    0.000    0.000    0.000    0.000    0.000    0.000 
#
# Total GULP energy -245450.677092 kJ/mol
# GULP energy per Si atom -5578.424479 kJ/mol
# Density = 1.860684 g / cm^3
# Si number density = 18.649285 Si / 1000 Ang^3
#
#
#
# Elastic Constant Matrix: (Units=GPa)
#
#
# Indices 1 2 3 4 5 6 
#
# 1 141.4117 38.2293 39.7570 0.0000 0.0000 0.0000
# 2 38.2293 23.0062 19.9260 0.0000 0.0000 0.0000
# 3 39.7570 19.9260 57.6521 0.0000 0.0000 0.0000
# 4 0.0000 0.0000 0.0000 22.2264 0.0000 0.0000
# 5 0.0000 0.0000 0.0000 0.0000 17.2425 0.0000
# 6 0.0000 0.0000 0.0000 0.0000 0.0000 32.4554
#
#
#
# Elastic Compliance Matrix: (Units=1/GPa)
#
#
# Indices 1 2 3 4 5 6 
#
# 1 0.013022 -0.019783 -0.002143 0.000000 0.000000 0.000000
# 2 -0.019783 0.092092 -0.018187 0.000000 0.000000 0.000000
# 3 -0.002143 -0.018187 0.025109 0.000000 0.000000 0.000000
# 4 0.000000 0.000000 0.000000 0.044992 0.000000 0.000000
# 5 0.000000 0.000000 0.000000 0.000000 0.057996 0.000000
# 6 0.000000 0.000000 0.000000 0.000000 0.000000 0.030811
#
#
# Mechanical properties :
#
#
# Convention : Reuss Voigt Hill
#
# Bulk Modulus (GPa) = 20.00091 46.43276 33.21684
# Shear Modulus (GPa) = 13.85378 22.66204 18.25791
#
# Velocity S-wave (km/s) = 2.72850 3.48971 3.13231
# Velocity P-wave (km/s) = 4.54690 6.41789 5.56164
#
# Compressibility (1/GPa) = 0.04999771
#
# Stress axis : x y z
#
# Youngs Moduli (GPa) = 76.79278 10.85875 39.82680
#
# Poissons Ratio (x) = 0.21482 0.08533
# Poissons Ratio (y) = 1.51919 0.72432
# Poissons Ratio (z) = 0.16453 0.19749
#
# Static dielectric constant tensor:
#      x y z
#    x 1.672040 0.000000 0.000000 
#    y 0.000000 1.632510 0.000000 
#    z 0.000000 0.000000 1.618790 
# 
# From -- ./inp_files/39596.got.cif
#   From: 2010.05.17/outbox.cif.g08.bks.cpg/sg67_20_cif.got.tgz:39596.got - 2010.06.03 18:28:57.
