data_PCOD9501483
_publ_section_title
;
Structure prediction by ZEFSAII (Michael W. Deem and Ramdas Pophale) SiO2 
 PCOD9501483
Probable space group: C M M A
;
_chemical_formula_sum "Si O2"
_cell_formula_units_Z 96
_cell_length_a 27.486031
_cell_length_b 14.389202
_cell_length_c 10.581271
_cell_angle_alpha 90.000000
_cell_angle_beta 90.000000
_cell_angle_gamma 90.000000
_cell_volume 4184.914396
_symmetry_space_group_name_H-M "C M M A"
_symmetry_group_IT_number 67
_symmetry_cell_setting 'orthorhombic'
loop_
_space_group_symop_operation_xyz
x,y,z
-x,1/2-y,z
x,-y,-z
-x,1/2+y,-z
-x,-y,-z
x,1/2+y,-z
-x,y,z
x,1/2-y,z
1/2+x,1/2+y,z
1/2-x,-y,z
1/2+x,1/2-y,-z
1/2-x,y,-z
1/2-x,1/2-y,-z
1/2+x,y,-z
1/2-x,1/2+y,z
1/2+x,-y,z
loop_
_atom_site_type_symbol
_atom_site_label
_atom_site_fract_x
_atom_site_fract_y
_atom_site_fract_z
Si Si1 0.282551 0.143443 0.611661
Si Si2 0.269767 0.895985 0.868983
Si Si3 0.108233 0.363698 0.384219
Si Si4 0.382849 0.637334 0.887208
Si Si5 0.444688 0.136399 0.870730
Si Si6 0.055643 0.636535 0.357217
O O1 0.292197 0.250000 0.572182
O O2 0.250000 0.101945 0.500000
O O3 0.252583 0.145566 0.741454
O O4 0.336249 0.101622 0.628097
O O5 0.327787 0.895443 0.872068
O O6 0.250000 0.000000 0.866511
O O7 0.250000 0.853422 0.000000
O O8 0.108310 0.250000 0.379935
O O9 0.076057 0.392636 0.264788
O O10 0.084466 0.390850 0.516875
O O11 0.380649 0.750000 0.887725
O O12 0.415850 0.609093 0.768786
O O13 0.408424 0.608306 0.017397
O O14 0.500000 0.104670 0.891227
O O15 0.445762 0.250000 0.872273
O O16 0.054249 0.750000 0.357078
O O17 0.000000 0.603760 0.358550
#
# Coordination Sequence:
#
# PCOD9501483 Si02
#       6
#    16  16  16  16  16  16
#     4  10  20  35  56  82 110 141 183 232 277 325
#     4  11  24  39  54  76 106 145 189 231 276 327
#     4   9  16  26  43  70 104 139 169 205 259 316
#     4  10  19  32  52  77 105 138 177 222 271 320
#     4   9  16  26  43  72 107 138 171 213 263 320
#     4   9  16  27  46  76 111 139 165 205 260 320
#
# _framework density 22.939539
#
# number of rings (size 3 to 8) (size 9 to 14) (size 15 to 20)
#    0.000    2.333    0.000    3.500    0.000    9.667 
#    0.000    0.000    0.000    0.000    0.000   25.667 
#    0.000    0.000    0.000    0.000    0.000    0.667 
#
# Total GULP energy -268522.631329 kJ/mol
# GULP energy per Si atom -5594.221486 kJ/mol
# Density = 2.288733 g / cm^3
# Si number density = 22.939539 Si / 1000 Ang^3
#
#
#
# Elastic Constant Matrix: (Units=GPa)
#
#
# Indices 1 2 3 4 5 6 
#
# 1 791.7763 263.9898 492.1307 0.0000 0.0000 0.0000
# 2 263.9898 196.7247 177.5541 0.0000 0.0000 0.0000
# 3 492.1307 177.5541 461.1708 0.0000 0.0000 0.0000
# 4 0.0000 0.0000 0.0000 -15.5454 0.0000 0.0000
# 5 0.0000 0.0000 0.0000 0.0000 43.9283 0.0000
# 6 0.0000 0.0000 0.0000 0.0000 0.0000 2.7398
#
#
#
# Elastic Compliance Matrix: (Units=1/GPa)
#
#
# Indices 1 2 3 4 5 6 
#
# 1 0.004477 -0.002599 -0.003777 0.000000 0.000000 0.000000
# 2 -0.002599 0.009299 -0.000807 0.000000 0.000000 0.000000
# 3 -0.003777 -0.000807 0.006510 0.000000 0.000000 0.000000
# 4 0.000000 0.000000 0.000000 -0.064328 0.000000 0.000000
# 5 0.000000 0.000000 0.000000 0.000000 0.022764 0.000000
# 6 0.000000 0.000000 0.000000 0.000000 0.000000 0.364993
#
#
# Mechanical properties :
#
#
# Convention : Reuss Voigt Hill
#
# Bulk Modulus (GPa) = 168.91246 368.55788 268.73517
# Shear Modulus (GPa) = 13.88676 40.62436 27.25556
#
# Velocity S-wave (km/s) = 2.46308 4.21281 3.45069
# Velocity P-wave (km/s) = 9.04890 13.58961 11.54470
#
# Compressibility (1/GPa) = 0.00592023
#
# Stress axis : x y z
#
# Youngs Moduli (GPa) = 223.35084 107.53811 153.61648
#
# Poissons Ratio (x) = 0.27950 0.58024
# Poissons Ratio (y) = 0.58050 0.12392
# Poissons Ratio (z) = 0.84364 0.08675
#
# Static dielectric constant tensor:
#      x y z
#    x 1.796140 0.000000 0.000000 
#    y 0.000000 1.822410 0.000000 
#    z 0.000000 0.000000 1.820360 
# 
# From -- ./inp_files/11508.got.cif
#   From: 2010.05.17/outbox.cif.g08.bks.cpg/sg67_6_cif.got.tgz:11508.got - 2010.06.03 18:28:57.
