data_PCOD9501621
_publ_section_title
;
Structure prediction by ZEFSAII (Michael W. Deem and Ramdas Pophale) SiO2 
 PCOD9501621
Probable space group: C M M A
;
_chemical_formula_sum "Si O2"
_cell_formula_units_Z 120
_cell_length_a 8.560793
_cell_length_b 27.660664
_cell_length_c 29.119676
_cell_angle_alpha 90.000000
_cell_angle_beta 90.000000
_cell_angle_gamma 90.000000
_cell_volume 6895.458288
_symmetry_space_group_name_H-M "C M M A"
_symmetry_group_IT_number 67
_symmetry_cell_setting 'orthorhombic'
loop_
_space_group_symop_operation_xyz
x,y,z
-x,1/2-y,z
x,-y,-z
-x,1/2+y,-z
-x,-y,-z
x,1/2+y,-z
-x,y,z
x,1/2-y,z
1/2+x,1/2+y,z
1/2-x,-y,z
1/2+x,1/2-y,-z
1/2-x,y,-z
1/2-x,1/2-y,-z
1/2+x,y,-z
1/2-x,1/2+y,z
1/2+x,-y,z
loop_
_atom_site_type_symbol
_atom_site_label
_atom_site_fract_x
_atom_site_fract_y
_atom_site_fract_z
Si Si1 0.188970 0.898416 0.308941
Si Si2 0.311974 0.143070 0.947795
Si Si3 0.688361 0.446866 0.217035
Si Si4 0.187829 0.446174 0.888160
Si Si5 0.311498 0.803151 0.639824
Si Si6 0.813166 0.648765 0.550544
Si Si7 0.688217 0.250000 0.947868
Si Si8 0.813384 0.051549 0.397893
O O1 0.240701 0.911504 0.257671
O O2 0.241870 0.845977 0.326682
O O3 0.249532 0.935750 0.347210
O O4 0.000000 0.899748 0.309899
O O5 0.500000 0.141054 0.948258
O O6 0.248472 0.097554 0.919413
O O7 0.264135 0.196886 0.928987
O O8 0.250000 0.139923 0.000000
O O9 0.500000 0.447563 0.216987
O O10 0.750000 0.500000 0.228645
O O11 0.737940 0.436307 0.164785
O O12 0.250000 0.500000 0.900556
O O13 0.000000 0.447556 0.890246
O O14 0.500000 0.804302 0.638929
O O15 0.260264 0.750000 0.654359
O O16 0.251548 0.815084 0.588961
O O17 0.750000 0.658095 0.500000
O O18 0.764606 0.595382 0.568669
O O19 0.000000 0.650891 0.550317
O O20 0.500000 0.250000 0.948323
O O21 0.750000 0.250000 0.000000
O O22 0.000000 0.050513 0.396156
O O23 0.750000 0.000000 0.413171
#
# Coordination Sequence:
#
# PCOD9501621 Si02
#       8
#    16  16  16  16  16  16   8  16
#     4   9  17  31  51  73  97 124 157 198 239 284
#     4  10  19  33  53  77 103 135 173 215 260 305
#     4   9  18  31  49  72 100 130 163 200 241 287
#     4  10  20  34  50  72 104 139 175 213 255 305
#     4   9  18  33  53  74  95 123 158 196 239 284
#     4  10  21  35  50  69  94 124 158 195 234 281
#     4   8  16  30  50  74  98 126 164 208 252 298
#     4  10  20  32  47  70  97 124 155 191 234 282
#
# _framework density 17.402759
#
# number of rings (size 3 to 8) (size 9 to 14) (size 15 to 20)
#    0.000    2.533    0.000    2.000    0.000    5.333 
#    0.000    2.667    1.467    0.000    0.000    0.000 
#    0.000    0.000    0.000    0.000    0.000    0.000 
#
# Total GULP energy -334437.945457 kJ/mol
# GULP energy per Si atom -5573.965758 kJ/mol
# Density = 1.736315 g / cm^3
# Si number density = 17.402759 Si / 1000 Ang^3
#
#
#
# Elastic Constant Matrix: (Units=GPa)
#
#
# Indices 1 2 3 4 5 6 
#
# 1 20.7790 22.7238 16.2793 0.0000 0.0000 0.0000
# 2 22.7238 120.6774 63.9144 0.0000 0.0000 0.0000
# 3 16.2793 63.9144 89.9907 0.0000 0.0000 0.0000
# 4 0.0000 0.0000 0.0000 9.3230 0.0000 0.0000
# 5 0.0000 0.0000 0.0000 0.0000 16.3327 0.0000
# 6 0.0000 0.0000 0.0000 0.0000 0.0000 16.4219
#
#
#
# Elastic Compliance Matrix: (Units=1/GPa)
#
#
# Indices 1 2 3 4 5 6 
#
# 1 0.061808 -0.009164 -0.004673 0.000000 0.000000 0.000000
# 2 -0.009164 0.014642 -0.008741 0.000000 0.000000 0.000000
# 3 -0.004673 -0.008741 0.018166 0.000000 0.000000 0.000000
# 4 0.000000 0.000000 0.000000 0.107262 0.000000 0.000000
# 5 0.000000 0.000000 0.000000 0.000000 0.061227 0.000000
# 6 0.000000 0.000000 0.000000 0.000000 0.000000 0.060894
#
#
# Mechanical properties :
#
#
# Convention : Reuss Voigt Hill
#
# Bulk Modulus (GPa) = 20.21832 48.58690 34.40261
# Shear Modulus (GPa) = 12.96543 16.98415 14.97479
#
# Velocity S-wave (km/s) = 2.73247 3.12740 2.93658
# Velocity P-wave (km/s) = 4.64740 6.40473 5.59548
#
# Compressibility (1/GPa) = 0.04946009
#
# Stress axis : x y z
#
# Youngs Moduli (GPa) = 16.17917 68.29754 55.04800
#
# Poissons Ratio (x) = 0.62586 0.25722
# Poissons Ratio (y) = 0.14826 0.48120
# Poissons Ratio (z) = 0.07560 0.59701
#
# Static dielectric constant tensor:
#      x y z
#    x 1.584940 0.000000 0.000000 
#    y 0.000000 1.610170 0.000000 
#    z 0.000000 0.000000 1.572500 
# 
# From -- ./inp_files/43935.got.cif
#   From: 2010.05.17/outbox.cif.g08.bks.cpg/sg67_22_cif.got.tgz:43935.got - 2010.06.03 18:28:57.
