data_PCOD9501809
_publ_section_title
;
Structure prediction by ZEFSAII (Michael W. Deem and Ramdas Pophale) SiO2 
 PCOD9501809
Probable space group: C M M A
;
_chemical_formula_sum "Si O2"
_cell_formula_units_Z 88
_cell_length_a 27.687002
_cell_length_b 8.371471
_cell_length_c 19.190496
_cell_angle_alpha 90.000000
_cell_angle_beta 90.000000
_cell_angle_gamma 90.000000
_cell_volume 4447.991093
_symmetry_space_group_name_H-M "C M M A"
_symmetry_group_IT_number 67
_symmetry_cell_setting 'orthorhombic'
loop_
_space_group_symop_operation_xyz
x,y,z
-x,1/2-y,z
x,-y,-z
-x,1/2+y,-z
-x,-y,-z
x,1/2+y,-z
-x,y,z
x,1/2-y,z
1/2+x,1/2+y,z
1/2-x,-y,z
1/2+x,1/2-y,-z
1/2-x,y,-z
1/2-x,1/2-y,-z
1/2+x,y,-z
1/2-x,1/2+y,z
1/2+x,-y,z
loop_
_atom_site_type_symbol
_atom_site_label
_atom_site_fract_x
_atom_site_fract_y
_atom_site_fract_z
Si Si1 0.442434 0.569714 0.073838
Si Si2 0.500000 0.443591 0.419853
Si Si3 0.695583 0.941971 0.922901
Si Si4 0.118863 0.062956 0.811490
Si Si5 0.099742 0.554493 0.344085
Si Si6 0.198478 0.941153 0.420545
O O1 0.500000 0.575576 0.072106
O O2 0.424002 0.750000 0.083132
O O3 0.425914 0.460894 0.137135
O O4 0.426279 0.500000 0.000000
O O5 0.500000 0.250000 0.419531
O O6 0.500000 0.500000 0.500000
O O7 0.450474 0.496694 0.380724
O O8 0.693697 0.750000 0.923780
O O9 0.662612 0.002335 0.859036
O O10 0.750000 0.000000 0.912525
O O11 0.680684 0.000000 0.000000
O O12 0.129160 0.250000 0.800851
O O13 0.106265 0.997173 0.735520
O O14 0.098258 0.750000 0.344381
O O15 0.148943 0.505767 0.383612
O O16 0.199493 0.750000 0.419463
O O17 0.196615 0.000000 0.500000
O O18 0.250000 0.000000 0.390235
#
# Coordination Sequence:
#
# PCOD9501809 Si02
#       6
#    16   8  16  16  16  16
#     4  10  21  36  54  78 106 139 180 223 268 319
#     4  10  20  38  62  84 109 146 187 230 277 330
#     4  10  20  34  54  78 106 141 186 229 271 322
#     4  10  21  36  55  80 108 142 181 225 273 329
#     4   9  20  36  56  83 112 146 186 226 276 340
#     4  10  19  34  56  82 111 142 182 227 274 333
#
# _framework density 19.784210999999999
#
# number of rings (size 3 to 8) (size 9 to 14) (size 15 to 20)
#    0.000    2.182    0.000    3.818    1.273    4.727 
#    0.000    3.636    0.000    0.000    0.000    0.000 
#    0.000    0.000    0.000    0.000    0.000    0.000 
#
# Total GULP energy -245381.871071 kJ/mol
# GULP energy per Si atom -5576.860706 kJ/mol
# Density = 1.973918 g / cm^3
# Si number density = 19.784211 Si / 1000 Ang^3
#
#
#
# Elastic Constant Matrix: (Units=GPa)
#
#
# Indices 1 2 3 4 5 6 
#
# 1 170.7191 23.7403 95.1802 0.0000 0.0000 0.0000
# 2 23.7403 14.0821 11.9196 0.0000 0.0000 0.0000
# 3 95.1802 11.9196 166.7280 0.0000 0.0000 0.0000
# 4 0.0000 0.0000 0.0000 20.5327 0.0000 0.0000
# 5 0.0000 0.0000 0.0000 0.0000 193.8372 0.0000
# 6 0.0000 0.0000 0.0000 0.0000 0.0000 30.5992
#
#
#
# Elastic Compliance Matrix: (Units=1/GPa)
#
#
# Indices 1 2 3 4 5 6 
#
# 1 0.010559 -0.013517 -0.005062 0.000000 0.000000 0.000000
# 2 -0.013517 0.092889 0.001076 0.000000 0.000000 0.000000
# 3 -0.005062 0.001076 0.008810 0.000000 0.000000 0.000000
# 4 0.000000 0.000000 0.000000 0.048703 0.000000 0.000000
# 5 0.000000 0.000000 0.000000 0.000000 0.005159 0.000000
# 6 0.000000 0.000000 0.000000 0.000000 0.000000 0.032681
#
#
# Mechanical properties :
#
#
# Convention : Reuss Voigt Hill
#
# Bulk Modulus (GPa) = 12.94450 68.13436 40.53943
# Shear Modulus (GPa) = 19.26356 63.70645 41.48500
#
# Velocity S-wave (km/s) = 3.12378 5.68072 4.58413
# Velocity P-wave (km/s) = 4.42354 8.80573 6.96809
#
# Compressibility (1/GPa) = 0.07725286
#
# Stress axis : x y z
#
# Youngs Moduli (GPa) = 94.70399 10.76555 113.50202
#
# Poissons Ratio (x) = 0.14552 0.57450
# Poissons Ratio (y) = 1.28010 -0.12209
# Poissons Ratio (z) = 0.47935 -0.01158
#
# Static dielectric constant tensor:
#      x y z
#    x 1.724020 0.000000 0.000000 
#    y 0.000000 1.714350 0.000000 
#    z 0.000000 0.000000 1.668010 
# 
# From -- ./inp_files/36151.got.cif
#   From: 2010.05.17/outbox.cif.g08.bks.cpg/sg67_19_cif.got.tgz:36151.got - 2010.06.03 18:28:57.
