data_PCOD9501716
_publ_section_title
;
Structure prediction by ZEFSAII (Michael W. Deem and Ramdas Pophale) SiO2 
 PCOD9501716
Probable space group: C M M A
;
_chemical_formula_sum "Si O2"
_cell_formula_units_Z 112
_cell_length_a 14.290775
_cell_length_b 25.203731
_cell_length_c 14.836380
_cell_angle_alpha 90.000000
_cell_angle_beta 90.000000
_cell_angle_gamma 90.000000
_cell_volume 5343.779943
_symmetry_space_group_name_H-M "C M M A"
_symmetry_group_IT_number 67
_symmetry_cell_setting 'orthorhombic'
loop_
_space_group_symop_operation_xyz
x,y,z
-x,1/2-y,z
x,-y,-z
-x,1/2+y,-z
-x,-y,-z
x,1/2+y,-z
-x,y,z
x,1/2-y,z
1/2+x,1/2+y,z
1/2-x,-y,z
1/2+x,1/2-y,-z
1/2-x,y,-z
1/2-x,1/2-y,-z
1/2+x,y,-z
1/2-x,1/2+y,z
1/2+x,-y,z
loop_
_atom_site_type_symbol
_atom_site_label
_atom_site_fract_x
_atom_site_fract_y
_atom_site_fract_z
Si Si1 0.826389 0.307674 0.422333
Si Si2 0.252307 0.307831 0.779038
Si Si3 0.609615 0.039848 0.372718
Si Si4 0.862050 0.939138 0.998226
Si Si5 0.681793 0.077281 0.621753
Si Si6 0.899026 0.602012 0.194746
Si Si7 0.605192 0.612975 0.192177
O O1 0.879124 0.250000 0.428975
O O2 0.750000 0.307036 0.500000
O O3 0.773361 0.305468 0.327029
O O4 0.863699 0.368746 0.419766
O O5 0.225763 0.250000 0.812565
O O6 0.175766 0.352165 0.794178
O O7 0.348492 0.329560 0.820622
O O8 0.500000 0.052354 0.399173
O O9 0.706460 0.070991 0.401894
O O10 0.613331 0.052974 0.264631
O O11 0.631252 0.978647 0.397787
O O12 0.893356 0.914765 0.903999
O O13 0.750000 0.934900 0.000000
O O14 0.896698 0.914674 0.091198
O O15 0.889230 0.000000 0.000000
O O16 0.666145 0.084279 0.730133
O O17 0.000000 0.624907 0.218557
O O18 0.500000 0.616118 0.226849
#
# Coordination Sequence:
#
# PCOD9501716 Si02
#       7
#    16  16  16  16  16  16  16
#     4   9  18  36  64  91 114 148 195 247 302 356
#     4  10  21  40  61  83 112 150 198 248 297 356
#     4  10  19  33  56  84 116 156 195 235 287 351
#     4  11  21  35  56  84 117 152 193 242 292 345
#     4  10  19  35  57  86 117 154 194 238 295 354
#     4  11  21  36  58  85 117 153 197 245 295 349
#     4  11  21  35  55  83 117 154 196 242 296 352
#
# _framework density 20.958946000000001
#
# number of rings (size 3 to 8) (size 9 to 14) (size 15 to 20)
#    0.000    1.714    4.286    1.714    0.000    5.143 
#    0.000    2.857    0.000   12.857    0.000   24.000 
#    0.000    0.000    0.000    0.000    0.000    0.000 
#
# Total GULP energy -311879.452901 kJ/mol
# GULP energy per Si atom -5569.275945 kJ/mol
# Density = 2.091124 g / cm^3
# Si number density = 20.958946 Si / 1000 Ang^3
#
#
#
# Elastic Constant Matrix: (Units=GPa)
#
#
# Indices 1 2 3 4 5 6 
#
# 1 132.4903 41.0050 9.2856 0.0000 0.0000 0.0000
# 2 41.0050 146.7989 31.4216 0.0000 0.0000 0.0000
# 3 9.2856 31.4216 63.8235 0.0000 0.0000 0.0000
# 4 0.0000 0.0000 0.0000 781.3030 0.0000 0.0000
# 5 0.0000 0.0000 0.0000 0.0000 13.2178 0.0000
# 6 0.0000 0.0000 0.0000 0.0000 0.0000 85.1151
#
#
#
# Elastic Compliance Matrix: (Units=1/GPa)
#
#
# Indices 1 2 3 4 5 6 
#
# 1 0.008262 -0.002292 -0.000074 0.000000 0.000000 0.000000
# 2 -0.002292 0.008250 -0.003728 0.000000 0.000000 0.000000
# 3 -0.000074 -0.003728 0.017514 0.000000 0.000000 0.000000
# 4 0.000000 0.000000 0.000000 0.001280 0.000000 0.000000
# 5 0.000000 0.000000 0.000000 0.000000 0.075655 0.000000
# 6 0.000000 0.000000 0.000000 0.000000 0.000000 0.011749
#
#
# Mechanical properties :
#
#
# Convention : Reuss Voigt Hill
#
# Bulk Modulus (GPa) = 45.78979 56.28190 51.03585
# Shear Modulus (GPa) = 35.16694 193.35389 114.26042
#
# Velocity S-wave (km/s) = 4.10066 9.61530 7.39153
# Velocity P-wave (km/s) = 6.65698 12.25494 9.86151
#
# Compressibility (1/GPa) = 0.02183893
#
# Stress axis : x y z
#
# Youngs Moduli (GPa) = 121.03195 121.20736 57.09575
#
# Poissons Ratio (x) = 0.27782 0.00420
# Poissons Ratio (y) = 0.27742 0.21287
# Poissons Ratio (z) = 0.00891 0.45190
#
# Static dielectric constant tensor:
#      x y z
#    x 1.790760 0.000000 0.000000 
#    y 0.000000 1.810120 0.000000 
#    z 0.000000 0.000000 1.723720 
# 
# From -- ./inp_files/27756.got.cif
#   From: 2010.05.17/outbox.cif.g08.bks.cpg/sg67_14_cif.got.tgz:27756.got - 2010.06.03 18:28:57.
