data_PCOD9501224
_publ_section_title
;
Structure prediction by ZEFSAII (Michael W. Deem and Ramdas Pophale) SiO2 
 PCOD9501224
Probable space group: C M M A
;
_chemical_formula_sum "Si O2"
_cell_formula_units_Z 112
_cell_length_a 14.402735
_cell_length_b 15.492715
_cell_length_c 23.240594
_cell_angle_alpha 90.000000
_cell_angle_beta 90.000000
_cell_angle_gamma 90.000000
_cell_volume 5185.847313
_symmetry_space_group_name_H-M "C M M A"
_symmetry_group_IT_number 67
_symmetry_cell_setting 'orthorhombic'
loop_
_space_group_symop_operation_xyz
x,y,z
-x,1/2-y,z
x,-y,-z
-x,1/2+y,-z
-x,-y,-z
x,1/2+y,-z
-x,y,z
x,1/2-y,z
1/2+x,1/2+y,z
1/2-x,-y,z
1/2+x,1/2-y,-z
1/2-x,y,-z
1/2-x,1/2-y,-z
1/2+x,y,-z
1/2-x,1/2+y,z
1/2+x,-y,z
loop_
_atom_site_type_symbol
_atom_site_label
_atom_site_fract_x
_atom_site_fract_y
_atom_site_fract_z
Si Si1 0.894304 0.659996 0.395201
Si Si2 0.394821 0.855646 0.030198
Si Si3 0.888401 0.648590 0.205900
Si Si4 0.858545 0.904265 0.513932
Si Si5 0.707242 0.145081 0.086591
Si Si6 0.886915 0.521793 0.309958
Si Si7 0.888814 0.653947 0.645175
O O1 0.848129 0.750000 0.378394
O O2 0.897988 0.654343 0.463467
O O3 0.854779 0.574185 0.366839
O O4 0.000000 0.663201 0.373494
O O5 0.500000 0.885195 0.041424
O O6 0.396603 0.750000 0.031157
O O7 0.312876 0.883610 0.073630
O O8 0.358086 0.881755 0.966852
O O9 0.867908 0.750000 0.219409
O O10 0.835410 0.622484 0.147784
O O11 0.863465 0.582463 0.256513
O O12 0.000000 0.644116 0.196848
O O13 0.750000 0.904580 0.500000
O O14 0.874402 0.872560 0.578332
O O15 0.894767 0.000000 0.500000
O O16 0.708241 0.250000 0.084647
O O17 0.852105 0.423977 0.315180
O O18 0.000000 0.514906 0.310436
O O19 0.853109 0.750000 0.656691
O O20 0.000000 0.657451 0.652933
#
# Coordination Sequence:
#
# PCOD9501224 Si02
#       7
#    16  16  16  16  16  16  16
#     4  10  19  31  49  70  93 126 164 202 255 321
#     4   8  12  18  28  45  77 123 174 228 283 336
#     4   9  15  23  37  58  86 121 164 217 278 340
#     4  11  22  34  49  71 100 132 165 207 264 323
#     4   8  13  19  29  49  79 121 174 227 280 340
#     4   9  17  29  44  63  89 119 158 211 263 317
#     4  10  20  34  52  71  93 128 170 208 258 328
#
# _framework density 21.597242000000001
#
# number of rings (size 3 to 8) (size 9 to 14) (size 15 to 20)
#    0.000    2.714    1.429    2.571    0.000    6.286 
#    0.000    0.000    0.000    0.000    0.000    0.000 
#    0.000    4.571    0.000   13.143    0.000    7.571 
#
# Total GULP energy -312435.667132 kJ/mol
# GULP energy per Si atom -5579.208342 kJ/mol
# Density = 2.154809 g / cm^3
# Si number density = 21.597242 Si / 1000 Ang^3
#
#
#
# Elastic Constant Matrix: (Units=GPa)
#
#
# Indices 1 2 3 4 5 6 
#
# 1 106.4588 25.4675 29.8226 0.0000 0.0000 0.0000
# 2 25.4675 147.9756 65.3062 0.0000 0.0000 0.0000
# 3 29.8226 65.3062 123.4241 0.0000 0.0000 0.0000
# 4 0.0000 0.0000 0.0000 14.0579 0.0000 0.0000
# 5 0.0000 0.0000 0.0000 0.0000 14.8021 0.0000
# 6 0.0000 0.0000 0.0000 0.0000 0.0000 -438.6980
#
#
#
# Elastic Compliance Matrix: (Units=1/GPa)
#
#
# Indices 1 2 3 4 5 6 
#
# 1 0.010160 -0.000868 -0.001996 0.000000 0.000000 0.000000
# 2 -0.000868 0.008891 -0.004495 0.000000 0.000000 0.000000
# 3 -0.001996 -0.004495 0.010963 0.000000 0.000000 0.000000
# 4 0.000000 0.000000 0.000000 0.071135 0.000000 0.000000
# 5 0.000000 0.000000 0.000000 0.000000 0.067558 0.000000
# 6 0.000000 0.000000 0.000000 0.000000 0.000000 -0.002279
#
#
# Mechanical properties :
#
#
# Convention : Reuss Voigt Hill
#
# Bulk Modulus (GPa) = 65.37226 68.78345 67.07785
# Shear Modulus (GPa) = 26.84682 -64.81678 -18.98498
#
# Velocity S-wave (km/s) = 3.52954 -5.48423 -2.96809
# Velocity P-wave (km/s) = 6.85162 2.86093 4.40226
#
# Compressibility (1/GPa) = 0.01529701
#
# Stress axis : x y z
#
# Youngs Moduli (GPa) = 98.42545 112.47516 91.21937
#
# Poissons Ratio (x) = 0.09761 0.18205
# Poissons Ratio (y) = 0.08541 0.41000
# Poissons Ratio (z) = 0.19643 0.50554
#
# Static dielectric constant tensor:
#      x y z
#    x 1.882340 0.000000 0.000000 
#    y 0.000000 1.851410 0.000000 
#    z 0.000000 0.000000 1.744030 
# 
# From -- ./inp_files/42013.got.cif
#   From: 2010.05.17/outbox.cif.g08.bks.cpg/sg67_22_cif.got.tgz:42013.got - 2010.06.03 18:28:57.
