data_PCOD9501567
_publ_section_title
;
Structure prediction by ZEFSAII (Michael W. Deem and Ramdas Pophale) SiO2 
 PCOD9501567
Probable space group: C M M A
;
_chemical_formula_sum "Si O2"
_cell_formula_units_Z 72
_cell_length_a 25.728257
_cell_length_b 8.897434
_cell_length_c 20.334004
_cell_angle_alpha 90.000000
_cell_angle_beta 90.000000
_cell_angle_gamma 90.000000
_cell_volume 4654.768054
_symmetry_space_group_name_H-M "C M M A"
_symmetry_group_IT_number 67
_symmetry_cell_setting 'orthorhombic'
loop_
_space_group_symop_operation_xyz
x,y,z
-x,1/2-y,z
x,-y,-z
-x,1/2+y,-z
-x,-y,-z
x,1/2+y,-z
-x,y,z
x,1/2-y,z
1/2+x,1/2+y,z
1/2-x,-y,z
1/2+x,1/2-y,-z
1/2-x,y,-z
1/2-x,1/2-y,-z
1/2+x,y,-z
1/2-x,1/2+y,z
1/2+x,-y,z
loop_
_atom_site_type_symbol
_atom_site_label
_atom_site_fract_x
_atom_site_fract_y
_atom_site_fract_z
Si Si1 0.939330 0.430531 0.296168
Si Si2 0.563174 0.575748 0.567581
Si Si3 0.306748 0.930453 0.929413
Si Si4 0.396964 0.068209 0.844854
Si Si5 0.500000 0.569709 0.072196
O O1 0.938647 0.250000 0.301380
O O2 0.919849 0.498689 0.364630
O O3 0.907937 0.472402 0.230926
O O4 0.000000 0.475055 0.286847
O O5 0.581512 0.500000 0.500000
O O6 0.500000 0.564061 0.567376
O O7 0.576930 0.750000 0.567724
O O8 0.303934 0.750000 0.933806
O O9 0.250000 0.000000 0.915475
O O10 0.348096 0.984792 0.875949
O O11 0.322994 0.000000 0.000000
O O12 0.390217 0.250000 0.848804
O O13 0.448436 0.028824 0.886924
O O14 0.500000 0.750000 0.066189
O O15 0.500000 0.500000 0.000000
#
# Coordination Sequence:
#
# PCOD9501567 Si02
#       5
#    16  16  16  16   8
#     4   9  16  28  45  64  91 127 159 190 231 278
#     4   9  16  25  38  58  85 119 159 198 231 271
#     4  11  22  37  55  73  92 119 156 201 248 291
#     4  10  19  33  50  70  97 127 159 194 236 286
#     4  10  20  32  46  66  93 126 159 190 229 278
#
# _framework density 15.468011000000001
#
# number of rings (size 3 to 8) (size 9 to 14) (size 15 to 20)
#    0.000    2.222    1.111    4.000    0.000    6.222 
#    0.000    0.000    0.000    0.000    0.000    0.000 
#    0.000    0.889    0.000    9.333    0.000    4.444 
#
# Total GULP energy -200773.994590 kJ/mol
# GULP energy per Si atom -5577.055405 kJ/mol
# Density = 1.543281 g / cm^3
# Si number density = 15.468011 Si / 1000 Ang^3
#
#
#
# Elastic Constant Matrix: (Units=GPa)
#
#
# Indices 1 2 3 4 5 6 
#
# 1 46.9821 35.1981 59.6554 0.0000 0.0000 0.0000
# 2 35.1981 69.2579 69.3308 0.0000 0.0000 0.0000
# 3 59.6554 69.3308 177.5298 0.0000 0.0000 0.0000
# 4 0.0000 0.0000 0.0000 29.6421 0.0000 0.0000
# 5 0.0000 0.0000 0.0000 0.0000 13.7711 0.0000
# 6 0.0000 0.0000 0.0000 0.0000 0.0000 17.5323
#
#
#
# Elastic Compliance Matrix: (Units=1/GPa)
#
#
# Indices 1 2 3 4 5 6 
#
# 1 0.042412 -0.011966 -0.009579 0.000000 0.000000 0.000000
# 2 -0.011966 0.027083 -0.006556 0.000000 0.000000 0.000000
# 3 -0.009579 -0.006556 0.011412 0.000000 0.000000 0.000000
# 4 0.000000 0.000000 0.000000 0.033736 0.000000 0.000000
# 5 0.000000 0.000000 0.000000 0.000000 0.072616 0.000000
# 6 0.000000 0.000000 0.000000 0.000000 0.000000 0.057038
#
#
# Mechanical properties :
#
#
# Convention : Reuss Voigt Hill
#
# Bulk Modulus (GPa) = 40.47608 69.12647 54.80128
# Shear Modulus (GPa) = 16.19535 20.82814 18.51174
#
# Velocity S-wave (km/s) = 3.23928 3.67349 3.46320
# Velocity P-wave (km/s) = 6.34153 7.92336 7.17617
#
# Compressibility (1/GPa) = 0.02470595
#
# Stress axis : x y z
#
# Youngs Moduli (GPa) = 23.57847 36.92409 87.62853
#
# Poissons Ratio (x) = 0.44182 0.83936
# Poissons Ratio (y) = 0.28213 0.57447
# Poissons Ratio (z) = 0.22585 0.24207
#
# Static dielectric constant tensor:
#      x y z
#    x 1.493810 0.000000 0.000000 
#    y 0.000000 1.519540 0.000000 
#    z 0.000000 0.000000 1.516590 
# 
# From -- ./inp_files/31952.got.cif
#   From: 2010.05.17/outbox.cif.g08.bks.cpg/sg67_16_cif.got.tgz:31952.got - 2010.06.03 18:28:57.
