data_PCOD9501911
_publ_section_title
;
Structure prediction by ZEFSAII (Michael W. Deem and Ramdas Pophale) SiO2 
 PCOD9501911
Probable space group: C M M A
;
_chemical_formula_sum "Si O2"
_cell_formula_units_Z 96
_cell_length_a 29.268209
_cell_length_b 17.704562
_cell_length_c 10.260092
_cell_angle_alpha 90.000000
_cell_angle_beta 90.000000
_cell_angle_gamma 90.000000
_cell_volume 5316.582895
_symmetry_space_group_name_H-M "C M M A"
_symmetry_group_IT_number 67
_symmetry_cell_setting 'orthorhombic'
loop_
_space_group_symop_operation_xyz
x,y,z
-x,1/2-y,z
x,-y,-z
-x,1/2+y,-z
-x,-y,-z
x,1/2+y,-z
-x,y,z
x,1/2-y,z
1/2+x,1/2+y,z
1/2-x,-y,z
1/2+x,1/2-y,-z
1/2-x,y,-z
1/2-x,1/2-y,-z
1/2+x,y,-z
1/2-x,1/2+y,z
1/2+x,-y,z
loop_
_atom_site_type_symbol
_atom_site_label
_atom_site_fract_x
_atom_site_fract_y
_atom_site_fract_z
Si Si1 0.879299 0.910623 0.009005
Si Si2 0.052455 0.342040 0.489801
Si Si3 0.372396 0.158335 0.722069
Si Si4 0.787608 0.161345 0.886325
Si Si5 0.770233 0.342067 0.362179
Si Si6 0.554613 0.161080 0.216218
O O1 0.881164 0.874497 0.865097
O O2 0.831887 0.884430 0.073834
O O3 0.919250 0.881408 0.102856
O O4 0.881008 0.000000 0.000000
O O5 0.051974 0.250000 0.491530
O O6 0.088430 0.365202 0.380147
O O7 0.066230 0.365297 0.636544
O O8 0.000000 0.366142 0.464447
O O9 0.372675 0.250000 0.730829
O O10 0.322185 0.135202 0.670014
O O11 0.800240 0.250000 0.872716
O O12 0.763451 0.135086 0.754150
O O13 0.750000 0.156548 0.000000
O O14 0.770621 0.250000 0.363110
O O15 0.750000 0.367583 0.500000
O O16 0.500000 0.154286 0.203437
O O17 0.566237 0.250000 0.207493
#
# Coordination Sequence:
#
# PCOD9501911 Si02
#       6
#    16  16  16  16  16  16
#     4  12  25  37  53  81 118 158 190 228 275 334
#     4   8  16  32  58  89 113 136 176 235 292 336
#     4  10  19  35  57  83 112 141 186 237 280 334
#     4  10  19  36  59  80 107 143 187 234 279 329
#     4   9  18  31  53  85 108 132 177 237 293 333
#     4   9  19  38  63  88 111 142 189 237 283 337
#
# _framework density 18.056709999999999
#
# number of rings (size 3 to 8) (size 9 to 14) (size 15 to 20)
#    0.000    2.333    1.667    2.500    2.333    1.333 
#    0.000    2.500    0.000    3.000    0.000    0.000 
#    0.000    0.000    0.000    0.000    0.000    0.000 
#
# Total GULP energy -267835.186030 kJ/mol
# GULP energy per Si atom -5579.899709 kJ/mol
# Density = 1.801561 g / cm^3
# Si number density = 18.056710 Si / 1000 Ang^3
#
#
#
# Elastic Constant Matrix: (Units=GPa)
#
#
# Indices 1 2 3 4 5 6 
#
# 1 92.2164 43.6414 100.7741 0.0000 0.0000 0.0000
# 2 43.6414 43.0434 47.4140 0.0000 0.0000 0.0000
# 3 100.7741 47.4140 200.7274 0.0000 0.0000 0.0000
# 4 0.0000 0.0000 0.0000 -6.5967 0.0000 0.0000
# 5 0.0000 0.0000 0.0000 0.0000 40.5842 0.0000
# 6 0.0000 0.0000 0.0000 0.0000 0.0000 -260.9658
#
#
#
# Elastic Compliance Matrix: (Units=1/GPa)
#
#
# Indices 1 2 3 4 5 6 
#
# 1 0.034170 -0.021287 -0.012127 0.000000 0.000000 0.000000
# 2 -0.021287 0.044664 0.000137 0.000000 0.000000 0.000000
# 3 -0.012127 0.000137 0.011038 0.000000 0.000000 0.000000
# 4 0.000000 0.000000 0.000000 -0.151590 0.000000 0.000000
# 5 0.000000 0.000000 0.000000 0.000000 0.024640 0.000000
# 6 0.000000 0.000000 0.000000 0.000000 0.000000 -0.003832
#
#
# Mechanical properties :
#
#
# Convention : Reuss Voigt Hill
#
# Bulk Modulus (GPa) = 42.88431 79.96068 61.42249
# Shear Modulus (GPa) = 149.62471 -35.78515 56.91978
#
# Velocity S-wave (km/s) = 9.11283 -4.45659 5.62061
# Velocity P-wave (km/s) = 11.59854 4.23055 8.72994
#
# Compressibility (1/GPa) = 0.02331855
#
# Stress axis : x y z
#
# Youngs Moduli (GPa) = 29.26526 22.38923 90.59801
#
# Poissons Ratio (x) = 0.47660 1.09866
# Poissons Ratio (y) = 0.62296 -0.01239
# Poissons Ratio (z) = 0.35489 -0.00306
#
# Static dielectric constant tensor:
#      x y z
#    x 1.609480 0.000000 0.000000 
#    y 0.000000 1.598160 0.000000 
#    z 0.000000 0.000000 1.611390 
# 
# From -- ./inp_files/11506.got.cif
#   From: 2010.05.17/outbox.cif.g08.bks.cpg/sg67_6_cif.got.tgz:11506.got - 2010.06.03 18:28:57.
