data_PCOD9501904
_publ_section_title
;
Structure prediction by ZEFSAII (Michael W. Deem and Ramdas Pophale) SiO2 
 PCOD9501904
Probable space group: C M M A
;
_chemical_formula_sum "Si O2"
_cell_formula_units_Z 68
_cell_length_a 28.811200
_cell_length_b 13.506036
_cell_length_c 9.329571
_cell_angle_alpha 90.000000
_cell_angle_beta 90.000000
_cell_angle_gamma 90.000000
_cell_volume 3630.370289
_symmetry_space_group_name_H-M "C M M A"
_symmetry_group_IT_number 67
_symmetry_cell_setting 'orthorhombic'
loop_
_space_group_symop_operation_xyz
x,y,z
-x,1/2-y,z
x,-y,-z
-x,1/2+y,-z
-x,-y,-z
x,1/2+y,-z
-x,y,z
x,1/2-y,z
1/2+x,1/2+y,z
1/2-x,-y,z
1/2+x,1/2-y,-z
1/2-x,y,-z
1/2-x,1/2-y,-z
1/2+x,y,-z
1/2-x,1/2+y,z
1/2+x,-y,z
loop_
_atom_site_type_symbol
_atom_site_label
_atom_site_fract_x
_atom_site_fract_y
_atom_site_fract_z
Si Si1 0.324840 0.864523 0.647039
Si Si2 0.000000 0.960447 0.161557
Si Si3 0.250000 0.000000 0.500000
Si Si4 0.000000 0.636741 0.611895
Si Si5 0.602573 0.463026 0.163052
Si Si6 0.399863 0.863486 0.396601
O O1 0.311004 0.750000 0.656539
O O2 0.354557 0.896421 0.785505
O O3 0.361137 0.876648 0.515697
O O4 0.281940 0.932708 0.602738
O O5 0.948817 0.913191 0.181192
O O6 0.000000 0.056730 0.263161
O O7 0.000000 0.000000 0.000000
O O8 0.048863 0.623827 0.533233
O O9 0.000000 0.750000 0.667067
O O10 0.604159 0.558137 0.269300
O O11 0.606812 0.500000 0.000000
O O12 0.396867 0.750000 0.343672
#
# Coordination Sequence:
#
# PCOD9501904 Si02
#       6
#    16   8   4   8  16  16
#     4  11  23  39  62  87 110 146 195 242 292 353
#     4   8  16  29  49  77 115 161 188 213 270 340
#     4  12  22  44  66  80 112 144 192 248 316 352
#     4   8  14  25  47  77 108 140 182 231 271 326
#     4  10  19  35  56  84 122 155 189 231 280 340
#     4   9  17  32  54  81 111 148 189 228 280 340
#
# _framework density 18.730872000000002
#
# number of rings (size 3 to 8) (size 9 to 14) (size 15 to 20)
#    0.000    2.353    2.353    0.353    0.000    1.882 
#    0.000    9.412    0.000    1.412    0.000    0.000 
#    0.000    0.000    0.000    0.000    0.000    0.000 
#
# Total GULP energy -189474.135971 kJ/mol
# GULP energy per Si atom -5572.768705 kJ/mol
# Density = 1.868824 g / cm^3
# Si number density = 18.730872 Si / 1000 Ang^3
#
#
#
# Elastic Constant Matrix: (Units=GPa)
#
#
# Indices 1 2 3 4 5 6 
#
# 1 139.7672 56.0678 30.0273 0.0000 0.0000 0.0000
# 2 56.0678 87.8417 20.2137 0.0000 0.0000 0.0000
# 3 30.0273 20.2137 70.1196 0.0000 0.0000 0.0000
# 4 0.0000 0.0000 0.0000 9.7754 0.0000 0.0000
# 5 0.0000 0.0000 0.0000 0.0000 23.5791 0.0000
# 6 0.0000 0.0000 0.0000 0.0000 0.0000 75.7202
#
#
#
# Elastic Compliance Matrix: (Units=1/GPa)
#
#
# Indices 1 2 3 4 5 6 
#
# 1 0.010050 -0.005810 -0.002629 0.000000 0.000000 0.000000
# 2 -0.005810 0.015552 -0.001995 0.000000 0.000000 0.000000
# 3 -0.002629 -0.001995 0.015962 0.000000 0.000000 0.000000
# 4 0.000000 0.000000 0.000000 0.102297 0.000000 0.000000
# 5 0.000000 0.000000 0.000000 0.000000 0.042410 0.000000
# 6 0.000000 0.000000 0.000000 0.000000 0.000000 0.013207
#
#
# Mechanical properties :
#
#
# Convention : Reuss Voigt Hill
#
# Bulk Modulus (GPa) = 48.31835 56.70512 52.51174
# Shear Modulus (GPa) = 22.00270 34.57626 28.28948
#
# Velocity S-wave (km/s) = 3.43107 4.30111 3.89049
# Velocity P-wave (km/s) = 6.44581 7.41657 6.94816
#
# Compressibility (1/GPa) = 0.02069607
#
# Stress axis : x y z
#
# Youngs Moduli (GPa) = 99.50044 64.30209 62.64768
#
# Poissons Ratio (x) = 0.37359 0.16470
# Poissons Ratio (y) = 0.57809 0.12499
# Poissons Ratio (z) = 0.26158 0.12829
#
# Static dielectric constant tensor:
#      x y z
#    x 1.698810 0.000000 0.000000 
#    y 0.000000 1.685390 0.000000 
#    z 0.000000 0.000000 1.621290 
# 
# From -- ./inp_files/13288.got.cif
#   From: 2010.05.17/outbox.cif.g08.bks.cpg/sg67_7_cif.got.tgz:13288.got - 2010.06.03 18:28:57.
