data_PCOD9501406
_publ_section_title
;
Structure prediction by ZEFSAII (Michael W. Deem and Ramdas Pophale) SiO2 
 PCOD9501406
Probable space group: C M M A
;
_chemical_formula_sum "Si O2"
_cell_formula_units_Z 96
_cell_length_a 18.994250
_cell_length_b 8.927679
_cell_length_c 32.671140
_cell_angle_alpha 90.000000
_cell_angle_beta 90.000000
_cell_angle_gamma 90.000000
_cell_volume 5540.194414
_symmetry_space_group_name_H-M "C M M A"
_symmetry_group_IT_number 67
_symmetry_cell_setting 'orthorhombic'
loop_
_space_group_symop_operation_xyz
x,y,z
-x,1/2-y,z
x,-y,-z
-x,1/2+y,-z
-x,-y,-z
x,1/2+y,-z
-x,y,z
x,1/2-y,z
1/2+x,1/2+y,z
1/2-x,-y,z
1/2+x,1/2-y,-z
1/2-x,y,-z
1/2-x,1/2-y,-z
1/2+x,y,-z
1/2-x,1/2+y,z
1/2+x,-y,z
loop_
_atom_site_type_symbol
_atom_site_label
_atom_site_fract_x
_atom_site_fract_y
_atom_site_fract_z
Si Si1 0.417813 0.069636 0.957384
Si Si2 0.672209 0.429927 0.789990
Si Si3 0.828200 0.930064 0.700258
Si Si4 0.672144 0.568847 0.120797
Si Si5 0.083936 0.427568 0.627248
Si Si6 0.085763 0.922695 0.541991
O O1 0.500000 0.028402 0.952682
O O2 0.413806 0.250000 0.960106
O O3 0.374417 0.020403 0.917665
O O4 0.391838 0.000000 0.000000
O O5 0.678016 0.250000 0.789931
O O6 0.750000 0.500000 0.790199
O O7 0.641406 0.470890 0.745581
O O8 0.640777 0.472119 0.834277
O O9 0.823525 0.750000 0.697517
O O10 0.750000 0.000000 0.697445
O O11 0.875471 0.993196 0.663985
O O12 0.677362 0.750000 0.119422
O O13 0.750000 0.500000 0.117855
O O14 0.095889 0.250000 0.628492
O O15 0.107047 0.491829 0.583187
O O16 0.000000 0.454516 0.631045
O O17 0.107701 0.750000 0.543502
O O18 0.000000 0.925621 0.541251
O O19 0.109783 0.000000 0.500000
#
# Coordination Sequence:
#
# PCOD9501406 Si02
#       6
#    16  16  16  16  16  16
#     4   9  18  32  48  65  89 122 156 188 225 273
#     4   8  15  28  46  68  92 119 152 189 230 277
#     4  10  19  32  51  73  97 127 163 199 238 288
#     4   9  17  30  48  70  93 117 149 190 234 275
#     4  10  20  33  49  71 100 131 163 202 245 285
#     4   9  16  27  45  69  96 126 161 200 242 288
#
# _framework density 17.327912000000001
#
# number of rings (size 3 to 8) (size 9 to 14) (size 15 to 20)
#    0.000    2.833    0.000    1.500    0.000    4.667 
#    0.000    2.500    0.000    3.500    0.000    5.833 
#    0.000    0.000    0.000    0.000    0.000    0.000 
#
# Total GULP energy -267283.451559 kJ/mol
# GULP energy per Si atom -5568.405241 kJ/mol
# Density = 1.728847 g / cm^3
# Si number density = 17.327912 Si / 1000 Ang^3
#
#
#
# Elastic Constant Matrix: (Units=GPa)
#
#
# Indices 1 2 3 4 5 6 
#
# 1 27.7099 28.3739 59.4909 0.0000 0.0000 0.0000
# 2 28.3739 50.8228 65.9962 0.0000 0.0000 0.0000
# 3 59.4909 65.9962 230.4752 0.0000 0.0000 0.0000
# 4 0.0000 0.0000 0.0000 28.5237 0.0000 0.0000
# 5 0.0000 0.0000 0.0000 0.0000 25.8923 0.0000
# 6 0.0000 0.0000 0.0000 0.0000 0.0000 19.2631
#
#
#
# Elastic Compliance Matrix: (Units=1/GPa)
#
#
# Indices 1 2 3 4 5 6 
#
# 1 0.120095 -0.042654 -0.018785 0.000000 0.000000 0.000000
# 2 -0.042654 0.046473 -0.002297 0.000000 0.000000 0.000000
# 3 -0.018785 -0.002297 0.009846 0.000000 0.000000 0.000000
# 4 0.000000 0.000000 0.000000 0.035059 0.000000 0.000000
# 5 0.000000 0.000000 0.000000 0.000000 0.038621 0.000000
# 6 0.000000 0.000000 0.000000 0.000000 0.000000 0.051913
#
#
# Mechanical properties :
#
#
# Convention : Reuss Voigt Hill
#
# Bulk Modulus (GPa) = 20.43331 68.52555 44.47943
# Shear Modulus (GPa) = 11.21594 25.07894 18.14744
#
# Velocity S-wave (km/s) = 2.54692 3.80849 3.23971
# Velocity P-wave (km/s) = 4.52403 7.67930 6.30232
#
# Compressibility (1/GPa) = 0.04893970
#
# Stress axis : x y z
#
# Youngs Moduli (GPa) = 8.32674 21.51782 101.56788
#
# Poissons Ratio (x) = 0.91783 1.90798
# Poissons Ratio (y) = 0.35517 0.23335
# Poissons Ratio (z) = 0.15642 0.04944
#
# Static dielectric constant tensor:
#      x y z
#    x 1.547520 0.000000 0.000000 
#    y 0.000000 1.584470 0.000000 
#    z 0.000000 0.000000 1.624350 
# 
# From -- ./inp_files/43511.got.cif
#   From: 2010.05.17/outbox.cif.g08.bks.cpg/sg67_22_cif.got.tgz:43511.got - 2010.06.03 18:28:57.
