data_PCOD9501351
_publ_section_title
;
Structure prediction by ZEFSAII (Michael W. Deem and Ramdas Pophale) SiO2 
 PCOD9501351
Probable space group: C M M A
;
_chemical_formula_sum "Si O2"
_cell_formula_units_Z 104
_cell_length_a 27.694177
_cell_length_b 8.611548
_cell_length_c 24.457877
_cell_angle_alpha 90.000000
_cell_angle_beta 90.000000
_cell_angle_gamma 90.000000
_cell_volume 5832.952594
_symmetry_space_group_name_H-M "C M M A"
_symmetry_group_IT_number 67
_symmetry_cell_setting 'orthorhombic'
loop_
_space_group_symop_operation_xyz
x,y,z
-x,1/2-y,z
x,-y,-z
-x,1/2+y,-z
-x,-y,-z
x,1/2+y,-z
-x,y,z
x,1/2-y,z
1/2+x,1/2+y,z
1/2-x,-y,z
1/2+x,1/2-y,-z
1/2-x,y,-z
1/2-x,1/2-y,-z
1/2+x,y,-z
1/2-x,1/2+y,z
1/2+x,-y,z
loop_
_atom_site_type_symbol
_atom_site_label
_atom_site_fract_x
_atom_site_fract_y
_atom_site_fract_z
Si Si1 0.500000 0.437270 0.061723
Si Si2 0.900855 0.936018 0.669196
Si Si3 0.698532 0.063484 0.727526
Si Si4 0.107033 0.435389 0.938882
Si Si5 0.054697 0.934525 0.225536
Si Si6 0.352941 0.566232 0.165391
Si Si7 0.556950 0.564320 0.559707
O O1 0.500000 0.250000 0.063525
O O2 0.446929 0.486190 0.081927
O O3 0.500000 0.500000 0.000000
O O4 0.906238 0.750000 0.675398
O O5 0.846777 0.979299 0.689110
O O6 0.936847 0.022205 0.711094
O O7 0.912838 0.987089 0.608131
O O8 0.700288 0.250000 0.728594
O O9 0.685460 0.009452 0.789359
O O10 0.750000 0.000000 0.709853
O O11 0.107089 0.250000 0.941754
O O12 0.145324 0.490465 0.894113
O O13 0.114213 0.500000 0.000000
O O14 0.061771 0.750000 0.216984
O O15 0.000000 0.972437 0.208970
O O16 0.095791 0.027123 0.193711
O O17 0.347833 0.750000 0.159345
O O18 0.570215 0.500000 0.500000
O O19 0.500000 0.527983 0.568266
O O20 0.562467 0.750000 0.560968
#
# Coordination Sequence:
#
# PCOD9501351 Si02
#       7
#     8  16  16  16  16  16  16
#     4   8  16  28  42  62  90 124 166 202 231 274
#     4  10  20  34  52  77 107 137 173 216 261 310
#     4   9  20  37  57  79 102 128 165 212 264 319
#     4  10  19  32  49  70  98 134 171 209 249 298
#     4  10  20  32  47  70 101 136 173 211 251 300
#     4  10  21  35  50  74 102 130 166 208 256 311
#     4  10  20  33  51  78 112 151 190 221 252 294
#
# _framework density 17.829734999999999
#
# number of rings (size 3 to 8) (size 9 to 14) (size 15 to 20)
#    0.000    2.308    0.000    3.692    1.077    8.308 
#    0.000    0.000    0.000    0.923    0.000    6.462 
#    0.000    0.000    0.000    0.000    0.000    0.000 
#
# Total GULP energy -290034.188694 kJ/mol
# GULP energy per Si atom -5577.580552 kJ/mol
# Density = 1.778915 g / cm^3
# Si number density = 17.829735 Si / 1000 Ang^3
#
#
#
# Elastic Constant Matrix: (Units=GPa)
#
#
# Indices 1 2 3 4 5 6 
#
# 1 54.2778 11.5304 18.9827 0.0000 0.0000 0.0000
# 2 11.5304 26.8940 14.0448 0.0000 0.0000 0.0000
# 3 18.9827 14.0448 98.3067 0.0000 0.0000 0.0000
# 4 0.0000 0.0000 0.0000 31.8982 0.0000 0.0000
# 5 0.0000 0.0000 0.0000 0.0000 18.3705 0.0000
# 6 0.0000 0.0000 0.0000 0.0000 0.0000 20.8915
#
#
#
# Elastic Compliance Matrix: (Units=1/GPa)
#
#
# Indices 1 2 3 4 5 6 
#
# 1 0.021058 -0.007462 -0.003000 0.000000 0.000000 0.000000
# 2 -0.007462 0.042825 -0.004677 0.000000 0.000000 0.000000
# 3 -0.003000 -0.004677 0.011420 0.000000 0.000000 0.000000
# 4 0.000000 0.000000 0.000000 0.031350 0.000000 0.000000
# 5 0.000000 0.000000 0.000000 0.000000 0.054435 0.000000
# 6 0.000000 0.000000 0.000000 0.000000 0.000000 0.047866
#
#
# Mechanical properties :
#
#
# Convention : Reuss Voigt Hill
#
# Bulk Modulus (GPa) = 22.21029 29.84383 26.02706
# Shear Modulus (GPa) = 19.66642 23.22674 21.44658
#
# Velocity S-wave (km/s) = 3.32477 3.61320 3.47198
# Velocity P-wave (km/s) = 5.21754 5.84650 5.54095
#
# Compressibility (1/GPa) = 0.04502418
#
# Stress axis : x y z
#
# Youngs Moduli (GPa) = 47.48767 23.35099 87.56690
#
# Poissons Ratio (x) = 0.17423 0.26272
# Poissons Ratio (y) = 0.35433 0.40959
# Poissons Ratio (z) = 0.14247 0.10922
#
# Static dielectric constant tensor:
#      x y z
#    x 1.612780 0.000000 0.000000 
#    y 0.000000 1.590090 0.000000 
#    z 0.000000 0.000000 1.624970 
# 
# From -- ./inp_files/42790.got.cif
#   From: 2010.05.17/outbox.cif.g08.bks.cpg/sg67_22_cif.got.tgz:42790.got - 2010.06.03 18:28:57.
