data_PCOD9501725
_publ_section_title
;
Structure prediction by ZEFSAII (Michael W. Deem and Ramdas Pophale) SiO2 
 PCOD9501725
Probable space group: C M M A
;
_chemical_formula_sum "Si O2"
_cell_formula_units_Z 112
_cell_length_a 18.609657
_cell_length_b 29.447481
_cell_length_c 12.074867
_cell_angle_alpha 90.000000
_cell_angle_beta 90.000000
_cell_angle_gamma 90.000000
_cell_volume 6617.117930
_symmetry_space_group_name_H-M "C M M A"
_symmetry_group_IT_number 67
_symmetry_cell_setting 'orthorhombic'
loop_
_space_group_symop_operation_xyz
x,y,z
-x,1/2-y,z
x,-y,-z
-x,1/2+y,-z
-x,-y,-z
x,1/2+y,-z
-x,y,z
x,1/2-y,z
1/2+x,1/2+y,z
1/2-x,-y,z
1/2+x,1/2-y,-z
1/2-x,y,-z
1/2-x,1/2-y,-z
1/2+x,y,-z
1/2-x,1/2+y,z
1/2+x,-y,z
loop_
_atom_site_type_symbol
_atom_site_label
_atom_site_fract_x
_atom_site_fract_y
_atom_site_fract_z
Si Si1 0.415089 0.057892 0.834665
Si Si2 0.586291 0.301981 0.985386
Si Si3 0.676339 0.028310 0.191608
Si Si4 0.914383 0.390463 0.394694
Si Si5 0.831940 0.111927 0.974057
Si Si6 0.330278 0.547223 0.548664
Si Si7 0.912680 0.300654 0.274269
O O1 0.500000 0.061862 0.856711
O O2 0.401261 0.076699 0.710917
O O3 0.371023 0.088031 0.921577
O O4 0.387159 0.006504 0.838786
O O5 0.500000 0.306495 0.992787
O O6 0.604726 0.250000 0.016375
O O7 0.624791 0.342075 0.051175
O O8 0.606272 0.307950 0.854918
O O9 0.673301 0.041891 0.320130
O O10 0.750000 0.000000 0.170939
O O11 0.671072 0.073444 0.119528
O O12 0.875651 0.411293 0.500559
O O13 0.888342 0.341106 0.353509
O O14 0.000000 0.388644 0.412716
O O15 0.750000 0.124186 0.000000
O O16 0.361207 0.500000 0.500000
O O17 0.250000 0.551328 0.500000
O O18 0.889445 0.250000 0.306713
O O19 0.000000 0.301482 0.276036
#
# Coordination Sequence:
#
# PCOD9501725 Si02
#       7
#    16  16  16  16  16  16  16
#     4  11  22  36  55  81 112 147 188 234 283 336
#     4   9  18  35  58  83 113 149 188 230 281 339
#     4  12  23  39  53  79 112 155 197 230 283 340
#     4  10  19  33  57  85 110 137 183 239 278 315
#     4  12  24  34  56  81 117 151 185 235 283 344
#     4  11  21  36  57  74 105 148 188 225 272 333
#     4   8  14  28  54  84 110 138 176 226 279 327
#
# _framework density 16.925798
#
# number of rings (size 3 to 8) (size 9 to 14) (size 15 to 20)
#    0.000    1.571    5.714    1.714    0.000    2.857 
#    0.000    0.000    0.000    1.286    0.000    2.000 
#    0.000    0.000    0.000    0.000    0.000    0.000 
#
# Total GULP energy -312471.000410 kJ/mol
# GULP energy per Si atom -5579.839293 kJ/mol
# Density = 1.688727 g / cm^3
# Si number density = 16.925798 Si / 1000 Ang^3
#
#
#
# Elastic Constant Matrix: (Units=GPa)
#
#
# Indices 1 2 3 4 5 6 
#
# 1 52.6452 38.1962 27.9804 0.0000 0.0000 0.0000
# 2 38.1962 150.6865 39.9931 0.0000 0.0000 0.0000
# 3 27.9804 39.9931 42.2114 0.0000 0.0000 0.0000
# 4 0.0000 0.0000 0.0000 24.2864 0.0000 0.0000
# 5 0.0000 0.0000 0.0000 0.0000 21.3211 0.0000
# 6 0.0000 0.0000 0.0000 0.0000 0.0000 27.2421
#
#
#
# Elastic Compliance Matrix: (Units=1/GPa)
#
#
# Indices 1 2 3 4 5 6 
#
# 1 0.030407 -0.003150 -0.017171 0.000000 0.000000 0.000000
# 2 -0.003150 0.009192 -0.006621 0.000000 0.000000 0.000000
# 3 -0.017171 -0.006621 0.041345 0.000000 0.000000 0.000000
# 4 0.000000 0.000000 0.000000 0.041175 0.000000 0.000000
# 5 0.000000 0.000000 0.000000 0.000000 0.046902 0.000000
# 6 0.000000 0.000000 0.000000 0.000000 0.000000 0.036708
#
#
# Mechanical properties :
#
#
# Convention : Reuss Voigt Hill
#
# Bulk Modulus (GPa) = 36.95478 50.87584 43.91531
# Shear Modulus (GPa) = 18.61274 23.86146 21.23710
#
# Velocity S-wave (km/s) = 3.31972 3.75876 3.54604
# Velocity P-wave (km/s) = 6.04771 6.99722 6.53972
#
# Compressibility (1/GPa) = 0.02706010
#
# Stress axis : x y z
#
# Youngs Moduli (GPa) = 32.88722 108.78994 24.18668
#
# Poissons Ratio (x) = 0.34272 0.41531
# Poissons Ratio (y) = 0.10361 0.16013
# Poissons Ratio (z) = 0.56470 0.72027
#
# Static dielectric constant tensor:
#      x y z
#    x 1.574790 0.000000 0.000000 
#    y 0.000000 1.595480 0.000000 
#    z 0.000000 0.000000 1.559860 
# 
# From -- ./inp_files/21257.got.cif
#   From: 2010.05.17/outbox.cif.g08.bks.cpg/sg67_11_cif.got.tgz:21257.got - 2010.06.03 18:28:57.
