data_PCOD9501493
_publ_section_title
;
Structure prediction by ZEFSAII (Michael W. Deem and Ramdas Pophale) SiO2 
 PCOD9501493
Probable space group: C M M A
;
_chemical_formula_sum "Si O2"
_cell_formula_units_Z 100
_cell_length_a 7.770241
_cell_length_b 27.434489
_cell_length_c 22.627358
_cell_angle_alpha 90.000000
_cell_angle_beta 90.000000
_cell_angle_gamma 90.000000
_cell_volume 4823.532538
_symmetry_space_group_name_H-M "C M M A"
_symmetry_group_IT_number 67
_symmetry_cell_setting 'orthorhombic'
loop_
_space_group_symop_operation_xyz
x,y,z
-x,1/2-y,z
x,-y,-z
-x,1/2+y,-z
-x,-y,-z
x,1/2+y,-z
-x,y,z
x,1/2-y,z
1/2+x,1/2+y,z
1/2-x,-y,z
1/2+x,1/2-y,-z
1/2-x,y,-z
1/2-x,1/2-y,-z
1/2+x,y,-z
1/2-x,1/2+y,z
1/2+x,-y,z
loop_
_atom_site_type_symbol
_atom_site_label
_atom_site_fract_x
_atom_site_fract_y
_atom_site_fract_z
Si Si1 0.795532 0.645990 0.684175
Si Si2 0.292885 0.193954 0.566002
Si Si3 0.204058 0.054120 0.759444
Si Si4 0.706560 0.693940 0.198133
Si Si5 0.250000 0.750000 0.000000
Si Si6 0.707672 0.445175 0.104518
Si Si7 0.801670 0.842683 0.076643
O O1 0.727148 0.660625 0.619888
O O2 0.767790 0.592952 0.711939
O O3 0.730781 0.680741 0.736656
O O4 0.000000 0.653735 0.680797
O O5 0.500000 0.195686 0.569042
O O6 0.230208 0.250000 0.572627
O O7 0.250000 0.176840 0.500000
O O8 0.272937 0.058610 0.827131
O O9 0.000000 0.059625 0.763647
O O10 0.250000 0.000000 0.739763
O O11 0.500000 0.685096 0.194895
O O12 0.739312 0.750000 0.186415
O O13 0.796056 0.663638 0.147098
O O14 0.217063 0.705639 0.951161
O O15 0.500000 0.441221 0.105011
O O16 0.750000 0.500000 0.083418
O O17 0.770411 0.397447 0.068461
O O18 0.000000 0.839835 0.056216
#
# Coordination Sequence:
#
# PCOD9501493 Si02
#       7
#    16  16  16  16   4  16  16
#     4  10  19  32  52  80 113 148 185 230 284 336
#     4   9  18  33  52  75 109 151 193 234 277 328
#     4  10  19  32  53  81 114 145 181 227 283 341
#     4  10  20  33  53  82 114 145 183 228 278 334
#     4  12  26  40  62  82 114 160 190 224 282 336
#     4   9  19  36  59  86 113 145 184 233 288 336
#     4  11  23  41  61  83 114 150 191 234 277 334
#
# _framework density 20.731693
#
# number of rings (size 3 to 8) (size 9 to 14) (size 15 to 20)
#    0.000    2.080    2.400    1.200    0.000    5.120 
#    0.000    0.400    0.000    5.280    0.000    3.360 
#    0.000    0.000    0.000    0.000    0.000    0.000 
#
# Total GULP energy -278380.102200 kJ/mol
# GULP energy per Si atom -5567.602044 kJ/mol
# Density = 2.068451 g / cm^3
# Si number density = 20.731693 Si / 1000 Ang^3
#
#
#
# Elastic Constant Matrix: (Units=GPa)
#
#
# Indices 1 2 3 4 5 6 
#
# 1 22.8274 10.1540 2.2606 0.0000 0.0000 0.0000
# 2 10.1540 160.3339 68.3623 0.0000 0.0000 0.0000
# 3 2.2606 68.3623 104.6289 0.0000 0.0000 0.0000
# 4 0.0000 0.0000 0.0000 -18.4178 0.0000 0.0000
# 5 0.0000 0.0000 0.0000 0.0000 2.6238 0.0000
# 6 0.0000 0.0000 0.0000 0.0000 0.0000 13.3500
#
#
#
# Elastic Compliance Matrix: (Units=1/GPa)
#
#
# Indices 1 2 3 4 5 6 
#
# 1 0.045192 -0.003390 0.001239 0.000000 0.000000 0.000000
# 2 -0.003390 0.008900 -0.005742 0.000000 0.000000 0.000000
# 3 0.001239 -0.005742 0.013282 0.000000 0.000000 0.000000
# 4 0.000000 0.000000 0.000000 -0.054295 0.000000 0.000000
# 5 0.000000 0.000000 0.000000 0.000000 0.381120 0.000000
# 6 0.000000 0.000000 0.000000 0.000000 0.000000 0.074906
#
#
# Mechanical properties :
#
#
# Convention : Reuss Voigt Hill
#
# Bulk Modulus (GPa) = 19.38433 49.92709 34.65571
# Shear Modulus (GPa) = 9.95842 13.31210 11.63526
#
# Velocity S-wave (km/s) = 2.19406 2.53674 2.37160
# Velocity P-wave (km/s) = 3.97353 5.71969 4.92462
#
# Compressibility (1/GPa) = 0.05158806
#
# Stress axis : x y z
#
# Youngs Moduli (GPa) = 22.12764 112.36217 75.28801
#
# Poissons Ratio (x) = 0.38093 -0.09326
# Poissons Ratio (y) = 0.07502 0.43228
# Poissons Ratio (z) = -0.02741 0.64515
#
# Static dielectric constant tensor:
#      x y z
#    x 1.791010 0.000000 0.000000 
#    y 0.000000 1.764630 0.000000 
#    z 0.000000 0.000000 1.765240 
# 
# From -- ./inp_files/37279.got.cif
#   From: 2010.05.17/outbox.cif.g08.bks.cpg/sg67_19_cif.got.tgz:37279.got - 2010.06.03 18:28:57.
