data_PCOD9501104
_publ_section_title
;
Structure prediction by ZEFSAII (Michael W. Deem and Ramdas Pophale) SiO2 
 PCOD9501104
Probable space group: C M M A
;
_chemical_formula_sum "Si O2"
_cell_formula_units_Z 80
_cell_length_a 14.241403
_cell_length_b 14.341833
_cell_length_c 16.155488
_cell_angle_alpha 90.000000
_cell_angle_beta 90.000000
_cell_angle_gamma 90.000000
_cell_volume 3299.723262
_symmetry_space_group_name_H-M "C M M A"
_symmetry_group_IT_number 67
_symmetry_cell_setting 'orthorhombic'
loop_
_space_group_symop_operation_xyz
x,y,z
-x,1/2-y,z
x,-y,-z
-x,1/2+y,-z
-x,-y,-z
x,1/2+y,-z
-x,y,z
x,1/2-y,z
1/2+x,1/2+y,z
1/2-x,-y,z
1/2+x,1/2-y,-z
1/2-x,y,-z
1/2-x,1/2-y,-z
1/2+x,y,-z
1/2-x,1/2+y,z
1/2+x,-y,z
loop_
_atom_site_type_symbol
_atom_site_label
_atom_site_fract_x
_atom_site_fract_y
_atom_site_fract_z
Si Si1 0.114367 0.044328 0.702672
Si Si2 0.385169 0.854600 0.052810
Si Si3 0.105775 0.853974 0.650229
Si Si4 0.356202 0.854669 0.530850
Si Si5 0.885542 0.056247 0.881736
O O1 0.138137 0.092498 0.616481
O O2 0.000000 0.040050 0.703130
O O3 0.152425 0.938298 0.698049
O O4 0.142479 0.087879 0.790114
O O5 0.500000 0.853505 0.055995
O O6 0.354656 0.750000 0.077602
O O7 0.356463 0.878836 0.958125
O O8 0.356555 0.948111 0.102559
O O9 0.148711 0.750000 0.651617
O O10 0.096934 0.886839 0.554544
O O11 0.000000 0.844741 0.683239
O O12 0.390242 0.750000 0.546021
O O13 0.250000 0.853551 0.500000
O O14 0.000000 0.055838 0.884756
#
# Coordination Sequence:
#
# PCOD9501104 Si02
#       5
#    16  16  16  16  16
#     4  10  19  30  47  71  98 129 167 210 249 286
#     4   8  13  23  39  58  88 129 160 187 232 284
#     4   9  18  32  48  67  93 124 158 198 247 300
#     4  10  21  35  49  66  91 125 164 205 251 300
#     4   8  15  25  37  61  93 123 161 199 231 280
#
# _framework density 24.244458000000002
#
# number of rings (size 3 to 8) (size 9 to 14) (size 15 to 20)
#    0.000    3.000    0.000    2.400    0.000    6.000 
#    0.000    6.000    0.000    0.000    0.000    0.000 
#    0.000   12.800    0.000   36.400    0.000   36.400 
#
# Total GULP energy -223216.398378 kJ/mol
# GULP energy per Si atom -5580.409959 kJ/mol
# Density = 2.418928 g / cm^3
# Si number density = 24.244458 Si / 1000 Ang^3
#
#
#
# Elastic Constant Matrix: (Units=GPa)
#
#
# Indices 1 2 3 4 5 6 
#
# 1 57.9468 -5.3080 -1.9976 0.0000 0.0000 0.0000
# 2 -5.3080 56.7945 18.2604 0.0000 0.0000 0.0000
# 3 -1.9976 18.2604 89.6065 0.0000 0.0000 0.0000
# 4 0.0000 0.0000 0.0000 11.1482 0.0000 0.0000
# 5 0.0000 0.0000 0.0000 0.0000 13.5015 0.0000
# 6 0.0000 0.0000 0.0000 0.0000 0.0000 4.6385
#
#
#
# Elastic Compliance Matrix: (Units=1/GPa)
#
#
# Indices 1 2 3 4 5 6 
#
# 1 0.017407 0.001607 0.000060 0.000000 0.000000 0.000000
# 2 0.001607 0.018990 -0.003834 0.000000 0.000000 0.000000
# 3 0.000060 -0.003834 0.011943 0.000000 0.000000 0.000000
# 4 0.000000 0.000000 0.000000 0.089701 0.000000 0.000000
# 5 0.000000 0.000000 0.000000 0.000000 0.074066 0.000000
# 6 0.000000 0.000000 0.000000 0.000000 0.000000 0.215585
#
#
# Mechanical properties :
#
#
# Convention : Reuss Voigt Hill
#
# Bulk Modulus (GPa) = 22.72372 25.13974 23.93173
# Shear Modulus (GPa) = 11.19338 18.75051 14.97195
#
# Velocity S-wave (km/s) = 2.15102 2.78401 2.48773
# Velocity P-wave (km/s) = 3.94491 4.55259 4.25960
#
# Compressibility (1/GPa) = 0.04400688
#
# Stress axis : x y z
#
# Youngs Moduli (GPa) = 57.44969 52.65853 83.73404
#
# Poissons Ratio (x) = -0.08464 -0.00506
# Poissons Ratio (y) = -0.09234 0.32104
# Poissons Ratio (z) = -0.00347 0.20190
#
# Static dielectric constant tensor:
#      x y z
#    x 2.091020 0.000000 0.000000 
#    y 0.000000 1.943660 0.000000 
#    z 0.000000 0.000000 1.890780 
# 
# From -- ./inp_files/26944.got.cif
#   From: 2010.05.17/outbox.cif.g08.bks.cpg/sg67_14_cif.got.tgz:26944.got - 2010.06.03 18:28:57.
