data_PCOD9501891
_publ_section_title
;
Structure prediction by ZEFSAII (Michael W. Deem and Ramdas Pophale) SiO2 
 PCOD9501891
Probable space group: C M M A
;
_chemical_formula_sum "Si O2"
_cell_formula_units_Z 96
_cell_length_a 8.485667
_cell_length_b 24.287393
_cell_length_c 26.808962
_cell_angle_alpha 90.000000
_cell_angle_beta 90.000000
_cell_angle_gamma 90.000000
_cell_volume 5525.185766
_symmetry_space_group_name_H-M "C M M A"
_symmetry_group_IT_number 67
_symmetry_cell_setting 'orthorhombic'
loop_
_space_group_symop_operation_xyz
x,y,z
-x,1/2-y,z
x,-y,-z
-x,1/2+y,-z
-x,-y,-z
x,1/2+y,-z
-x,y,z
x,1/2-y,z
1/2+x,1/2+y,z
1/2-x,-y,z
1/2+x,1/2-y,-z
1/2-x,y,-z
1/2-x,1/2-y,-z
1/2+x,y,-z
1/2-x,1/2+y,z
1/2+x,-y,z
loop_
_atom_site_type_symbol
_atom_site_label
_atom_site_fract_x
_atom_site_fract_y
_atom_site_fract_z
Si Si1 0.187903 0.437878 0.147646
Si Si2 0.192091 0.750000 0.210523
Si Si3 0.311721 0.562890 0.551356
Si Si4 0.191064 0.630213 0.242599
Si Si5 0.309478 0.937353 0.661110
Si Si6 0.808329 0.250000 0.905397
Si Si7 0.310645 0.868492 0.945397
O O1 0.250000 0.500000 0.150241
O O2 0.251280 0.403761 0.194870
O O3 0.247849 0.408469 0.097495
O O4 0.000000 0.437997 0.148437
O O5 0.242992 0.693482 0.236510
O O6 0.241780 0.750000 0.152481
O O7 0.000000 0.750000 0.210317
O O8 0.500000 0.562120 0.548913
O O9 0.250000 0.500000 0.551633
O O10 0.250000 0.589130 0.500000
O O11 0.262801 0.584449 0.605981
O O12 0.244575 0.600591 0.293322
O O13 0.000000 0.629645 0.242145
O O14 0.500000 0.939188 0.662066
O O15 0.250000 0.000000 0.667107
O O16 0.757069 0.306126 0.932051
O O17 0.000000 0.250000 0.905499
O O18 0.500000 0.869570 0.944594
O O19 0.250000 0.883694 0.000000
#
# Coordination Sequence:
#
# PCOD9501891 Si02
#       7
#    16   8  16  16  16   8  16
#     4  12  25  40  57  79 105 138 173 209 252 304
#     4   9  16  31  57  81 101 132 168 205 254 303
#     4   9  15  24  38  61  92 128 167 205 247 294
#     4  10  19  35  56  78 104 135 170 211 256 304
#     4   9  18  29  45  70 101 134 169 208 250 300
#     4   9  17  33  59  85 108 135 167 206 252 302
#     4  11  22  39  60  84 110 137 170 208 252 302
#
# _framework density 17.374981999999999
#
# number of rings (size 3 to 8) (size 9 to 14) (size 15 to 20)
#    0.000    2.000    1.667    3.750    0.000    3.000 
#    0.000    4.167    0.000    0.000    0.000    0.583 
#    0.000    0.000    0.000    0.000    0.000    0.000 
#
# Total GULP energy -267798.346574 kJ/mol
# GULP energy per Si atom -5579.132220 kJ/mol
# Density = 1.733544 g / cm^3
# Si number density = 17.374982 Si / 1000 Ang^3
#
#
#
# Elastic Constant Matrix: (Units=GPa)
#
#
# Indices 1 2 3 4 5 6 
#
# 1 35.9746 21.6845 30.5624 0.0000 0.0000 0.0000
# 2 21.6845 119.2432 80.5293 0.0000 0.0000 0.0000
# 3 30.5624 80.5293 196.8408 0.0000 0.0000 0.0000
# 4 0.0000 0.0000 0.0000 0.9681 0.0000 0.0000
# 5 0.0000 0.0000 0.0000 0.0000 49.0692 0.0000
# 6 0.0000 0.0000 0.0000 0.0000 0.0000 14.7183
#
#
#
# Elastic Compliance Matrix: (Units=1/GPa)
#
#
# Indices 1 2 3 4 5 6 
#
# 1 0.033055 -0.003517 -0.003694 0.000000 0.000000 0.000000
# 2 -0.003517 0.011962 -0.004348 0.000000 0.000000 0.000000
# 3 -0.003694 -0.004348 0.007432 0.000000 0.000000 0.000000
# 4 0.000000 0.000000 0.000000 1.032922 0.000000 0.000000
# 5 0.000000 0.000000 0.000000 0.000000 0.020379 0.000000
# 6 0.000000 0.000000 0.000000 0.000000 0.000000 0.067943
#
#
# Mechanical properties :
#
#
# Convention : Reuss Voigt Hill
#
# Bulk Modulus (GPa) = 34.09076 68.62345 51.35710
# Shear Modulus (GPa) = 4.14392 27.56994 15.85693
#
# Velocity S-wave (km/s) = 1.54602 3.98774 3.02425
# Velocity P-wave (km/s) = 4.78018 7.79641 6.46661
#
# Compressibility (1/GPa) = 0.02933346
#
# Stress axis : x y z
#
# Youngs Moduli (GPa) = 30.25253 83.59876 134.54580
#
# Poissons Ratio (x) = 0.29399 0.49695
# Poissons Ratio (y) = 0.10639 0.58497
# Poissons Ratio (z) = 0.11174 0.36346
#
# Static dielectric constant tensor:
#      x y z
#    x 1.598160 0.000000 0.000000 
#    y 0.000000 1.566220 0.000000 
#    z 0.000000 0.000000 1.612950 
# 
# From -- ./inp_files/43698.got.cif
#   From: 2010.05.17/outbox.cif.g08.bks.cpg/sg67_22_cif.got.tgz:43698.got - 2010.06.03 18:28:57.
