data_PCOD9501166
_publ_section_title
;
Structure prediction by ZEFSAII (Michael W. Deem and Ramdas Pophale) SiO2 
 PCOD9501166
Probable space group: C M M A
;
_chemical_formula_sum "Si O2"
_cell_formula_units_Z 80
_cell_length_a 20.070632
_cell_length_b 8.059422
_cell_length_c 27.069538
_cell_angle_alpha 90.000000
_cell_angle_beta 90.000000
_cell_angle_gamma 90.000000
_cell_volume 4378.706020
_symmetry_space_group_name_H-M "C M M A"
_symmetry_group_IT_number 67
_symmetry_cell_setting 'orthorhombic'
loop_
_space_group_symop_operation_xyz
x,y,z
-x,1/2-y,z
x,-y,-z
-x,1/2+y,-z
-x,-y,-z
x,1/2+y,-z
-x,y,z
x,1/2-y,z
1/2+x,1/2+y,z
1/2-x,-y,z
1/2+x,1/2-y,-z
1/2-x,y,-z
1/2-x,1/2-y,-z
1/2+x,y,-z
1/2-x,1/2+y,z
1/2+x,-y,z
loop_
_atom_site_type_symbol
_atom_site_label
_atom_site_fract_x
_atom_site_fract_y
_atom_site_fract_z
Si Si1 0.172407 0.947168 0.947590
Si Si2 0.327293 0.049164 0.839575
Si Si3 0.576786 0.452573 0.752528
Si Si4 0.923312 0.452676 0.359015
Si Si5 0.673479 0.552161 0.444928
O O1 0.169845 0.750000 0.946882
O O2 0.147937 0.008563 0.894006
O O3 0.250000 0.000000 0.948601
O O4 0.141652 0.000000 0.000000
O O5 0.329844 0.250000 0.839436
O O6 0.373172 0.988441 0.794829
O O7 0.250000 0.000000 0.833680
O O8 0.500000 0.501618 0.761608
O O9 0.577874 0.250000 0.752992
O O10 0.595357 0.504233 0.696749
O O11 0.922070 0.250000 0.359423
O O12 0.874070 0.513286 0.401594
O O13 0.000000 0.501733 0.367966
O O14 0.652487 0.500000 0.500000
O O15 0.671336 0.750000 0.443308
O O16 0.750000 0.500000 0.437726
#
# Coordination Sequence:
#
# PCOD9501166 Si02
#       5
#    16  16  16  16  16
#     4   9  15  23  36  56  82 109 138 171 209 251
#     4   9  17  27  42  66  89 110 140 178 217 255
#     4   8  14  27  46  65  86 113 145 179 213 252
#     4   8  15  28  46  67  88 112 145 182 216 251
#     4  10  19  31  47  67  92 119 146 176 213 257
#
# _framework density 18.270237000000002
#
# number of rings (size 3 to 8) (size 9 to 14) (size 15 to 20)
#    0.000    3.200    0.000    3.600    0.000    2.000 
#    0.000    0.000    0.000    4.200    0.000    5.600 
#    0.000    0.000    0.000    0.000    0.000    5.400 
#
# Total GULP energy -222700.397044 kJ/mol
# GULP energy per Si atom -5567.509926 kJ/mol
# Density = 1.822865 g / cm^3
# Si number density = 18.270237 Si / 1000 Ang^3
#
#
#
# Elastic Constant Matrix: (Units=GPa)
#
#
# Indices 1 2 3 4 5 6 
#
# 1 70.3248 6.2369 109.9497 0.0000 0.0000 0.0000
# 2 6.2369 16.6594 16.8389 0.0000 0.0000 0.0000
# 3 109.9497 16.8389 231.0700 0.0000 0.0000 0.0000
# 4 0.0000 0.0000 0.0000 26.6186 0.0000 0.0000
# 5 0.0000 0.0000 0.0000 0.0000 -2.0364 0.0000
# 6 0.0000 0.0000 0.0000 0.0000 0.0000 8.0685
#
#
#
# Elastic Compliance Matrix: (Units=1/GPa)
#
#
# Indices 1 2 3 4 5 6 
#
# 1 0.056169 0.006462 -0.027198 0.000000 0.000000 0.000000
# 2 0.006462 0.065543 -0.007851 0.000000 0.000000 0.000000
# 3 -0.027198 -0.007851 0.017841 0.000000 0.000000 0.000000
# 4 0.000000 0.000000 0.000000 0.037568 0.000000 0.000000
# 5 0.000000 0.000000 0.000000 0.000000 -0.491053 0.000000
# 6 0.000000 0.000000 0.000000 0.000000 0.000000 0.123938
#
#
# Mechanical properties :
#
#
# Convention : Reuss Voigt Hill
#
# Bulk Modulus (GPa) = 12.13887 64.90056 38.51971
# Shear Modulus (GPa) = -47.45639 18.86540 -14.29550
#
# Velocity S-wave (km/s) = -5.10207 3.21686 -2.80026
# Velocity P-wave (km/s) = 5.29619 7.02832 3.26708
#
# Compressibility (1/GPa) = 0.08237998
#
# Stress axis : x y z
#
# Youngs Moduli (GPa) = 17.80332 15.25719 56.04952
#
# Poissons Ratio (x) = -0.09860 1.52443
# Poissons Ratio (y) = -0.11505 0.44006
# Poissons Ratio (z) = 0.48421 0.11979
#
# Static dielectric constant tensor:
#      x y z
#    x 1.596340 0.000000 0.000000 
#    y 0.000000 1.645850 0.000000 
#    z 0.000000 0.000000 1.681170 
# 
# From -- ./inp_files/45173.got.cif
#   From: 2010.05.17/outbox.cif.g08.bks.cpg/sg67_23_cif.got.tgz:45173.got - 2010.06.03 18:28:57.
