data_PCOD9501864
_publ_section_title
;
Structure prediction by ZEFSAII (Michael W. Deem and Ramdas Pophale) SiO2 
 PCOD9501864
Probable space group: C M M A
;
_chemical_formula_sum "Si O2"
_cell_formula_units_Z 116
_cell_length_a 29.640580
_cell_length_b 16.732711
_cell_length_c 12.400329
_cell_angle_alpha 90.000000
_cell_angle_beta 90.000000
_cell_angle_gamma 90.000000
_cell_volume 6150.157185
_symmetry_space_group_name_H-M "C M M A"
_symmetry_group_IT_number 67
_symmetry_cell_setting 'orthorhombic'
loop_
_space_group_symop_operation_xyz
x,y,z
-x,1/2-y,z
x,-y,-z
-x,1/2+y,-z
-x,-y,-z
x,1/2+y,-z
-x,y,z
x,1/2-y,z
1/2+x,1/2+y,z
1/2-x,-y,z
1/2+x,1/2-y,-z
1/2-x,y,-z
1/2-x,1/2-y,-z
1/2+x,y,-z
1/2-x,1/2+y,z
1/2+x,-y,z
loop_
_atom_site_type_symbol
_atom_site_label
_atom_site_fract_x
_atom_site_fract_y
_atom_site_fract_z
Si Si1 0.714191 0.846940 0.233347
Si Si2 0.051042 0.438477 0.099242
Si Si3 0.000000 0.000000 0.500000
Si Si4 0.312785 0.346078 0.165382
Si Si5 0.123987 0.342411 0.628881
Si Si6 0.577650 0.999821 0.667001
Si Si7 0.168678 0.925661 0.569166
Si Si8 0.140712 0.345900 0.052674
O O1 0.715370 0.750000 0.245156
O O2 0.761995 0.874661 0.185108
O O3 0.702935 0.886809 0.347326
O O4 0.674530 0.867390 0.149533
O O5 0.063932 0.481543 0.211187
O O6 0.090707 0.376408 0.074902
O O7 0.000000 0.405570 0.108029
O O8 0.051298 0.500000 0.000000
O O9 0.960567 0.028266 0.414347
O O10 0.309168 0.250000 0.150765
O O11 0.341949 0.359111 0.272321
O O12 0.338267 0.377651 0.059684
O O13 0.110449 0.250000 0.632314
O O14 0.083776 0.405025 0.646054
O O15 0.149237 0.362737 0.517471
O O16 0.625303 0.039616 0.634067
O O17 0.187305 0.000000 0.500000
O O18 0.139796 0.250000 0.046705
#
# Coordination Sequence:
#
# PCOD9501864 Si02
#       8
#    16  16   4  16  16  16  16  16
#     4  10  19  34  60  88 116 158 203 242 293 361
#     4  11  23  38  62  87 114 156 198 237 300 370
#     4  12  20  40  68  80 114 160 202 238 300 368
#     4   9  19  35  57  86 119 155 195 240 298 354
#     4  10  20  36  58  83 116 155 200 246 291 349
#     4  11  21  39  62  83 117 157 194 242 305 359
#     4  10  20  36  57  83 120 163 195 244 302 353
#     4  10  20  37  62  88 120 153 193 250 297 351
#
# _framework density 18.861307
#
# number of rings (size 3 to 8) (size 9 to 14) (size 15 to 20)
#    0.000    1.793    4.138    1.655    0.000    2.483 
#    0.000    7.241    0.000    1.655    0.000    0.000 
#    0.000    0.000    0.000    0.000    0.000    0.000 
#
# Total GULP energy -323214.604405 kJ/mol
# GULP energy per Si atom -5572.665593 kJ/mol
# Density = 1.881838 g / cm^3
# Si number density = 18.861307 Si / 1000 Ang^3
#
#
#
# Elastic Constant Matrix: (Units=GPa)
#
#
# Indices 1 2 3 4 5 6 
#
# 1 98.8847 29.8941 43.5507 0.0000 0.0000 0.0000
# 2 29.8941 30.0127 27.6728 0.0000 0.0000 0.0000
# 3 43.5507 27.6728 146.2184 0.0000 0.0000 0.0000
# 4 0.0000 0.0000 0.0000 27.5293 0.0000 0.0000
# 5 0.0000 0.0000 0.0000 0.0000 -13.9828 0.0000
# 6 0.0000 0.0000 0.0000 0.0000 0.0000 11.4165
#
#
#
# Elastic Compliance Matrix: (Units=1/GPa)
#
#
# Indices 1 2 3 4 5 6 
#
# 1 0.014927 -0.013045 -0.001977 0.000000 0.000000 0.000000
# 2 -0.013045 0.051763 -0.005911 0.000000 0.000000 0.000000
# 3 -0.001977 -0.005911 0.008547 0.000000 0.000000 0.000000
# 4 0.000000 0.000000 0.000000 0.036325 0.000000 0.000000
# 5 0.000000 0.000000 0.000000 0.000000 -0.071516 0.000000
# 6 0.000000 0.000000 0.000000 0.000000 0.000000 0.087593
#
#
# Mechanical properties :
#
#
# Convention : Reuss Voigt Hill
#
# Bulk Modulus (GPa) = 29.96689 53.03901 41.50295
# Shear Modulus (GPa) = 27.68106 16.59247 22.13676
#
# Velocity S-wave (km/s) = 3.83510 2.96921 3.42959
# Velocity P-wave (km/s) = 5.96097 6.31953 6.14287
#
# Compressibility (1/GPa) = 0.03337016
#
# Stress axis : x y z
#
# Youngs Moduli (GPa) = 66.99131 19.31878 117.00466
#
# Poissons Ratio (x) = 0.25202 0.23133
# Poissons Ratio (y) = 0.87392 0.69162
# Poissons Ratio (z) = 0.13245 0.11419
#
# Static dielectric constant tensor:
#      x y z
#    x 1.631610 0.000000 0.000000 
#    y 0.000000 1.664460 0.000000 
#    z 0.000000 0.000000 1.659820 
# 
# From -- ./inp_files/23047.got.cif
#   From: 2010.05.17/outbox.cif.g08.bks.cpg/sg67_12_cif.got.tgz:23047.got - 2010.06.03 18:28:57.
