data_PCOD9501930
_publ_section_title
;
Structure prediction by ZEFSAII (Michael W. Deem and Ramdas Pophale) SiO2 
 PCOD9501930
Probable space group: C M M A
;
_chemical_formula_sum "Si O2"
_cell_formula_units_Z 96
_cell_length_a 15.309536
_cell_length_b 11.178985
_cell_length_c 26.574655
_cell_angle_alpha 90.000000
_cell_angle_beta 90.000000
_cell_angle_gamma 90.000000
_cell_volume 4548.121278
_symmetry_space_group_name_H-M "C M M A"
_symmetry_group_IT_number 67
_symmetry_cell_setting 'orthorhombic'
loop_
_space_group_symop_operation_xyz
x,y,z
-x,1/2-y,z
x,-y,-z
-x,1/2+y,-z
-x,-y,-z
x,1/2+y,-z
-x,y,z
x,1/2-y,z
1/2+x,1/2+y,z
1/2-x,-y,z
1/2+x,1/2-y,-z
1/2-x,y,-z
1/2-x,1/2-y,-z
1/2+x,y,-z
1/2-x,1/2+y,z
1/2+x,-y,z
loop_
_atom_site_type_symbol
_atom_site_label
_atom_site_fract_x
_atom_site_fract_y
_atom_site_fract_z
Si Si1 0.394160 0.489779 0.753212
Si Si2 0.600289 0.250000 0.220189
Si Si3 0.100371 0.250000 0.899743
Si Si4 0.607064 0.888717 0.464716
Si Si5 0.101824 0.607460 0.648065
Si Si6 0.311792 0.615368 0.150065
Si Si7 0.394482 0.500760 0.941992
O O1 0.500000 0.492696 0.752464
O O2 0.360134 0.624474 0.763037
O O3 0.360788 0.447963 0.698908
O O4 0.369992 0.405731 0.800082
O O5 0.500000 0.250000 0.239563
O O6 0.594102 0.250000 0.160049
O O7 0.138472 0.372581 0.920016
O O8 0.000000 0.250000 0.919003
O O9 0.500000 0.887038 0.464337
O O10 0.632504 0.750000 0.477862
O O11 0.638069 0.915849 0.407636
O O12 0.633566 0.000000 0.500000
O O13 0.102841 0.750000 0.654375
O O14 0.000000 0.568869 0.646047
O O15 0.275611 0.750000 0.152092
O O16 0.250000 0.500000 0.152556
O O17 0.361591 0.598379 0.096986
O O18 0.500000 0.496484 0.940614
O O19 0.366993 0.500000 0.000000
#
# Coordination Sequence:
#
# PCOD9501930 Si02
#       7
#    16   8   8  16  16  16  16
#     4  10  19  35  59  83 107 138 187 236 278 325
#     4   9  16  28  52  81 107 139 165 211 281 331
#     4   9  16  32  58  84 112 142 164 210 280 326
#     4   8  13  22  35  55  90 134 171 207 259 319
#     4   8  14  25  43  67  95 129 173 226 273 313
#     4  12  28  43  60  84 115 152 185 226 277 334
#     4  10  22  40  66  93 114 141 184 232 274 322
#
# _framework density 21.107616
#
# number of rings (size 3 to 8) (size 9 to 14) (size 15 to 20)
#    0.000    2.500    1.667    2.000    3.500    2.333 
#    1.500    0.833    0.000    0.000    0.000    0.000 
#    0.000    0.667    0.000    5.333    0.000    4.167 
#
# Total GULP energy -267623.842532 kJ/mol
# GULP energy per Si atom -5575.496719 kJ/mol
# Density = 2.105957 g / cm^3
# Si number density = 21.107616 Si / 1000 Ang^3
#
#
#
# Elastic Constant Matrix: (Units=GPa)
#
#
# Indices 1 2 3 4 5 6 
#
# 1 33.2611 24.9058 18.3880 0.0000 0.0000 0.0000
# 2 24.9058 136.0071 86.1402 0.0000 0.0000 0.0000
# 3 18.3880 86.1402 168.3523 0.0000 0.0000 0.0000
# 4 0.0000 0.0000 0.0000 76.4010 0.0000 0.0000
# 5 0.0000 0.0000 0.0000 0.0000 -4.6786 0.0000
# 6 0.0000 0.0000 0.0000 0.0000 0.0000 7.5958
#
#
#
# Elastic Compliance Matrix: (Units=1/GPa)
#
#
# Indices 1 2 3 4 5 6 
#
# 1 0.034916 -0.005886 -0.000802 0.000000 0.000000 0.000000
# 2 -0.005886 0.011870 -0.005431 0.000000 0.000000 0.000000
# 3 -0.000802 -0.005431 0.008806 0.000000 0.000000 0.000000
# 4 0.000000 0.000000 0.000000 0.013089 0.000000 0.000000
# 5 0.000000 0.000000 0.000000 0.000000 -0.213738 0.000000
# 6 0.000000 0.000000 0.000000 0.000000 0.000000 0.131651
#
#
# Mechanical properties :
#
#
# Convention : Reuss Voigt Hill
#
# Bulk Modulus (GPa) = 31.89284 66.27650 49.08467
# Shear Modulus (GPa) = 234.94220 29.74275 132.34247
#
# Velocity S-wave (km/s) = 10.56165 3.75787 7.92686
# Velocity P-wave (km/s) = 12.80132 7.09199 10.34819
#
# Compressibility (1/GPa) = 0.03135500
#
# Stress axis : x y z
#
# Youngs Moduli (GPa) = 28.64026 84.24740 113.55728
#
# Poissons Ratio (x) = 0.49587 0.09107
# Poissons Ratio (y) = 0.16857 0.61667
# Poissons Ratio (z) = 0.02297 0.45751
#
# Static dielectric constant tensor:
#      x y z
#    x 1.817700 0.000000 0.000000 
#    y 0.000000 1.753700 0.000000 
#    z 0.000000 0.000000 1.774370 
# 
# From -- ./inp_files/42172.got.cif
#   From: 2010.05.17/outbox.cif.g08.bks.cpg/sg67_22_cif.got.tgz:42172.got - 2010.06.03 18:28:57.
