data_PCOD9501340
_publ_section_title
;
Structure prediction by ZEFSAII (Michael W. Deem and Ramdas Pophale) SiO2 
 PCOD9501340
Probable space group: C M M A
;
_chemical_formula_sum "Si O2"
_cell_formula_units_Z 80
_cell_length_a 8.728096
_cell_length_b 19.575455
_cell_length_c 26.665265
_cell_angle_alpha 90.000000
_cell_angle_beta 90.000000
_cell_angle_gamma 90.000000
_cell_volume 4555.932529
_symmetry_space_group_name_H-M "C M M A"
_symmetry_group_IT_number 67
_symmetry_cell_setting 'orthorhombic'
loop_
_space_group_symop_operation_xyz
x,y,z
-x,1/2-y,z
x,-y,-z
-x,1/2+y,-z
-x,-y,-z
x,1/2+y,-z
-x,y,z
x,1/2-y,z
1/2+x,1/2+y,z
1/2-x,-y,z
1/2+x,1/2-y,-z
1/2-x,y,-z
1/2-x,1/2-y,-z
1/2+x,y,-z
1/2-x,1/2+y,z
1/2+x,-y,z
loop_
_atom_site_type_symbol
_atom_site_label
_atom_site_fract_x
_atom_site_fract_y
_atom_site_fract_z
Si Si1 0.318656 0.169230 0.860796
Si Si2 0.686806 0.671400 0.645619
Si Si3 0.315292 0.423908 0.446687
Si Si4 0.322956 0.833000 0.755736
Si Si5 0.182158 0.924577 0.053538
O O1 0.500000 0.161061 0.867643
O O2 0.281496 0.250000 0.865356
O O3 0.271507 0.147002 0.804632
O O4 0.231164 0.125953 0.902361
O O5 0.500000 0.672258 0.647328
O O6 0.736770 0.750000 0.638682
O O7 0.732010 0.624132 0.599423
O O8 0.735739 0.645526 0.700793
O O9 0.500000 0.426446 0.449140
O O10 0.250000 0.500000 0.439303
O O11 0.250000 0.398875 0.500000
O O12 0.500000 0.854532 0.761989
O O13 0.322647 0.750000 0.753633
O O14 0.000000 0.929170 0.049753
O O15 0.250000 0.000000 0.063168
O O16 0.250000 0.901395 0.000000
#
# Coordination Sequence:
#
# PCOD9501340 Si02
#       5
#    16  16  16  16  16
#     4  10  20  34  53  79 109 138 171 211 252 296
#     4   8  15  29  50  73  95 123 162 205 246 290
#     4  10  19  32  49  68  94 127 161 198 243 294
#     4   8  14  28  50  73  97 128 165 203 247 297
#     4  11  22  38  58  78 104 137 173 211 256 306
#
# _framework density 17.559522999999999
#
# number of rings (size 3 to 8) (size 9 to 14) (size 15 to 20)
#    0.000    2.600    0.000    5.400    0.000    2.000 
#    0.000    3.000    0.000    6.600    0.000    0.000 
#    0.000    0.000    0.000    0.000    0.000    0.000 
#
# Total GULP energy -223026.829281 kJ/mol
# GULP energy per Si atom -5575.670732 kJ/mol
# Density = 1.751956 g / cm^3
# Si number density = 17.559523 Si / 1000 Ang^3
#
#
#
# Elastic Constant Matrix: (Units=GPa)
#
#
# Indices 1 2 3 4 5 6 
#
# 1 79.7992 34.6782 63.5968 0.0000 0.0000 0.0000
# 2 34.6782 44.1618 71.7513 0.0000 0.0000 0.0000
# 3 63.5968 71.7513 180.5617 0.0000 0.0000 0.0000
# 4 0.0000 0.0000 0.0000 -217.0645 0.0000 0.0000
# 5 0.0000 0.0000 0.0000 0.0000 26.6321 0.0000
# 6 0.0000 0.0000 0.0000 0.0000 0.0000 18.9816
#
#
#
# Elastic Compliance Matrix: (Units=1/GPa)
#
#
# Indices 1 2 3 4 5 6 
#
# 1 0.019325 -0.011616 -0.002191 0.000000 0.000000 0.000000
# 2 -0.011616 0.070882 -0.024076 0.000000 0.000000 0.000000
# 3 -0.002191 -0.024076 0.015877 0.000000 0.000000 0.000000
# 4 0.000000 0.000000 0.000000 -0.004607 0.000000 0.000000
# 5 0.000000 0.000000 0.000000 0.000000 0.037549 0.000000
# 6 0.000000 0.000000 0.000000 0.000000 0.000000 0.052683
#
#
# Mechanical properties :
#
#
# Convention : Reuss Voigt Hill
#
# Bulk Modulus (GPa) = 32.98178 71.61948 52.30063
# Shear Modulus (GPa) = 18.01288 -25.32373 -3.65542
#
# Velocity S-wave (km/s) = 3.20631 -3.80170 -1.44439
# Velocity P-wave (km/s) = 5.70359 4.64808 5.20267
#
# Compressibility (1/GPa) = 0.03031977
#
# Stress axis : x y z
#
# Youngs Moduli (GPa) = 51.74569 14.10802 62.98389
#
# Poissons Ratio (x) = 0.16387 0.13799
# Poissons Ratio (y) = 0.60106 1.51638
# Poissons Ratio (z) = 0.11337 0.33966
#
# Static dielectric constant tensor:
#      x y z
#    x 1.595090 0.000000 0.000000 
#    y 0.000000 1.576740 0.000000 
#    z 0.000000 0.000000 1.610310 
# 
# From -- ./inp_files/43339.got.cif
#   From: 2010.05.17/outbox.cif.g08.bks.cpg/sg67_22_cif.got.tgz:43339.got - 2010.06.03 18:28:57.
