data_PCOD9501997
_publ_section_title
;
Structure prediction by ZEFSAII (Michael W. Deem and Ramdas Pophale) SiO2 
 PCOD9501997
Probable space group: C M M A
;
_chemical_formula_sum "Si O2"
_cell_formula_units_Z 88
_cell_length_a 23.556785
_cell_length_b 14.079232
_cell_length_c 11.932594
_cell_angle_alpha 90.000000
_cell_angle_beta 90.000000
_cell_angle_gamma 90.000000
_cell_volume 3957.581323
_symmetry_space_group_name_H-M "C M M A"
_symmetry_group_IT_number 67
_symmetry_cell_setting 'orthorhombic'
loop_
_space_group_symop_operation_xyz
x,y,z
-x,1/2-y,z
x,-y,-z
-x,1/2+y,-z
-x,-y,-z
x,1/2+y,-z
-x,y,z
x,1/2-y,z
1/2+x,1/2+y,z
1/2-x,-y,z
1/2+x,1/2-y,-z
1/2-x,y,-z
1/2-x,1/2-y,-z
1/2+x,y,-z
1/2-x,1/2+y,z
1/2+x,-y,z
loop_
_atom_site_type_symbol
_atom_site_label
_atom_site_fract_x
_atom_site_fract_y
_atom_site_fract_z
Si Si1 0.938676 0.358161 0.392144
Si Si2 0.352527 0.500000 0.500000
Si Si3 0.500000 0.366108 0.028090
Si Si4 0.500000 0.864587 0.714476
Si Si5 0.184889 0.509529 0.134628
Si Si6 0.367404 0.364231 0.313926
Si Si7 0.905458 0.857413 0.857005
O O1 0.929017 0.250000 0.430903
O O2 0.889951 0.426244 0.430375
O O3 0.940164 0.355893 0.258106
O O4 0.000000 0.389266 0.435615
O O5 0.330586 0.427084 0.403238
O O6 0.500000 0.250000 0.028501
O O7 0.444776 0.394549 0.957228
O O8 0.500000 0.398150 0.155804
O O9 0.500000 0.750000 0.711589
O O10 0.564379 0.889220 0.671879
O O11 0.250000 0.500000 0.169970
O O12 0.154227 0.599802 0.192120
O O13 0.148467 0.419567 0.170682
O O14 0.183365 0.500000 0.000000
O O15 0.361471 0.250000 0.324563
O O16 0.888739 0.750000 0.885276
#
# Coordination Sequence:
#
# PCOD9501997 Si02
#       7
#    16   8   8   8  16  16  16
#     4  10  20  34  56  90 128 165 211 264 316 380
#     4  12  23  38  63  90 126 178 225 255 326 386
#     4   9  16  31  59  92 128 164 204 253 316 389
#     4   9  20  36  57  93 132 169 207 250 316 387
#     4  11  25  44  67  95 126 167 219 268 322 391
#     4  11  25  44  66  96 136 173 214 270 325 383
#     4  10  19  36  61  91 124 163 206 261 321 378
#
# _framework density 22.235803000000001
#
# number of rings (size 3 to 8) (size 9 to 14) (size 15 to 20)
#    0.000    1.636    2.727    1.909    2.545    3.636 
#    0.000    4.091    0.000    1.091    0.000    0.000 
#    0.000    0.000    0.000    0.000    0.000    0.000 
#
# Total GULP energy -245501.805962 kJ/mol
# GULP energy per Si atom -5579.586499 kJ/mol
# Density = 2.218519 g / cm^3
# Si number density = 22.235803 Si / 1000 Ang^3
#
#
#
# Elastic Constant Matrix: (Units=GPa)
#
#
# Indices 1 2 3 4 5 6 
#
# 1 95.3345 33.1327 8.8756 0.0000 0.0000 0.0000
# 2 33.1327 100.0131 28.3177 0.0000 0.0000 0.0000
# 3 8.8756 28.3177 95.0696 0.0000 0.0000 0.0000
# 4 0.0000 0.0000 0.0000 32.1777 0.0000 0.0000
# 5 0.0000 0.0000 0.0000 0.0000 24.3077 0.0000
# 6 0.0000 0.0000 0.0000 0.0000 0.0000 9.4069
#
#
#
# Elastic Compliance Matrix: (Units=1/GPa)
#
#
# Indices 1 2 3 4 5 6 
#
# 1 0.011855 -0.003947 0.000069 0.000000 0.000000 0.000000
# 2 -0.003947 0.012234 -0.003275 0.000000 0.000000 0.000000
# 3 0.000069 -0.003275 0.011488 0.000000 0.000000 0.000000
# 4 0.000000 0.000000 0.000000 0.031077 0.000000 0.000000
# 5 0.000000 0.000000 0.000000 0.000000 0.041139 0.000000
# 6 0.000000 0.000000 0.000000 0.000000 0.000000 0.106305
#
#
# Mechanical properties :
#
#
# Convention : Reuss Voigt Hill
#
# Bulk Modulus (GPa) = 47.01605 47.89657 47.45631
# Shear Modulus (GPa) = 21.23196 27.85121 24.54158
#
# Velocity S-wave (km/s) = 3.09342 3.54296 3.32580
# Velocity P-wave (km/s) = 5.82660 6.19062 6.01137
#
# Compressibility (1/GPa) = 0.02126933
#
# Stress axis : x y z
#
# Youngs Moduli (GPa) = 84.35526 81.74217 87.04868
#
# Poissons Ratio (x) = 0.32261 -0.00599
# Poissons Ratio (y) = 0.33293 0.28513
# Poissons Ratio (z) = -0.00581 0.26774
#
# Static dielectric constant tensor:
#      x y z
#    x 1.810540 0.000000 0.000000 
#    y 0.000000 1.826990 0.000000 
#    z 0.000000 0.000000 1.946420 
# 
# From -- ./inp_files/21810.got.cif
#   From: 2010.05.17/outbox.cif.g08.bks.cpg/sg67_11_cif.got.tgz:21810.got - 2010.06.03 18:28:57.
