data_PCOD9501995
_publ_section_title
;
Structure prediction by ZEFSAII (Michael W. Deem and Ramdas Pophale) SiO2 
 PCOD9501995
Probable space group: C M M A
;
_chemical_formula_sum "Si O2"
_cell_formula_units_Z 56
_cell_length_a 17.499274
_cell_length_b 15.195618
_cell_length_c 9.037984
_cell_angle_alpha 90.000000
_cell_angle_beta 90.000000
_cell_angle_gamma 90.000000
_cell_volume 2403.310959
_symmetry_space_group_name_H-M "C M M A"
_symmetry_group_IT_number 67
_symmetry_cell_setting 'orthorhombic'
loop_
_space_group_symop_operation_xyz
x,y,z
-x,1/2-y,z
x,-y,-z
-x,1/2+y,-z
-x,-y,-z
x,1/2+y,-z
-x,y,z
x,1/2-y,z
1/2+x,1/2+y,z
1/2-x,-y,z
1/2+x,1/2-y,-z
1/2-x,y,-z
1/2-x,1/2-y,-z
1/2+x,y,-z
1/2-x,1/2+y,z
1/2+x,-y,z
loop_
_atom_site_type_symbol
_atom_site_label
_atom_site_fract_x
_atom_site_fract_y
_atom_site_fract_z
Si Si1 0.875388 0.000000 0.500000
Si Si2 0.884750 0.155038 0.299123
Si Si3 0.916441 0.394980 0.970048
Si Si4 0.782242 0.908366 0.241945
O O1 0.913594 0.071798 0.393411
O O2 0.825471 0.059569 0.610943
O O3 0.904633 0.250000 0.362985
O O4 0.912443 0.147838 0.130966
O O5 0.792468 0.145920 0.284505
O O6 0.000000 0.376941 0.901740
O O7 0.911681 0.500000 0.000000
O O8 0.844820 0.368923 0.868431
O O9 0.750000 0.000000 0.174422
#
# Coordination Sequence:
#
# PCOD9501995 Si02
#       4
#     8  16  16  16
#     4  10  21  38  63  92 131 162 201 268 311 378
#     4  11  23  39  64  94 125 166 210 260 319 371
#     4  11  22  38  62  89 123 169 212 257 312 367
#     4  10  19  36  61  89 127 160 207 258 306 371
#
# _framework density 23.301186000000001
#
# number of rings (size 3 to 8) (size 9 to 14) (size 15 to 20)
#    0.000    1.429    5.714    4.714    0.000    5.143 
#    0.000    2.857    0.000    0.000    0.000    0.000 
#    0.000    0.000    0.000    0.000    0.000    0.000 
#
# Total GULP energy -156470.022775 kJ/mol
# GULP energy per Si atom -5588.215099 kJ/mol
# Density = 2.324815 g / cm^3
# Si number density = 23.301186 Si / 1000 Ang^3
#
#
#
# Elastic Constant Matrix: (Units=GPa)
#
#
# Indices 1 2 3 4 5 6 
#
# 1 145.0597 14.5640 38.7240 0.0000 0.0000 0.0000
# 2 14.5640 114.8746 17.3669 0.0000 0.0000 0.0000
# 3 38.7240 17.3669 108.3067 0.0000 0.0000 0.0000
# 4 0.0000 0.0000 0.0000 18.1011 0.0000 0.0000
# 5 0.0000 0.0000 0.0000 0.0000 -24.8313 0.0000
# 6 0.0000 0.0000 0.0000 0.0000 0.0000 14.2979
#
#
#
# Elastic Compliance Matrix: (Units=1/GPa)
#
#
# Indices 1 2 3 4 5 6 
#
# 1 0.007657 -0.000571 -0.002646 0.000000 0.000000 0.000000
# 2 -0.000571 0.008964 -0.001233 0.000000 0.000000 0.000000
# 3 -0.002646 -0.001233 0.010377 0.000000 0.000000 0.000000
# 4 0.000000 0.000000 0.000000 0.055245 0.000000 0.000000
# 5 0.000000 0.000000 0.000000 0.000000 -0.040272 0.000000
# 6 0.000000 0.000000 0.000000 0.000000 0.000000 0.069940
#
#
# Mechanical properties :
#
#
# Convention : Reuss Voigt Hill
#
# Bulk Modulus (GPa) = 55.25586 56.61676 55.93631
# Shear Modulus (GPa) = 39.41800 21.35262 30.38531
#
# Velocity S-wave (km/s) = 4.11746 3.03045 3.61505
# Velocity P-wave (km/s) = 6.80954 6.04941 6.44070
#
# Compressibility (1/GPa) = 0.01809763
#
# Stress axis : x y z
#
# Youngs Moduli (GPa) = 130.59164 111.55784 96.36731
#
# Poissons Ratio (x) = 0.06367 0.25502
# Poissons Ratio (y) = 0.07454 0.11885
# Poissons Ratio (z) = 0.34559 0.13758
#
# Static dielectric constant tensor:
#      x y z
#    x 1.905010 0.000000 0.000000 
#    y 0.000000 1.881760 0.000000 
#    z 0.000000 0.000000 1.855680 
# 
# From -- ./inp_files/9075.got.cif
#   From: 2010.05.17/outbox.cif.g08.bks.cpg/sg67_5_cif.got.tgz:9075.got - 2010.06.03 18:28:57.
