data_PCOD9501178
_publ_section_title
;
Structure prediction by ZEFSAII (Michael W. Deem and Ramdas Pophale) SiO2 
 PCOD9501178
Probable space group: C M M A
;
_chemical_formula_sum "Si O2"
_cell_formula_units_Z 72
_cell_length_a 26.835888
_cell_length_b 8.964264
_cell_length_c 15.271021
_cell_angle_alpha 90.000000
_cell_angle_beta 90.000000
_cell_angle_gamma 90.000000
_cell_volume 3673.657662
_symmetry_space_group_name_H-M "C M M A"
_symmetry_group_IT_number 67
_symmetry_cell_setting 'orthorhombic'
loop_
_space_group_symop_operation_xyz
x,y,z
-x,1/2-y,z
x,-y,-z
-x,1/2+y,-z
-x,-y,-z
x,1/2+y,-z
-x,y,z
x,1/2-y,z
1/2+x,1/2+y,z
1/2-x,-y,z
1/2+x,1/2-y,-z
1/2-x,y,-z
1/2-x,1/2-y,-z
1/2+x,y,-z
1/2-x,1/2+y,z
1/2+x,-y,z
loop_
_atom_site_type_symbol
_atom_site_label
_atom_site_fract_x
_atom_site_fract_y
_atom_site_fract_z
Si Si1 0.800044 0.918264 0.110429
Si Si2 0.300874 0.581857 0.679226
Si Si3 0.594743 0.929776 0.289257
Si Si4 0.000000 0.929557 0.595051
Si Si5 0.595713 0.927291 0.088623
O O1 0.805927 0.750000 0.075289
O O2 0.796629 0.905666 0.215479
O O3 0.750000 0.000000 0.084944
O O4 0.846676 0.022042 0.089456
O O5 0.303698 0.750000 0.642961
O O6 0.250000 0.500000 0.648650
O O7 0.353632 0.496238 0.672771
O O8 0.600162 0.750000 0.286969
O O9 0.549121 0.972674 0.350932
O O10 0.581285 0.974611 0.188238
O O11 0.000000 0.750000 0.588436
O O12 0.000000 0.000000 0.500000
O O13 0.589936 0.750000 0.082108
O O14 0.573221 0.000000 0.000000
#
# Coordination Sequence:
#
# PCOD9501178 Si02
#       5
#    16  16  16   8  16
#     4   9  16  26  40  62  95 137 185 232 272 313
#     4   9  16  27  48  78 112 149 188 228 274 327
#     4   9  19  36  57  81 113 150 187 228 278 332
#     4  10  22  42  67  92 114 140 177 226 283 340
#     4  10  19  31  47  69 101 142 184 225 267 316
#
# _framework density 19.598994999999999
#
# number of rings (size 3 to 8) (size 9 to 14) (size 15 to 20)
#    0.000    2.667    0.000    2.000    0.000    7.556 
#    0.000    2.778    0.000    0.667    0.000    4.667 
#    0.000    0.000    0.000    0.000    0.000    0.000 
#
# Total GULP energy -200541.067068 kJ/mol
# GULP energy per Si atom -5570.585196 kJ/mol
# Density = 1.955439 g / cm^3
# Si number density = 19.598995 Si / 1000 Ang^3
#
#
#
# Elastic Constant Matrix: (Units=GPa)
#
#
# Indices 1 2 3 4 5 6 
#
# 1 122.3835 42.8317 70.1178 0.0000 0.0000 0.0000
# 2 42.8317 56.8271 30.0062 0.0000 0.0000 0.0000
# 3 70.1178 30.0062 96.7397 0.0000 0.0000 0.0000
# 4 0.0000 0.0000 0.0000 23.6071 0.0000 0.0000
# 5 0.0000 0.0000 0.0000 0.0000 -2.9912 0.0000
# 6 0.0000 0.0000 0.0000 0.0000 0.0000 16.0458
#
#
#
# Elastic Compliance Matrix: (Units=1/GPa)
#
#
# Indices 1 2 3 4 5 6 
#
# 1 0.016075 -0.007132 -0.009439 0.000000 0.000000 0.000000
# 2 -0.007132 0.024208 -0.002339 0.000000 0.000000 0.000000
# 3 -0.009439 -0.002339 0.017904 0.000000 0.000000 0.000000
# 4 0.000000 0.000000 0.000000 0.042360 0.000000 0.000000
# 5 0.000000 0.000000 0.000000 0.000000 -0.334314 0.000000
# 6 0.000000 0.000000 0.000000 0.000000 0.000000 0.062322
#
#
# Mechanical properties :
#
#
# Convention : Reuss Voigt Hill
#
# Bulk Modulus (GPa) = 49.10094 62.42908 55.76501
# Shear Modulus (GPa) = -39.42145 16.19864 -11.61140
#
# Velocity S-wave (km/s) = -4.48973 2.87802 -2.43667
# Velocity P-wave (km/s) = 1.33031 6.55487 4.53853
#
# Compressibility (1/GPa) = 0.02036621
#
# Stress axis : x y z
#
# Youngs Moduli (GPa) = 62.20771 41.30867 55.85244
#
# Poissons Ratio (x) = 0.29461 0.52721
# Poissons Ratio (y) = 0.44366 0.13066
# Poissons Ratio (z) = 0.58720 0.09664
#
# Static dielectric constant tensor:
#      x y z
#    x 1.665090 0.000000 0.000000 
#    y 0.000000 1.696670 0.000000 
#    z 0.000000 0.000000 1.731310 
# 
# From -- ./inp_files/30550.got.cif
#   From: 2010.05.17/outbox.cif.g08.bks.cpg/sg67_16_cif.got.tgz:30550.got - 2010.06.03 18:28:57.
