data_PCOD9501496
_publ_section_title
;
Structure prediction by ZEFSAII (Michael W. Deem and Ramdas Pophale) SiO2 
 PCOD9501496
Probable space group: C M M A
;
_chemical_formula_sum "Si O2"
_cell_formula_units_Z 104
_cell_length_a 23.629306
_cell_length_b 27.474732
_cell_length_c 7.025761
_cell_angle_alpha 90.000000
_cell_angle_beta 90.000000
_cell_angle_gamma 90.000000
_cell_volume 4561.186217
_symmetry_space_group_name_H-M "C M M A"
_symmetry_group_IT_number 67
_symmetry_cell_setting 'orthorhombic'
loop_
_space_group_symop_operation_xyz
x,y,z
-x,1/2-y,z
x,-y,-z
-x,1/2+y,-z
-x,-y,-z
x,1/2+y,-z
-x,y,z
x,1/2-y,z
1/2+x,1/2+y,z
1/2-x,-y,z
1/2+x,1/2-y,-z
1/2-x,y,-z
1/2-x,1/2-y,-z
1/2+x,y,-z
1/2-x,1/2+y,z
1/2+x,-y,z
loop_
_atom_site_type_symbol
_atom_site_label
_atom_site_fract_x
_atom_site_fract_y
_atom_site_fract_z
Si Si1 0.847075 0.250000 0.804123
Si Si2 0.231578 0.333170 0.802495
Si Si3 0.342797 0.616758 0.338128
Si Si4 0.684798 0.009610 0.728602
Si Si5 0.641038 0.590399 0.784242
Si Si6 0.063768 0.326904 0.820200
Si Si7 0.565482 0.805614 0.364355
O O1 0.808257 0.206615 0.706639
O O2 0.888091 0.207901 0.900663
O O3 0.285277 0.353062 0.691019
O O4 0.194125 0.379546 0.865717
O O5 0.250000 0.307669 0.000000
O O6 0.335599 0.564509 0.236663
O O7 0.351313 0.602162 0.558689
O O8 0.394570 0.652013 0.284851
O O9 0.683645 0.000000 0.500000
O O10 0.750000 0.000000 0.784408
O O11 0.646967 0.966592 0.814229
O O12 0.583895 0.617673 0.842384
O O13 0.065647 0.312168 0.595093
O O14 0.000000 0.318198 0.883909
O O15 0.500000 0.810551 0.306857
O O16 0.584609 0.750000 0.330468
#
# Coordination Sequence:
#
# PCOD9501496 Si02
#       7
#     8  16  16  16  16  16  16
#     4  10  20  32  47  66 100 138 161 192 250 312
#     4  11  22  34  47  72 106 135 165 210 254 296
#     4  10  19  32  53  74  99 139 169 200 250 305
#     4   9  15  28  48  72 105 133 162 203 250 302
#     4   9  18  33  51  76 100 132 170 204 250 308
#     4   9  16  30  51  75 100 126 164 214 254 285
#     4   9  17  30  48  75 103 127 164 212 251 289
#
# _framework density 22.801085
#
# number of rings (size 3 to 8) (size 9 to 14) (size 15 to 20)
#    0.000    2.462    2.308    0.923    1.077    0.000 
#    0.000    4.615    0.000    9.231    0.000    0.000 
#    0.000    6.154    0.000    0.000    0.000    0.000 
#
# Total GULP energy -289546.374596 kJ/mol
# GULP energy per Si atom -5568.199511 kJ/mol
# Density = 2.274919 g / cm^3
# Si number density = 22.801085 Si / 1000 Ang^3
#
#
#
# Elastic Constant Matrix: (Units=GPa)
#
#
# Indices 1 2 3 4 5 6 
#
# 1 106.9555 86.2966 -0.9744 0.0000 0.0000 0.0000
# 2 86.2966 233.1701 16.4630 0.0000 0.0000 0.0000
# 3 -0.9744 16.4630 80.0879 0.0000 0.0000 0.0000
# 4 0.0000 0.0000 0.0000 -2.4266 0.0000 0.0000
# 5 0.0000 0.0000 0.0000 0.0000 -19.6211 0.0000
# 6 0.0000 0.0000 0.0000 0.0000 0.0000 27.8886
#
#
#
# Elastic Compliance Matrix: (Units=1/GPa)
#
#
# Indices 1 2 3 4 5 6 
#
# 1 0.013444 -0.005061 0.001204 0.000000 0.000000 0.000000
# 2 -0.005061 0.006257 -0.001348 0.000000 0.000000 0.000000
# 3 0.001204 -0.001348 0.012778 0.000000 0.000000 0.000000
# 4 0.000000 0.000000 0.000000 -0.412102 0.000000 0.000000
# 5 0.000000 0.000000 0.000000 0.000000 -0.050966 0.000000
# 6 0.000000 0.000000 0.000000 0.000000 0.000000 0.035857
#
#
# Mechanical properties :
#
#
# Convention : Reuss Voigt Hill
#
# Bulk Modulus (GPa) = 45.31124 69.30932 57.31028
# Shear Modulus (GPa) = -13.26375 22.39674 4.56649
#
# Velocity S-wave (km/s) = -2.41450 3.13751 1.41672
# Velocity P-wave (km/s) = 3.48461 6.60217 5.27879
#
# Compressibility (1/GPa) = 0.02206958
#
# Stress axis : x y z
#
# Youngs Moduli (GPa) = 74.38415 159.82655 78.25970
#
# Poissons Ratio (x) = 0.80881 -0.09421
# Poissons Ratio (y) = 0.37642 0.10547
# Poissons Ratio (z) = -0.08954 0.21540
#
# Static dielectric constant tensor:
#      x y z
#    x 1.877720 0.000000 0.000000 
#    y 0.000000 1.782360 0.000000 
#    z 0.000000 0.000000 2.069150 
# 
# From -- ./inp_files/11682.got.cif
#   From: 2010.05.17/outbox.cif.g08.bks.cpg/sg67_6_cif.got.tgz:11682.got - 2010.06.03 18:28:57.
