data_PCOD9501313
_publ_section_title
;
Structure prediction by ZEFSAII (Michael W. Deem and Ramdas Pophale) SiO2 
 PCOD9501313
Probable space group: C M M A
;
_chemical_formula_sum "Si O2"
_cell_formula_units_Z 112
_cell_length_a 26.515575
_cell_length_b 15.323515
_cell_length_c 12.350460
_cell_angle_alpha 90.000000
_cell_angle_beta 90.000000
_cell_angle_gamma 90.000000
_cell_volume 5018.137772
_symmetry_space_group_name_H-M "C M M A"
_symmetry_group_IT_number 67
_symmetry_cell_setting 'orthorhombic'
loop_
_space_group_symop_operation_xyz
x,y,z
-x,1/2-y,z
x,-y,-z
-x,1/2+y,-z
-x,-y,-z
x,1/2+y,-z
-x,y,z
x,1/2-y,z
1/2+x,1/2+y,z
1/2-x,-y,z
1/2+x,1/2-y,-z
1/2-x,y,-z
1/2-x,1/2-y,-z
1/2+x,y,-z
1/2-x,1/2+y,z
1/2+x,-y,z
loop_
_atom_site_type_symbol
_atom_site_label
_atom_site_fract_x
_atom_site_fract_y
_atom_site_fract_z
Si Si1 0.878940 0.152436 0.879408
Si Si2 0.556862 0.852839 0.671431
Si Si3 0.804474 0.982110 0.220974
Si Si4 0.163584 0.154040 0.347838
Si Si5 0.161822 0.410079 0.564682
Si Si6 0.444080 0.093924 0.943311
Si Si7 0.445557 0.148473 0.707495
O O1 0.858085 0.250000 0.856406
O O2 0.926301 0.140365 0.797310
O O3 0.841274 0.072690 0.855894
O O4 0.900425 0.147858 0.999884
O O5 0.500000 0.888527 0.654405
O O6 0.555191 0.750000 0.644161
O O7 0.605640 0.890420 0.609484
O O8 0.803128 0.922251 0.330223
O O9 0.750000 0.000000 0.172471
O O10 0.822056 0.075650 0.268121
O O11 0.172563 0.250000 0.300530
O O12 0.183272 0.151069 0.470624
O O13 0.103189 0.141166 0.365158
O O14 0.159782 0.500000 0.500000
O O15 0.500000 0.131791 0.962613
O O16 0.438718 0.090510 0.814286
O O17 0.442525 0.000000 0.000000
O O18 0.500000 0.129703 0.656381
O O19 0.446626 0.250000 0.744012
#
# Coordination Sequence:
#
# PCOD9501313 Si02
#       7
#    16  16  16  16  16  16  16
#     4  10  20  35  57  83 112 148 190 236 288 343
#     4   9  17  29  46  71 105 141 174 213 265 328
#     4  10  22  40  58  79 107 139 181 241 301 351
#     4  10  20  35  56  80 108 145 186 229 280 340
#     4   9  19  33  49  73 103 137 180 227 275 333
#     4  10  19  31  52  84 120 157 194 230 272 328
#     4   9  18  32  51  78 112 148 185 223 265 322
#
# _framework density 22.319037999999999
#
# number of rings (size 3 to 8) (size 9 to 14) (size 15 to 20)
#    0.000    2.429    0.000    2.143    0.000    6.000 
#    0.000    9.286    0.000    3.857    0.000    6.000 
#    0.000    0.000    0.000    0.000    0.000    0.000 
#
# Total GULP energy -312317.064073 kJ/mol
# GULP energy per Si atom -5577.090430 kJ/mol
# Density = 2.226824 g / cm^3
# Si number density = 22.319038 Si / 1000 Ang^3
#
#
#
# Elastic Constant Matrix: (Units=GPa)
#
#
# Indices 1 2 3 4 5 6 
#
# 1 67.9365 19.4297 4.2768 0.0000 0.0000 0.0000
# 2 19.4297 90.1292 -0.3073 0.0000 0.0000 0.0000
# 3 4.2768 -0.3073 23.6735 0.0000 0.0000 0.0000
# 4 0.0000 0.0000 0.0000 13.2745 0.0000 0.0000
# 5 0.0000 0.0000 0.0000 0.0000 8.9036 0.0000
# 6 0.0000 0.0000 0.0000 0.0000 0.0000 9.9343
#
#
#
# Elastic Compliance Matrix: (Units=1/GPa)
#
#
# Indices 1 2 3 4 5 6 
#
# 1 0.015885 -0.003434 -0.002914 0.000000 0.000000 0.000000
# 2 -0.003434 0.011838 0.000774 0.000000 0.000000 0.000000
# 3 -0.002914 0.000774 0.042778 0.000000 0.000000 0.000000
# 4 0.000000 0.000000 0.000000 0.075332 0.000000 0.000000
# 5 0.000000 0.000000 0.000000 0.000000 0.112314 0.000000
# 6 0.000000 0.000000 0.000000 0.000000 0.000000 0.100662
#
#
# Mechanical properties :
#
#
# Convention : Reuss Voigt Hill
#
# Bulk Modulus (GPa) = 16.84864 25.39306 21.12085
# Shear Modulus (GPa) = 12.82899 16.97849 14.90374
#
# Velocity S-wave (km/s) = 2.40010 2.76110 2.58691
# Velocity P-wave (km/s) = 3.90462 4.64402 4.29028
#
# Compressibility (1/GPa) = 0.05935197
#
# Stress axis : x y z
#
# Youngs Moduli (GPa) = 62.95111 84.47226 23.37661
#
# Poissons Ratio (x) = 0.29011 0.06813
# Poissons Ratio (y) = 0.21620 -0.01810
# Poissons Ratio (z) = 0.18346 -0.06539
#
# Static dielectric constant tensor:
#      x y z
#    x 1.841730 0.000000 0.000000 
#    y 0.000000 1.884120 0.000000 
#    z 0.000000 0.000000 1.832750 
# 
# From -- ./inp_files/27744.got.cif
#   From: 2010.05.17/outbox.cif.g08.bks.cpg/sg67_14_cif.got.tgz:27744.got - 2010.06.03 18:28:57.
