data_PCOD9501844
_publ_section_title
;
Structure prediction by ZEFSAII (Michael W. Deem and Ramdas Pophale) SiO2 
 PCOD9501844
Probable space group: C M M A
;
_chemical_formula_sum "Si O2"
_cell_formula_units_Z 64
_cell_length_a 14.727830
_cell_length_b 15.921681
_cell_length_c 11.880041
_cell_angle_alpha 90.000000
_cell_angle_beta 90.000000
_cell_angle_gamma 90.000000
_cell_volume 2785.772330
_symmetry_space_group_name_H-M "C M M A"
_symmetry_group_IT_number 67
_symmetry_cell_setting 'orthorhombic'
loop_
_space_group_symop_operation_xyz
x,y,z
-x,1/2-y,z
x,-y,-z
-x,1/2+y,-z
-x,-y,-z
x,1/2+y,-z
-x,y,z
x,1/2-y,z
1/2+x,1/2+y,z
1/2-x,-y,z
1/2+x,1/2-y,-z
1/2-x,y,-z
1/2-x,1/2-y,-z
1/2+x,y,-z
1/2-x,1/2+y,z
1/2+x,-y,z
loop_
_atom_site_type_symbol
_atom_site_label
_atom_site_fract_x
_atom_site_fract_y
_atom_site_fract_z
Si Si1 0.600980 0.750000 0.825201
Si Si2 0.156435 0.250000 0.066373
Si Si3 0.110274 0.654755 0.509571
Si Si4 0.388988 0.420869 0.280445
Si Si5 0.110409 0.605864 0.760799
O O1 0.500000 0.750000 0.772127
O O2 0.643325 0.837338 0.783817
O O3 0.591768 0.750000 0.958608
O O4 0.143722 0.330833 0.144561
O O5 0.250000 0.250000 0.000000
O O6 0.136954 0.750000 0.479027
O O7 0.137841 0.591430 0.410876
O O8 0.139972 0.634308 0.635735
O O9 0.000000 0.652524 0.511974
O O10 0.500000 0.422829 0.276933
O O11 0.360584 0.509109 0.228038
O O12 0.000000 0.610036 0.763270
#
# Coordination Sequence:
#
# PCOD9501844 Si02
#       5
#     8   8  16  16  16
#     4  10  20  37  58  81 112 149 192 241 290 350
#     4  12  26  41  54  74 108 157 209 252 289 334
#     4   9  14  25  51  89 126 150 173 224 295 359
#     4   9  17  30  55  90 121 146 181 232 292 350
#     4  10  19  34  58  87 117 152 193 241 293 352
#
# _framework density 22.973882
#
# number of rings (size 3 to 8) (size 9 to 14) (size 15 to 20)
#    0.000    2.250    2.500    1.875    0.000    4.000 
#    0.000    6.250    0.000    3.000    0.000    3.500 
#    0.000    0.000    0.000    0.000    0.000    4.000 
#
# Total GULP energy -178841.757696 kJ/mol
# GULP energy per Si atom -5588.804928 kJ/mol
# Density = 2.292159 g / cm^3
# Si number density = 22.973882 Si / 1000 Ang^3
#
#
#
# Elastic Constant Matrix: (Units=GPa)
#
#
# Indices 1 2 3 4 5 6 
#
# 1 72.3697 9.9206 14.4867 0.0000 0.0000 0.0000
# 2 9.9206 226.0813 116.3487 0.0000 0.0000 0.0000
# 3 14.4867 116.3487 176.9500 0.0000 0.0000 0.0000
# 4 0.0000 0.0000 0.0000 9.5033 0.0000 0.0000
# 5 0.0000 0.0000 0.0000 0.0000 -7.4259 0.0000
# 6 0.0000 0.0000 0.0000 0.0000 0.0000 -15.5461
#
#
#
# Elastic Compliance Matrix: (Units=1/GPa)
#
#
# Indices 1 2 3 4 5 6 
#
# 1 0.014048 -0.000037 -0.001126 0.000000 0.000000 0.000000
# 2 -0.000037 0.006686 -0.004393 0.000000 0.000000 0.000000
# 3 -0.001126 -0.004393 0.008632 0.000000 0.000000 0.000000
# 4 0.000000 0.000000 0.000000 0.105226 0.000000 0.000000
# 5 0.000000 0.000000 0.000000 0.000000 -0.134664 0.000000
# 6 0.000000 0.000000 0.000000 0.000000 0.000000 -0.064325
#
#
# Mechanical properties :
#
#
# Convention : Reuss Voigt Hill
#
# Bulk Modulus (GPa) = 54.78134 84.10145 69.44139
# Shear Modulus (GPa) = -105.93096 19.61592 -43.15752
#
# Velocity S-wave (km/s) = -6.79775 2.92522 -4.33892
# Velocity P-wave (km/s) = 6.14131 6.93513 2.27820
#
# Compressibility (1/GPa) = 0.01825439
#
# Stress axis : x y z
#
# Youngs Moduli (GPa) = 71.18264 149.57718 115.84977
#
# Poissons Ratio (x) = 0.00555 0.13041
# Poissons Ratio (y) = 0.00264 0.50891
# Poissons Ratio (z) = 0.08013 0.65707
#
# Static dielectric constant tensor:
#      x y z
#    x 2.449180 0.000000 0.000000 
#    y 0.000000 1.845980 0.000000 
#    z 0.000000 0.000000 1.800790 
# 
# From -- ./inp_files/17566.got.cif
#   From: 2010.05.17/outbox.cif.g08.bks.cpg/sg67_9_cif.got.tgz:17566.got - 2010.06.03 18:28:57.
