data_PCOD9501959
_publ_section_title
;
Structure prediction by ZEFSAII (Michael W. Deem and Ramdas Pophale) SiO2 
 PCOD9501959
Probable space group: C M M A
;
_chemical_formula_sum "Si O2"
_cell_formula_units_Z 52
_cell_length_a 14.829195
_cell_length_b 27.055307
_cell_length_c 5.525002
_cell_angle_alpha 90.000000
_cell_angle_beta 90.000000
_cell_angle_gamma 90.000000
_cell_volume 2216.677341
_symmetry_space_group_name_H-M "C M M A"
_symmetry_group_IT_number 67
_symmetry_cell_setting 'orthorhombic'
loop_
_space_group_symop_operation_xyz
x,y,z
-x,1/2-y,z
x,-y,-z
-x,1/2+y,-z
-x,-y,-z
x,1/2+y,-z
-x,y,z
x,1/2-y,z
1/2+x,1/2+y,z
1/2-x,-y,z
1/2+x,1/2-y,-z
1/2-x,y,-z
1/2-x,1/2-y,-z
1/2+x,y,-z
1/2-x,1/2+y,z
1/2+x,-y,z
loop_
_atom_site_type_symbol
_atom_site_label
_atom_site_fract_x
_atom_site_fract_y
_atom_site_fract_z
Si Si1 0.250000 0.000000 0.500000
Si Si2 0.357507 0.156112 0.799939
Si Si3 0.900231 0.545654 0.812441
Si Si4 0.847705 0.307627 0.706073
O O1 0.183312 0.965340 0.644083
O O2 0.381109 0.101274 0.894881
O O3 0.251072 0.167684 0.753286
O O4 0.392910 0.166281 0.527042
O O5 0.389889 0.188907 0.025725
O O6 0.000000 0.545199 0.698432
O O7 0.899150 0.500000 0.000000
O O8 0.837692 0.250000 0.643959
#
# Coordination Sequence:
#
# PCOD9501959 Si02
#       4
#     4  16  16  16
#     4  12  24  44  76  96 130 188 248 288 362 422
#     4  10  20  35  61  93 132 181 224 283 355 420
#     4  11  27  45  67 103 146 187 238 302 362 433
#     4  10  19  35  64 100 133 177 238 296 348 421
#
# _framework density 23.458532999999999
#
# number of rings (size 3 to 8) (size 9 to 14) (size 15 to 20)
#    0.000    1.538    0.000    7.385   12.923    0.000 
#    0.000    0.000    0.000   10.154    0.000    0.000 
#    0.000    0.000    0.000    0.000    0.000    0.000 
#
# Total GULP energy -144914.785741 kJ/mol
# GULP energy per Si atom -5573.645605 kJ/mol
# Density = 2.340514 g / cm^3
# Si number density = 23.458533 Si / 1000 Ang^3
#
#
#
# Elastic Constant Matrix: (Units=GPa)
#
#
# Indices 1 2 3 4 5 6 
#
# 1 133.9749 18.9461 9.6132 0.0000 0.0000 0.0000
# 2 18.9461 160.0539 23.4960 0.0000 0.0000 0.0000
# 3 9.6132 23.4960 157.1090 0.0000 0.0000 0.0000
# 4 0.0000 0.0000 0.0000 20.1139 0.0000 0.0000
# 5 0.0000 0.0000 0.0000 0.0000 -4.1460 0.0000
# 6 0.0000 0.0000 0.0000 0.0000 0.0000 -5.2729
#
#
#
# Elastic Compliance Matrix: (Units=1/GPa)
#
#
# Indices 1 2 3 4 5 6 
#
# 1 0.007609 -0.000851 -0.000338 0.000000 0.000000 0.000000
# 2 -0.000851 0.006483 -0.000918 0.000000 0.000000 0.000000
# 3 -0.000338 -0.000918 0.006523 0.000000 0.000000 0.000000
# 4 0.000000 0.000000 0.000000 0.049717 0.000000 0.000000
# 5 0.000000 0.000000 0.000000 0.000000 -0.241197 0.000000
# 6 0.000000 0.000000 0.000000 0.000000 0.000000 -0.189649
#
#
# Mechanical properties :
#
#
# Convention : Reuss Voigt Hill
#
# Bulk Modulus (GPa) = 60.97073 61.69425 61.33249
# Shear Modulus (GPa) = -14.25179 28.74450 7.24636
#
# Velocity S-wave (km/s) = -2.46749 3.50427 1.75946
# Velocity P-wave (km/s) = 4.23430 6.53679 5.50722
#
# Compressibility (1/GPa) = 0.01640131
#
# Stress axis : x y z
#
# Youngs Moduli (GPa) = 131.42841 154.24189 153.30548
#
# Poissons Ratio (x) = 0.13126 0.05186
# Poissons Ratio (y) = 0.11185 0.14066
# Poissons Ratio (z) = 0.04446 0.14152
#
# Static dielectric constant tensor:
#      x y z
#    x 1.869600 0.000000 0.000000 
#    y 0.000000 2.094800 0.000000 
#    z 0.000000 0.000000 2.236970 
# 
# From -- ./inp_files/1967.got.cif
#   From: 2010.05.17/outbox.cif.g08.bks.cpg/sg67_1_cif.got.tgz:1967.got - 2010.06.03 18:28:57.
