data_PCOD9501552
_publ_section_title
;
Structure prediction by ZEFSAII (Michael W. Deem and Ramdas Pophale) SiO2 
 PCOD9501552
Probable space group: C M M A
;
_chemical_formula_sum "Si O2"
_cell_formula_units_Z 52
_cell_length_a 20.571481
_cell_length_b 15.834783
_cell_length_c 9.236628
_cell_angle_alpha 90.000000
_cell_angle_beta 90.000000
_cell_angle_gamma 90.000000
_cell_volume 3008.784812
_symmetry_space_group_name_H-M "C M M A"
_symmetry_group_IT_number 67
_symmetry_cell_setting 'orthorhombic'
loop_
_space_group_symop_operation_xyz
x,y,z
-x,1/2-y,z
x,-y,-z
-x,1/2+y,-z
-x,-y,-z
x,1/2+y,-z
-x,y,z
x,1/2-y,z
1/2+x,1/2+y,z
1/2-x,-y,z
1/2+x,1/2-y,-z
1/2-x,y,-z
1/2-x,1/2-y,-z
1/2+x,y,-z
1/2-x,1/2+y,z
1/2+x,-y,z
loop_
_atom_site_type_symbol
_atom_site_label
_atom_site_fract_x
_atom_site_fract_y
_atom_site_fract_z
Si Si1 0.750000 0.000000 0.000000
Si Si2 0.376483 0.919764 0.909758
Si Si3 0.420932 0.750000 0.406763
Si Si4 0.921537 0.084646 0.580155
Si Si5 0.578727 0.250000 0.931365
O O1 0.700482 0.941091 0.911185
O O2 0.401020 0.915354 0.746663
O O3 0.394186 0.833869 0.991845
O O4 0.405105 0.000000 0.000000
O O5 0.500000 0.750000 0.409114
O O6 0.398894 0.666808 0.492173
O O7 0.402767 0.750000 0.238193
O O8 0.000000 0.085269 0.576721
O O9 0.898996 0.000000 0.500000
O O10 0.500000 0.250000 0.942706
#
# Coordination Sequence:
#
# PCOD9501552 Si02
#       5
#     4  16   8  16   8
#     4   8  24  42  56  80 110 168 202 244 264 320
#     4  10  21  39  58  82 115 155 200 235 281 337
#     4   9  19  33  49  84 122 141 173 223 297 359
#     4  10  19  32  55  84 117 147 177 237 302 348
#     4  11  21  34  63  93 115 148 188 244 302 351
#
# _framework density 17.282724999999999
#
# number of rings (size 3 to 8) (size 9 to 14) (size 15 to 20)
#    0.923    1.231    0.000    3.692    0.000    6.769 
#    0.000    0.769    0.000    1.846    0.000    0.000 
#    0.000    0.000    0.000    0.000    0.000    0.000 
#
# Total GULP energy -144859.007858 kJ/mol
# GULP energy per Si atom -5571.500302 kJ/mol
# Density = 1.724339 g / cm^3
# Si number density = 17.282725 Si / 1000 Ang^3
#
#
#
# Elastic Constant Matrix: (Units=GPa)
#
#
# Indices 1 2 3 4 5 6 
#
# 1 39.9420 35.6389 20.1128 0.0000 0.0000 0.0000
# 2 35.6389 209.4848 122.0350 0.0000 0.0000 0.0000
# 3 20.1128 122.0350 192.3474 0.0000 0.0000 0.0000
# 4 0.0000 0.0000 0.0000 37.2143 0.0000 0.0000
# 5 0.0000 0.0000 0.0000 0.0000 -27.0831 0.0000
# 6 0.0000 0.0000 0.0000 0.0000 0.0000 10.9930
#
#
#
# Elastic Compliance Matrix: (Units=1/GPa)
#
#
# Indices 1 2 3 4 5 6 
#
# 1 0.029520 -0.005114 0.000158 0.000000 0.000000 0.000000
# 2 -0.005114 0.008458 -0.004832 0.000000 0.000000 0.000000
# 3 0.000158 -0.004832 0.008248 0.000000 0.000000 0.000000
# 4 0.000000 0.000000 0.000000 0.026871 0.000000 0.000000
# 5 0.000000 0.000000 0.000000 0.000000 -0.036923 0.000000
# 6 0.000000 0.000000 0.000000 0.000000 0.000000 0.090967
#
#
# Mechanical properties :
#
#
# Convention : Reuss Voigt Hill
#
# Bulk Modulus (GPa) = 37.52281 88.59417 63.05849
# Shear Modulus (GPa) = 32.13362 21.82402 26.97882
#
# Velocity S-wave (km/s) = 4.31663 3.55740 3.95527
# Velocity P-wave (km/s) = 6.82661 8.26114 7.57790
#
# Compressibility (1/GPa) = 0.02665046
#
# Stress axis : x y z
#
# Youngs Moduli (GPa) = 33.87537 118.22678 121.24373
#
# Poissons Ratio (x) = 0.60463 -0.01915
# Poissons Ratio (y) = 0.17324 0.58581
# Poissons Ratio (z) = -0.00535 0.57123
#
# Static dielectric constant tensor:
#      x y z
#    x 1.579700 0.000000 0.000000 
#    y 0.000000 1.568830 0.000000 
#    z 0.000000 0.000000 1.549990 
# 
# From -- ./inp_files/10512.got.cif
#   From: 2010.05.17/outbox.cif.g08.bks.cpg/sg67_6_cif.got.tgz:10512.got - 2010.06.03 18:28:57.
