data_PCOD9501956
_publ_section_title
;
Structure prediction by ZEFSAII (Michael W. Deem and Ramdas Pophale) SiO2 
 PCOD9501956
Probable space group: C M M A
;
_chemical_formula_sum "Si O2"
_cell_formula_units_Z 96
_cell_length_a 16.275731
_cell_length_b 24.607201
_cell_length_c 12.129007
_cell_angle_alpha 90.000000
_cell_angle_beta 90.000000
_cell_angle_gamma 90.000000
_cell_volume 4857.669537
_symmetry_space_group_name_H-M "C M M A"
_symmetry_group_IT_number 67
_symmetry_cell_setting 'orthorhombic'
loop_
_space_group_symop_operation_xyz
x,y,z
-x,1/2-y,z
x,-y,-z
-x,1/2+y,-z
-x,-y,-z
x,1/2+y,-z
-x,y,z
x,1/2-y,z
1/2+x,1/2+y,z
1/2-x,-y,z
1/2+x,1/2-y,-z
1/2-x,y,-z
1/2-x,1/2-y,-z
1/2+x,y,-z
1/2-x,1/2+y,z
1/2+x,-y,z
loop_
_atom_site_type_symbol
_atom_site_label
_atom_site_fract_x
_atom_site_fract_y
_atom_site_fract_z
Si Si1 0.667350 0.362328 0.577739
Si Si2 0.600503 0.750000 0.321134
Si Si3 0.150415 0.365073 0.994520
Si Si4 0.350631 0.447027 0.190695
Si Si5 0.660039 0.431866 0.802240
Si Si6 0.097113 0.250000 0.062203
Si Si7 0.593957 0.552317 0.567585
O O1 0.750000 0.360483 0.500000
O O2 0.638228 0.303548 0.620191
O O3 0.669262 0.401873 0.685257
O O4 0.600795 0.393802 0.504305
O O5 0.500000 0.750000 0.328124
O O6 0.625938 0.750000 0.190894
O O7 0.121556 0.391680 0.109174
O O8 0.124406 0.303097 0.996461
O O9 0.250000 0.364763 0.000000
O O10 0.116834 0.402244 0.894648
O O11 0.382084 0.509186 0.186934
O O12 0.253892 0.444764 0.165362
O O13 0.361405 0.434536 0.318920
O O14 0.000000 0.250000 0.069857
O O15 0.628888 0.500000 0.500000
O O16 0.500000 0.538436 0.593369
#
# Coordination Sequence:
#
# PCOD9501956 Si02
#       7
#    16   8  16  16  16   8  16
#     4  12  22  39  66  94 120 163 213 262 307 370
#     4  11  25  44  63  87 129 166 207 268 320 374
#     4  10  21  39  62  91 119 159 207 261 312 367
#     4  10  20  36  60  91 125 161 191 255 318 370
#     4  10  19  35  62  93 123 151 205 255 310 373
#     4  11  23  40  63  85 117 168 215 262 316 372
#     4  11  23  37  57  89 128 167 203 245 313 382
#
# _framework density 19.762564000000001
#
# number of rings (size 3 to 8) (size 9 to 14) (size 15 to 20)
#    0.000    1.333    5.000    1.500    0.000    3.000 
#    0.000    1.667    0.000    3.000    0.000    0.000 
#    0.000    0.000    0.000    0.000    0.000    0.000 
#
# Total GULP energy -267376.130912 kJ/mol
# GULP energy per Si atom -5570.336061 kJ/mol
# Density = 1.971758 g / cm^3
# Si number density = 19.762564 Si / 1000 Ang^3
#
#
#
# Elastic Constant Matrix: (Units=GPa)
#
#
# Indices 1 2 3 4 5 6 
#
# 1 32.4483 19.8296 19.2639 0.0000 0.0000 0.0000
# 2 19.8296 191.5041 85.4113 0.0000 0.0000 0.0000
# 3 19.2639 85.4113 125.0440 0.0000 0.0000 0.0000
# 4 0.0000 0.0000 0.0000 41.6782 0.0000 0.0000
# 5 0.0000 0.0000 0.0000 0.0000 1.6557 0.0000
# 6 0.0000 0.0000 0.0000 0.0000 0.0000 5.0706
#
#
#
# Elastic Compliance Matrix: (Units=1/GPa)
#
#
# Indices 1 2 3 4 5 6 
#
# 1 0.034310 -0.001719 -0.004112 0.000000 0.000000 0.000000
# 2 -0.001719 0.007596 -0.004923 0.000000 0.000000 0.000000
# 3 -0.004112 -0.004923 0.011994 0.000000 0.000000 0.000000
# 4 0.000000 0.000000 0.000000 0.023993 0.000000 0.000000
# 5 0.000000 0.000000 0.000000 0.000000 0.603989 0.000000
# 6 0.000000 0.000000 0.000000 0.000000 0.000000 0.197215
#
#
# Mechanical properties :
#
#
# Convention : Reuss Voigt Hill
#
# Bulk Modulus (GPa) = 30.87260 66.44509 48.65885
# Shear Modulus (GPa) = 5.48606 24.64700 15.06653
#
# Velocity S-wave (km/s) = 1.66794 3.53534 2.76411
# Velocity P-wave (km/s) = 4.40057 7.09644 5.90443
#
# Compressibility (1/GPa) = 0.03239118
#
# Stress axis : x y z
#
# Youngs Moduli (GPa) = 29.14630 131.65416 83.37828
#
# Poissons Ratio (x) = 0.22630 0.34281
# Poissons Ratio (y) = 0.05010 0.41051
# Poissons Ratio (z) = 0.11984 0.64819
#
# Static dielectric constant tensor:
#      x y z
#    x 1.706430 0.000000 0.000000 
#    y 0.000000 1.793800 0.000000 
#    z 0.000000 0.000000 1.723340 
# 
# From -- ./inp_files/19726.got.cif
#   From: 2010.05.17/outbox.cif.g08.bks.cpg/sg67_10_cif.got.tgz:19726.got - 2010.06.03 18:28:57.
