data_PCOD9501772
_publ_section_title
;
Structure prediction by ZEFSAII (Michael W. Deem and Ramdas Pophale) SiO2 
 PCOD9501772
Probable space group: C M M A
;
_chemical_formula_sum "Si O2"
_cell_formula_units_Z 112
_cell_length_a 28.814112
_cell_length_b 13.943329
_cell_length_c 13.790957
_cell_angle_alpha 90.000000
_cell_angle_beta 90.000000
_cell_angle_gamma 90.000000
_cell_volume 5540.718922
_symmetry_space_group_name_H-M "C M M A"
_symmetry_group_IT_number 67
_symmetry_cell_setting 'orthorhombic'
loop_
_space_group_symop_operation_xyz
x,y,z
-x,1/2-y,z
x,-y,-z
-x,1/2+y,-z
-x,-y,-z
x,1/2+y,-z
-x,y,z
x,1/2-y,z
1/2+x,1/2+y,z
1/2-x,-y,z
1/2+x,1/2-y,-z
1/2-x,y,-z
1/2-x,1/2-y,-z
1/2+x,y,-z
1/2-x,1/2+y,z
1/2+x,-y,z
loop_
_atom_site_type_symbol
_atom_site_label
_atom_site_fract_x
_atom_site_fract_y
_atom_site_fract_z
Si Si1 0.450530 0.465910 0.610789
Si Si2 0.821005 0.641828 0.377863
Si Si3 0.368735 0.533281 0.893535
Si Si4 0.146865 0.137661 0.415722
Si Si5 0.719230 0.134312 0.180009
Si Si6 0.580264 0.358416 0.267044
Si Si7 0.177032 0.138672 0.205767
O O1 0.451831 0.500000 0.500000
O O2 0.500000 0.414626 0.630708
O O3 0.402099 0.409128 0.614509
O O4 0.448119 0.559281 0.679024
O O5 0.802364 0.750000 0.391707
O O6 0.829610 0.601478 0.484891
O O7 0.791528 0.597799 0.289917
O O8 0.871973 0.645966 0.329268
O O9 0.319064 0.588220 0.889504
O O10 0.404545 0.602151 0.838025
O O11 0.360194 0.436616 0.832128
O O12 0.381826 0.500000 0.000000
O O13 0.137372 0.250000 0.433946
O O14 0.179447 0.129642 0.322167
O O15 0.712474 0.250000 0.180304
O O16 0.772939 0.116227 0.159305
O O17 0.561355 0.250000 0.264322
O O18 0.165564 0.250000 0.184934
#
# Coordination Sequence:
#
# PCOD9501772 Si02
#       7
#    16  16  16  16  16  16  16
#     4  11  22  35  58  92 124 150 183 227 277 344
#     4   8  15  29  52  75 108 153 191 225 267 326
#     4  11  22  37  58  80 108 147 196 247 299 348
#     4  10  19  34  54  80 116 157 191 227 277 338
#     4   9  19  35  52  79 113 152 198 244 290 337
#     4  10  20  38  60  83 115 155 195 238 288 348
#     4  10  21  34  52  79 115 150 193 244 290 346
#
# _framework density 20.213982999999999
#
# number of rings (size 3 to 8) (size 9 to 14) (size 15 to 20)
#    0.000    2.143    2.857    1.714    0.000    3.429 
#    0.000    5.714    0.000    2.143    0.000    0.000 
#    0.000    0.000    0.000    0.000    0.000    0.000 
#
# Total GULP energy -312259.016172 kJ/mol
# GULP energy per Si atom -5576.053860 kJ/mol
# Density = 2.016798 g / cm^3
# Si number density = 20.213983 Si / 1000 Ang^3
#
#
#
# Elastic Constant Matrix: (Units=GPa)
#
#
# Indices 1 2 3 4 5 6 
#
# 1 29.5742 -1.0080 -15.5590 0.0000 0.0000 0.0000
# 2 -1.0080 79.1985 17.2114 0.0000 0.0000 0.0000
# 3 -15.5590 17.2114 85.0701 0.0000 0.0000 0.0000
# 4 0.0000 0.0000 0.0000 22.3425 0.0000 0.0000
# 5 0.0000 0.0000 0.0000 0.0000 8.4831 0.0000
# 6 0.0000 0.0000 0.0000 0.0000 0.0000 12.0581
#
#
#
# Elastic Compliance Matrix: (Units=1/GPa)
#
#
# Indices 1 2 3 4 5 6 
#
# 1 0.037498 -0.001060 0.007073 0.000000 0.000000 0.000000
# 2 -0.001060 0.013237 -0.002872 0.000000 0.000000 0.000000
# 3 0.007073 -0.002872 0.013630 0.000000 0.000000 0.000000
# 4 0.000000 0.000000 0.000000 0.044758 0.000000 0.000000
# 5 0.000000 0.000000 0.000000 0.000000 0.117882 0.000000
# 6 0.000000 0.000000 0.000000 0.000000 0.000000 0.082932
#
#
# Mechanical properties :
#
#
# Convention : Reuss Voigt Hill
#
# Bulk Modulus (GPa) = 14.15496 21.68130 17.91813
# Shear Modulus (GPa) = 15.28103 21.45663 18.36883
#
# Velocity S-wave (km/s) = 2.75246 3.26156 3.01777
# Velocity P-wave (km/s) = 4.13753 4.99329 4.58541
#
# Compressibility (1/GPa) = 0.07064659
#
# Stress axis : x y z
#
# Youngs Moduli (GPa) = 26.66809 75.54497 73.36957
#
# Poissons Ratio (x) = 0.08006 -0.51892
# Poissons Ratio (y) = 0.02826 0.21072
# Poissons Ratio (z) = -0.18861 0.21696
#
# Static dielectric constant tensor:
#      x y z
#    x 1.728300 0.000000 0.000000 
#    y 0.000000 1.782210 0.000000 
#    z 0.000000 0.000000 1.717620 
# 
# From -- ./inp_files/31208.got.cif
#   From: 2010.05.17/outbox.cif.g08.bks.cpg/sg67_16_cif.got.tgz:31208.got - 2010.06.03 18:28:57.
