data_PCOD9501762
_publ_section_title
;
Structure prediction by ZEFSAII (Michael W. Deem and Ramdas Pophale) SiO2 
 PCOD9501762
Probable space group: C M M A
;
_chemical_formula_sum "Si O2"
_cell_formula_units_Z 112
_cell_length_a 26.084292
_cell_length_b 14.732450
_cell_length_c 15.077666
_cell_angle_alpha 90.000000
_cell_angle_beta 90.000000
_cell_angle_gamma 90.000000
_cell_volume 5794.128835
_symmetry_space_group_name_H-M "C M M A"
_symmetry_group_IT_number 67
_symmetry_cell_setting 'orthorhombic'
loop_
_space_group_symop_operation_xyz
x,y,z
-x,1/2-y,z
x,-y,-z
-x,1/2+y,-z
-x,-y,-z
x,1/2+y,-z
-x,y,z
x,1/2-y,z
1/2+x,1/2+y,z
1/2-x,-y,z
1/2+x,1/2-y,-z
1/2-x,y,-z
1/2-x,1/2-y,-z
1/2+x,y,-z
1/2-x,1/2+y,z
1/2+x,-y,z
loop_
_atom_site_type_symbol
_atom_site_label
_atom_site_fract_x
_atom_site_fract_y
_atom_site_fract_z
Si Si1 0.696467 0.028147 0.727318
Si Si2 0.591558 0.398603 0.788876
Si Si3 0.561661 0.250000 0.927322
Si Si4 0.056359 0.647385 0.599744
Si Si5 0.559566 0.902415 0.732661
Si Si6 0.669534 0.140934 0.563354
Si Si7 0.846739 0.144542 0.636017
Si Si8 0.562116 0.750000 0.870334
O O1 0.652725 0.085183 0.777846
O O2 0.702117 0.085243 0.634923
O O3 0.750000 0.000000 0.770637
O O4 0.674284 0.930091 0.702276
O O5 0.579602 0.339927 0.874936
O O6 0.566360 0.347234 0.705206
O O7 0.567666 0.497888 0.773103
O O8 0.500000 0.250000 0.926774
O O9 0.580391 0.250000 0.028859
O O10 0.055681 0.750000 0.563091
O O11 0.110407 0.605192 0.570570
O O12 0.000000 0.605903 0.583390
O O13 0.500000 0.887908 0.713717
O O14 0.592585 0.878113 0.645313
O O15 0.577154 0.835525 0.810976
O O16 0.670936 0.250000 0.583219
O O17 0.679571 0.130204 0.459463
O O18 0.839196 0.250000 0.658570
O O19 0.500000 0.750000 0.874719
#
# Coordination Sequence:
#
# PCOD9501762 Si02
#       8
#    16  16   8  16  16  16  16   8
#     4  10  22  38  54  74 105 142 181 235 288 323
#     4  10  20  33  54  81 108 142 183 221 277 341
#     4  11  20  34  58  90 122 141 170 226 283 346
#     4   9  15  26  44  70 106 140 167 207 264 319
#     4  10  19  34  53  76 113 153 186 219 263 328
#     4   9  19  32  49  75 107 138 183 233 272 325
#     4  10  20  34  51  75 102 143 190 228 268 324
#     4   9  20  34  52  80 116 155 184 212 262 334
#
# _framework density 19.329912
#
# number of rings (size 3 to 8) (size 9 to 14) (size 15 to 20)
#    0.000    2.286    1.429    1.714    1.000    2.857 
#    0.000    5.000    0.000    5.143    0.000   12.000 
#    0.000    0.000    0.000    0.000    0.000    0.000 
#
# Total GULP energy -311832.721121 kJ/mol
# GULP energy per Si atom -5568.441449 kJ/mol
# Density = 1.928592 g / cm^3
# Si number density = 19.329912 Si / 1000 Ang^3
#
#
#
# Elastic Constant Matrix: (Units=GPa)
#
#
# Indices 1 2 3 4 5 6 
#
# 1 63.9202 -2.8139 -9.0875 0.0000 0.0000 0.0000
# 2 -2.8139 101.2528 18.1702 0.0000 0.0000 0.0000
# 3 -9.0875 18.1702 46.9982 0.0000 0.0000 0.0000
# 4 0.0000 0.0000 0.0000 -8.5289 0.0000 0.0000
# 5 0.0000 0.0000 0.0000 0.0000 12.8044 0.0000
# 6 0.0000 0.0000 0.0000 0.0000 0.0000 15.1898
#
#
#
# Elastic Compliance Matrix: (Units=1/GPa)
#
#
# Indices 1 2 3 4 5 6 
#
# 1 0.016088 -0.000119 0.003157 0.000000 0.000000 0.000000
# 2 -0.000119 0.010613 -0.004126 0.000000 0.000000 0.000000
# 3 0.003157 -0.004126 0.023483 0.000000 0.000000 0.000000
# 4 0.000000 0.000000 0.000000 -0.117249 0.000000 0.000000
# 5 0.000000 0.000000 0.000000 0.000000 0.078098 0.000000
# 6 0.000000 0.000000 0.000000 0.000000 0.000000 0.065833
#
#
# Mechanical properties :
#
#
# Convention : Reuss Voigt Hill
#
# Bulk Modulus (GPa) = 20.83035 24.96765 22.89900
# Shear Modulus (GPa) = 52.60505 17.61989 35.11247
#
# Velocity S-wave (km/s) = 5.22239 3.02244 4.26665
# Velocity P-wave (km/s) = 6.86762 5.01247 6.01203
#
# Compressibility (1/GPa) = 0.04800688
#
# Stress axis : x y z
#
# Youngs Moduli (GPa) = 62.15790 94.22009 42.58369
#
# Poissons Ratio (x) = 0.01125 -0.13443
# Poissons Ratio (y) = 0.00742 0.17572
# Poissons Ratio (z) = -0.19623 0.38879
#
# Static dielectric constant tensor:
#      x y z
#    x 1.771960 0.000000 0.000000 
#    y 0.000000 1.656880 0.000000 
#    z 0.000000 0.000000 1.664970 
# 
# From -- ./inp_files/30859.got.cif
#   From: 2010.05.17/outbox.cif.g08.bks.cpg/sg67_16_cif.got.tgz:30859.got - 2010.06.03 18:28:57.
