data_PCOD9501837
_publ_section_title
;
Structure prediction by ZEFSAII (Michael W. Deem and Ramdas Pophale) SiO2 
 PCOD9501837
Probable space group: C M M A
;
_chemical_formula_sum "Si O2"
_cell_formula_units_Z 112
_cell_length_a 15.067634
_cell_length_b 31.119789
_cell_length_c 11.624794
_cell_angle_alpha 90.000000
_cell_angle_beta 90.000000
_cell_angle_gamma 90.000000
_cell_volume 5450.884399
_symmetry_space_group_name_H-M "C M M A"
_symmetry_group_IT_number 67
_symmetry_cell_setting 'orthorhombic'
loop_
_space_group_symop_operation_xyz
x,y,z
-x,1/2-y,z
x,-y,-z
-x,1/2+y,-z
-x,-y,-z
x,1/2+y,-z
-x,y,z
x,1/2-y,z
1/2+x,1/2+y,z
1/2-x,-y,z
1/2+x,1/2-y,-z
1/2-x,y,-z
1/2-x,1/2-y,-z
1/2+x,y,-z
1/2-x,1/2+y,z
1/2+x,-y,z
loop_
_atom_site_type_symbol
_atom_site_label
_atom_site_fract_x
_atom_site_fract_y
_atom_site_fract_z
Si Si1 0.391477 0.538682 0.417030
Si Si2 0.754836 0.698701 0.868488
Si Si3 0.394077 0.801167 0.323378
Si Si4 0.396704 0.143258 0.224336
Si Si5 0.892184 0.629629 0.487303
Si Si6 0.845678 0.930651 0.046459
Si Si7 0.397561 0.984155 0.161979
O O1 0.363157 0.500000 0.500000
O O2 0.500000 0.539237 0.419551
O O3 0.360399 0.585012 0.458870
O O4 0.365693 0.530647 0.285854
O O5 0.758742 0.750000 0.871264
O O6 0.837918 0.684882 0.788995
O O7 0.665296 0.682337 0.811011
O O8 0.750000 0.683296 0.000000
O O9 0.500000 0.807082 0.304572
O O10 0.379445 0.750000 0.343403
O O11 0.366054 0.830024 0.432885
O O12 0.500000 0.154849 0.227054
O O13 0.368049 0.130671 0.353384
O O14 0.383973 0.105212 0.131158
O O15 0.000000 0.629251 0.489792
O O16 0.842475 0.975218 0.117443
O O17 0.750000 0.917569 0.000000
O O18 0.896354 0.945864 0.931172
O O19 0.500000 0.999391 0.171417
#
# Coordination Sequence:
#
# PCOD9501837 Si02
#       7
#    16  16  16  16  16  16  16
#     4   9  17  30  51  80 113 147 186 238 295 352
#     4  10  23  42  62  89 121 153 196 245 297 361
#     4   9  19  39  66  92 121 157 195 242 300 361
#     4  11  23  39  60  86 119 158 198 247 303 357
#     4   9  19  35  57  88 121 155 201 249 297 362
#     4  11  22  37  55  78 113 151 194 246 297 351
#     4  10  19  34  58  82 106 145 195 242 294 359
#
# _framework density 20.547125000000001
#
# number of rings (size 3 to 8) (size 9 to 14) (size 15 to 20)
#    0.000    2.143    0.000    3.857    0.000    6.571 
#    0.000    5.714    0.000    5.143    0.000    0.000 
#    0.000    0.000    0.000    0.000    0.000    0.000 
#
# Total GULP energy -312659.646683 kJ/mol
# GULP energy per Si atom -5583.207976 kJ/mol
# Density = 2.050036 g / cm^3
# Si number density = 20.547125 Si / 1000 Ang^3
#
#
#
# Elastic Constant Matrix: (Units=GPa)
#
#
# Indices 1 2 3 4 5 6 
#
# 1 60.9165 19.9265 31.6285 0.0000 0.0000 0.0000
# 2 19.9265 43.2154 44.6561 0.0000 0.0000 0.0000
# 3 31.6285 44.6561 175.6653 0.0000 0.0000 0.0000
# 4 0.0000 0.0000 0.0000 24.7787 0.0000 0.0000
# 5 0.0000 0.0000 0.0000 0.0000 71.3136 0.0000
# 6 0.0000 0.0000 0.0000 0.0000 0.0000 19.5670
#
#
#
# Elastic Compliance Matrix: (Units=1/GPa)
#
#
# Indices 1 2 3 4 5 6 
#
# 1 0.019690 -0.007345 -0.001678 0.000000 0.000000 0.000000
# 2 -0.007345 0.034124 -0.007352 0.000000 0.000000 0.000000
# 3 -0.001678 -0.007352 0.007864 0.000000 0.000000 0.000000
# 4 0.000000 0.000000 0.000000 0.040357 0.000000 0.000000
# 5 0.000000 0.000000 0.000000 0.000000 0.014023 0.000000
# 6 0.000000 0.000000 0.000000 0.000000 0.000000 0.051106
#
#
# Mechanical properties :
#
#
# Convention : Reuss Voigt Hill
#
# Bulk Modulus (GPa) = 34.56955 52.46880 43.51917
# Shear Modulus (GPa) = 23.85991 35.37093 29.61542
#
# Velocity S-wave (km/s) = 3.41138 4.15354 3.80062
# Velocity P-wave (km/s) = 5.69014 6.97093 6.36284
#
# Compressibility (1/GPa) = 0.02892719
#
# Stress axis : x y z
#
# Youngs Moduli (GPa) = 50.78781 29.30487 127.16518
#
# Poissons Ratio (x) = 0.21524 0.21338
# Poissons Ratio (y) = 0.37304 0.93495
# Poissons Ratio (z) = 0.08522 0.21546
#
# Static dielectric constant tensor:
#      x y z
#    x 1.753920 0.000000 0.000000 
#    y 0.000000 1.703700 0.000000 
#    z 0.000000 0.000000 1.738390 
# 
# From -- ./inp_files/18640.got.cif
#   From: 2010.05.17/outbox.cif.g08.bks.cpg/sg67_10_cif.got.tgz:18640.got - 2010.06.03 18:28:57.
