data_PCOD9501598
_publ_section_title
;
Structure prediction by ZEFSAII (Michael W. Deem and Ramdas Pophale) SiO2 
 PCOD9501598
Probable space group: C M M A
;
_chemical_formula_sum "Si O2"
_cell_formula_units_Z 104
_cell_length_a 8.525093
_cell_length_b 27.077982
_cell_length_c 23.173888
_cell_angle_alpha 90.000000
_cell_angle_beta 90.000000
_cell_angle_gamma 90.000000
_cell_volume 5349.513949
_symmetry_space_group_name_H-M "C M M A"
_symmetry_group_IT_number 67
_symmetry_cell_setting 'orthorhombic'
loop_
_space_group_symop_operation_xyz
x,y,z
-x,1/2-y,z
x,-y,-z
-x,1/2+y,-z
-x,-y,-z
x,1/2+y,-z
-x,y,z
x,1/2-y,z
1/2+x,1/2+y,z
1/2-x,-y,z
1/2+x,1/2-y,-z
1/2-x,y,-z
1/2-x,1/2-y,-z
1/2+x,y,-z
1/2-x,1/2+y,z
1/2+x,-y,z
loop_
_atom_site_type_symbol
_atom_site_label
_atom_site_fract_x
_atom_site_fract_y
_atom_site_fract_z
Si Si1 0.186982 0.903960 0.562542
Si Si2 0.189616 0.750000 0.935503
Si Si3 0.687241 0.695143 0.617450
Si Si4 0.810895 0.945753 0.934539
Si Si5 0.310508 0.845160 0.265150
Si Si6 0.691255 0.152830 0.866505
Si Si7 0.187471 0.051203 0.319777
O O1 0.250000 0.917158 0.500000
O O2 0.235497 0.848480 0.580625
O O3 0.246469 0.938036 0.615146
O O4 0.000000 0.906571 0.561612
O O5 0.241861 0.699765 0.904073
O O6 0.000000 0.750000 0.934803
O O7 0.250000 0.750000 0.000000
O O8 0.500000 0.690829 0.612522
O O9 0.735645 0.750000 0.598822
O O10 0.735640 0.687362 0.684320
O O11 0.760235 0.899697 0.894249
O O12 0.000000 0.947104 0.935638
O O13 0.750000 0.000000 0.915959
O O14 0.750000 0.937624 0.000000
O O15 0.500000 0.839185 0.268770
O O16 0.259840 0.837808 0.199508
O O17 0.270716 0.901447 0.282086
O O18 0.500000 0.151791 0.866076
O O19 0.000000 0.049021 0.321839
O O20 0.250000 0.000000 0.296935
#
# Coordination Sequence:
#
# PCOD9501598 Si02
#       7
#    16   8  16  16  16  16  16
#     4  10  21  37  56  80 108 140 181 224 265 317
#     4  10  20  36  56  80 108 144 181 222 275 326
#     4  10  21  36  54  78 108 140 174 217 268 320
#     4  10  19  33  52  76 105 138 177 222 268 323
#     4   9  19  36  55  78 104 136 179 222 261 316
#     4   9  19  34  55  80 106 138 182 225 267 325
#     4   9  19  34  53  77 106 139 176 215 263 316
#
# _framework density 19.441016999999999
#
# number of rings (size 3 to 8) (size 9 to 14) (size 15 to 20)
#    0.000    2.462    0.000    3.231    1.077    5.538 
#    0.000    4.615    0.000    0.000    0.000    0.000 
#    0.000    0.000    0.000    0.000    0.000    0.000 
#
# Total GULP energy -290169.206506 kJ/mol
# GULP energy per Si atom -5580.177048 kJ/mol
# Density = 1.939677 g / cm^3
# Si number density = 19.441017 Si / 1000 Ang^3
#
#
#
# Elastic Constant Matrix: (Units=GPa)
#
#
# Indices 1 2 3 4 5 6 
#
# 1 19.6407 4.3375 2.8493 0.0000 0.0000 0.0000
# 2 4.3375 58.9869 -6.7267 0.0000 0.0000 0.0000
# 3 2.8493 -6.7267 72.4387 0.0000 0.0000 0.0000
# 4 0.0000 0.0000 0.0000 -1.3762 0.0000 0.0000
# 5 0.0000 0.0000 0.0000 0.0000 24.0349 0.0000
# 6 0.0000 0.0000 0.0000 0.0000 0.0000 24.2420
#
#
#
# Elastic Compliance Matrix: (Units=1/GPa)
#
#
# Indices 1 2 3 4 5 6 
#
# 1 0.052177 -0.004114 -0.002434 0.000000 0.000000 0.000000
# 2 -0.004114 0.017459 0.001783 0.000000 0.000000 0.000000
# 3 -0.002434 0.001783 0.014066 0.000000 0.000000 0.000000
# 4 0.000000 0.000000 0.000000 -0.726664 0.000000 0.000000
# 5 0.000000 0.000000 0.000000 0.000000 0.041606 0.000000
# 6 0.000000 0.000000 0.000000 0.000000 0.000000 0.041251
#
#
# Mechanical properties :
#
#
# Convention : Reuss Voigt Hill
#
# Bulk Modulus (GPa) = 13.48250 16.88739 15.18495
# Shear Modulus (GPa) = -9.50839 19.42056 4.95608
#
# Velocity S-wave (km/s) = -2.21394 3.16404 1.59838
# Velocity P-wave (km/s) = 0.64404 4.69612 3.35174
#
# Compressibility (1/GPa) = 0.07417020
#
# Stress axis : x y z
#
# Youngs Moduli (GPa) = 19.16571 57.27774 71.09290
#
# Poissons Ratio (x) = 0.23566 0.17307
# Poissons Ratio (y) = 0.07885 -0.12676
# Poissons Ratio (z) = 0.04666 -0.10213
#
# Static dielectric constant tensor:
#      x y z
#    x 1.670910 0.000000 0.000000 
#    y 0.000000 1.677470 0.000000 
#    z 0.000000 0.000000 1.668130 
# 
# From -- ./inp_files/40983.got.cif
#   From: 2010.05.17/outbox.cif.g08.bks.cpg/sg67_21_cif.got.tgz:40983.got - 2010.06.03 18:28:57.
