data_PCOD9501743
_publ_section_title
;
Structure prediction by ZEFSAII (Michael W. Deem and Ramdas Pophale) SiO2 
 PCOD9501743
Probable space group: C M M A
;
_chemical_formula_sum "Si O2"
_cell_formula_units_Z 116
_cell_length_a 14.689186
_cell_length_b 26.869245
_cell_length_c 12.778035
_cell_angle_alpha 90.000000
_cell_angle_beta 90.000000
_cell_angle_gamma 90.000000
_cell_volume 5043.328612
_symmetry_space_group_name_H-M "C M M A"
_symmetry_group_IT_number 67
_symmetry_cell_setting 'orthorhombic'
loop_
_space_group_symop_operation_xyz
x,y,z
-x,1/2-y,z
x,-y,-z
-x,1/2+y,-z
-x,-y,-z
x,1/2+y,-z
-x,y,z
x,1/2-y,z
1/2+x,1/2+y,z
1/2-x,-y,z
1/2+x,1/2-y,-z
1/2-x,y,-z
1/2-x,1/2-y,-z
1/2+x,y,-z
1/2-x,1/2+y,z
1/2+x,-y,z
loop_
_atom_site_type_symbol
_atom_site_label
_atom_site_fract_x
_atom_site_fract_y
_atom_site_fract_z
Si Si1 0.344677 0.529766 0.598632
Si Si2 0.357393 0.666538 0.362785
Si Si3 0.500000 0.250000 0.700332
Si Si4 0.895610 0.981200 0.167084
Si Si5 0.895390 0.805387 0.201008
Si Si6 0.654476 0.147038 0.409803
Si Si7 0.111697 0.384559 0.956587
Si Si8 0.610138 0.908625 0.184197
O O1 0.388006 0.500000 0.500000
O O2 0.250000 0.500000 0.614185
O O3 0.395240 0.530170 0.709308
O O4 0.330296 0.588027 0.576231
O O5 0.419491 0.706644 0.305419
O O6 0.392378 0.662876 0.482224
O O7 0.250667 0.674383 0.386246
O O8 0.358656 0.617145 0.290828
O O9 0.857522 0.936139 0.098070
O O10 0.000000 0.986984 0.130674
O O11 0.852941 0.035895 0.163901
O O12 0.856602 0.750000 0.215956
O O13 0.898014 0.837708 0.306338
O O14 0.851324 0.839156 0.111917
O O15 0.000000 0.799121 0.168746
O O16 0.000000 0.385543 0.950457
O O17 0.134121 0.379788 0.078238
O O18 0.500000 0.911190 0.192213
#
# Coordination Sequence:
#
# PCOD9501743 Si02
#       8
#    16  16   4  16  16  16  16  16
#     4  11  21  37  60  89 128 175 211 253 325 401
#     4  11  25  44  62  97 122 166 210 267 325 384
#     4  12  28  46  68  96 130 160 230 270 318 400
#     4  10  19  33  58  92 126 163 217 268 324 392
#     4  10  22  39  63  93 125 169 222 274 322 381
#     4  11  24  41  69  91 133 169 208 263 328 392
#     4   9  18  36  59  91 122 168 219 270 325 385
#     4  10  19  37  62  89 129 170 213 269 331 391
#
# _framework density 23.000682000000001
#
# number of rings (size 3 to 8) (size 9 to 14) (size 15 to 20)
#    0.000    1.655    2.069    3.724    2.897    2.483 
#    1.241    0.690    0.000    1.655    0.000    0.000 
#    0.000    0.000    0.000    0.000    0.000    0.000 
#
# Total GULP energy -323129.150322 kJ/mol
# GULP energy per Si atom -5571.192247 kJ/mol
# Density = 2.294833 g / cm^3
# Si number density = 23.000682 Si / 1000 Ang^3
#
#
#
# Elastic Constant Matrix: (Units=GPa)
#
#
# Indices 1 2 3 4 5 6 
#
# 1 65.6726 12.7933 2.3744 0.0000 0.0000 0.0000
# 2 12.7933 108.6851 16.7094 0.0000 0.0000 0.0000
# 3 2.3744 16.7094 123.2140 0.0000 0.0000 0.0000
# 4 0.0000 0.0000 0.0000 -3.2984 0.0000 0.0000
# 5 0.0000 0.0000 0.0000 0.0000 27.3745 0.0000
# 6 0.0000 0.0000 0.0000 0.0000 0.0000 11.7556
#
#
#
# Elastic Compliance Matrix: (Units=1/GPa)
#
#
# Indices 1 2 3 4 5 6 
#
# 1 0.015585 -0.001826 -0.000053 0.000000 0.000000 0.000000
# 2 -0.001826 0.009611 -0.001268 0.000000 0.000000 0.000000
# 3 -0.000053 -0.001268 0.008289 0.000000 0.000000 0.000000
# 4 0.000000 0.000000 0.000000 -0.303176 0.000000 0.000000
# 5 0.000000 0.000000 0.000000 0.000000 0.036530 0.000000
# 6 0.000000 0.000000 0.000000 0.000000 0.000000 0.085066
#
#
# Mechanical properties :
#
#
# Convention : Reuss Voigt Hill
#
# Bulk Modulus (GPa) = 36.77799 40.14730 38.46265
# Shear Modulus (GPa) = -37.66822 24.87931 -6.39445
#
# Velocity S-wave (km/s) = -4.05124 3.29245 -1.66918
# Velocity P-wave (km/s) = 2.42048 5.65211 3.61162
#
# Compressibility (1/GPa) = 0.02719018
#
# Stress axis : x y z
#
# Youngs Moduli (GPa) = 64.16534 104.04909 120.64249
#
# Poissons Ratio (x) = 0.19003 0.00635
# Poissons Ratio (y) = 0.11719 0.15299
# Poissons Ratio (z) = 0.00338 0.13195
#
# Static dielectric constant tensor:
#      x y z
#    x 1.949750 0.000000 0.000000 
#    y 0.000000 1.879490 0.000000 
#    z 0.000000 0.000000 1.861630 
# 
# From -- ./inp_files/19988.got.cif
#   From: 2010.05.17/outbox.cif.g08.bks.cpg/sg67_10_cif.got.tgz:19988.got - 2010.06.03 18:28:57.
