data_PCOD9501210
_publ_section_title
;
Structure prediction by ZEFSAII (Michael W. Deem and Ramdas Pophale) SiO2 
 PCOD9501210
Probable space group: C M M A
;
_chemical_formula_sum "Si O2"
_cell_formula_units_Z 104
_cell_length_a 9.551545
_cell_length_b 31.539629
_cell_length_c 19.961246
_cell_angle_alpha 90.000000
_cell_angle_beta 90.000000
_cell_angle_gamma 90.000000
_cell_volume 6013.368986
_symmetry_space_group_name_H-M "C M M A"
_symmetry_group_IT_number 67
_symmetry_cell_setting 'orthorhombic'
loop_
_space_group_symop_operation_xyz
x,y,z
-x,1/2-y,z
x,-y,-z
-x,1/2+y,-z
-x,-y,-z
x,1/2+y,-z
-x,y,z
x,1/2-y,z
1/2+x,1/2+y,z
1/2-x,-y,z
1/2+x,1/2-y,-z
1/2-x,y,-z
1/2-x,1/2-y,-z
1/2+x,y,-z
1/2-x,1/2+y,z
1/2+x,-y,z
loop_
_atom_site_type_symbol
_atom_site_label
_atom_site_fract_x
_atom_site_fract_y
_atom_site_fract_z
Si Si1 0.341973 0.634108 0.880239
Si Si2 0.847738 0.080532 0.742680
Si Si3 0.337090 0.146851 0.677620
Si Si4 0.166606 0.299585 0.569793
Si Si5 0.750000 0.500000 0.820627
Si Si6 0.340092 0.299727 0.815525
Si Si7 0.160010 0.939845 0.938301
O O1 0.500000 0.636528 0.907512
O O2 0.351701 0.610205 0.808606
O O3 0.270467 0.678859 0.865175
O O4 0.236563 0.604127 0.920451
O O5 0.726717 0.101034 0.697508
O O6 0.825533 0.033614 0.772327
O O7 0.000000 0.083404 0.709219
O O8 0.500000 0.144117 0.657229
O O9 0.240306 0.169740 0.623036
O O10 0.331397 0.176047 0.744444
O O11 0.181343 0.250000 0.590760
O O12 0.250000 0.304021 0.500000
O O13 0.000000 0.307901 0.562517
O O14 0.834534 0.529767 0.872959
O O15 0.500000 0.306023 0.839914
O O16 0.315737 0.250000 0.806298
O O17 0.000000 0.934311 0.958211
O O18 0.250000 0.956871 0.000000
#
# Coordination Sequence:
#
# PCOD9501210 Si02
#       7
#    16  16  16  16   8  16  16
#     4   9  18  32  48  68  95 126 162 202 244 291
#     4   9  18  32  49  70  98 130 163 202 247 293
#     4  10  19  31  48  72 102 135 170 205 245 294
#     4  10  20  33  50  73 103 139 176 213 251 290
#     4  10  21  34  54  78 101 128 162 202 244 292
#     4   9  17  29  47  71  98 129 164 203 247 293
#     4  11  22  35  52  73  99 130 162 197 241 295
#
# _framework density 17.294796000000002
#
# number of rings (size 3 to 8) (size 9 to 14) (size 15 to 20)
#    0.000    2.308    0.000    3.000    0.000    9.231 
#    0.000    0.000    0.000    0.462    0.000    0.538 
#    0.000    3.692    0.000    0.000    0.000    0.000 
#
# Total GULP energy -289714.404923 kJ/mol
# GULP energy per Si atom -5571.430864 kJ/mol
# Density = 1.725543 g / cm^3
# Si number density = 17.294796 Si / 1000 Ang^3
#
#
#
# Elastic Constant Matrix: (Units=GPa)
#
#
# Indices 1 2 3 4 5 6 
#
# 1 161.1605 55.6908 44.1793 0.0000 0.0000 0.0000
# 2 55.6908 86.7522 24.1255 0.0000 0.0000 0.0000
# 3 44.1793 24.1255 43.7352 0.0000 0.0000 0.0000
# 4 0.0000 0.0000 0.0000 20.2877 0.0000 0.0000
# 5 0.0000 0.0000 0.0000 0.0000 23.2995 0.0000
# 6 0.0000 0.0000 0.0000 0.0000 0.0000 -185.6998
#
#
#
# Elastic Compliance Matrix: (Units=1/GPa)
#
#
# Indices 1 2 3 4 5 6 
#
# 1 0.009692 -0.004133 -0.007511 0.000000 0.000000 0.000000
# 2 -0.004133 0.015378 -0.004308 0.000000 0.000000 0.000000
# 3 -0.007511 -0.004308 0.032828 0.000000 0.000000 0.000000
# 4 0.000000 0.000000 0.000000 0.049291 0.000000 0.000000
# 5 0.000000 0.000000 0.000000 0.000000 0.042919 0.000000
# 6 0.000000 0.000000 0.000000 0.000000 0.000000 -0.005385
#
#
# Mechanical properties :
#
#
# Convention : Reuss Voigt Hill
#
# Bulk Modulus (GPa) = 38.46864 59.95989 49.21427
# Shear Modulus (GPa) = 26.98434 -17.24570 4.86932
#
# Velocity S-wave (km/s) = 3.95429 -3.16121 1.67976
# Velocity P-wave (km/s) = 6.56809 4.62820 5.68155
#
# Compressibility (1/GPa) = 0.02599520
#
# Stress axis : x y z
#
# Youngs Moduli (GPa) = 103.17582 65.02600 30.46169
#
# Poissons Ratio (x) = 0.26877 0.22879
# Poissons Ratio (y) = 0.42645 0.13123
# Poissons Ratio (z) = 0.77491 0.28013
#
# Static dielectric constant tensor:
#      x y z
#    x 1.629490 0.000000 0.000000 
#    y 0.000000 1.590350 0.000000 
#    z 0.000000 0.000000 1.597960 
# 
# From -- ./inp_files/37542.got.cif
#   From: 2010.05.17/outbox.cif.g08.bks.cpg/sg67_19_cif.got.tgz:37542.got - 2010.06.03 18:28:57.
