data_PCOD9501045
_publ_section_title
;
Structure prediction by ZEFSAII (Michael W. Deem and Ramdas Pophale) SiO2 
 PCOD9501045
Probable space group: C M M A
;
_chemical_formula_sum "Si O2"
_cell_formula_units_Z 128
_cell_length_a 14.492741
_cell_length_b 19.010424
_cell_length_c 22.320651
_cell_angle_alpha 90.000000
_cell_angle_beta 90.000000
_cell_angle_gamma 90.000000
_cell_volume 6149.632897
_symmetry_space_group_name_H-M "C M M A"
_symmetry_group_IT_number 67
_symmetry_cell_setting 'orthorhombic'
loop_
_space_group_symop_operation_xyz
x,y,z
-x,1/2-y,z
x,-y,-z
-x,1/2+y,-z
-x,-y,-z
x,1/2+y,-z
-x,y,z
x,1/2-y,z
1/2+x,1/2+y,z
1/2-x,-y,z
1/2+x,1/2-y,-z
1/2-x,y,-z
1/2-x,1/2-y,-z
1/2+x,y,-z
1/2-x,1/2+y,z
1/2+x,-y,z
loop_
_atom_site_type_symbol
_atom_site_label
_atom_site_fract_x
_atom_site_fract_y
_atom_site_fract_z
Si Si1 0.112709 0.332065 0.037763
Si Si2 0.645132 0.468953 0.560639
Si Si3 0.889480 0.930971 0.196665
Si Si4 0.283540 0.667821 0.389751
Si Si5 0.887291 0.169090 0.905456
Si Si6 0.164113 0.052375 0.667176
Si Si7 0.386734 0.582945 0.153770
Si Si8 0.105327 0.169692 0.266267
O O1 0.139525 0.250000 0.045310
O O2 0.144072 0.379986 0.092798
O O3 0.000000 0.332652 0.038446
O O4 0.141335 0.357352 0.971433
O O5 0.603376 0.500000 0.500000
O O6 0.750000 0.500000 0.560643
O O7 0.659902 0.384743 0.565721
O O8 0.605567 0.503412 0.621471
O O9 0.853395 0.870163 0.153416
O O10 0.869982 0.927577 0.267241
O O11 0.000000 0.929986 0.192624
O O12 0.859538 0.003230 0.165295
O O13 0.270563 0.750000 0.407975
O O14 0.193655 0.622339 0.370107
O O15 0.340525 0.667647 0.327939
O O16 0.860431 0.250000 0.902498
O O17 0.000000 0.166454 0.905289
O O18 0.250000 0.000000 0.680290
O O19 0.500000 0.586734 0.153617
O O20 0.355085 0.623281 0.213357
O O21 0.103709 0.250000 0.244700
O O22 0.000000 0.147344 0.278078
#
# Coordination Sequence:
#
# PCOD9501045 Si02
#       8
#    16  16  16  16  16  16  16  16
#     4   8  13  22  36  55  83 114 140 177 230 274
#     4   8  15  30  48  66  92 120 142 175 226 266
#     4  10  19  29  44  65  88 117 151 185 221 266
#     4   9  17  29  48  72  92 117 155 187 211 256
#     4   8  15  27  40  56  81 113 147 183 227 272
#     4   9  18  32  47  65  92 120 144 179 225 265
#     4   9  15  22  36  61  88 112 143 182 223 268
#     4   9  16  26  42  67  98 124 144 175 223 270
#
# _framework density 20.814250999999999
#
# number of rings (size 3 to 8) (size 9 to 14) (size 15 to 20)
#    0.000    3.500    0.000    2.625    0.000    2.500 
#    0.000    7.500    0.000    1.500    0.000    6.125 
#    0.000   10.000    0.000    0.000    0.000    0.000 
#
# Total GULP energy -356488.488686 kJ/mol
# GULP energy per Si atom -5570.132636 kJ/mol
# Density = 2.076688 g / cm^3
# Si number density = 20.814251 Si / 1000 Ang^3
#
#
#
# Elastic Constant Matrix: (Units=GPa)
#
#
# Indices 1 2 3 4 5 6 
#
# 1 44.4783 5.4247 4.4966 0.0000 0.0000 0.0000
# 2 5.4247 122.7522 59.4367 0.0000 0.0000 0.0000
# 3 4.4966 59.4367 122.6306 0.0000 0.0000 0.0000
# 4 0.0000 0.0000 0.0000 26.1816 0.0000 0.0000
# 5 0.0000 0.0000 0.0000 0.0000 32.8108 0.0000
# 6 0.0000 0.0000 0.0000 0.0000 0.0000 0.4650
#
#
#
# Elastic Compliance Matrix: (Units=1/GPa)
#
#
# Indices 1 2 3 4 5 6 
#
# 1 0.022624 -0.000782 -0.000451 0.000000 0.000000 0.000000
# 2 -0.000782 0.010672 -0.005144 0.000000 0.000000 0.000000
# 3 -0.000451 -0.005144 0.010664 0.000000 0.000000 0.000000
# 4 0.000000 0.000000 0.000000 0.038195 0.000000 0.000000
# 5 0.000000 0.000000 0.000000 0.000000 0.030478 0.000000
# 6 0.000000 0.000000 0.000000 0.000000 0.000000 2.150440
#
#
# Mechanical properties :
#
#
# Convention : Reuss Voigt Hill
#
# Bulk Modulus (GPa) = 32.04349 47.61966 39.83158
# Shear Modulus (GPa) = 2.18701 26.59169 14.38935
#
# Velocity S-wave (km/s) = 1.02616 3.57819 2.63215
# Velocity P-wave (km/s) = 4.10273 6.32450 5.33065
#
# Compressibility (1/GPa) = 0.03120758
#
# Stress axis : x y z
#
# Youngs Moduli (GPa) = 44.20132 93.70667 93.77228
#
# Poissons Ratio (x) = 0.07323 0.04227
# Poissons Ratio (y) = 0.03454 0.48233
# Poissons Ratio (z) = 0.01992 0.48200
#
# Static dielectric constant tensor:
#      x y z
#    x 1.849500 0.000000 0.000000 
#    y 0.000000 1.810850 0.000000 
#    z 0.000000 0.000000 1.781930 
# 
# From -- ./inp_files/39409.got.cif
#   From: 2010.05.17/outbox.cif.g08.bks.cpg/sg67_20_cif.got.tgz:39409.got - 2010.06.03 18:28:57.
