data_PCOD9501485
_publ_section_title
;
Structure prediction by ZEFSAII (Michael W. Deem and Ramdas Pophale) SiO2 
 PCOD9501485
Probable space group: C M M A
;
_chemical_formula_sum "Si O2"
_cell_formula_units_Z 96
_cell_length_a 15.970393
_cell_length_b 17.481050
_cell_length_c 17.717747
_cell_angle_alpha 90.000000
_cell_angle_beta 90.000000
_cell_angle_gamma 90.000000
_cell_volume 4946.427116
_symmetry_space_group_name_H-M "C M M A"
_symmetry_group_IT_number 67
_symmetry_cell_setting 'orthorhombic'
loop_
_space_group_symop_operation_xyz
x,y,z
-x,1/2-y,z
x,-y,-z
-x,1/2+y,-z
-x,-y,-z
x,1/2+y,-z
-x,y,z
x,1/2-y,z
1/2+x,1/2+y,z
1/2-x,-y,z
1/2+x,1/2-y,-z
1/2-x,y,-z
1/2-x,1/2-y,-z
1/2+x,y,-z
1/2-x,1/2+y,z
1/2+x,-y,z
loop_
_atom_site_type_symbol
_atom_site_label
_atom_site_fract_x
_atom_site_fract_y
_atom_site_fract_z
Si Si1 0.153972 0.660585 0.668645
Si Si2 0.752816 0.662524 0.911037
Si Si3 0.141859 0.838749 0.340003
Si Si4 0.663820 0.046609 0.801028
Si Si5 0.152631 0.343139 0.497773
Si Si6 0.908397 0.890986 0.176691
O O1 0.131590 0.750000 0.684596
O O2 0.256283 0.659334 0.663923
O O3 0.132446 0.598630 0.731941
O O4 0.119990 0.638229 0.585528
O O5 0.779340 0.750000 0.898897
O O6 0.811795 0.604054 0.867541
O O7 0.662846 0.650329 0.871581
O O8 0.750000 0.647382 0.000000
O O9 0.116941 0.750000 0.336048
O O10 0.115088 0.869594 0.422431
O O11 0.106849 0.877429 0.265726
O O12 0.750000 0.000000 0.779622
O O13 0.602459 0.981845 0.831045
O O14 0.152290 0.250000 0.500740
O O15 0.250000 0.367344 0.500000
O O16 0.000000 0.864205 0.155249
#
# Coordination Sequence:
#
# PCOD9501485 Si02
#       6
#    16  16  16  16  16  16
#     4   9  14  26  50  76 101 137 187 238 273 306
#     4  10  21  39  63  87 107 133 176 229 276 317
#     4   9  15  27  48  76 107 139 181 231 277 314
#     4  10  19  32  52  77 110 146 181 220 265 323
#     4   7  12  21  40  71 103 133 174 231 280 308
#     4  11  23  36  54  82 118 152 177 210 268 336
#
# _framework density 19.407948000000001
#
# number of rings (size 3 to 8) (size 9 to 14) (size 15 to 20)
#    0.000    2.667    3.333    3.000    0.000    4.333 
#    0.000    2.500    0.000    5.000    0.000    2.333 
#    0.000    0.000    0.000    0.000    0.000    0.000 
#
# Total GULP energy -267454.434753 kJ/mol
# GULP energy per Si atom -5571.967391 kJ/mol
# Density = 1.936377 g / cm^3
# Si number density = 19.407948 Si / 1000 Ang^3
#
#
#
# Elastic Constant Matrix: (Units=GPa)
#
#
# Indices 1 2 3 4 5 6 
#
# 1 19.4120 -5.4320 8.0175 0.0000 0.0000 0.0000
# 2 -5.4320 64.5355 59.9901 0.0000 0.0000 0.0000
# 3 8.0175 59.9901 117.2180 0.0000 0.0000 0.0000
# 4 0.0000 0.0000 0.0000 -105.9689 0.0000 0.0000
# 5 0.0000 0.0000 0.0000 0.0000 -0.6848 0.0000
# 6 0.0000 0.0000 0.0000 0.0000 0.0000 1.2052
#
#
#
# Elastic Compliance Matrix: (Units=1/GPa)
#
#
# Indices 1 2 3 4 5 6 
#
# 1 0.061819 0.017422 -0.013145 0.000000 0.000000 0.000000
# 2 0.017422 0.034466 -0.018831 0.000000 0.000000 0.000000
# 3 -0.013145 -0.018831 0.019068 0.000000 0.000000 0.000000
# 4 0.000000 0.000000 0.000000 -0.009437 0.000000 0.000000
# 5 0.000000 0.000000 0.000000 0.000000 -1.460267 0.000000
# 6 0.000000 0.000000 0.000000 0.000000 0.000000 0.829769
#
#
# Mechanical properties :
#
#
# Convention : Reuss Voigt Hill
#
# Bulk Modulus (GPa) = 11.59473 36.25739 23.92606
# Shear Modulus (GPa) = -10.71290 -11.85038 -11.28164
#
# Velocity S-wave (km/s) = -2.35199 -2.47370 -2.41361
# Velocity P-wave (km/s) = 1.17838 3.25013 2.14182
#
# Compressibility (1/GPa) = 0.08624605
#
# Stress axis : x y z
#
# Youngs Moduli (GPa) = 16.17630 29.01370 52.44513
#
# Poissons Ratio (x) = -0.50548 0.68937
# Poissons Ratio (y) = -0.28183 0.98759
# Poissons Ratio (z) = 0.21263 0.54636
#
# Static dielectric constant tensor:
#      x y z
#    x 1.697120 0.000000 0.000000 
#    y 0.000000 1.675050 0.000000 
#    z 0.000000 0.000000 1.698360 
# 
# From -- ./inp_files/34242.got.cif
#   From: 2010.05.17/outbox.cif.g08.bks.cpg/sg67_18_cif.got.tgz:34242.got - 2010.06.03 18:28:57.
