data_PCOD9501090
_publ_section_title
;
Structure prediction by ZEFSAII (Michael W. Deem and Ramdas Pophale) SiO2 
 PCOD9501090
Probable space group: C M M A
;
_chemical_formula_sum "Si O2"
_cell_formula_units_Z 96
_cell_length_a 14.002535
_cell_length_b 15.614814
_cell_length_c 19.500482
_cell_angle_alpha 90.000000
_cell_angle_beta 90.000000
_cell_angle_gamma 90.000000
_cell_volume 4263.721489
_symmetry_space_group_name_H-M "C M M A"
_symmetry_group_IT_number 67
_symmetry_cell_setting 'orthorhombic'
loop_
_space_group_symop_operation_xyz
x,y,z
-x,1/2-y,z
x,-y,-z
-x,1/2+y,-z
-x,-y,-z
x,1/2+y,-z
-x,y,z
x,1/2-y,z
1/2+x,1/2+y,z
1/2-x,-y,z
1/2+x,1/2-y,-z
1/2-x,y,-z
1/2-x,1/2-y,-z
1/2+x,y,-z
1/2-x,1/2+y,z
1/2+x,-y,z
loop_
_atom_site_type_symbol
_atom_site_label
_atom_site_fract_x
_atom_site_fract_y
_atom_site_fract_z
Si Si1 0.204271 0.647003 0.252334
Si Si2 0.892003 0.644981 0.812165
Si Si3 0.106296 0.348563 0.470491
Si Si4 0.116610 0.850408 0.963509
Si Si5 0.887793 0.854411 0.111483
Si Si6 0.789712 0.905974 0.397907
O O1 0.199482 0.750000 0.249838
O O2 0.314989 0.620197 0.244201
O O3 0.155397 0.614437 0.182769
O O4 0.165741 0.620235 0.325743
O O5 0.893431 0.750000 0.815073
O O6 0.858994 0.615049 0.888214
O O7 0.000000 0.616722 0.799287
O O8 0.101769 0.250000 0.492680
O O9 0.139504 0.399447 0.537830
O O10 0.193382 0.353580 0.416859
O O11 0.000000 0.373680 0.446049
O O12 0.144480 0.750000 0.962484
O O13 0.000000 0.852405 0.964916
O O14 0.149384 0.886101 0.037169
O O15 0.877048 0.750000 0.109924
O O16 0.000000 0.872888 0.113344
O O17 0.750000 0.000000 0.391958
#
# Coordination Sequence:
#
# PCOD9501090 Si02
#       6
#    16  16  16  16  16  16
#     4  10  19  30  46  70 100 134 173 212 254 306
#     4   8  14  24  39  62  93 127 164 212 267 314
#     4  10  21  40  67  91 108 132 169 213 260 309
#     4   7  10  19  35  57  88 122 158 208 268 317
#     4   8  14  24  39  62  93 127 164 212 267 314
#     4  11  23  38  56  81 116 148 175 211 252 306
#
# _framework density 22.515540999999999
#
# number of rings (size 3 to 8) (size 9 to 14) (size 15 to 20)
#    0.000    3.000    0.000    5.000    0.000    3.333 
#    0.000    6.667    0.000    0.000    0.000    2.333 
#    0.000    4.000    0.000    0.000    0.000    0.000 
#
# Total GULP energy -267715.557812 kJ/mol
# GULP energy per Si atom -5577.407454 kJ/mol
# Density = 2.246429 g / cm^3
# Si number density = 22.515541 Si / 1000 Ang^3
#
#
#
# Elastic Constant Matrix: (Units=GPa)
#
#
# Indices 1 2 3 4 5 6 
#
# 1 35.4877 -2.9336 0.1951 0.0000 0.0000 0.0000
# 2 -2.9336 16.2293 3.6260 0.0000 0.0000 0.0000
# 3 0.1951 3.6260 88.2392 0.0000 0.0000 0.0000
# 4 0.0000 0.0000 0.0000 -3.1429 0.0000 0.0000
# 5 0.0000 0.0000 0.0000 0.0000 17.4906 0.0000
# 6 0.0000 0.0000 0.0000 0.0000 0.0000 -86.0871
#
#
#
# Elastic Compliance Matrix: (Units=1/GPa)
#
#
# Indices 1 2 3 4 5 6 
#
# 1 0.028613 0.005234 -0.000278 0.000000 0.000000 0.000000
# 2 0.005234 0.063145 -0.002606 0.000000 0.000000 0.000000
# 3 -0.000278 -0.002606 0.011441 0.000000 0.000000 0.000000
# 4 0.000000 0.000000 0.000000 -0.318179 0.000000 0.000000
# 5 0.000000 0.000000 0.000000 0.000000 0.057173 0.000000
# 6 0.000000 0.000000 0.000000 0.000000 0.000000 -0.011616
#
#
# Mechanical properties :
#
#
# Convention : Reuss Voigt Hill
#
# Bulk Modulus (GPa) = 9.26801 15.74791 12.50796
# Shear Modulus (GPa) = -36.19096 -5.07662 -20.63379
#
# Velocity S-wave (km/s) = -4.01356 -1.50320 -3.03053
# Velocity P-wave (km/s) = 4.16569 1.99915 2.58422
#
# Compressibility (1/GPa) = 0.10789806
#
# Stress axis : x y z
#
# Youngs Moduli (GPa) = 34.94913 15.83646 87.40832
#
# Poissons Ratio (x) = -0.08289 0.02433
# Poissons Ratio (y) = -0.18293 0.22782
# Poissons Ratio (z) = 0.00973 0.04128
#
# Static dielectric constant tensor:
#      x y z
#    x 1.873210 0.000000 0.000000 
#    y 0.000000 1.870590 0.000000 
#    z 0.000000 0.000000 1.828010 
# 
# From -- ./inp_files/38390.got.cif
#   From: 2010.05.17/outbox.cif.g08.bks.cpg/sg67_20_cif.got.tgz:38390.got - 2010.06.03 18:28:57.
