data_PCOD9501248
_publ_section_title
;
Structure prediction by ZEFSAII (Michael W. Deem and Ramdas Pophale) SiO2 
 PCOD9501248
Probable space group: C M M A
;
_chemical_formula_sum "Si O2"
_cell_formula_units_Z 104
_cell_length_a 29.948341
_cell_length_b 9.503378
_cell_length_c 21.623231
_cell_angle_alpha 90.000000
_cell_angle_beta 90.000000
_cell_angle_gamma 90.000000
_cell_volume 6154.196532
_symmetry_space_group_name_H-M "C M M A"
_symmetry_group_IT_number 67
_symmetry_cell_setting 'orthorhombic'
loop_
_space_group_symop_operation_xyz
x,y,z
-x,1/2-y,z
x,-y,-z
-x,1/2+y,-z
-x,-y,-z
x,1/2+y,-z
-x,y,z
x,1/2-y,z
1/2+x,1/2+y,z
1/2-x,-y,z
1/2+x,1/2-y,-z
1/2-x,y,-z
1/2-x,1/2-y,-z
1/2+x,y,-z
1/2-x,1/2+y,z
1/2+x,-y,z
loop_
_atom_site_type_symbol
_atom_site_label
_atom_site_fract_x
_atom_site_fract_y
_atom_site_fract_z
Si Si1 0.446206 0.250000 0.598309
Si Si2 0.920138 0.411882 0.119637
Si Si3 0.000000 0.917843 0.064114
Si Si4 0.889344 0.905634 0.228769
Si Si5 0.677133 0.416488 0.936736
Si Si6 0.708342 0.415496 0.185705
Si Si7 0.946304 0.455031 0.650878
Si Si8 0.553625 0.250000 0.458727
O O1 0.500000 0.250000 0.591988
O O2 0.435254 0.115157 0.637898
O O3 0.428018 0.250000 0.528077
O O4 0.936092 0.250000 0.119558
O O5 0.956689 0.522842 0.098249
O O6 0.906290 0.465903 0.187196
O O7 0.876230 0.418752 0.076495
O O8 0.000000 0.750000 0.057619
O O9 0.000000 0.000000 0.000000
O O10 0.897373 0.750000 0.199209
O O11 0.835758 0.921027 0.228549
O O12 0.915972 0.905277 0.292806
O O13 0.690348 0.250000 0.938526
O O14 0.697345 0.502307 0.878571
O O15 0.687246 0.500000 0.000000
O O16 0.718068 0.250000 0.174250
O O17 0.750000 0.500000 0.213205
O O18 0.935803 0.380111 0.585720
O O19 0.000000 0.435230 0.662990
O O20 0.500000 0.250000 0.464861
#
# Coordination Sequence:
#
# PCOD9501248 Si02
#       8
#     8  16   8  16  16  16  16   8
#     4   9  18  30  46  74 109 147 187 218 260 288
#     4  10  22  37  53  74 100 137 175 224 268 311
#     4  12  24  38  54  72  98 134 181 226 267 316
#     4  10  21  36  53  76 108 139 177 217 264 315
#     4  10  20  35  56  80 104 131 164 208 265 326
#     4  10  21  38  57  77 103 133 169 217 268 320
#     4  10  19  31  49  76 110 149 183 218 255 308
#     4   9  16  30  50  72 105 149 185 220 252 306
#
# _framework density 16.899037
#
# number of rings (size 3 to 8) (size 9 to 14) (size 15 to 20)
#    0.000    2.000    0.769    3.000    2.154    5.846 
#    0.000    1.538    0.000    0.000    0.000    0.000 
#    0.000    3.692    0.000    0.000    0.000    0.000 
#
# Total GULP energy -289768.135090 kJ/mol
# GULP energy per Si atom -5572.464136 kJ/mol
# Density = 1.686057 g / cm^3
# Si number density = 16.899037 Si / 1000 Ang^3
#
#
#
# Elastic Constant Matrix: (Units=GPa)
#
#
# Indices 1 2 3 4 5 6 
#
# 1 69.7865 41.2542 30.4922 0.0000 0.0000 0.0000
# 2 41.2542 152.2870 24.6558 0.0000 0.0000 0.0000
# 3 30.4922 24.6558 61.1922 0.0000 0.0000 0.0000
# 4 0.0000 0.0000 0.0000 30.8442 0.0000 0.0000
# 5 0.0000 0.0000 0.0000 0.0000 5.9281 0.0000
# 6 0.0000 0.0000 0.0000 0.0000 0.0000 23.9098
#
#
#
# Elastic Compliance Matrix: (Units=1/GPa)
#
#
# Indices 1 2 3 4 5 6 
#
# 1 0.020535 -0.004179 -0.008549 0.000000 0.000000 0.000000
# 2 -0.004179 0.007875 -0.001091 0.000000 0.000000 0.000000
# 3 -0.008549 -0.001091 0.021041 0.000000 0.000000 0.000000
# 4 0.000000 0.000000 0.000000 0.032421 0.000000 0.000000
# 5 0.000000 0.000000 0.000000 0.000000 0.168689 0.000000
# 6 0.000000 0.000000 0.000000 0.000000 0.000000 0.041824
#
#
# Mechanical properties :
#
#
# Convention : Reuss Voigt Hill
#
# Bulk Modulus (GPa) = 45.84086 52.89667 49.36876
# Shear Modulus (GPa) = 15.27677 24.59398 19.93537
#
# Velocity S-wave (km/s) = 3.00993 3.81904 3.43837
# Velocity P-wave (km/s) = 6.26616 7.12856 6.71122
#
# Compressibility (1/GPa) = 0.02181460
#
# Stress axis : x y z
#
# Youngs Moduli (GPa) = 48.69729 126.98126 47.52540
#
# Poissons Ratio (x) = 0.53063 0.40629
# Poissons Ratio (y) = 0.20350 0.05184
# Poissons Ratio (z) = 0.41631 0.13851
#
# Static dielectric constant tensor:
#      x y z
#    x 1.584850 0.000000 0.000000 
#    y 0.000000 1.641590 0.000000 
#    z 0.000000 0.000000 1.567070 
# 
# From -- ./inp_files/42797.got.cif
#   From: 2010.05.17/outbox.cif.g08.bks.cpg/sg67_22_cif.got.tgz:42797.got - 2010.06.03 18:28:57.
