data_PCOD9501199
_publ_section_title
;
Structure prediction by ZEFSAII (Michael W. Deem and Ramdas Pophale) SiO2 
 PCOD9501199
Probable space group: C M M A
;
_chemical_formula_sum "Si O2"
_cell_formula_units_Z 64
_cell_length_a 14.486881
_cell_length_b 5.417526
_cell_length_c 35.801956
_cell_angle_alpha 90.000000
_cell_angle_beta 90.000000
_cell_angle_gamma 90.000000
_cell_volume 2809.846863
_symmetry_space_group_name_H-M "C M M A"
_symmetry_group_IT_number 67
_symmetry_cell_setting 'orthorhombic'
loop_
_space_group_symop_operation_xyz
x,y,z
-x,1/2-y,z
x,-y,-z
-x,1/2+y,-z
-x,-y,-z
x,1/2+y,-z
-x,y,z
x,1/2-y,z
1/2+x,1/2+y,z
1/2-x,-y,z
1/2+x,1/2-y,-z
1/2-x,y,-z
1/2-x,1/2-y,-z
1/2+x,y,-z
1/2-x,1/2+y,z
1/2+x,-y,z
loop_
_atom_site_type_symbol
_atom_site_label
_atom_site_fract_x
_atom_site_fract_y
_atom_site_fract_z
Si Si1 0.887346 0.750000 0.393052
Si Si2 0.146226 0.250000 0.767956
Si Si3 0.853919 0.750000 0.984200
Si Si4 0.611860 0.250000 0.897508
Si Si5 0.112793 0.250000 0.521233
Si Si6 0.388107 0.250000 0.145401
Si Si7 0.354124 0.750000 0.263639
Si Si8 0.387995 0.250000 0.649539
O O1 0.855438 0.750000 0.435906
O O2 0.859854 0.499649 0.371850
O O3 0.000000 0.750000 0.393791
O O4 0.147975 0.250000 0.812483
O O5 0.250006 0.250000 0.751984
O O6 0.102628 0.500026 0.752250
O O7 0.852419 0.750000 0.939673
O O8 0.897368 0.500000 0.000000
O O9 0.750000 0.750000 0.000000
O O10 0.500000 0.250000 0.899604
O O11 0.639333 0.500039 0.876069
O O12 0.140534 0.500000 0.500000
O O13 0.000000 0.250000 0.521791
O O14 0.500000 0.250000 0.147603
O O15 0.353263 0.750000 0.308166
O O16 0.500000 0.250000 0.651143
#
# Coordination Sequence:
#
# PCOD9501199 Si02
#       8
#     8   8   8   8   8   8   8   8
#     4   9  17  28  42  65  96 132 176 219 261 310
#     4  10  21  38  56  78 107 136 170 215 264 318
#     4  10  21  38  56  83 117 149 185 222 261 307
#     4  10  21  38  60  85 113 144 178 218 262 310
#     4   9  15  23  37  58  88 129 171 209 256 313
#     4  10  21  38  60  85 111 140 176 218 266 320
#     4  10  21  36  52  75 103 137 174 214 266 313
#     4  10  19  31  48  69  97 135 176 217 259 305
#
# _framework density 22.777042000000002
#
# number of rings (size 3 to 8) (size 9 to 14) (size 15 to 20)
#    0.000    2.250    0.000    3.000    0.000    4.500 
#    0.000   15.000    0.000    0.000    0.000    0.000 
#    0.000    0.000    0.000  157.500    0.000   70.000 
#
# Total GULP energy -179036.200652 kJ/mol
# GULP energy per Si atom -5594.881270 kJ/mol
# Density = 2.272520 g / cm^3
# Si number density = 22.777042 Si / 1000 Ang^3
#
#
#
# Elastic Constant Matrix: (Units=GPa)
#
#
# Indices 1 2 3 4 5 6 
#
# 1 100.3216 20.8021 29.4777 0.0000 0.0000 0.0000
# 2 20.8021 299.1901 162.9367 0.0000 0.0000 0.0000
# 3 29.4777 162.9367 292.7615 0.0000 0.0000 0.0000
# 4 0.0000 0.0000 0.0000 51.8317 0.0000 0.0000
# 5 0.0000 0.0000 0.0000 0.0000 34.1569 0.0000
# 6 0.0000 0.0000 0.0000 0.0000 0.0000 -26.4765
#
#
#
# Elastic Compliance Matrix: (Units=1/GPa)
#
#
# Indices 1 2 3 4 5 6 
#
# 1 0.010282 -0.000217 -0.000915 0.000000 0.000000 0.000000
# 2 -0.000217 0.004801 -0.002650 0.000000 0.000000 0.000000
# 3 -0.000915 -0.002650 0.004983 0.000000 0.000000 0.000000
# 4 0.000000 0.000000 0.000000 0.019293 0.000000 0.000000
# 5 0.000000 0.000000 0.000000 0.000000 0.029277 0.000000
# 6 0.000000 0.000000 0.000000 0.000000 0.000000 -0.037769
#
#
# Mechanical properties :
#
#
# Convention : Reuss Voigt Hill
#
# Bulk Modulus (GPa) = 79.98564 124.30068 102.14316
# Shear Modulus (GPa) = 117.38372 43.83955 80.61164
#
# Velocity S-wave (km/s) = 7.18664 4.39193 5.95554
# Velocity P-wave (km/s) = 10.20082 8.96716 9.60382
#
# Compressibility (1/GPa) = 0.01250224
#
# Stress axis : x y z
#
# Youngs Moduli (GPa) = 97.26087 208.30904 200.69611
#
# Poissons Ratio (x) = 0.04516 0.18355
# Poissons Ratio (y) = 0.02108 0.53183
# Poissons Ratio (z) = 0.08895 0.55200
#
# Static dielectric constant tensor:
#      x y z
#    x 1.780420 0.000000 0.000000 
#    y 0.000000 1.794700 0.000000 
#    z 0.000000 0.000000 1.749290 
# 
# From -- ./inp_files/45744.got.cif
#   From: 2010.05.17/outbox.cif.g08.bks.cpg/sg67_23_cif.got.tgz:45744.got - 2010.06.03 18:28:57.
