data_PCOD9501583
_publ_section_title
;
Structure prediction by ZEFSAII (Michael W. Deem and Ramdas Pophale) SiO2 
 PCOD9501583
Probable space group: C M M A
;
_chemical_formula_sum "Si O2"
_cell_formula_units_Z 128
_cell_length_a 17.177300
_cell_length_b 18.287144
_cell_length_c 23.791189
_cell_angle_alpha 90.000000
_cell_angle_beta 90.000000
_cell_angle_gamma 90.000000
_cell_volume 7473.377711
_symmetry_space_group_name_H-M "C M M A"
_symmetry_group_IT_number 67
_symmetry_cell_setting 'orthorhombic'
loop_
_space_group_symop_operation_xyz
x,y,z
-x,1/2-y,z
x,-y,-z
-x,1/2+y,-z
-x,-y,-z
x,1/2+y,-z
-x,y,z
x,1/2-y,z
1/2+x,1/2+y,z
1/2-x,-y,z
1/2+x,1/2-y,-z
1/2-x,y,-z
1/2-x,1/2-y,-z
1/2+x,y,-z
1/2-x,1/2+y,z
1/2+x,-y,z
loop_
_atom_site_type_symbol
_atom_site_label
_atom_site_fract_x
_atom_site_fract_y
_atom_site_fract_z
Si Si1 0.261243 0.412462 0.741795
Si Si2 0.588102 0.577577 0.531667
Si Si3 0.839576 0.335904 0.431464
Si Si4 0.828321 0.167041 0.038295
Si Si5 0.294624 0.577944 0.626142
Si Si6 0.909749 0.661584 0.071924
Si Si7 0.737577 0.587555 0.868559
Si Si8 0.410493 0.662460 0.312255
O O1 0.250000 0.500000 0.746022
O O2 0.204843 0.391970 0.689662
O O3 0.244459 0.385102 0.804357
O O4 0.346232 0.384890 0.721085
O O5 0.590677 0.500000 0.500000
O O6 0.500000 0.602714 0.536441
O O7 0.633410 0.630403 0.489632
O O8 0.626006 0.569644 0.592729
O O9 0.833449 0.250000 0.436777
O O10 0.758857 0.369770 0.411214
O O11 0.897423 0.352126 0.378864
O O12 0.844423 0.250000 0.056106
O O13 0.805641 0.119953 0.091935
O O14 0.750000 0.167390 0.000000
O O15 0.894100 0.143482 0.994001
O O16 0.250000 0.500000 0.627252
O O17 0.895164 0.750000 0.077608
O O18 0.845114 0.616339 0.106737
O O19 0.000000 0.647785 0.086739
O O20 0.750000 0.500000 0.870410
O O21 0.500000 0.646592 0.297094
O O22 0.396489 0.750000 0.303786
#
# Coordination Sequence:
#
# PCOD9501583 Si02
#       8
#    16  16  16  16  16  16  16  16
#     4   9  20  36  51  74 106 146 183 213 255 316
#     4  11  22  33  50  78 104 129 166 212 264 318
#     4  10  20  34  55  78 100 129 164 208 267 325
#     4   8  15  29  50  74  99 132 172 214 259 303
#     4  10  19  36  54  71 100 137 174 217 253 305
#     4   9  18  34  56  81 108 140 180 224 266 311
#     4  10  19  33  51  76 110 145 183 217 258 317
#     4   9  18  34  56  80 103 130 171 225 277 317
#
# _framework density 17.127462999999999
#
# number of rings (size 3 to 8) (size 9 to 14) (size 15 to 20)
#    0.000    2.500    1.250    1.875    0.000    5.000 
#    0.000    5.000    0.000    1.500    0.000    0.000 
#    0.000    0.000    0.000    0.000    0.000    0.000 
#
# Total GULP energy -356373.779476 kJ/mol
# GULP energy per Si atom -5568.340304 kJ/mol
# Density = 1.708848 g / cm^3
# Si number density = 17.127463 Si / 1000 Ang^3
#
#
#
# Elastic Constant Matrix: (Units=GPa)
#
#
# Indices 1 2 3 4 5 6 
#
# 1 49.6130 17.1144 42.5716 0.0000 0.0000 0.0000
# 2 17.1144 47.8336 34.6230 0.0000 0.0000 0.0000
# 3 42.5716 34.6230 133.1970 0.0000 0.0000 0.0000
# 4 0.0000 0.0000 0.0000 33.7707 0.0000 0.0000
# 5 0.0000 0.0000 0.0000 0.0000 35.7234 0.0000
# 6 0.0000 0.0000 0.0000 0.0000 0.0000 21.0911
#
#
#
# Elastic Compliance Matrix: (Units=1/GPa)
#
#
# Indices 1 2 3 4 5 6 
#
# 1 0.028519 -0.004442 -0.007960 0.000000 0.000000 0.000000
# 2 -0.004442 0.026443 -0.005454 0.000000 0.000000 0.000000
# 3 -0.007960 -0.005454 0.011470 0.000000 0.000000 0.000000
# 4 0.000000 0.000000 0.000000 0.029611 0.000000 0.000000
# 5 0.000000 0.000000 0.000000 0.000000 0.027993 0.000000
# 6 0.000000 0.000000 0.000000 0.000000 0.000000 0.047413
#
#
# Mechanical properties :
#
#
# Convention : Reuss Voigt Hill
#
# Bulk Modulus (GPa) = 32.55314 46.58462 39.56888
# Shear Modulus (GPa) = 22.99901 27.20601 25.10251
#
# Velocity S-wave (km/s) = 3.66842 3.98985 3.83251
# Velocity P-wave (km/s) = 6.08200 6.96298 6.53735
#
# Compressibility (1/GPa) = 0.03071900
#
# Stress axis : x y z
#
# Youngs Moduli (GPa) = 35.06443 37.81772 87.18707
#
# Poissons Ratio (x) = 0.16798 0.69405
# Poissons Ratio (y) = 0.15575 0.47550
# Poissons Ratio (z) = 0.27913 0.20625
#
# Static dielectric constant tensor:
#      x y z
#    x 1.578660 0.000000 0.000000 
#    y 0.000000 1.589170 0.000000 
#    z 0.000000 0.000000 1.600720 
# 
# From -- ./inp_files/42261.got.cif
#   From: 2010.05.17/outbox.cif.g08.bks.cpg/sg67_22_cif.got.tgz:42261.got - 2010.06.03 18:28:57.
