data_PCOD9501363
_publ_section_title
;
Structure prediction by ZEFSAII (Michael W. Deem and Ramdas Pophale) SiO2 
 PCOD9501363
Probable space group: C M M A
;
_chemical_formula_sum "Si O2"
_cell_formula_units_Z 116
_cell_length_a 7.688495
_cell_length_b 31.954944
_cell_length_c 23.979066
_cell_angle_alpha 90.000000
_cell_angle_beta 90.000000
_cell_angle_gamma 90.000000
_cell_volume 5891.307073
_symmetry_space_group_name_H-M "C M M A"
_symmetry_group_IT_number 67
_symmetry_cell_setting 'orthorhombic'
loop_
_space_group_symop_operation_xyz
x,y,z
-x,1/2-y,z
x,-y,-z
-x,1/2+y,-z
-x,-y,-z
x,1/2+y,-z
-x,y,z
x,1/2-y,z
1/2+x,1/2+y,z
1/2-x,-y,z
1/2+x,1/2-y,-z
1/2-x,y,-z
1/2-x,1/2-y,-z
1/2+x,y,-z
1/2-x,1/2+y,z
1/2+x,-y,z
loop_
_atom_site_type_symbol
_atom_site_label
_atom_site_fract_x
_atom_site_fract_y
_atom_site_fract_z
Si Si1 0.792689 0.597192 0.063477
Si Si2 0.706583 0.047720 0.169866
Si Si3 0.785303 0.374638 0.361533
Si Si4 0.500000 0.250000 0.109339
Si Si5 0.298126 0.871810 0.235970
Si Si6 0.708757 0.203232 0.564480
Si Si7 0.704367 0.179215 0.872398
Si Si8 0.294630 0.951880 0.435166
O O1 0.735922 0.561975 0.107917
O O2 0.710627 0.640757 0.083957
O O3 0.000000 0.601897 0.068322
O O4 0.750000 0.587243 0.000000
O O5 0.500000 0.052793 0.173098
O O6 0.784820 0.081291 0.212262
O O7 0.750000 0.000000 0.181529
O O8 0.722859 0.370765 0.297939
O O9 0.729229 0.334046 0.396431
O O10 0.724007 0.416572 0.393399
O O11 0.000000 0.375571 0.360971
O O12 0.344426 0.286252 0.110884
O O13 0.500000 0.860631 0.241669
O O14 0.234570 0.840983 0.187057
O O15 0.500000 0.204455 0.569805
O O16 0.775552 0.250000 0.577739
O O17 0.750000 0.194430 0.500000
O O18 0.500000 0.192825 0.868289
O O19 0.500000 0.948898 0.431509
O O20 0.250000 0.943732 0.500000
O O21 0.250000 0.000000 0.421878
#
# Coordination Sequence:
#
# PCOD9501363 Si02
#       8
#    16  16  16   4  16  16  16  16
#     4  10  20  37  61  87 122 161 194 241 293 345
#     4  10  21  36  57  84 116 151 192 236 283 334
#     4   9  18  33  53  78 104 136 179 225 275 336
#     4  12  22  40  66  86 126 146 210 246 290 350
#     4   9  19  37  58  80 110 147 189 233 288 351
#     4   9  17  31  52  74 103 136 172 218 272 330
#     4  10  21  39  64  88 117 160 198 240 300 351
#     4  10  19  32  50  71 103 137 177 224 274 331
#
# _framework density 19.690027000000001
#
# number of rings (size 3 to 8) (size 9 to 14) (size 15 to 20)
#    0.000    2.345    0.690    2.276    0.966    2.483 
#    1.241    5.862    0.000    0.000    0.000    0.000 
#    0.000    0.000    0.000    0.000    0.000    0.000 
#
# Total GULP energy -322988.255053 kJ/mol
# GULP energy per Si atom -5568.763018 kJ/mol
# Density = 1.964521 g / cm^3
# Si number density = 19.690027 Si / 1000 Ang^3
#
#
#
# Elastic Constant Matrix: (Units=GPa)
#
#
# Indices 1 2 3 4 5 6 
#
# 1 63.4362 -5.5820 -12.7009 0.0000 0.0000 0.0000
# 2 -5.5820 36.0136 8.6332 0.0000 0.0000 0.0000
# 3 -12.7009 8.6332 83.8667 0.0000 0.0000 0.0000
# 4 0.0000 0.0000 0.0000 -1.9057 0.0000 0.0000
# 5 0.0000 0.0000 0.0000 0.0000 10.6338 0.0000
# 6 0.0000 0.0000 0.0000 0.0000 0.0000 29.2261
#
#
#
# Elastic Compliance Matrix: (Units=1/GPa)
#
#
# Indices 1 2 3 4 5 6 
#
# 1 0.016395 0.001995 0.002278 0.000000 0.000000 0.000000
# 2 0.001995 0.028713 -0.002654 0.000000 0.000000 0.000000
# 3 0.002278 -0.002654 0.012542 0.000000 0.000000 0.000000
# 4 0.000000 0.000000 0.000000 -0.524746 0.000000 0.000000
# 5 0.000000 0.000000 0.000000 0.000000 0.094040 0.000000
# 6 0.000000 0.000000 0.000000 0.000000 0.000000 0.034216
#
#
# Mechanical properties :
#
#
# Convention : Reuss Voigt Hill
#
# Bulk Modulus (GPa) = 16.42347 18.22413 17.32380
# Shear Modulus (GPa) = -15.53844 20.45524 2.45840
#
# Velocity S-wave (km/s) = -2.81223 3.22664 1.11860
# Velocity P-wave (km/s) = 1.47843 4.81219 3.23816
#
# Compressibility (1/GPa) = 0.06088846
#
# Stress axis : x y z
#
# Youngs Moduli (GPa) = 60.99259 34.82783 79.73370
#
# Poissons Ratio (x) = -0.06949 -0.18160
# Poissons Ratio (y) = -0.12170 0.21157
# Poissons Ratio (z) = -0.13891 0.09242
#
# Static dielectric constant tensor:
#      x y z
#    x 1.725120 0.000000 0.000000 
#    y 0.000000 1.673980 0.000000 
#    z 0.000000 0.000000 1.701470 
# 
# From -- ./inp_files/41233.got.cif
#   From: 2010.05.17/outbox.cif.g08.bks.cpg/sg67_21_cif.got.tgz:41233.got - 2010.06.03 18:28:57.
