data_PCOD9501862
_publ_section_title
;
Structure prediction by ZEFSAII (Michael W. Deem and Ramdas Pophale) SiO2 
 PCOD9501862
Probable space group: C M M A
;
_chemical_formula_sum "Si O2"
_cell_formula_units_Z 96
_cell_length_a 24.598756
_cell_length_b 16.537403
_cell_length_c 12.677363
_cell_angle_alpha 90.000000
_cell_angle_beta 90.000000
_cell_angle_gamma 90.000000
_cell_volume 5157.145453
_symmetry_space_group_name_H-M "C M M A"
_symmetry_group_IT_number 67
_symmetry_cell_setting 'orthorhombic'
loop_
_space_group_symop_operation_xyz
x,y,z
-x,1/2-y,z
x,-y,-z
-x,1/2+y,-z
-x,-y,-z
x,1/2+y,-z
-x,y,z
x,1/2-y,z
1/2+x,1/2+y,z
1/2-x,-y,z
1/2+x,1/2-y,-z
1/2-x,y,-z
1/2-x,1/2-y,-z
1/2+x,y,-z
1/2-x,1/2+y,z
1/2+x,-y,z
loop_
_atom_site_type_symbol
_atom_site_label
_atom_site_fract_x
_atom_site_fract_y
_atom_site_fract_z
Si Si1 0.118303 0.845603 0.972051
Si Si2 0.000000 0.348756 0.714534
Si Si3 0.116038 0.152992 0.635601
Si Si4 0.191833 0.652075 0.552026
Si Si5 0.308791 0.903138 0.209060
Si Si6 0.686781 0.905742 0.832083
Si Si7 0.000000 0.651614 0.038881
O O1 0.118629 0.750000 0.994650
O O2 0.144189 0.861462 0.858503
O O3 0.156557 0.886826 0.059263
O O4 0.056262 0.875191 0.985417
O O5 0.055220 0.376921 0.658704
O O6 0.000000 0.250000 0.713144
O O7 0.000000 0.371978 0.837830
O O8 0.113280 0.250000 0.627782
O O9 0.145314 0.124226 0.529228
O O10 0.153403 0.132847 0.735897
O O11 0.189776 0.750000 0.561919
O O12 0.250000 0.631716 0.500000
O O13 0.186946 0.614650 0.667298
O O14 0.248937 0.875358 0.170483
O O15 0.312127 0.998480 0.187177
O O16 0.000000 0.750000 0.035567
#
# Coordination Sequence:
#
# PCOD9501862 Si02
#       7
#    16   8  16  16  16  16   8
#     4  11  22  38  61  85 112 147 192 240 287 336
#     4   9  16  32  58  86 114 140 188 248 292 318
#     4  10  19  34  60  88 110 142 195 247 279 324
#     4  10  20  36  59  85 112 147 196 237 275 335
#     4  11  24  38  53  83 124 157 179 227 290 351
#     4  11  22  37  56  83 117 153 188 229 283 346
#     4   9  18  34  59  86 108 139 188 244 290 335
#
# _framework density 18.614947999999998
#
# number of rings (size 3 to 8) (size 9 to 14) (size 15 to 20)
#    0.000    1.667    3.333    2.000    0.000    4.667 
#    0.000    3.333    0.000    4.000    0.000    0.000 
#    0.000    0.000    0.000    0.000    0.000    0.000 
#
# Total GULP energy -268088.891573 kJ/mol
# GULP energy per Si atom -5585.185241 kJ/mol
# Density = 1.857258 g / cm^3
# Si number density = 18.614948 Si / 1000 Ang^3
#
#
#
# Elastic Constant Matrix: (Units=GPa)
#
#
# Indices 1 2 3 4 5 6 
#
# 1 179.1435 18.6163 84.5888 0.0000 0.0000 0.0000
# 2 18.6163 13.9685 21.0996 0.0000 0.0000 0.0000
# 3 84.5888 21.0996 140.4152 0.0000 0.0000 0.0000
# 4 0.0000 0.0000 0.0000 -22.7543 0.0000 0.0000
# 5 0.0000 0.0000 0.0000 0.0000 31.2501 0.0000
# 6 0.0000 0.0000 0.0000 0.0000 0.0000 6.1409
#
#
#
# Elastic Compliance Matrix: (Units=1/GPa)
#
#
# Indices 1 2 3 4 5 6 
#
# 1 0.008003 -0.004377 -0.004163 0.000000 0.000000 0.000000
# 2 -0.004377 0.095004 -0.011639 0.000000 0.000000 0.000000
# 3 -0.004163 -0.011639 0.011379 0.000000 0.000000 0.000000
# 4 0.000000 0.000000 0.000000 -0.043948 0.000000 0.000000
# 5 0.000000 0.000000 0.000000 0.000000 0.032000 0.000000
# 6 0.000000 0.000000 0.000000 0.000000 0.000000 0.162844
#
#
# Mechanical properties :
#
#
# Convention : Reuss Voigt Hill
#
# Bulk Modulus (GPa) = 13.50860 64.68183 39.09522
# Shear Modulus (GPa) = 15.13703 16.87548 16.00625
#
# Velocity S-wave (km/s) = 2.85470 3.01417 2.93552
# Velocity P-wave (km/s) = 4.25891 6.85101 5.70415
#
# Compressibility (1/GPa) = 0.07402692
#
# Stress axis : x y z
#
# Youngs Moduli (GPa) = 124.95570 10.52587 87.88272
#
# Poissons Ratio (x) = 0.04607 0.36589
# Poissons Ratio (y) = 0.54691 1.02288
# Poissons Ratio (z) = 0.52024 0.12251
#
# Static dielectric constant tensor:
#      x y z
#    x 1.655750 0.000000 0.000000 
#    y 0.000000 1.646390 0.000000 
#    z 0.000000 0.000000 1.612020 
# 
# From -- ./inp_files/19700.got.cif
#   From: 2010.05.17/outbox.cif.g08.bks.cpg/sg67_10_cif.got.tgz:19700.got - 2010.06.03 18:28:57.
