data_PCOD9501376
_publ_section_title
;
Structure prediction by ZEFSAII (Michael W. Deem and Ramdas Pophale) SiO2 
 PCOD9501376
Probable space group: C M M A
;
_chemical_formula_sum "Si O2"
_cell_formula_units_Z 96
_cell_length_a 28.075838
_cell_length_b 8.659822
_cell_length_c 24.522045
_cell_angle_alpha 90.000000
_cell_angle_beta 90.000000
_cell_angle_gamma 90.000000
_cell_volume 5962.087949
_symmetry_space_group_name_H-M "C M M A"
_symmetry_group_IT_number 67
_symmetry_cell_setting 'orthorhombic'
loop_
_space_group_symop_operation_xyz
x,y,z
-x,1/2-y,z
x,-y,-z
-x,1/2+y,-z
-x,-y,-z
x,1/2+y,-z
-x,y,z
x,1/2-y,z
1/2+x,1/2+y,z
1/2-x,-y,z
1/2+x,1/2-y,-z
1/2-x,y,-z
1/2-x,1/2-y,-z
1/2+x,y,-z
1/2-x,1/2+y,z
1/2+x,-y,z
loop_
_atom_site_type_symbol
_atom_site_label
_atom_site_fract_x
_atom_site_fract_y
_atom_site_fract_z
Si Si1 0.143808 0.564493 0.331625
Si Si2 0.944885 0.936061 0.058591
Si Si3 0.196911 0.935070 0.441649
Si Si4 0.607734 0.435958 0.168186
Si Si5 0.697612 0.934520 0.226824
Si Si6 0.944984 0.435184 0.273132
O O1 0.143952 0.750000 0.326478
O O2 0.163308 0.522245 0.391123
O O3 0.178341 0.495793 0.285097
O O4 0.091531 0.500991 0.317751
O O5 0.944377 0.750000 0.056543
O O6 0.912589 0.984118 0.109515
O O7 0.000000 0.984968 0.067524
O O8 0.929475 0.000000 0.000000
O O9 0.199692 0.750000 0.444713
O O10 0.180659 0.000000 0.500000
O O11 0.250000 0.000000 0.431837
O O12 0.610002 0.250000 0.170513
O O13 0.659058 0.505022 0.183203
O O14 0.572368 0.494420 0.215650
O O15 0.698164 0.750000 0.227419
O O16 0.750000 0.000000 0.216716
O O17 0.939997 0.250000 0.270574
O O18 0.000000 0.473623 0.283430
#
# Coordination Sequence:
#
# PCOD9501376 Si02
#       6
#    16  16  16  16  16  16
#     4  10  20  33  50  73  98 127 161 196 238 284
#     4   9  18  31  48  71  98 128 160 194 234 280
#     4  10  20  32  49  72  97 126 158 193 235 282
#     4  10  19  32  50  72  98 128 161 197 239 284
#     4  11  21  33  50  72  98 128 160 196 239 284
#     4  10  20  32  48  72  99 128 161 197 239 284
#
# _framework density 16.101741000000001
#
# number of rings (size 3 to 8) (size 9 to 14) (size 15 to 20)
#    0.000    2.000    0.000    7.000    0.000    7.333 
#    0.000    1.667    0.000    1.000    0.000    3.500 
#    0.000    0.000    0.000    0.000    0.000    0.000 
#
# Total GULP energy -267920.526994 kJ/mol
# GULP energy per Si atom -5581.677646 kJ/mol
# Density = 1.606509 g / cm^3
# Si number density = 16.101741 Si / 1000 Ang^3
#
#
#
# Elastic Constant Matrix: (Units=GPa)
#
#
# Indices 1 2 3 4 5 6 
#
# 1 135.3394 52.6168 96.7716 0.0000 0.0000 0.0000
# 2 52.6168 72.7214 50.9864 0.0000 0.0000 0.0000
# 3 96.7716 50.9864 155.8667 0.0000 0.0000 0.0000
# 4 0.0000 0.0000 0.0000 25.3812 0.0000 0.0000
# 5 0.0000 0.0000 0.0000 0.0000 20.3080 0.0000
# 6 0.0000 0.0000 0.0000 0.0000 0.0000 24.3446
#
#
#
# Elastic Compliance Matrix: (Units=1/GPa)
#
#
# Indices 1 2 3 4 5 6 
#
# 1 0.014833 -0.005548 -0.007394 0.000000 0.000000 0.000000
# 2 -0.005548 0.019918 -0.003071 0.000000 0.000000 0.000000
# 3 -0.007394 -0.003071 0.012011 0.000000 0.000000 0.000000
# 4 0.000000 0.000000 0.000000 0.039399 0.000000 0.000000
# 5 0.000000 0.000000 0.000000 0.000000 0.049242 0.000000
# 6 0.000000 0.000000 0.000000 0.000000 0.000000 0.041077
#
#
# Mechanical properties :
#
#
# Convention : Reuss Voigt Hill
#
# Bulk Modulus (GPa) = 67.86202 84.96411 76.41307
# Shear Modulus (GPa) = 23.42806 24.91027 24.16917
#
# Velocity S-wave (km/s) = 3.81859 3.93753 3.87851
# Velocity P-wave (km/s) = 7.85362 8.57635 8.22293
#
# Compressibility (1/GPa) = 0.01473578
#
# Stress axis : x y z
#
# Youngs Moduli (GPa) = 67.41762 50.20466 83.25518
#
# Poissons Ratio (x) = 0.27853 0.61562
# Poissons Ratio (y) = 0.37402 0.25569
# Poissons Ratio (z) = 0.49851 0.15419
#
# Static dielectric constant tensor:
#      x y z
#    x 1.526300 0.000000 0.000000 
#    y 0.000000 1.542440 0.000000 
#    z 0.000000 0.000000 1.526040 
# 
# From -- ./inp_files/42697.got.cif
#   From: 2010.05.17/outbox.cif.g08.bks.cpg/sg67_22_cif.got.tgz:42697.got - 2010.06.03 18:28:57.
