data_PCOD9501569
_publ_section_title
;
Structure prediction by ZEFSAII (Michael W. Deem and Ramdas Pophale) SiO2 
 PCOD9501569
Probable space group: C M M A
;
_chemical_formula_sum "Si O2"
_cell_formula_units_Z 104
_cell_length_a 27.865096
_cell_length_b 8.576354
_cell_length_c 24.617776
_cell_angle_alpha 90.000000
_cell_angle_beta 90.000000
_cell_angle_gamma 90.000000
_cell_volume 5883.178942
_symmetry_space_group_name_H-M "C M M A"
_symmetry_group_IT_number 67
_symmetry_cell_setting 'orthorhombic'
loop_
_space_group_symop_operation_xyz
x,y,z
-x,1/2-y,z
x,-y,-z
-x,1/2+y,-z
-x,-y,-z
x,1/2+y,-z
-x,y,z
x,1/2-y,z
1/2+x,1/2+y,z
1/2-x,-y,z
1/2+x,1/2-y,-z
1/2-x,y,-z
1/2-x,1/2-y,-z
1/2+x,y,-z
1/2-x,1/2+y,z
1/2+x,-y,z
loop_
_atom_site_type_symbol
_atom_site_label
_atom_site_fract_x
_atom_site_fract_y
_atom_site_fract_z
Si Si1 0.352203 0.433183 0.665010
Si Si2 0.945643 0.936952 0.277959
Si Si3 0.604539 0.937928 0.832197
Si Si4 0.500000 0.062299 0.438685
Si Si5 0.555868 0.938483 0.941237
Si Si6 0.393376 0.062969 0.438820
Si Si7 0.801794 0.436593 0.767933
O O1 0.344127 0.250000 0.663615
O O2 0.404068 0.473332 0.691027
O O3 0.355188 0.500508 0.604335
O O4 0.315160 0.510617 0.706875
O O5 0.939323 0.750000 0.287680
O O6 0.935479 0.965379 0.214147
O O7 0.000000 0.977429 0.292851
O O8 0.608591 0.750000 0.836545
O O9 0.587564 0.996220 0.890658
O O10 0.655121 0.993980 0.807357
O O11 0.500000 0.250000 0.437083
O O12 0.447290 0.013973 0.418406
O O13 0.500000 0.000000 0.500000
O O14 0.500000 0.984196 0.933170
O O15 0.557307 0.750000 0.941884
O O16 0.571389 0.000000 0.000000
O O17 0.392132 0.250000 0.440015
O O18 0.387139 0.000000 0.500000
O O19 0.801768 0.250000 0.769283
O O20 0.750000 0.500000 0.783638
#
# Coordination Sequence:
#
# PCOD9501569 Si02
#       7
#    16  16  16   8  16  16  16
#     4  11  22  34  49  74 103 133 167 205 250 304
#     4   9  17  30  48  69  96 132 171 211 255 301
#     4   8  15  29  50  73  97 130 171 209 250 304
#     4   8  16  28  44  64  90 126 168 204 237 278
#     4   9  16  27  45  71 104 141 178 211 244 287
#     4  10  19  33  50  71  98 134 173 211 251 297
#     4  10  20  37  59  80  99 124 161 210 264 315
#
# _framework density 17.677517999999999
#
# number of rings (size 3 to 8) (size 9 to 14) (size 15 to 20)
#    0.000    2.615    0.000    3.692    1.077    2.769 
#    0.000    3.846    0.000    4.615    0.000    6.462 
#    0.000    0.000    0.000    0.000    0.000    0.000 
#
# Total GULP energy -289848.633455 kJ/mol
# GULP energy per Si atom -5574.012182 kJ/mol
# Density = 1.763728 g / cm^3
# Si number density = 17.677518 Si / 1000 Ang^3
#
#
#
# Elastic Constant Matrix: (Units=GPa)
#
#
# Indices 1 2 3 4 5 6 
#
# 1 60.1598 13.0512 26.2012 0.0000 0.0000 0.0000
# 2 13.0512 36.2170 18.9607 0.0000 0.0000 0.0000
# 3 26.2012 18.9607 110.5233 0.0000 0.0000 0.0000
# 4 0.0000 0.0000 0.0000 24.6279 0.0000 0.0000
# 5 0.0000 0.0000 0.0000 0.0000 17.9776 0.0000
# 6 0.0000 0.0000 0.0000 0.0000 0.0000 21.7525
#
#
#
# Elastic Compliance Matrix: (Units=1/GPa)
#
#
# Indices 1 2 3 4 5 6 
#
# 1 0.019332 -0.005018 -0.003722 0.000000 0.000000 0.000000
# 2 -0.005018 0.031638 -0.004238 0.000000 0.000000 0.000000
# 3 -0.003722 -0.004238 0.010657 0.000000 0.000000 0.000000
# 4 0.000000 0.000000 0.000000 0.040604 0.000000 0.000000
# 5 0.000000 0.000000 0.000000 0.000000 0.055625 0.000000
# 6 0.000000 0.000000 0.000000 0.000000 0.000000 0.045972
#
#
# Mechanical properties :
#
#
# Convention : Reuss Voigt Hill
#
# Bulk Modulus (GPa) = 28.03358 35.92514 31.97936
# Shear Modulus (GPa) = 20.68890 22.78406 21.73648
#
# Velocity S-wave (km/s) = 3.42475 3.59398 3.51039
# Velocity P-wave (km/s) = 5.61527 6.13098 5.87878
#
# Compressibility (1/GPa) = 0.03567151
#
# Stress axis : x y z
#
# Youngs Moduli (GPa) = 51.72752 31.60714 93.83224
#
# Poissons Ratio (x) = 0.15860 0.34925
# Poissons Ratio (y) = 0.25956 0.39767
# Poissons Ratio (z) = 0.19254 0.13396
#
# Static dielectric constant tensor:
#      x y z
#    x 1.608240 0.000000 0.000000 
#    y 0.000000 1.598920 0.000000 
#    z 0.000000 0.000000 1.618640 
# 
# From -- ./inp_files/42760.got.cif
#   From: 2010.05.17/outbox.cif.g08.bks.cpg/sg67_22_cif.got.tgz:42760.got - 2010.06.03 18:28:57.
