data_PCOD9501747
_publ_section_title
;
Structure prediction by ZEFSAII (Michael W. Deem and Ramdas Pophale) SiO2 
 PCOD9501747
Probable space group: C M M A
;
_chemical_formula_sum "Si O2"
_cell_formula_units_Z 64
_cell_length_a 15.006797
_cell_length_b 14.315165
_cell_length_c 12.474984
_cell_angle_alpha 90.000000
_cell_angle_beta 90.000000
_cell_angle_gamma 90.000000
_cell_volume 2679.935633
_symmetry_space_group_name_H-M "C M M A"
_symmetry_group_IT_number 67
_symmetry_cell_setting 'orthorhombic'
loop_
_space_group_symop_operation_xyz
x,y,z
-x,1/2-y,z
x,-y,-z
-x,1/2+y,-z
-x,-y,-z
x,1/2+y,-z
-x,y,z
x,1/2-y,z
1/2+x,1/2+y,z
1/2-x,-y,z
1/2+x,1/2-y,-z
1/2-x,y,-z
1/2-x,1/2-y,-z
1/2+x,y,-z
1/2-x,1/2+y,z
1/2+x,-y,z
loop_
_atom_site_type_symbol
_atom_site_label
_atom_site_fract_x
_atom_site_fract_y
_atom_site_fract_z
Si Si1 0.105119 0.553894 0.393285
Si Si2 0.195541 0.750000 0.110025
Si Si3 0.156434 0.457233 0.847398
Si Si4 0.500000 0.593247 0.174377
Si Si5 0.398069 0.250000 0.500407
Si Si6 0.137161 0.750000 0.735947
O O1 0.134185 0.500000 0.500000
O O2 0.154521 0.540321 0.283011
O O3 0.111415 0.660369 0.427616
O O4 0.000000 0.527057 0.372148
O O5 0.144025 0.651293 0.118855
O O6 0.269793 0.750000 0.202562
O O7 0.250000 0.750000 0.000000
O O8 0.250000 0.500000 0.883112
O O9 0.077506 0.525888 0.877078
O O10 0.578459 0.660872 0.228880
O O11 0.500000 0.250000 0.542033
O O12 0.342910 0.250000 0.609116
#
# Coordination Sequence:
#
# PCOD9501747 Si02
#       6
#    16   8  16   8   8   8
#     4  10  21  36  64 104 148 194 242 292 358 442
#     4  12  30  53  75 107 150 189 253 334 389 431
#     4  12  25  46  77 107 150 196 246 317 369 443
#     4  11  22  45  78 106 142 194 247 289 378 438
#     4  10  19  33  63  95 144 199 235 288 353 432
#     4  11  22  46  76 103 148 200 241 300 367 452
#
# _framework density 23.881170999999998
#
# number of rings (size 3 to 8) (size 9 to 14) (size 15 to 20)
#    0.000    1.000    5.000    2.250    3.500    1.500 
#    0.000    5.000    0.000    0.000    0.000    0.000 
#    0.000    0.000    0.000    0.000    0.000    0.000 
#
# Total GULP energy -178194.308375 kJ/mol
# GULP energy per Si atom -5568.572137 kJ/mol
# Density = 2.382682 g / cm^3
# Si number density = 23.881171 Si / 1000 Ang^3
#
#
#
# Elastic Constant Matrix: (Units=GPa)
#
#
# Indices 1 2 3 4 5 6 
#
# 1 92.1126 26.8979 4.0050 0.0000 0.0000 0.0000
# 2 26.8979 148.1789 9.4113 0.0000 0.0000 0.0000
# 3 4.0050 9.4113 119.4551 0.0000 0.0000 0.0000
# 4 0.0000 0.0000 0.0000 15.1081 0.0000 0.0000
# 5 0.0000 0.0000 0.0000 0.0000 -62.7712 0.0000
# 6 0.0000 0.0000 0.0000 0.0000 0.0000 41.1346
#
#
#
# Elastic Compliance Matrix: (Units=1/GPa)
#
#
# Indices 1 2 3 4 5 6 
#
# 1 0.011470 -0.002068 -0.000222 0.000000 0.000000 0.000000
# 2 -0.002068 0.007155 -0.000494 0.000000 0.000000 0.000000
# 3 -0.000222 -0.000494 0.008418 0.000000 0.000000 0.000000
# 4 0.000000 0.000000 0.000000 0.066190 0.000000 0.000000
# 5 0.000000 0.000000 0.000000 0.000000 -0.015931 0.000000
# 6 0.000000 0.000000 0.000000 0.000000 0.000000 0.024310
#
#
# Mechanical properties :
#
#
# Convention : Reuss Voigt Hill
#
# Bulk Modulus (GPa) = 46.56593 48.93053 47.74823
# Shear Modulus (GPa) = 43.72980 19.98979 31.85979
#
# Velocity S-wave (km/s) = 4.28383 2.89632 3.65649
# Velocity P-wave (km/s) = 6.63397 5.63192 6.15338
#
# Compressibility (1/GPa) = 0.02147493
#
# Stress axis : x y z
#
# Youngs Moduli (GPa) = 87.18562 139.75492 118.79688
#
# Poissons Ratio (x) = 0.28901 0.02633
# Poissons Ratio (y) = 0.18030 0.05873
# Poissons Ratio (z) = 0.01932 0.06910
#
# Static dielectric constant tensor:
#      x y z
#    x 1.883360 0.000000 0.000000 
#    y 0.000000 1.926720 0.000000 
#    z 0.000000 0.000000 2.037080 
# 
# From -- ./inp_files/19028.got.cif
#   From: 2010.05.17/outbox.cif.g08.bks.cpg/sg67_10_cif.got.tgz:19028.got - 2010.06.03 18:28:57.
