data_PCOD9501405
_publ_section_title
;
Structure prediction by ZEFSAII (Michael W. Deem and Ramdas Pophale) SiO2 
 PCOD9501405
Probable space group: C M M A
;
_chemical_formula_sum "Si O2"
_cell_formula_units_Z 80
_cell_length_a 8.533543
_cell_length_b 18.807682
_cell_length_c 27.465148
_cell_angle_alpha 90.000000
_cell_angle_beta 90.000000
_cell_angle_gamma 90.000000
_cell_volume 4408.050872
_symmetry_space_group_name_H-M "C M M A"
_symmetry_group_IT_number 67
_symmetry_cell_setting 'orthorhombic'
loop_
_space_group_symop_operation_xyz
x,y,z
-x,1/2-y,z
x,-y,-z
-x,1/2+y,-z
-x,-y,-z
x,1/2+y,-z
-x,y,z
x,1/2-y,z
1/2+x,1/2+y,z
1/2-x,-y,z
1/2+x,1/2-y,-z
1/2-x,y,-z
1/2-x,1/2-y,-z
1/2+x,y,-z
1/2-x,1/2+y,z
1/2+x,-y,z
loop_
_atom_site_type_symbol
_atom_site_label
_atom_site_fract_x
_atom_site_fract_y
_atom_site_fract_z
Si Si1 0.188987 0.419002 0.844709
Si Si2 0.188222 0.919178 0.261801
Si Si3 0.687844 0.081507 0.050184
Si Si4 0.311841 0.080147 0.552328
Si Si5 0.189389 0.831571 0.646772
O O1 0.250000 0.500000 0.844723
O O2 0.237418 0.389899 0.791837
O O3 0.237065 0.386950 0.897130
O O4 0.000000 0.420233 0.844990
O O5 0.251182 0.872726 0.305915
O O6 0.000000 0.920938 0.263590
O O7 0.250000 0.000000 0.266190
O O8 0.500000 0.079836 0.047785
O O9 0.750000 0.000000 0.050783
O O10 0.750000 0.114701 0.000000
O O11 0.500000 0.078319 0.550841
O O12 0.250000 0.105750 0.500000
O O13 0.260261 0.128306 0.597540
O O14 0.250000 0.000000 0.559281
O O15 0.242130 0.750000 0.646881
O O16 0.000000 0.832554 0.647355
#
# Coordination Sequence:
#
# PCOD9501405 Si02
#       5
#    16  16  16  16  16
#     4   8  15  25  37  56  83 114 150 192 234 278
#     4  10  19  32  51  73  96 127 167 206 245 291
#     4   9  14  20  30  47  75 110 145 182 226 276
#     4  10  20  35  56  79 103 131 163 199 237 281
#     4  10  22  38  53  73 103 134 163 201 248 291
#
# _framework density 18.148610999999999
#
# number of rings (size 3 to 8) (size 9 to 14) (size 15 to 20)
#    0.000    2.600    0.000    3.600    0.000    5.600 
#    0.000    0.000    0.000    0.000    0.000    0.000 
#    0.000    0.800    0.000    1.800    0.000    9.800 
#
# Total GULP energy -222779.126472 kJ/mol
# GULP energy per Si atom -5569.478162 kJ/mol
# Density = 1.810730 g / cm^3
# Si number density = 18.148611 Si / 1000 Ang^3
#
#
#
# Elastic Constant Matrix: (Units=GPa)
#
#
# Indices 1 2 3 4 5 6 
#
# 1 27.2706 14.0099 37.2514 0.0000 0.0000 0.0000
# 2 14.0099 50.0610 77.2825 0.0000 0.0000 0.0000
# 3 37.2514 77.2825 248.8288 0.0000 0.0000 0.0000
# 4 0.0000 0.0000 0.0000 -12.5442 0.0000 0.0000
# 5 0.0000 0.0000 0.0000 0.0000 18.0576 0.0000
# 6 0.0000 0.0000 0.0000 0.0000 0.0000 10.9169
#
#
#
# Elastic Compliance Matrix: (Units=1/GPa)
#
#
# Indices 1 2 3 4 5 6 
#
# 1 0.046587 -0.004362 -0.005619 0.000000 0.000000 0.000000
# 2 -0.004362 0.038784 -0.011393 0.000000 0.000000 0.000000
# 3 -0.005619 -0.011393 0.008398 0.000000 0.000000 0.000000
# 4 0.000000 0.000000 0.000000 -0.079718 0.000000 0.000000
# 5 0.000000 0.000000 0.000000 0.000000 0.055378 0.000000
# 6 0.000000 0.000000 0.000000 0.000000 0.000000 0.091601
#
#
# Mechanical properties :
#
#
# Convention : Reuss Voigt Hill
#
# Bulk Modulus (GPa) = 19.60006 64.80532 42.20269
# Shear Modulus (GPa) = 22.64628 16.46050 19.55339
#
# Velocity S-wave (km/s) = 3.53629 3.01488 3.28594
# Velocity P-wave (km/s) = 5.24376 6.92135 6.14011
#
# Compressibility (1/GPa) = 0.05102024
#
# Stress axis : x y z
#
# Youngs Moduli (GPa) = 21.46531 25.78374 119.06891
#
# Poissons Ratio (x) = 0.11248 0.66910
# Poissons Ratio (y) = 0.09364 1.35651
# Poissons Ratio (z) = 0.12062 0.29375
#
# Static dielectric constant tensor:
#      x y z
#    x 1.623750 0.000000 0.000000 
#    y 0.000000 1.566020 0.000000 
#    z 0.000000 0.000000 1.696150 
# 
# From -- ./inp_files/43210.got.cif
#   From: 2010.05.17/outbox.cif.g08.bks.cpg/sg67_22_cif.got.tgz:43210.got - 2010.06.03 18:28:57.
