data_PCOD9501945
_publ_section_title
;
Structure prediction by ZEFSAII (Michael W. Deem and Ramdas Pophale) SiO2 
 PCOD9501945
Probable space group: C M M A
;
_chemical_formula_sum "Si O2"
_cell_formula_units_Z 104
_cell_length_a 29.822352
_cell_length_b 16.447533
_cell_length_c 11.127875
_cell_angle_alpha 90.000000
_cell_angle_beta 90.000000
_cell_angle_gamma 90.000000
_cell_volume 5458.268519
_symmetry_space_group_name_H-M "C M M A"
_symmetry_group_IT_number 67
_symmetry_cell_setting 'orthorhombic'
loop_
_space_group_symop_operation_xyz
x,y,z
-x,1/2-y,z
x,-y,-z
-x,1/2+y,-z
-x,-y,-z
x,1/2+y,-z
-x,y,z
x,1/2-y,z
1/2+x,1/2+y,z
1/2-x,-y,z
1/2+x,1/2-y,-z
1/2-x,y,-z
1/2-x,1/2-y,-z
1/2+x,y,-z
1/2-x,1/2+y,z
1/2+x,-y,z
loop_
_atom_site_type_symbol
_atom_site_label
_atom_site_fract_x
_atom_site_fract_y
_atom_site_fract_z
Si Si1 0.500000 0.652328 0.265509
Si Si2 0.243723 0.659067 0.133535
Si Si3 0.906461 0.344604 0.385110
Si Si4 0.000000 0.652416 0.009385
Si Si5 0.842863 0.127628 0.158229
Si Si6 0.831679 0.550163 0.241933
Si Si7 0.097371 0.409549 0.941152
Si Si8 0.137648 0.000000 0.500000
O O1 0.500000 0.750000 0.254272
O O2 0.544411 0.631723 0.337988
O O3 0.500000 0.620732 0.129247
O O4 0.224241 0.750000 0.121408
O O5 0.294592 0.666558 0.176557
O O6 0.211036 0.605022 0.212835
O O7 0.250000 0.623291 0.000000
O O8 0.906252 0.250000 0.429255
O O9 0.875058 0.348467 0.267180
O O10 0.889751 0.417472 0.469985
O O11 0.000000 0.750000 0.008796
O O12 0.046890 0.623409 0.065755
O O13 0.830257 0.032694 0.166312
O O14 0.870593 0.139674 0.035041
O O15 0.876893 0.589818 0.186238
O O16 0.835186 0.523710 0.380097
O O17 0.093916 0.500000 0.000000
#
# Coordination Sequence:
#
# PCOD9501945 Si02
#       8
#     8  16  16   8  16  16  16   8
#     4   9  18  32  57  89 117 152 197 255 321 384
#     4  11  22  34  56  92 126 157 195 244 316 389
#     4  10  20  38  61  86 120 157 206 264 312 373
#     4  11  21  33  55  92 128 153 192 251 329 400
#     4  10  19  35  60  87 115 152 199 250 312 372
#     4  10  22  40  59  83 120 160 207 258 301 363
#     4  10  20  35  57  86 120 153 192 252 316 376
#     4  10  24  43  63  88 114 172 230 253 307 370
#
# _framework density 19.053661999999999
#
# number of rings (size 3 to 8) (size 9 to 14) (size 15 to 20)
#    0.000    1.846    3.077    1.154    0.000    2.769 
#    0.000    6.923    0.000    5.538    0.000    0.000 
#    0.000    0.000    0.000    0.000    0.000    0.000 
#
# Total GULP energy -289846.264372 kJ/mol
# GULP energy per Si atom -5573.966623 kJ/mol
# Density = 1.901030 g / cm^3
# Si number density = 19.053662 Si / 1000 Ang^3
#
#
#
# Elastic Constant Matrix: (Units=GPa)
#
#
# Indices 1 2 3 4 5 6 
#
# 1 151.3427 50.2063 45.5181 0.0000 0.0000 0.0000
# 2 50.2063 85.6197 26.7663 0.0000 0.0000 0.0000
# 3 45.5181 26.7663 81.6812 0.0000 0.0000 0.0000
# 4 0.0000 0.0000 0.0000 1.8015 0.0000 0.0000
# 5 0.0000 0.0000 0.0000 0.0000 3.7787 0.0000
# 6 0.0000 0.0000 0.0000 0.0000 0.0000 55.1263
#
#
#
# Elastic Compliance Matrix: (Units=1/GPa)
#
#
# Indices 1 2 3 4 5 6 
#
# 1 0.009110 -0.004183 -0.003706 0.000000 0.000000 0.000000
# 2 -0.004183 0.014934 -0.002562 0.000000 0.000000 0.000000
# 3 -0.003706 -0.002562 0.015147 0.000000 0.000000 0.000000
# 4 0.000000 0.000000 0.000000 0.555088 0.000000 0.000000
# 5 0.000000 0.000000 0.000000 0.000000 0.264642 0.000000
# 6 0.000000 0.000000 0.000000 0.000000 0.000000 0.018140
#
#
# Mechanical properties :
#
#
# Convention : Reuss Voigt Hill
#
# Bulk Modulus (GPa) = 54.68079 62.62501 58.65290
# Shear Modulus (GPa) = 5.53060 25.21817 15.37439
#
# Velocity S-wave (km/s) = 1.70556 3.64199 2.84368
# Velocity P-wave (km/s) = 5.71307 7.11509 6.45227
#
# Compressibility (1/GPa) = 0.01828796
#
# Stress axis : x y z
#
# Youngs Moduli (GPa) = 109.77100 66.96264 66.01759
#
# Poissons Ratio (x) = 0.28013 0.24464
# Poissons Ratio (y) = 0.45922 0.16916
# Poissons Ratio (z) = 0.40678 0.17158
#
# Static dielectric constant tensor:
#      x y z
#    x 1.712820 0.000000 0.000000 
#    y 0.000000 1.724790 0.000000 
#    z 0.000000 0.000000 1.658920 
# 
# From -- ./inp_files/23010.got.cif
#   From: 2010.05.17/outbox.cif.g08.bks.cpg/sg67_12_cif.got.tgz:23010.got - 2010.06.03 18:28:57.
