data_PCOD9501311
_publ_section_title
;
Structure prediction by ZEFSAII (Michael W. Deem and Ramdas Pophale) SiO2 
 PCOD9501311
Probable space group: C M M A
;
_chemical_formula_sum "Si O2"
_cell_formula_units_Z 116
_cell_length_a 15.509101
_cell_length_b 19.459000
_cell_length_c 16.929855
_cell_angle_alpha 90.000000
_cell_angle_beta 90.000000
_cell_angle_gamma 90.000000
_cell_volume 5109.287967
_symmetry_space_group_name_H-M "C M M A"
_symmetry_group_IT_number 67
_symmetry_cell_setting 'orthorhombic'
loop_
_space_group_symop_operation_xyz
x,y,z
-x,1/2-y,z
x,-y,-z
-x,1/2+y,-z
-x,-y,-z
x,1/2+y,-z
-x,y,z
x,1/2-y,z
1/2+x,1/2+y,z
1/2-x,-y,z
1/2+x,1/2-y,-z
1/2-x,y,-z
1/2-x,1/2-y,-z
1/2+x,y,-z
1/2-x,1/2+y,z
1/2+x,-y,z
loop_
_atom_site_type_symbol
_atom_site_label
_atom_site_fract_x
_atom_site_fract_y
_atom_site_fract_z
Si Si1 0.500000 0.500000 0.000000
Si Si2 0.402089 0.826243 0.094145
Si Si3 0.341746 0.529989 0.106466
Si Si4 0.628431 0.675277 0.279119
Si Si5 0.334609 0.826565 0.708416
Si Si6 0.103313 0.526043 0.268968
Si Si7 0.605086 0.672697 0.527403
Si Si8 0.903065 0.561948 0.595382
O O1 0.423670 0.493897 0.067411
O O2 0.500000 0.840023 0.065587
O O3 0.375407 0.750000 0.068242
O O4 0.345475 0.891716 0.075825
O O5 0.403280 0.826138 0.189370
O O6 0.250000 0.500000 0.087321
O O7 0.355419 0.520850 0.200774
O O8 0.604799 0.750000 0.311703
O O9 0.732030 0.669917 0.279929
O O10 0.591961 0.617168 0.334152
O O11 0.362990 0.750000 0.736121
O O12 0.374610 0.894468 0.746904
O O13 0.359435 0.830904 0.616073
O O14 0.135600 0.502634 0.356687
O O15 0.000000 0.517682 0.268786
O O16 0.500000 0.669442 0.529216
O O17 0.628480 0.750000 0.497415
O O18 0.636225 0.607843 0.475008
O O19 0.000000 0.542430 0.571052
#
# Coordination Sequence:
#
# PCOD9501311 Si02
#       8
#     4  16  16  16  16  16  16  16
#     4  12  26  48  74 106 148 174 230 254 320 422
#     4  10  19  36  66 101 140 178 223 280 340 401
#     4  12  24  44  73 106 142 181 218 273 332 394
#     4  10  19  31  52  84 118 157 204 260 324 384
#     4  10  22  37  54  80 118 168 224 272 326 392
#     4  11  22  38  62  90 123 162 213 272 324 389
#     4   9  18  34  53  75 112 163 215 269 331 396
#     4  10  20  32  52  82 115 150 202 267 325 385
#
# _framework density 22.703749999999999
#
# number of rings (size 3 to 8) (size 9 to 14) (size 15 to 20)
#    0.000    1.655    2.759    2.276    0.000    3.310 
#    0.000    4.138    0.000    5.793    0.000    0.000 
#    0.000    0.000    0.000    0.000    0.000    0.000 
#
# Total GULP energy -323375.064123 kJ/mol
# GULP energy per Si atom -5575.432140 kJ/mol
# Density = 2.265207 g / cm^3
# Si number density = 22.703750 Si / 1000 Ang^3
#
#
#
# Elastic Constant Matrix: (Units=GPa)
#
#
# Indices 1 2 3 4 5 6 
#
# 1 117.2731 52.0055 13.9402 0.0000 0.0000 0.0000
# 2 52.0055 153.6930 -0.9131 0.0000 0.0000 0.0000
# 3 13.9402 -0.9131 42.6396 0.0000 0.0000 0.0000
# 4 0.0000 0.0000 0.0000 -4.3737 0.0000 0.0000
# 5 0.0000 0.0000 0.0000 0.0000 126.8289 0.0000
# 6 0.0000 0.0000 0.0000 0.0000 0.0000 27.1230
#
#
#
# Elastic Compliance Matrix: (Units=1/GPa)
#
#
# Indices 1 2 3 4 5 6 
#
# 1 0.010536 -0.003586 -0.003521 0.000000 0.000000 0.000000
# 2 -0.003586 0.007728 0.001338 0.000000 0.000000 0.000000
# 3 -0.003521 0.001338 0.024632 0.000000 0.000000 0.000000
# 4 0.000000 0.000000 0.000000 -0.228637 0.000000 0.000000
# 5 0.000000 0.000000 0.000000 0.000000 0.007885 0.000000
# 6 0.000000 0.000000 0.000000 0.000000 0.000000 0.036869
#
#
# Mechanical properties :
#
#
# Convention : Reuss Voigt Hill
#
# Bulk Modulus (GPa) = 31.89068 49.29677 40.59373
# Shear Modulus (GPa) = -42.01822 46.48718 2.23448
#
# Velocity S-wave (km/s) = -4.30666 4.52990 0.99314
# Velocity P-wave (km/s) = 3.26387 7.00858 4.38562
#
# Compressibility (1/GPa) = 0.03135713
#
# Stress axis : x y z
#
# Youngs Moduli (GPa) = 94.91349 129.40257 40.59715
#
# Poissons Ratio (x) = 0.46404 0.14296
# Poissons Ratio (y) = 0.34036 -0.05431
# Poissons Ratio (z) = 0.33422 -0.17312
#
# Static dielectric constant tensor:
#      x y z
#    x 1.804760 0.000000 0.000000 
#    y 0.000000 1.934470 0.000000 
#    z 0.000000 0.000000 1.876420 
# 
# From -- ./inp_files/34365.got.cif
#   From: 2010.05.17/outbox.cif.g08.bks.cpg/sg67_18_cif.got.tgz:34365.got - 2010.06.03 18:28:57.
