data_PCOD9501494
_publ_section_title
;
Structure prediction by ZEFSAII (Michael W. Deem and Ramdas Pophale) SiO2 
 PCOD9501494
Probable space group: C M M A
;
_chemical_formula_sum "Si O2"
_cell_formula_units_Z 112
_cell_length_a 27.053756
_cell_length_b 14.920270
_cell_length_c 13.962684
_cell_angle_alpha 90.000000
_cell_angle_beta 90.000000
_cell_angle_gamma 90.000000
_cell_volume 5636.028238
_symmetry_space_group_name_H-M "C M M A"
_symmetry_group_IT_number 67
_symmetry_cell_setting 'orthorhombic'
loop_
_space_group_symop_operation_xyz
x,y,z
-x,1/2-y,z
x,-y,-z
-x,1/2+y,-z
-x,-y,-z
x,1/2+y,-z
-x,y,z
x,1/2-y,z
1/2+x,1/2+y,z
1/2-x,-y,z
1/2+x,1/2-y,-z
1/2-x,y,-z
1/2-x,1/2-y,-z
1/2+x,y,-z
1/2-x,1/2+y,z
1/2+x,-y,z
loop_
_atom_site_type_symbol
_atom_site_label
_atom_site_fract_x
_atom_site_fract_y
_atom_site_fract_z
Si Si1 0.287614 0.145065 0.712690
Si Si2 0.897513 0.101416 0.035705
Si Si3 0.443472 0.454517 0.765487
Si Si4 0.669498 0.348209 0.287551
Si Si5 0.864208 0.025036 0.390660
Si Si6 0.420017 0.651511 0.837377
Si Si7 0.210722 0.147213 0.075935
O O1 0.303249 0.250000 0.708340
O O2 0.228312 0.143104 0.709469
O O3 0.317367 0.089452 0.633116
O O4 0.296329 0.104249 0.819047
O O5 0.921451 0.095118 0.140553
O O6 0.844345 0.147340 0.036584
O O7 0.928941 0.144741 0.950647
O O8 0.889413 0.000000 0.000000
O O9 0.500000 0.428646 0.750687
O O10 0.409524 0.437668 0.672844
O O11 0.441336 0.561766 0.789470
O O12 0.657706 0.250000 0.328138
O O13 0.648585 0.429426 0.346083
O O14 0.639307 0.352564 0.187223
O O15 0.874483 0.000000 0.500000
O O16 0.436733 0.750000 0.803019
O O17 0.227942 0.250000 0.094575
O O18 0.250000 0.108798 0.000000
#
# Coordination Sequence:
#
# PCOD9501494 Si02
#       7
#    16  16  16  16  16  16  16
#     4  10  20  35  57  85 121 156 191 237 287 350
#     4  10  19  32  52  80 114 148 183 229 276 341
#     4  10  22  40  58  79 110 147 194 254 307 350
#     4   9  19  36  57  85 120 154 189 235 287 348
#     4  11  23  40  61  83 110 149 200 255 307 359
#     4   9  18  33  56  85 117 150 187 232 285 352
#     4  10  19  32  52  80 116 158 194 223 268 337
#
# _framework density 19.872150000000001
#
# number of rings (size 3 to 8) (size 9 to 14) (size 15 to 20)
#    0.000    2.143    1.429    1.714    0.000    7.429 
#    2.571    1.429    0.000    3.429    0.000    2.000 
#    0.000    0.000    0.000    0.000    0.000    0.000 
#
# Total GULP energy -311989.563052 kJ/mol
# GULP energy per Si atom -5571.242197 kJ/mol
# Density = 1.982692 g / cm^3
# Si number density = 19.872150 Si / 1000 Ang^3
#
#
#
# Elastic Constant Matrix: (Units=GPa)
#
#
# Indices 1 2 3 4 5 6 
#
# 1 99.1347 13.2365 31.7392 0.0000 0.0000 0.0000
# 2 13.2365 51.1509 16.9269 0.0000 0.0000 0.0000
# 3 31.7392 16.9269 114.2491 0.0000 0.0000 0.0000
# 4 0.0000 0.0000 0.0000 6.7439 0.0000 0.0000
# 5 0.0000 0.0000 0.0000 0.0000 10.2032 0.0000
# 6 0.0000 0.0000 0.0000 0.0000 0.0000 14.0023
#
#
#
# Elastic Compliance Matrix: (Units=1/GPa)
#
#
# Indices 1 2 3 4 5 6 
#
# 1 0.011259 -0.001975 -0.002835 0.000000 0.000000 0.000000
# 2 -0.001975 0.020904 -0.002548 0.000000 0.000000 0.000000
# 3 -0.002835 -0.002548 0.009918 0.000000 0.000000 0.000000
# 4 0.000000 0.000000 0.000000 0.148281 0.000000 0.000000
# 5 0.000000 0.000000 0.000000 0.000000 0.098008 0.000000
# 6 0.000000 0.000000 0.000000 0.000000 0.000000 0.071417
#
#
# Mechanical properties :
#
#
# Convention : Reuss Voigt Hill
#
# Bulk Modulus (GPa) = 36.54490 43.14889 39.84689
# Shear Modulus (GPa) = 13.03354 19.69871 16.36612
#
# Velocity S-wave (km/s) = 2.56377 3.15186 2.87291
# Velocity P-wave (km/s) = 5.21477 5.91659 5.57673
#
# Compressibility (1/GPa) = 0.02736360
#
# Stress axis : x y z
#
# Youngs Moduli (GPa) = 88.82011 47.83663 100.82696
#
# Poissons Ratio (x) = 0.09449 0.28585
# Poissons Ratio (y) = 0.17544 0.25695
# Poissons Ratio (z) = 0.25181 0.12191
#
# Static dielectric constant tensor:
#      x y z
#    x 1.725830 0.000000 0.000000 
#    y 0.000000 1.745510 0.000000 
#    z 0.000000 0.000000 1.742020 
# 
# From -- ./inp_files/23792.got.cif
#   From: 2010.05.17/outbox.cif.g08.bks.cpg/sg67_12_cif.got.tgz:23792.got - 2010.06.03 18:28:57.
