data_PCOD9501444
_publ_section_title
;
Structure prediction by ZEFSAII (Michael W. Deem and Ramdas Pophale) SiO2 
 PCOD9501444
Probable space group: C M M A
;
_chemical_formula_sum "Si O2"
_cell_formula_units_Z 96
_cell_length_a 8.752423
_cell_length_b 18.620149
_cell_length_c 32.770213
_cell_angle_alpha 90.000000
_cell_angle_beta 90.000000
_cell_angle_gamma 90.000000
_cell_volume 5340.608158
_symmetry_space_group_name_H-M "C M M A"
_symmetry_group_IT_number 67
_symmetry_cell_setting 'orthorhombic'
loop_
_space_group_symop_operation_xyz
x,y,z
-x,1/2-y,z
x,-y,-z
-x,1/2+y,-z
-x,-y,-z
x,1/2+y,-z
-x,y,z
x,1/2-y,z
1/2+x,1/2+y,z
1/2-x,-y,z
1/2+x,1/2-y,-z
1/2-x,y,-z
1/2-x,1/2-y,-z
1/2+x,y,-z
1/2-x,1/2+y,z
1/2+x,-y,z
loop_
_atom_site_type_symbol
_atom_site_label
_atom_site_fract_x
_atom_site_fract_y
_atom_site_fract_z
Si Si1 0.683796 0.919401 0.208355
Si Si2 0.817982 0.580426 0.380373
Si Si3 0.816069 0.418710 0.296674
Si Si4 0.318269 0.335017 0.043120
Si Si5 0.816470 0.580494 0.880743
Si Si6 0.819816 0.336053 0.456358
O O1 0.500000 0.924232 0.208650
O O2 0.726364 0.885948 0.252310
O O3 0.727493 0.888131 0.164163
O O4 0.750000 0.000000 0.208269
O O5 0.750000 0.500000 0.384010
O O6 0.753688 0.613160 0.337932
O O7 0.763591 0.625376 0.419145
O O8 0.000000 0.576199 0.378296
O O9 0.750000 0.500000 0.295570
O O10 0.000000 0.420867 0.300219
O O11 0.500000 0.344846 0.042698
O O12 0.284807 0.250000 0.046212
O O13 0.247375 0.374640 0.081742
O O14 0.250000 0.360856 0.000000
O O15 0.750000 0.500000 0.882976
O O16 0.000000 0.577546 0.882978
O O17 0.801287 0.250000 0.452726
O O18 0.750000 0.357843 0.500000
O O19 0.000000 0.352514 0.455329
#
# Coordination Sequence:
#
# PCOD9501444 Si02
#       6
#    16  16  16  16  16  16
#     4   8  15  26  43  68  98 131 164 200 242 291
#     4  11  21  33  51  77 107 136 170 210 252 295
#     4   9  15  26  44  68  99 132 167 204 246 293
#     4  10  21  37  55  74  97 128 166 206 250 301
#     4  10  19  32  51  77 106 133 165 205 249 294
#     4  10  21  38  58  78 101 131 167 206 251 304
#
# _framework density 17.975480999999998
#
# number of rings (size 3 to 8) (size 9 to 14) (size 15 to 20)
#    0.000    2.333    0.000    4.500    0.000    4.000 
#    0.000    3.333    0.000    1.000    0.000    2.333 
#    0.000    0.000    0.000    0.000    0.000    0.000 
#
# Total GULP energy -267505.298958 kJ/mol
# GULP energy per Si atom -5573.027062 kJ/mol
# Density = 1.793457 g / cm^3
# Si number density = 17.975481 Si / 1000 Ang^3
#
#
#
# Elastic Constant Matrix: (Units=GPa)
#
#
# Indices 1 2 3 4 5 6 
#
# 1 82.3075 32.4776 78.5117 0.0000 0.0000 0.0000
# 2 32.4776 16.2758 47.7974 0.0000 0.0000 0.0000
# 3 78.5117 47.7974 236.3025 0.0000 0.0000 0.0000
# 4 0.0000 0.0000 0.0000 -51.7411 0.0000 0.0000
# 5 0.0000 0.0000 0.0000 0.0000 29.8585 0.0000
# 6 0.0000 0.0000 0.0000 0.0000 0.0000 19.8320
#
#
#
# Elastic Compliance Matrix: (Units=1/GPa)
#
#
# Indices 1 2 3 4 5 6 
#
# 1 0.068800 -0.172807 0.012095 0.000000 0.000000 0.000000
# 2 -0.172807 0.585384 -0.060992 0.000000 0.000000 0.000000
# 3 0.012095 -0.060992 0.012550 0.000000 0.000000 0.000000
# 4 0.000000 0.000000 0.000000 -0.019327 0.000000 0.000000
# 5 0.000000 0.000000 0.000000 0.000000 0.033491 0.000000
# 6 0.000000 0.000000 0.000000 0.000000 0.000000 0.050424
#
#
# Mechanical properties :
#
#
# Convention : Reuss Voigt Hill
#
# Bulk Modulus (GPa) = 4.47774 72.49547 38.48660
# Shear Modulus (GPa) = 4.00266 11.32983 7.66624
#
# Velocity S-wave (km/s) = 1.49384 2.51329 2.06739
# Velocity P-wave (km/s) = 2.33920 6.98856 5.21113
#
# Compressibility (1/GPa) = 0.22332688
#
# Stress axis : x y z
#
# Youngs Moduli (GPa) = 14.53493 1.70828 79.68054
#
# Poissons Ratio (x) = 0.29520 -0.96376
# Poissons Ratio (y) = 2.51174 4.85985
# Poissons Ratio (z) = -0.17580 0.10419
#
# Static dielectric constant tensor:
#      x y z
#    x 1.615830 0.000000 0.000000 
#    y 0.000000 1.585460 0.000000 
#    z 0.000000 0.000000 1.668970 
# 
# From -- ./inp_files/43509.got.cif
#   From: 2010.05.17/outbox.cif.g08.bks.cpg/sg67_22_cif.got.tgz:43509.got - 2010.06.03 18:28:57.
