data_PCOD9501410
_publ_section_title
;
Structure prediction by ZEFSAII (Michael W. Deem and Ramdas Pophale) SiO2 
 PCOD9501410
Probable space group: C M M A
;
_chemical_formula_sum "Si O2"
_cell_formula_units_Z 80
_cell_length_a 14.615002
_cell_length_b 27.122390
_cell_length_c 9.300592
_cell_angle_alpha 90.000000
_cell_angle_beta 90.000000
_cell_angle_gamma 90.000000
_cell_volume 3686.696857
_symmetry_space_group_name_H-M "C M M A"
_symmetry_group_IT_number 67
_symmetry_cell_setting 'orthorhombic'
loop_
_space_group_symop_operation_xyz
x,y,z
-x,1/2-y,z
x,-y,-z
-x,1/2+y,-z
-x,-y,-z
x,1/2+y,-z
-x,y,z
x,1/2-y,z
1/2+x,1/2+y,z
1/2-x,-y,z
1/2+x,1/2-y,-z
1/2-x,y,-z
1/2-x,1/2-y,-z
1/2+x,y,-z
1/2-x,1/2+y,z
1/2+x,-y,z
loop_
_atom_site_type_symbol
_atom_site_label
_atom_site_fract_x
_atom_site_fract_y
_atom_site_fract_z
Si Si1 0.604950 0.542791 0.599097
Si Si2 0.353967 0.750000 0.444780
Si Si3 0.853442 0.142396 0.443834
Si Si4 0.388829 0.143028 0.894112
Si Si5 0.611943 0.449778 0.080382
Si Si6 0.389394 0.750000 0.106477
O O1 0.646144 0.500000 0.500000
O O2 0.500000 0.526877 0.626769
O O3 0.603513 0.594471 0.516056
O O4 0.647262 0.549438 0.756385
O O5 0.250000 0.750000 0.500000
O O6 0.393546 0.696376 0.485955
O O7 0.357226 0.750000 0.271845
O O8 0.750000 0.142293 0.500000
O O9 0.857824 0.138012 0.271255
O O10 0.500000 0.141992 0.888828
O O11 0.361085 0.196965 0.954591
O O12 0.357943 0.098128 0.992544
O O13 0.500000 0.447396 0.082714
O O14 0.636825 0.500000 0.000000
O O15 0.500000 0.750000 0.107897
#
# Coordination Sequence:
#
# PCOD9501410 Si02
#       6
#    16   8  16  16  16   8
#     4  10  20  34  52  74 100 129 163 205 253 300
#     4   8  16  30  47  68  96 130 164 198 241 292
#     4  10  19  32  51  74 100 130 165 205 247 294
#     4   9  16  29  49  71  97 130 168 204 242 292
#     4   9  17  30  49  71  94 125 163 200 242 295
#     4   8  14  24  43  70  95 124 163 204 241 284
#
# _framework density 21.699642999999998
#
# number of rings (size 3 to 8) (size 9 to 14) (size 15 to 20)
#    0.000    2.800    0.000    1.800    0.000    4.400 
#    0.000    2.000    0.000    3.600    0.000    8.400 
#    0.000    0.000    0.000    0.000    0.000    0.000 
#
# Total GULP energy -223108.707172 kJ/mol
# GULP energy per Si atom -5577.717679 kJ/mol
# Density = 2.165025 g / cm^3
# Si number density = 21.699643 Si / 1000 Ang^3
#
#
#
# Elastic Constant Matrix: (Units=GPa)
#
#
# Indices 1 2 3 4 5 6 
#
# 1 68.3310 9.5722 10.4985 0.0000 0.0000 0.0000
# 2 9.5722 243.0888 111.7842 0.0000 0.0000 0.0000
# 3 10.4985 111.7842 131.2616 0.0000 0.0000 0.0000
# 4 0.0000 0.0000 0.0000 34.4135 0.0000 0.0000
# 5 0.0000 0.0000 0.0000 0.0000 -14.8344 0.0000
# 6 0.0000 0.0000 0.0000 0.0000 0.0000 -7.7109
#
#
#
# Elastic Compliance Matrix: (Units=1/GPa)
#
#
# Indices 1 2 3 4 5 6 
#
# 1 0.014817 -0.000063 -0.001131 0.000000 0.000000 0.000000
# 2 -0.000063 0.006762 -0.005754 0.000000 0.000000 0.000000
# 3 -0.001131 -0.005754 0.012609 0.000000 0.000000 0.000000
# 4 0.000000 0.000000 0.000000 0.029058 0.000000 0.000000
# 5 0.000000 0.000000 0.000000 0.000000 -0.067411 0.000000
# 6 0.000000 0.000000 0.000000 0.000000 0.000000 -0.129687
#
#
# Mechanical properties :
#
#
# Convention : Reuss Voigt Hill
#
# Bulk Modulus (GPa) = 49.28085 78.48792 63.88439
# Shear Modulus (GPa) = -44.17299 23.09541 -10.53879
#
# Velocity S-wave (km/s) = -4.51672 3.26593 -2.20617
# Velocity P-wave (km/s) = 2.10743 7.10426 4.79735
#
# Compressibility (1/GPa) = 0.02029186
#
# Stress axis : x y z
#
# Youngs Moduli (GPa) = 67.48861 147.88591 79.31077
#
# Poissons Ratio (x) = 0.00936 0.08972
# Poissons Ratio (y) = 0.00427 0.45632
# Poissons Ratio (z) = 0.07635 0.85087
#
# Static dielectric constant tensor:
#      x y z
#    x 1.821570 0.000000 0.000000 
#    y 0.000000 1.833800 0.000000 
#    z 0.000000 0.000000 1.746640 
# 
# From -- ./inp_files/10013.got.cif
#   From: 2010.05.17/outbox.cif.g08.bks.cpg/sg67_6_cif.got.tgz:10013.got - 2010.06.03 18:28:57.
