data_PCOD9501386
_publ_section_title
;
Structure prediction by ZEFSAII (Michael W. Deem and Ramdas Pophale) SiO2 
 PCOD9501386
Probable space group: C M M A
;
_chemical_formula_sum "Si O2"
_cell_formula_units_Z 80
_cell_length_a 14.469253
_cell_length_b 10.488692
_cell_length_c 24.553228
_cell_angle_alpha 90.000000
_cell_angle_beta 90.000000
_cell_angle_gamma 90.000000
_cell_volume 3726.284755
_symmetry_space_group_name_H-M "C M M A"
_symmetry_group_IT_number 67
_symmetry_cell_setting 'orthorhombic'
loop_
_space_group_symop_operation_xyz
x,y,z
-x,1/2-y,z
x,-y,-z
-x,1/2+y,-z
-x,-y,-z
x,1/2+y,-z
-x,y,z
x,1/2-y,z
1/2+x,1/2+y,z
1/2-x,-y,z
1/2+x,1/2-y,-z
1/2-x,y,-z
1/2-x,1/2-y,-z
1/2+x,y,-z
1/2-x,1/2+y,z
1/2+x,-y,z
loop_
_atom_site_type_symbol
_atom_site_label
_atom_site_fract_x
_atom_site_fract_y
_atom_site_fract_z
Si Si1 0.612943 0.105248 0.667653
Si Si2 0.137405 0.250000 0.942893
Si Si3 0.360760 0.992004 0.874081
Si Si4 0.362586 0.250000 0.931431
Si Si5 0.890916 0.105365 0.752674
Si Si6 0.387327 0.106074 0.542578
O O1 0.500000 0.105807 0.668870
O O2 0.641537 0.250000 0.682921
O O3 0.640661 0.081401 0.605035
O O4 0.645052 0.993900 0.707822
O O5 0.106504 0.123748 0.911725
O O6 0.249908 0.250000 0.937009
O O7 0.108686 0.250000 0.005600
O O8 0.382507 0.958174 0.811994
O O9 0.250000 0.000000 0.877484
O O10 0.392916 0.125731 0.898375
O O11 0.851646 0.250000 0.752721
O O12 0.000000 0.117995 0.741670
O O13 0.500000 0.104681 0.542416
O O14 0.359173 0.250000 0.527619
O O15 0.356454 0.000000 0.500000
#
# Coordination Sequence:
#
# PCOD9501386 Si02
#       6
#    16   8  16   8  16  16
#     4   8  15  27  41  59  85 119 158 194 228 271
#     4   9  16  32  49  71  99 117 148 191 232 280
#     4  10  19  32  50  73  96 119 153 194 233 276
#     4   9  18  28  51  75  91 121 150 187 236 278
#     4  10  20  33  48  66  94 130 161 191 230 277
#     4   8  13  21  34  54  81 112 147 189 231 268
#
# _framework density 21.469104999999999
#
# number of rings (size 3 to 8) (size 9 to 14) (size 15 to 20)
#    0.000    3.000    1.000    1.800    1.400    3.200 
#    0.000    4.000    0.000    3.600    0.000    0.000 
#    0.000    0.800    0.000    6.200    0.000    8.600 
#
# Total GULP energy -223304.863046 kJ/mol
# GULP energy per Si atom -5582.621576 kJ/mol
# Density = 2.142024 g / cm^3
# Si number density = 21.469105 Si / 1000 Ang^3
#
#
#
# Elastic Constant Matrix: (Units=GPa)
#
#
# Indices 1 2 3 4 5 6 
#
# 1 71.9388 10.2973 3.7013 0.0000 0.0000 0.0000
# 2 10.2973 257.7365 165.4996 0.0000 0.0000 0.0000
# 3 3.7013 165.4996 186.4382 0.0000 0.0000 0.0000
# 4 0.0000 0.0000 0.0000 45.4893 0.0000 0.0000
# 5 0.0000 0.0000 0.0000 0.0000 15.9882 0.0000
# 6 0.0000 0.0000 0.0000 0.0000 0.0000 -23.8564
#
#
#
# Elastic Compliance Matrix: (Units=1/GPa)
#
#
# Indices 1 2 3 4 5 6 
#
# 1 0.014001 -0.000886 0.000508 0.000000 0.000000 0.000000
# 2 -0.000886 0.009079 -0.008042 0.000000 0.000000 0.000000
# 3 0.000508 -0.008042 0.012493 0.000000 0.000000 0.000000
# 4 0.000000 0.000000 0.000000 0.021983 0.000000 0.000000
# 5 0.000000 0.000000 0.000000 0.000000 0.062546 0.000000
# 6 0.000000 0.000000 0.000000 0.000000 0.000000 -0.041917
#
#
# Mechanical properties :
#
#
# Convention : Reuss Voigt Hill
#
# Bulk Modulus (GPa) = 53.37847 97.23442 75.30644
# Shear Modulus (GPa) = 49.37348 29.96522 39.66935
#
# Velocity S-wave (km/s) = 4.80077 3.74001 4.30320
# Velocity P-wave (km/s) = 7.45967 8.00243 7.73582
#
# Compressibility (1/GPa) = 0.01873415
#
# Stress axis : x y z
#
# Youngs Moduli (GPa) = 71.42167 110.13972 80.04790
#
# Poissons Ratio (x) = 0.09757 -0.04070
# Poissons Ratio (y) = 0.06327 0.64375
# Poissons Ratio (z) = -0.03631 0.88575
#
# Static dielectric constant tensor:
#      x y z
#    x 1.857300 0.000000 0.000000 
#    y 0.000000 1.771920 0.000000 
#    z 0.000000 0.000000 1.722730 
# 
# From -- ./inp_files/42309.got.cif
#   From: 2010.05.17/outbox.cif.g08.bks.cpg/sg67_22_cif.got.tgz:42309.got - 2010.06.03 18:28:57.
