data_PCOD9501241
_publ_section_title
;
Structure prediction by ZEFSAII (Michael W. Deem and Ramdas Pophale) SiO2 
 PCOD9501241
Probable space group: C M M A
;
_chemical_formula_sum "Si O2"
_cell_formula_units_Z 112
_cell_length_a 14.164048
_cell_length_b 18.116785
_cell_length_c 22.595664
_cell_angle_alpha 90.000000
_cell_angle_beta 90.000000
_cell_angle_gamma 90.000000
_cell_volume 5798.205831
_symmetry_space_group_name_H-M "C M M A"
_symmetry_group_IT_number 67
_symmetry_cell_setting 'orthorhombic'
loop_
_space_group_symop_operation_xyz
x,y,z
-x,1/2-y,z
x,-y,-z
-x,1/2+y,-z
-x,-y,-z
x,1/2+y,-z
-x,y,z
x,1/2-y,z
1/2+x,1/2+y,z
1/2-x,-y,z
1/2+x,1/2-y,-z
1/2-x,y,-z
1/2-x,1/2-y,-z
1/2+x,y,-z
1/2-x,1/2+y,z
1/2+x,-y,z
loop_
_atom_site_type_symbol
_atom_site_label
_atom_site_fract_x
_atom_site_fract_y
_atom_site_fract_z
Si Si1 0.896368 0.835261 0.252002
Si Si2 0.894491 0.660167 0.037718
Si Si3 0.739391 0.668658 0.570335
Si Si4 0.311375 0.336976 0.785245
Si Si5 0.612208 0.610058 0.340363
Si Si6 0.306972 0.340042 0.913066
Si Si7 0.107403 0.940246 0.365902
O O1 0.893363 0.750000 0.273571
O O2 0.802593 0.844304 0.213869
O O3 0.889010 0.892127 0.305888
O O4 0.000000 0.845036 0.223278
O O5 0.895230 0.750000 0.040985
O O6 0.801457 0.636217 0.074026
O O7 0.000000 0.634938 0.054628
O O8 0.870472 0.640245 0.969515
O O9 0.700438 0.750000 0.586077
O O10 0.750000 0.666936 0.500000
O O11 0.833129 0.656930 0.609909
O O12 0.672519 0.602174 0.588770
O O13 0.333997 0.250000 0.780704
O O14 0.350646 0.372556 0.725537
O O15 0.344021 0.365545 0.849197
O O16 0.500000 0.621925 0.342678
O O17 0.633485 0.524324 0.353391
O O18 0.305257 0.250000 0.910892
O O19 0.000000 0.939916 0.387418
#
# Coordination Sequence:
#
# PCOD9501241 Si02
#       7
#    16  16  16  16  16  16  16
#     4   9  17  30  51  78 105 135 175 223 275 329
#     4   8  13  23  39  59  91 135 179 226 276 322
#     4  11  24  41  62  87 113 144 184 228 275 329
#     4  10  19  31  49  74 108 148 187 230 281 335
#     4  11  24  39  56  81 114 150 185 224 274 334
#     4   8  15  25  38  63  96 134 183 227 268 327
#     4  10  21  38  60  83 108 142 183 227 275 324
#
# _framework density 19.316320999999999
#
# number of rings (size 3 to 8) (size 9 to 14) (size 15 to 20)
#    0.000    2.429    1.429    2.143    0.000    4.857 
#    0.000    7.143    0.000    0.000    0.000    0.000 
#    0.000    9.143    0.000   26.000    0.000   26.000 
#
# Total GULP energy -312110.539649 kJ/mol
# GULP energy per Si atom -5573.402494 kJ/mol
# Density = 1.927236 g / cm^3
# Si number density = 19.316321 Si / 1000 Ang^3
#
#
#
# Elastic Constant Matrix: (Units=GPa)
#
#
# Indices 1 2 3 4 5 6 
#
# 1 45.1398 17.6647 26.5914 0.0000 0.0000 0.0000
# 2 17.6647 49.9851 28.9042 0.0000 0.0000 0.0000
# 3 26.5914 28.9042 109.1492 0.0000 0.0000 0.0000
# 4 0.0000 0.0000 0.0000 -24.2216 0.0000 0.0000
# 5 0.0000 0.0000 0.0000 0.0000 2.1098 0.0000
# 6 0.0000 0.0000 0.0000 0.0000 0.0000 92.6653
#
#
#
# Elastic Compliance Matrix: (Units=1/GPa)
#
#
# Indices 1 2 3 4 5 6 
#
# 1 0.027781 -0.006972 -0.004922 0.000000 0.000000 0.000000
# 2 -0.006972 0.025373 -0.005021 0.000000 0.000000 0.000000
# 3 -0.004922 -0.005021 0.011690 0.000000 0.000000 0.000000
# 4 0.000000 0.000000 0.000000 -0.041286 0.000000 0.000000
# 5 0.000000 0.000000 0.000000 0.000000 0.473987 0.000000
# 6 0.000000 0.000000 0.000000 0.000000 0.000000 0.010792
#
#
# Mechanical properties :
#
#
# Convention : Reuss Voigt Hill
#
# Bulk Modulus (GPa) = 32.24146 38.95498 35.59822
# Shear Modulus (GPa) = 9.04970 22.85161 15.95065
#
# Velocity S-wave (km/s) = 2.16684 3.44324 2.87672
# Velocity P-wave (km/s) = 4.79456 6.00154 5.43168
#
# Compressibility (1/GPa) = 0.03101597
#
# Stress axis : x y z
#
# Youngs Moduli (GPa) = 35.99564 39.41201 85.54006
#
# Poissons Ratio (x) = 0.27477 0.42103
# Poissons Ratio (y) = 0.25095 0.42947
# Poissons Ratio (z) = 0.17717 0.19787
#
# Static dielectric constant tensor:
#      x y z
#    x 1.709130 0.000000 0.000000 
#    y 0.000000 1.655950 0.000000 
#    z 0.000000 0.000000 1.688290 
# 
# From -- ./inp_files/41916.got.cif
#   From: 2010.05.17/outbox.cif.g08.bks.cpg/sg67_21_cif.got.tgz:41916.got - 2010.06.03 18:28:57.
