data_PCOD9501623
_publ_section_title
;
Structure prediction by ZEFSAII (Michael W. Deem and Ramdas Pophale) SiO2 
 PCOD9501623
Probable space group: C M M A
;
_chemical_formula_sum "Si O2"
_cell_formula_units_Z 80
_cell_length_a 8.572820
_cell_length_b 28.207986
_cell_length_c 19.222482
_cell_angle_alpha 90.000000
_cell_angle_beta 90.000000
_cell_angle_gamma 90.000000
_cell_volume 4648.418783
_symmetry_space_group_name_H-M "C M M A"
_symmetry_group_IT_number 67
_symmetry_cell_setting 'orthorhombic'
loop_
_space_group_symop_operation_xyz
x,y,z
-x,1/2-y,z
x,-y,-z
-x,1/2+y,-z
-x,-y,-z
x,1/2+y,-z
-x,y,z
x,1/2-y,z
1/2+x,1/2+y,z
1/2-x,-y,z
1/2+x,1/2-y,-z
1/2-x,y,-z
1/2-x,1/2-y,-z
1/2+x,y,-z
1/2-x,1/2+y,z
1/2+x,-y,z
loop_
_atom_site_type_symbol
_atom_site_label
_atom_site_fract_x
_atom_site_fract_y
_atom_site_fract_z
Si Si1 0.189563 0.197007 0.213743
Si Si2 0.812809 0.857160 0.924737
Si Si3 0.313742 0.053262 0.424722
Si Si4 0.312067 0.897886 0.288740
Si Si5 0.686341 0.448038 0.151716
O O1 0.246489 0.250000 0.228344
O O2 0.234024 0.179112 0.136618
O O3 0.236465 0.155382 0.266625
O O4 0.000000 0.198070 0.215104
O O5 0.746783 0.908255 0.901716
O O6 0.000000 0.859672 0.925761
O O7 0.750000 0.843576 0.000000
O O8 0.500000 0.051782 0.426264
O O9 0.250000 0.068762 0.500000
O O10 0.254310 0.085725 0.362149
O O11 0.250000 0.000000 0.412889
O O12 0.500000 0.900381 0.289328
O O13 0.250285 0.931900 0.227273
O O14 0.500000 0.448331 0.152863
O O15 0.750000 0.500000 0.134833
#
# Coordination Sequence:
#
# PCOD9501623 Si02
#       5
#    16  16  16  16  16
#     4   8  16  32  54  77 100 129 166 208 254 302
#     4  10  20  34  51  73 101 131 166 207 254 305
#     4  11  21  34  52  77 109 141 174 207 246 293
#     4  10  19  33  53  77 105 135 169 208 251 297
#     4  11  21  34  51  72  99 132 171 209 250 298
#
# _framework density 17.210153999999999
#
# number of rings (size 3 to 8) (size 9 to 14) (size 15 to 20)
#    0.000    2.000    0.000    7.200    0.000    0.800 
#    0.000    2.000    0.000   21.600    0.000    0.000 
#    0.000    0.000    0.000    0.000    0.000    0.000 
#
# Total GULP energy -223328.776642 kJ/mol
# GULP energy per Si atom -5583.219416 kJ/mol
# Density = 1.717098 g / cm^3
# Si number density = 17.210154 Si / 1000 Ang^3
#
#
#
# Elastic Constant Matrix: (Units=GPa)
#
#
# Indices 1 2 3 4 5 6 
#
# 1 105.7176 19.7631 33.0609 0.0000 0.0000 0.0000
# 2 19.7631 76.4670 35.2192 0.0000 0.0000 0.0000
# 3 33.0609 35.2192 119.6503 0.0000 0.0000 0.0000
# 4 0.0000 0.0000 0.0000 7.0602 0.0000 0.0000
# 5 0.0000 0.0000 0.0000 0.0000 31.0075 0.0000
# 6 0.0000 0.0000 0.0000 0.0000 0.0000 11.7128
#
#
#
# Elastic Compliance Matrix: (Units=1/GPa)
#
#
# Indices 1 2 3 4 5 6 
#
# 1 0.010520 -0.001597 -0.002437 0.000000 0.000000 0.000000
# 2 -0.001597 0.015371 -0.004083 0.000000 0.000000 0.000000
# 3 -0.002437 -0.004083 0.010233 0.000000 0.000000 0.000000
# 4 0.000000 0.000000 0.000000 0.141639 0.000000 0.000000
# 5 0.000000 0.000000 0.000000 0.000000 0.032250 0.000000
# 6 0.000000 0.000000 0.000000 0.000000 0.000000 0.085376
#
#
# Mechanical properties :
#
#
# Convention : Reuss Voigt Hill
#
# Bulk Modulus (GPa) = 50.27583 53.10238 51.68910
# Shear Modulus (GPa) = 15.71078 24.20888 19.95983
#
# Velocity S-wave (km/s) = 3.02467 3.75462 3.40924
# Velocity P-wave (km/s) = 6.44007 7.05113 6.75251
#
# Compressibility (1/GPa) = 0.01989027
#
# Stress axis : x y z
#
# Youngs Moduli (GPa) = 95.06007 65.05824 97.72381
#
# Poissons Ratio (x) = 0.10387 0.23813
# Poissons Ratio (y) = 0.15176 0.39903
# Poissons Ratio (z) = 0.23164 0.26565
#
# Static dielectric constant tensor:
#      x y z
#    x 1.577640 0.000000 0.000000 
#    y 0.000000 1.577660 0.000000 
#    z 0.000000 0.000000 1.567120 
# 
# From -- ./inp_files/32113.got.cif
#   From: 2010.05.17/outbox.cif.g08.bks.cpg/sg67_17_cif.got.tgz:32113.got - 2010.06.03 18:28:57.
