data_PCOD9501749
_publ_section_title
;
Structure prediction by ZEFSAII (Michael W. Deem and Ramdas Pophale) SiO2 
 PCOD9501749
Probable space group: C M M A
;
_chemical_formula_sum "Si O2"
_cell_formula_units_Z 96
_cell_length_a 25.128296
_cell_length_b 10.468758
_cell_length_c 23.519462
_cell_angle_alpha 90.000000
_cell_angle_beta 90.000000
_cell_angle_gamma 90.000000
_cell_volume 6187.077883
_symmetry_space_group_name_H-M "C M M A"
_symmetry_group_IT_number 67
_symmetry_cell_setting 'orthorhombic'
loop_
_space_group_symop_operation_xyz
x,y,z
-x,1/2-y,z
x,-y,-z
-x,1/2+y,-z
-x,-y,-z
x,1/2+y,-z
-x,y,z
x,1/2-y,z
1/2+x,1/2+y,z
1/2-x,-y,z
1/2+x,1/2-y,-z
1/2-x,y,-z
1/2-x,1/2-y,-z
1/2+x,y,-z
1/2-x,1/2+y,z
1/2+x,-y,z
loop_
_atom_site_type_symbol
_atom_site_label
_atom_site_fract_x
_atom_site_fract_y
_atom_site_fract_z
Si Si1 0.183517 0.250000 0.182752
Si Si2 0.435240 0.395820 0.454396
Si Si3 0.628862 0.750000 0.938242
Si Si4 0.875056 0.505382 0.216961
Si Si5 0.809602 0.250000 0.823863
Si Si6 0.122126 0.250000 0.065787
Si Si7 0.937378 0.096827 0.675907
Si Si8 0.936958 0.505101 0.100862
O O1 0.158171 0.375720 0.210895
O O2 0.246881 0.250000 0.185357
O O3 0.164536 0.250000 0.116873
O O4 0.416870 0.500000 0.500000
O O5 0.500000 0.394821 0.455601
O O6 0.418164 0.250000 0.466885
O O7 0.420879 0.428373 0.389322
O O8 0.674891 0.750000 0.890773
O O9 0.592687 0.625724 0.926748
O O10 0.647052 0.750000 0.003260
O O11 0.837073 0.625201 0.203025
O O12 0.902801 0.525285 0.277369
O O13 0.919686 0.504221 0.167211
O O14 0.085927 0.375411 0.073936
O O15 0.932678 0.250000 0.685010
O O16 0.000000 0.064888 0.681840
O O17 0.000000 0.514150 0.094548
#
# Coordination Sequence:
#
# PCOD9501749 Si02
#       8
#     8  16   8  16   8   8  16  16
#     4  10  22  36  51  68  95 122 148 200 261 296
#     4   8  14  25  41  64  97 135 168 193 221 259
#     4  10  21  33  50  73  89 113 163 197 225 286
#     4  10  19  34  50  72  96 121 160 199 238 291
#     4  10  20  36  55  70  87 118 156 204 251 288
#     4  10  21  35  48  67  95 123 151 189 237 294
#     4   9  16  28  49  73 100 135 167 196 228 269
#     4  10  20  32  48  69  96 127 152 186 233 279
#
# _framework density 15.516209999999999
#
# number of rings (size 3 to 8) (size 9 to 14) (size 15 to 20)
#    0.000    2.500    0.833    3.000    0.000    2.333 
#    1.500    1.250    0.000    6.000    0.000    0.000 
#    0.000    4.000    0.000    0.000    0.000    0.000 
#
# Total GULP energy -267661.055642 kJ/mol
# GULP energy per Si atom -5576.271993 kJ/mol
# Density = 1.548089 g / cm^3
# Si number density = 15.516210 Si / 1000 Ang^3
#
#
#
# Elastic Constant Matrix: (Units=GPa)
#
#
# Indices 1 2 3 4 5 6 
#
# 1 62.0947 34.0241 42.8469 0.0000 0.0000 0.0000
# 2 34.0241 122.8654 67.8170 0.0000 0.0000 0.0000
# 3 42.8469 67.8170 135.9857 0.0000 0.0000 0.0000
# 4 0.0000 0.0000 0.0000 44.6960 0.0000 0.0000
# 5 0.0000 0.0000 0.0000 0.0000 9.5318 0.0000
# 6 0.0000 0.0000 0.0000 0.0000 0.0000 3.8820
#
#
#
# Elastic Compliance Matrix: (Units=1/GPa)
#
#
# Indices 1 2 3 4 5 6 
#
# 1 0.021370 -0.003037 -0.005218 0.000000 0.000000 0.000000
# 2 -0.003037 0.011662 -0.004859 0.000000 0.000000 0.000000
# 3 -0.005218 -0.004859 0.011421 0.000000 0.000000 0.000000
# 4 0.000000 0.000000 0.000000 0.022373 0.000000 0.000000
# 5 0.000000 0.000000 0.000000 0.000000 0.104912 0.000000
# 6 0.000000 0.000000 0.000000 0.000000 0.000000 0.257596
#
#
# Mechanical properties :
#
#
# Convention : Reuss Voigt Hill
#
# Bulk Modulus (GPa) = 54.87472 67.81354 61.34413
# Shear Modulus (GPa) = 10.83101 23.37249 17.10175
#
# Velocity S-wave (km/s) = 2.64492 3.88535 3.32352
# Velocity P-wave (km/s) = 6.69106 7.99549 7.37218
#
# Compressibility (1/GPa) = 0.01822333
#
# Stress axis : x y z
#
# Youngs Moduli (GPa) = 46.79552 85.74841 87.55675
#
# Poissons Ratio (x) = 0.26044 0.45691
# Poissons Ratio (y) = 0.14213 0.42543
# Poissons Ratio (z) = 0.24420 0.41665
#
# Static dielectric constant tensor:
#      x y z
#    x 1.473880 0.000000 0.000000 
#    y 0.000000 1.515890 0.000000 
#    z 0.000000 0.000000 1.517930 
# 
# From -- ./inp_files/39337.got.cif
#   From: 2010.05.17/outbox.cif.g08.bks.cpg/sg67_20_cif.got.tgz:39337.got - 2010.06.03 18:28:57.
