data_PCOD9501698
_publ_section_title
;
Structure prediction by ZEFSAII (Michael W. Deem and Ramdas Pophale) SiO2 
 PCOD9501698
Probable space group: C M M A
;
_chemical_formula_sum "Si O2"
_cell_formula_units_Z 80
_cell_length_a 18.303516
_cell_length_b 10.629692
_cell_length_c 23.266530
_cell_angle_alpha 90.000000
_cell_angle_beta 90.000000
_cell_angle_gamma 90.000000
_cell_volume 4526.753238
_symmetry_space_group_name_H-M "C M M A"
_symmetry_group_IT_number 67
_symmetry_cell_setting 'orthorhombic'
loop_
_space_group_symop_operation_xyz
x,y,z
-x,1/2-y,z
x,-y,-z
-x,1/2+y,-z
-x,-y,-z
x,1/2+y,-z
-x,y,z
x,1/2-y,z
1/2+x,1/2+y,z
1/2-x,-y,z
1/2+x,1/2-y,-z
1/2-x,y,-z
1/2-x,1/2-y,-z
1/2+x,y,-z
1/2-x,1/2+y,z
1/2+x,-y,z
loop_
_atom_site_type_symbol
_atom_site_label
_atom_site_fract_x
_atom_site_fract_y
_atom_site_fract_z
Si Si1 0.412395 0.750000 0.921058
Si Si2 0.670730 0.750000 0.034921
Si Si3 0.691043 0.104707 0.666000
Si Si4 0.669126 0.384322 0.529833
Si Si5 0.663934 0.510735 0.120548
Si Si6 0.081704 0.099669 0.233875
O O1 0.500000 0.750000 0.909972
O O2 0.372816 0.621719 0.898635
O O3 0.393462 0.750000 0.988387
O O4 0.660938 0.624211 0.073557
O O5 0.750000 0.750000 0.000000
O O6 0.714420 0.250000 0.677142
O O7 0.677014 0.096132 0.597768
O O8 0.621496 0.078186 0.705632
O O9 0.750000 0.000000 0.681250
O O10 0.630165 0.500000 0.500000
O O11 0.633470 0.250000 0.519661
O O12 0.750000 0.378027 0.500000
O O13 0.750000 0.500000 0.131296
O O14 0.625572 0.548542 0.179732
O O15 0.078558 0.250000 0.226771
O O16 0.000000 0.048019 0.234008
#
# Coordination Sequence:
#
# PCOD9501698 Si02
#       6
#     8   8  16  16  16  16
#     4  12  28  42  64 102 136 160 200 257 318 372
#     4  12  24  44  68  96 126 162 204 255 302 360
#     4  10  19  33  55  84 113 146 192 241 293 341
#     4   9  15  25  46  76 111 143 177 235 287 333
#     4  12  23  43  70  90 123 164 204 254 309 361
#     4  10  22  40  60  84 115 153 204 249 292 356
#
# _framework density 17.672712000000001
#
# number of rings (size 3 to 8) (size 9 to 14) (size 15 to 20)
#    0.000    1.400    5.000    1.800    0.000    2.400 
#    1.800    0.000    0.000    0.600    0.000    0.000 
#    0.000    0.000    0.000    0.000    0.000    0.000 
#
# Total GULP energy -222862.286846 kJ/mol
# GULP energy per Si atom -5571.557171 kJ/mol
# Density = 1.763249 g / cm^3
# Si number density = 17.672712 Si / 1000 Ang^3
#
#
#
# Elastic Constant Matrix: (Units=GPa)
#
#
# Indices 1 2 3 4 5 6 
#
# 1 125.7066 67.0402 67.5324 0.0000 0.0000 0.0000
# 2 67.0402 123.7715 52.4650 0.0000 0.0000 0.0000
# 3 67.5324 52.4650 132.4987 0.0000 0.0000 0.0000
# 4 0.0000 0.0000 0.0000 25.9642 0.0000 0.0000
# 5 0.0000 0.0000 0.0000 0.0000 6.3475 0.0000
# 6 0.0000 0.0000 0.0000 0.0000 0.0000 8.2933
#
#
#
# Elastic Compliance Matrix: (Units=1/GPa)
#
#
# Indices 1 2 3 4 5 6 
#
# 1 0.013242 -0.005181 -0.004698 0.000000 0.000000 0.000000
# 2 -0.005181 0.011736 -0.002006 0.000000 0.000000 0.000000
# 3 -0.004698 -0.002006 0.010736 0.000000 0.000000 0.000000
# 4 0.000000 0.000000 0.000000 0.038515 0.000000 0.000000
# 5 0.000000 0.000000 0.000000 0.000000 0.157543 0.000000
# 6 0.000000 0.000000 0.000000 0.000000 0.000000 0.120580
#
#
# Mechanical properties :
#
#
# Convention : Reuss Voigt Hill
#
# Bulk Modulus (GPa) = 83.72551 84.00578 83.86564
# Shear Modulus (GPa) = 13.15432 21.11694 17.13563
#
# Velocity S-wave (km/s) = 2.73120 3.46047 3.11723
# Velocity P-wave (km/s) = 7.57789 7.97520 7.77908
#
# Compressibility (1/GPa) = 0.01194379
#
# Stress axis : x y z
#
# Youngs Moduli (GPa) = 75.51851 85.20634 93.14455
#
# Poissons Ratio (x) = 0.44146 0.43755
# Poissons Ratio (y) = 0.39127 0.18689
# Poissons Ratio (z) = 0.35475 0.17096
#
# Static dielectric constant tensor:
#      x y z
#    x 1.598050 0.000000 0.000000 
#    y 0.000000 1.662220 0.000000 
#    z 0.000000 0.000000 1.598890 
# 
# From -- ./inp_files/38872.got.cif
#   From: 2010.05.17/outbox.cif.g08.bks.cpg/sg67_20_cif.got.tgz:38872.got - 2010.06.03 18:28:57.
