data_PCOD9501182
_publ_section_title
;
Structure prediction by ZEFSAII (Michael W. Deem and Ramdas Pophale) SiO2 
 PCOD9501182
Probable space group: C M M A
;
_chemical_formula_sum "Si O2"
_cell_formula_units_Z 72
_cell_length_a 10.433584
_cell_length_b 27.107240
_cell_length_c 13.819111
_cell_angle_alpha 90.000000
_cell_angle_beta 90.000000
_cell_angle_gamma 90.000000
_cell_volume 3908.399266
_symmetry_space_group_name_H-M "C M M A"
_symmetry_group_IT_number 67
_symmetry_cell_setting 'orthorhombic'
loop_
_space_group_symop_operation_xyz
x,y,z
-x,1/2-y,z
x,-y,-z
-x,1/2+y,-z
-x,-y,-z
x,1/2+y,-z
-x,y,z
x,1/2-y,z
1/2+x,1/2+y,z
1/2-x,-y,z
1/2+x,1/2-y,-z
1/2-x,y,-z
1/2-x,1/2-y,-z
1/2+x,y,-z
1/2-x,1/2+y,z
1/2+x,-y,z
loop_
_atom_site_type_symbol
_atom_site_label
_atom_site_fract_x
_atom_site_fract_y
_atom_site_fract_z
Si Si1 0.154120 0.651334 0.211561
Si Si2 0.843481 0.750000 0.091770
Si Si3 0.363084 0.052568 0.443719
Si Si4 0.651373 0.457849 0.212183
Si Si5 0.650015 0.193260 0.413494
O O1 0.187956 0.699713 0.150509
O O2 0.193759 0.596771 0.177643
O O3 0.189686 0.659368 0.323486
O O4 0.000000 0.649667 0.211943
O O5 0.000000 0.750000 0.073497
O O6 0.750000 0.750000 0.000000
O O7 0.500000 0.077546 0.455013
O O8 0.250000 0.079290 0.500000
O O9 0.342495 0.043999 0.330219
O O10 0.372364 0.000000 0.500000
O O11 0.500000 0.466584 0.188520
O O12 0.750000 0.500000 0.179596
O O13 0.500000 0.185705 0.439871
O O14 0.655457 0.250000 0.376883
O O15 0.750000 0.189611 0.500000
#
# Coordination Sequence:
#
# PCOD9501182 Si02
#       5
#    16   8  16  16  16
#     4   9  18  34  57  79 106 147 186 217 267 339
#     4  10  20  40  67  90 108 130 171 228 287 344
#     4   9  15  24  38  57  89 131 179 224 253 281
#     4  10  19  31  47  70 102 142 181 216 257 308
#     4   9  16  29  48  71 103 144 184 220 259 312
#
# _framework density 18.421865
#
# number of rings (size 3 to 8) (size 9 to 14) (size 15 to 20)
#    0.000    2.667    3.333    0.000    0.000    0.889 
#    0.000    3.333    0.000    0.667    0.000    4.667 
#    0.000    0.000    0.000    0.000    0.000    0.000 
#
# Total GULP energy -200410.716332 kJ/mol
# GULP energy per Si atom -5566.964343 kJ/mol
# Density = 1.837994 g / cm^3
# Si number density = 18.421865 Si / 1000 Ang^3
#
#
#
# Elastic Constant Matrix: (Units=GPa)
#
#
# Indices 1 2 3 4 5 6 
#
# 1 102.6162 35.8270 26.1743 0.0000 0.0000 0.0000
# 2 35.8270 166.0074 26.8503 0.0000 0.0000 0.0000
# 3 26.1743 26.8503 46.0736 0.0000 0.0000 0.0000
# 4 0.0000 0.0000 0.0000 8.2823 0.0000 0.0000
# 5 0.0000 0.0000 0.0000 0.0000 21.7332 0.0000
# 6 0.0000 0.0000 0.0000 0.0000 0.0000 11.2990
#
#
#
# Elastic Compliance Matrix: (Units=1/GPa)
#
#
# Indices 1 2 3 4 5 6 
#
# 1 0.011774 -0.001611 -0.005750 0.000000 0.000000 0.000000
# 2 -0.001611 0.006871 -0.003089 0.000000 0.000000 0.000000
# 3 -0.005750 -0.003089 0.026771 0.000000 0.000000 0.000000
# 4 0.000000 0.000000 0.000000 0.120740 0.000000 0.000000
# 5 0.000000 0.000000 0.000000 0.000000 0.046013 0.000000
# 6 0.000000 0.000000 0.000000 0.000000 0.000000 0.088504
#
#
# Mechanical properties :
#
#
# Convention : Reuss Voigt Hill
#
# Bulk Modulus (GPa) = 40.78925 54.71115 47.75020
# Shear Modulus (GPa) = 15.16323 23.31926 19.24125
#
# Velocity S-wave (km/s) = 2.87210 3.56173 3.23535
# Velocity P-wave (km/s) = 5.76094 6.83214 6.31928
#
# Compressibility (1/GPa) = 0.02451626
#
# Stress axis : x y z
#
# Youngs Moduli (GPa) = 84.93158 145.53615 37.35359
#
# Poissons Ratio (x) = 0.23446 0.21478
# Poissons Ratio (y) = 0.13683 0.11539
# Poissons Ratio (z) = 0.48836 0.44957
#
# Static dielectric constant tensor:
#      x y z
#    x 1.669450 0.000000 0.000000 
#    y 0.000000 1.731320 0.000000 
#    z 0.000000 0.000000 1.605190 
# 
# From -- ./inp_files/16610.got.cif
#   From: 2010.05.17/outbox.cif.g08.bks.cpg/sg67_9_cif.got.tgz:16610.got - 2010.06.03 18:28:57.
