data_PCOD9501436
_publ_section_title
;
Structure prediction by ZEFSAII (Michael W. Deem and Ramdas Pophale) SiO2 
 PCOD9501436
Probable space group: C M M A
;
_chemical_formula_sum "Si O2"
_cell_formula_units_Z 64
_cell_length_a 25.370281
_cell_length_b 15.216191
_cell_length_c 7.670709
_cell_angle_alpha 90.000000
_cell_angle_beta 90.000000
_cell_angle_gamma 90.000000
_cell_volume 2961.193149
_symmetry_space_group_name_H-M "C M M A"
_symmetry_group_IT_number 67
_symmetry_cell_setting 'orthorhombic'
loop_
_space_group_symop_operation_xyz
x,y,z
-x,1/2-y,z
x,-y,-z
-x,1/2+y,-z
-x,-y,-z
x,1/2+y,-z
-x,y,z
x,1/2-y,z
1/2+x,1/2+y,z
1/2-x,-y,z
1/2+x,1/2-y,-z
1/2-x,y,-z
1/2-x,1/2-y,-z
1/2+x,y,-z
1/2-x,1/2+y,z
1/2+x,-y,z
loop_
_atom_site_type_symbol
_atom_site_label
_atom_site_fract_x
_atom_site_fract_y
_atom_site_fract_z
Si Si1 0.612948 0.150159 0.676998
Si Si2 0.689315 0.500679 0.285596
Si Si3 0.610717 0.350462 0.260863
Si Si4 0.500000 0.652849 0.249406
Si Si5 0.500000 0.409500 0.112221
O O1 0.613362 0.250000 0.746521
O O2 0.657433 0.089175 0.757772
O O3 0.618012 0.155258 0.469336
O O4 0.555026 0.109063 0.704085
O O5 0.688565 0.500000 0.500000
O O6 0.750000 0.500000 0.231992
O O7 0.656620 0.418548 0.209601
O O8 0.614053 0.250000 0.193216
O O9 0.553591 0.391915 0.217860
O O10 0.500000 0.750000 0.335735
O O11 0.500000 0.660256 0.043435
O O12 0.500000 0.500000 0.000000
#
# Coordination Sequence:
#
# PCOD9501436 Si02
#       5
#    16  16  16   8   8
#     4   9  18  33  55  80 108 141 176 217 266 317
#     4   9  18  32  51  78 108 138 179 225 263 307
#     4  10  20  35  55  80 110 143 176 216 267 321
#     4  10  19  32  51  76 103 132 168 212 259 312
#     4  12  23  34  52  78 107 140 175 218 269 320
#
# _framework density 21.612911
#
# number of rings (size 3 to 8) (size 9 to 14) (size 15 to 20)
#    0.000    2.250    0.000    3.375    0.000    3.000 
#    0.000   10.000    0.000    6.750    0.000   10.500 
#    0.000    0.000    0.000    0.000    0.000    0.000 
#
# Total GULP energy -178491.998896 kJ/mol
# GULP energy per Si atom -5577.874965 kJ/mol
# Density = 2.156372 g / cm^3
# Si number density = 21.612911 Si / 1000 Ang^3
#
#
#
# Elastic Constant Matrix: (Units=GPa)
#
#
# Indices 1 2 3 4 5 6 
#
# 1 224.5457 106.9578 -0.3617 0.0000 0.0000 0.0000
# 2 106.9578 179.8783 12.0164 0.0000 0.0000 0.0000
# 3 -0.3617 12.0164 34.4049 0.0000 0.0000 0.0000
# 4 0.0000 0.0000 0.0000 13.6189 0.0000 0.0000
# 5 0.0000 0.0000 0.0000 0.0000 -53.5841 0.0000
# 6 0.0000 0.0000 0.0000 0.0000 0.0000 38.8525
#
#
#
# Elastic Compliance Matrix: (Units=1/GPa)
#
#
# Indices 1 2 3 4 5 6 
#
# 1 0.006279 -0.003827 0.001403 0.000000 0.000000 0.000000
# 2 -0.003827 0.008025 -0.002843 0.000000 0.000000 0.000000
# 3 0.001403 -0.002843 0.030073 0.000000 0.000000 0.000000
# 4 0.000000 0.000000 0.000000 0.073427 0.000000 0.000000
# 5 0.000000 0.000000 0.000000 0.000000 -0.018662 0.000000
# 6 0.000000 0.000000 0.000000 0.000000 0.000000 0.025738
#
#
# Mechanical properties :
#
#
# Convention : Reuss Voigt Hill
#
# Bulk Modulus (GPa) = 29.54912 75.11712 52.33312
# Shear Modulus (GPa) = 34.08412 21.12521 27.60467
#
# Velocity S-wave (km/s) = 3.97549 3.12979 3.57771
# Velocity P-wave (km/s) = 5.89698 6.92040 6.42908
#
# Compressibility (1/GPa) = 0.03384195
#
# Stress axis : x y z
#
# Youngs Moduli (GPa) = 159.27021 124.61283 33.25208
#
# Poissons Ratio (x) = 0.47690 -0.04664
# Poissons Ratio (y) = 0.60954 0.09454
# Poissons Ratio (z) = -0.22340 0.35428
#
# Static dielectric constant tensor:
#      x y z
#    x 1.769670 0.000000 0.000000 
#    y 0.000000 1.858550 0.000000 
#    z 0.000000 0.000000 1.800990 
# 
# From -- ./inp_files/8042.got.cif
#   From: 2010.05.17/outbox.cif.g08.bks.cpg/sg67_5_cif.got.tgz:8042.got - 2010.06.03 18:28:57.
