data_PCOD9501636
_publ_section_title
;
Structure prediction by ZEFSAII (Michael W. Deem and Ramdas Pophale) SiO2 
 PCOD9501636
Probable space group: C M M A
;
_chemical_formula_sum "Si O2"
_cell_formula_units_Z 116
_cell_length_a 23.656911
_cell_length_b 14.588118
_cell_length_c 18.558015
_cell_angle_alpha 90.000000
_cell_angle_beta 90.000000
_cell_angle_gamma 90.000000
_cell_volume 6404.553015
_symmetry_space_group_name_H-M "C M M A"
_symmetry_group_IT_number 67
_symmetry_cell_setting 'orthorhombic'
loop_
_space_group_symop_operation_xyz
x,y,z
-x,1/2-y,z
x,-y,-z
-x,1/2+y,-z
-x,-y,-z
x,1/2+y,-z
-x,y,z
x,1/2-y,z
1/2+x,1/2+y,z
1/2-x,-y,z
1/2+x,1/2-y,-z
1/2-x,y,-z
1/2-x,1/2-y,-z
1/2+x,y,-z
1/2-x,1/2+y,z
1/2+x,-y,z
loop_
_atom_site_type_symbol
_atom_site_label
_atom_site_fract_x
_atom_site_fract_y
_atom_site_fract_z
Si Si1 0.903904 0.518920 0.924703
Si Si2 0.870642 0.147988 0.736603
Si Si3 0.724318 0.858678 0.618760
Si Si4 0.824718 0.353850 0.891705
Si Si5 0.063779 0.534450 0.762539
Si Si6 0.699552 0.139793 0.893588
Si Si7 0.750000 0.500000 0.500000
Si Si8 0.174300 0.640063 0.728396
O O1 0.873830 0.422340 0.910457
O O2 0.933489 0.547102 0.849976
O O3 0.851840 0.590526 0.933316
O O4 0.935118 0.500000 0.000000
O O5 0.895828 0.250000 0.734452
O O6 0.831023 0.133278 0.668117
O O7 0.827682 0.147254 0.804639
O O8 0.916589 0.069509 0.747152
O O9 0.730234 0.750000 0.599070
O O10 0.718640 0.928712 0.552925
O O11 0.779558 0.884477 0.667568
O O12 0.833916 0.250000 0.917064
O O13 0.762938 0.384798 0.916514
O O14 0.112251 0.595360 0.724652
O O15 0.000000 0.552686 0.738661
O O16 0.694764 0.250000 0.898639
O O17 0.694520 0.113146 0.808979
O O18 0.169826 0.750000 0.727262
#
# Coordination Sequence:
#
# PCOD9501636 Si02
#       8
#    16  16  16  16  16  16   4  16
#     4  10  21  32  42  61  92 130 165 198 248 312
#     4   9  17  32  54  75  98 129 165 209 255 295
#     4  10  19  33  53  80 111 143 169 192 239 298
#     4   9  16  28  47  69  91 118 158 206 251 297
#     4  10  21  34  50  73  96 125 171 220 260 297
#     4   9  16  28  47  69  91 118 158 206 251 297
#     4  12  22  28  44  82 130 156 160 180 216 288
#     4   9  17  32  54  75  98 129 165 209 255 295
#
# _framework density 18.112113999999998
#
# number of rings (size 3 to 8) (size 9 to 14) (size 15 to 20)
#    0.000    2.483    1.379    1.448    0.000    2.483 
#    0.000    1.379    0.000    0.000    0.000   15.448 
#    0.000   17.655    0.000    0.000    0.000    0.000 
#
# Total GULP energy -323258.106551 kJ/mol
# GULP energy per Si atom -5573.415630 kJ/mol
# Density = 1.807089 g / cm^3
# Si number density = 18.112114 Si / 1000 Ang^3
#
#
#
# Elastic Constant Matrix: (Units=GPa)
#
#
# Indices 1 2 3 4 5 6 
#
# 1 62.4428 5.6652 -5.0178 0.0000 0.0000 0.0000
# 2 5.6652 35.2803 15.4264 0.0000 0.0000 0.0000
# 3 -5.0178 15.4264 68.5340 0.0000 0.0000 0.0000
# 4 0.0000 0.0000 0.0000 15.3101 0.0000 0.0000
# 5 0.0000 0.0000 0.0000 0.0000 2.8241 0.0000
# 6 0.0000 0.0000 0.0000 0.0000 0.0000 8.4896
#
#
#
# Elastic Compliance Matrix: (Units=1/GPa)
#
#
# Indices 1 2 3 4 5 6 
#
# 1 0.016495 -0.003524 0.002001 0.000000 0.000000 0.000000
# 2 -0.003524 0.032191 -0.007504 0.000000 0.000000 0.000000
# 3 0.002001 -0.007504 0.016427 0.000000 0.000000 0.000000
# 4 0.000000 0.000000 0.000000 0.065317 0.000000 0.000000
# 5 0.000000 0.000000 0.000000 0.000000 0.354099 0.000000
# 6 0.000000 0.000000 0.000000 0.000000 0.000000 0.117792
#
#
# Mechanical properties :
#
#
# Convention : Reuss Voigt Hill
#
# Bulk Modulus (GPa) = 21.24953 22.04496 21.64724
# Shear Modulus (GPa) = 7.86089 15.33697 11.59893
#
# Velocity S-wave (km/s) = 2.08556 2.91310 2.53335
# Velocity P-wave (km/s) = 4.19012 4.84899 4.53155
#
# Compressibility (1/GPa) = 0.04705987
#
# Stress axis : x y z
#
# Youngs Moduli (GPa) = 60.62399 31.06428 60.87594
#
# Poissons Ratio (x) = 0.10946 -0.12180
# Poissons Ratio (y) = 0.21362 0.45681
# Poissons Ratio (z) = -0.12130 0.23310
#
# Static dielectric constant tensor:
#      x y z
#    x 1.593600 0.000000 0.000000 
#    y 0.000000 1.652720 0.000000 
#    z 0.000000 0.000000 1.666260 
# 
# From -- ./inp_files/35986.got.cif
#   From: 2010.05.17/outbox.cif.g08.bks.cpg/sg67_18_cif.got.tgz:35986.got - 2010.06.03 18:28:57.
