data_PCOD9501888
_publ_section_title
;
Structure prediction by ZEFSAII (Michael W. Deem and Ramdas Pophale) SiO2 
 PCOD9501888
Probable space group: C M M A
;
_chemical_formula_sum "Si O2"
_cell_formula_units_Z 88
_cell_length_a 14.839353
_cell_length_b 26.549095
_cell_length_c 11.667713
_cell_angle_alpha 90.000000
_cell_angle_beta 90.000000
_cell_angle_gamma 90.000000
_cell_volume 4596.745138
_symmetry_space_group_name_H-M "C M M A"
_symmetry_group_IT_number 67
_symmetry_cell_setting 'orthorhombic'
loop_
_space_group_symop_operation_xyz
x,y,z
-x,1/2-y,z
x,-y,-z
-x,1/2+y,-z
-x,-y,-z
x,1/2+y,-z
-x,y,z
x,1/2-y,z
1/2+x,1/2+y,z
1/2-x,-y,z
1/2+x,1/2-y,-z
1/2-x,y,-z
1/2-x,1/2-y,-z
1/2+x,y,-z
1/2-x,1/2+y,z
1/2+x,-y,z
loop_
_atom_site_type_symbol
_atom_site_label
_atom_site_fract_x
_atom_site_fract_y
_atom_site_fract_z
Si Si1 0.000000 0.100843 0.358834
Si Si2 0.166264 0.853306 0.766381
Si Si3 0.810866 0.960368 0.884465
Si Si4 0.819773 0.648576 0.407765
Si Si5 0.500000 0.005435 0.807291
Si Si6 0.392209 0.250000 0.523791
Si Si7 0.606460 0.750000 0.203978
Si Si8 0.500000 0.086115 0.376440
O O1 0.086296 0.135129 0.326294
O O2 0.000000 0.077021 0.485256
O O3 0.000000 0.053971 0.274581
O O4 0.176440 0.905028 0.834842
O O5 0.258262 0.842314 0.701723
O O6 0.141518 0.803820 0.838716
O O7 0.750000 0.000000 0.812133
O O8 0.750000 0.953602 0.000000
O O9 0.908852 0.987169 0.881044
O O10 0.750000 0.623445 0.500000
O O11 0.852271 0.700526 0.464489
O O12 0.907039 0.617438 0.368851
O O13 0.500000 0.957452 0.720643
O O14 0.500000 0.250000 0.511257
O O15 0.371743 0.250000 0.659260
O O16 0.500000 0.750000 0.190928
#
# Coordination Sequence:
#
# PCOD9501888 Si02
#       8
#     8  16  16  16   8   8   8   8
#     4  10  19  35  55  86 130 163 207 232 293 394
#     4  11  21  36  59  92 124 166 210 258 309 372
#     4  10  23  45  68  90 114 153 218 274 326 387
#     4  12  21  32  53  81 126 169 209 244 288 359
#     4  10  23  39  64  90 120 154 199 267 325 367
#     4  11  20  34  50  82 123 178 217 233 277 364
#     4  11  19  31  58  91 126 164 206 251 304 380
#     4  12  21  35  53  88 128 169 199 245 314 374
#
# _framework density 19.143979999999999
#
# number of rings (size 3 to 8) (size 9 to 14) (size 15 to 20)
#    0.000    1.091    5.455    2.182    0.000    1.455 
#    0.000    1.364    0.000    0.000    0.000    0.000 
#    0.000    0.000    0.000    0.000    0.000    0.000 
#
# Total GULP energy -245106.582237 kJ/mol
# GULP energy per Si atom -5570.604142 kJ/mol
# Density = 1.910041 g / cm^3
# Si number density = 19.143980 Si / 1000 Ang^3
#
#
#
# Elastic Constant Matrix: (Units=GPa)
#
#
# Indices 1 2 3 4 5 6 
#
# 1 163.6471 53.5634 31.6634 0.0000 0.0000 0.0000
# 2 53.5634 144.3360 28.5351 0.0000 0.0000 0.0000
# 3 31.6634 28.5351 50.2091 0.0000 0.0000 0.0000
# 4 0.0000 0.0000 0.0000 16.8926 0.0000 0.0000
# 5 0.0000 0.0000 0.0000 0.0000 22.3951 0.0000
# 6 0.0000 0.0000 0.0000 0.0000 0.0000 30.7014
#
#
#
# Elastic Compliance Matrix: (Units=1/GPa)
#
#
# Indices 1 2 3 4 5 6 
#
# 1 0.007474 -0.002075 -0.003534 0.000000 0.000000 0.000000
# 2 -0.002075 0.008381 -0.003455 0.000000 0.000000 0.000000
# 3 -0.003534 -0.003455 0.024109 0.000000 0.000000 0.000000
# 4 0.000000 0.000000 0.000000 0.059198 0.000000 0.000000
# 5 0.000000 0.000000 0.000000 0.000000 0.044653 0.000000
# 6 0.000000 0.000000 0.000000 0.000000 0.000000 0.032572
#
#
# Mechanical properties :
#
#
# Convention : Reuss Voigt Hill
#
# Bulk Modulus (GPa) = 45.79490 65.07955 55.43723
# Shear Modulus (GPa) = 24.77803 30.29317 27.53560
#
# Velocity S-wave (km/s) = 3.60154 3.98224 3.79666
# Velocity P-wave (km/s) = 6.42402 7.43054 6.94553
#
# Compressibility (1/GPa) = 0.02183649
#
# Stress axis : x y z
#
# Youngs Moduli (GPa) = 133.80472 119.31374 41.47872
#
# Poissons Ratio (x) = 0.24755 0.14658
# Poissons Ratio (y) = 0.27762 0.14330
# Poissons Ratio (z) = 0.47285 0.41221
#
# Static dielectric constant tensor:
#      x y z
#    x 1.709710 0.000000 0.000000 
#    y 0.000000 1.713460 0.000000 
#    z 0.000000 0.000000 1.700840 
# 
# From -- ./inp_files/18389.got.cif
#   From: 2010.05.17/outbox.cif.g08.bks.cpg/sg67_10_cif.got.tgz:18389.got - 2010.06.03 18:28:57.
