data_PCOD9501398
_publ_section_title
;
Structure prediction by ZEFSAII (Michael W. Deem and Ramdas Pophale) SiO2 
 PCOD9501398
Probable space group: C M M A
;
_chemical_formula_sum "Si O2"
_cell_formula_units_Z 96
_cell_length_a 19.142322
_cell_length_b 7.679556
_cell_length_c 32.804477
_cell_angle_alpha 90.000000
_cell_angle_beta 90.000000
_cell_angle_gamma 90.000000
_cell_volume 4822.406847
_symmetry_space_group_name_H-M "C M M A"
_symmetry_group_IT_number 67
_symmetry_cell_setting 'orthorhombic'
loop_
_space_group_symop_operation_xyz
x,y,z
-x,1/2-y,z
x,-y,-z
-x,1/2+y,-z
-x,-y,-z
x,1/2+y,-z
-x,y,z
x,1/2-y,z
1/2+x,1/2+y,z
1/2-x,-y,z
1/2+x,1/2-y,-z
1/2-x,y,-z
1/2-x,1/2-y,-z
1/2+x,y,-z
1/2-x,1/2+y,z
1/2+x,-y,z
loop_
_atom_site_type_symbol
_atom_site_label
_atom_site_fract_x
_atom_site_fract_y
_atom_site_fract_z
Si Si1 0.832251 0.540376 0.299057
Si Si2 0.079867 0.459315 0.954922
Si Si3 0.919371 0.463944 0.622791
Si Si4 0.832632 0.040985 0.789801
Si Si5 0.667901 0.540140 0.878379
Si Si6 0.668487 0.544564 0.546234
O O1 0.837965 0.750000 0.298342
O O2 0.750000 0.500000 0.304166
O O3 0.877292 0.477496 0.337155
O O4 0.857201 0.475268 0.254410
O O5 0.077429 0.250000 0.951692
O O6 0.125486 0.526258 0.917289
O O7 0.000000 0.525065 0.952855
O O8 0.108037 0.500000 0.000000
O O9 0.918358 0.250000 0.622827
O O10 0.879705 0.527614 0.582192
O O11 0.000000 0.516790 0.623479
O O12 0.841830 0.250000 0.789730
O O13 0.858311 0.975819 0.833876
O O14 0.750000 0.000000 0.789974
O O15 0.661449 0.750000 0.877833
O O16 0.750000 0.500000 0.882225
O O17 0.647970 0.500000 0.500000
O O18 0.663595 0.750000 0.549350
O O19 0.750000 0.500000 0.551943
#
# Coordination Sequence:
#
# PCOD9501398 Si02
#       6
#    16  16  16  16  16  16
#     4   9  16  28  48  69  89 116 150 184 216 257
#     4   9  18  32  47  62  84 115 148 181 217 259
#     4   9  18  31  46  67  95 123 149 181 223 265
#     4   8  14  25  42  65  89 113 142 176 216 259
#     4   9  17  29  45  66  91 115 142 179 221 262
#     4  10  19  32  51  71  92 118 150 188 224 262
#
# _framework density 19.907071999999999
#
# number of rings (size 3 to 8) (size 9 to 14) (size 15 to 20)
#    0.000    3.000    0.000    1.500    0.000    1.333 
#    0.000    3.333    0.000    9.000    0.000    0.000 
#    0.000   13.333    0.000    0.000    0.000    0.000 
#
# Total GULP energy -267459.094472 kJ/mol
# GULP energy per Si atom -5572.064468 kJ/mol
# Density = 1.986176 g / cm^3
# Si number density = 19.907072 Si / 1000 Ang^3
#
#
#
# Elastic Constant Matrix: (Units=GPa)
#
#
# Indices 1 2 3 4 5 6 
#
# 1 80.0057 1.0164 113.3036 0.0000 0.0000 0.0000
# 2 1.0164 36.6717 9.7701 0.0000 0.0000 0.0000
# 3 113.3036 9.7701 265.9783 0.0000 0.0000 0.0000
# 4 0.0000 0.0000 0.0000 16.8914 0.0000 0.0000
# 5 0.0000 0.0000 0.0000 0.0000 -7.8415 0.0000
# 6 0.0000 0.0000 0.0000 0.0000 0.0000 12.3761
#
#
#
# Elastic Compliance Matrix: (Units=1/GPa)
#
#
# Indices 1 2 3 4 5 6 
#
# 1 0.031779 0.002753 -0.013639 0.000000 0.000000 0.000000
# 2 0.002753 0.027777 -0.002193 0.000000 0.000000 0.000000
# 3 -0.013639 -0.002193 0.009650 0.000000 0.000000 0.000000
# 4 0.000000 0.000000 0.000000 0.059202 0.000000 0.000000
# 5 0.000000 0.000000 0.000000 0.000000 -0.127527 0.000000
# 6 0.000000 0.000000 0.000000 0.000000 0.000000 0.080801
#
#
# Mechanical properties :
#
#
# Convention : Reuss Voigt Hill
#
# Bulk Modulus (GPa) = 23.22957 70.09288 46.66123
# Shear Modulus (GPa) = 40.92041 21.52292 31.22167
#
# Velocity S-wave (km/s) = 4.53876 3.29168 3.96456
# Velocity P-wave (km/s) = 6.25791 7.05219 6.66689
#
# Compressibility (1/GPa) = 0.04304857
#
# Stress axis : x y z
#
# Youngs Moduli (GPa) = 31.46723 36.00106 103.62531
#
# Poissons Ratio (x) = -0.09910 1.41331
# Poissons Ratio (y) = -0.08662 0.22725
# Poissons Ratio (z) = 0.42917 0.07895
#
# Static dielectric constant tensor:
#      x y z
#    x 1.684710 0.000000 0.000000 
#    y 0.000000 1.748980 0.000000 
#    z 0.000000 0.000000 1.767300 
# 
# From -- ./inp_files/44740.got.cif
#   From: 2010.05.17/outbox.cif.g08.bks.cpg/sg67_23_cif.got.tgz:44740.got - 2010.06.03 18:28:57.
