data_PCOD9501949
_publ_section_title
;
Structure prediction by ZEFSAII (Michael W. Deem and Ramdas Pophale) SiO2 
 PCOD9501949
Probable space group: C M M A
;
_chemical_formula_sum "Si O2"
_cell_formula_units_Z 96
_cell_length_a 19.914669
_cell_length_b 15.187590
_cell_length_c 15.385672
_cell_angle_alpha 90.000000
_cell_angle_beta 90.000000
_cell_angle_gamma 90.000000
_cell_volume 4653.486160
_symmetry_space_group_name_H-M "C M M A"
_symmetry_group_IT_number 67
_symmetry_cell_setting 'orthorhombic'
loop_
_space_group_symop_operation_xyz
x,y,z
-x,1/2-y,z
x,-y,-z
-x,1/2+y,-z
-x,-y,-z
x,1/2+y,-z
-x,y,z
x,1/2-y,z
1/2+x,1/2+y,z
1/2-x,-y,z
1/2+x,1/2-y,-z
1/2-x,y,-z
1/2-x,1/2-y,-z
1/2+x,y,-z
1/2-x,1/2+y,z
1/2+x,-y,z
loop_
_atom_site_type_symbol
_atom_site_label
_atom_site_fract_x
_atom_site_fract_y
_atom_site_fract_z
Si Si1 0.082061 0.750000 0.608458
Si Si2 0.193022 0.434373 0.641316
Si Si3 0.687231 0.250000 0.065070
Si Si4 0.075822 0.445438 0.385348
Si Si5 0.580653 0.250000 0.918238
Si Si6 0.812109 0.559462 0.150336
Si Si7 0.921603 0.571347 0.823182
Si Si8 0.240959 0.750000 0.603194
O O1 0.083334 0.650633 0.569785
O O2 0.163130 0.750000 0.638223
O O3 0.000000 0.750000 0.645612
O O4 0.250000 0.500000 0.608423
O O5 0.125852 0.473866 0.598930
O O6 0.189051 0.442676 0.745273
O O7 0.218690 0.336609 0.629342
O O8 0.690227 0.340794 0.118481
O O9 0.750000 0.250000 0.000000
O O10 0.619544 0.250000 0.008363
O O11 0.086106 0.423615 0.281727
O O12 0.000000 0.475575 0.397710
O O13 0.500000 0.250000 0.928439
O O14 0.600218 0.336038 0.863491
O O15 0.750000 0.500000 0.117927
O O16 0.880017 0.506130 0.131702
O O17 0.000000 0.558710 0.839585
O O18 0.250000 0.750000 0.500000
#
# Coordination Sequence:
#
# PCOD9501949 Si02
#       8
#     8  16   8  16   8  16  16   8
#     4  10  19  35  60  92 123 152 193 242 288 333
#     4  10  20  39  61  86 114 148 195 241 292 350
#     4  12  25  38  50  75 111 149 191 235 287 352
#     4   9  17  33  60  90 118 150 193 248 295 337
#     4  10  21  35  53  80 113 151 191 242 297 346
#     4  10  22  38  58  80 105 146 190 240 288 337
#     4   9  18  34  56  83 111 143 190 239 289 339
#     4  12  25  40  61  91 125 161 191 232 287 360
#
# _framework density 20.629694000000001
#
# number of rings (size 3 to 8) (size 9 to 14) (size 15 to 20)
#    0.000    2.000    1.667    2.000    0.000    5.333 
#    3.000    2.917    0.000    6.000    0.000    0.000 
#    0.000    0.000    0.000    0.000    0.000    0.000 
#
# Total GULP energy -267340.719763 kJ/mol
# GULP energy per Si atom -5569.598328 kJ/mol
# Density = 2.058274 g / cm^3
# Si number density = 20.629694 Si / 1000 Ang^3
#
#
#
# Elastic Constant Matrix: (Units=GPa)
#
#
# Indices 1 2 3 4 5 6 
#
# 1 110.6060 92.2357 18.8306 0.0000 0.0000 0.0000
# 2 92.2357 198.4625 22.0523 0.0000 0.0000 0.0000
# 3 18.8306 22.0523 40.2245 0.0000 0.0000 0.0000
# 4 0.0000 0.0000 0.0000 26.0903 0.0000 0.0000
# 5 0.0000 0.0000 0.0000 0.0000 -28.5829 0.0000
# 6 0.0000 0.0000 0.0000 0.0000 0.0000 45.8955
#
#
#
# Elastic Compliance Matrix: (Units=1/GPa)
#
#
# Indices 1 2 3 4 5 6 
#
# 1 0.015200 -0.006680 -0.003453 0.000000 0.000000 0.000000
# 2 -0.006680 0.008302 -0.001424 0.000000 0.000000 0.000000
# 3 -0.003453 -0.001424 0.027258 0.000000 0.000000 0.000000
# 4 0.000000 0.000000 0.000000 0.038328 0.000000 0.000000
# 5 0.000000 0.000000 0.000000 0.000000 -0.034986 0.000000
# 6 0.000000 0.000000 0.000000 0.000000 0.000000 0.021789
#
#
# Mechanical properties :
#
#
# Convention : Reuss Voigt Hill
#
# Bulk Modulus (GPa) = 36.17402 68.39225 52.28314
# Shear Modulus (GPa) = 46.20205 23.09221 34.64713
#
# Velocity S-wave (km/s) = 4.73756 3.34932 4.10259
# Velocity P-wave (km/s) = 6.89195 6.94130 6.91667
#
# Compressibility (1/GPa) = 0.02764415
#
# Stress axis : x y z
#
# Youngs Moduli (GPa) = 65.78967 120.45709 36.68696
#
# Poissons Ratio (x) = 0.80471 0.12669
# Poissons Ratio (y) = 0.43951 0.05224
# Poissons Ratio (z) = 0.22719 0.17151
#
# Static dielectric constant tensor:
#      x y z
#    x 1.792060 0.000000 0.000000 
#    y 0.000000 1.793640 0.000000 
#    z 0.000000 0.000000 1.787320 
# 
# From -- ./inp_files/29399.got.cif
#   From: 2010.05.17/outbox.cif.g08.bks.cpg/sg67_15_cif.got.tgz:29399.got - 2010.06.03 18:28:57.
