data_PCOD9501115
_publ_section_title
;
Structure prediction by ZEFSAII (Michael W. Deem and Ramdas Pophale) SiO2 
 PCOD9501115
Probable space group: C M M A
;
_chemical_formula_sum "Si O2"
_cell_formula_units_Z 104
_cell_length_a 27.545951
_cell_length_b 8.809945
_cell_length_c 24.601659
_cell_angle_alpha 90.000000
_cell_angle_beta 90.000000
_cell_angle_gamma 90.000000
_cell_volume 5970.289110
_symmetry_space_group_name_H-M "C M M A"
_symmetry_group_IT_number 67
_symmetry_cell_setting 'orthorhombic'
loop_
_space_group_symop_operation_xyz
x,y,z
-x,1/2-y,z
x,-y,-z
-x,1/2+y,-z
-x,-y,-z
x,1/2+y,-z
-x,y,z
x,1/2-y,z
1/2+x,1/2+y,z
1/2-x,-y,z
1/2+x,1/2-y,-z
1/2-x,y,-z
1/2-x,1/2-y,-z
1/2+x,y,-z
1/2-x,1/2+y,z
1/2+x,-y,z
loop_
_atom_site_type_symbol
_atom_site_label
_atom_site_fract_x
_atom_site_fract_y
_atom_site_fract_z
Si Si1 0.301694 0.566636 0.643668
Si Si2 0.057208 0.076705 0.276098
Si Si3 0.609541 0.430425 0.833589
Si Si4 0.500000 0.930962 0.439979
Si Si5 0.443502 0.066697 0.941882
Si Si6 0.407077 0.071494 0.379698
Si Si7 0.801091 0.431152 0.770557
O O1 0.299235 0.750000 0.642206
O O2 0.250000 0.500000 0.624901
O O3 0.351019 0.521360 0.611997
O O4 0.307888 0.519951 0.707274
O O5 0.073325 0.250000 0.289291
O O6 0.069144 0.049716 0.213326
O O7 0.000000 0.068833 0.285334
O O8 0.082731 0.959469 0.316022
O O9 0.619087 0.250000 0.837733
O O10 0.589415 0.484248 0.891410
O O11 0.656492 0.510828 0.809256
O O12 0.500000 0.750000 0.441066
O O13 0.500000 0.000000 0.500000
O O14 0.450651 0.986752 0.410414
O O15 0.500000 0.023774 0.932512
O O16 0.441744 0.250000 0.944010
O O17 0.428608 0.000000 0.000000
O O18 0.410692 0.250000 0.391743
O O19 0.799361 0.250000 0.770986
O O20 0.750000 0.500000 0.788498
#
# Coordination Sequence:
#
# PCOD9501115 Si02
#       7
#    16  16  16   8  16  16  16
#     4   9  19  33  52  79 113 149 186 224 272 325
#     4  10  19  30  47  75 108 143 179 215 264 325
#     4  10  19  31  49  73 103 138 175 218 267 322
#     4  12  26  44  64  88 114 154 197 232 275 326
#     4   9  18  33  51  71  98 133 175 219 263 315
#     4  11  21  36  56  83 117 150 183 230 276 321
#     4  10  19  32  48  72 104 139 176 216 264 322
#
# _framework density 17.419592999999999
#
# number of rings (size 3 to 8) (size 9 to 14) (size 15 to 20)
#    0.000    2.000    2.308    2.077    0.000    4.308 
#    0.000    0.000    0.000    3.692    0.000    6.462 
#    0.000    0.000    0.000    0.000    0.000    0.000 
#
# Total GULP energy -289996.677998 kJ/mol
# GULP energy per Si atom -5576.859192 kJ/mol
# Density = 1.737995 g / cm^3
# Si number density = 17.419593 Si / 1000 Ang^3
#
#
#
# Elastic Constant Matrix: (Units=GPa)
#
#
# Indices 1 2 3 4 5 6 
#
# 1 133.8898 42.1403 42.7307 0.0000 0.0000 0.0000
# 2 42.1403 41.4753 23.3211 0.0000 0.0000 0.0000
# 3 42.7307 23.3211 60.8116 0.0000 0.0000 0.0000
# 4 0.0000 0.0000 0.0000 25.5382 0.0000 0.0000
# 5 0.0000 0.0000 0.0000 0.0000 12.5157 0.0000
# 6 0.0000 0.0000 0.0000 0.0000 0.0000 26.1997
#
#
#
# Elastic Compliance Matrix: (Units=1/GPa)
#
#
# Indices 1 2 3 4 5 6 
#
# 1 0.011979 -0.009483 -0.004781 0.000000 0.000000 0.000000
# 2 -0.009483 0.038246 -0.008004 0.000000 0.000000 0.000000
# 3 -0.004781 -0.008004 0.022873 0.000000 0.000000 0.000000
# 4 0.000000 0.000000 0.000000 0.039157 0.000000 0.000000
# 5 0.000000 0.000000 0.000000 0.000000 0.079899 0.000000
# 6 0.000000 0.000000 0.000000 0.000000 0.000000 0.038168
#
#
# Mechanical properties :
#
#
# Convention : Reuss Voigt Hill
#
# Bulk Modulus (GPa) = 35.01011 50.28455 42.64733
# Shear Modulus (GPa) = 17.58210 21.38304 19.48257
#
# Velocity S-wave (km/s) = 3.18044 3.50741 3.34792
# Velocity P-wave (km/s) = 5.79902 6.73290 6.28333
#
# Compressibility (1/GPa) = 0.02856318
#
# Stress axis : x y z
#
# Youngs Moduli (GPa) = 83.47692 26.14623 43.71970
#
# Poissons Ratio (x) = 0.24795 0.20901
# Poissons Ratio (y) = 0.79163 0.34992
# Poissons Ratio (z) = 0.39908 0.20927
#
# Static dielectric constant tensor:
#      x y z
#    x 1.608260 0.000000 0.000000 
#    y 0.000000 1.595930 0.000000 
#    z 0.000000 0.000000 1.581780 
# 
# From -- ./inp_files/42758.got.cif
#   From: 2010.05.17/outbox.cif.g08.bks.cpg/sg67_22_cif.got.tgz:42758.got - 2010.06.03 18:28:57.
