data_PCOD9501606
_publ_section_title
;
Structure prediction by ZEFSAII (Michael W. Deem and Ramdas Pophale) SiO2 
 PCOD9501606
Probable space group: C M M A
;
_chemical_formula_sum "Si O2"
_cell_formula_units_Z 96
_cell_length_a 9.107888
_cell_length_b 15.467428
_cell_length_c 32.756739
_cell_angle_alpha 90.000000
_cell_angle_beta 90.000000
_cell_angle_gamma 90.000000
_cell_volume 4614.625322
_symmetry_space_group_name_H-M "C M M A"
_symmetry_group_IT_number 67
_symmetry_cell_setting 'orthorhombic'
loop_
_space_group_symop_operation_xyz
x,y,z
-x,1/2-y,z
x,-y,-z
-x,1/2+y,-z
-x,-y,-z
x,1/2+y,-z
-x,y,z
x,1/2-y,z
1/2+x,1/2+y,z
1/2-x,-y,z
1/2+x,1/2-y,-z
1/2-x,y,-z
1/2-x,1/2-y,-z
1/2+x,y,-z
1/2-x,1/2+y,z
1/2+x,-y,z
loop_
_atom_site_type_symbol
_atom_site_label
_atom_site_fract_x
_atom_site_fract_y
_atom_site_fract_z
Si Si1 0.668536 0.356022 0.541380
Si Si2 0.823662 0.405502 0.120177
Si Si3 0.675968 0.405480 0.791286
Si Si4 0.176280 0.905588 0.702810
Si Si5 0.335726 0.852294 0.621670
Si Si6 0.835728 0.852325 0.039091
O O1 0.500000 0.384149 0.541484
O O2 0.668111 0.250000 0.541794
O O3 0.750000 0.382455 0.500000
O O4 0.751917 0.386872 0.581950
O O5 0.750000 0.500000 0.120943
O O6 0.787984 0.364277 0.164730
O O7 0.754986 0.362123 0.080573
O O8 0.000000 0.410254 0.116408
O O9 0.500000 0.417234 0.791272
O O10 0.750000 0.500000 0.791305
O O11 0.712163 0.364172 0.747320
O O12 0.244457 0.862686 0.663022
O O13 0.000000 0.910338 0.699148
O O14 0.250000 0.000000 0.703717
O O15 0.500000 0.889422 0.625998
O O16 0.349890 0.750000 0.614681
O O17 0.850888 0.750000 0.031900
O O18 0.000000 0.889584 0.043207
O O19 0.750000 0.889305 0.000000
#
# Coordination Sequence:
#
# PCOD9501606 Si02
#       6
#    16  16  16  16  16  16
#     4   9  16  27  45  69  96 127 163 203 248 297
#     4  10  19  33  54  79 105 131 164 207 252 295
#     4   8  16  30  49  73  99 129 164 203 246 293
#     4  10  19  33  53  75 100 132 170 207 247 298
#     4  10  20  33  49  72 102 133 167 209 253 294
#     4  10  21  37  55  75 101 134 170 206 247 297
#
# _framework density 20.803422000000001
#
# number of rings (size 3 to 8) (size 9 to 14) (size 15 to 20)
#    0.000    2.500    0.000    2.500    0.000    5.667 
#    0.000    2.500    0.000    5.500    0.000    3.500 
#    0.000    0.000    0.000    0.000    0.000    0.000 
#
# Total GULP energy -267601.993609 kJ/mol
# GULP energy per Si atom -5575.041534 kJ/mol
# Density = 2.075607 g / cm^3
# Si number density = 20.803422 Si / 1000 Ang^3
#
#
#
# Elastic Constant Matrix: (Units=GPa)
#
#
# Indices 1 2 3 4 5 6 
#
# 1 145.6727 6.9252 107.1715 0.0000 0.0000 0.0000
# 2 6.9252 17.2692 7.1599 0.0000 0.0000 0.0000
# 3 107.1715 7.1599 232.7792 0.0000 0.0000 0.0000
# 4 0.0000 0.0000 0.0000 6.9695 0.0000 0.0000
# 5 0.0000 0.0000 0.0000 0.0000 36.0021 0.0000
# 6 0.0000 0.0000 0.0000 0.0000 0.0000 17.1762
#
#
#
# Elastic Compliance Matrix: (Units=1/GPa)
#
#
# Indices 1 2 3 4 5 6 
#
# 1 0.010465 -0.002227 -0.004749 0.000000 0.000000 0.000000
# 2 -0.002227 0.059129 -0.000793 0.000000 0.000000 0.000000
# 3 -0.004749 -0.000793 0.006507 0.000000 0.000000 0.000000
# 4 0.000000 0.000000 0.000000 0.143483 0.000000 0.000000
# 5 0.000000 0.000000 0.000000 0.000000 0.027776 0.000000
# 6 0.000000 0.000000 0.000000 0.000000 0.000000 0.058220
#
#
# Mechanical properties :
#
#
# Convention : Reuss Voigt Hill
#
# Bulk Modulus (GPa) = 16.51248 70.91492 43.71370
# Shear Modulus (GPa) = 14.64960 30.32720 22.48840
#
# Velocity S-wave (km/s) = 2.65654 3.82226 3.29142
# Velocity P-wave (km/s) = 4.16704 7.32404 5.95843
#
# Compressibility (1/GPa) = 0.06056025
#
# Stress axis : x y z
#
# Youngs Moduli (GPa) = 95.55866 16.91228 153.68136
#
# Poissons Ratio (x) = 0.03767 0.72990
# Poissons Ratio (y) = 0.21284 0.12190
# Poissons Ratio (z) = 0.45385 0.01342
#
# Static dielectric constant tensor:
#      x y z
#    x 1.726280 0.000000 0.000000 
#    y 0.000000 1.774640 0.000000 
#    z 0.000000 0.000000 1.780640 
# 
# From -- ./inp_files/43418.got.cif
#   From: 2010.05.17/outbox.cif.g08.bks.cpg/sg67_22_cif.got.tgz:43418.got - 2010.06.03 18:28:57.
