data_PCOD9501062
_publ_section_title
;
Structure prediction by ZEFSAII (Michael W. Deem and Ramdas Pophale) SiO2 
 PCOD9501062
Probable space group: C M M A
;
_chemical_formula_sum "Si O2"
_cell_formula_units_Z 96
_cell_length_a 20.071345
_cell_length_b 23.479082
_cell_length_c 11.899063
_cell_angle_alpha 90.000000
_cell_angle_beta 90.000000
_cell_angle_gamma 90.000000
_cell_volume 5607.513818
_symmetry_space_group_name_H-M "C M M A"
_symmetry_group_IT_number 67
_symmetry_cell_setting 'orthorhombic'
loop_
_space_group_symop_operation_xyz
x,y,z
-x,1/2-y,z
x,-y,-z
-x,1/2+y,-z
-x,-y,-z
x,1/2+y,-z
-x,y,z
x,1/2-y,z
1/2+x,1/2+y,z
1/2-x,-y,z
1/2+x,1/2-y,-z
1/2-x,y,-z
1/2-x,1/2-y,-z
1/2+x,y,-z
1/2-x,1/2+y,z
1/2+x,-y,z
loop_
_atom_site_type_symbol
_atom_site_label
_atom_site_fract_x
_atom_site_fract_y
_atom_site_fract_z
Si Si1 0.424621 0.534211 0.280848
Si Si2 0.072781 0.250000 0.020694
Si Si3 0.103526 0.373212 0.095755
Si Si4 0.631988 0.951406 0.908416
Si Si5 0.786635 0.055178 0.380729
Si Si6 0.749282 0.371526 0.179879
Si Si7 0.205321 0.250000 0.886960
O O1 0.500000 0.526375 0.322801
O O2 0.422242 0.590198 0.200547
O O3 0.403725 0.483254 0.195204
O O4 0.365608 0.542030 0.372460
O O5 0.081119 0.308094 0.091224
O O6 0.000000 0.250000 0.969059
O O7 0.129915 0.250000 0.928222
O O8 0.183978 0.373456 0.105117
O O9 0.087493 0.407064 0.980805
O O10 0.694686 0.916003 0.863803
O O11 0.650894 0.000000 0.000000
O O12 0.750000 0.062055 0.500000
O O13 0.771696 0.108600 0.302677
O O14 0.750000 0.000000 0.327960
O O15 0.721637 0.307908 0.176949
O O16 0.250000 0.250000 0.000000
#
# Coordination Sequence:
#
# PCOD9501062 Si02
#       7
#    16   8  16  16  16  16   8
#     4  10  21  35  53  80 112 143 176 218 278 336
#     4  12  22  32  46  74 114 150 177 214 263 311
#     4  10  20  31  50  76 114 148 182 218 258 324
#     4  10  19  29  49  80 113 143 181 216 262 323
#     4  10  21  38  59  80 104 136 185 242 285 317
#     4  11  19  34  56  79 105 145 191 233 269 313
#     4  12  20  36  55  80 111 146 189 222 255 325
#
# _framework density 17.119886999999999
#
# number of rings (size 3 to 8) (size 9 to 14) (size 15 to 20)
#    0.000    1.500    5.000    1.000    0.000    7.000 
#    0.000    2.083    0.000    0.000    0.000    0.000 
#    0.000    0.000    0.000    0.000    0.000    0.000 
#
# Total GULP energy -267711.927786 kJ/mol
# GULP energy per Si atom -5577.331829 kJ/mol
# Density = 1.708092 g / cm^3
# Si number density = 17.119887 Si / 1000 Ang^3
#
#
#
# Elastic Constant Matrix: (Units=GPa)
#
#
# Indices 1 2 3 4 5 6 
#
# 1 145.9081 37.1007 35.6669 0.0000 0.0000 0.0000
# 2 37.1007 124.8831 27.1232 0.0000 0.0000 0.0000
# 3 35.6669 27.1232 68.6304 0.0000 0.0000 0.0000
# 4 0.0000 0.0000 0.0000 17.3606 0.0000 0.0000
# 5 0.0000 0.0000 0.0000 0.0000 13.5063 0.0000
# 6 0.0000 0.0000 0.0000 0.0000 0.0000 2.6347
#
#
#
# Elastic Compliance Matrix: (Units=1/GPa)
#
#
# Indices 1 2 3 4 5 6 
#
# 1 0.008148 -0.001642 -0.003585 0.000000 0.000000 0.000000
# 2 -0.001642 0.009090 -0.002739 0.000000 0.000000 0.000000
# 3 -0.003585 -0.002739 0.017517 0.000000 0.000000 0.000000
# 4 0.000000 0.000000 0.000000 0.057602 0.000000 0.000000
# 5 0.000000 0.000000 0.000000 0.000000 0.074040 0.000000
# 6 0.000000 0.000000 0.000000 0.000000 0.000000 0.379548
#
#
# Mechanical properties :
#
#
# Convention : Reuss Voigt Hill
#
# Bulk Modulus (GPa) = 53.13072 59.91147 56.52110
# Shear Modulus (GPa) = 8.80049 22.66903 15.73476
#
# Velocity S-wave (km/s) = 2.26973 3.64281 3.03494
# Velocity P-wave (km/s) = 6.16204 7.26393 6.73556
#
# Compressibility (1/GPa) = 0.01882150
#
# Stress axis : x y z
#
# Youngs Moduli (GPa) = 122.73647 110.00888 57.08844
#
# Poissons Ratio (x) = 0.18061 0.20468
# Poissons Ratio (y) = 0.20151 0.15638
# Poissons Ratio (z) = 0.44006 0.30134
#
# Static dielectric constant tensor:
#      x y z
#    x 1.687420 0.000000 0.000000 
#    y 0.000000 1.599140 0.000000 
#    z 0.000000 0.000000 1.583070 
# 
# From -- ./inp_files/19725.got.cif
#   From: 2010.05.17/outbox.cif.g08.bks.cpg/sg67_10_cif.got.tgz:19725.got - 2010.06.03 18:28:57.
