data_PCOD9501416
_publ_section_title
;
Structure prediction by ZEFSAII (Michael W. Deem and Ramdas Pophale) SiO2 
 PCOD9501416
Probable space group: C M M A
;
_chemical_formula_sum "Si O2"
_cell_formula_units_Z 116
_cell_length_a 9.142054
_cell_length_b 25.857256
_cell_length_c 25.563102
_cell_angle_alpha 90.000000
_cell_angle_beta 90.000000
_cell_angle_gamma 90.000000
_cell_volume 6042.821564
_symmetry_space_group_name_H-M "C M M A"
_symmetry_group_IT_number 67
_symmetry_cell_setting 'orthorhombic'
loop_
_space_group_symop_operation_xyz
x,y,z
-x,1/2-y,z
x,-y,-z
-x,1/2+y,-z
-x,-y,-z
x,1/2+y,-z
-x,y,z
x,1/2-y,z
1/2+x,1/2+y,z
1/2-x,-y,z
1/2+x,1/2-y,-z
1/2-x,y,-z
1/2-x,1/2-y,-z
1/2+x,y,-z
1/2-x,1/2+y,z
1/2+x,-y,z
loop_
_atom_site_type_symbol
_atom_site_label
_atom_site_fract_x
_atom_site_fract_y
_atom_site_fract_z
Si Si1 0.000000 0.250000 0.097013
Si Si2 0.836632 0.842030 0.950985
Si Si3 0.174033 0.446825 0.915750
Si Si4 0.825467 0.843489 0.653888
Si Si5 0.328722 0.590391 0.801239
Si Si6 0.325125 0.693085 0.228376
Si Si7 0.664600 0.811266 0.550275
Si Si8 0.825333 0.552357 0.313912
O O1 0.873760 0.203394 0.090513
O O2 0.748958 0.893622 0.935199
O O3 0.000000 0.858801 0.968203
O O4 0.750000 0.818541 0.000000
O O5 0.250000 0.500000 0.934275
O O6 0.195834 0.442390 0.853008
O O7 0.000000 0.447647 0.926592
O O8 0.797121 0.814899 0.709349
O O9 0.755281 0.817635 0.603349
O O10 0.749273 0.898974 0.658840
O O11 0.000000 0.847446 0.648572
O O12 0.500000 0.603538 0.798915
O O13 0.242011 0.644136 0.800493
O O14 0.292894 0.560455 0.747926
O O15 0.500000 0.692609 0.220429
O O16 0.271783 0.750000 0.212667
O O17 0.500000 0.832689 0.555341
O O18 0.650587 0.750000 0.541421
O O19 0.750000 0.833289 0.500000
O O20 0.750000 0.500000 0.331851
O O21 0.000000 0.551728 0.320897
#
# Coordination Sequence:
#
# PCOD9501416 Si02
#       8
#     4  16  16  16  16  16  16  16
#     4   8  22  40  70  90 126 152 198 238 290 348
#     4  10  21  40  65  94 119 153 194 238 290 343
#     4  11  23  40  60  87 122 158 197 244 294 348
#     4  10  19  32  51  74 102 135 173 218 268 320
#     4   9  20  36  53  76 109 146 188 228 278 331
#     4   9  18  32  50  74 105 142 183 228 274 328
#     4  10  20  33  50  74 103 135 171 210 257 312
#     4  10  19  33  53  77 102 134 176 222 267 317
#
# _framework density 19.19633
#
# number of rings (size 3 to 8) (size 9 to 14) (size 15 to 20)
#    0.414    1.793    0.000    3.103    0.000    4.138 
#    1.241    1.379    0.000    0.414    0.000    2.897 
#    0.000    0.000    0.000    0.000    0.000    0.000 
#
# Total GULP energy -322913.342113 kJ/mol
# GULP energy per Si atom -5567.471416 kJ/mol
# Density = 1.915264 g / cm^3
# Si number density = 19.196330 Si / 1000 Ang^3
#
#
#
# Elastic Constant Matrix: (Units=GPa)
#
#
# Indices 1 2 3 4 5 6 
#
# 1 78.5310 50.0812 26.7284 0.0000 0.0000 0.0000
# 2 50.0812 119.7991 0.3875 0.0000 0.0000 0.0000
# 3 26.7284 0.3875 34.2853 0.0000 0.0000 0.0000
# 4 0.0000 0.0000 0.0000 3.9973 0.0000 0.0000
# 5 0.0000 0.0000 0.0000 0.0000 21.0318 0.0000
# 6 0.0000 0.0000 0.0000 0.0000 0.0000 35.8710
#
#
#
# Elastic Compliance Matrix: (Units=1/GPa)
#
#
# Indices 1 2 3 4 5 6 
#
# 1 0.027021 -0.011228 -0.020938 0.000000 0.000000 0.000000
# 2 -0.011228 0.013013 0.008606 0.000000 0.000000 0.000000
# 3 -0.020938 0.008606 0.045393 0.000000 0.000000 0.000000
# 4 0.000000 0.000000 0.000000 0.250170 0.000000 0.000000
# 5 0.000000 0.000000 0.000000 0.000000 0.047547 0.000000
# 6 0.000000 0.000000 0.000000 0.000000 0.000000 0.027878
#
#
# Mechanical properties :
#
#
# Convention : Reuss Voigt Hill
#
# Bulk Modulus (GPa) = 26.10496 43.00107 34.55302
# Shear Modulus (GPa) = 10.61773 22.54123 16.57948
#
# Velocity S-wave (km/s) = 2.35439 3.43045 2.94203
# Velocity P-wave (km/s) = 4.58468 6.17575 5.43871
#
# Compressibility (1/GPa) = 0.03830689
#
# Stress axis : x y z
#
# Youngs Moduli (GPa) = 37.00867 76.84438 22.02987
#
# Poissons Ratio (x) = 0.86282 0.46126
# Poissons Ratio (y) = 0.41554 -0.18959
# Poissons Ratio (z) = 0.77489 -0.66134
#
# Static dielectric constant tensor:
#      x y z
#    x 1.658730 0.000000 0.000000 
#    y 0.000000 1.674430 0.000000 
#    z 0.000000 0.000000 1.719480 
# 
# From -- ./inp_files/43793.got.cif
#   From: 2010.05.17/outbox.cif.g08.bks.cpg/sg67_22_cif.got.tgz:43793.got - 2010.06.03 18:28:57.
