data_PCOD9501796
_publ_section_title
;
Structure prediction by ZEFSAII (Michael W. Deem and Ramdas Pophale) SiO2 
 PCOD9501796
Probable space group: C M M A
;
_chemical_formula_sum "Si O2"
_cell_formula_units_Z 116
_cell_length_a 15.545889
_cell_length_b 28.062073
_cell_length_c 12.023637
_cell_angle_alpha 90.000000
_cell_angle_beta 90.000000
_cell_angle_gamma 90.000000
_cell_volume 5245.310102
_symmetry_space_group_name_H-M "C M M A"
_symmetry_group_IT_number 67
_symmetry_cell_setting 'orthorhombic'
loop_
_space_group_symop_operation_xyz
x,y,z
-x,1/2-y,z
x,-y,-z
-x,1/2+y,-z
-x,-y,-z
x,1/2+y,-z
-x,y,z
x,1/2-y,z
1/2+x,1/2+y,z
1/2-x,-y,z
1/2+x,1/2-y,-z
1/2-x,y,-z
1/2-x,1/2-y,-z
1/2+x,y,-z
1/2-x,1/2+y,z
1/2+x,-y,z
loop_
_atom_site_type_symbol
_atom_site_label
_atom_site_fract_x
_atom_site_fract_y
_atom_site_fract_z
Si Si1 0.395121 0.365167 0.592640
Si Si2 0.163597 0.196876 0.864375
Si Si3 0.858099 0.330030 0.175107
Si Si4 0.396119 0.646990 0.658751
Si Si5 0.602446 0.051516 0.214677
Si Si6 0.500000 0.750000 0.132665
Si Si7 0.605006 0.525667 0.384769
Si Si8 0.147656 0.896433 0.003942
O O1 0.500000 0.362384 0.599808
O O2 0.357327 0.334628 0.692429
O O3 0.369182 0.350174 0.468825
O O4 0.367927 0.419772 0.611086
O O5 0.141493 0.250000 0.902442
O O6 0.265368 0.187193 0.867889
O O7 0.134427 0.189195 0.737718
O O8 0.122911 0.152858 0.931792
O O9 0.926467 0.291544 0.140489
O O10 0.879395 0.382105 0.120742
O O11 0.500000 0.645571 0.659931
O O12 0.364466 0.597742 0.716650
O O13 0.500000 0.051224 0.229573
O O14 0.616952 0.061222 0.083874
O O15 0.634893 0.004390 0.277381
O O16 0.630625 0.500000 0.500000
O O17 0.500000 0.526124 0.384616
O O18 0.250000 0.902023 0.000000
#
# Coordination Sequence:
#
# PCOD9501796 Si02
#       8
#    16  16  16  16  16   4  16  16
#     4  10  19  34  55  84 121 152 187 238 287 346
#     4  10  21  39  59  81 110 147 195 247 301 348
#     4  11  23  39  57  81 113 155 199 244 292 346
#     4   9  18  34  55  84 117 150 186 238 296 348
#     4   9  16  30  55  89 116 143 188 236 284 347
#     4  12  24  40  58  82 112 160 210 242 282 352
#     4   9  15  28  56  88 116 147 185 226 284 350
#     4   9  21  37  58  80 112 151 190 243 300 344
#
# _framework density 22.114995
#
# number of rings (size 3 to 8) (size 9 to 14) (size 15 to 20)
#    0.000    2.345    2.759    0.000    1.931    1.655 
#    1.241    1.379    0.000   12.414    0.000    0.000 
#    0.000    0.000    0.000    0.000    0.000    0.138 
#
# Total GULP energy -323233.526919 kJ/mol
# GULP energy per Si atom -5572.991843 kJ/mol
# Density = 2.206466 g / cm^3
# Si number density = 22.114995 Si / 1000 Ang^3
#
#
#
# Elastic Constant Matrix: (Units=GPa)
#
#
# Indices 1 2 3 4 5 6 
#
# 1 16.9752 2.9359 5.1395 0.0000 0.0000 0.0000
# 2 2.9359 41.8513 11.6348 0.0000 0.0000 0.0000
# 3 5.1395 11.6348 109.1559 0.0000 0.0000 0.0000
# 4 0.0000 0.0000 0.0000 24.6189 0.0000 0.0000
# 5 0.0000 0.0000 0.0000 0.0000 24.1011 0.0000
# 6 0.0000 0.0000 0.0000 0.0000 0.0000 1.9972
#
#
#
# Elastic Compliance Matrix: (Units=1/GPa)
#
#
# Indices 1 2 3 4 5 6 
#
# 1 0.060267 -0.003544 -0.002460 0.000000 0.000000 0.000000
# 2 -0.003544 0.024832 -0.002480 0.000000 0.000000 0.000000
# 3 -0.002460 -0.002480 0.009541 0.000000 0.000000 0.000000
# 4 0.000000 0.000000 0.000000 0.040619 0.000000 0.000000
# 5 0.000000 0.000000 0.000000 0.000000 0.041492 0.000000
# 6 0.000000 0.000000 0.000000 0.000000 0.000000 0.500696
#
#
# Mechanical properties :
#
#
# Convention : Reuss Voigt Hill
#
# Bulk Modulus (GPa) = 12.87449 23.04475 17.95962
# Shear Modulus (GPa) = 6.94149 20.02827 13.48488
#
# Velocity S-wave (km/s) = 1.77359 3.01265 2.47201
# Velocity P-wave (km/s) = 3.16677 4.74810 4.03565
#
# Compressibility (1/GPa) = 0.07767297
#
# Stress axis : x y z
#
# Youngs Moduli (GPa) = 16.59283 40.27039 104.80687
#
# Poissons Ratio (x) = 0.14272 0.25781
# Poissons Ratio (y) = 0.05880 0.25992
# Poissons Ratio (z) = 0.04082 0.09987
#
# Static dielectric constant tensor:
#      x y z
#    x 1.815650 0.000000 0.000000 
#    y 0.000000 1.799180 0.000000 
#    z 0.000000 0.000000 1.872040 
# 
# From -- ./inp_files/19994.got.cif
#   From: 2010.05.17/outbox.cif.g08.bks.cpg/sg67_10_cif.got.tgz:19994.got - 2010.06.03 18:28:57.
