data_PCOD9501895
_publ_section_title
;
Structure prediction by ZEFSAII (Michael W. Deem and Ramdas Pophale) SiO2 
 PCOD9501895
Probable space group: C M M A
;
_chemical_formula_sum "Si O2"
_cell_formula_units_Z 96
_cell_length_a 21.635939
_cell_length_b 18.116178
_cell_length_c 13.632481
_cell_angle_alpha 90.000000
_cell_angle_beta 90.000000
_cell_angle_gamma 90.000000
_cell_volume 5343.394371
_symmetry_space_group_name_H-M "C M M A"
_symmetry_group_IT_number 67
_symmetry_cell_setting 'orthorhombic'
loop_
_space_group_symop_operation_xyz
x,y,z
-x,1/2-y,z
x,-y,-z
-x,1/2+y,-z
-x,-y,-z
x,1/2+y,-z
-x,y,z
x,1/2-y,z
1/2+x,1/2+y,z
1/2-x,-y,z
1/2+x,1/2-y,-z
1/2-x,y,-z
1/2-x,1/2-y,-z
1/2+x,y,-z
1/2-x,1/2+y,z
1/2+x,-y,z
loop_
_atom_site_type_symbol
_atom_site_label
_atom_site_fract_x
_atom_site_fract_y
_atom_site_fract_z
Si Si1 0.569721 0.576048 0.813236
Si Si2 0.237542 0.917071 0.718660
Si Si3 0.318262 0.664686 0.449706
Si Si4 0.571420 0.663809 0.013048
Si Si5 0.338515 0.543574 0.100346
Si Si6 0.862888 0.661215 0.344547
O O1 0.500000 0.545829 0.815991
O O2 0.620300 0.513501 0.835894
O O3 0.584440 0.618719 0.713730
O O4 0.574742 0.635622 0.900977
O O5 0.185224 0.882510 0.648554
O O6 0.216030 0.926139 0.830882
O O7 0.298515 0.867553 0.703849
O O8 0.250000 0.000000 0.682114
O O9 0.329830 0.750000 0.424939
O O10 0.250000 0.660963 0.500000
O O11 0.361651 0.642123 0.539874
O O12 0.500000 0.653079 0.044687
O O13 0.586502 0.750000 0.020267
O O14 0.617747 0.611547 0.071214
O O15 0.321722 0.500000 0.000000
O O16 0.865996 0.750000 0.336080
#
# Coordination Sequence:
#
# PCOD9501895 Si02
#       6
#    16  16  16  16  16  16
#     4  10  19  35  56  79 107 143 183 225 270 318
#     4  11  20  34  53  79 104 145 177 216 262 329
#     4   8  17  33  53  76 103 133 172 219 264 312
#     4   9  18  33  54  78 102 138 188 230 265 317
#     4  10  21  36  53  76 113 144 180 223 274 319
#     4  10  20  35  54  82 111 136 175 227 273 322
#
# _framework density 17.966107999999998
#
# number of rings (size 3 to 8) (size 9 to 14) (size 15 to 20)
#    0.000    2.333    1.667    2.500    0.000    7.667 
#    0.000    0.000    0.000    6.000    0.000    0.000 
#    0.000    0.000    0.000    0.000    0.000    0.000 
#
# Total GULP energy -267618.025521 kJ/mol
# GULP energy per Si atom -5575.375532 kJ/mol
# Density = 1.792522 g / cm^3
# Si number density = 17.966108 Si / 1000 Ang^3
#
#
#
# Elastic Constant Matrix: (Units=GPa)
#
#
# Indices 1 2 3 4 5 6 
#
# 1 22.4896 5.0633 7.8812 0.0000 0.0000 0.0000
# 2 5.0633 57.7503 19.4905 0.0000 0.0000 0.0000
# 3 7.8812 19.4905 77.4113 0.0000 0.0000 0.0000
# 4 0.0000 0.0000 0.0000 20.5180 0.0000 0.0000
# 5 0.0000 0.0000 0.0000 0.0000 26.4925 0.0000
# 6 0.0000 0.0000 0.0000 0.0000 0.0000 20.3527
#
#
#
# Elastic Compliance Matrix: (Units=1/GPa)
#
#
# Indices 1 2 3 4 5 6 
#
# 1 0.046495 -0.002709 -0.004052 0.000000 0.000000 0.000000
# 2 -0.002709 0.019082 -0.004529 0.000000 0.000000 0.000000
# 3 -0.004052 -0.004529 0.014471 0.000000 0.000000 0.000000
# 4 0.000000 0.000000 0.000000 0.048738 0.000000 0.000000
# 5 0.000000 0.000000 0.000000 0.000000 0.037747 0.000000
# 6 0.000000 0.000000 0.000000 0.000000 0.000000 0.049134
#
#
# Mechanical properties :
#
#
# Convention : Reuss Voigt Hill
#
# Bulk Modulus (GPa) = 17.40073 24.72459 21.06266
# Shear Modulus (GPa) = 19.42503 21.82036 20.62269
#
# Velocity S-wave (km/s) = 3.29173 3.48879 3.39169
# Velocity P-wave (km/s) = 4.91464 5.47910 5.20453
#
# Compressibility (1/GPa) = 0.05746886
#
# Stress axis : x y z
#
# Youngs Moduli (GPa) = 21.50781 52.40582 69.10516
#
# Poissons Ratio (x) = 0.14197 0.27998
# Poissons Ratio (y) = 0.05827 0.31295
# Poissons Ratio (z) = 0.08714 0.23732
#
# Static dielectric constant tensor:
#      x y z
#    x 1.645440 0.000000 0.000000 
#    y 0.000000 1.593200 0.000000 
#    z 0.000000 0.000000 1.626500 
# 
# From -- ./inp_files/19643.got.cif
#   From: 2010.05.17/outbox.cif.g08.bks.cpg/sg67_10_cif.got.tgz:19643.got - 2010.06.03 18:28:57.
