data_PCOD9501846
_publ_section_title
;
Structure prediction by ZEFSAII (Michael W. Deem and Ramdas Pophale) SiO2 
 PCOD9501846
Probable space group: C M M A
;
_chemical_formula_sum "Si O2"
_cell_formula_units_Z 56
_cell_length_a 27.115744
_cell_length_b 16.043894
_cell_length_c 5.196632
_cell_angle_alpha 90.000000
_cell_angle_beta 90.000000
_cell_angle_gamma 90.000000
_cell_volume 2260.753815
_symmetry_space_group_name_H-M "C M M A"
_symmetry_group_IT_number 67
_symmetry_cell_setting 'orthorhombic'
loop_
_space_group_symop_operation_xyz
x,y,z
-x,1/2-y,z
x,-y,-z
-x,1/2+y,-z
-x,-y,-z
x,1/2+y,-z
-x,y,z
x,1/2-y,z
1/2+x,1/2+y,z
1/2-x,-y,z
1/2+x,1/2-y,-z
1/2-x,y,-z
1/2-x,1/2-y,-z
1/2+x,y,-z
1/2-x,1/2+y,z
1/2+x,-y,z
loop_
_atom_site_type_symbol
_atom_site_label
_atom_site_fract_x
_atom_site_fract_y
_atom_site_fract_z
Si Si1 0.617101 0.149610 0.397109
Si Si2 0.714154 0.750000 0.249215
Si Si3 0.191236 0.406941 0.977371
Si Si4 0.056560 0.148339 0.117490
O O1 0.619622 0.250000 0.413442
O O2 0.588608 0.115515 0.644044
O O3 0.670815 0.121557 0.297870
O O4 0.582854 0.128575 0.150106
O O5 0.750000 0.750000 0.500000
O O6 0.681624 0.832575 0.184436
O O7 0.750000 0.750000 0.000000
O O8 0.170731 0.500000 0.000000
O O9 0.250000 0.415553 0.000000
O O10 0.055772 0.250000 0.136442
O O11 0.000000 0.120287 0.126762
#
# Coordination Sequence:
#
# PCOD9501846 Si02
#       4
#    16   8  16  16
#     4  10  19  34  58  88 122 162 208 260 324 387
#     4  10  22  42  66  92 125 172 223 272 324 392
#     4  10  22  42  64  94 132 174 219 272 332 395
#     4   9  18  33  57  88 120 158 207 261 321 392
#
# _framework density 24.770500999999999
#
# number of rings (size 3 to 8) (size 9 to 14) (size 15 to 20)
#    0.000    2.286    1.429    0.857    0.000    8.000 
#    0.000   21.429    0.000    5.143    0.000    0.000 
#    0.000    0.000    0.000    0.000    0.000    0.000 
#
# Total GULP energy -156404.672723 kJ/mol
# GULP energy per Si atom -5585.881169 kJ/mol
# Density = 2.471412 g / cm^3
# Si number density = 24.770501 Si / 1000 Ang^3
#
#
#
# Elastic Constant Matrix: (Units=GPa)
#
#
# Indices 1 2 3 4 5 6 
#
# 1 133.7672 6.8390 24.3451 0.0000 0.0000 0.0000
# 2 6.8390 121.7614 38.4064 0.0000 0.0000 0.0000
# 3 24.3451 38.4064 131.2923 0.0000 0.0000 0.0000
# 4 0.0000 0.0000 0.0000 1.9825 0.0000 0.0000
# 5 0.0000 0.0000 0.0000 0.0000 32.2884 0.0000
# 6 0.0000 0.0000 0.0000 0.0000 0.0000 3.8583
#
#
#
# Elastic Compliance Matrix: (Units=1/GPa)
#
#
# Indices 1 2 3 4 5 6 
#
# 1 0.007737 0.000020 -0.001440 0.000000 0.000000 0.000000
# 2 0.000020 0.009048 -0.002650 0.000000 0.000000 0.000000
# 3 -0.001440 -0.002650 0.008659 0.000000 0.000000 0.000000
# 4 0.000000 0.000000 0.000000 0.504418 0.000000 0.000000
# 5 0.000000 0.000000 0.000000 0.000000 0.030971 0.000000
# 6 0.000000 0.000000 0.000000 0.000000 0.000000 0.259180
#
#
# Mechanical properties :
#
#
# Convention : Reuss Voigt Hill
#
# Bulk Modulus (GPa) = 57.79839 58.44466 58.12153
# Shear Modulus (GPa) = 5.99577 28.77454 17.38515
#
# Velocity S-wave (km/s) = 1.55749 3.41199 2.65212
# Velocity P-wave (km/s) = 5.15932 6.25843 5.73526
#
# Compressibility (1/GPa) = 0.01730152
#
# Stress axis : x y z
#
# Youngs Moduli (GPa) = 129.25223 110.52587 115.48712
#
# Poissons Ratio (x) = -0.00219 0.16635
# Poissons Ratio (y) = -0.00256 0.30608
# Poissons Ratio (z) = 0.18617 0.29293
#
# Static dielectric constant tensor:
#      x y z
#    x 1.992570 0.000000 0.000000 
#    y 0.000000 2.026580 0.000000 
#    z 0.000000 0.000000 2.129290 
# 
# From -- ./inp_files/2023.got.cif
#   From: 2010.05.17/outbox.cif.g08.bks.cpg/sg67_2_cif.got.tgz:2023.got - 2010.06.03 18:28:57.
