data_PCOD9501371
_publ_section_title
;
Structure prediction by ZEFSAII (Michael W. Deem and Ramdas Pophale) SiO2 
 PCOD9501371
Probable space group: C M M A
;
_chemical_formula_sum "Si O2"
_cell_formula_units_Z 96
_cell_length_a 8.559718
_cell_length_b 20.418325
_cell_length_c 31.162438
_cell_angle_alpha 90.000000
_cell_angle_beta 90.000000
_cell_angle_gamma 90.000000
_cell_volume 5446.418343
_symmetry_space_group_name_H-M "C M M A"
_symmetry_group_IT_number 67
_symmetry_cell_setting 'orthorhombic'
loop_
_space_group_symop_operation_xyz
x,y,z
-x,1/2-y,z
x,-y,-z
-x,1/2+y,-z
-x,-y,-z
x,1/2+y,-z
-x,y,z
x,1/2-y,z
1/2+x,1/2+y,z
1/2-x,-y,z
1/2+x,1/2-y,-z
1/2-x,y,-z
1/2-x,1/2-y,-z
1/2+x,y,-z
1/2-x,1/2+y,z
1/2+x,-y,z
loop_
_atom_site_type_symbol
_atom_site_label
_atom_site_fract_x
_atom_site_fract_y
_atom_site_fract_z
Si Si1 0.811394 0.325217 0.046985
Si Si2 0.188141 0.426996 0.452944
Si Si3 0.185657 0.072283 0.786088
Si Si4 0.188470 0.673766 0.717092
Si Si5 0.312253 0.427388 0.880565
Si Si6 0.690228 0.675419 0.380917
O O1 0.761536 0.250000 0.055346
O O2 0.759917 0.374893 0.084006
O O3 0.000000 0.326055 0.046002
O O4 0.750000 0.344080 0.000000
O O5 0.250000 0.500000 0.443997
O O6 0.250000 0.407929 0.500000
O O7 0.241319 0.376356 0.416450
O O8 0.000000 0.428456 0.453996
O O9 0.237087 0.124830 0.750921
O O10 0.253166 0.089767 0.832965
O O11 0.000000 0.068715 0.788979
O O12 0.250000 0.000000 0.775148
O O13 0.227802 0.750000 0.725554
O O14 0.236504 0.658894 0.667915
O O15 0.000000 0.668140 0.719470
O O16 0.500000 0.429060 0.879900
O O17 0.250000 0.500000 0.890669
O O18 0.500000 0.675621 0.381214
O O19 0.740482 0.750000 0.390313
#
# Coordination Sequence:
#
# PCOD9501371 Si02
#       6
#    16  16  16  16  16  16
#     4   9  19  35  54  76 102 133 169 208 250 298
#     4  10  19  32  50  72 100 131 166 206 248 296
#     4  11  22  36  54  77 106 137 173 215 259 306
#     4   9  18  35  57  78 103 136 171 208 255 309
#     4  10  20  35  54  76 103 135 172 211 254 304
#     4   8  16  32  53  75  99 130 167 205 247 298
#
# _framework density 17.626263000000002
#
# number of rings (size 3 to 8) (size 9 to 14) (size 15 to 20)
#    0.000    2.500    0.000    5.000    0.000    3.667 
#    0.000    6.667    0.000    3.500    0.000    0.000 
#    0.000    0.000    0.000    0.000    0.000    0.000 
#
# Total GULP energy -267794.944066 kJ/mol
# GULP energy per Si atom -5579.061335 kJ/mol
# Density = 1.758615 g / cm^3
# Si number density = 17.626263 Si / 1000 Ang^3
#
#
#
# Elastic Constant Matrix: (Units=GPa)
#
#
# Indices 1 2 3 4 5 6 
#
# 1 51.5972 39.3689 42.9337 0.0000 0.0000 0.0000
# 2 39.3689 125.4979 136.7480 0.0000 0.0000 0.0000
# 3 42.9337 136.7480 170.0577 0.0000 0.0000 0.0000
# 4 0.0000 0.0000 0.0000 44.3561 0.0000 0.0000
# 5 0.0000 0.0000 0.0000 0.0000 23.0307 0.0000
# 6 0.0000 0.0000 0.0000 0.0000 0.0000 23.2228
#
#
#
# Elastic Compliance Matrix: (Units=1/GPa)
#
#
# Indices 1 2 3 4 5 6 
#
# 1 0.025480 -0.007946 -0.000043 0.000000 0.000000 0.000000
# 2 -0.007946 0.066848 -0.051748 0.000000 0.000000 0.000000
# 3 -0.000043 -0.051748 0.047504 0.000000 0.000000 0.000000
# 4 0.000000 0.000000 0.000000 0.022545 0.000000 0.000000
# 5 0.000000 0.000000 0.000000 0.000000 0.043420 0.000000
# 6 0.000000 0.000000 0.000000 0.000000 0.000000 0.043061
#
#
# Mechanical properties :
#
#
# Convention : Reuss Voigt Hill
#
# Bulk Modulus (GPa) = 49.12475 87.25045 68.18760
# Shear Modulus (GPa) = 13.32914 26.66207 19.99561
#
# Velocity S-wave (km/s) = 2.75291 3.89348 3.37177
# Velocity P-wave (km/s) = 6.16728 8.35583 7.34355
#
# Compressibility (1/GPa) = 0.02035634
#
# Stress axis : x y z
#
# Youngs Moduli (GPa) = 39.24703 14.95927 21.05108
#
# Poissons Ratio (x) = 0.11887 0.00091
# Poissons Ratio (y) = 0.31186 1.08936
# Poissons Ratio (z) = 0.00169 0.77412
#
# Static dielectric constant tensor:
#      x y z
#    x 1.601490 0.000000 0.000000 
#    y 0.000000 1.588010 0.000000 
#    z 0.000000 0.000000 1.582460 
# 
# From -- ./inp_files/43460.got.cif
#   From: 2010.05.17/outbox.cif.g08.bks.cpg/sg67_22_cif.got.tgz:43460.got - 2010.06.03 18:28:57.
