data_PCOD9501766
_publ_section_title
;
Structure prediction by ZEFSAII (Michael W. Deem and Ramdas Pophale) SiO2 
 PCOD9501766
Probable space group: C M M A
;
_chemical_formula_sum "Si O2"
_cell_formula_units_Z 88
_cell_length_a 20.798978
_cell_length_b 10.696171
_cell_length_c 19.907903
_cell_angle_alpha 90.000000
_cell_angle_beta 90.000000
_cell_angle_gamma 90.000000
_cell_volume 4428.899740
_symmetry_space_group_name_H-M "C M M A"
_symmetry_group_IT_number 67
_symmetry_cell_setting 'orthorhombic'
loop_
_space_group_symop_operation_xyz
x,y,z
-x,1/2-y,z
x,-y,-z
-x,1/2+y,-z
-x,-y,-z
x,1/2+y,-z
-x,y,z
x,1/2-y,z
1/2+x,1/2+y,z
1/2-x,-y,z
1/2+x,1/2-y,-z
1/2-x,y,-z
1/2-x,1/2-y,-z
1/2+x,y,-z
1/2-x,1/2+y,z
1/2+x,-y,z
loop_
_atom_site_type_symbol
_atom_site_label
_atom_site_fract_x
_atom_site_fract_y
_atom_site_fract_z
Si Si1 0.074951 0.610117 0.700890
Si Si2 0.376157 0.608567 0.449924
Si Si3 0.332748 0.613027 0.727807
Si Si4 0.750000 0.000000 0.612041
Si Si5 0.571513 0.107119 0.055935
Si Si6 0.293205 0.387973 0.123767
O O1 0.096428 0.750000 0.721723
O O2 0.085692 0.603700 0.620359
O O3 0.117406 0.500336 0.731150
O O4 0.000000 0.596754 0.716370
O O5 0.398347 0.500000 0.500000
O O6 0.380725 0.750000 0.477068
O O7 0.302357 0.575613 0.430516
O O8 0.364031 0.750000 0.723499
O O9 0.289283 0.590192 0.662259
O O10 0.290993 0.612440 0.795408
O O11 0.500000 0.094826 0.087217
O O12 0.574832 0.250000 0.028315
O O13 0.632130 0.094457 0.104636
O O14 0.576632 0.000000 0.000000
O O15 0.272992 0.250000 0.099551
O O16 0.250000 0.500000 0.096848
#
# Coordination Sequence:
#
# PCOD9501766 Si02
#       6
#    16  16  16   8  16  16
#     4   9  20  38  55  73 102 139 175 216 270 326
#     4  10  21  34  51  74 100 131 169 215 263 317
#     4  10  20  34  55  81 106 138 178 219 266 319
#     4  10  19  34  54  74 103 136 172 210 262 322
#     4   9  19  37  59  82 112 151 193 235 278 324
#     4  10  21  36  56  85 117 150 186 230 280 329
#
# _framework density 19.869494
#
# number of rings (size 3 to 8) (size 9 to 14) (size 15 to 20)
#    0.000    2.364    0.909    0.818    0.000    8.364 
#    0.000    3.636    0.000    2.182    0.000    0.000 
#    0.000    0.000    0.000    0.000    0.000    0.000 
#
# Total GULP energy -245402.516207 kJ/mol
# GULP energy per Si atom -5577.329914 kJ/mol
# Density = 1.982427 g / cm^3
# Si number density = 19.869494 Si / 1000 Ang^3
#
#
#
# Elastic Constant Matrix: (Units=GPa)
#
#
# Indices 1 2 3 4 5 6 
#
# 1 53.9542 53.3036 -3.5850 0.0000 0.0000 0.0000
# 2 53.3036 166.3375 19.6173 0.0000 0.0000 0.0000
# 3 -3.5850 19.6173 16.6664 0.0000 0.0000 0.0000
# 4 0.0000 0.0000 0.0000 21.0410 0.0000 0.0000
# 5 0.0000 0.0000 0.0000 0.0000 6.6001 0.0000
# 6 0.0000 0.0000 0.0000 0.0000 0.0000 28.6101
#
#
#
# Elastic Compliance Matrix: (Units=1/GPa)
#
#
# Indices 1 2 3 4 5 6 
#
# 1 0.033241 -0.013348 0.022862 0.000000 0.000000 0.000000
# 2 -0.013348 0.012341 -0.017398 0.000000 0.000000 0.000000
# 3 0.022862 -0.017398 0.085397 0.000000 0.000000 0.000000
# 4 0.000000 0.000000 0.000000 0.047526 0.000000 0.000000
# 5 0.000000 0.000000 0.000000 0.000000 0.151513 0.000000
# 6 0.000000 0.000000 0.000000 0.000000 0.000000 0.034953
#
#
# Mechanical properties :
#
#
# Convention : Reuss Voigt Hill
#
# Bulk Modulus (GPa) = 8.67974 41.73666 25.20820
# Shear Modulus (GPa) = 11.92910 22.42505 17.17708
#
# Velocity S-wave (km/s) = 2.45291 3.36313 2.94342
# Velocity P-wave (km/s) = 3.52139 6.01098 4.92606
#
# Compressibility (1/GPa) = 0.11521089
#
# Stress axis : x y z
#
# Youngs Moduli (GPa) = 30.08354 81.02894 11.71003
#
# Poissons Ratio (x) = 1.08161 -0.26772
# Poissons Ratio (y) = 0.40157 0.20373
# Poissons Ratio (z) = -0.68777 1.40972
#
# Static dielectric constant tensor:
#      x y z
#    x 1.692810 0.000000 0.000000 
#    y 0.000000 1.720510 0.000000 
#    z 0.000000 0.000000 1.694880 
# 
# From -- ./inp_files/39597.got.cif
#   From: 2010.05.17/outbox.cif.g08.bks.cpg/sg67_20_cif.got.tgz:39597.got - 2010.06.03 18:28:57.
