data_PCOD9501718
_publ_section_title
;
Structure prediction by ZEFSAII (Michael W. Deem and Ramdas Pophale) SiO2 
 PCOD9501718
Probable space group: C M M A
;
_chemical_formula_sum "Si O2"
_cell_formula_units_Z 104
_cell_length_a 31.717695
_cell_length_b 19.341526
_cell_length_c 8.109148
_cell_angle_alpha 90.000000
_cell_angle_beta 90.000000
_cell_angle_gamma 90.000000
_cell_volume 4974.707853
_symmetry_space_group_name_H-M "C M M A"
_symmetry_group_IT_number 67
_symmetry_cell_setting 'orthorhombic'
loop_
_space_group_symop_operation_xyz
x,y,z
-x,1/2-y,z
x,-y,-z
-x,1/2+y,-z
-x,-y,-z
x,1/2+y,-z
-x,y,z
x,1/2-y,z
1/2+x,1/2+y,z
1/2-x,-y,z
1/2+x,1/2-y,-z
1/2-x,y,-z
1/2-x,1/2-y,-z
1/2+x,y,-z
1/2-x,1/2+y,z
1/2+x,-y,z
loop_
_atom_site_type_symbol
_atom_site_label
_atom_site_fract_x
_atom_site_fract_y
_atom_site_fract_z
Si Si1 0.500000 0.667053 0.270507
Si Si2 0.588100 0.893211 0.758512
Si Si3 0.826060 0.824207 0.321012
Si Si4 0.248194 0.421154 0.702677
Si Si5 0.588452 0.832201 0.097939
Si Si6 0.834126 0.129597 0.326237
Si Si7 0.378766 0.500000 0.500000
Si Si8 0.500000 0.333330 0.352443
O O1 0.500000 0.750000 0.279287
O O2 0.456305 0.649541 0.181767
O O3 0.500000 0.642382 0.457936
O O4 0.625131 0.841905 0.701195
O O5 0.542119 0.862267 0.728588
O O6 0.595140 0.960669 0.644101
O O7 0.594510 0.888946 0.954440
O O8 0.815676 0.750000 0.248587
O O9 0.794917 0.882612 0.253287
O O10 0.821542 0.824024 0.518114
O O11 0.250000 0.500000 0.756193
O O12 0.250000 0.420885 0.500000
O O13 0.290453 0.384284 0.766568
O O14 0.586439 0.750000 0.045147
O O15 0.627429 0.840008 0.222772
O O16 0.850190 0.057314 0.408526
O O17 0.500000 0.250000 0.343682
#
# Coordination Sequence:
#
# PCOD9501718 Si02
#       8
#     8  16  16  16  16  16   8   8
#     4   9  19  35  57  86 117 149 188 234 290 355
#     4  11  23  39  60  84 119 158 199 247 298 365
#     4  10  19  33  56  85 116 155 206 255 297 350
#     4   9  17  32  55  81 112 154 203 251 297 350
#     4  11  22  37  59  90 124 155 191 245 313 365
#     4  10  20  35  58  84 119 156 198 253 301 353
#     4  10  22  41  61  86 116 162 210 243 293 358
#     4  11  21  38  65  90 115 155 205 251 296 353
#
# _framework density 20.905750000000001
#
# number of rings (size 3 to 8) (size 9 to 14) (size 15 to 20)
#    0.000    1.846    0.000    6.923    0.000    6.154 
#    0.000    1.538    0.000    5.538    0.000    0.000 
#    0.000    0.000    0.000    0.000    0.000    0.000 
#
# Total GULP energy -290060.830173 kJ/mol
# GULP energy per Si atom -5578.092888 kJ/mol
# Density = 2.085817 g / cm^3
# Si number density = 20.905750 Si / 1000 Ang^3
#
#
#
# Elastic Constant Matrix: (Units=GPa)
#
#
# Indices 1 2 3 4 5 6 
#
# 1 140.7772 40.6008 4.7419 0.0000 0.0000 0.0000
# 2 40.6008 93.0226 3.2039 0.0000 0.0000 0.0000
# 3 4.7419 3.2039 41.5750 0.0000 0.0000 0.0000
# 4 0.0000 0.0000 0.0000 17.7269 0.0000 0.0000
# 5 0.0000 0.0000 0.0000 0.0000 264.5329 0.0000
# 6 0.0000 0.0000 0.0000 0.0000 0.0000 16.9364
#
#
#
# Elastic Compliance Matrix: (Units=1/GPa)
#
#
# Indices 1 2 3 4 5 6 
#
# 1 0.008144 -0.003532 -0.000657 0.000000 0.000000 0.000000
# 2 -0.003532 0.012310 -0.000546 0.000000 0.000000 0.000000
# 3 -0.000657 -0.000546 0.024170 0.000000 0.000000 0.000000
# 4 0.000000 0.000000 0.000000 0.056412 0.000000 0.000000
# 5 0.000000 0.000000 0.000000 0.000000 0.003780 0.000000
# 6 0.000000 0.000000 0.000000 0.000000 0.000000 0.059044
#
#
# Mechanical properties :
#
#
# Convention : Reuss Voigt Hill
#
# Bulk Modulus (GPa) = 28.44510 41.38532 34.91521
# Shear Modulus (GPa) = 27.01999 74.96112 50.99056
#
# Velocity S-wave (km/s) = 3.59899 5.99454 4.94405
# Velocity P-wave (km/s) = 5.55933 8.23115 7.02346
#
# Compressibility (1/GPa) = 0.03515545
#
# Stress axis : x y z
#
# Youngs Moduli (GPa) = 122.78696 81.23175 41.37379
#
# Poissons Ratio (x) = 0.28691 0.02717
# Poissons Ratio (y) = 0.43368 0.02258
# Poissons Ratio (z) = 0.08064 0.04434
#
# Static dielectric constant tensor:
#      x y z
#    x 2.093950 0.000000 0.000000 
#    y 0.000000 1.783820 0.000000 
#    z 0.000000 0.000000 1.813710 
# 
# From -- ./inp_files/13856.got.cif
#   From: 2010.05.17/outbox.cif.g08.bks.cpg/sg67_7_cif.got.tgz:13856.got - 2010.06.03 18:28:57.
