data_PCOD9501362
_publ_section_title
;
Structure prediction by ZEFSAII (Michael W. Deem and Ramdas Pophale) SiO2 
 PCOD9501362
Probable space group: C M M A
;
_chemical_formula_sum "Si O2"
_cell_formula_units_Z 96
_cell_length_a 19.435044
_cell_length_b 8.979749
_cell_length_c 32.378776
_cell_angle_alpha 90.000000
_cell_angle_beta 90.000000
_cell_angle_gamma 90.000000
_cell_volume 5650.802817
_symmetry_space_group_name_H-M "C M M A"
_symmetry_group_IT_number 67
_symmetry_cell_setting 'orthorhombic'
loop_
_space_group_symop_operation_xyz
x,y,z
-x,1/2-y,z
x,-y,-z
-x,1/2+y,-z
-x,-y,-z
x,1/2+y,-z
-x,y,z
x,1/2-y,z
1/2+x,1/2+y,z
1/2-x,-y,z
1/2+x,1/2-y,-z
1/2-x,y,-z
1/2-x,1/2-y,-z
1/2+x,y,-z
1/2-x,1/2+y,z
1/2+x,-y,z
loop_
_atom_site_type_symbol
_atom_site_label
_atom_site_fract_x
_atom_site_fract_y
_atom_site_fract_z
Si Si1 0.325479 0.929843 0.120739
Si Si2 0.920955 0.568676 0.283573
Si Si3 0.916144 0.422371 0.625917
Si Si4 0.079697 0.571321 0.957017
Si Si5 0.916148 0.078513 0.457954
Si Si6 0.325518 0.569908 0.793345
O O1 0.320836 0.750000 0.124451
O O2 0.373966 0.968037 0.082199
O O3 0.250000 0.000000 0.114168
O O4 0.351854 0.000819 0.163576
O O5 0.922049 0.750000 0.285658
O O6 0.895477 0.517978 0.328889
O O7 0.873437 0.528359 0.245229
O O8 0.000000 0.519968 0.277546
O O9 0.895730 0.250000 0.622374
O O10 0.892626 0.506783 0.585046
O O11 0.000000 0.425850 0.626552
O O12 0.081406 0.750000 0.961174
O O13 0.000000 0.526099 0.950567
O O14 0.103759 0.500000 0.000000
O O15 0.897054 0.250000 0.459290
O O16 0.000000 0.068902 0.457710
O O17 0.892726 0.000000 0.500000
O O18 0.321487 0.750000 0.796374
O O19 0.250000 0.500000 0.787276
#
# Coordination Sequence:
#
# PCOD9501362 Si02
#       6
#    16  16  16  16  16  16
#     4  10  20  34  51  71  96 124 155 191 230 272
#     4   8  15  28  46  67  89 116 152 190 227 270
#     4   8  13  23  38  54  75 104 138 178 221 261
#     4   9  19  35  53  73  98 127 157 190 229 272
#     4   9  15  21  30  47  73 106 142 176 213 260
#     4  10  19  32  50  70  94 123 155 191 230 273
#
# _framework density 16.988737
#
# number of rings (size 3 to 8) (size 9 to 14) (size 15 to 20)
#    0.000    3.000    0.000    3.500    0.000    4.333 
#    0.000    3.333    0.000    3.500    0.000    0.000 
#    0.000    0.667    0.000    7.667    0.000    9.333 
#
# Total GULP energy -267316.415754 kJ/mol
# GULP energy per Si atom -5569.091995 kJ/mol
# Density = 1.695007 g / cm^3
# Si number density = 16.988737 Si / 1000 Ang^3
#
#
#
# Elastic Constant Matrix: (Units=GPa)
#
#
# Indices 1 2 3 4 5 6 
#
# 1 31.6406 24.3152 67.8606 0.0000 0.0000 0.0000
# 2 24.3152 61.7594 73.1516 0.0000 0.0000 0.0000
# 3 67.8606 73.1516 225.1528 0.0000 0.0000 0.0000
# 4 0.0000 0.0000 0.0000 28.2889 0.0000 0.0000
# 5 0.0000 0.0000 0.0000 0.0000 -10.3515 0.0000
# 6 0.0000 0.0000 0.0000 0.0000 0.0000 11.7442
#
#
#
# Elastic Compliance Matrix: (Units=1/GPa)
#
#
# Indices 1 2 3 4 5 6 
#
# 1 0.090479 -0.005400 -0.025516 0.000000 0.000000 0.000000
# 2 -0.005400 0.026643 -0.007029 0.000000 0.000000 0.000000
# 3 -0.025516 -0.007029 0.014415 0.000000 0.000000 0.000000
# 4 0.000000 0.000000 0.000000 0.035350 0.000000 0.000000
# 5 0.000000 0.000000 0.000000 0.000000 -0.096604 0.000000
# 6 0.000000 0.000000 0.000000 0.000000 0.000000 0.085148
#
#
# Mechanical properties :
#
#
# Convention : Reuss Voigt Hill
#
# Bulk Modulus (GPa) = 17.96987 72.13416 45.05201
# Shear Modulus (GPa) = 20.01046 16.15136 18.08091
#
# Velocity S-wave (km/s) = 3.43573 3.08670 3.26588
# Velocity P-wave (km/s) = 5.13220 7.43343 6.38730
#
# Compressibility (1/GPa) = 0.05564872
#
# Stress axis : x y z
#
# Youngs Moduli (GPa) = 11.05230 37.53305 69.37005
#
# Poissons Ratio (x) = 0.20267 1.77003
# Poissons Ratio (y) = 0.05968 0.48759
# Poissons Ratio (z) = 0.28201 0.26381
#
# Static dielectric constant tensor:
#      x y z
#    x 1.558030 0.000000 0.000000 
#    y 0.000000 1.576040 0.000000 
#    z 0.000000 0.000000 1.590520 
# 
# From -- ./inp_files/44783.got.cif
#   From: 2010.05.17/outbox.cif.g08.bks.cpg/sg67_23_cif.got.tgz:44783.got - 2010.06.03 18:28:57.
