data_PCOD9501700
_publ_section_title
;
Structure prediction by ZEFSAII (Michael W. Deem and Ramdas Pophale) SiO2 
 PCOD9501700
Probable space group: C M M A
;
_chemical_formula_sum "Si O2"
_cell_formula_units_Z 88
_cell_length_a 11.276705
_cell_length_b 14.563543
_cell_length_c 24.141590
_cell_angle_alpha 90.000000
_cell_angle_beta 90.000000
_cell_angle_gamma 90.000000
_cell_volume 3964.743829
_symmetry_space_group_name_H-M "C M M A"
_symmetry_group_IT_number 67
_symmetry_cell_setting 'orthorhombic'
loop_
_space_group_symop_operation_xyz
x,y,z
-x,1/2-y,z
x,-y,-z
-x,1/2+y,-z
-x,-y,-z
x,1/2+y,-z
-x,y,z
x,1/2-y,z
1/2+x,1/2+y,z
1/2-x,-y,z
1/2+x,1/2-y,-z
1/2-x,y,-z
1/2-x,1/2-y,-z
1/2+x,y,-z
1/2-x,1/2+y,z
1/2+x,-y,z
loop_
_atom_site_type_symbol
_atom_site_label
_atom_site_fract_x
_atom_site_fract_y
_atom_site_fract_z
Si Si1 0.367738 0.544092 0.438986
Si Si2 0.140261 0.250000 0.814559
Si Si3 0.803739 0.094897 0.136117
Si Si4 0.288699 0.750000 0.295670
Si Si5 0.137805 0.750000 0.588460
Si Si6 0.123505 0.108428 0.017728
Si Si7 0.871737 0.555033 0.741123
O O1 0.372673 0.500000 0.500000
O O2 0.500000 0.528665 0.413623
O O3 0.250000 0.500000 0.411150
O O4 0.350003 0.653735 0.442989
O O5 0.200374 0.336702 0.844598
O O6 0.184672 0.250000 0.750318
O O7 0.000000 0.250000 0.817637
O O8 0.876602 0.126747 0.083571
O O9 0.870773 0.071258 0.192709
O O10 0.750000 0.000000 0.115389
O O11 0.268781 0.750000 0.361197
O O12 0.359390 0.843984 0.284688
O O13 0.000000 0.750000 0.609347
O O14 0.000000 0.144655 0.993426
O O15 0.250000 0.146136 0.000000
O O16 0.123759 0.000000 0.000000
O O17 0.750000 0.500000 0.728547
O O18 0.000000 0.513090 0.725910
#
# Coordination Sequence:
#
# PCOD9501700 Si02
#       7
#    16   8  16   8   8  16  16
#     4   9  19  36  59  89 126 169 219 269 314 369
#     4  10  24  42  65  96 128 160 206 270 323 379
#     4  10  20  37  60  87 115 157 202 245 311 383
#     4  10  22  40  61  84 122 165 209 252 316 388
#     4  10  20  37  61  86 122 174 216 258 324 384
#     4  10  19  33  55  85 117 155 200 252 309 372
#     4  10  21  36  58  86 115 153 202 254 309 378
#
# _framework density 22.195632
#
# number of rings (size 3 to 8) (size 9 to 14) (size 15 to 20)
#    0.000    2.182    1.818    1.364    0.000   10.182 
#    0.000    4.091    0.000    0.000    0.000    0.000 
#    0.000    0.000    0.000    0.000    0.000    0.000 
#
# Total GULP energy -245209.723291 kJ/mol
# GULP energy per Si atom -5572.948257 kJ/mol
# Density = 2.214511 g / cm^3
# Si number density = 22.195632 Si / 1000 Ang^3
#
#
#
# Elastic Constant Matrix: (Units=GPa)
#
#
# Indices 1 2 3 4 5 6 
#
# 1 239.8448 65.7554 18.1361 0.0000 0.0000 0.0000
# 2 65.7554 129.0762 27.7253 0.0000 0.0000 0.0000
# 3 18.1361 27.7253 91.6739 0.0000 0.0000 0.0000
# 4 0.0000 0.0000 0.0000 11.8214 0.0000 0.0000
# 5 0.0000 0.0000 0.0000 0.0000 -0.1077 0.0000
# 6 0.0000 0.0000 0.0000 0.0000 0.0000 20.7690
#
#
#
# Elastic Compliance Matrix: (Units=1/GPa)
#
#
# Indices 1 2 3 4 5 6 
#
# 1 0.004851 -0.002422 -0.000227 0.000000 0.000000 0.000000
# 2 -0.002422 0.009495 -0.002392 0.000000 0.000000 0.000000
# 3 -0.000227 -0.002392 0.011677 0.000000 0.000000 0.000000
# 4 0.000000 0.000000 0.000000 0.084592 0.000000 0.000000
# 5 0.000000 0.000000 0.000000 0.000000 -9.283635 0.000000
# 6 0.000000 0.000000 0.000000 0.000000 0.000000 0.048149
#
#
# Mechanical properties :
#
#
# Convention : Reuss Voigt Hill
#
# Bulk Modulus (GPa) = 62.73923 75.98094 69.36009
# Shear Modulus (GPa) = -0.54888 29.76174 14.60643
#
# Velocity S-wave (km/s) = -0.49782 3.66578 2.56808
# Velocity P-wave (km/s) = 5.29126 7.22661 6.33330
#
# Compressibility (1/GPa) = 0.01593899
#
# Stress axis : x y z
#
# Youngs Moduli (GPa) = 206.15923 105.31580 85.64053
#
# Poissons Ratio (x) = 0.25511 0.01944
# Poissons Ratio (y) = 0.49938 0.20489
# Poissons Ratio (z) = 0.04680 0.25197
#
# Static dielectric constant tensor:
#      x y z
#    x 1.910150 0.000000 0.000000 
#    y 0.000000 1.814250 0.000000 
#    z 0.000000 0.000000 1.837940 
# 
# From -- ./inp_files/41422.got.cif
#   From: 2010.05.17/outbox.cif.g08.bks.cpg/sg67_21_cif.got.tgz:41422.got - 2010.06.03 18:28:57.
