data_PCOD9501919
_publ_section_title
;
Structure prediction by ZEFSAII (Michael W. Deem and Ramdas Pophale) SiO2 
 PCOD9501919
Probable space group: C M M A
;
_chemical_formula_sum "Si O2"
_cell_formula_units_Z 88
_cell_length_a 27.363136
_cell_length_b 10.109675
_cell_length_c 18.260071
_cell_angle_alpha 90.000000
_cell_angle_beta 90.000000
_cell_angle_gamma 90.000000
_cell_volume 5051.327483
_symmetry_space_group_name_H-M "C M M A"
_symmetry_group_IT_number 67
_symmetry_cell_setting 'orthorhombic'
loop_
_space_group_symop_operation_xyz
x,y,z
-x,1/2-y,z
x,-y,-z
-x,1/2+y,-z
-x,-y,-z
x,1/2+y,-z
-x,y,z
x,1/2-y,z
1/2+x,1/2+y,z
1/2-x,-y,z
1/2+x,1/2-y,-z
1/2-x,y,-z
1/2-x,1/2-y,-z
1/2+x,y,-z
1/2-x,1/2+y,z
1/2+x,-y,z
loop_
_atom_site_type_symbol
_atom_site_label
_atom_site_fract_x
_atom_site_fract_y
_atom_site_fract_z
Si Si1 0.944196 0.591470 0.635351
Si Si2 0.558259 0.599281 0.062126
Si Si3 0.886670 0.406760 0.215110
Si Si4 0.297187 0.907013 0.761754
Si Si5 0.709074 0.892262 0.588651
Si Si6 0.622315 0.500000 0.500000
O O1 0.947088 0.750000 0.634457
O O2 0.917516 0.557976 0.711881
O O3 0.911923 0.550767 0.565472
O O4 0.000000 0.539251 0.631970
O O5 0.500000 0.581178 0.069132
O O6 0.567424 0.750000 0.038350
O O7 0.581272 0.582705 0.141999
O O8 0.576753 0.500000 0.000000
O O9 0.871424 0.250000 0.222526
O O10 0.842665 0.510332 0.207319
O O11 0.292818 0.750000 0.782948
O O12 0.304782 0.907452 0.673771
O O13 0.250000 0.000000 0.776743
O O14 0.732954 0.750000 0.580183
O O15 0.750000 0.000000 0.574010
O O16 0.661024 0.902415 0.539120
#
# Coordination Sequence:
#
# PCOD9501919 Si02
#       6
#    16  16  16  16  16   8
#     4  10  21  35  52  74 102 142 189 230 269 318
#     4   9  18  33  56  86 118 148 181 221 266 319
#     4  10  19  35  58  82 109 145 184 223 267 321
#     4  10  20  36  55  79 108 140 179 225 274 326
#     4  10  22  36  52  75 103 135 177 228 280 329
#     4  12  20  34  52  74 104 142 184 230 276 318
#
# _framework density 17.421163
#
# number of rings (size 3 to 8) (size 9 to 14) (size 15 to 20)
#    0.000    2.000    1.818    2.182    0.000    5.818 
#    0.000    0.000    0.000    3.273    0.000    3.818 
#    0.000    0.000    0.000    0.000    0.000    0.000 
#
# Total GULP energy -245131.002604 kJ/mol
# GULP energy per Si atom -5571.159150 kJ/mol
# Density = 1.738151 g / cm^3
# Si number density = 17.421163 Si / 1000 Ang^3
#
#
#
# Elastic Constant Matrix: (Units=GPa)
#
#
# Indices 1 2 3 4 5 6 
#
# 1 101.6359 67.4168 41.9324 0.0000 0.0000 0.0000
# 2 67.4168 115.8621 47.0742 0.0000 0.0000 0.0000
# 3 41.9324 47.0742 83.9999 0.0000 0.0000 0.0000
# 4 0.0000 0.0000 0.0000 57.3510 0.0000 0.0000
# 5 0.0000 0.0000 0.0000 0.0000 18.3000 0.0000
# 6 0.0000 0.0000 0.0000 0.0000 0.0000 23.8891
#
#
#
# Elastic Compliance Matrix: (Units=1/GPa)
#
#
# Indices 1 2 3 4 5 6 
#
# 1 0.016907 -0.008298 -0.003790 0.000000 0.000000 0.000000
# 2 -0.008298 0.015248 -0.004403 0.000000 0.000000 0.000000
# 3 -0.003790 -0.004403 0.016264 0.000000 0.000000 0.000000
# 4 0.000000 0.000000 0.000000 0.017436 0.000000 0.000000
# 5 0.000000 0.000000 0.000000 0.000000 0.054645 0.000000
# 6 0.000000 0.000000 0.000000 0.000000 0.000000 0.041860
#
#
# Mechanical properties :
#
#
# Convention : Reuss Voigt Hill
#
# Bulk Modulus (GPa) = 64.77487 68.26051 66.51769
# Shear Modulus (GPa) = 24.93934 29.57967 27.25951
#
# Velocity S-wave (km/s) = 3.78769 4.12505 3.95996
# Velocity P-wave (km/s) = 7.50941 7.87119 7.69243
#
# Compressibility (1/GPa) = 0.01543809
#
# Stress axis : x y z
#
# Youngs Moduli (GPa) = 59.14864 65.58214 61.48574
#
# Poissons Ratio (x) = 0.54418 0.23300
# Poissons Ratio (y) = 0.49080 0.27072
# Poissons Ratio (z) = 0.22415 0.28875
#
# Static dielectric constant tensor:
#      x y z
#    x 1.595620 0.000000 0.000000 
#    y 0.000000 1.643490 0.000000 
#    z 0.000000 0.000000 1.584550 
# 
# From -- ./inp_files/36197.got.cif
#   From: 2010.05.17/outbox.cif.g08.bks.cpg/sg67_19_cif.got.tgz:36197.got - 2010.06.03 18:28:57.
