data_PCOD9501074
_publ_section_title
;
Structure prediction by ZEFSAII (Michael W. Deem and Ramdas Pophale) SiO2 
 PCOD9501074
Probable space group: C M M A
;
_chemical_formula_sum "Si O2"
_cell_formula_units_Z 96
_cell_length_a 27.598715
_cell_length_b 8.917533
_cell_length_c 24.395237
_cell_angle_alpha 90.000000
_cell_angle_beta 90.000000
_cell_angle_gamma 90.000000
_cell_volume 6003.971590
_symmetry_space_group_name_H-M "C M M A"
_symmetry_group_IT_number 67
_symmetry_cell_setting 'orthorhombic'
loop_
_space_group_symop_operation_xyz
x,y,z
-x,1/2-y,z
x,-y,-z
-x,1/2+y,-z
-x,-y,-z
x,1/2+y,-z
-x,y,z
x,1/2-y,z
1/2+x,1/2+y,z
1/2-x,-y,z
1/2+x,1/2-y,-z
1/2-x,y,-z
1/2-x,1/2-y,-z
1/2+x,y,-z
1/2-x,1/2+y,z
1/2+x,-y,z
loop_
_atom_site_type_symbol
_atom_site_label
_atom_site_fract_x
_atom_site_fract_y
_atom_site_fract_z
Si Si1 0.198341 0.930351 0.827224
Si Si2 0.058948 0.423008 0.556400
Si Si3 0.151875 0.570916 0.942769
Si Si4 0.058227 0.073314 0.329281
Si Si5 0.897011 0.070923 0.777859
Si Si6 0.054780 0.069340 0.116797
O O1 0.198420 0.750000 0.822475
O O2 0.184683 0.969310 0.890413
O O3 0.250000 0.000000 0.813297
O O4 0.155229 0.999246 0.791146
O O5 0.075356 0.500000 0.500000
O O6 0.074211 0.250000 0.559028
O O7 0.073181 0.511511 0.611143
O O8 0.000000 0.424615 0.555315
O O9 0.152836 0.750000 0.948170
O O10 0.096905 0.525933 0.925833
O O11 0.166623 0.500000 0.000000
O O12 0.068565 0.250000 0.324772
O O13 0.000000 0.053883 0.324558
O O14 0.083476 0.984316 0.280405
O O15 0.894818 0.250000 0.780495
O O16 0.932112 0.008298 0.825761
O O17 0.058287 0.250000 0.124514
O O18 0.000000 0.033401 0.099750
#
# Coordination Sequence:
#
# PCOD9501074 Si02
#       6
#    16  16  16  16  16  16
#     4  10  21  38  56  73  93 118 148 185 234 286
#     4   9  16  26  40  60  89 126 167 206 240 276
#     4   9  19  33  49  70  95 121 151 187 226 274
#     4  10  19  30  45  66  95 132 168 201 238 277
#     4  11  21  32  48  71  96 121 154 195 236 281
#     4   9  18  33  49  65  91 127 160 191 231 275
#
# _framework density 15.989417
#
# number of rings (size 3 to 8) (size 9 to 14) (size 15 to 20)
#    0.000    2.333    0.000    4.500    0.000    9.333 
#    0.000    1.667    0.000    0.000    0.000    0.000 
#    0.000    0.667    0.000    6.667    0.000    4.333 
#
# Total GULP energy -267780.755610 kJ/mol
# GULP energy per Si atom -5578.765742 kJ/mol
# Density = 1.595302 g / cm^3
# Si number density = 15.989417 Si / 1000 Ang^3
#
#
#
# Elastic Constant Matrix: (Units=GPa)
#
#
# Indices 1 2 3 4 5 6 
#
# 1 39.8312 18.5937 -3.9710 0.0000 0.0000 0.0000
# 2 18.5937 64.6762 25.4549 0.0000 0.0000 0.0000
# 3 -3.9710 25.4549 74.7719 0.0000 0.0000 0.0000
# 4 0.0000 0.0000 0.0000 30.4626 0.0000 0.0000
# 5 0.0000 0.0000 0.0000 0.0000 7.5324 0.0000
# 6 0.0000 0.0000 0.0000 0.0000 0.0000 18.2303
#
#
#
# Elastic Compliance Matrix: (Units=1/GPa)
#
#
# Indices 1 2 3 4 5 6 
#
# 1 0.030753 -0.010951 0.005361 0.000000 0.000000 0.000000
# 2 -0.010951 0.021754 -0.007987 0.000000 0.000000 0.000000
# 3 0.005361 -0.007987 0.016378 0.000000 0.000000 0.000000
# 4 0.000000 0.000000 0.000000 0.032827 0.000000 0.000000
# 5 0.000000 0.000000 0.000000 0.000000 0.132759 0.000000
# 6 0.000000 0.000000 0.000000 0.000000 0.000000 0.054854
#
#
# Mechanical properties :
#
#
# Convention : Reuss Voigt Hill
#
# Bulk Modulus (GPa) = 23.96360 28.82606 26.39483
# Shear Modulus (GPa) = 15.13373 20.52519 17.82946
#
# Velocity S-wave (km/s) = 3.07984 3.58673 3.34290
# Velocity P-wave (km/s) = 5.25993 5.93466 5.60745
#
# Compressibility (1/GPa) = 0.04172995
#
# Stress axis : x y z
#
# Youngs Moduli (GPa) = 32.51766 45.96955 61.05796
#
# Poissons Ratio (x) = 0.50342 -0.32735
# Poissons Ratio (y) = 0.35610 0.48769
# Poissons Ratio (z) = -0.17434 0.36717
#
# Static dielectric constant tensor:
#      x y z
#    x 1.524520 0.000000 0.000000 
#    y 0.000000 1.537060 0.000000 
#    z 0.000000 0.000000 1.519760 
# 
# From -- ./inp_files/37137.got.cif
#   From: 2010.05.17/outbox.cif.g08.bks.cpg/sg67_19_cif.got.tgz:37137.got - 2010.06.03 18:28:57.
