data_PCOD9501950
_publ_section_title
;
Structure prediction by ZEFSAII (Michael W. Deem and Ramdas Pophale) SiO2 
 PCOD9501950
Probable space group: C M M A
;
_chemical_formula_sum "Si O2"
_cell_formula_units_Z 112
_cell_length_a 15.840537
_cell_length_b 24.290513
_cell_length_c 14.393081
_cell_angle_alpha 90.000000
_cell_angle_beta 90.000000
_cell_angle_gamma 90.000000
_cell_volume 5538.094430
_symmetry_space_group_name_H-M "C M M A"
_symmetry_group_IT_number 67
_symmetry_cell_setting 'orthorhombic'
loop_
_space_group_symop_operation_xyz
x,y,z
-x,1/2-y,z
x,-y,-z
-x,1/2+y,-z
-x,-y,-z
x,1/2+y,-z
-x,y,z
x,1/2-y,z
1/2+x,1/2+y,z
1/2-x,-y,z
1/2+x,1/2-y,-z
1/2-x,y,-z
1/2-x,1/2-y,-z
1/2+x,y,-z
1/2-x,1/2+y,z
1/2+x,-y,z
loop_
_atom_site_type_symbol
_atom_site_label
_atom_site_fract_x
_atom_site_fract_y
_atom_site_fract_z
Si Si1 0.596910 0.815066 0.083793
Si Si2 0.097383 0.505386 0.898557
Si Si3 0.257827 0.187690 0.210491
Si Si4 0.238331 0.370971 0.606957
Si Si5 0.095027 0.460687 0.582783
Si Si6 0.904861 0.123895 0.889091
Si Si7 0.332606 0.538212 0.282484
O O1 0.500000 0.822094 0.116754
O O2 0.605092 0.750000 0.054253
O O3 0.667318 0.824130 0.162672
O O4 0.608647 0.855790 0.995789
O O5 0.096373 0.441300 0.870153
O O6 0.143526 0.543920 0.824918
O O7 0.000000 0.524525 0.908715
O O8 0.137434 0.500000 0.000000
O O9 0.278858 0.250000 0.185643
O O10 0.262167 0.178608 0.320730
O O11 0.329270 0.148975 0.168834
O O12 0.250000 0.355589 0.500000
O O13 0.154672 0.409370 0.604550
O O14 0.310592 0.409952 0.653530
O O15 0.130131 0.500000 0.500000
O O16 0.095558 0.501437 0.670365
O O17 0.000000 0.444013 0.558297
O O18 0.000000 0.143394 0.864695
O O19 0.250000 0.500000 0.285429
#
# Coordination Sequence:
#
# PCOD9501950 Si02
#       7
#    16  16  16  16  16  16  16
#     4   9  19  38  63  89 119 159 211 265 310 365
#     4  10  22  38  55  84 127 165 200 241 290 361
#     4  11  24  40  62  90 119 160 211 262 321 380
#     4  11  23  40  60  86 119 155 204 262 313 362
#     4  10  19  35  61  89 117 151 195 246 298 357
#     4  10  20  37  61  90 127 164 200 251 308 372
#     4  10  20  34  55  80 114 157 190 237 288 352
#
# _framework density 20.223562000000001
#
# number of rings (size 3 to 8) (size 9 to 14) (size 15 to 20)
#    0.000    1.857    1.429    3.000    2.000    4.286 
#    2.571    1.429    0.000    0.000    0.000    2.000 
#    0.000    0.000    0.000    0.000    0.000    0.000 
#
# Total GULP energy -312435.442780 kJ/mol
# GULP energy per Si atom -5579.204335 kJ/mol
# Density = 2.017753 g / cm^3
# Si number density = 20.223562 Si / 1000 Ang^3
#
#
#
# Elastic Constant Matrix: (Units=GPa)
#
#
# Indices 1 2 3 4 5 6 
#
# 1 73.8108 14.0753 28.4453 0.0000 0.0000 0.0000
# 2 14.0753 41.2873 4.0777 0.0000 0.0000 0.0000
# 3 28.4453 4.0777 113.8601 0.0000 0.0000 0.0000
# 4 0.0000 0.0000 0.0000 32.9315 0.0000 0.0000
# 5 0.0000 0.0000 0.0000 0.0000 16.6515 0.0000
# 6 0.0000 0.0000 0.0000 0.0000 0.0000 10.1077
#
#
#
# Elastic Compliance Matrix: (Units=1/GPa)
#
#
# Indices 1 2 3 4 5 6 
#
# 1 0.015984 -0.005073 -0.003812 0.000000 0.000000 0.000000
# 2 -0.005073 0.025916 0.000339 0.000000 0.000000 0.000000
# 3 -0.003812 0.000339 0.009723 0.000000 0.000000 0.000000
# 4 0.000000 0.000000 0.000000 0.030366 0.000000 0.000000
# 5 0.000000 0.000000 0.000000 0.000000 0.060055 0.000000
# 6 0.000000 0.000000 0.000000 0.000000 0.000000 0.098934
#
#
# Mechanical properties :
#
#
# Convention : Reuss Voigt Hill
#
# Bulk Modulus (GPa) = 28.95776 35.79497 32.37637
# Shear Modulus (GPa) = 18.54736 24.09548 21.32142
#
# Velocity S-wave (km/s) = 3.03168 3.45549 3.25050
# Velocity P-wave (km/s) = 5.15797 5.80161 5.48923
#
# Compressibility (1/GPa) = 0.03453305
#
# Stress axis : x y z
#
# Youngs Moduli (GPa) = 62.56074 38.58558 102.85086
#
# Poissons Ratio (x) = 0.19574 0.39203
# Poissons Ratio (y) = 0.31736 -0.03488
# Poissons Ratio (z) = 0.23846 -0.01309
#
# Static dielectric constant tensor:
#      x y z
#    x 1.718190 0.000000 0.000000 
#    y 0.000000 1.718090 0.000000 
#    z 0.000000 0.000000 1.773150 
# 
# From -- ./inp_files/27746.got.cif
#   From: 2010.05.17/outbox.cif.g08.bks.cpg/sg67_14_cif.got.tgz:27746.got - 2010.06.03 18:28:57.
