data_PCOD9501868
_publ_section_title
;
Structure prediction by ZEFSAII (Michael W. Deem and Ramdas Pophale) SiO2 
 PCOD9501868
Probable space group: C M M A
;
_chemical_formula_sum "Si O2"
_cell_formula_units_Z 60
_cell_length_a 14.317891
_cell_length_b 15.117372
_cell_length_c 12.647887
_cell_angle_alpha 90.000000
_cell_angle_beta 90.000000
_cell_angle_gamma 90.000000
_cell_volume 2737.621032
_symmetry_space_group_name_H-M "C M M A"
_symmetry_group_IT_number 67
_symmetry_cell_setting 'orthorhombic'
loop_
_space_group_symop_operation_xyz
x,y,z
-x,1/2-y,z
x,-y,-z
-x,1/2+y,-z
-x,-y,-z
x,1/2+y,-z
-x,y,z
x,1/2-y,z
1/2+x,1/2+y,z
1/2-x,-y,z
1/2+x,1/2-y,-z
1/2-x,y,-z
1/2-x,1/2-y,-z
1/2+x,y,-z
1/2-x,1/2+y,z
1/2+x,-y,z
loop_
_atom_site_type_symbol
_atom_site_label
_atom_site_fract_x
_atom_site_fract_y
_atom_site_fract_z
Si Si1 0.301177 0.853633 0.105159
Si Si2 0.000000 0.647820 0.993979
Si Si3 0.500000 0.250000 0.362220
Si Si4 0.500000 0.424304 0.221573
Si Si5 0.163011 0.453153 0.312473
Si Si6 0.000000 0.899460 0.545950
O O1 0.275322 0.750000 0.115352
O O2 0.288200 0.900837 0.216202
O O3 0.250000 0.888503 0.000000
O O4 0.409660 0.862696 0.077646
O O5 0.000000 0.585052 0.095127
O O6 0.000000 0.750000 0.031525
O O7 0.500000 0.327844 0.271726
O O8 0.500000 0.327926 0.454465
O O9 0.409209 0.476750 0.262116
O O10 0.250000 0.500000 0.370368
O O11 0.094715 0.393662 0.384320
O O12 0.000000 0.000000 0.500000
#
# Coordination Sequence:
#
# PCOD9501868 Si02
#       6
#    16   8   4   8  16   8
#     4  10  22  39  60  99 140 175 216 267 327 401
#     4  10  19  34  61  87 131 175 213 257 319 395
#     4  12  24  50  70  92 136 170 224 306 336 384
#     4  11  23  42  66  96 130 174 224 276 344 390
#     4  11  24  43  67  99 132 170 223 273 332 413
#     4  11  25  49  70  97 133 173 227 291 339 394
#
# _framework density 21.916839
#
# number of rings (size 3 to 8) (size 9 to 14) (size 15 to 20)
#    0.000    1.333    3.333    3.200    1.867    5.333 
#    2.400    1.333    0.000    0.000    0.000    0.000 
#    0.000    0.000    0.000    0.000    0.000    0.000 
#
# Total GULP energy -167235.828560 kJ/mol
# GULP energy per Si atom -5574.527619 kJ/mol
# Density = 2.186696 g / cm^3
# Si number density = 21.916839 Si / 1000 Ang^3
#
#
#
# Elastic Constant Matrix: (Units=GPa)
#
#
# Indices 1 2 3 4 5 6 
#
# 1 94.5257 -11.0688 1.9532 0.0000 0.0000 0.0000
# 2 -11.0688 96.3739 23.9359 0.0000 0.0000 0.0000
# 3 1.9532 23.9359 98.5993 0.0000 0.0000 0.0000
# 4 0.0000 0.0000 0.0000 52.5277 0.0000 0.0000
# 5 0.0000 0.0000 0.0000 0.0000 5.8699 0.0000
# 6 0.0000 0.0000 0.0000 0.0000 0.0000 22.7487
#
#
#
# Elastic Compliance Matrix: (Units=1/GPa)
#
#
# Indices 1 2 3 4 5 6 
#
# 1 0.010751 0.001370 -0.000546 0.000000 0.000000 0.000000
# 2 0.001370 0.011217 -0.002750 0.000000 0.000000 0.000000
# 3 -0.000546 -0.002750 0.010820 0.000000 0.000000 0.000000
# 4 0.000000 0.000000 0.000000 0.019038 0.000000 0.000000
# 5 0.000000 0.000000 0.000000 0.000000 0.170361 0.000000
# 6 0.000000 0.000000 0.000000 0.000000 0.000000 0.043959
#
#
# Mechanical properties :
#
#
# Convention : Reuss Voigt Hill
#
# Bulk Modulus (GPa) = 34.55766 35.45994 35.00880
# Shear Modulus (GPa) = 17.88003 34.54116 26.21060
#
# Velocity S-wave (km/s) = 2.85934 3.97421 3.46195
# Velocity P-wave (km/s) = 5.16749 6.10520 5.65582
#
# Compressibility (1/GPa) = 0.02893715
#
# Stress axis : x y z
#
# Youngs Moduli (GPa) = 93.01572 89.15307 92.41737
#
# Poissons Ratio (x) = -0.12216 0.05042
# Poissons Ratio (y) = -0.12746 0.25416
# Poissons Ratio (z) = 0.05075 0.24518
#
# Static dielectric constant tensor:
#      x y z
#    x 2.037530 0.000000 0.000000 
#    y 0.000000 1.819140 0.000000 
#    z 0.000000 0.000000 1.798980 
# 
# From -- ./inp_files/17468.got.cif
#   From: 2010.05.17/outbox.cif.g08.bks.cpg/sg67_9_cif.got.tgz:17468.got - 2010.06.03 18:28:57.
