data_PCOD9501939
_publ_section_title
;
Structure prediction by ZEFSAII (Michael W. Deem and Ramdas Pophale) SiO2 
 PCOD9501939
Probable space group: C M M A
;
_chemical_formula_sum "Si O2"
_cell_formula_units_Z 112
_cell_length_a 14.735140
_cell_length_b 23.952518
_cell_length_c 14.454847
_cell_angle_alpha 90.000000
_cell_angle_beta 90.000000
_cell_angle_gamma 90.000000
_cell_volume 5101.747271
_symmetry_space_group_name_H-M "C M M A"
_symmetry_group_IT_number 67
_symmetry_cell_setting 'orthorhombic'
loop_
_space_group_symop_operation_xyz
x,y,z
-x,1/2-y,z
x,-y,-z
-x,1/2+y,-z
-x,-y,-z
x,1/2+y,-z
-x,y,z
x,1/2-y,z
1/2+x,1/2+y,z
1/2-x,-y,z
1/2+x,1/2-y,-z
1/2-x,y,-z
1/2-x,1/2-y,-z
1/2+x,y,-z
1/2-x,1/2+y,z
1/2+x,-y,z
loop_
_atom_site_type_symbol
_atom_site_label
_atom_site_fract_x
_atom_site_fract_y
_atom_site_fract_z
Si Si1 0.606804 0.898000 0.086306
Si Si2 0.606318 0.877753 0.881948
Si Si3 0.608199 0.815362 0.708929
Si Si4 0.358313 0.503361 0.794440
Si Si5 0.349451 0.972406 0.407872
Si Si6 0.727346 0.848861 0.401266
Si Si7 0.893120 0.687869 0.762288
O O1 0.500000 0.884622 0.082684
O O2 0.613737 0.960447 0.125149
O O3 0.644515 0.857677 0.165983
O O4 0.645495 0.887709 0.984118
O O5 0.500000 0.867430 0.895592
O O6 0.636666 0.828163 0.814832
O O7 0.615493 0.934659 0.823621
O O8 0.500000 0.827108 0.697967
O O9 0.622585 0.750000 0.687051
O O10 0.674361 0.853716 0.647776
O O11 0.250000 0.500000 0.791250
O O12 0.392688 0.484870 0.692640
O O13 0.326456 0.906938 0.417340
O O14 0.392345 0.000000 0.500000
O O15 0.250000 0.000000 0.402952
O O16 0.750000 0.822885 0.500000
O O17 0.664280 0.815407 0.331068
O O18 0.887173 0.750000 0.802388
O O19 0.000000 0.676637 0.742687
#
# Coordination Sequence:
#
# PCOD9501939 Si02
#       7
#    16  16  16  16  16  16  16
#     4  10  21  39  61  88 122 165 209 255 312 371
#     4  10  22  38  60  88 123 166 208 255 312 372
#     4  10  23  43  64  92 128 165 211 260 309 370
#     4  11  21  35  59  87 124 162 199 258 314 375
#     4  10  19  35  59  91 120 162 206 249 308 374
#     4  12  23  41  70  92 123 164 207 257 317 374
#     4  10  23  43  65  93 127 164 211 260 308 368
#
# _framework density 21.953261999999999
#
# number of rings (size 3 to 8) (size 9 to 14) (size 15 to 20)
#    0.000    1.571    2.857    3.000    0.000    4.571 
#    0.000    4.286    0.000    4.286    0.000    0.000 
#    0.000    0.000    0.000    0.000    0.000    0.000 
#
# Total GULP energy -312565.518521 kJ/mol
# GULP energy per Si atom -5581.527116 kJ/mol
# Density = 2.190330 g / cm^3
# Si number density = 21.953262 Si / 1000 Ang^3
#
#
#
# Elastic Constant Matrix: (Units=GPa)
#
#
# Indices 1 2 3 4 5 6 
#
# 1 71.6800 -4.2443 22.6473 0.0000 0.0000 0.0000
# 2 -4.2443 68.7627 11.4372 0.0000 0.0000 0.0000
# 3 22.6473 11.4372 151.6428 0.0000 0.0000 0.0000
# 4 0.0000 0.0000 0.0000 19.9646 0.0000 0.0000
# 5 0.0000 0.0000 0.0000 0.0000 35.2558 0.0000
# 6 0.0000 0.0000 0.0000 0.0000 0.0000 16.9121
#
#
#
# Elastic Compliance Matrix: (Units=1/GPa)
#
#
# Indices 1 2 3 4 5 6 
#
# 1 0.014754 0.001293 -0.002301 0.000000 0.000000 0.000000
# 2 0.001293 0.014841 -0.001312 0.000000 0.000000 0.000000
# 3 -0.002301 -0.001312 0.007037 0.000000 0.000000 0.000000
# 4 0.000000 0.000000 0.000000 0.050089 0.000000 0.000000
# 5 0.000000 0.000000 0.000000 0.000000 0.028364 0.000000
# 6 0.000000 0.000000 0.000000 0.000000 0.000000 0.059129
#
#
# Mechanical properties :
#
#
# Convention : Reuss Voigt Hill
#
# Bulk Modulus (GPa) = 31.25762 39.08510 35.17136
# Shear Modulus (GPa) = 26.38261 31.90953 29.14607
#
# Velocity S-wave (km/s) = 3.47041 3.81664 3.64763
# Velocity P-wave (km/s) = 5.50704 6.10449 5.81344
#
# Compressibility (1/GPa) = 0.03199220
#
# Stress axis : x y z
#
# Youngs Moduli (GPa) = 67.77594 67.38133 142.10406
#
# Poissons Ratio (x) = -0.08715 0.32699
# Poissons Ratio (y) = -0.08766 0.18651
# Poissons Ratio (z) = 0.15596 0.08844
#
# Static dielectric constant tensor:
#      x y z
#    x 1.845850 0.000000 0.000000 
#    y 0.000000 1.786710 0.000000 
#    z 0.000000 0.000000 1.856580 
# 
# From -- ./inp_files/27510.got.cif
#   From: 2010.05.17/outbox.cif.g08.bks.cpg/sg67_14_cif.got.tgz:27510.got - 2010.06.03 18:28:57.
