data_PCOD9501885
_publ_section_title
;
Structure prediction by ZEFSAII (Michael W. Deem and Ramdas Pophale) SiO2 
 PCOD9501885
Probable space group: C M M A
;
_chemical_formula_sum "Si O2"
_cell_formula_units_Z 116
_cell_length_a 28.098345
_cell_length_b 18.336172
_cell_length_c 11.381090
_cell_angle_alpha 90.000000
_cell_angle_beta 90.000000
_cell_angle_gamma 90.000000
_cell_volume 5863.720654
_symmetry_space_group_name_H-M "C M M A"
_symmetry_group_IT_number 67
_symmetry_cell_setting 'orthorhombic'
loop_
_space_group_symop_operation_xyz
x,y,z
-x,1/2-y,z
x,-y,-z
-x,1/2+y,-z
-x,-y,-z
x,1/2+y,-z
-x,y,z
x,1/2-y,z
1/2+x,1/2+y,z
1/2-x,-y,z
1/2+x,1/2-y,-z
1/2-x,y,-z
1/2-x,1/2-y,-z
1/2+x,y,-z
1/2-x,1/2+y,z
1/2+x,-y,z
loop_
_atom_site_type_symbol
_atom_site_label
_atom_site_fract_x
_atom_site_fract_y
_atom_site_fract_z
Si Si1 0.834842 0.580517 0.875667
Si Si2 0.323549 0.833642 0.698293
Si Si3 0.750000 0.500000 0.000000
Si Si4 0.785532 0.837409 0.667740
Si Si5 0.385392 0.667180 0.920749
Si Si6 0.354097 0.914033 0.493478
Si Si7 0.051491 0.447734 0.383417
Si Si8 0.576645 0.521070 0.865256
O O1 0.785796 0.550727 0.927892
O O2 0.819293 0.626386 0.764185
O O3 0.869335 0.510993 0.857780
O O4 0.865095 0.633150 0.959964
O O5 0.326173 0.750000 0.654577
O O6 0.269069 0.858801 0.690273
O O7 0.341127 0.832765 0.831304
O O8 0.359547 0.883595 0.624422
O O9 0.787829 0.750000 0.668628
O O10 0.808192 0.870064 0.550525
O O11 0.402683 0.750000 0.933030
O O12 0.422425 0.608560 0.868986
O O13 0.400370 0.903013 0.411158
O O14 0.344249 0.000000 0.500000
O O15 0.051177 0.500000 0.500000
O O16 0.055001 0.488078 0.255826
O O17 0.000000 0.409276 0.383931
O O18 0.559708 0.500000 0.000000
#
# Coordination Sequence:
#
# PCOD9501885 Si02
#       8
#    16  16   4  16  16  16  16  16
#     4  11  21  34  53  82 116 162 201 247 292 351
#     4  10  22  36  52  79 116 158 200 243 288 343
#     4  12  20  32  54  80 120 160 206 260 282 332
#     4  11  23  36  53  80 117 160 200 243 295 357
#     4  10  19  35  55  79 116 158 203 244 288 348
#     4  11  22  37  58  81 110 148 191 241 297 361
#     4  10  21  39  64  91 117 146 191 249 307 368
#     4  10  20  38  59  90 119 152 200 245 302 358
#
# _framework density 19.782661000000001
#
# number of rings (size 3 to 8) (size 9 to 14) (size 15 to 20)
#    0.000    1.517    3.448    3.724    0.000    2.483 
#    0.000    2.759    0.000    2.069    0.000    9.655 
#    0.000    0.000    0.000    0.000    0.000    0.000 
#
# Total GULP energy -323184.995487 kJ/mol
# GULP energy per Si atom -5572.155095 kJ/mol
# Density = 1.973763 g / cm^3
# Si number density = 19.782661 Si / 1000 Ang^3
#
#
#
# Elastic Constant Matrix: (Units=GPa)
#
#
# Indices 1 2 3 4 5 6 
#
# 1 63.5600 11.6656 -1.0339 0.0000 0.0000 0.0000
# 2 11.6656 83.7385 8.1849 0.0000 0.0000 0.0000
# 3 -1.0339 8.1849 81.8411 0.0000 0.0000 0.0000
# 4 0.0000 0.0000 0.0000 28.1931 0.0000 0.0000
# 5 0.0000 0.0000 0.0000 0.0000 -9.3914 0.0000
# 6 0.0000 0.0000 0.0000 0.0000 0.0000 9.2412
#
#
#
# Elastic Compliance Matrix: (Units=1/GPa)
#
#
# Indices 1 2 3 4 5 6 
#
# 1 0.016161 -0.002294 0.000434 0.000000 0.000000 0.000000
# 2 -0.002294 0.012385 -0.001268 0.000000 0.000000 0.000000
# 3 0.000434 -0.001268 0.012351 0.000000 0.000000 0.000000
# 4 0.000000 0.000000 0.000000 0.035470 0.000000 0.000000
# 5 0.000000 0.000000 0.000000 0.000000 -0.106481 0.000000
# 6 0.000000 0.000000 0.000000 0.000000 0.000000 0.108211
#
#
# Mechanical properties :
#
#
# Convention : Reuss Voigt Hill
#
# Bulk Modulus (GPa) = 28.86675 29.64142 29.25409
# Shear Modulus (GPa) = 52.13733 19.63011 35.88372
#
# Velocity S-wave (km/s) = 5.13929 3.15348 4.26361
# Velocity P-wave (km/s) = 7.05974 5.31745 6.24961
#
# Compressibility (1/GPa) = 0.03464193
#
# Stress axis : x y z
#
# Youngs Moduli (GPa) = 61.87650 80.74030 80.96479
#
# Poissons Ratio (x) = 0.18520 -0.03510
# Poissons Ratio (y) = 0.14193 0.10263
# Poissons Ratio (z) = -0.02683 0.10235
#
# Static dielectric constant tensor:
#      x y z
#    x 1.701040 0.000000 0.000000 
#    y 0.000000 1.714530 0.000000 
#    z 0.000000 0.000000 1.686790 
# 
# From -- ./inp_files/23050.got.cif
#   From: 2010.05.17/outbox.cif.g08.bks.cpg/sg67_12_cif.got.tgz:23050.got - 2010.06.03 18:28:57.
