data_PCOD9501016
_publ_section_title
;
Structure prediction by ZEFSAII (Michael W. Deem and Ramdas Pophale) SiO2 
 PCOD9501016
Probable space group: C M M A
;
_chemical_formula_sum "Si O2"
_cell_formula_units_Z 112
_cell_length_a 17.626229
_cell_length_b 26.249652
_cell_length_c 15.205185
_cell_angle_alpha 90.000000
_cell_angle_beta 90.000000
_cell_angle_gamma 90.000000
_cell_volume 7035.171143
_symmetry_space_group_name_H-M "C M M A"
_symmetry_group_IT_number 67
_symmetry_cell_setting 'orthorhombic'
loop_
_space_group_symop_operation_xyz
x,y,z
-x,1/2-y,z
x,-y,-z
-x,1/2+y,-z
-x,-y,-z
x,1/2+y,-z
-x,y,z
x,1/2-y,z
1/2+x,1/2+y,z
1/2-x,-y,z
1/2+x,1/2-y,-z
1/2-x,y,-z
1/2-x,1/2-y,-z
1/2+x,y,-z
1/2-x,1/2+y,z
1/2+x,-y,z
loop_
_atom_site_type_symbol
_atom_site_label
_atom_site_fract_x
_atom_site_fract_y
_atom_site_fract_z
Si Si1 0.736505 0.940899 0.104497
Si Si2 0.649606 0.190130 0.736625
Si Si3 0.585087 0.617294 0.122792
Si Si4 0.087150 0.188405 0.448346
Si Si5 0.412251 0.192391 0.041033
Si Si6 0.408646 0.189802 0.354140
Si Si7 0.188153 0.347280 0.801947
O O1 0.650379 0.924620 0.125129
O O2 0.789418 0.902731 0.160492
O O3 0.750000 0.000000 0.123851
O O4 0.750000 0.932741 0.000000
O O5 0.631401 0.250000 0.744943
O O6 0.595146 0.155332 0.795327
O O7 0.639105 0.175078 0.634457
O O8 0.733727 0.179567 0.772730
O O9 0.500000 0.596658 0.119437
O O10 0.598448 0.652153 0.036668
O O11 0.084818 0.250000 0.451836
O O12 0.111985 0.173363 0.546393
O O13 0.000000 0.171328 0.433293
O O14 0.500000 0.188117 0.072260
O O15 0.401940 0.250000 0.007447
O O16 0.354341 0.181735 0.119223
O O17 0.500000 0.186937 0.346951
O O18 0.388161 0.250000 0.341650
O O19 0.367199 0.156330 0.281379
#
# Coordination Sequence:
#
# PCOD9501016 Si02
#       7
#    16  16  16  16  16  16  16
#     4  10  21  40  56  69  94 126 160 213 268 291
#     4  10  19  28  45  72 104 138 168 202 239 282
#     4  10  20  34  51  74  98 129 170 201 237 295
#     4   8  15  28  44  65  97 137 171 198 233 277
#     4  10  19  30  45  69 104 137 162 192 232 287
#     4   9  17  30  48  71 104 138 165 196 235 287
#     4  11  20  31  48  72  96 129 169 204 246 298
#
# _framework density 15.92001
#
# number of rings (size 3 to 8) (size 9 to 14) (size 15 to 20)
#    0.000    2.286    1.429    3.429    0.000    3.143 
#    0.000    7.143    0.000    0.000    0.000    8.000 
#    0.000   10.286    0.000    0.000    0.000    0.000 
#
# Total GULP energy -312189.518608 kJ/mol
# GULP energy per Si atom -5574.812832 kJ/mol
# Density = 1.588378 g / cm^3
# Si number density = 15.920010 Si / 1000 Ang^3
#
#
#
# Elastic Constant Matrix: (Units=GPa)
#
#
# Indices 1 2 3 4 5 6 
#
# 1 67.7359 43.8831 40.3320 0.0000 0.0000 0.0000
# 2 43.8831 84.9485 37.4739 0.0000 0.0000 0.0000
# 3 40.3320 37.4739 101.2517 0.0000 0.0000 0.0000
# 4 0.0000 0.0000 0.0000 6.7715 0.0000 0.0000
# 5 0.0000 0.0000 0.0000 0.0000 12.8879 0.0000
# 6 0.0000 0.0000 0.0000 0.0000 0.0000 11.2251
#
#
#
# Elastic Compliance Matrix: (Units=1/GPa)
#
#
# Indices 1 2 3 4 5 6 
#
# 1 0.025079 -0.010217 -0.006209 0.000000 0.000000 0.000000
# 2 -0.010217 0.018231 -0.002678 0.000000 0.000000 0.000000
# 3 -0.006209 -0.002678 0.013341 0.000000 0.000000 0.000000
# 4 0.000000 0.000000 0.000000 0.147678 0.000000 0.000000
# 5 0.000000 0.000000 0.000000 0.000000 0.077592 0.000000
# 6 0.000000 0.000000 0.000000 0.000000 0.000000 0.089086
#
#
# Mechanical properties :
#
#
# Convention : Reuss Voigt Hill
#
# Bulk Modulus (GPa) = 54.21676 55.25714 54.73695
# Shear Modulus (GPa) = 12.03775 14.99337 13.51556
#
# Velocity S-wave (km/s) = 2.75278 3.07220 2.91686
# Velocity P-wave (km/s) = 6.65082 6.88252 6.76766
#
# Compressibility (1/GPa) = 0.01844448
#
# Stress axis : x y z
#
# Youngs Moduli (GPa) = 39.87430 54.85227 74.95959
#
# Poissons Ratio (x) = 0.56040 0.46539
# Poissons Ratio (y) = 0.40738 0.20072
# Poissons Ratio (z) = 0.24756 0.14688
#
# Static dielectric constant tensor:
#      x y z
#    x 1.554120 0.000000 0.000000 
#    y 0.000000 1.497420 0.000000 
#    z 0.000000 0.000000 1.547120 
# 
# From -- ./inp_files/27839.got.cif
#   From: 2010.05.17/outbox.cif.g08.bks.cpg/sg67_14_cif.got.tgz:27839.got - 2010.06.03 18:28:57.
