data_PCOD9501146
_publ_section_title
;
Structure prediction by ZEFSAII (Michael W. Deem and Ramdas Pophale) SiO2 
 PCOD9501146
Probable space group: C M M A
;
_chemical_formula_sum "Si O2"
_cell_formula_units_Z 96
_cell_length_a 22.087102
_cell_length_b 18.870884
_cell_length_c 12.201443
_cell_angle_alpha 90.000000
_cell_angle_beta 90.000000
_cell_angle_gamma 90.000000
_cell_volume 5085.599752
_symmetry_space_group_name_H-M "C M M A"
_symmetry_group_IT_number 67
_symmetry_cell_setting 'orthorhombic'
loop_
_space_group_symop_operation_xyz
x,y,z
-x,1/2-y,z
x,-y,-z
-x,1/2+y,-z
-x,-y,-z
x,1/2+y,-z
-x,y,z
x,1/2-y,z
1/2+x,1/2+y,z
1/2-x,-y,z
1/2+x,1/2-y,-z
1/2-x,y,-z
1/2-x,1/2-y,-z
1/2+x,y,-z
1/2-x,1/2+y,z
1/2+x,-y,z
loop_
_atom_site_type_symbol
_atom_site_label
_atom_site_fract_x
_atom_site_fract_y
_atom_site_fract_z
Si Si1 0.639470 0.397966 0.666524
Si Si2 0.573172 0.569159 0.933114
Si Si3 0.068904 0.463163 0.686026
Si Si4 0.427502 0.166826 0.874697
Si Si5 0.241330 0.170749 0.631322
Si Si6 0.607732 0.668553 0.564414
O O1 0.615043 0.476911 0.644303
O O2 0.606461 0.372621 0.776639
O O3 0.711754 0.386414 0.677489
O O4 0.621053 0.348849 0.562977
O O5 0.500000 0.569531 0.931777
O O6 0.590007 0.561537 0.806833
O O7 0.593135 0.500000 0.000000
O O8 0.591486 0.635817 0.007028
O O9 0.067174 0.394349 0.609828
O O10 0.000000 0.492650 0.693634
O O11 0.500000 0.154973 0.862781
O O12 0.416059 0.250000 0.867908
O O13 0.257245 0.250000 0.672389
O O14 0.250000 0.171165 0.500000
O O15 0.169472 0.160854 0.636507
O O16 0.586958 0.750000 0.574447
#
# Coordination Sequence:
#
# PCOD9501146 Si02
#       6
#    16  16  16  16  16  16
#     4  11  19  33  57  82 110 139 176 228 281 322
#     4   9  17  34  53  70 102 143 179 220 266 313
#     4  11  23  36  54  80 112 148 183 218 269 334
#     4  10  19  30  51  83 110 138 182 229 274 326
#     4   8  16  33  55  77 104 140 181 223 266 314
#     4  10  22  38  54  77 111 148 185 224 267 322
#
# _framework density 18.876829000000001
#
# number of rings (size 3 to 8) (size 9 to 14) (size 15 to 20)
#    0.000    2.167    1.667    3.500    0.000    3.667 
#    0.000    4.167    0.000    1.000    0.000    3.500 
#    0.000    0.000    0.000    0.000    0.000    0.000 
#
# Total GULP energy -267453.653919 kJ/mol
# GULP energy per Si atom -5571.951123 kJ/mol
# Density = 1.883386 g / cm^3
# Si number density = 18.876829 Si / 1000 Ang^3
#
#
#
# Elastic Constant Matrix: (Units=GPa)
#
#
# Indices 1 2 3 4 5 6 
#
# 1 52.6029 32.0885 2.9751 0.0000 0.0000 0.0000
# 2 32.0885 99.6359 15.1524 0.0000 0.0000 0.0000
# 3 2.9751 15.1524 44.4062 0.0000 0.0000 0.0000
# 4 0.0000 0.0000 0.0000 30.6264 0.0000 0.0000
# 5 0.0000 0.0000 0.0000 0.0000 2.7084 0.0000
# 6 0.0000 0.0000 0.0000 0.0000 0.0000 18.7205
#
#
#
# Elastic Compliance Matrix: (Units=1/GPa)
#
#
# Indices 1 2 3 4 5 6 
#
# 1 0.023707 -0.007798 0.001073 0.000000 0.000000 0.000000
# 2 -0.007798 0.013151 -0.003965 0.000000 0.000000 0.000000
# 3 0.001073 -0.003965 0.023800 0.000000 0.000000 0.000000
# 4 0.000000 0.000000 0.000000 0.032652 0.000000 0.000000
# 5 0.000000 0.000000 0.000000 0.000000 0.369226 0.000000
# 6 0.000000 0.000000 0.000000 0.000000 0.000000 0.053417
#
#
# Mechanical properties :
#
#
# Convention : Reuss Voigt Hill
#
# Bulk Modulus (GPa) = 25.46003 33.00854 29.23429
# Shear Modulus (GPa) = 9.08387 20.17297 14.62842
#
# Velocity S-wave (km/s) = 2.19605 3.27259 2.78680
# Velocity P-wave (km/s) = 4.46620 5.63950 5.08679
#
# Compressibility (1/GPa) = 0.03927724
#
# Stress axis : x y z
#
# Youngs Moduli (GPa) = 42.18230 76.04017 42.01598
#
# Poissons Ratio (x) = 0.59296 -0.04507
# Poissons Ratio (y) = 0.32894 0.16659
# Poissons Ratio (z) = -0.04524 0.30150
#
# Static dielectric constant tensor:
#      x y z
#    x 1.710520 0.000000 0.000000 
#    y 0.000000 1.675280 0.000000 
#    z 0.000000 0.000000 1.650080 
# 
# From -- ./inp_files/21923.got.cif
#   From: 2010.05.17/outbox.cif.g08.bks.cpg/sg67_11_cif.got.tgz:21923.got - 2010.06.03 18:28:57.
