data_PCOD9501262
_publ_section_title
;
Structure prediction by ZEFSAII (Michael W. Deem and Ramdas Pophale) SiO2 
 PCOD9501262
Probable space group: C M M A
;
_chemical_formula_sum "Si O2"
_cell_formula_units_Z 96
_cell_length_a 31.660759
_cell_length_b 14.338872
_cell_length_c 9.421967
_cell_angle_alpha 90.000000
_cell_angle_beta 90.000000
_cell_angle_gamma 90.000000
_cell_volume 4277.380534
_symmetry_space_group_name_H-M "C M M A"
_symmetry_group_IT_number 67
_symmetry_cell_setting 'orthorhombic'
loop_
_space_group_symop_operation_xyz
x,y,z
-x,1/2-y,z
x,-y,-z
-x,1/2+y,-z
-x,-y,-z
x,1/2+y,-z
-x,y,z
x,1/2-y,z
1/2+x,1/2+y,z
1/2-x,-y,z
1/2+x,1/2-y,-z
1/2-x,y,-z
1/2-x,1/2-y,-z
1/2+x,y,-z
1/2-x,1/2+y,z
1/2+x,-y,z
loop_
_atom_site_type_symbol
_atom_site_label
_atom_site_fract_x
_atom_site_fract_y
_atom_site_fract_z
Si Si1 0.547693 0.136931 0.608717
Si Si2 0.952727 0.602870 0.936350
Si Si3 0.708708 0.636025 0.089747
Si Si4 0.791433 0.363786 0.413350
Si Si5 0.368801 0.143755 0.097562
Si Si6 0.124943 0.364123 0.585501
O O1 0.500000 0.110162 0.567723
O O2 0.549025 0.250000 0.617192
O O3 0.556066 0.102615 0.768442
O O4 0.582732 0.107117 0.496642
O O5 0.000000 0.643991 0.954937
O O6 0.954463 0.500000 0.000000
O O7 0.913728 0.646994 0.019454
O O8 0.708199 0.750000 0.097665
O O9 0.709603 0.602123 0.251532
O O10 0.750000 0.610377 0.000000
O O11 0.666748 0.605082 0.007001
O O12 0.791314 0.250000 0.408923
O O13 0.750000 0.391769 0.500000
O O14 0.833827 0.390391 0.496139
O O15 0.354619 0.250000 0.124529
O O16 0.372708 0.099904 0.253294
O O17 0.123563 0.250000 0.589382
#
# Coordination Sequence:
#
# PCOD9501262 Si02
#       6
#    16  16  16  16  16  16
#     4   9  17  31  51  72  95 126 163 202 246 296
#     4  10  21  36  52  71  97 129 165 205 249 298
#     4   9  16  26  43  70 102 132 163 200 242 287
#     4   9  15  23  37  60  95 133 161 190 235 288
#     4  10  19  31  50  75 101 129 164 206 248 292
#     4   9  17  28  44  70 100 127 159 199 243 290
#
# _framework density 22.443643000000002
#
# number of rings (size 3 to 8) (size 9 to 14) (size 15 to 20)
#    0.000    2.667    0.000    2.500    0.000    8.333 
#    0.000    2.500    0.000    3.500    0.000    0.000 
#    0.000    1.333    0.000    0.000    0.000    0.000 
#
# Total GULP energy -268272.550705 kJ/mol
# GULP energy per Si atom -5589.011473 kJ/mol
# Density = 2.239256 g / cm^3
# Si number density = 22.443643 Si / 1000 Ang^3
#
#
#
# Elastic Constant Matrix: (Units=GPa)
#
#
# Indices 1 2 3 4 5 6 
#
# 1 197.2135 1.7075 158.5302 0.0000 0.0000 0.0000
# 2 1.7075 67.4382 8.8786 0.0000 0.0000 0.0000
# 3 158.5302 8.8786 243.4620 0.0000 0.0000 0.0000
# 4 0.0000 0.0000 0.0000 -0.3928 0.0000 0.0000
# 5 0.0000 0.0000 0.0000 0.0000 43.3877 0.0000
# 6 0.0000 0.0000 0.0000 0.0000 0.0000 -8.1315
#
#
#
# Elastic Compliance Matrix: (Units=1/GPa)
#
#
# Indices 1 2 3 4 5 6 
#
# 1 0.010668 0.000648 -0.006970 0.000000 0.000000 0.000000
# 2 0.000648 0.014939 -0.000966 0.000000 0.000000 0.000000
# 3 -0.006970 -0.000966 0.008681 0.000000 0.000000 0.000000
# 4 0.000000 0.000000 0.000000 -2.546011 0.000000 0.000000
# 5 0.000000 0.000000 0.000000 0.000000 0.023048 0.000000
# 6 0.000000 0.000000 0.000000 0.000000 0.000000 -0.122979
#
#
# Mechanical properties :
#
#
# Convention : Reuss Voigt Hill
#
# Bulk Modulus (GPa) = 50.73450 94.03848 72.38649
# Shear Modulus (GPa) = -1.93013 29.57252 13.82120
#
# Velocity S-wave (km/s) = -0.92836 3.63386 2.48426
# Velocity P-wave (km/s) = 4.63737 7.71993 6.36799
#
# Compressibility (1/GPa) = 0.01971045
#
# Stress axis : x y z
#
# Youngs Moduli (GPa) = 93.73931 66.93787 115.19172
#
# Poissons Ratio (x) = -0.04334 0.80289
# Poissons Ratio (y) = -0.06070 0.11133
# Poissons Ratio (z) = 0.65336 0.06469
#
# Static dielectric constant tensor:
#      x y z
#    x 1.788840 0.000000 0.000000 
#    y 0.000000 1.945640 0.000000 
#    z 0.000000 0.000000 1.772290 
# 
# From -- ./inp_files/11453.got.cif
#   From: 2010.05.17/outbox.cif.g08.bks.cpg/sg67_6_cif.got.tgz:11453.got - 2010.06.03 18:28:57.
