data_PCOD9501765
_publ_section_title
;
Structure prediction by ZEFSAII (Michael W. Deem and Ramdas Pophale) SiO2 
 PCOD9501765
Probable space group: C M M A
;
_chemical_formula_sum "Si O2"
_cell_formula_units_Z 116
_cell_length_a 17.927218
_cell_length_b 30.273787
_cell_length_c 11.661033
_cell_angle_alpha 90.000000
_cell_angle_beta 90.000000
_cell_angle_gamma 90.000000
_cell_volume 6328.731561
_symmetry_space_group_name_H-M "C M M A"
_symmetry_group_IT_number 67
_symmetry_cell_setting 'orthorhombic'
loop_
_space_group_symop_operation_xyz
x,y,z
-x,1/2-y,z
x,-y,-z
-x,1/2+y,-z
-x,-y,-z
x,1/2+y,-z
-x,y,z
x,1/2-y,z
1/2+x,1/2+y,z
1/2-x,-y,z
1/2+x,1/2-y,-z
1/2-x,y,-z
1/2-x,1/2-y,-z
1/2+x,y,-z
1/2-x,1/2+y,z
1/2+x,-y,z
loop_
_atom_site_type_symbol
_atom_site_label
_atom_site_fract_x
_atom_site_fract_y
_atom_site_fract_z
Si Si1 0.250000 0.000000 0.500000
Si Si2 0.660584 0.298943 0.015462
Si Si3 0.144211 0.068292 0.627545
Si Si4 0.586649 0.058768 0.980047
Si Si5 0.586597 0.511667 0.237377
Si Si6 0.314795 0.615136 0.849750
Si Si7 0.858610 0.364540 0.168734
Si Si8 0.410896 0.904754 0.383474
O O1 0.204183 0.966512 0.420163
O O2 0.632431 0.250000 0.044109
O O3 0.650260 0.338381 0.107472
O O4 0.750000 0.295767 0.000000
O O5 0.630736 0.318156 0.894911
O O6 0.173574 0.103917 0.717153
O O7 0.109341 0.091212 0.516416
O O8 0.093170 0.035454 0.702828
O O9 0.500000 0.052003 0.020098
O O10 0.614377 0.019842 0.892697
O O11 0.586952 0.100210 0.891002
O O12 0.643889 0.076892 0.076133
O O13 0.500000 0.521375 0.225274
O O14 0.616122 0.549145 0.324209
O O15 0.225374 0.619223 0.863839
O O16 0.872672 0.367700 0.304087
O O17 0.500000 0.900916 0.374581
#
# Coordination Sequence:
#
# PCOD9501765 Si02
#       8
#     4  16  16  16  16  16  16  16
#     4  12  24  36  46  70 106 148 192 226 278 308
#     4   8  15  32  58  83 105 131 165 211 270 336
#     4  12  22  33  48  72 103 144 184 226 265 313
#     4   9  18  33  51  71 101 139 176 218 261 312
#     4   9  18  33  51  68  93 135 186 227 251 291
#     4  10  21  32  52  79 110 136 173 218 277 325
#     4   9  17  33  53  80 104 131 170 218 270 316
#     4  10  19  34  54  74 101 140 188 230 261 302
#
# _framework density 18.329107
#
# number of rings (size 3 to 8) (size 9 to 14) (size 15 to 20)
#    0.000    2.345    1.379    3.724    1.931    2.759 
#    0.000    1.379    0.000   11.172    0.000    4.345 
#    0.000    0.000    0.000    0.000    0.000    0.000 
#
# Total GULP energy -322959.516530 kJ/mol
# GULP energy per Si atom -5568.267526 kJ/mol
# Density = 1.828739 g / cm^3
# Si number density = 18.329107 Si / 1000 Ang^3
#
#
#
# Elastic Constant Matrix: (Units=GPa)
#
#
# Indices 1 2 3 4 5 6 
#
# 1 63.1297 23.7059 34.4340 0.0000 0.0000 0.0000
# 2 23.7059 105.3051 50.5794 0.0000 0.0000 0.0000
# 3 34.4340 50.5794 143.5159 0.0000 0.0000 0.0000
# 4 0.0000 0.0000 0.0000 18.9533 0.0000 0.0000
# 5 0.0000 0.0000 0.0000 0.0000 12.3883 0.0000
# 6 0.0000 0.0000 0.0000 0.0000 0.0000 5.8092
#
#
#
# Elastic Compliance Matrix: (Units=1/GPa)
#
#
# Indices 1 2 3 4 5 6 
#
# 1 0.018749 -0.002480 -0.003624 0.000000 0.000000 0.000000
# 2 -0.002480 0.011759 -0.003549 0.000000 0.000000 0.000000
# 3 -0.003624 -0.003549 0.009088 0.000000 0.000000 0.000000
# 4 0.000000 0.000000 0.000000 0.052761 0.000000 0.000000
# 5 0.000000 0.000000 0.000000 0.000000 0.080722 0.000000
# 6 0.000000 0.000000 0.000000 0.000000 0.000000 0.172141
#
#
# Mechanical properties :
#
#
# Convention : Reuss Voigt Hill
#
# Bulk Modulus (GPa) = 49.28749 58.82101 54.05425
# Shear Modulus (GPa) = 13.46658 20.97891 17.22275
#
# Velocity S-wave (km/s) = 2.71349 3.38682 3.06868
# Velocity P-wave (km/s) = 6.06350 6.88878 6.48927
#
# Compressibility (1/GPa) = 0.02028912
#
# Stress axis : x y z
#
# Youngs Moduli (GPa) = 53.33757 85.03945 110.03061
#
# Poissons Ratio (x) = 0.21088 0.39880
# Poissons Ratio (y) = 0.13226 0.39054
# Poissons Ratio (z) = 0.19332 0.30183
#
# Static dielectric constant tensor:
#      x y z
#    x 1.666340 0.000000 0.000000 
#    y 0.000000 1.655880 0.000000 
#    z 0.000000 0.000000 1.698130 
# 
# From -- ./inp_files/20091.got.cif
#   From: 2010.05.17/outbox.cif.g08.bks.cpg/sg67_11_cif.got.tgz:20091.got - 2010.06.03 18:28:57.
