data_PCOD9501006
_publ_section_title
;
Structure prediction by ZEFSAII (Michael W. Deem and Ramdas Pophale) SiO2 
 PCOD9501006
Probable space group: C M M A
;
_chemical_formula_sum "Si O2"
_cell_formula_units_Z 88
_cell_length_a 9.150732
_cell_length_b 25.850808
_cell_length_c 25.790355
_cell_angle_alpha 90.000000
_cell_angle_beta 90.000000
_cell_angle_gamma 90.000000
_cell_volume 6100.806891
_symmetry_space_group_name_H-M "C M M A"
_symmetry_group_IT_number 67
_symmetry_cell_setting 'orthorhombic'
loop_
_space_group_symop_operation_xyz
x,y,z
-x,1/2-y,z
x,-y,-z
-x,1/2+y,-z
-x,-y,-z
x,1/2+y,-z
-x,y,z
x,1/2-y,z
1/2+x,1/2+y,z
1/2-x,-y,z
1/2+x,1/2-y,-z
1/2-x,y,-z
1/2-x,1/2-y,-z
1/2+x,y,-z
1/2-x,1/2+y,z
1/2+x,-y,z
loop_
_atom_site_type_symbol
_atom_site_label
_atom_site_fract_x
_atom_site_fract_y
_atom_site_fract_z
Si Si1 0.324352 0.945398 0.445343
Si Si2 0.826549 0.187710 0.051685
Si Si3 0.324358 0.250000 0.555815
Si Si4 0.174274 0.348001 0.373065
Si Si5 0.825947 0.688716 0.270925
Si Si6 0.170656 0.312841 0.165677
O O1 0.500000 0.951014 0.451866
O O2 0.250000 0.929920 0.500000
O O3 0.297053 0.901446 0.402792
O O4 0.250000 0.000000 0.431264
O O5 0.804086 0.250000 0.051800
O O6 0.776920 0.169133 0.108713
O O7 0.000000 0.179147 0.048433
O O8 0.750000 0.166976 0.000000
O O9 0.500000 0.250000 0.549278
O O10 0.250000 0.250000 0.500000
O O11 0.283917 0.300684 0.588933
O O12 0.256617 0.341220 0.319062
O O13 0.000000 0.343870 0.363907
O O14 0.788589 0.750000 0.277104
O O15 0.761530 0.670901 0.215716
O O16 0.000000 0.684251 0.270924
O O17 0.176390 0.250000 0.164486
O O18 0.000000 0.326835 0.171660
#
# Coordination Sequence:
#
# PCOD9501006 Si02
#       6
#    16  16   8  16  16  16
#     4  10  20  34  52  71  88 110 138 170 209 252
#     4   8  13  20  30  45  64  90 126 167 209 245
#     4  10  20  32  46  64  86 110 135 166 203 246
#     4  10  20  33  48  64  85 114 142 167 206 255
#     4  10  19  28  40  60  82 106 138 175 212 247
#     4   8  14  24  36  48  68 101 135 167 206 251
#
# _framework density 14.424322
#
# number of rings (size 3 to 8) (size 9 to 14) (size 15 to 20)
#    0.000    2.727    0.909    3.273    0.000    3.636 
#    0.000    3.636    0.000    0.000    0.000    0.000 
#    0.000    0.000    0.000    0.000    0.000    0.909 
#
# Total GULP energy -245035.464403 kJ/mol
# GULP energy per Si atom -5568.987827 kJ/mol
# Density = 1.439149 g / cm^3
# Si number density = 14.424322 Si / 1000 Ang^3
#
#
#
# Elastic Constant Matrix: (Units=GPa)
#
#
# Indices 1 2 3 4 5 6 
#
# 1 45.1530 29.6264 65.2573 0.0000 0.0000 0.0000
# 2 29.6264 38.8198 48.9332 0.0000 0.0000 0.0000
# 3 65.2573 48.9332 166.9328 0.0000 0.0000 0.0000
# 4 0.0000 0.0000 0.0000 9.8794 0.0000 0.0000
# 5 0.0000 0.0000 0.0000 0.0000 30.4283 0.0000
# 6 0.0000 0.0000 0.0000 0.0000 0.0000 13.2836
#
#
#
# Elastic Compliance Matrix: (Units=1/GPa)
#
#
# Indices 1 2 3 4 5 6 
#
# 1 0.066049 -0.028327 -0.017516 0.000000 0.000000 0.000000
# 2 -0.028327 0.053006 -0.004464 0.000000 0.000000 0.000000
# 3 -0.017516 -0.004464 0.014146 0.000000 0.000000 0.000000
# 4 0.000000 0.000000 0.000000 0.101221 0.000000 0.000000
# 5 0.000000 0.000000 0.000000 0.000000 0.032864 0.000000
# 6 0.000000 0.000000 0.000000 0.000000 0.000000 0.075281
#
#
# Mechanical properties :
#
#
# Convention : Reuss Voigt Hill
#
# Bulk Modulus (GPa) = 30.68819 59.83770 45.26295
# Shear Modulus (GPa) = 11.01218 17.85751 14.43485
#
# Velocity S-wave (km/s) = 2.76605 3.52236 3.16686
# Velocity P-wave (km/s) = 5.61452 7.62343 6.69476
#
# Compressibility (1/GPa) = 0.03258582
#
# Stress axis : x y z
#
# Youngs Moduli (GPa) = 15.14039 18.86591 70.69011
#
# Poissons Ratio (x) = 0.53442 1.23821
# Poissons Ratio (y) = 0.42889 0.31555
# Poissons Ratio (z) = 0.26520 0.08421
#
# Static dielectric constant tensor:
#      x y z
#    x 1.480450 0.000000 0.000000 
#    y 0.000000 1.453470 0.000000 
#    z 0.000000 0.000000 1.491040 
# 
# From -- ./inp_files/41122.got.cif
#   From: 2010.05.17/outbox.cif.g08.bks.cpg/sg67_21_cif.got.tgz:41122.got - 2010.06.03 18:28:57.
