data_PCOD9501428
_publ_section_title
;
Structure prediction by ZEFSAII (Michael W. Deem and Ramdas Pophale) SiO2 
 PCOD9501428
Probable space group: C M M A
;
_chemical_formula_sum "Si O2"
_cell_formula_units_Z 88
_cell_length_a 9.083745
_cell_length_b 15.069084
_cell_length_c 31.959113
_cell_angle_alpha 90.000000
_cell_angle_beta 90.000000
_cell_angle_gamma 90.000000
_cell_volume 4374.682162
_symmetry_space_group_name_H-M "C M M A"
_symmetry_group_IT_number 67
_symmetry_cell_setting 'orthorhombic'
loop_
_space_group_symop_operation_xyz
x,y,z
-x,1/2-y,z
x,-y,-z
-x,1/2+y,-z
-x,-y,-z
x,1/2+y,-z
-x,y,z
x,1/2-y,z
1/2+x,1/2+y,z
1/2-x,-y,z
1/2+x,1/2-y,-z
1/2-x,y,-z
1/2-x,1/2-y,-z
1/2+x,y,-z
1/2-x,1/2+y,z
1/2+x,-y,z
loop_
_atom_site_type_symbol
_atom_site_label
_atom_site_fract_x
_atom_site_fract_y
_atom_site_fract_z
Si Si1 0.822566 0.903318 0.108996
Si Si2 0.331555 0.858832 0.542444
Si Si3 0.823164 0.596977 0.291366
Si Si4 0.177977 0.750000 0.045313
Si Si5 0.676772 0.097060 0.200912
Si Si6 0.336080 0.645545 0.375441
O O1 0.778782 0.836078 0.072548
O O2 0.784957 0.864589 0.155344
O O3 0.000000 0.912881 0.107587
O O4 0.750000 0.000000 0.104691
O O5 0.500000 0.888454 0.542491
O O6 0.332940 0.750000 0.542861
O O7 0.250000 0.885566 0.500000
O O8 0.248439 0.890367 0.584104
O O9 0.750000 0.500000 0.289936
O O10 0.785516 0.639593 0.245894
O O11 0.755182 0.638270 0.332832
O O12 0.000000 0.593171 0.294942
O O13 0.000000 0.750000 0.041744
O O14 0.250000 0.750000 0.000000
O O15 0.500000 0.087486 0.201465
O O16 0.750000 0.000000 0.200692
O O17 0.500000 0.606459 0.370495
O O18 0.352025 0.750000 0.383600
#
# Coordination Sequence:
#
# PCOD9501428 Si02
#       6
#    16  16  16   8  16  16
#     4   9  18  35  57  81 108 144 184 229 278 330
#     4   9  16  27  45  68  93 123 162 207 255 307
#     4  10  19  32  51  75 101 133 169 207 253 310
#     4  10  22  38  56  80 114 148 186 230 279 332
#     4   8  15  29  50  75  99 129 169 210 253 304
#     4  10  20  33  48  69 100 133 166 209 256 302
#
# _framework density 20.115746000000001
#
# number of rings (size 3 to 8) (size 9 to 14) (size 15 to 20)
#    0.000    2.727    0.000    1.636    0.000    5.091 
#    1.636    1.818    0.000    0.545    0.000    3.818 
#    0.000    0.000    0.000    0.000    0.000    0.000 
#
# Total GULP energy -245244.804057 kJ/mol
# GULP energy per Si atom -5573.745547 kJ/mol
# Density = 2.006996 g / cm^3
# Si number density = 20.115746 Si / 1000 Ang^3
#
#
#
# Elastic Constant Matrix: (Units=GPa)
#
#
# Indices 1 2 3 4 5 6 
#
# 1 91.5490 21.1895 85.5718 0.0000 0.0000 0.0000
# 2 21.1895 53.2490 44.4152 0.0000 0.0000 0.0000
# 3 85.5718 44.4152 239.4832 0.0000 0.0000 0.0000
# 4 0.0000 0.0000 0.0000 11.6865 0.0000 0.0000
# 5 0.0000 0.0000 0.0000 0.0000 33.1400 0.0000
# 6 0.0000 0.0000 0.0000 0.0000 0.0000 15.7504
#
#
#
# Elastic Compliance Matrix: (Units=1/GPa)
#
#
# Indices 1 2 3 4 5 6 
#
# 1 0.016572 -0.001958 -0.005558 0.000000 0.000000 0.000000
# 2 -0.001958 0.022448 -0.003464 0.000000 0.000000 0.000000
# 3 -0.005558 -0.003464 0.006804 0.000000 0.000000 0.000000
# 4 0.000000 0.000000 0.000000 0.085569 0.000000 0.000000
# 5 0.000000 0.000000 0.000000 0.000000 0.030175 0.000000
# 6 0.000000 0.000000 0.000000 0.000000 0.000000 0.063491
#
#
# Mechanical properties :
#
#
# Convention : Reuss Voigt Hill
#
# Bulk Modulus (GPa) = 41.90474 76.29268 59.09871
# Shear Modulus (GPa) = 19.60996 27.65568 23.63282
#
# Velocity S-wave (km/s) = 3.12566 3.71189 3.43132
# Velocity P-wave (km/s) = 5.82266 7.50866 6.71876
#
# Compressibility (1/GPa) = 0.02386365
#
# Stress axis : x y z
#
# Youngs Moduli (GPa) = 60.34408 44.54758 146.97138
#
# Poissons Ratio (x) = 0.08724 0.81689
# Poissons Ratio (y) = 0.11817 0.50904
# Poissons Ratio (z) = 0.33540 0.15429
#
# Static dielectric constant tensor:
#      x y z
#    x 1.702130 0.000000 0.000000 
#    y 0.000000 1.792920 0.000000 
#    z 0.000000 0.000000 1.740340 
# 
# From -- ./inp_files/45209.got.cif
#   From: 2010.05.17/outbox.cif.g08.bks.cpg/sg67_23_cif.got.tgz:45209.got - 2010.06.03 18:28:57.
