data_PCOD9501539
_publ_section_title
;
Structure prediction by ZEFSAII (Michael W. Deem and Ramdas Pophale) SiO2 
 PCOD9501539
Probable space group: C M M A
;
_chemical_formula_sum "Si O2"
_cell_formula_units_Z 80
_cell_length_a 18.176719
_cell_length_b 17.392035
_cell_length_c 12.321070
_cell_angle_alpha 90.000000
_cell_angle_beta 90.000000
_cell_angle_gamma 90.000000
_cell_volume 3895.061498
_symmetry_space_group_name_H-M "C M M A"
_symmetry_group_IT_number 67
_symmetry_cell_setting 'orthorhombic'
loop_
_space_group_symop_operation_xyz
x,y,z
-x,1/2-y,z
x,-y,-z
-x,1/2+y,-z
-x,-y,-z
x,1/2+y,-z
-x,y,z
x,1/2-y,z
1/2+x,1/2+y,z
1/2-x,-y,z
1/2+x,1/2-y,-z
1/2-x,y,-z
1/2-x,1/2-y,-z
1/2+x,y,-z
1/2-x,1/2+y,z
1/2+x,-y,z
loop_
_atom_site_type_symbol
_atom_site_label
_atom_site_fract_x
_atom_site_fract_y
_atom_site_fract_z
Si Si1 0.915709 0.657161 0.601975
Si Si2 0.814930 0.658360 0.421416
Si Si3 0.415553 0.946107 0.894410
Si Si4 0.793219 0.839555 0.163060
Si Si5 0.316240 0.054055 0.755627
O O1 0.909050 0.750000 0.616348
O O2 0.891004 0.635909 0.479367
O O3 0.857860 0.613824 0.678452
O O4 0.000000 0.636234 0.623855
O O5 0.810717 0.750000 0.433401
O O6 0.750000 0.626790 0.500000
O O7 0.808807 0.648951 0.292851
O O8 0.500000 0.925942 0.871633
O O9 0.363166 0.871816 0.900944
O O10 0.377919 0.997722 0.801760
O O11 0.413526 0.000000 0.000000
O O12 0.778528 0.750000 0.142917
O O13 0.723647 0.896112 0.149664
O O14 0.250000 0.000000 0.709365
#
# Coordination Sequence:
#
# PCOD9501539 Si02
#       5
#    16  16  16  16  16
#     4  10  19  32  54  84 116 150 190 236 283 337
#     4   9  16  30  54  83 119 155 187 231 287 339
#     4  10  23  43  61  79 113 157 193 240 304 352
#     4  10  20  36  63  91 112 146 197 246 285 338
#     4  10  20  35  57  83 113 151 189 232 289 353
#
# _framework density 20.538827000000001
#
# number of rings (size 3 to 8) (size 9 to 14) (size 15 to 20)
#    0.000    2.200    2.000    1.200    0.000    4.800 
#    0.000   12.000    0.000    8.400    0.000    0.000 
#    0.000    0.000    0.000    0.000    0.000    0.000 
#
# Total GULP energy -222845.925275 kJ/mol
# GULP energy per Si atom -5571.148132 kJ/mol
# Density = 2.049208 g / cm^3
# Si number density = 20.538827 Si / 1000 Ang^3
#
#
#
# Elastic Constant Matrix: (Units=GPa)
#
#
# Indices 1 2 3 4 5 6 
#
# 1 118.8449 28.7952 22.3831 0.0000 0.0000 0.0000
# 2 28.7952 76.3166 -13.5138 0.0000 0.0000 0.0000
# 3 22.3831 -13.5138 27.9287 0.0000 0.0000 0.0000
# 4 0.0000 0.0000 0.0000 13.5495 0.0000 0.0000
# 5 0.0000 0.0000 0.0000 0.0000 26.4042 0.0000
# 6 0.0000 0.0000 0.0000 0.0000 0.0000 25.5097
#
#
#
# Elastic Compliance Matrix: (Units=1/GPa)
#
#
# Indices 1 2 3 4 5 6 
#
# 1 0.012755 -0.007243 -0.013727 0.000000 0.000000 0.000000
# 2 -0.007243 0.018444 0.014730 0.000000 0.000000 0.000000
# 3 -0.013727 0.014730 0.053934 0.000000 0.000000 0.000000
# 4 0.000000 0.000000 0.000000 0.073804 0.000000 0.000000
# 5 0.000000 0.000000 0.000000 0.000000 0.037873 0.000000
# 6 0.000000 0.000000 0.000000 0.000000 0.000000 0.039201
#
#
# Mechanical properties :
#
#
# Convention : Reuss Voigt Hill
#
# Bulk Modulus (GPa) = 13.76421 33.15769 23.46095
# Shear Modulus (GPa) = 18.33467 25.45438 21.89452
#
# Velocity S-wave (km/s) = 2.99102 3.52423 3.26852
# Velocity P-wave (km/s) = 4.31791 5.72182 5.06871
#
# Compressibility (1/GPa) = 0.07265217
#
# Stress axis : x y z
#
# Youngs Moduli (GPa) = 78.40351 54.21679 18.54134
#
# Poissons Ratio (x) = 0.39270 0.25451
# Poissons Ratio (y) = 0.56788 -0.27311
# Poissons Ratio (z) = 1.07622 -0.79859
#
# Static dielectric constant tensor:
#      x y z
#    x 1.753990 0.000000 0.000000 
#    y 0.000000 1.765910 0.000000 
#    z 0.000000 0.000000 1.776160 
# 
# From -- ./inp_files/28365.got.cif
#   From: 2010.05.17/outbox.cif.g08.bks.cpg/sg67_15_cif.got.tgz:28365.got - 2010.06.03 18:28:57.
