data_PCOD9501893
_publ_section_title
;
Structure prediction by ZEFSAII (Michael W. Deem and Ramdas Pophale) SiO2 
 PCOD9501893
Probable space group: C M M A
;
_chemical_formula_sum "Si O2"
_cell_formula_units_Z 72
_cell_length_a 8.531363
_cell_length_b 15.802217
_cell_length_c 28.917506
_cell_angle_alpha 90.000000
_cell_angle_beta 90.000000
_cell_angle_gamma 90.000000
_cell_volume 3898.497650
_symmetry_space_group_name_H-M "C M M A"
_symmetry_group_IT_number 67
_symmetry_cell_setting 'orthorhombic'
loop_
_space_group_symop_operation_xyz
x,y,z
-x,1/2-y,z
x,-y,-z
-x,1/2+y,-z
-x,-y,-z
x,1/2+y,-z
-x,y,z
x,1/2-y,z
1/2+x,1/2+y,z
1/2-x,-y,z
1/2+x,1/2-y,-z
1/2-x,y,-z
1/2-x,1/2-y,-z
1/2+x,y,-z
1/2-x,1/2+y,z
1/2+x,-y,z
loop_
_atom_site_type_symbol
_atom_site_label
_atom_site_fract_x
_atom_site_fract_y
_atom_site_fract_z
Si Si1 0.808992 0.250000 0.385583
Si Si2 0.811888 0.407136 0.779234
Si Si3 0.689871 0.250000 0.052043
Si Si4 0.311906 0.250000 0.720723
Si Si5 0.188415 0.907267 0.551713
Si Si6 0.188927 0.592193 0.113844
O O1 0.757177 0.250000 0.332532
O O2 0.759770 0.333712 0.413442
O O3 0.000000 0.250000 0.385532
O O4 0.750000 0.500000 0.765871
O O5 0.747729 0.333068 0.747172
O O6 0.762747 0.392186 0.832813
O O7 0.000000 0.406972 0.777651
O O8 0.500000 0.250000 0.051633
O O9 0.742156 0.166880 0.080212
O O10 0.750000 0.250000 0.000000
O O11 0.500000 0.250000 0.721065
O O12 0.250000 0.889505 0.500000
O O13 0.000000 0.909353 0.550351
O O14 0.250000 0.000000 0.565247
O O15 0.250000 0.500000 0.099960
O O16 0.000000 0.590743 0.113308
#
# Coordination Sequence:
#
# PCOD9501893 Si02
#       6
#     8  16   8   8  16  16
#     4   9  21  37  53  75 109 144 175 213 261 313
#     4  10  20  37  59  83 108 140 181 227 272 320
#     4  10  21  36  52  75 107 142 173 211 260 314
#     4  11  22  37  55  80 113 148 181 220 269 323
#     4  10  19  35  56  79 104 135 174 218 262 309
#     4   9  19  36  57  78 104 136 175 219 265 312
#
# _framework density 18.468653
#
# number of rings (size 3 to 8) (size 9 to 14) (size 15 to 20)
#    0.000    2.222    0.000    3.333    0.000    4.889 
#    0.000   11.667    0.000    0.000    0.000    0.000 
#    0.000    0.000    0.000    0.000    0.000    0.000 
#
# Total GULP energy -201022.841848 kJ/mol
# GULP energy per Si atom -5583.967829 kJ/mol
# Density = 1.842662 g / cm^3
# Si number density = 18.468653 Si / 1000 Ang^3
#
#
#
# Elastic Constant Matrix: (Units=GPa)
#
#
# Indices 1 2 3 4 5 6 
#
# 1 39.9533 40.1188 32.0219 0.0000 0.0000 0.0000
# 2 40.1188 209.4204 147.4697 0.0000 0.0000 0.0000
# 3 32.0219 147.4697 141.7516 0.0000 0.0000 0.0000
# 4 0.0000 0.0000 0.0000 -1.2545 0.0000 0.0000
# 5 0.0000 0.0000 0.0000 0.0000 25.5182 0.0000
# 6 0.0000 0.0000 0.0000 0.0000 0.0000 33.1212
#
#
#
# Elastic Compliance Matrix: (Units=1/GPa)
#
#
# Indices 1 2 3 4 5 6 
#
# 1 0.031355 -0.003810 -0.003119 0.000000 0.000000 0.000000
# 2 -0.003810 0.018320 -0.018198 0.000000 0.000000 0.000000
# 3 -0.003119 -0.018198 0.026691 0.000000 0.000000 0.000000
# 4 0.000000 0.000000 0.000000 -0.797127 0.000000 0.000000
# 5 0.000000 0.000000 0.000000 0.000000 0.039188 0.000000
# 6 0.000000 0.000000 0.000000 0.000000 0.000000 0.030192
#
#
# Mechanical properties :
#
#
# Convention : Reuss Voigt Hill
#
# Bulk Modulus (GPa) = 38.29759 92.26069 65.27914
# Shear Modulus (GPa) = -8.43992 22.91130 7.23569
#
# Velocity S-wave (km/s) = -2.14004 3.52597 1.98150
# Velocity P-wave (km/s) = 3.83082 8.16335 6.37634
#
# Compressibility (1/GPa) = 0.02611130
#
# Stress axis : x y z
#
# Youngs Moduli (GPa) = 31.89260 54.58659 37.46562
#
# Poissons Ratio (x) = 0.20798 0.11687
# Poissons Ratio (y) = 0.12152 0.68179
# Poissons Ratio (z) = 0.09948 0.99336
#
# Static dielectric constant tensor:
#      x y z
#    x 1.633680 0.000000 0.000000 
#    y 0.000000 1.612810 0.000000 
#    z 0.000000 0.000000 1.617000 
# 
# From -- ./inp_files/43123.got.cif
#   From: 2010.05.17/outbox.cif.g08.bks.cpg/sg67_22_cif.got.tgz:43123.got - 2010.06.03 18:28:57.
