data_PCOD9501144
_publ_section_title
;
Structure prediction by ZEFSAII (Michael W. Deem and Ramdas Pophale) SiO2 
 PCOD9501144
Probable space group: C M M A
;
_chemical_formula_sum "Si O2"
_cell_formula_units_Z 112
_cell_length_a 14.799053
_cell_length_b 24.434771
_cell_length_c 12.495668
_cell_angle_alpha 90.000000
_cell_angle_beta 90.000000
_cell_angle_gamma 90.000000
_cell_volume 4518.576888
_symmetry_space_group_name_H-M "C M M A"
_symmetry_group_IT_number 67
_symmetry_cell_setting 'orthorhombic'
loop_
_space_group_symop_operation_xyz
x,y,z
-x,1/2-y,z
x,-y,-z
-x,1/2+y,-z
-x,-y,-z
x,1/2+y,-z
-x,y,z
x,1/2-y,z
1/2+x,1/2+y,z
1/2-x,-y,z
1/2+x,1/2-y,-z
1/2-x,y,-z
1/2-x,1/2-y,-z
1/2+x,y,-z
1/2-x,1/2+y,z
1/2+x,-y,z
loop_
_atom_site_type_symbol
_atom_site_label
_atom_site_fract_x
_atom_site_fract_y
_atom_site_fract_z
Si Si1 0.346106 0.350598 0.509421
Si Si2 0.847293 0.970971 0.601893
Si Si3 0.610737 0.101894 0.891926
Si Si4 0.898141 0.510242 0.175352
Si Si5 0.608105 0.375217 0.264008
Si Si6 0.390034 0.689736 0.932448
Si Si7 0.103571 0.309140 0.273001
O O1 0.250000 0.322044 0.500000
O O2 0.333959 0.409124 0.567178
O O3 0.375334 0.363757 0.388703
O O4 0.399720 0.317870 0.599334
O O5 0.901756 0.979800 0.709266
O O6 0.892134 0.000000 0.500000
O O7 0.750000 0.000000 0.616378
O O8 0.500000 0.097054 0.890011
O O9 0.644020 0.039055 0.894122
O O10 0.641700 0.138361 0.789877
O O11 0.636855 0.139837 0.991380
O O12 0.855523 0.568403 0.210063
O O13 0.000000 0.521516 0.134345
O O14 0.500000 0.380861 0.256081
O O15 0.636757 0.325523 0.188251
O O16 0.500000 0.690844 0.936338
O O17 0.358680 0.750000 0.965157
O O18 0.146096 0.250000 0.248852
O O19 0.000000 0.306502 0.234380
#
# Coordination Sequence:
#
# PCOD9501144 Si02
#       7
#    16  16  16  16  16  16  16
#     4  12  22  35  55  80 111 149 191 230 276 335
#     4  11  19  33  51  77 108 152 186 218 270 338
#     4   9  17  31  55  83 108 139 179 228 283 332
#     4  10  19  30  50  83 115 138 173 231 285 330
#     4  10  21  34  52  82 116 151 187 226 278 338
#     4   9  18  34  55  78 108 147 187 225 272 336
#     4  10  21  36  55  81 111 143 186 240 287 331
#
# _framework density 24.786565
#
# number of rings (size 3 to 8) (size 9 to 14) (size 15 to 20)
#    0.000    1.857    4.286    0.857    0.000    4.000 
#    0.000    4.286    0.000    0.857    0.000    3.000 
#    0.000    0.000    0.000    0.000    0.000    0.000 
#
# Total GULP energy -312590.951728 kJ/mol
# GULP energy per Si atom -5581.981281 kJ/mol
# Density = 2.473015 g / cm^3
# Si number density = 24.786565 Si / 1000 Ang^3
#
#
#
# Elastic Constant Matrix: (Units=GPa)
#
#
# Indices 1 2 3 4 5 6 
#
# 1 49.0527 6.9724 -0.9734 0.0000 0.0000 0.0000
# 2 6.9724 120.3126 53.0194 0.0000 0.0000 0.0000
# 3 -0.9734 53.0194 123.1326 0.0000 0.0000 0.0000
# 4 0.0000 0.0000 0.0000 14.9460 0.0000 0.0000
# 5 0.0000 0.0000 0.0000 0.0000 -54.3998 0.0000
# 6 0.0000 0.0000 0.0000 0.0000 0.0000 7.8131
#
#
#
# Elastic Compliance Matrix: (Units=1/GPa)
#
#
# Indices 1 2 3 4 5 6 
#
# 1 0.020625 -0.001564 0.000836 0.000000 0.000000 0.000000
# 2 -0.001564 0.010377 -0.004480 0.000000 0.000000 0.000000
# 3 0.000836 -0.004480 0.010057 0.000000 0.000000 0.000000
# 4 0.000000 0.000000 0.000000 0.066908 0.000000 0.000000
# 5 0.000000 0.000000 0.000000 0.000000 -0.018382 0.000000
# 6 0.000000 0.000000 0.000000 0.000000 0.000000 0.127991
#
#
# Mechanical properties :
#
#
# Convention : Reuss Voigt Hill
#
# Bulk Modulus (GPa) = 32.63364 45.61498 39.12431
# Shear Modulus (GPa) = 20.99032 9.23715 15.11374
#
# Velocity S-wave (km/s) = 2.91321 1.93255 2.47200
# Velocity P-wave (km/s) = 4.95078 4.83971 4.89556
#
# Compressibility (1/GPa) = 0.03064322
#
# Stress axis : x y z
#
# Youngs Moduli (GPa) = 48.48457 96.36916 99.43154
#
# Poissons Ratio (x) = 0.15071 -0.08317
# Poissons Ratio (y) = 0.07582 0.44550
# Poissons Ratio (z) = -0.04055 0.43178
#
# Static dielectric constant tensor:
#      x y z
#    x 2.009220 0.000000 0.000000 
#    y 0.000000 1.993980 0.000000 
#    z 0.000000 0.000000 1.974710 
# 
# From -- ./inp_files/21097.got.cif
#   From: 2010.05.17/outbox.cif.g08.bks.cpg/sg67_11_cif.got.tgz:21097.got - 2010.06.03 18:28:57.
