data_PCOD9501409
_publ_section_title
;
Structure prediction by ZEFSAII (Michael W. Deem and Ramdas Pophale) SiO2 
 PCOD9501409
Probable space group: C M M A
;
_chemical_formula_sum "Si O2"
_cell_formula_units_Z 112
_cell_length_a 18.608557
_cell_length_b 16.566707
_cell_length_c 20.022763
_cell_angle_alpha 90.000000
_cell_angle_beta 90.000000
_cell_angle_gamma 90.000000
_cell_volume 6172.667665
_symmetry_space_group_name_H-M "C M M A"
_symmetry_group_IT_number 67
_symmetry_cell_setting 'orthorhombic'
loop_
_space_group_symop_operation_xyz
x,y,z
-x,1/2-y,z
x,-y,-z
-x,1/2+y,-z
-x,-y,-z
x,1/2+y,-z
-x,y,z
x,1/2-y,z
1/2+x,1/2+y,z
1/2-x,-y,z
1/2+x,1/2-y,-z
1/2-x,y,-z
1/2-x,1/2-y,-z
1/2+x,y,-z
1/2-x,1/2+y,z
1/2+x,-y,z
loop_
_atom_site_type_symbol
_atom_site_label
_atom_site_fract_x
_atom_site_fract_y
_atom_site_fract_z
Si Si1 0.325245 0.836378 0.962972
Si Si2 0.081979 0.348147 0.457252
Si Si3 0.119990 0.656400 0.394373
Si Si4 0.417583 0.346453 0.247785
Si Si5 0.673404 0.035549 0.154755
Si Si6 0.581531 0.068168 0.941238
Si Si7 0.267793 0.409234 0.579107
O O1 0.343257 0.750000 0.931482
O O2 0.316538 0.904921 0.908148
O O3 0.250000 0.832373 0.000000
O O4 0.382240 0.858184 0.020060
O O5 0.089518 0.250000 0.456009
O O6 0.093602 0.377731 0.534348
O O7 0.148868 0.384404 0.415517
O O8 0.000000 0.367587 0.436925
O O9 0.100595 0.750000 0.398504
O O10 0.086204 0.627620 0.325562
O O11 0.206279 0.646538 0.389268
O O12 0.500000 0.352462 0.223784
O O13 0.397422 0.250000 0.243705
O O14 0.367668 0.408391 0.207706
O O15 0.750000 0.000000 0.177303
O O16 0.625598 0.964146 0.122264
O O17 0.500000 0.083914 0.922083
O O18 0.581749 0.000000 0.000000
O O19 0.250000 0.500000 0.601443
O O20 0.250000 0.404803 0.500000
#
# Coordination Sequence:
#
# PCOD9501409 Si02
#       7
#    16  16  16  16  16  16  16
#     4  10  19  32  51  74 100 129 161 198 240 289
#     4   9  16  28  49  75 101 130 165 207 256 306
#     4   9  17  31  50  70  96 133 173 210 251 301
#     4  10  21  36  53  74  99 129 171 219 257 292
#     4  11  20  33  52  74 100 135 166 202 249 302
#     4   9  18  31  49  73  99 128 159 194 241 294
#     4   9  17  29  45  70 102 133 165 203 249 303
#
# _framework density 18.144504999999999
#
# number of rings (size 3 to 8) (size 9 to 14) (size 15 to 20)
#    0.000    2.429    1.429    1.714    0.000    4.857 
#    0.000    6.429    0.000    0.000    0.000    0.000 
#    0.000    1.143    0.000    0.000    0.000    0.000 
#
# Total GULP energy -311782.288222 kJ/mol
# GULP energy per Si atom -5567.540861 kJ/mol
# Density = 1.810321 g / cm^3
# Si number density = 18.144505 Si / 1000 Ang^3
#
#
#
# Elastic Constant Matrix: (Units=GPa)
#
#
# Indices 1 2 3 4 5 6 
#
# 1 143.4056 32.0510 18.8176 0.0000 0.0000 0.0000
# 2 32.0510 46.1176 11.4882 0.0000 0.0000 0.0000
# 3 18.8176 11.4882 30.5013 0.0000 0.0000 0.0000
# 4 0.0000 0.0000 0.0000 4.3482 0.0000 0.0000
# 5 0.0000 0.0000 0.0000 0.0000 18.1896 0.0000
# 6 0.0000 0.0000 0.0000 0.0000 0.0000 141.3006
#
#
#
# Elastic Compliance Matrix: (Units=1/GPa)
#
#
# Indices 1 2 3 4 5 6 
#
# 1 0.008555 -0.005111 -0.003353 0.000000 0.000000 0.000000
# 2 -0.005111 0.026982 -0.007010 0.000000 0.000000 0.000000
# 3 -0.003353 -0.007010 0.037494 0.000000 0.000000 0.000000
# 4 0.000000 0.000000 0.000000 0.229983 0.000000 0.000000
# 5 0.000000 0.000000 0.000000 0.000000 0.054976 0.000000
# 6 0.000000 0.000000 0.000000 0.000000 0.000000 0.007077
#
#
# Mechanical properties :
#
#
# Convention : Reuss Voigt Hill
#
# Bulk Modulus (GPa) = 23.76172 38.30423 31.03298
# Shear Modulus (GPa) = 12.19385 43.27886 27.73635
#
# Velocity S-wave (km/s) = 2.59519 4.88918 3.91402
# Velocity P-wave (km/s) = 4.70152 7.28208 6.12915
#
# Compressibility (1/GPa) = 0.04208449
#
# Stress axis : x y z
#
# Youngs Moduli (GPa) = 116.88437 37.06233 26.67063
#
# Poissons Ratio (x) = 0.18941 0.08944
# Poissons Ratio (y) = 0.59735 0.18695
# Poissons Ratio (z) = 0.39196 0.25979
#
# Static dielectric constant tensor:
#      x y z
#    x 1.650810 0.000000 0.000000 
#    y 0.000000 1.668670 0.000000 
#    z 0.000000 0.000000 1.624790 
# 
# From -- ./inp_files/39061.got.cif
#   From: 2010.05.17/outbox.cif.g08.bks.cpg/sg67_20_cif.got.tgz:39061.got - 2010.06.03 18:28:57.
