data_PCOD9501068
_publ_section_title
;
Structure prediction by ZEFSAII (Michael W. Deem and Ramdas Pophale) SiO2 
 PCOD9501068
Probable space group: C M M A
;
_chemical_formula_sum "Si O2"
_cell_formula_units_Z 128
_cell_length_a 18.932901
_cell_length_b 24.730759
_cell_length_c 16.500045
_cell_angle_alpha 90.000000
_cell_angle_beta 90.000000
_cell_angle_gamma 90.000000
_cell_volume 7725.733765
_symmetry_space_group_name_H-M "C M M A"
_symmetry_group_IT_number 67
_symmetry_cell_setting 'orthorhombic'
loop_
_space_group_symop_operation_xyz
x,y,z
-x,1/2-y,z
x,-y,-z
-x,1/2+y,-z
-x,-y,-z
x,1/2+y,-z
-x,y,z
x,1/2-y,z
1/2+x,1/2+y,z
1/2-x,-y,z
1/2+x,1/2-y,-z
1/2-x,y,-z
1/2-x,1/2-y,-z
1/2+x,y,-z
1/2-x,1/2+y,z
1/2+x,-y,z
loop_
_atom_site_type_symbol
_atom_site_label
_atom_site_fract_x
_atom_site_fract_y
_atom_site_fract_z
Si Si1 0.579623 0.065626 0.005004
Si Si2 0.921290 0.956350 0.373249
Si Si3 0.630832 0.925844 0.345071
Si Si4 0.282038 0.406979 0.297543
Si Si5 0.295200 0.186689 0.420245
Si Si6 0.419385 0.367271 0.505267
Si Si7 0.917153 0.552917 0.826050
Si Si8 0.811084 0.958248 0.133137
O O1 0.500000 0.083445 0.029731
O O2 0.644802 0.074382 0.065518
O O3 0.593978 0.082470 0.912228
O O4 0.576454 0.000000 0.000000
O O5 0.856935 0.931215 0.323695
O O6 0.917767 0.924948 0.458336
O O7 0.000000 0.946141 0.339667
O O8 0.908217 0.020112 0.374930
O O9 0.714390 0.936253 0.337244
O O10 0.614253 0.878300 0.407359
O O11 0.603242 0.914865 0.254362
O O12 0.279286 0.348064 0.339716
O O13 0.279049 0.418874 0.201592
O O14 0.284028 0.250000 0.407179
O O15 0.250000 0.169399 0.500000
O O16 0.374265 0.172986 0.450019
O O17 0.500000 0.350140 0.513188
O O18 0.868916 0.499197 0.827531
O O19 0.000000 0.538432 0.823115
O O20 0.750000 0.000000 0.103184
#
# Coordination Sequence:
#
# PCOD9501068 Si02
#       8
#    16  16  16  16  16  16  16  16
#     4   8  17  30  43  61  91 140 181 196 225 280
#     4  10  20  31  45  67 101 137 167 197 240 286
#     4  12  19  31  45  70 102 139 168 201 237 286
#     4  11  21  33  48  75  97 126 172 208 246 299
#     4  10  21  40  59  70  92 128 164 210 265 307
#     4  10  21  34  51  74  96 126 167 207 248 298
#     4  10  19  30  44  64  97 142 175 198 232 277
#     4  11  18  29  43  67 100 132 164 201 238 277
#
# _framework density 16.568004999999999
#
# number of rings (size 3 to 8) (size 9 to 14) (size 15 to 20)
#    0.000    1.750    3.750    3.000    0.000    4.000 
#    0.000    1.250    0.000    0.000    0.000    0.000 
#    0.000    3.000    0.000    5.625    0.000    0.000 
#
# Total GULP energy -356382.506707 kJ/mol
# GULP energy per Si atom -5568.476667 kJ/mol
# Density = 1.653030 g / cm^3
# Si number density = 16.568005 Si / 1000 Ang^3
#
#
#
# Elastic Constant Matrix: (Units=GPa)
#
#
# Indices 1 2 3 4 5 6 
#
# 1 104.9444 6.0605 23.2902 0.0000 0.0000 0.0000
# 2 6.0605 26.4215 16.4730 0.0000 0.0000 0.0000
# 3 23.2902 16.4730 78.5179 0.0000 0.0000 0.0000
# 4 0.0000 0.0000 0.0000 13.5514 0.0000 0.0000
# 5 0.0000 0.0000 0.0000 0.0000 27.3125 0.0000
# 6 0.0000 0.0000 0.0000 0.0000 0.0000 6.6398
#
#
#
# Elastic Compliance Matrix: (Units=1/GPa)
#
#
# Indices 1 2 3 4 5 6 
#
# 1 0.010207 -0.000522 -0.002918 0.000000 0.000000 0.000000
# 2 -0.000522 0.043570 -0.008986 0.000000 0.000000 0.000000
# 3 -0.002918 -0.008986 0.015487 0.000000 0.000000 0.000000
# 4 0.000000 0.000000 0.000000 0.073793 0.000000 0.000000
# 5 0.000000 0.000000 0.000000 0.000000 0.036613 0.000000
# 6 0.000000 0.000000 0.000000 0.000000 0.000000 0.150606
#
#
# Mechanical properties :
#
#
# Convention : Reuss Voigt Hill
#
# Bulk Modulus (GPa) = 22.51667 33.50347 28.01007
# Shear Modulus (GPa) = 13.51599 20.43808 16.97703
#
# Velocity S-wave (km/s) = 2.85930 3.51606 3.20455
# Velocity P-wave (km/s) = 4.95184 6.06211 5.53489
#
# Compressibility (1/GPa) = 0.04441154
#
# Stress axis : x y z
#
# Youngs Moduli (GPa) = 97.97595 22.95136 64.57107
#
# Poissons Ratio (x) = 0.01198 0.18842
# Poissons Ratio (y) = 0.05113 0.58025
# Poissons Ratio (z) = 0.28590 0.20625
#
# Static dielectric constant tensor:
#      x y z
#    x 1.608530 0.000000 0.000000 
#    y 0.000000 1.520860 0.000000 
#    z 0.000000 0.000000 1.625680 
# 
# From -- ./inp_files/34545.got.cif
#   From: 2010.05.17/outbox.cif.g08.bks.cpg/sg67_18_cif.got.tgz:34545.got - 2010.06.03 18:28:57.
