data_PCOD9501259
_publ_section_title
;
Structure prediction by ZEFSAII (Michael W. Deem and Ramdas Pophale) SiO2 
 PCOD9501259
Probable space group: C M M A
;
_chemical_formula_sum "Si O2"
_cell_formula_units_Z 72
_cell_length_a 14.682221
_cell_length_b 27.001812
_cell_length_c 11.120484
_cell_angle_alpha 90.000000
_cell_angle_beta 90.000000
_cell_angle_gamma 90.000000
_cell_volume 4408.677752
_symmetry_space_group_name_H-M "C M M A"
_symmetry_group_IT_number 67
_symmetry_cell_setting 'orthorhombic'
loop_
_space_group_symop_operation_xyz
x,y,z
-x,1/2-y,z
x,-y,-z
-x,1/2+y,-z
-x,-y,-z
x,1/2+y,-z
-x,y,z
x,1/2-y,z
1/2+x,1/2+y,z
1/2-x,-y,z
1/2+x,1/2-y,-z
1/2-x,y,-z
1/2-x,1/2-y,-z
1/2+x,y,-z
1/2-x,1/2+y,z
1/2+x,-y,z
loop_
_atom_site_type_symbol
_atom_site_label
_atom_site_fract_x
_atom_site_fract_y
_atom_site_fract_z
Si Si1 0.763738 0.444845 0.198109
Si Si2 0.250000 0.133285 0.000000
Si Si3 0.606979 0.691807 0.838412
Si Si4 0.892041 0.550937 0.571579
Si Si5 0.606625 0.106995 0.339589
O O1 0.750000 0.500000 0.148794
O O2 0.790412 0.403971 0.100142
O O3 0.834465 0.446374 0.307941
O O4 0.668204 0.427378 0.255677
O O5 0.326506 0.166585 0.064498
O O6 0.500000 0.685646 0.871281
O O7 0.625658 0.750000 0.826918
O O8 0.619904 0.661982 0.713033
O O9 0.871633 0.500000 0.500000
O O10 0.870153 0.595062 0.477651
O O11 0.000000 0.551453 0.597073
O O12 0.500000 0.094156 0.326438
#
# Coordination Sequence:
#
# PCOD9501259 Si02
#       5
#    16   8  16  16  16
#     4  11  20  31  49  70 104 143 170 198 251 302
#     4  10  22  34  48  76 104 132 176 220 246 294
#     4   9  18  35  57  74  95 133 174 215 263 307
#     4  10  19  31  50  74 101 135 169 205 249 303
#     4   9  18  31  49  76 100 124 168 211 250 304
#
# _framework density 16.331427000000001
#
# number of rings (size 3 to 8) (size 9 to 14) (size 15 to 20)
#    0.000    2.222    2.222    1.333    0.000    0.889 
#    0.000    0.000    0.000   18.667    0.000    3.111 
#    0.000    0.000    0.000    0.000    0.000    0.000 
#
# Total GULP energy -200656.297982 kJ/mol
# GULP energy per Si atom -5573.786055 kJ/mol
# Density = 1.629426 g / cm^3
# Si number density = 16.331427 Si / 1000 Ang^3
#
#
#
# Elastic Constant Matrix: (Units=GPa)
#
#
# Indices 1 2 3 4 5 6 
#
# 1 55.4345 52.4279 43.2427 0.0000 0.0000 0.0000
# 2 52.4279 136.0863 63.2162 0.0000 0.0000 0.0000
# 3 43.2427 63.2162 99.9848 0.0000 0.0000 0.0000
# 4 0.0000 0.0000 0.0000 23.0724 0.0000 0.0000
# 5 0.0000 0.0000 0.0000 0.0000 22.3850 0.0000
# 6 0.0000 0.0000 0.0000 0.0000 0.0000 21.0877
#
#
#
# Elastic Compliance Matrix: (Units=1/GPa)
#
#
# Indices 1 2 3 4 5 6 
#
# 1 0.033130 -0.008647 -0.008861 0.000000 0.000000 0.000000
# 2 -0.008647 0.012661 -0.004265 0.000000 0.000000 0.000000
# 3 -0.008861 -0.004265 0.016531 0.000000 0.000000 0.000000
# 4 0.000000 0.000000 0.000000 0.043342 0.000000 0.000000
# 5 0.000000 0.000000 0.000000 0.000000 0.044673 0.000000
# 6 0.000000 0.000000 0.000000 0.000000 0.000000 0.047421
#
#
# Mechanical properties :
#
#
# Convention : Reuss Voigt Hill
#
# Bulk Modulus (GPa) = 53.26404 67.69769 60.48086
# Shear Modulus (GPa) = 20.19697 22.15027 21.17362
#
# Velocity S-wave (km/s) = 3.52048 3.68679 3.60459
# Velocity P-wave (km/s) = 7.01500 7.72435 7.37821
#
# Compressibility (1/GPa) = 0.01877439
#
# Stress axis : x y z
#
# Youngs Moduli (GPa) = 30.18433 78.98323 60.49389
#
# Poissons Ratio (x) = 0.68298 0.53605
# Poissons Ratio (y) = 0.26101 0.25802
# Poissons Ratio (z) = 0.26747 0.33688
#
# Static dielectric constant tensor:
#      x y z
#    x 1.547420 0.000000 0.000000 
#    y 0.000000 1.557750 0.000000 
#    z 0.000000 0.000000 1.545370 
# 
# From -- ./inp_files/8263.got.cif
#   From: 2010.05.17/outbox.cif.g08.bks.cpg/sg67_5_cif.got.tgz:8263.got - 2010.06.03 18:28:57.
