data_PCOD9501472
_publ_section_title
;
Structure prediction by ZEFSAII (Michael W. Deem and Ramdas Pophale) SiO2 
 PCOD9501472
Probable space group: C M M A
;
_chemical_formula_sum "Si O2"
_cell_formula_units_Z 96
_cell_length_a 16.003587
_cell_length_b 14.484486
_cell_length_c 20.681212
_cell_angle_alpha 90.000000
_cell_angle_beta 90.000000
_cell_angle_gamma 90.000000
_cell_volume 4793.982121
_symmetry_space_group_name_H-M "C M M A"
_symmetry_group_IT_number 67
_symmetry_cell_setting 'orthorhombic'
loop_
_space_group_symop_operation_xyz
x,y,z
-x,1/2-y,z
x,-y,-z
-x,1/2+y,-z
-x,-y,-z
x,1/2+y,-z
-x,y,z
x,1/2-y,z
1/2+x,1/2+y,z
1/2-x,-y,z
1/2+x,1/2-y,-z
1/2-x,y,-z
1/2-x,1/2-y,-z
1/2+x,y,-z
1/2-x,1/2+y,z
1/2+x,-y,z
loop_
_atom_site_type_symbol
_atom_site_label
_atom_site_fract_x
_atom_site_fract_y
_atom_site_fract_z
Si Si1 0.346839 0.855841 0.019871
Si Si2 0.597456 0.351098 0.621581
Si Si3 0.101359 0.045749 0.651433
Si Si4 0.397805 0.144921 0.218309
Si Si5 0.156154 0.358331 0.520667
Si Si6 0.097639 0.477454 0.900783
O O1 0.374047 0.750000 0.031260
O O2 0.358356 0.927470 0.078653
O O3 0.250000 0.854449 0.000000
O O4 0.393774 0.904851 0.959977
O O5 0.500000 0.345389 0.639162
O O6 0.636618 0.250000 0.632962
O O7 0.633663 0.440544 0.656578
O O8 0.602814 0.369631 0.544567
O O9 0.127829 0.108783 0.711237
O O10 0.128048 0.085291 0.582437
O O11 0.000000 0.043270 0.651982
O O12 0.500000 0.145435 0.216580
O O13 0.370331 0.250000 0.206333
O O14 0.369951 0.074376 0.162756
O O15 0.153522 0.250000 0.537811
O O16 0.250000 0.382472 0.500000
O O17 0.000000 0.498775 0.891834
#
# Coordination Sequence:
#
# PCOD9501472 Si02
#       6
#    16  16  16  16  16  16
#     4  10  20  34  55  80 112 150 186 222 260 315
#     4   9  18  32  49  69  94 126 165 210 262 317
#     4  10  19  32  52  76 100 133 177 218 263 324
#     4   9  18  32  51  77 107 136 171 218 270 323
#     4  10  20  32  49  72 101 130 163 213 271 323
#     4  10  19  32  54  83 112 141 178 228 279 317
#
# _framework density 20.025106999999998
#
# number of rings (size 3 to 8) (size 9 to 14) (size 15 to 20)
#    0.000    2.333    0.000    4.000    0.000    6.333 
#    0.000    0.833    7.333    3.000    0.000    0.000 
#    0.000    0.000    0.000    0.000    0.000    0.000 
#
# Total GULP energy -267846.508726 kJ/mol
# GULP energy per Si atom -5580.135598 kJ/mol
# Density = 1.997953 g / cm^3
# Si number density = 20.025107 Si / 1000 Ang^3
#
#
#
# Elastic Constant Matrix: (Units=GPa)
#
#
# Indices 1 2 3 4 5 6 
#
# 1 21.0414 18.1833 -0.9008 0.0000 0.0000 0.0000
# 2 18.1833 178.5700 54.9671 0.0000 0.0000 0.0000
# 3 -0.9008 54.9671 47.1087 0.0000 0.0000 0.0000
# 4 0.0000 0.0000 0.0000 29.8499 0.0000 0.0000
# 5 0.0000 0.0000 0.0000 0.0000 0.0514 0.0000
# 6 0.0000 0.0000 0.0000 0.0000 0.0000 24.2197
#
#
#
# Elastic Compliance Matrix: (Units=1/GPa)
#
#
# Indices 1 2 3 4 5 6 
#
# 1 0.056207 -0.009448 0.012098 0.000000 0.000000 0.000000
# 2 -0.009448 0.010327 -0.012230 0.000000 0.000000 0.000000
# 3 0.012098 -0.012230 0.035729 0.000000 0.000000 0.000000
# 4 0.000000 0.000000 0.000000 0.033501 0.000000 0.000000
# 5 0.000000 0.000000 0.000000 0.000000 19.449404 0.000000
# 6 0.000000 0.000000 0.000000 0.000000 0.000000 0.041289
#
#
# Mechanical properties :
#
#
# Convention : Reuss Voigt Hill
#
# Bulk Modulus (GPa) = 12.03303 43.46882 27.75093
# Shear Modulus (GPa) = 0.25415 22.45556 11.35485
#
# Velocity S-wave (km/s) = 0.35664 3.35232 2.38382
# Velocity P-wave (km/s) = 2.48829 6.06122 4.63303
#
# Compressibility (1/GPa) = 0.08310456
#
# Stress axis : x y z
#
# Youngs Moduli (GPa) = 17.79122 96.83681 27.98859
#
# Poissons Ratio (x) = 0.91487 -0.33861
# Poissons Ratio (y) = 0.16808 0.34230
# Poissons Ratio (z) = -0.21524 1.18431
#
# Static dielectric constant tensor:
#      x y z
#    x 1.727040 0.000000 0.000000 
#    y 0.000000 1.744090 0.000000 
#    z 0.000000 0.000000 1.677990 
# 
# From -- ./inp_files/38468.got.cif
#   From: 2010.05.17/outbox.cif.g08.bks.cpg/sg67_20_cif.got.tgz:38468.got - 2010.06.03 18:28:57.
