data_PCOD9501305
_publ_section_title
;
Structure prediction by ZEFSAII (Michael W. Deem and Ramdas Pophale) SiO2 
 PCOD9501305
Probable space group: C M M A
;
_chemical_formula_sum "Si O2"
_cell_formula_units_Z 52
_cell_length_a 15.689511
_cell_length_b 19.848505
_cell_length_c 10.597784
_cell_angle_alpha 90.000000
_cell_angle_beta 90.000000
_cell_angle_gamma 90.000000
_cell_volume 3300.291286
_symmetry_space_group_name_H-M "C M M A"
_symmetry_group_IT_number 67
_symmetry_cell_setting 'orthorhombic'
loop_
_space_group_symop_operation_xyz
x,y,z
-x,1/2-y,z
x,-y,-z
-x,1/2+y,-z
-x,-y,-z
x,1/2+y,-z
-x,y,z
x,1/2-y,z
1/2+x,1/2+y,z
1/2-x,-y,z
1/2+x,1/2-y,-z
1/2-x,y,-z
1/2-x,1/2-y,-z
1/2+x,y,-z
1/2-x,1/2+y,z
1/2+x,-y,z
loop_
_atom_site_type_symbol
_atom_site_label
_atom_site_fract_x
_atom_site_fract_y
_atom_site_fract_z
Si Si1 0.829818 0.457439 0.254015
Si Si2 0.750000 0.000000 0.500000
Si Si3 0.500000 0.325814 0.072854
Si Si4 0.000000 0.024285 0.852478
Si Si5 0.329120 0.674068 0.094088
O O1 0.750000 0.500000 0.198167
O O2 0.809588 0.458805 0.403389
O O3 0.916300 0.494248 0.213895
O O4 0.829698 0.383055 0.198682
O O5 0.500000 0.250000 0.131890
O O6 0.500000 0.394276 0.153731
O O7 0.416019 0.329974 0.986033
O O8 0.000000 0.000000 0.000000
O O9 0.321798 0.750000 0.145281
O O10 0.250000 0.662985 0.000000
#
# Coordination Sequence:
#
# PCOD9501305 Si02
#       5
#    16   4   8   8  16
#     4  10  21  36  53  75 111 139 189 224 253 315
#     4   8  24  38  52  72 106 156 186 232 244 284
#     4  10  20  32  46  84 118 127 162 211 277 343
#     4  12  20  31  60  87  98 143 175 216 296 327
#     4  10  19  31  52  80 110 139 165 220 288 328
#
# _framework density 15.756186
#
# number of rings (size 3 to 8) (size 9 to 14) (size 15 to 20)
#    0.923    0.923    3.077    1.846    0.000    0.615 
#    0.000    0.769    0.000    0.000    0.000    0.000 
#    0.000    0.000    0.000    0.000    0.000    0.000 
#
# Total GULP energy -144758.575986 kJ/mol
# GULP energy per Si atom -5567.637538 kJ/mol
# Density = 1.572032 g / cm^3
# Si number density = 15.756186 Si / 1000 Ang^3
#
#
#
# Elastic Constant Matrix: (Units=GPa)
#
#
# Indices 1 2 3 4 5 6 
#
# 1 142.1974 48.7834 50.1746 0.0000 0.0000 0.0000
# 2 48.7834 170.9705 74.1167 0.0000 0.0000 0.0000
# 3 50.1746 74.1167 81.3171 0.0000 0.0000 0.0000
# 4 0.0000 0.0000 0.0000 14.1303 0.0000 0.0000
# 5 0.0000 0.0000 0.0000 0.0000 19.6066 0.0000
# 6 0.0000 0.0000 0.0000 0.0000 0.0000 27.7210
#
#
#
# Elastic Compliance Matrix: (Units=1/GPa)
#
#
# Indices 1 2 3 4 5 6 
#
# 1 0.008997 -0.000265 -0.005309 0.000000 0.000000 0.000000
# 2 -0.000265 0.009677 -0.008657 0.000000 0.000000 0.000000
# 3 -0.005309 -0.008657 0.023464 0.000000 0.000000 0.000000
# 4 0.000000 0.000000 0.000000 0.070770 0.000000 0.000000
# 5 0.000000 0.000000 0.000000 0.000000 0.051003 0.000000
# 6 0.000000 0.000000 0.000000 0.000000 0.000000 0.036074
#
#
# Mechanical properties :
#
#
# Convention : Reuss Voigt Hill
#
# Bulk Modulus (GPa) = 73.12613 82.29273 77.70943
# Shear Modulus (GPa) = 21.45861 27.05226 24.25543
#
# Velocity S-wave (km/s) = 3.69442 4.14808 3.92780
# Velocity P-wave (km/s) = 8.04426 8.67665 8.36643
#
# Compressibility (1/GPa) = 0.01367500
#
# Stress axis : x y z
#
# Youngs Moduli (GPa) = 111.14841 103.33287 42.61888
#
# Poissons Ratio (x) = 0.02743 0.22628
# Poissons Ratio (y) = 0.02951 0.36894
# Poissons Ratio (z) = 0.59013 0.89453
#
# Static dielectric constant tensor:
#      x y z
#    x 1.527140 0.000000 0.000000 
#    y 0.000000 1.541740 0.000000 
#    z 0.000000 0.000000 1.500790 
# 
# From -- ./inp_files/17364.got.cif
#   From: 2010.05.17/outbox.cif.g08.bks.cpg/sg67_9_cif.got.tgz:17364.got - 2010.06.03 18:28:57.
