data_PCOD9501486
_publ_section_title
;
Structure prediction by ZEFSAII (Michael W. Deem and Ramdas Pophale) SiO2 
 PCOD9501486
Probable space group: C M M A
;
_chemical_formula_sum "Si O2"
_cell_formula_units_Z 96
_cell_length_a 11.365170
_cell_length_b 14.086184
_cell_length_c 24.205733
_cell_angle_alpha 90.000000
_cell_angle_beta 90.000000
_cell_angle_gamma 90.000000
_cell_volume 3875.141201
_symmetry_space_group_name_H-M "C M M A"
_symmetry_group_IT_number 67
_symmetry_cell_setting 'orthorhombic'
loop_
_space_group_symop_operation_xyz
x,y,z
-x,1/2-y,z
x,-y,-z
-x,1/2+y,-z
-x,-y,-z
x,1/2+y,-z
-x,y,z
x,1/2-y,z
1/2+x,1/2+y,z
1/2-x,-y,z
1/2+x,1/2-y,-z
1/2-x,y,-z
1/2-x,1/2-y,-z
1/2+x,y,-z
1/2-x,1/2+y,z
1/2+x,-y,z
loop_
_atom_site_type_symbol
_atom_site_label
_atom_site_fract_x
_atom_site_fract_y
_atom_site_fract_z
Si Si1 0.758226 0.864183 0.132895
Si Si2 0.363624 0.134275 0.537382
Si Si3 0.500000 0.135151 0.741376
Si Si4 0.627806 0.606748 0.977783
Si Si5 0.500000 0.134968 0.868641
Si Si6 0.793488 0.134674 0.340329
Si Si7 0.132551 0.866008 0.247814
O O1 0.754506 0.750000 0.135010
O O2 0.855140 0.890908 0.088109
O O3 0.629081 0.896632 0.112093
O O4 0.789781 0.895336 0.194983
O O5 0.500000 0.105689 0.523382
O O6 0.366412 0.250000 0.536672
O O7 0.250000 0.107738 0.500000
O O8 0.331208 0.101159 0.599422
O O9 0.500000 0.250000 0.743669
O O10 0.500000 0.106658 0.804273
O O11 0.611414 0.108306 0.705586
O O12 0.500000 0.647940 0.992800
O O13 0.626105 0.500000 0.000000
O O14 0.750000 0.650137 0.000000
O O15 0.500000 0.250000 0.873185
O O16 0.792461 0.250000 0.344945
O O17 0.674730 0.105542 0.309149
O O18 0.135904 0.750000 0.247632
O O19 0.000000 0.896832 0.238255
#
# Coordination Sequence:
#
# PCOD9501486 Si02
#       7
#    16  16   8  16   8  16  16
#     4  10  19  32  52  78 105 128 158 203 254 304
#     4   9  16  23  30  40  58  91 137 187 234 281
#     4   9  12  20  36  53  75 105 139 174 229 297
#     4  10  23  42  60  77 100 133 169 203 242 294
#     4   9  16  26  45  75 103 125 151 192 249 311
#     4   9  14  21  33  47  68 100 137 179 233 294
#     4   9  16  24  37  60  87 112 138 179 241 302
#
# _framework density 24.773291
#
# number of rings (size 3 to 8) (size 9 to 14) (size 15 to 20)
#    0.000    2.667    2.500    0.500    1.167    2.000 
#    0.000    3.333    0.000    0.000    0.000    0.000 
#    0.000    0.000    0.000    0.000    0.000    0.000 
#
# Total GULP energy -268153.855523 kJ/mol
# GULP energy per Si atom -5586.538657 kJ/mol
# Density = 2.471691 g / cm^3
# Si number density = 24.773291 Si / 1000 Ang^3
#
#
#
# Elastic Constant Matrix: (Units=GPa)
#
#
# Indices 1 2 3 4 5 6 
#
# 1 210.0774 20.5726 63.5859 0.0000 0.0000 0.0000
# 2 20.5726 93.3034 2.1769 0.0000 0.0000 0.0000
# 3 63.5859 2.1769 120.2452 0.0000 0.0000 0.0000
# 4 0.0000 0.0000 0.0000 22.7775 0.0000 0.0000
# 5 0.0000 0.0000 0.0000 0.0000 36.6948 0.0000
# 6 0.0000 0.0000 0.0000 0.0000 0.0000 -5.3082
#
#
#
# Elastic Compliance Matrix: (Units=1/GPa)
#
#
# Indices 1 2 3 4 5 6 
#
# 1 0.005800 -0.001208 -0.003045 0.000000 0.000000 0.000000
# 2 -0.001208 0.010974 0.000440 0.000000 0.000000 0.000000
# 3 -0.003045 0.000440 0.009919 0.000000 0.000000 0.000000
# 4 0.000000 0.000000 0.000000 0.043903 0.000000 0.000000
# 5 0.000000 0.000000 0.000000 0.000000 0.027252 0.000000
# 6 0.000000 0.000000 0.000000 0.000000 0.000000 -0.188389
#
#
# Mechanical properties :
#
#
# Convention : Reuss Voigt Hill
#
# Bulk Modulus (GPa) = 52.44798 66.25521 59.35159
# Shear Modulus (GPa) = -65.30863 33.31888 -15.99487
#
# Velocity S-wave (km/s) = -5.14001 3.67134 -2.54372
# Velocity P-wave (km/s) = 3.74288 6.69136 3.92206
#
# Compressibility (1/GPa) = 0.01906651
#
# Stress axis : x y z
#
# Youngs Moduli (GPa) = 172.40878 91.12639 100.81951
#
# Poissons Ratio (x) = 0.11007 0.30702
# Poissons Ratio (y) = 0.20824 -0.04436
# Poissons Ratio (z) = 0.52503 -0.04010
#
# Static dielectric constant tensor:
#      x y z
#    x 2.005500 0.000000 0.000000 
#    y 0.000000 2.043980 0.000000 
#    z 0.000000 0.000000 1.899650 
# 
# From -- ./inp_files/37945.got.cif
#   From: 2010.05.17/outbox.cif.g08.bks.cpg/sg67_19_cif.got.tgz:37945.got - 2010.06.03 18:28:57.
