data_PCOD9501922
_publ_section_title
;
Structure prediction by ZEFSAII (Michael W. Deem and Ramdas Pophale) SiO2 
 PCOD9501922
Probable space group: C M M A
;
_chemical_formula_sum "Si O2"
_cell_formula_units_Z 104
_cell_length_a 9.030748
_cell_length_b 30.303565
_cell_length_c 20.788742
_cell_angle_alpha 90.000000
_cell_angle_beta 90.000000
_cell_angle_gamma 90.000000
_cell_volume 5689.127360
_symmetry_space_group_name_H-M "C M M A"
_symmetry_group_IT_number 67
_symmetry_cell_setting 'orthorhombic'
loop_
_space_group_symop_operation_xyz
x,y,z
-x,1/2-y,z
x,-y,-z
-x,1/2+y,-z
-x,-y,-z
x,1/2+y,-z
-x,y,z
x,1/2-y,z
1/2+x,1/2+y,z
1/2-x,-y,z
1/2+x,1/2-y,-z
1/2-x,y,-z
1/2-x,1/2-y,-z
1/2+x,y,-z
1/2-x,1/2+y,z
1/2+x,-y,z
loop_
_atom_site_type_symbol
_atom_site_label
_atom_site_fract_x
_atom_site_fract_y
_atom_site_fract_z
Si Si1 0.176745 0.750000 0.069416
Si Si2 0.677566 0.130065 0.207207
Si Si3 0.321351 0.302039 0.696203
Si Si4 0.177625 0.846978 0.069853
Si Si5 0.668345 0.044071 0.741619
Si Si6 0.679498 0.644524 0.434036
Si Si7 0.166769 0.044391 0.412981
O O1 0.217983 0.797594 0.095682
O O2 0.000000 0.750000 0.064334
O O3 0.250000 0.750000 0.000000
O O4 0.500000 0.133888 0.210054
O O5 0.747351 0.171575 0.244956
O O6 0.719656 0.124726 0.131767
O O7 0.737357 0.086718 0.241568
O O8 0.500000 0.305263 0.702397
O O9 0.282310 0.250000 0.694778
O O10 0.280738 0.327152 0.629405
O O11 0.000000 0.848993 0.060751
O O12 0.250000 0.854677 0.000000
O O13 0.500000 0.047363 0.766087
O O14 0.659554 0.042229 0.664383
O O15 0.750000 0.000000 0.764694
O O16 0.500000 0.644659 0.437835
O O17 0.750000 0.662169 0.500000
O O18 0.729649 0.593145 0.427551
O O19 0.000000 0.043160 0.439137
O O20 0.250000 0.000000 0.432728
#
# Coordination Sequence:
#
# PCOD9501922 Si02
#       7
#     8  16  16  16  16  16  16
#     4   8  14  28  46  66  98 138 175 216 261 310
#     4  11  22  35  57  87 117 148 185 233 283 333
#     4  10  22  41  60  79 109 149 192 237 284 335
#     4   9  19  33  51  76 110 148 187 228 275 330
#     4  10  19  35  58  84 114 147 185 228 279 336
#     4  10  21  38  56  79 109 144 185 232 280 334
#     4   9  18  33  53  77 109 141 175 220 272 330
#
# _framework density 18.280483
#
# number of rings (size 3 to 8) (size 9 to 14) (size 15 to 20)
#    0.000    2.308    1.538    0.923    1.077    4.000 
#    0.000    1.538    0.000    0.462    0.000    3.231 
#    0.000    0.000    0.000    0.000    0.000    0.000 
#
# Total GULP energy -289657.956624 kJ/mol
# GULP energy per Si atom -5570.345320 kJ/mol
# Density = 1.823888 g / cm^3
# Si number density = 18.280483 Si / 1000 Ang^3
#
#
#
# Elastic Constant Matrix: (Units=GPa)
#
#
# Indices 1 2 3 4 5 6 
#
# 1 37.0021 35.0000 40.8293 0.0000 0.0000 0.0000
# 2 35.0000 111.1242 46.6530 0.0000 0.0000 0.0000
# 3 40.8293 46.6530 115.4085 0.0000 0.0000 0.0000
# 4 0.0000 0.0000 0.0000 -1.8427 0.0000 0.0000
# 5 0.0000 0.0000 0.0000 0.0000 19.9116 0.0000
# 6 0.0000 0.0000 0.0000 0.0000 0.0000 19.6478
#
#
#
# Elastic Compliance Matrix: (Units=1/GPa)
#
#
# Indices 1 2 3 4 5 6 
#
# 1 0.053050 -0.010634 -0.014469 0.000000 0.000000 0.000000
# 2 -0.010634 0.012970 -0.001481 0.000000 0.000000 0.000000
# 3 -0.014469 -0.001481 0.014382 0.000000 0.000000 0.000000
# 4 0.000000 0.000000 0.000000 -0.542670 0.000000 0.000000
# 5 0.000000 0.000000 0.000000 0.000000 0.050222 0.000000
# 6 0.000000 0.000000 0.000000 0.000000 0.000000 0.050896
#
#
# Mechanical properties :
#
#
# Convention : Reuss Voigt Hill
#
# Bulk Modulus (GPa) = 36.71897 56.49990 46.60943
# Shear Modulus (GPa) = -16.72784 16.94685 0.10951
#
# Velocity S-wave (km/s) = -3.02829 3.04805 0.24502
# Velocity P-wave (km/s) = 2.81117 6.58497 5.06283
#
# Compressibility (1/GPa) = 0.02723388
#
# Stress axis : x y z
#
# Youngs Moduli (GPa) = 18.85010 77.10088 69.52916
#
# Poissons Ratio (x) = 0.81991 1.00604
# Poissons Ratio (y) = 0.20046 0.10296
# Poissons Ratio (z) = 0.27275 0.11418
#
# Static dielectric constant tensor:
#      x y z
#    x 1.629700 0.000000 0.000000 
#    y 0.000000 1.658140 0.000000 
#    z 0.000000 0.000000 1.620180 
# 
# From -- ./inp_files/37338.got.cif
#   From: 2010.05.17/outbox.cif.g08.bks.cpg/sg67_19_cif.got.tgz:37338.got - 2010.06.03 18:28:57.
