data_PCOD9501084
_publ_section_title
;
Structure prediction by ZEFSAII (Michael W. Deem and Ramdas Pophale) SiO2 
 PCOD9501084
Probable space group: C M M A
;
_chemical_formula_sum "Si O2"
_cell_formula_units_Z 96
_cell_length_a 14.825955
_cell_length_b 14.494172
_cell_length_c 20.970435
_cell_angle_alpha 90.000000
_cell_angle_beta 90.000000
_cell_angle_gamma 90.000000
_cell_volume 4506.335557
_symmetry_space_group_name_H-M "C M M A"
_symmetry_group_IT_number 67
_symmetry_cell_setting 'orthorhombic'
loop_
_space_group_symop_operation_xyz
x,y,z
-x,1/2-y,z
x,-y,-z
-x,1/2+y,-z
-x,-y,-z
x,1/2+y,-z
-x,y,z
x,1/2-y,z
1/2+x,1/2+y,z
1/2-x,-y,z
1/2+x,1/2-y,-z
1/2-x,y,-z
1/2-x,1/2-y,-z
1/2+x,y,-z
1/2-x,1/2+y,z
1/2+x,-y,z
loop_
_atom_site_type_symbol
_atom_site_label
_atom_site_fract_x
_atom_site_fract_y
_atom_site_fract_z
Si Si1 0.110178 0.039919 0.403086
Si Si2 0.610301 0.645180 0.531814
Si Si3 0.600737 0.395120 0.977007
Si Si4 0.392003 0.640863 0.275557
Si Si5 0.212597 0.861817 0.851087
Si Si6 0.900902 0.145556 0.880367
O O1 0.136390 0.106322 0.462023
O O2 0.139201 0.081252 0.335902
O O3 0.000000 0.039728 0.403032
O O4 0.139070 0.935306 0.419211
O O5 0.500000 0.647080 0.533091
O O6 0.641359 0.750000 0.542968
O O7 0.500000 0.367541 0.955922
O O8 0.667269 0.384115 0.918628
O O9 0.600129 0.500000 0.000000
O O10 0.619696 0.346524 0.044135
O O11 0.500000 0.631288 0.269254
O O12 0.373928 0.750000 0.287026
O O13 0.345374 0.611971 0.209939
O O14 0.218635 0.750000 0.849959
O O15 0.314262 0.900697 0.849471
O O16 0.907798 0.250000 0.855328
O O17 0.000000 0.101089 0.873670
#
# Coordination Sequence:
#
# PCOD9501084 Si02
#       6
#    16  16  16  16  16  16
#     4   8  13  20  31  51  82 122 170 224 274 316
#     4   8  12  18  30  50  79 120 173 226 269 312
#     4  10  20  32  47  70  99 129 164 210 260 310
#     4   9  16  25  38  58  87 124 166 215 272 331
#     4  10  19  30  46  68  93 125 167 214 267 326
#     4   9  18  32  48  66  91 124 162 208 264 323
#
# _framework density 21.303339999999999
#
# number of rings (size 3 to 8) (size 9 to 14) (size 15 to 20)
#    0.000    3.000    0.000    3.000    0.000    6.333 
#    0.000    0.000    0.000    0.000    0.000    2.333 
#    0.000   16.000    0.000    4.000    0.000   22.167 
#
# Total GULP energy -267863.035813 kJ/mol
# GULP energy per Si atom -5580.479913 kJ/mol
# Density = 2.125485 g / cm^3
# Si number density = 21.303340 Si / 1000 Ang^3
#
#
#
# Elastic Constant Matrix: (Units=GPa)
#
#
# Indices 1 2 3 4 5 6 
#
# 1 81.7722 30.7273 60.5197 0.0000 0.0000 0.0000
# 2 30.7273 110.5967 38.1258 0.0000 0.0000 0.0000
# 3 60.5197 38.1258 83.9222 0.0000 0.0000 0.0000
# 4 0.0000 0.0000 0.0000 27.2873 0.0000 0.0000
# 5 0.0000 0.0000 0.0000 0.0000 3.7516 0.0000
# 6 0.0000 0.0000 0.0000 0.0000 0.0000 9.8325
#
#
#
# Elastic Compliance Matrix: (Units=1/GPa)
#
#
# Indices 1 2 3 4 5 6 
#
# 1 0.026304 -0.000912 -0.018555 0.000000 0.000000 0.000000
# 2 -0.000912 0.010752 -0.004227 0.000000 0.000000 0.000000
# 3 -0.018555 -0.004227 0.027217 0.000000 0.000000 0.000000
# 4 0.000000 0.000000 0.000000 0.036647 0.000000 0.000000
# 5 0.000000 0.000000 0.000000 0.000000 0.266556 0.000000
# 6 0.000000 0.000000 0.000000 0.000000 0.000000 0.101703
#
#
# Mechanical properties :
#
#
# Convention : Reuss Voigt Hill
#
# Bulk Modulus (GPa) = 59.22157 59.44852 59.33505
# Shear Modulus (GPa) = 9.57495 17.96883 13.77189
#
# Velocity S-wave (km/s) = 2.12234 2.90741 2.54533
# Velocity P-wave (km/s) = 5.81939 6.26395 6.04576
#
# Compressibility (1/GPa) = 0.01688574
#
# Stress axis : x y z
#
# Youngs Moduli (GPa) = 38.01694 93.00196 36.74199
#
# Poissons Ratio (x) = 0.08480 0.68174
# Poissons Ratio (y) = 0.03466 0.15532
# Poissons Ratio (z) = 0.70539 0.39315
#
# Static dielectric constant tensor:
#      x y z
#    x 1.822080 0.000000 0.000000 
#    y 0.000000 1.701640 0.000000 
#    z 0.000000 0.000000 1.709670 
# 
# From -- ./inp_files/38395.got.cif
#   From: 2010.05.17/outbox.cif.g08.bks.cpg/sg67_20_cif.got.tgz:38395.got - 2010.06.03 18:28:57.
