data_PCOD9501936
_publ_section_title
;
Structure prediction by ZEFSAII (Michael W. Deem and Ramdas Pophale) SiO2 
 PCOD9501936
Probable space group: C M M A
;
_chemical_formula_sum "Si O2"
_cell_formula_units_Z 96
_cell_length_a 20.064190
_cell_length_b 19.674255
_cell_length_c 13.050226
_cell_angle_alpha 90.000000
_cell_angle_beta 90.000000
_cell_angle_gamma 90.000000
_cell_volume 5151.550488
_symmetry_space_group_name_H-M "C M M A"
_symmetry_group_IT_number 67
_symmetry_cell_setting 'orthorhombic'
loop_
_space_group_symop_operation_xyz
x,y,z
-x,1/2-y,z
x,-y,-z
-x,1/2+y,-z
-x,-y,-z
x,1/2+y,-z
-x,y,z
x,1/2-y,z
1/2+x,1/2+y,z
1/2-x,-y,z
1/2+x,1/2-y,-z
1/2-x,y,-z
1/2-x,1/2-y,-z
1/2+x,y,-z
1/2-x,1/2+y,z
1/2+x,-y,z
loop_
_atom_site_type_symbol
_atom_site_label
_atom_site_fract_x
_atom_site_fract_y
_atom_site_fract_z
Si Si1 0.306687 0.250000 0.085630
Si Si2 0.803651 0.828835 0.409743
Si Si3 0.653678 0.981709 0.120159
Si Si4 0.721317 0.891513 0.801714
Si Si5 0.919194 0.250000 0.074444
Si Si6 0.422059 0.127985 0.778859
Si Si7 0.078179 0.832020 0.555906
O O1 0.295323 0.319811 0.146446
O O2 0.250000 0.250000 0.000000
O O3 0.378599 0.250000 0.030586
O O4 0.809995 0.750000 0.374454
O O5 0.750000 0.829492 0.500000
O O6 0.777682 0.875484 0.318268
O O7 0.873979 0.849609 0.461169
O O8 0.713510 0.928733 0.150077
O O9 0.590682 0.942950 0.165852
O O10 0.665323 0.052504 0.176534
O O11 0.653146 0.000000 0.000000
O O12 0.897545 0.314292 0.143102
O O13 0.000000 0.250000 0.060628
O O14 0.500000 0.142055 0.767211
O O15 0.396082 0.135419 0.662827
O O16 0.082366 0.750000 0.570178
O O17 0.000000 0.848879 0.538884
#
# Coordination Sequence:
#
# PCOD9501936 Si02
#       7
#     8  16  16  16   8  16  16
#     4  12  22  36  60  83 106 143 194 242 284 331
#     4  10  20  35  57  85 113 143 187 240 291 340
#     4  11  23  39  57  81 117 158 188 230 294 349
#     4  11  22  39  56  81 113 145 193 237 283 346
#     4  10  20  34  55  87 117 141 184 242 282 325
#     4  10  19  35  59  87 115 148 192 234 281 342
#     4   9  17  33  58  86 116 150 189 235 290 345
#
# _framework density 18.635166000000002
#
# number of rings (size 3 to 8) (size 9 to 14) (size 15 to 20)
#    0.000    1.667    1.667    5.000    0.000    0.333 
#    0.000    8.333    0.000    2.000    0.000    0.000 
#    0.000    0.000    0.000    0.000    0.000    0.000 
#
# Total GULP energy -267694.014418 kJ/mol
# GULP energy per Si atom -5576.958634 kJ/mol
# Density = 1.859275 g / cm^3
# Si number density = 18.635166 Si / 1000 Ang^3
#
#
#
# Elastic Constant Matrix: (Units=GPa)
#
#
# Indices 1 2 3 4 5 6 
#
# 1 46.1107 -5.6777 -8.7148 0.0000 0.0000 0.0000
# 2 -5.6777 33.5087 -103.8815 0.0000 0.0000 0.0000
# 3 -8.7148 -103.8815 -199.3270 0.0000 0.0000 0.0000
# 4 0.0000 0.0000 0.0000 19.8988 0.0000 0.0000
# 5 0.0000 0.0000 0.0000 0.0000 16.4612 0.0000
# 6 0.0000 0.0000 0.0000 0.0000 0.0000 28.1948
#
#
#
# Elastic Compliance Matrix: (Units=1/GPa)
#
#
# Indices 1 2 3 4 5 6 
#
# 1 0.021516 0.000279 -0.001086 0.000000 0.000000 0.000000
# 2 0.000279 0.011413 -0.005960 0.000000 0.000000 0.000000
# 3 -0.001086 -0.005960 -0.001863 0.000000 0.000000 0.000000
# 4 0.000000 0.000000 0.000000 0.050254 0.000000 0.000000
# 5 0.000000 0.000000 0.000000 0.000000 0.060749 0.000000
# 6 0.000000 0.000000 0.000000 0.000000 0.000000 0.035467
#
#
# Mechanical properties :
#
#
# Convention : Reuss Voigt Hill
#
# Bulk Modulus (GPa) = 57.04152 -39.58395 8.72878
# Shear Modulus (GPa) = 25.39166 12.81538 19.10352
#
# Velocity S-wave (km/s) = 3.69530 2.62525 3.20524
# Velocity P-wave (km/s) = 6.99164 3.47828 4.28863
#
# Compressibility (1/GPa) = 0.01753109
#
# Stress axis : x y z
#
# Youngs Moduli (GPa) = 46.47696 87.61993 -536.71312
#
# Poissons Ratio (x) = -0.02443 -0.58289
# Poissons Ratio (y) = -0.01296 -3.19890
# Poissons Ratio (z) = 0.05048 0.52223
#
# Static dielectric constant tensor:
#      x y z
#    x 1.770350 0.000000 0.000000 
#    y 0.000000 1.654750 0.000000 
#    z 0.000000 0.000000 1.654910 
# 
# From -- ./inp_files/21994.got.cif
#   From: 2010.05.17/outbox.cif.g08.bks.cpg/sg67_11_cif.got.tgz:21994.got - 2010.06.03 18:28:57.
