data_PCOD9501457
_publ_section_title
;
Structure prediction by ZEFSAII (Michael W. Deem and Ramdas Pophale) SiO2 
 PCOD9501457
Probable space group: C M M A
;
_chemical_formula_sum "Si O2"
_cell_formula_units_Z 104
_cell_length_a 27.843678
_cell_length_b 17.353879
_cell_length_c 12.578884
_cell_angle_alpha 90.000000
_cell_angle_beta 90.000000
_cell_angle_gamma 90.000000
_cell_volume 6078.064156
_symmetry_space_group_name_H-M "C M M A"
_symmetry_group_IT_number 67
_symmetry_cell_setting 'orthorhombic'
loop_
_space_group_symop_operation_xyz
x,y,z
-x,1/2-y,z
x,-y,-z
-x,1/2+y,-z
-x,-y,-z
x,1/2+y,-z
-x,y,z
x,1/2-y,z
1/2+x,1/2+y,z
1/2-x,-y,z
1/2+x,1/2-y,-z
1/2-x,y,-z
1/2-x,1/2-y,-z
1/2+x,y,-z
1/2-x,1/2+y,z
1/2+x,-y,z
loop_
_atom_site_type_symbol
_atom_site_label
_atom_site_fract_x
_atom_site_fract_y
_atom_site_fract_z
Si Si1 0.901984 0.159947 0.015442
Si Si2 0.500000 0.457465 0.299517
Si Si3 0.000000 0.416517 0.945301
Si Si4 0.825446 0.449339 0.899690
Si Si5 0.000000 0.341585 0.510360
Si Si6 0.245733 0.837987 0.869838
Si Si7 0.917779 0.441430 0.404743
Si Si8 0.644195 0.598550 0.215285
O O1 0.894683 0.250000 0.997227
O O2 0.894245 0.140238 0.139314
O O3 0.953372 0.130675 0.979204
O O4 0.862478 0.110846 0.950996
O O5 0.500000 0.432170 0.179256
O O6 0.500000 0.382977 0.375269
O O7 0.546754 0.508183 0.329368
O O8 0.000000 0.500000 0.000000
O O9 0.784370 0.402503 0.839776
O O10 0.850976 0.510536 0.824395
O O11 0.806600 0.500000 0.000000
O O12 0.047246 0.375846 0.452350
O O13 0.000000 0.250000 0.514243
O O14 0.256962 0.750000 0.839192
O O15 0.194602 0.861258 0.818835
O O16 0.250000 0.839454 0.000000
O O17 0.903103 0.500000 0.500000
O O18 0.874804 0.405689 0.335252
#
# Coordination Sequence:
#
# PCOD9501457 Si02
#       8
#    16   8   8  16   8  16  16  16
#     4  11  22  33  46  74 112 145 173 214 264 322
#     4   9  18  37  55  74 103 146 189 228 264 312
#     4  12  22  35  52  75 111 152 185 208 255 328
#     4  10  19  32  52  73 102 143 186 218 254 319
#     4   9  19  34  58  81 104 140 189 242 284 326
#     4  11  20  32  51  78 112 144 177 222 269 324
#     4   9  19  37  57  78 105 136 186 242 281 313
#     4  11  21  33  54  79 104 143 183 223 275 327
#
# _framework density 17.110711999999999
#
# number of rings (size 3 to 8) (size 9 to 14) (size 15 to 20)
#    0.000    1.692    3.077    5.769    0.000    2.462 
#    0.000    0.000    0.000    2.769    0.000    1.077 
#    0.000    0.000    0.000    0.000    0.000    0.000 
#
# Total GULP energy -290072.192961 kJ/mol
# GULP energy per Si atom -5578.311403 kJ/mol
# Density = 1.707177 g / cm^3
# Si number density = 17.110712 Si / 1000 Ang^3
#
#
#
# Elastic Constant Matrix: (Units=GPa)
#
#
# Indices 1 2 3 4 5 6 
#
# 1 91.8313 42.1441 47.2332 0.0000 0.0000 0.0000
# 2 42.1441 146.1628 32.1660 0.0000 0.0000 0.0000
# 3 47.2332 32.1660 75.0663 0.0000 0.0000 0.0000
# 4 0.0000 0.0000 0.0000 8.8706 0.0000 0.0000
# 5 0.0000 0.0000 0.0000 0.0000 21.2760 0.0000
# 6 0.0000 0.0000 0.0000 0.0000 0.0000 0.4392
#
#
#
# Elastic Compliance Matrix: (Units=1/GPa)
#
#
# Indices 1 2 3 4 5 6 
#
# 1 0.017098 -0.002829 -0.009546 0.000000 0.000000 0.000000
# 2 -0.002829 0.008022 -0.001657 0.000000 0.000000 0.000000
# 3 -0.009546 -0.001657 0.020038 0.000000 0.000000 0.000000
# 4 0.000000 0.000000 0.000000 0.112732 0.000000 0.000000
# 5 0.000000 0.000000 0.000000 0.000000 0.047001 0.000000
# 6 0.000000 0.000000 0.000000 0.000000 0.000000 2.276661
#
#
# Mechanical properties :
#
#
# Convention : Reuss Voigt Hill
#
# Bulk Modulus (GPa) = 58.50256 61.79412 60.14834
# Shear Modulus (GPa) = 1.98782 18.88496 10.43639
#
# Velocity S-wave (km/s) = 1.07901 3.32579 2.47236
# Velocity P-wave (km/s) = 5.98475 7.13726 6.58626
#
# Compressibility (1/GPa) = 0.01709327
#
# Stress axis : x y z
#
# Youngs Moduli (GPa) = 58.48670 124.65454 49.90445
#
# Poissons Ratio (x) = 0.35267 0.47639
# Poissons Ratio (y) = 0.16547 0.08271
# Poissons Ratio (z) = 0.55832 0.20660
#
# Static dielectric constant tensor:
#      x y z
#    x 1.604270 0.000000 0.000000 
#    y 0.000000 1.581190 0.000000 
#    z 0.000000 0.000000 1.575900 
# 
# From -- ./inp_files/23021.got.cif
#   From: 2010.05.17/outbox.cif.g08.bks.cpg/sg67_12_cif.got.tgz:23021.got - 2010.06.03 18:28:57.
