data_PCOD9501927
_publ_section_title
;
Structure prediction by ZEFSAII (Michael W. Deem and Ramdas Pophale) SiO2 
 PCOD9501927
Probable space group: C M M A
;
_chemical_formula_sum "Si O2"
_cell_formula_units_Z 96
_cell_length_a 14.443582
_cell_length_b 21.065996
_cell_length_c 14.696796
_cell_angle_alpha 90.000000
_cell_angle_beta 90.000000
_cell_angle_gamma 90.000000
_cell_volume 4471.771201
_symmetry_space_group_name_H-M "C M M A"
_symmetry_group_IT_number 67
_symmetry_cell_setting 'orthorhombic'
loop_
_space_group_symop_operation_xyz
x,y,z
-x,1/2-y,z
x,-y,-z
-x,1/2+y,-z
-x,-y,-z
x,1/2+y,-z
-x,y,z
x,1/2-y,z
1/2+x,1/2+y,z
1/2-x,-y,z
1/2+x,1/2-y,-z
1/2-x,y,-z
1/2-x,1/2-y,-z
1/2+x,y,-z
1/2-x,1/2+y,z
1/2+x,-y,z
loop_
_atom_site_type_symbol
_atom_site_label
_atom_site_fract_x
_atom_site_fract_y
_atom_site_fract_z
Si Si1 0.356466 0.500441 0.247841
Si Si2 0.887386 0.818213 0.950340
Si Si3 0.611393 0.440144 0.058696
Si Si4 0.897982 0.055690 0.568141
Si Si5 0.391900 0.646017 0.251138
Si Si6 0.271620 0.178889 0.393826
O O1 0.250000 0.500000 0.274794
O O2 0.364626 0.453750 0.162597
O O3 0.408291 0.478918 0.336442
O O4 0.388257 0.571376 0.226201
O O5 0.860387 0.750000 0.988300
O O6 0.861613 0.822624 0.844131
O O7 0.000000 0.821542 0.949145
O O8 0.854701 0.875834 0.012675
O O9 0.500000 0.439503 0.054186
O O10 0.644007 0.500000 0.000000
O O11 0.840140 0.118178 0.597601
O O12 0.000000 0.074220 0.531056
O O13 0.860427 0.000000 0.500000
O O14 0.500000 0.662721 0.272697
O O15 0.318511 0.661260 0.331603
O O16 0.304667 0.250000 0.362816
O O17 0.250000 0.186197 0.500000
#
# Coordination Sequence:
#
# PCOD9501927 Si02
#       6
#    16  16  16  16  16  16
#     4  12  23  38  63  94 129 169 218 280 337 398
#     4   9  18  34  59  90 127 172 219 272 334 400
#     4  10  19  35  58  88 125 162 211 270 327 392
#     4  11  25  45  70  99 131 172 226 283 335 397
#     4  11  21  39  67  98 131 174 229 282 334 401
#     4  11  25  43  65  97 137 176 216 274 341 402
#
# _framework density 21.468003
#
# number of rings (size 3 to 8) (size 9 to 14) (size 15 to 20)
#    0.000    1.333    3.333    3.000    0.000    3.667 
#    0.000    2.500    0.000    3.500    0.000    0.000 
#    0.000    0.000    0.000    0.000    0.000    0.000 
#
# Total GULP energy -267709.859280 kJ/mol
# GULP energy per Si atom -5577.288735 kJ/mol
# Density = 2.141914 g / cm^3
# Si number density = 21.468003 Si / 1000 Ang^3
#
#
#
# Elastic Constant Matrix: (Units=GPa)
#
#
# Indices 1 2 3 4 5 6 
#
# 1 114.7240 41.0935 29.2527 0.0000 0.0000 0.0000
# 2 41.0935 175.6993 57.5517 0.0000 0.0000 0.0000
# 3 29.2527 57.5517 133.5849 0.0000 0.0000 0.0000
# 4 0.0000 0.0000 0.0000 18.2721 0.0000 0.0000
# 5 0.0000 0.0000 0.0000 0.0000 15.3670 0.0000
# 6 0.0000 0.0000 0.0000 0.0000 0.0000 13.2970
#
#
#
# Elastic Compliance Matrix: (Units=1/GPa)
#
#
# Indices 1 2 3 4 5 6 
#
# 1 0.009714 -0.001834 -0.001337 0.000000 0.000000 0.000000
# 2 -0.001834 0.006973 -0.002603 0.000000 0.000000 0.000000
# 3 -0.001337 -0.002603 0.008900 0.000000 0.000000 0.000000
# 4 0.000000 0.000000 0.000000 0.054728 0.000000 0.000000
# 5 0.000000 0.000000 0.000000 0.000000 0.065075 0.000000
# 6 0.000000 0.000000 0.000000 0.000000 0.000000 0.075205
#
#
# Mechanical properties :
#
#
# Convention : Reuss Voigt Hill
#
# Bulk Modulus (GPa) = 71.22543 75.53379 73.37961
# Shear Modulus (GPa) = 21.11284 29.12789 25.12037
#
# Velocity S-wave (km/s) = 3.13941 3.68748 3.42443
# Velocity P-wave (km/s) = 6.81107 7.30690 7.06334
#
# Compressibility (1/GPa) = 0.01403993
#
# Stress axis : x y z
#
# Youngs Moduli (GPa) = 102.93910 143.41074 112.36071
#
# Poissons Ratio (x) = 0.26303 0.15024
# Poissons Ratio (y) = 0.18880 0.29242
# Poissons Ratio (z) = 0.13764 0.37323
#
# Static dielectric constant tensor:
#      x y z
#    x 1.737320 0.000000 0.000000 
#    y 0.000000 2.025010 0.000000 
#    z 0.000000 0.000000 1.757390 
# 
# From -- ./inp_files/27169.got.cif
#   From: 2010.05.17/outbox.cif.g08.bks.cpg/sg67_14_cif.got.tgz:27169.got - 2010.06.03 18:28:57.
