data_PCOD9501357
_publ_section_title
;
Structure prediction by ZEFSAII (Michael W. Deem and Ramdas Pophale) SiO2 
 PCOD9501357
Probable space group: C M M A
;
_chemical_formula_sum "Si O2"
_cell_formula_units_Z 88
_cell_length_a 28.385334
_cell_length_b 8.526400
_cell_length_c 19.417468
_cell_angle_alpha 90.000000
_cell_angle_beta 90.000000
_cell_angle_gamma 90.000000
_cell_volume 4699.507097
_symmetry_space_group_name_H-M "C M M A"
_symmetry_group_IT_number 67
_symmetry_cell_setting 'orthorhombic'
loop_
_space_group_symop_operation_xyz
x,y,z
-x,1/2-y,z
x,-y,-z
-x,1/2+y,-z
-x,-y,-z
x,1/2+y,-z
-x,y,z
x,1/2-y,z
1/2+x,1/2+y,z
1/2-x,-y,z
1/2+x,1/2-y,-z
1/2-x,y,-z
1/2-x,1/2-y,-z
1/2+x,y,-z
1/2-x,1/2+y,z
1/2+x,-y,z
loop_
_atom_site_type_symbol
_atom_site_label
_atom_site_fract_x
_atom_site_fract_y
_atom_site_fract_z
Si Si1 0.000000 0.061118 0.921981
Si Si2 0.301365 0.063463 0.336310
Si Si3 0.389145 0.437723 0.576637
Si Si4 0.644126 0.438137 0.789811
Si Si5 0.552175 0.059466 0.705574
Si Si6 0.103977 0.938441 0.077910
O O1 0.051355 0.008587 0.896157
O O2 0.000000 0.250000 0.920280
O O3 0.000000 0.000000 0.000000
O O4 0.301652 0.250000 0.337995
O O5 0.250000 0.000000 0.354681
O O6 0.341330 0.999684 0.387975
O O7 0.315736 0.005012 0.259877
O O8 0.394883 0.500000 0.500000
O O9 0.386776 0.250000 0.575632
O O10 0.431602 0.482994 0.628281
O O11 0.646168 0.250000 0.787945
O O12 0.594938 0.491997 0.754143
O O13 0.641538 0.497056 0.867824
O O14 0.500000 0.000506 0.722905
O O15 0.551044 0.250000 0.709350
O O16 0.104996 0.750000 0.076864
O O17 0.110126 0.000000 0.000000
#
# Coordination Sequence:
#
# PCOD9501357 Si02
#       6
#     8  16  16  16  16  16
#     4   8  16  28  42  64  98 136 177 218 261 310
#     4  11  22  39  61  83 108 137 174 219 273 327
#     4  10  20  35  55  81 113 144 181 222 267 318
#     4  10  20  34  54  80 109 142 182 224 271 324
#     4   8  16  31  50  74 106 145 185 222 261 309
#     4  10  19  32  49  73 106 144 185 229 275 320
#
# _framework density 18.725366999999999
#
# number of rings (size 3 to 8) (size 9 to 14) (size 15 to 20)
#    0.000    2.364    0.000    4.364    1.273    1.455 
#    0.000    1.818    0.000   10.909    0.000    3.818 
#    0.000    0.000    0.000    0.000    0.000    0.000 
#
# Total GULP energy -245407.737915 kJ/mol
# GULP energy per Si atom -5577.448589 kJ/mol
# Density = 1.868275 g / cm^3
# Si number density = 18.725367 Si / 1000 Ang^3
#
#
#
# Elastic Constant Matrix: (Units=GPa)
#
#
# Indices 1 2 3 4 5 6 
#
# 1 36.7226 -0.2210 -16.0890 0.0000 0.0000 0.0000
# 2 -0.2210 62.0280 9.4725 0.0000 0.0000 0.0000
# 3 -16.0890 9.4725 69.5531 0.0000 0.0000 0.0000
# 4 0.0000 0.0000 0.0000 28.5917 0.0000 0.0000
# 5 0.0000 0.0000 0.0000 0.0000 18.5855 0.0000
# 6 0.0000 0.0000 0.0000 0.0000 0.0000 19.5849
#
#
#
# Elastic Compliance Matrix: (Units=1/GPa)
#
#
# Indices 1 2 3 4 5 6 
#
# 1 0.030361 -0.000985 0.007157 0.000000 0.000000 0.000000
# 2 -0.000985 0.016496 -0.002474 0.000000 0.000000 0.000000
# 3 0.007157 -0.002474 0.016370 0.000000 0.000000 0.000000
# 4 0.000000 0.000000 0.000000 0.034975 0.000000 0.000000
# 5 0.000000 0.000000 0.000000 0.000000 0.053805 0.000000
# 6 0.000000 0.000000 0.000000 0.000000 0.000000 0.051060
#
#
# Mechanical properties :
#
#
# Convention : Reuss Voigt Hill
#
# Bulk Modulus (GPa) = 14.15963 17.18094 15.67028
# Shear Modulus (GPa) = 22.80890 25.02850 23.91870
#
# Velocity S-wave (km/s) = 3.49388 3.65993 3.57787
# Velocity P-wave (km/s) = 4.88410 5.20147 5.04528
#
# Compressibility (1/GPa) = 0.07062331
#
# Stress axis : x y z
#
# Youngs Moduli (GPa) = 32.93694 60.62030 61.08689
#
# Poissons Ratio (x) = 0.05970 -0.43721
# Poissons Ratio (y) = 0.03244 0.15116
# Poissons Ratio (z) = -0.23574 0.15000
#
# Static dielectric constant tensor:
#      x y z
#    x 1.657400 0.000000 0.000000 
#    y 0.000000 1.622660 0.000000 
#    z 0.000000 0.000000 1.642940 
# 
# From -- ./inp_files/32463.got.cif
#   From: 2010.05.17/outbox.cif.g08.bks.cpg/sg67_17_cif.got.tgz:32463.got - 2010.06.03 18:28:57.
