data_PCOD9501323
_publ_section_title
;
Structure prediction by ZEFSAII (Michael W. Deem and Ramdas Pophale) SiO2 
 PCOD9501323
Probable space group: C M M A
;
_chemical_formula_sum "Si O2"
_cell_formula_units_Z 84
_cell_length_a 19.157170
_cell_length_b 12.117011
_cell_length_c 19.222431
_cell_angle_alpha 90.000000
_cell_angle_beta 90.000000
_cell_angle_gamma 90.000000
_cell_volume 4462.057536
_symmetry_space_group_name_H-M "C M M A"
_symmetry_group_IT_number 67
_symmetry_cell_setting 'orthorhombic'
loop_
_space_group_symop_operation_xyz
x,y,z
-x,1/2-y,z
x,-y,-z
-x,1/2+y,-z
-x,-y,-z
x,1/2+y,-z
-x,y,z
x,1/2-y,z
1/2+x,1/2+y,z
1/2-x,-y,z
1/2+x,1/2-y,-z
1/2-x,y,-z
1/2-x,1/2-y,-z
1/2+x,y,-z
1/2-x,1/2+y,z
1/2+x,-y,z
loop_
_atom_site_type_symbol
_atom_site_label
_atom_site_fract_x
_atom_site_fract_y
_atom_site_fract_z
Si Si1 0.250000 0.500000 0.729213
Si Si2 0.500000 0.872246 0.062784
Si Si3 0.135005 0.124037 0.811263
Si Si4 0.000000 0.985970 0.789947
Si Si5 0.844339 0.383004 0.385729
Si Si6 0.856269 0.378662 0.978016
Si Si7 0.500000 0.620604 0.355184
Si Si8 0.750000 0.000000 0.500000
O O1 0.205646 0.420050 0.777975
O O2 0.196533 0.567245 0.680553
O O3 0.500000 0.750000 0.093394
O O4 0.431776 0.881915 0.015232
O O5 0.500000 0.948166 0.129880
O O6 0.124420 0.250000 0.792130
O O7 0.070127 0.055697 0.782715
O O8 0.138005 0.116454 0.894880
O O9 0.000000 0.897437 0.728216
O O10 0.843204 0.250000 0.383048
O O11 0.925514 0.421943 0.384168
O O12 0.800489 0.426626 0.451481
O O13 0.829959 0.250000 0.994224
O O14 0.824841 0.500000 0.000000
O O15 0.500000 0.750000 0.370371
#
# Coordination Sequence:
#
# PCOD9501323 Si02
#       8
#     8   8  16   8  16  16   8   4
#     4  11  22  41  59  84 123 164 202 248 297 378
#     4  10  19  31  55  85 115 154 208 263 321 386
#     4  11  23  37  59  86 116 158 205 259 322 373
#     4  12  19  36  61  90 120 150 204 263 320 366
#     4  10  21  40  65  92 124 161 201 241 289 353
#     4  10  19  34  53  80 112 150 203 265 324 380
#     4  10  21  37  61  94 126 159 203 254 299 346
#     4  10  22  38  68  98 126 166 192 232 290 352
#
# _framework density 18.825396000000001
#
# number of rings (size 3 to 8) (size 9 to 14) (size 15 to 20)
#    0.000    1.524    3.810    2.286    0.000    1.905 
#    0.000    2.381    0.000    2.286    0.000    0.000 
#    0.000    0.000    0.000    0.000    0.000    0.000 
#
# Total GULP energy -234061.816354 kJ/mol
# GULP energy per Si atom -5572.900389 kJ/mol
# Density = 1.878255 g / cm^3
# Si number density = 18.825396 Si / 1000 Ang^3
#
#
#
# Elastic Constant Matrix: (Units=GPa)
#
#
# Indices 1 2 3 4 5 6 
#
# 1 148.1456 29.1042 46.1700 0.0000 0.0000 0.0000
# 2 29.1042 91.2916 11.3946 0.0000 0.0000 0.0000
# 3 46.1700 11.3946 80.3270 0.0000 0.0000 0.0000
# 4 0.0000 0.0000 0.0000 20.0032 0.0000 0.0000
# 5 0.0000 0.0000 0.0000 0.0000-1122.1944 0.0000
# 6 0.0000 0.0000 0.0000 0.0000 0.0000 -425.5610
#
#
#
# Elastic Compliance Matrix: (Units=1/GPa)
#
#
# Indices 1 2 3 4 5 6 
#
# 1 0.008626 -0.002169 -0.004650 0.000000 0.000000 0.000000
# 2 -0.002169 0.011697 -0.000412 0.000000 0.000000 0.000000
# 3 -0.004650 -0.000412 0.015180 0.000000 0.000000 0.000000
# 4 0.000000 0.000000 0.000000 0.049992 0.000000 0.000000
# 5 0.000000 0.000000 0.000000 0.000000 -0.000891 0.000000
# 6 0.000000 0.000000 0.000000 0.000000 0.000000 -0.002350
#
#
# Mechanical properties :
#
#
# Convention : Reuss Voigt Hill
#
# Bulk Modulus (GPa) = 47.53005 54.78908 51.15956
# Shear Modulus (GPa) = 48.20184 -290.01075 -120.90446
#
# Velocity S-wave (km/s) = 5.06560 -12.42527 -8.02269
# Velocity P-wave (km/s) = 7.71468 13.29221 7.65397
#
# Compressibility (1/GPa) = 0.02103932
#
# Stress axis : x y z
#
# Youngs Moduli (GPa) = 115.93523 85.49191 65.87490
#
# Poissons Ratio (x) = 0.18547 0.30632
# Poissons Ratio (y) = 0.25152 0.02716
# Poissons Ratio (z) = 0.53910 0.03525
#
# Static dielectric constant tensor:
#      x y z
#    x 1.645300 0.000000 0.000000 
#    y 0.000000 1.683060 0.000000 
#    z 0.000000 0.000000 1.607850 
# 
# From -- ./inp_files/34858.got.cif
#   From: 2010.05.17/outbox.cif.g08.bks.cpg/sg67_18_cif.got.tgz:34858.got - 2010.06.03 18:28:57.
