data_PCOD9501135
_publ_section_title
;
Structure prediction by ZEFSAII (Michael W. Deem and Ramdas Pophale) SiO2 
 PCOD9501135
Probable space group: C M M A
;
_chemical_formula_sum "Si O2"
_cell_formula_units_Z 128
_cell_length_a 23.318865
_cell_length_b 26.423969
_cell_length_c 12.718712
_cell_angle_alpha 90.000000
_cell_angle_beta 90.000000
_cell_angle_gamma 90.000000
_cell_volume 7836.977370
_symmetry_space_group_name_H-M "C M M A"
_symmetry_group_IT_number 67
_symmetry_cell_setting 'orthorhombic'
loop_
_space_group_symop_operation_xyz
x,y,z
-x,1/2-y,z
x,-y,-z
-x,1/2+y,-z
-x,-y,-z
x,1/2+y,-z
-x,y,z
x,1/2-y,z
1/2+x,1/2+y,z
1/2-x,-y,z
1/2+x,1/2-y,-z
1/2-x,y,-z
1/2-x,1/2-y,-z
1/2+x,y,-z
1/2-x,1/2+y,z
1/2+x,-y,z
loop_
_atom_site_type_symbol
_atom_site_label
_atom_site_fract_x
_atom_site_fract_y
_atom_site_fract_z
Si Si1 0.436198 0.310544 0.511315
Si Si2 0.068856 0.877880 0.877570
Si Si3 0.876806 0.634420 0.329295
Si Si4 0.068433 0.101943 0.884684
Si Si5 0.933496 0.466026 0.601195
Si Si6 0.566619 0.009013 0.832786
Si Si7 0.261389 0.309701 0.375050
Si Si8 0.136303 0.689419 0.712745
O O1 0.500000 0.330174 0.530582
O O2 0.372066 0.250000 0.725031
O O3 0.414122 0.327019 0.398253
O O4 0.394879 0.327607 0.604912
O O5 0.089647 0.935387 0.855143
O O6 0.106127 0.839812 0.807946
O O7 0.000000 0.873426 0.852986
O O8 0.075453 0.871949 0.002934
O O9 0.899007 0.628669 0.210634
O O10 0.890567 0.580567 0.384104
O O11 0.812319 0.654081 0.338342
O O12 0.000000 0.100617 0.859909
O O13 0.088150 0.042749 0.886963
O O14 0.921745 0.500000 0.500000
O O15 0.930374 0.498152 0.708416
O O16 0.000000 0.447602 0.593738
O O17 0.500000 0.012600 0.865570
O O18 0.277128 0.250000 0.363424
O O19 0.250000 0.317136 0.500000
O O20 0.203586 0.318930 0.308695
O O21 0.063023 0.750000 0.515366
#
# Coordination Sequence:
#
# PCOD9501135 Si02
#       8
#    16  16  16  16  16  16  16  16
#     4  10  19  30  49  78 106 129 160 209 266 324
#     4  10  19  32  55  79 105 142 178 212 264 317
#     4  11  19  32  54  75 103 137 176 212 260 310
#     4   9  18  33  51  79 112 139 170 215 260 310
#     4   9  18  29  45  77 116 141 162 207 268 323
#     4   8  15  28  48  75 105 138 174 205 244 311
#     4  10  20  37  57  75  97 135 182 224 261 306
#     4  10  21  36  52  75 104 133 175 222 266 315
#
# _framework density 16.332827999999999
#
# number of rings (size 3 to 8) (size 9 to 14) (size 15 to 20)
#    0.000    2.375    1.250    3.000    1.750    2.250 
#    0.000    1.875    0.000    9.375    0.000    3.500 
#    0.000    0.000    0.000    0.000    0.000    0.000 
#
# Total GULP energy -356611.951690 kJ/mol
# GULP energy per Si atom -5572.061745 kJ/mol
# Density = 1.629565 g / cm^3
# Si number density = 16.332828 Si / 1000 Ang^3
#
#
#
# Elastic Constant Matrix: (Units=GPa)
#
#
# Indices 1 2 3 4 5 6 
#
# 1 102.0967 62.1355 53.2951 0.0000 0.0000 0.0000
# 2 62.1355 62.8582 59.5124 0.0000 0.0000 0.0000
# 3 53.2951 59.5124 85.5927 0.0000 0.0000 0.0000
# 4 0.0000 0.0000 0.0000 26.2261 0.0000 0.0000
# 5 0.0000 0.0000 0.0000 0.0000 18.4413 0.0000
# 6 0.0000 0.0000 0.0000 0.0000 0.0000 26.6236
#
#
#
# Elastic Compliance Matrix: (Units=1/GPa)
#
#
# Indices 1 2 3 4 5 6 
#
# 1 0.025234 -0.029464 0.004774 0.000000 0.000000 0.000000
# 2 -0.029464 0.080958 -0.037944 0.000000 0.000000 0.000000
# 3 0.004774 -0.037944 0.035093 0.000000 0.000000 0.000000
# 4 0.000000 0.000000 0.000000 0.038130 0.000000 0.000000
# 5 0.000000 0.000000 0.000000 0.000000 0.054226 0.000000
# 6 0.000000 0.000000 0.000000 0.000000 0.000000 0.037561
#
#
# Mechanical properties :
#
#
# Convention : Reuss Voigt Hill
#
# Bulk Modulus (GPa) = 62.43199 66.71485 64.57342
# Shear Modulus (GPa) = 12.44370 19.29851 15.87110
#
# Velocity S-wave (km/s) = 2.76322 3.44114 3.12064
# Velocity P-wave (km/s) = 6.96336 7.53156 7.25302
#
# Compressibility (1/GPa) = 0.01601743
#
# Stress axis : x y z
#
# Youngs Moduli (GPa) = 39.62879 12.35205 28.49543
#
# Poissons Ratio (x) = 0.36394 -0.13603
# Poissons Ratio (y) = 1.16761 1.08124
# Poissons Ratio (z) = -0.18918 0.46869
#
# Static dielectric constant tensor:
#      x y z
#    x 1.545010 0.000000 0.000000 
#    y 0.000000 1.568130 0.000000 
#    z 0.000000 0.000000 1.548970 
# 
# From -- ./inp_files/22430.got.cif
#   From: 2010.05.17/outbox.cif.g08.bks.cpg/sg67_12_cif.got.tgz:22430.got - 2010.06.03 18:28:57.
