data_PCOD9501066
_publ_section_title
;
Structure prediction by ZEFSAII (Michael W. Deem and Ramdas Pophale) SiO2 
 PCOD9501066
Probable space group: C M M A
;
_chemical_formula_sum "Si O2"
_cell_formula_units_Z 88
_cell_length_a 25.498896
_cell_length_b 8.903097
_cell_length_c 25.544576
_cell_angle_alpha 90.000000
_cell_angle_beta 90.000000
_cell_angle_gamma 90.000000
_cell_volume 5799.107790
_symmetry_space_group_name_H-M "C M M A"
_symmetry_group_IT_number 67
_symmetry_cell_setting 'orthorhombic'
loop_
_space_group_symop_operation_xyz
x,y,z
-x,1/2-y,z
x,-y,-z
-x,1/2+y,-z
-x,-y,-z
x,1/2+y,-z
-x,y,z
x,1/2-y,z
1/2+x,1/2+y,z
1/2-x,-y,z
1/2+x,1/2-y,-z
1/2-x,y,-z
1/2-x,1/2-y,-z
1/2+x,y,-z
1/2-x,1/2+y,z
1/2+x,-y,z
loop_
_atom_site_type_symbol
_atom_site_label
_atom_site_fract_x
_atom_site_fract_y
_atom_site_fract_z
Si Si1 0.936089 0.576411 0.554082
Si Si2 0.692411 0.069411 0.944238
Si Si3 0.000000 0.070032 0.942630
Si Si4 0.436223 0.922678 0.661750
Si Si5 0.102942 0.430111 0.875353
Si Si6 0.937183 0.427689 0.229390
O O1 0.918864 0.500000 0.500000
O O2 0.920656 0.750000 0.555473
O O3 0.918527 0.492685 0.606728
O O4 0.000000 0.571622 0.554080
O O5 0.694897 0.250000 0.947536
O O6 0.750000 0.000000 0.934871
O O7 0.652345 0.013981 0.900319
O O8 0.674474 0.000000 0.000000
O O9 0.051752 0.028183 0.909898
O O10 0.000000 0.250000 0.947702
O O11 0.000000 0.000000 0.000000
O O12 0.500000 0.924805 0.660536
O O13 0.419770 0.750000 0.666594
O O14 0.420957 0.016084 0.713034
O O15 0.109746 0.250000 0.877837
O O16 0.091383 0.482568 0.816495
O O17 0.928338 0.250000 0.224043
O O18 0.000000 0.454669 0.224375
#
# Coordination Sequence:
#
# PCOD9501066 Si02
#       6
#    16  16   8  16  16  16
#     4   9  15  22  32  47  68  95 132 178 223 265
#     4  11  22  38  57  77  96 120 150 187 229 275
#     4  10  22  34  48  68  94 122 149 180 223 270
#     4   9  16  25  37  52  73 104 140 180 223 266
#     4  11  21  35  51  71  95 124 154 188 228 274
#     4  10  19  30  44  63  87 117 151 187 225 270
#
# _framework density 15.174747999999999
#
# number of rings (size 3 to 8) (size 9 to 14) (size 15 to 20)
#    0.000    2.000    0.909    4.909    0.000    8.000 
#    0.000    0.000    0.000    0.000    0.000    0.000 
#    0.000    0.000    0.000    0.000    0.000    0.909 
#
# Total GULP energy -245467.897358 kJ/mol
# GULP energy per Si atom -5578.815849 kJ/mol
# Density = 1.514021 g / cm^3
# Si number density = 15.174748 Si / 1000 Ang^3
#
#
#
# Elastic Constant Matrix: (Units=GPa)
#
#
# Indices 1 2 3 4 5 6 
#
# 1 27.1765 25.2518 28.6603 0.0000 0.0000 0.0000
# 2 25.2518 101.6152 49.6496 0.0000 0.0000 0.0000
# 3 28.6603 49.6496 126.5233 0.0000 0.0000 0.0000
# 4 0.0000 0.0000 0.0000 34.2013 0.0000 0.0000
# 5 0.0000 0.0000 0.0000 0.0000 7.3562 0.0000
# 6 0.0000 0.0000 0.0000 0.0000 0.0000 14.8622
#
#
#
# Elastic Compliance Matrix: (Units=1/GPa)
#
#
# Indices 1 2 3 4 5 6 
#
# 1 0.054656 -0.009320 -0.008724 0.000000 0.000000 0.000000
# 2 -0.009320 0.013765 -0.003290 0.000000 0.000000 0.000000
# 3 -0.008724 -0.003290 0.011171 0.000000 0.000000 0.000000
# 4 0.000000 0.000000 0.000000 0.029239 0.000000 0.000000
# 5 0.000000 0.000000 0.000000 0.000000 0.135940 0.000000
# 6 0.000000 0.000000 0.000000 0.000000 0.000000 0.067285
#
#
# Mechanical properties :
#
#
# Convention : Reuss Voigt Hill
#
# Bulk Modulus (GPa) = 27.08245 51.38206 39.23225
# Shear Modulus (GPa) = 13.62280 21.40082 17.51181
#
# Velocity S-wave (km/s) = 2.99946 3.75946 3.40076
# Velocity P-wave (km/s) = 5.46640 7.26488 6.42884
#
# Compressibility (1/GPa) = 0.03692429
#
# Stress axis : x y z
#
# Youngs Moduli (GPa) = 18.29617 72.64929 89.51813
#
# Poissons Ratio (x) = 0.67709 0.78092
# Poissons Ratio (y) = 0.17052 0.29454
# Poissons Ratio (z) = 0.15961 0.23904
#
# Static dielectric constant tensor:
#      x y z
#    x 1.478840 0.000000 0.000000 
#    y 0.000000 1.507870 0.000000 
#    z 0.000000 0.000000 1.502480 
# 
# From -- ./inp_files/44625.got.cif
#   From: 2010.05.17/outbox.cif.g08.bks.cpg/sg67_23_cif.got.tgz:44625.got - 2010.06.03 18:28:57.
