data_PCOD9501610
_publ_section_title
;
Structure prediction by ZEFSAII (Michael W. Deem and Ramdas Pophale) SiO2 
 PCOD9501610
Probable space group: C M M A
;
_chemical_formula_sum "Si O2"
_cell_formula_units_Z 96
_cell_length_a 8.790872
_cell_length_b 26.260150
_cell_length_c 25.583398
_cell_angle_alpha 90.000000
_cell_angle_beta 90.000000
_cell_angle_gamma 90.000000
_cell_volume 5905.917639
_symmetry_space_group_name_H-M "C M M A"
_symmetry_group_IT_number 67
_symmetry_cell_setting 'orthorhombic'
loop_
_space_group_symop_operation_xyz
x,y,z
-x,1/2-y,z
x,-y,-z
-x,1/2+y,-z
-x,-y,-z
x,1/2+y,-z
-x,y,z
x,1/2-y,z
1/2+x,1/2+y,z
1/2-x,-y,z
1/2+x,1/2-y,-z
1/2-x,y,-z
1/2-x,1/2-y,-z
1/2+x,y,-z
1/2-x,1/2+y,z
1/2+x,-y,z
loop_
_atom_site_type_symbol
_atom_site_label
_atom_site_fract_x
_atom_site_fract_y
_atom_site_fract_z
Si Si1 0.182314 0.054345 0.942128
Si Si2 0.681789 0.942902 0.447730
Si Si3 0.317520 0.642421 0.129229
Si Si4 0.176247 0.750000 0.127866
Si Si5 0.683298 0.943340 0.331428
Si Si6 0.317157 0.856813 0.251802
Si Si7 0.325438 0.750000 0.745191
O O1 0.237845 0.098919 0.904331
O O2 0.000000 0.051734 0.944588
O O3 0.250000 0.000000 0.924330
O O4 0.250000 0.063254 0.000000
O O5 0.500000 0.945397 0.452916
O O6 0.750000 0.917821 0.500000
O O7 0.719760 0.922682 0.389873
O O8 0.750000 0.000000 0.446499
O O9 0.500000 0.639308 0.124358
O O10 0.260002 0.698192 0.111780
O O11 0.276781 0.636260 0.190700
O O12 0.179690 0.750000 0.191294
O O13 0.000000 0.750000 0.111404
O O14 0.500000 0.947635 0.328555
O O15 0.735610 0.903714 0.287467
O O16 0.750000 0.000000 0.325065
O O17 0.500000 0.854728 0.254370
O O18 0.253917 0.802536 0.270733
O O19 0.500000 0.750000 0.728705
#
# Coordination Sequence:
#
# PCOD9501610 Si02
#       7
#    16  16  16   8  16  16   8
#     4  11  22  38  57  76  99 128 163 201 237 278
#     4   9  15  24  39  58  83 115 153 190 227 271
#     4  10  19  33  53  76 100 128 160 195 237 285
#     4   9  17  31  50  74 101 128 158 195 237 281
#     4   9  18  30  43  64  94 126 156 190 231 277
#     4   9  18  32  49  69  96 128 159 190 231 281
#     4   9  17  29  47  70  93 120 159 199 233 271
#
# _framework density 16.254881999999998
#
# number of rings (size 3 to 8) (size 9 to 14) (size 15 to 20)
#    0.000    2.500    0.000    4.000    0.000    4.667 
#    0.000    2.083    0.000    0.000    0.000    0.583 
#    0.000    0.000    0.000    0.000    0.000    0.000 
#
# Total GULP energy -267459.494734 kJ/mol
# GULP energy per Si atom -5572.072807 kJ/mol
# Density = 1.621789 g / cm^3
# Si number density = 16.254882 Si / 1000 Ang^3
#
#
#
# Elastic Constant Matrix: (Units=GPa)
#
#
# Indices 1 2 3 4 5 6 
#
# 1 75.5525 49.7420 43.8889 0.0000 0.0000 0.0000
# 2 49.7420 132.0634 76.6858 0.0000 0.0000 0.0000
# 3 43.8889 76.6858 74.0207 0.0000 0.0000 0.0000
# 4 0.0000 0.0000 0.0000 -4.4668 0.0000 0.0000
# 5 0.0000 0.0000 0.0000 0.0000 7.2361 0.0000
# 6 0.0000 0.0000 0.0000 0.0000 0.0000 25.0834
#
#
#
# Elastic Compliance Matrix: (Units=1/GPa)
#
#
# Indices 1 2 3 4 5 6 
#
# 1 0.020332 -0.001651 -0.010345 0.000000 0.000000 0.000000
# 2 -0.001651 0.019140 -0.018850 0.000000 0.000000 0.000000
# 3 -0.010345 -0.018850 0.039172 0.000000 0.000000 0.000000
# 4 0.000000 0.000000 0.000000 -0.223874 0.000000 0.000000
# 5 0.000000 0.000000 0.000000 0.000000 0.138195 0.000000
# 6 0.000000 0.000000 0.000000 0.000000 0.000000 0.039867
#
#
# Mechanical properties :
#
#
# Convention : Reuss Voigt Hill
#
# Bulk Modulus (GPa) = 58.98944 69.14111 64.06528
# Shear Modulus (GPa) = 49.91310 12.99188 31.45249
#
# Velocity S-wave (km/s) = 5.54736 2.83019 4.40359
# Velocity P-wave (km/s) = 8.79773 7.30122 8.08418
#
# Compressibility (1/GPa) = 0.01695219
#
# Stress axis : x y z
#
# Youngs Moduli (GPa) = 49.18253 52.24790 25.52850
#
# Poissons Ratio (x) = 0.08627 0.26409
# Poissons Ratio (y) = 0.08121 0.48120
# Poissons Ratio (z) = 0.50880 0.98485
#
# Static dielectric constant tensor:
#      x y z
#    x 1.545350 0.000000 0.000000 
#    y 0.000000 1.522750 0.000000 
#    z 0.000000 0.000000 1.573290 
# 
# From -- ./inp_files/40964.got.cif
#   From: 2010.05.17/outbox.cif.g08.bks.cpg/sg67_21_cif.got.tgz:40964.got - 2010.06.03 18:28:57.
