data_PCOD9501599
_publ_section_title
;
Structure prediction by ZEFSAII (Michael W. Deem and Ramdas Pophale) SiO2 
 PCOD9501599
Probable space group: C M M A
;
_chemical_formula_sum "Si O2"
_cell_formula_units_Z 88
_cell_length_a 23.762762
_cell_length_b 8.527447
_cell_length_c 24.363354
_cell_angle_alpha 90.000000
_cell_angle_beta 90.000000
_cell_angle_gamma 90.000000
_cell_volume 4936.885134
_symmetry_space_group_name_H-M "C M M A"
_symmetry_group_IT_number 67
_symmetry_cell_setting 'orthorhombic'
loop_
_space_group_symop_operation_xyz
x,y,z
-x,1/2-y,z
x,-y,-z
-x,1/2+y,-z
-x,-y,-z
x,1/2+y,-z
-x,y,z
x,1/2-y,z
1/2+x,1/2+y,z
1/2-x,-y,z
1/2+x,1/2-y,-z
1/2-x,y,-z
1/2-x,1/2-y,-z
1/2+x,y,-z
1/2-x,1/2+y,z
1/2+x,-y,z
loop_
_atom_site_type_symbol
_atom_site_label
_atom_site_fract_x
_atom_site_fract_y
_atom_site_fract_z
Si Si1 0.375539 0.059552 0.664015
Si Si2 0.000000 0.573036 0.664790
Si Si3 0.500000 0.941156 0.938122
Si Si4 0.901685 0.571117 0.141525
Si Si5 0.813810 0.937281 0.777179
Si Si6 0.000000 0.080461 0.770160
Si Si7 0.813538 0.562697 0.443029
O O1 0.377680 0.250000 0.665828
O O2 0.439266 0.000156 0.653440
O O3 0.347537 0.008072 0.721911
O O4 0.340764 0.003276 0.612026
O O5 0.000000 0.567065 0.730893
O O6 0.000000 0.750000 0.642936
O O7 0.500000 0.750000 0.934652
O O8 0.442266 0.993397 0.907029
O O9 0.500000 0.000000 0.000000
O O10 0.885582 0.750000 0.127137
O O11 0.848010 0.486232 0.167954
O O12 0.946043 0.576919 0.191446
O O13 0.811910 0.750000 0.774749
O O14 0.750000 0.000000 0.776656
O O15 0.000000 0.250000 0.740402
O O16 0.840039 0.500000 0.500000
O O17 0.814124 0.750000 0.443278
O O18 0.750000 0.500000 0.442670
#
# Coordination Sequence:
#
# PCOD9501599 Si02
#       7
#    16   8   8  16  16   8  16
#     4  10  21  36  54  80 111 141 178 222 269 323
#     4  10  19  33  52  76 108 139 170 213 260 314
#     4   9  19  35  57  86 115 146 182 226 271 316
#     4   9  18  33  52  77 111 144 178 220 265 314
#     4  11  22  34  52  78 111 147 184 223 271 324
#     4   9  16  28  49  74 102 137 171 207 253 306
#     4  11  22  38  60  81 104 136 178 225 274 325
#
# _framework density 17.825005000000001
#
# number of rings (size 3 to 8) (size 9 to 14) (size 15 to 20)
#    0.000    2.000    1.818    4.364    0.000    4.364 
#    0.000    2.273    0.000    0.545    0.000    3.818 
#    0.000    0.000    0.000    0.000    0.000    0.000 
#
# Total GULP energy -244998.492700 kJ/mol
# GULP energy per Si atom -5568.147561 kJ/mol
# Density = 1.778443 g / cm^3
# Si number density = 17.825005 Si / 1000 Ang^3
#
#
#
# Elastic Constant Matrix: (Units=GPa)
#
#
# Indices 1 2 3 4 5 6 
#
# 1 132.5835 25.5624 57.3873 0.0000 0.0000 0.0000
# 2 25.5624 31.8727 17.9027 0.0000 0.0000 0.0000
# 3 57.3873 17.9027 114.4936 0.0000 0.0000 0.0000
# 4 0.0000 0.0000 0.0000 20.5220 0.0000 0.0000
# 5 0.0000 0.0000 0.0000 0.0000 -7.9586 0.0000
# 6 0.0000 0.0000 0.0000 0.0000 0.0000 -27.1306
#
#
#
# Elastic Compliance Matrix: (Units=1/GPa)
#
#
# Indices 1 2 3 4 5 6 
#
# 1 0.010598 -0.006047 -0.004367 0.000000 0.000000 0.000000
# 2 -0.006047 0.037846 -0.002887 0.000000 0.000000 0.000000
# 3 -0.004367 -0.002887 0.011374 0.000000 0.000000 0.000000
# 4 0.000000 0.000000 0.000000 0.048728 0.000000 0.000000
# 5 0.000000 0.000000 0.000000 0.000000 -0.125650 0.000000
# 6 0.000000 0.000000 0.000000 0.000000 0.000000 -0.036859
#
#
# Mechanical properties :
#
#
# Convention : Reuss Voigt Hill
#
# Bulk Modulus (GPa) = 30.10464 53.40608 41.75536
# Shear Modulus (GPa) = -306.98225 8.95972 -149.01127
#
# Velocity S-wave (km/s) = -13.13750 2.24442 -9.15305
# Velocity P-wave (km/s) = 14.60135 6.06159 9.39299
#
# Compressibility (1/GPa) = 0.03321748
#
# Stress axis : x y z
#
# Youngs Moduli (GPa) = 94.35380 26.42265 87.91857
#
# Poissons Ratio (x) = 0.15979 0.38391
# Poissons Ratio (y) = 0.57059 0.25380
# Poissons Ratio (z) = 0.41201 0.07627
#
# Static dielectric constant tensor:
#      x y z
#    x 1.721830 0.000000 0.000000 
#    y 0.000000 1.647040 0.000000 
#    z 0.000000 0.000000 1.602040 
# 
# From -- ./inp_files/42431.got.cif
#   From: 2010.05.17/outbox.cif.g08.bks.cpg/sg67_22_cif.got.tgz:42431.got - 2010.06.03 18:28:57.
