data_PCOD9501889
_publ_section_title
;
Structure prediction by ZEFSAII (Michael W. Deem and Ramdas Pophale) SiO2 
 PCOD9501889
Probable space group: C M M A
;
_chemical_formula_sum "Si O2"
_cell_formula_units_Z 52
_cell_length_a 5.321980
_cell_length_b 14.341718
_cell_length_c 33.507411
_cell_angle_alpha 90.000000
_cell_angle_beta 90.000000
_cell_angle_gamma 90.000000
_cell_volume 2557.497923
_symmetry_space_group_name_H-M "C M M A"
_symmetry_group_IT_number 67
_symmetry_cell_setting 'orthorhombic'
loop_
_space_group_symop_operation_xyz
x,y,z
-x,1/2-y,z
x,-y,-z
-x,1/2+y,-z
-x,-y,-z
x,1/2+y,-z
-x,y,z
x,1/2-y,z
1/2+x,1/2+y,z
1/2-x,-y,z
1/2+x,1/2-y,-z
1/2-x,y,-z
1/2-x,1/2-y,-z
1/2+x,y,-z
1/2-x,1/2+y,z
1/2+x,-y,z
loop_
_atom_site_type_symbol
_atom_site_label
_atom_site_fract_x
_atom_site_fract_y
_atom_site_fract_z
Si Si1 0.000000 0.104462 0.517470
Si Si2 0.500000 0.936695 0.257056
Si Si3 0.000000 0.563273 0.828982
Si Si4 0.000000 0.250000 0.026774
Si Si5 0.500000 0.639538 0.344620
Si Si6 0.500000 0.136517 0.389707
Si Si7 0.500000 0.434580 0.918562
O O1 0.250000 0.149009 0.500000
O O2 0.000000 0.102421 0.564989
O O3 0.000000 0.000000 0.500000
O O4 0.500000 0.885012 0.213847
O O5 0.500000 0.879261 0.297603
O O6 0.250000 0.000000 0.258044
O O7 0.750000 0.500000 0.828359
O O8 0.000000 0.606219 0.873094
O O9 0.000000 0.154319 0.052485
O O10 0.250000 0.250000 0.000000
O O11 0.500000 0.750000 0.350232
O O12 0.752346 0.605553 0.366041
O O13 0.500000 0.250000 0.391388
O O14 0.750000 0.500000 0.923525
#
# Coordination Sequence:
#
# PCOD9501889 Si02
#       7
#     8   8   8   4   8   8   8
#     4  10  21  38  53  77 103 126 167 222 261 305
#     4  10  19  35  55  87 115 146 188 233 281 333
#     4   8  16  32  57  80 114 151 192 243 291 349
#     4  12  26  40  60  94 130 164 222 280 316 392
#     4  10  21  38  55  81 114 145 180 214 265 337
#     4  10  21  38  58  75 105 145 174 212 266 328
#     4  10  21  40  63  88 122 170 214 263 328 384
#
# _framework density 20.332370999999998
#
# number of rings (size 3 to 8) (size 9 to 14) (size 15 to 20)
#    0.000    2.154    0.000    2.769    0.000    2.462 
#   18.000    0.000    0.000    0.000    0.000    0.000 
#    0.000    0.000    0.000    0.000    0.000    0.000 
#
# Total GULP energy -145028.889629 kJ/mol
# GULP energy per Si atom -5578.034217 kJ/mol
# Density = 2.028609 g / cm^3
# Si number density = 20.332371 Si / 1000 Ang^3
#
#
#
# Elastic Constant Matrix: (Units=GPa)
#
#
# Indices 1 2 3 4 5 6 
#
# 1 206.5079 35.4390 85.2963 0.0000 0.0000 0.0000
# 2 35.4390 94.4451 55.3067 0.0000 0.0000 0.0000
# 3 85.2963 55.3067 221.4953 0.0000 0.0000 0.0000
# 4 0.0000 0.0000 0.0000 51.6510 0.0000 0.0000
# 5 0.0000 0.0000 0.0000 0.0000 37.7841 0.0000
# 6 0.0000 0.0000 0.0000 0.0000 0.0000 -15.4683
#
#
#
# Elastic Compliance Matrix: (Units=1/GPa)
#
#
# Indices 1 2 3 4 5 6 
#
# 1 0.005842 -0.001024 -0.001994 0.000000 0.000000 0.000000
# 2 -0.001024 0.012581 -0.002747 0.000000 0.000000 0.000000
# 3 -0.001994 -0.002747 0.005968 0.000000 0.000000 0.000000
# 4 0.000000 0.000000 0.000000 0.019361 0.000000 0.000000
# 5 0.000000 0.000000 0.000000 0.000000 0.026466 0.000000
# 6 0.000000 0.000000 0.000000 0.000000 0.000000 -0.064648
#
#
# Mechanical properties :
#
#
# Convention : Reuss Voigt Hill
#
# Bulk Modulus (GPa) = 77.75479 97.17027 87.46253
# Shear Modulus (GPa) = 233.78252 37.88711 135.83481
#
# Velocity S-wave (km/s) = 10.73453 4.32138 8.18243
# Velocity P-wave (km/s) = 13.85514 8.53193 11.50562
#
# Compressibility (1/GPa) = 0.01286094
#
# Stress axis : x y z
#
# Youngs Moduli (GPa) = 171.18104 79.48370 167.54670
#
# Poissons Ratio (x) = 0.08143 0.33406
# Poissons Ratio (y) = 0.17537 0.46025
# Poissons Ratio (z) = 0.34130 0.21834
#
# Static dielectric constant tensor:
#      x y z
#    x 1.996720 0.000000 0.000000 
#    y 0.000000 1.703050 0.000000 
#    z 0.000000 0.000000 1.732380 
# 
# From -- ./inp_files/45126.got.cif
#   From: 2010.05.17/outbox.cif.g08.bks.cpg/sg67_23_cif.got.tgz:45126.got - 2010.06.03 18:28:57.
