data_PCOD9501310
_publ_section_title
;
Structure prediction by ZEFSAII (Michael W. Deem and Ramdas Pophale) SiO2 
 PCOD9501310
Probable space group: C M M A
;
_chemical_formula_sum "Si O2"
_cell_formula_units_Z 112
_cell_length_a 14.676756
_cell_length_b 27.478655
_cell_length_c 14.052158
_cell_angle_alpha 90.000000
_cell_angle_beta 90.000000
_cell_angle_gamma 90.000000
_cell_volume 5667.200397
_symmetry_space_group_name_H-M "C M M A"
_symmetry_group_IT_number 67
_symmetry_cell_setting 'orthorhombic'
loop_
_space_group_symop_operation_xyz
x,y,z
-x,1/2-y,z
x,-y,-z
-x,1/2+y,-z
-x,-y,-z
x,1/2+y,-z
-x,y,z
x,1/2-y,z
1/2+x,1/2+y,z
1/2-x,-y,z
1/2+x,1/2-y,-z
1/2-x,y,-z
1/2-x,1/2-y,-z
1/2+x,y,-z
1/2-x,1/2+y,z
1/2+x,-y,z
loop_
_atom_site_type_symbol
_atom_site_label
_atom_site_fract_x
_atom_site_fract_y
_atom_site_fract_z
Si Si1 0.105644 0.545249 0.201152
Si Si2 0.606900 0.048327 0.895124
Si Si3 0.107789 0.147328 0.040210
Si Si4 0.207463 0.805331 0.780509
Si Si5 0.106525 0.155891 0.820198
Si Si6 0.143341 0.488754 0.395987
Si Si7 0.104596 0.108879 0.302520
O O1 0.145490 0.505079 0.127746
O O2 0.141039 0.600163 0.199005
O O3 0.108073 0.520321 0.305820
O O4 0.000000 0.551167 0.174141
O O5 0.500000 0.040816 0.917475
O O6 0.639358 0.090564 0.965212
O O7 0.612775 0.077840 0.795521
O O8 0.168026 0.176276 0.116575
O O9 0.000000 0.148103 0.070331
O O10 0.110115 0.165966 0.933159
O O11 0.178812 0.750000 0.765825
O O12 0.316480 0.810197 0.776357
O O13 0.165297 0.843704 0.706822
O O14 0.000000 0.160462 0.790259
O O15 0.105031 0.500000 0.500000
O O16 0.250000 0.500000 0.396474
O O17 0.129669 0.431621 0.378808
O O18 0.000000 0.123256 0.313208
#
# Coordination Sequence:
#
# PCOD9501310 Si02
#       7
#    16  16  16  16  16  16  16
#     4   9  17  30  48  70  99 135 171 207 254 315
#     4   7  12  25  45  68  96 130 164 202 252 309
#     4   9  18  32  49  72 101 132 173 224 272 321
#     4  11  22  36  54  72  97 137 181 229 281 319
#     4  10  21  34  48  70 101 137 180 228 273 325
#     4  10  19  31  52  84 118 146 169 197 242 306
#     4   9  18  33  53  79 109 137 172 219 262 305
#
# _framework density 19.762844999999999
#
# number of rings (size 3 to 8) (size 9 to 14) (size 15 to 20)
#    0.000    2.714    0.000    3.857    0.000    4.286 
#    0.000    4.286    0.000    5.143    0.000    8.000 
#    0.000    6.857    0.000    0.000    0.000    0.000 
#
# Total GULP energy -312105.591370 kJ/mol
# GULP energy per Si atom -5573.314132 kJ/mol
# Density = 1.971786 g / cm^3
# Si number density = 19.762845 Si / 1000 Ang^3
#
#
#
# Elastic Constant Matrix: (Units=GPa)
#
#
# Indices 1 2 3 4 5 6 
#
# 1 89.1407 29.1613 6.8343 0.0000 0.0000 0.0000
# 2 29.1613 113.4492 28.2115 0.0000 0.0000 0.0000
# 3 6.8343 28.2115 37.8773 0.0000 0.0000 0.0000
# 4 0.0000 0.0000 0.0000 11.5265 0.0000 0.0000
# 5 0.0000 0.0000 0.0000 0.0000 -14.1010 0.0000
# 6 0.0000 0.0000 0.0000 0.0000 0.0000 14.6774
#
#
#
# Elastic Compliance Matrix: (Units=1/GPa)
#
#
# Indices 1 2 3 4 5 6 
#
# 1 0.012249 -0.003190 0.000166 0.000000 0.000000 0.000000
# 2 -0.003190 0.011649 -0.008101 0.000000 0.000000 0.000000
# 3 0.000166 -0.008101 0.032405 0.000000 0.000000 0.000000
# 4 0.000000 0.000000 0.000000 0.086757 0.000000 0.000000
# 5 0.000000 0.000000 0.000000 0.000000 -0.070917 0.000000
# 6 0.000000 0.000000 0.000000 0.000000 0.000000 0.068132
#
#
# Mechanical properties :
#
#
# Convention : Reuss Voigt Hill
#
# Bulk Modulus (GPa) = 29.36602 40.98681 35.17642
# Shear Modulus (GPa) = 28.75641 14.17127 21.46384
#
# Velocity S-wave (km/s) = 3.81868 2.68071 3.29913
# Velocity P-wave (km/s) = 5.85957 5.51053 5.68773
#
# Compressibility (1/GPa) = 0.03405297
#
# Stress axis : x y z
#
# Youngs Moduli (GPa) = 81.63940 85.84571 30.85977
#
# Poissons Ratio (x) = 0.27382 -0.00511
# Poissons Ratio (y) = 0.26040 0.24998
# Poissons Ratio (z) = -0.01352 0.69541
#
# Static dielectric constant tensor:
#      x y z
#    x 1.738480 0.000000 0.000000 
#    y 0.000000 1.721060 0.000000 
#    z 0.000000 0.000000 1.721820 
# 
# From -- ./inp_files/27675.got.cif
#   From: 2010.05.17/outbox.cif.g08.bks.cpg/sg67_14_cif.got.tgz:27675.got - 2010.06.03 18:28:57.
