data_PCOD9501322
_publ_section_title
;
Structure prediction by ZEFSAII (Michael W. Deem and Ramdas Pophale) SiO2 
 PCOD9501322
Probable space group: C M M A
;
_chemical_formula_sum "Si O2"
_cell_formula_units_Z 88
_cell_length_a 7.986136
_cell_length_b 24.481522
_cell_length_c 21.910435
_cell_angle_alpha 90.000000
_cell_angle_beta 90.000000
_cell_angle_gamma 90.000000
_cell_volume 4283.769711
_symmetry_space_group_name_H-M "C M M A"
_symmetry_group_IT_number 67
_symmetry_cell_setting 'orthorhombic'
loop_
_space_group_symop_operation_xyz
x,y,z
-x,1/2-y,z
x,-y,-z
-x,1/2+y,-z
-x,-y,-z
x,1/2+y,-z
-x,y,z
x,1/2-y,z
1/2+x,1/2+y,z
1/2-x,-y,z
1/2+x,1/2-y,-z
1/2-x,y,-z
1/2-x,1/2-y,-z
1/2+x,y,-z
1/2-x,1/2+y,z
1/2+x,-y,z
loop_
_atom_site_type_symbol
_atom_site_label
_atom_site_fract_x
_atom_site_fract_y
_atom_site_fract_z
Si Si1 0.701895 0.250000 0.754491
Si Si2 0.800060 0.062889 0.682465
Si Si3 0.701755 0.867232 0.567613
Si Si4 0.199452 0.250000 0.069713
Si Si5 0.201092 0.627718 0.930065
Si Si6 0.702289 0.750000 0.612346
Si Si7 0.201109 0.368892 0.199272
O O1 0.500000 0.250000 0.759917
O O2 0.748231 0.250000 0.683377
O O3 0.763028 0.193085 0.784766
O O4 0.735947 0.093918 0.621928
O O5 0.740532 0.093968 0.742862
O O6 0.000000 0.066423 0.681747
O O7 0.750000 0.000000 0.682649
O O8 0.500000 0.866174 0.570737
O O9 0.750000 0.885128 0.500000
O O10 0.763309 0.805513 0.580707
O O11 0.258991 0.310213 0.085807
O O12 0.000000 0.250000 0.081195
O O13 0.250000 0.250000 0.000000
O O14 0.256170 0.602378 0.865025
O O15 0.000000 0.626398 0.933088
O O16 0.250000 0.612772 0.000000
O O17 0.500000 0.750000 0.609771
O O18 0.000000 0.363693 0.194410
#
# Coordination Sequence:
#
# PCOD9501322 Si02
#       7
#     8  16  16   8  16   8  16
#     4  10  19  31  54  85 115 152 192 231 278 333
#     4  11  24  42  62  84 111 147 190 239 288 337
#     4  10  22  38  60  87 118 152 186 228 277 332
#     4   8  13  23  39  62  98 141 178 214 257 312
#     4   9  17  29  47  73 108 146 185 228 275 329
#     4  10  19  36  56  83 122 153 186 231 275 329
#     4  10  20  35  56  84 116 151 191 235 282 337
#
# _framework density 20.542656000000001
#
# number of rings (size 3 to 8) (size 9 to 14) (size 15 to 20)
#    0.000    2.182    1.818    1.364    0.000    5.455 
#    0.000    1.818    0.000    3.818    0.000    3.818 
#    0.000    0.000    0.000    0.000    0.000    0.000 
#
# Total GULP energy -245006.565481 kJ/mol
# GULP energy per Si atom -5568.331034 kJ/mol
# Density = 2.049590 g / cm^3
# Si number density = 20.542656 Si / 1000 Ang^3
#
#
#
# Elastic Constant Matrix: (Units=GPa)
#
#
# Indices 1 2 3 4 5 6 
#
# 1 18.8247 9.0081 14.2719 0.0000 0.0000 0.0000
# 2 9.0081 98.9060 68.3564 0.0000 0.0000 0.0000
# 3 14.2719 68.3564 227.7292 0.0000 0.0000 0.0000
# 4 0.0000 0.0000 0.0000 -1.1033 0.0000 0.0000
# 5 0.0000 0.0000 0.0000 0.0000 16.1199 0.0000
# 6 0.0000 0.0000 0.0000 0.0000 0.0000 -1.2230
#
#
#
# Elastic Compliance Matrix: (Units=1/GPa)
#
#
# Indices 1 2 3 4 5 6 
#
# 1 0.056671 -0.003415 -0.002526 0.000000 0.000000 0.000000
# 2 -0.003415 0.012963 -0.003677 0.000000 0.000000 0.000000
# 3 -0.002526 -0.003677 0.005653 0.000000 0.000000 0.000000
# 4 0.000000 0.000000 0.000000 -0.906386 0.000000 0.000000
# 5 0.000000 0.000000 0.000000 0.000000 0.062035 0.000000
# 6 0.000000 0.000000 0.000000 0.000000 0.000000 -0.817662
#
#
# Mechanical properties :
#
#
# Convention : Reuss Voigt Hill
#
# Bulk Modulus (GPa) = 17.84126 58.74808 38.29467
# Shear Modulus (GPa) = -3.22830 19.68029 8.22600
#
# Velocity S-wave (km/s) = -1.25496 3.09855 2.00326
# Velocity P-wave (km/s) = 2.56981 6.43906 4.90232
#
# Compressibility (1/GPa) = 0.05604986
#
# Stress axis : x y z
#
# Youngs Moduli (GPa) = 17.64560 77.14301 176.89056
#
# Poissons Ratio (x) = 0.26348 0.44690
# Poissons Ratio (y) = 0.06027 0.65042
# Poissons Ratio (z) = 0.04458 0.28365
#
# Static dielectric constant tensor:
#      x y z
#    x 1.749890 0.000000 0.000000 
#    y 0.000000 1.547590 0.000000 
#    z 0.000000 0.000000 1.773780 
# 
# From -- ./inp_files/36971.got.cif
#   From: 2010.05.17/outbox.cif.g08.bks.cpg/sg67_19_cif.got.tgz:36971.got - 2010.06.03 18:28:57.
