data_PCOD9501984
_publ_section_title
;
Structure prediction by ZEFSAII (Michael W. Deem and Ramdas Pophale) SiO2 
 PCOD9501984
Probable space group: C M M A
;
_chemical_formula_sum "Si O2"
_cell_formula_units_Z 96
_cell_length_a 16.193352
_cell_length_b 20.815507
_cell_length_c 14.711761
_cell_angle_alpha 90.000000
_cell_angle_beta 90.000000
_cell_angle_gamma 90.000000
_cell_volume 4958.934943
_symmetry_space_group_name_H-M "C M M A"
_symmetry_group_IT_number 67
_symmetry_cell_setting 'orthorhombic'
loop_
_space_group_symop_operation_xyz
x,y,z
-x,1/2-y,z
x,-y,-z
-x,1/2+y,-z
-x,-y,-z
x,1/2+y,-z
-x,y,z
x,1/2-y,z
1/2+x,1/2+y,z
1/2-x,-y,z
1/2+x,1/2-y,-z
1/2-x,y,-z
1/2-x,1/2-y,-z
1/2+x,y,-z
1/2-x,1/2+y,z
1/2+x,-y,z
loop_
_atom_site_type_symbol
_atom_site_label
_atom_site_fract_x
_atom_site_fract_y
_atom_site_fract_z
Si Si1 0.344362 0.481535 0.247703
Si Si2 0.899285 0.822284 0.928728
Si Si3 0.599719 0.436998 0.055417
Si Si4 0.904080 0.057902 0.565209
Si Si5 0.403070 0.625388 0.269710
Si Si6 0.158381 0.175748 0.457173
O O1 0.250000 0.500000 0.234444
O O2 0.374536 0.443925 0.159383
O O3 0.355649 0.442806 0.340652
O O4 0.393243 0.548661 0.260403
O O5 0.871147 0.750000 0.946525
O O6 0.877778 0.844437 0.826810
O O7 0.000000 0.822603 0.931233
O O8 0.870352 0.874014 0.002467
O O9 0.500000 0.436818 0.052431
O O10 0.627940 0.500000 0.000000
O O11 0.895138 0.124772 0.513376
O O12 0.000000 0.044677 0.585163
O O13 0.873690 0.000000 0.500000
O O14 0.500000 0.640365 0.286621
O O15 0.349743 0.652728 0.352840
O O16 0.131766 0.250000 0.463581
O O17 0.250000 0.171171 0.500000
#
# Coordination Sequence:
#
# PCOD9501984 Si02
#       6
#    16  16  16  16  16  16
#     4  12  24  37  59  89 122 158 199 252 310 368
#     4   9  18  33  58  91 120 149 193 248 300 349
#     4  10  19  36  60  86 118 153 195 246 299 358
#     4  11  23  39  62  90 120 157 206 257 300 357
#     4  11  20  37  64  91 118 154 207 261 302 348
#     4  11  24  40  60  90 129 166 198 244 310 372
#
# _framework density 19.358996000000001
#
# number of rings (size 3 to 8) (size 9 to 14) (size 15 to 20)
#    0.000    1.333    3.333    3.500    0.000    2.333 
#    0.000    0.833    0.000    5.000    0.000    0.000 
#    0.000    0.000    0.000    0.000    0.000    0.000 
#
# Total GULP energy -268245.074782 kJ/mol
# GULP energy per Si atom -5588.439058 kJ/mol
# Density = 1.931493 g / cm^3
# Si number density = 19.358996 Si / 1000 Ang^3
#
#
#
# Elastic Constant Matrix: (Units=GPa)
#
#
# Indices 1 2 3 4 5 6 
#
# 1 32.6301 14.7446 21.4171 0.0000 0.0000 0.0000
# 2 14.7446 143.6482 93.6347 0.0000 0.0000 0.0000
# 3 21.4171 93.6347 169.3054 0.0000 0.0000 0.0000
# 4 0.0000 0.0000 0.0000 22.4022 0.0000 0.0000
# 5 0.0000 0.0000 0.0000 0.0000 -31.8304 0.0000
# 6 0.0000 0.0000 0.0000 0.0000 0.0000 6.7899
#
#
#
# Elastic Compliance Matrix: (Units=1/GPa)
#
#
# Indices 1 2 3 4 5 6 
#
# 1 0.033524 -0.001058 -0.003656 0.000000 0.000000 0.000000
# 2 -0.001058 0.010919 -0.005905 0.000000 0.000000 0.000000
# 3 -0.003656 -0.005905 0.009635 0.000000 0.000000 0.000000
# 4 0.000000 0.000000 0.000000 0.044638 0.000000 0.000000
# 5 0.000000 0.000000 0.000000 0.000000 -0.031416 0.000000
# 6 0.000000 0.000000 0.000000 0.000000 0.000000 0.147278
#
#
# Mechanical properties :
#
#
# Convention : Reuss Voigt Hill
#
# Bulk Modulus (GPa) = 30.45031 67.24183 48.84607
# Shear Modulus (GPa) = 20.26243 13.85814 17.06028
#
# Velocity S-wave (km/s) = 3.23873 2.67844 2.97182
# Velocity P-wave (km/s) = 5.45429 6.66145 6.08787
#
# Compressibility (1/GPa) = 0.03284039
#
# Stress axis : x y z
#
# Youngs Moduli (GPa) = 29.82930 91.58223 103.79177
#
# Poissons Ratio (x) = 0.09692 0.37941
# Poissons Ratio (y) = 0.03157 0.61289
# Poissons Ratio (z) = 0.10904 0.54079
#
# Static dielectric constant tensor:
#      x y z
#    x 1.685420 0.000000 0.000000 
#    y 0.000000 1.672210 0.000000 
#    z 0.000000 0.000000 1.660770 
# 
# From -- ./inp_files/27172.got.cif
#   From: 2010.05.17/outbox.cif.g08.bks.cpg/sg67_14_cif.got.tgz:27172.got - 2010.06.03 18:28:57.
