data_PCOD9501532
_publ_section_title
;
Structure prediction by ZEFSAII (Michael W. Deem and Ramdas Pophale) SiO2 
 PCOD9501532
Probable space group: C M M A
;
_chemical_formula_sum "Si O2"
_cell_formula_units_Z 96
_cell_length_a 10.682926
_cell_length_b 18.042639
_cell_length_c 24.394933
_cell_angle_alpha 90.000000
_cell_angle_beta 90.000000
_cell_angle_gamma 90.000000
_cell_volume 4702.078871
_symmetry_space_group_name_H-M "C M M A"
_symmetry_group_IT_number 67
_symmetry_cell_setting 'orthorhombic'
loop_
_space_group_symop_operation_xyz
x,y,z
-x,1/2-y,z
x,-y,-z
-x,1/2+y,-z
-x,-y,-z
x,1/2+y,-z
-x,y,z
x,1/2-y,z
1/2+x,1/2+y,z
1/2-x,-y,z
1/2+x,1/2-y,-z
1/2-x,y,-z
1/2-x,1/2-y,-z
1/2+x,y,-z
1/2-x,1/2+y,z
1/2+x,-y,z
loop_
_atom_site_type_symbol
_atom_site_label
_atom_site_fract_x
_atom_site_fract_y
_atom_site_fract_z
Si Si1 0.135432 0.838560 0.037558
Si Si2 0.722885 0.339559 0.374991
Si Si3 0.500000 0.832604 0.129213
Si Si4 0.500000 0.839979 0.418259
Si Si5 0.000000 0.339896 0.543844
Si Si6 0.261749 0.088348 0.139491
Si Si7 0.259035 0.411782 0.265846
Si Si8 0.000000 0.668274 0.740085
O O1 0.147871 0.750000 0.046056
O O2 0.143269 0.878945 0.095660
O O3 0.000000 0.852682 0.011294
O O4 0.250000 0.863564 0.000000
O O5 0.721422 0.250000 0.368731
O O6 0.866505 0.361374 0.390785
O O7 0.625426 0.360347 0.422896
O O8 0.674424 0.376314 0.318323
O O9 0.500000 0.750000 0.103640
O O10 0.371251 0.876266 0.120926
O O11 0.500000 0.822967 0.194765
O O12 0.500000 0.750000 0.419019
O O13 0.500000 0.866359 0.481307
O O14 0.000000 0.250000 0.541751
O O15 0.296169 0.107083 0.202868
O O16 0.250000 0.000000 0.136605
O O17 0.250000 0.500000 0.269778
O O18 0.122077 0.377167 0.272522
O O19 0.000000 0.750000 0.714233
#
# Coordination Sequence:
#
# PCOD9501532 Si02
#       8
#    16  16   8   8   8  16  16   8
#     4  10  23  43  66  92 123 160 202 249 305 369
#     4  10  19  32  54  82 111 149 198 247 300 365
#     4   9  18  33  59  87 114 156 204 251 299 353
#     4   9  17  32  57  80 106 143 196 262 301 344
#     4   9  18  32  50  81 113 143 187 246 319 367
#     4  10  22  38  60  90 123 160 204 252 306 365
#     4  10  21  36  54  84 121 161 195 247 311 368
#     4   9  17  33  56  81 109 149 211 256 281 346
#
# _framework density 20.416502000000001
#
# number of rings (size 3 to 8) (size 9 to 14) (size 15 to 20)
#    0.000    2.333    0.000    2.000    2.333    5.667 
#    3.000    0.833    0.000    3.000    0.000    0.000 
#    0.000    0.000    0.000    0.000    0.000    0.000 
#
# Total GULP energy -267683.524153 kJ/mol
# GULP energy per Si atom -5576.740087 kJ/mol
# Density = 2.037003 g / cm^3
# Si number density = 20.416502 Si / 1000 Ang^3
#
#
#
# Elastic Constant Matrix: (Units=GPa)
#
#
# Indices 1 2 3 4 5 6 
#
# 1 106.0914 33.2109 52.0471 0.0000 0.0000 0.0000
# 2 33.2109 62.2760 25.7813 0.0000 0.0000 0.0000
# 3 52.0471 25.7813 153.1805 0.0000 0.0000 0.0000
# 4 0.0000 0.0000 0.0000 23.2157 0.0000 0.0000
# 5 0.0000 0.0000 0.0000 0.0000 4.0866 0.0000
# 6 0.0000 0.0000 0.0000 0.0000 0.0000 40.0970
#
#
#
# Elastic Compliance Matrix: (Units=1/GPa)
#
#
# Indices 1 2 3 4 5 6 
#
# 1 0.012806 -0.005405 -0.003442 0.000000 0.000000 0.000000
# 2 -0.005405 0.019541 -0.001453 0.000000 0.000000 0.000000
# 3 -0.003442 -0.001453 0.007942 0.000000 0.000000 0.000000
# 4 0.000000 0.000000 0.000000 0.043074 0.000000 0.000000
# 5 0.000000 0.000000 0.000000 0.000000 0.244702 0.000000
# 6 0.000000 0.000000 0.000000 0.000000 0.000000 0.024940
#
#
# Mechanical properties :
#
#
# Convention : Reuss Voigt Hill
#
# Bulk Modulus (GPa) = 50.78240 60.40295 55.59267
# Shear Modulus (GPa) = 13.15215 27.51377 20.33296
#
# Velocity S-wave (km/s) = 2.54085 3.67498 3.15922
# Velocity P-wave (km/s) = 5.79095 6.90340 6.37150
#
# Compressibility (1/GPa) = 0.01969186
#
# Stress axis : x y z
#
# Youngs Moduli (GPa) = 78.08799 51.17437 125.91148
#
# Poissons Ratio (x) = 0.27657 0.43333
# Poissons Ratio (y) = 0.42203 0.18289
# Poissons Ratio (z) = 0.26875 0.07433
#
# Static dielectric constant tensor:
#      x y z
#    x 1.764500 0.000000 0.000000 
#    y 0.000000 1.675050 0.000000 
#    z 0.000000 0.000000 1.759540 
# 
# From -- ./inp_files/41533.got.cif
#   From: 2010.05.17/outbox.cif.g08.bks.cpg/sg67_21_cif.got.tgz:41533.got - 2010.06.03 18:28:57.
