data_PCOD9501451
_publ_section_title
;
Structure prediction by ZEFSAII (Michael W. Deem and Ramdas Pophale) SiO2 
 PCOD9501451
Probable space group: C M M A
;
_chemical_formula_sum "Si O2"
_cell_formula_units_Z 112
_cell_length_a 19.558592
_cell_length_b 16.867411
_cell_length_c 18.225053
_cell_angle_alpha 90.000000
_cell_angle_beta 90.000000
_cell_angle_gamma 90.000000
_cell_volume 6012.496194
_symmetry_space_group_name_H-M "C M M A"
_symmetry_group_IT_number 67
_symmetry_cell_setting 'orthorhombic'
loop_
_space_group_symop_operation_xyz
x,y,z
-x,1/2-y,z
x,-y,-z
-x,1/2+y,-z
-x,-y,-z
x,1/2+y,-z
-x,y,z
x,1/2-y,z
1/2+x,1/2+y,z
1/2-x,-y,z
1/2+x,1/2-y,-z
1/2-x,y,-z
1/2-x,1/2-y,-z
1/2+x,y,-z
1/2-x,1/2+y,z
1/2+x,-y,z
loop_
_atom_site_type_symbol
_atom_site_label
_atom_site_fract_x
_atom_site_fract_y
_atom_site_fract_z
Si Si1 0.164330 0.654486 0.735376
Si Si2 0.421704 0.153175 0.592959
Si Si3 0.579142 0.103320 0.170184
Si Si4 0.677595 0.153278 0.464813
Si Si5 0.417436 0.339054 0.014102
Si Si6 0.920783 0.082154 0.133592
Si Si7 0.180722 0.653773 0.296389
O O1 0.163772 0.750000 0.735046
O O2 0.121433 0.627843 0.664003
O O3 0.127234 0.624468 0.807907
O O4 0.242987 0.629235 0.727850
O O5 0.500000 0.126658 0.596584
O O6 0.421887 0.250000 0.593248
O O7 0.382824 0.128134 0.519135
O O8 0.500000 0.127929 0.182832
O O9 0.607323 0.145039 0.096425
O O10 0.624877 0.121450 0.240315
O O11 0.579388 0.010611 0.150680
O O12 0.678426 0.250000 0.464149
O O13 0.750000 0.128554 0.500000
O O14 0.670026 0.127996 0.380692
O O15 0.500000 0.344906 0.020043
O O16 0.399663 0.250000 0.990820
O O17 0.397894 0.398830 0.949461
O O18 0.000000 0.110479 0.141006
O O19 0.177806 0.750000 0.294787
#
# Coordination Sequence:
#
# PCOD9501451 Si02
#       7
#    16  16  16  16  16  16  16
#     4  10  19  32  51  78 108 137 175 225 276 326
#     4   9  16  26  45  75 106 134 169 219 274 321
#     4  10  21  36  53  77 110 146 184 224 267 323
#     4   9  15  28  48  72 104 138 173 219 273 327
#     4   9  17  32  56  82 107 138 178 225 274 322
#     4  10  20  34  54  79 108 143 179 219 271 326
#     4  10  20  33  53  78 107 144 182 222 274 326
#
# _framework density 18.627870000000001
#
# number of rings (size 3 to 8) (size 9 to 14) (size 15 to 20)
#    0.000    2.429    1.429    1.714    0.000    5.143 
#    0.000    2.143    0.000    5.143    0.000    3.000 
#    0.000    0.000    0.000    0.000    0.000    0.000 
#
# Total GULP energy -312375.926877 kJ/mol
# GULP energy per Si atom -5578.141551 kJ/mol
# Density = 1.858547 g / cm^3
# Si number density = 18.627870 Si / 1000 Ang^3
#
#
#
# Elastic Constant Matrix: (Units=GPa)
#
#
# Indices 1 2 3 4 5 6 
#
# 1 108.7609 16.7188 73.9063 0.0000 0.0000 0.0000
# 2 16.7188 11.6700 22.2925 0.0000 0.0000 0.0000
# 3 73.9063 22.2925 166.3602 0.0000 0.0000 0.0000
# 4 0.0000 0.0000 0.0000 -11.0660 0.0000 0.0000
# 5 0.0000 0.0000 0.0000 0.0000 30.7061 0.0000
# 6 0.0000 0.0000 0.0000 0.0000 0.0000 12.6393
#
#
#
# Elastic Compliance Matrix: (Units=1/GPa)
#
#
# Indices 1 2 3 4 5 6 
#
# 1 0.014169 -0.011121 -0.004804 0.000000 0.000000 0.000000
# 2 -0.011121 0.123900 -0.011662 0.000000 0.000000 0.000000
# 3 -0.004804 -0.011662 0.009708 0.000000 0.000000 0.000000
# 4 0.000000 0.000000 0.000000 -0.090367 0.000000 0.000000
# 5 0.000000 0.000000 0.000000 0.000000 0.032567 0.000000
# 6 0.000000 0.000000 0.000000 0.000000 0.000000 0.079118
#
#
# Mechanical properties :
#
#
# Convention : Reuss Voigt Hill
#
# Bulk Modulus (GPa) = 10.79897 56.95849 33.87873
# Shear Modulus (GPa) = 19.59731 18.04744 18.82237
#
# Velocity S-wave (km/s) = 3.24704 3.11600 3.18219
# Velocity P-wave (km/s) = 4.45730 6.60222 5.63280
#
# Compressibility (1/GPa) = 0.09260139
#
# Stress axis : x y z
#
# Youngs Moduli (GPa) = 70.57836 8.07105 103.00662
#
# Poissons Ratio (x) = 0.08976 0.49487
# Poissons Ratio (y) = 0.78491 1.20128
# Poissons Ratio (z) = 0.33908 0.09413
#
# Static dielectric constant tensor:
#      x y z
#    x 1.625490 0.000000 0.000000 
#    y 0.000000 1.656030 0.000000 
#    z 0.000000 0.000000 1.632280 
# 
# From -- ./inp_files/34421.got.cif
#   From: 2010.05.17/outbox.cif.g08.bks.cpg/sg67_18_cif.got.tgz:34421.got - 2010.06.03 18:28:57.
