data_PCOD9501372
_publ_section_title
;
Structure prediction by ZEFSAII (Michael W. Deem and Ramdas Pophale) SiO2 
 PCOD9501372
Probable space group: C M M A
;
_chemical_formula_sum "Si O2"
_cell_formula_units_Z 80
_cell_length_a 19.433645
_cell_length_b 8.637801
_cell_length_c 26.250701
_cell_angle_alpha 90.000000
_cell_angle_beta 90.000000
_cell_angle_gamma 90.000000
_cell_volume 4406.546576
_symmetry_space_group_name_H-M "C M M A"
_symmetry_group_IT_number 67
_symmetry_cell_setting 'orthorhombic'
loop_
_space_group_symop_operation_xyz
x,y,z
-x,1/2-y,z
x,-y,-z
-x,1/2+y,-z
-x,-y,-z
x,1/2+y,-z
-x,y,z
x,1/2-y,z
1/2+x,1/2+y,z
1/2-x,-y,z
1/2+x,1/2-y,-z
1/2-x,y,-z
1/2-x,1/2-y,-z
1/2+x,y,-z
1/2-x,1/2+y,z
1/2+x,-y,z
loop_
_atom_site_type_symbol
_atom_site_label
_atom_site_fract_x
_atom_site_fract_y
_atom_site_fract_z
Si Si1 0.421384 0.938366 0.147582
Si Si2 0.419176 0.936823 0.263097
Si Si3 0.672779 0.063484 0.946105
Si Si4 0.420570 0.935596 0.443530
Si Si5 0.327029 0.934094 0.646330
O O1 0.500000 0.988232 0.138688
O O2 0.421357 0.750000 0.147525
O O3 0.401454 0.984142 0.205051
O O4 0.372041 0.988433 0.102172
O O5 0.500000 0.974272 0.271801
O O6 0.413279 0.750000 0.266804
O O7 0.370023 0.012490 0.304334
O O8 0.674239 0.250000 0.947953
O O9 0.750000 0.000000 0.940747
O O10 0.645354 0.000000 0.000000
O O11 0.500000 0.976877 0.430262
O O12 0.415657 0.750000 0.443969
O O13 0.407020 0.000000 0.500000
O O14 0.368269 0.003017 0.402583
O O15 0.324084 0.750000 0.644257
O O16 0.250000 0.000000 0.647813
#
# Coordination Sequence:
#
# PCOD9501372 Si02
#       5
#    16  16  16  16  16
#     4   8  16  32  54  78 103 134 172 214 262 315
#     4   9  18  36  60  82 107 141 179 219 268 326
#     4  10  19  32  50  72 101 136 174 214 259 313
#     4  10  21  39  63  89 116 147 184 224 268 320
#     4  12  25  39  56  81 114 148 185 227 272 321
#
# _framework density 18.154807000000002
#
# number of rings (size 3 to 8) (size 9 to 14) (size 15 to 20)
#    0.000    2.200    0.000    5.400    0.000    5.600 
#    0.000    6.000    0.000    4.200    0.000    0.000 
#    0.000    0.000    0.000    0.000    0.000    0.000 
#
# Total GULP energy -223319.100372 kJ/mol
# GULP energy per Si atom -5582.977509 kJ/mol
# Density = 1.811349 g / cm^3
# Si number density = 18.154807 Si / 1000 Ang^3
#
#
#
# Elastic Constant Matrix: (Units=GPa)
#
#
# Indices 1 2 3 4 5 6 
#
# 1 126.3185 55.3865 127.7521 0.0000 0.0000 0.0000
# 2 55.3865 71.2508 61.4910 0.0000 0.0000 0.0000
# 3 127.7521 61.4910 181.4758 0.0000 0.0000 0.0000
# 4 0.0000 0.0000 0.0000 25.3104 0.0000 0.0000
# 5 0.0000 0.0000 0.0000 0.0000 323.3840 0.0000
# 6 0.0000 0.0000 0.0000 0.0000 0.0000 22.8342
#
#
#
# Elastic Compliance Matrix: (Units=1/GPa)
#
#
# Indices 1 2 3 4 5 6 
#
# 1 0.029867 -0.007168 -0.018596 0.000000 0.000000 0.000000
# 2 -0.007168 0.021555 -0.002258 0.000000 0.000000 0.000000
# 3 -0.018596 -0.002258 0.019367 0.000000 0.000000 0.000000
# 4 0.000000 0.000000 0.000000 0.039509 0.000000 0.000000
# 5 0.000000 0.000000 0.000000 0.000000 0.003092 0.000000
# 6 0.000000 0.000000 0.000000 0.000000 0.000000 0.043794
#
#
# Mechanical properties :
#
#
# Convention : Reuss Voigt Hill
#
# Bulk Modulus (GPa) = 67.82135 96.47826 82.14981
# Shear Modulus (GPa) = 22.92074 83.26675 53.09375
#
# Velocity S-wave (km/s) = 3.55705 6.77971 5.41373
# Velocity P-wave (km/s) = 7.36943 10.70249 9.18835
#
# Compressibility (1/GPa) = 0.01474462
#
# Stress axis : x y z
#
# Youngs Moduli (GPa) = 33.48226 46.39195 51.63548
#
# Poissons Ratio (x) = 0.33252 0.96023
# Poissons Ratio (y) = 0.23999 0.11660
# Poissons Ratio (z) = 0.62264 0.10475
#
# Static dielectric constant tensor:
#      x y z
#    x 1.598430 0.000000 0.000000 
#    y 0.000000 1.614020 0.000000 
#    z 0.000000 0.000000 1.616570 
# 
# From -- ./inp_files/43299.got.cif
#   From: 2010.05.17/outbox.cif.g08.bks.cpg/sg67_22_cif.got.tgz:43299.got - 2010.06.03 18:28:57.
