data_PCOD9501132
_publ_section_title
;
Structure prediction by ZEFSAII (Michael W. Deem and Ramdas Pophale) SiO2 
 PCOD9501132
Probable space group: C M M A
;
_chemical_formula_sum "Si O2"
_cell_formula_units_Z 100
_cell_length_a 8.630502
_cell_length_b 27.290603
_cell_length_c 21.478024
_cell_angle_alpha 90.000000
_cell_angle_beta 90.000000
_cell_angle_gamma 90.000000
_cell_volume 5058.753439
_symmetry_space_group_name_H-M "C M M A"
_symmetry_group_IT_number 67
_symmetry_cell_setting 'orthorhombic'
loop_
_space_group_symop_operation_xyz
x,y,z
-x,1/2-y,z
x,-y,-z
-x,1/2+y,-z
-x,-y,-z
x,1/2+y,-z
-x,y,z
x,1/2-y,z
1/2+x,1/2+y,z
1/2-x,-y,z
1/2+x,1/2-y,-z
1/2-x,y,-z
1/2-x,1/2-y,-z
1/2+x,y,-z
1/2-x,1/2+y,z
1/2+x,-y,z
loop_
_atom_site_type_symbol
_atom_site_label
_atom_site_fract_x
_atom_site_fract_y
_atom_site_fract_z
Si Si1 0.685754 0.588316 0.402725
Si Si2 0.250000 0.500000 0.500000
Si Si3 0.186849 0.696366 0.596424
Si Si4 0.678185 0.375146 0.826057
Si Si5 0.175028 0.694534 0.266450
Si Si6 0.314100 0.194195 0.069620
Si Si7 0.183797 0.054382 0.728495
O O1 0.500000 0.585813 0.398051
O O2 0.734836 0.543217 0.446181
O O3 0.728080 0.642406 0.429255
O O4 0.754057 0.582337 0.333172
O O5 0.225383 0.750000 0.567783
O O6 0.273696 0.696311 0.662436
O O7 0.000000 0.696060 0.604493
O O8 0.500000 0.386695 0.837920
O O9 0.699828 0.334699 0.772207
O O10 0.752817 0.348466 0.885427
O O11 0.762190 0.420766 0.793050
O O12 0.168811 0.750000 0.243070
O O13 0.000000 0.673653 0.259603
O O14 0.500000 0.192810 0.069443
O O15 0.267181 0.250000 0.089166
O O16 0.250000 0.187395 0.000000
O O17 0.000000 0.053271 0.725306
O O18 0.250000 0.000000 0.724829
#
# Coordination Sequence:
#
# PCOD9501132 Si02
#       7
#    16   4  16  16  16  16  16
#     4  11  23  41  63  91 125 163 210 262 323 390
#     4  12  26  40  66  94 130 164 216 270 322 396
#     4   9  18  34  57  83 115 156 201 251 309 377
#     4  12  23  36  57  87 123 166 213 259 314 376
#     4  10  19  30  48  80 119 155 195 244 299 360
#     4  10  21  38  60  90 131 177 224 271 320 377
#     4  12  25  42  65  91 124 160 202 263 328 385
#
# _framework density 19.767714999999999
#
# number of rings (size 3 to 8) (size 9 to 14) (size 15 to 20)
#    0.000    1.280    2.400    4.560    0.000    4.480 
#    0.000    0.400    0.000    0.480    0.000    3.360 
#    0.000    0.000    0.000    0.000    0.000    0.000 
#
# Total GULP energy -278493.223349 kJ/mol
# GULP energy per Si atom -5569.864467 kJ/mol
# Density = 1.972272 g / cm^3
# Si number density = 19.767715 Si / 1000 Ang^3
#
#
#
# Elastic Constant Matrix: (Units=GPa)
#
#
# Indices 1 2 3 4 5 6 
#
# 1 78.3053 42.6380 46.1480 0.0000 0.0000 0.0000
# 2 42.6380 185.0539 51.4740 0.0000 0.0000 0.0000
# 3 46.1480 51.4740 113.9100 0.0000 0.0000 0.0000
# 4 0.0000 0.0000 0.0000 -161.0978 0.0000 0.0000
# 5 0.0000 0.0000 0.0000 0.0000 161.5756 0.0000
# 6 0.0000 0.0000 0.0000 0.0000 0.0000 16.9552
#
#
#
# Elastic Compliance Matrix: (Units=1/GPa)
#
#
# Indices 1 2 3 4 5 6 
#
# 1 0.017644 -0.002376 -0.006075 0.000000 0.000000 0.000000
# 2 -0.002376 0.006501 -0.001975 0.000000 0.000000 0.000000
# 3 -0.006075 -0.001975 0.012132 0.000000 0.000000 0.000000
# 4 0.000000 0.000000 0.000000 -0.006207 0.000000 0.000000
# 5 0.000000 0.000000 0.000000 0.000000 0.006189 0.000000
# 6 0.000000 0.000000 0.000000 0.000000 0.000000 0.058979
#
#
# Mechanical properties :
#
#
# Convention : Reuss Voigt Hill
#
# Bulk Modulus (GPa) = 64.82396 73.08770 68.95583
# Shear Modulus (GPa) = 41.24378 19.28720 30.26549
#
# Velocity S-wave (km/s) = 4.57269 3.12700 3.91712
# Velocity P-wave (km/s) = 7.79380 7.07750 7.44427
#
# Compressibility (1/GPa) = 0.01542639
#
# Stress axis : x y z
#
# Youngs Moduli (GPa) = 56.67634 153.83247 82.42442
#
# Poissons Ratio (x) = 0.36545 0.50069
# Poissons Ratio (y) = 0.13464 0.16279
# Poissons Ratio (z) = 0.34428 0.30383
#
# Static dielectric constant tensor:
#      x y z
#    x 1.681940 0.000000 0.000000 
#    y 0.000000 1.719820 0.000000 
#    z 0.000000 0.000000 1.681730 
# 
# From -- ./inp_files/37344.got.cif
#   From: 2010.05.17/outbox.cif.g08.bks.cpg/sg67_19_cif.got.tgz:37344.got - 2010.06.03 18:28:57.
