data_PCOD9501379
_publ_section_title
;
Structure prediction by ZEFSAII (Michael W. Deem and Ramdas Pophale) SiO2 
 PCOD9501379
Probable space group: C M M A
;
_chemical_formula_sum "Si O2"
_cell_formula_units_Z 96
_cell_length_a 8.562593
_cell_length_b 28.296820
_cell_length_c 24.501763
_cell_angle_alpha 90.000000
_cell_angle_beta 90.000000
_cell_angle_gamma 90.000000
_cell_volume 5936.633910
_symmetry_space_group_name_H-M "C M M A"
_symmetry_group_IT_number 67
_symmetry_cell_setting 'orthorhombic'
loop_
_space_group_symop_operation_xyz
x,y,z
-x,1/2-y,z
x,-y,-z
-x,1/2+y,-z
-x,-y,-z
x,1/2+y,-z
-x,y,z
x,1/2-y,z
1/2+x,1/2+y,z
1/2-x,-y,z
1/2+x,1/2-y,-z
1/2-x,y,-z
1/2-x,1/2-y,-z
1/2+x,y,-z
1/2-x,1/2+y,z
1/2+x,-y,z
loop_
_atom_site_type_symbol
_atom_site_label
_atom_site_fract_x
_atom_site_fract_y
_atom_site_fract_z
Si Si1 0.689128 0.140649 0.666813
Si Si2 0.313889 0.447997 0.271616
Si Si3 0.311534 0.195395 0.559401
Si Si4 0.312158 0.103717 0.835398
Si Si5 0.813898 0.447056 0.940793
Si Si6 0.810288 0.696944 0.775200
O O1 0.500000 0.136514 0.667265
O O2 0.760163 0.090529 0.683813
O O3 0.739181 0.161889 0.608906
O O4 0.731868 0.177182 0.715327
O O5 0.500000 0.448885 0.267798
O O6 0.250000 0.500000 0.283596
O O7 0.244318 0.429854 0.213937
O O8 0.500000 0.194964 0.558518
O O9 0.262444 0.250000 0.569208
O O10 0.250000 0.181170 0.500000
O O11 0.500000 0.101978 0.837430
O O12 0.243298 0.086140 0.892134
O O13 0.262380 0.156748 0.818207
O O14 0.750000 0.500000 0.930588
O O15 0.000000 0.448884 0.942450
O O16 0.750000 0.432125 0.000000
O O17 0.752448 0.750000 0.784531
O O18 0.000000 0.698365 0.776532
#
# Coordination Sequence:
#
# PCOD9501379 Si02
#       6
#    16  16  16  16  16  16
#     4   9  17  30  48  70  96 126 160 196 236 281
#     4  11  21  33  49  70  96 125 158 195 238 284
#     4   9  17  29  47  71  99 130 162 196 235 281
#     4  10  19  32  50  73 100 128 159 194 234 279
#     4  11  21  34  51  72  98 126 159 196 238 284
#     4   8  14  26  47  72  95 122 157 194 231 274
#
# _framework density 16.170781000000002
#
# number of rings (size 3 to 8) (size 9 to 14) (size 15 to 20)
#    0.000    2.333    0.000    6.000    0.000    2.667 
#    0.000    0.000    0.000   17.500    0.000    3.500 
#    0.000    0.000    0.000    0.000    0.000    0.000 
#
# Total GULP energy -267763.496965 kJ/mol
# GULP energy per Si atom -5578.406187 kJ/mol
# Density = 1.613398 g / cm^3
# Si number density = 16.170781 Si / 1000 Ang^3
#
#
#
# Elastic Constant Matrix: (Units=GPa)
#
#
# Indices 1 2 3 4 5 6 
#
# 1 74.8934 39.3919 43.6941 0.0000 0.0000 0.0000
# 2 39.3919 138.4868 95.3862 0.0000 0.0000 0.0000
# 3 43.6941 95.3862 151.2366 0.0000 0.0000 0.0000
# 4 0.0000 0.0000 0.0000 23.6941 0.0000 0.0000
# 5 0.0000 0.0000 0.0000 0.0000 25.8301 0.0000
# 6 0.0000 0.0000 0.0000 0.0000 0.0000 17.8252
#
#
#
# Elastic Compliance Matrix: (Units=1/GPa)
#
#
# Indices 1 2 3 4 5 6 
#
# 1 0.016534 -0.002498 -0.003201 0.000000 0.000000 0.000000
# 2 -0.002498 0.013145 -0.007569 0.000000 0.000000 0.000000
# 3 -0.003201 -0.007569 0.012311 0.000000 0.000000 0.000000
# 4 0.000000 0.000000 0.000000 0.042205 0.000000 0.000000
# 5 0.000000 0.000000 0.000000 0.000000 0.038714 0.000000
# 6 0.000000 0.000000 0.000000 0.000000 0.000000 0.056100
#
#
# Mechanical properties :
#
#
# Convention : Reuss Voigt Hill
#
# Bulk Modulus (GPa) = 64.71182 80.17346 72.44264
# Shear Modulus (GPa) = 23.73093 25.87955 24.80524
#
# Velocity S-wave (km/s) = 3.83498 4.00483 3.92082
# Velocity P-wave (km/s) = 7.72748 8.43040 8.08659
#
# Compressibility (1/GPa) = 0.01545313
#
# Stress axis : x y z
#
# Youngs Moduli (GPa) = 60.48184 76.07715 81.23019
#
# Poissons Ratio (x) = 0.19004 0.26005
# Poissons Ratio (y) = 0.15108 0.61481
# Poissons Ratio (z) = 0.19362 0.57580
#
# Static dielectric constant tensor:
#      x y z
#    x 1.550400 0.000000 0.000000 
#    y 0.000000 1.537520 0.000000 
#    z 0.000000 0.000000 1.524000 
# 
# From -- ./inp_files/40794.got.cif
#   From: 2010.05.17/outbox.cif.g08.bks.cpg/sg67_21_cif.got.tgz:40794.got - 2010.06.03 18:28:57.
