data_PCOD9501294
_publ_section_title
;
Structure prediction by ZEFSAII (Michael W. Deem and Ramdas Pophale) SiO2 
 PCOD9501294
Probable space group: C M M A
;
_chemical_formula_sum "Si O2"
_cell_formula_units_Z 112
_cell_length_a 15.587435
_cell_length_b 26.274407
_cell_length_c 13.215698
_cell_angle_alpha 90.000000
_cell_angle_beta 90.000000
_cell_angle_gamma 90.000000
_cell_volume 5412.497194
_symmetry_space_group_name_H-M "C M M A"
_symmetry_group_IT_number 67
_symmetry_cell_setting 'orthorhombic'
loop_
_space_group_symop_operation_xyz
x,y,z
-x,1/2-y,z
x,-y,-z
-x,1/2+y,-z
-x,-y,-z
x,1/2+y,-z
-x,y,z
x,1/2-y,z
1/2+x,1/2+y,z
1/2-x,-y,z
1/2+x,1/2-y,-z
1/2-x,y,-z
1/2-x,1/2-y,-z
1/2+x,y,-z
1/2-x,1/2+y,z
1/2+x,-y,z
loop_
_atom_site_type_symbol
_atom_site_label
_atom_site_fract_x
_atom_site_fract_y
_atom_site_fract_z
Si Si1 0.593312 0.311053 0.024596
Si Si2 0.903613 0.092255 0.649422
Si Si3 0.601663 0.082817 0.584292
Si Si4 0.730391 0.054017 0.749850
Si Si5 0.401162 0.305610 0.640474
Si Si6 0.862480 0.308899 0.750374
Si Si7 0.820688 0.840132 0.828771
O O1 0.500000 0.327365 0.986358
O O2 0.597479 0.250000 0.028121
O O3 0.600617 0.327293 0.141209
O O4 0.663891 0.328256 0.945047
O O5 0.894278 0.073040 0.534712
O O6 0.823259 0.072243 0.711760
O O7 0.893890 0.153529 0.662785
O O8 0.000000 0.078412 0.683644
O O9 0.500000 0.079689 0.614188
O O10 0.664026 0.049703 0.654896
O O11 0.634666 0.141474 0.596993
O O12 0.689984 0.099509 0.814889
O O13 0.750000 0.000000 0.799589
O O14 0.500000 0.304287 0.608016
O O15 0.362997 0.250000 0.616272
O O16 0.395976 0.315988 0.760918
O O17 0.884279 0.250000 0.732199
O O18 0.761616 0.314671 0.774657
#
# Coordination Sequence:
#
# PCOD9501294 Si02
#       7
#    16  16  16  16  16  16  16
#     4  10  19  31  51  80 110 140 175 214 260 318
#     4  10  21  36  53  76 108 143 179 220 265 314
#     4   9  19  34  53  79 107 138 178 220 264 318
#     4  10  22  39  57  78 103 134 175 227 281 330
#     4   9  16  27  45  72 106 138 168 208 261 321
#     4  10  20  33  51  77 110 147 184 217 254 311
#     4  10  19  32  51  74 102 135 173 221 274 320
#
# _framework density 20.692851000000001
#
# number of rings (size 3 to 8) (size 9 to 14) (size 15 to 20)
#    0.000    2.286    0.000    3.000    0.000    6.000 
#    0.000    2.857    0.000   12.000    0.000    5.000 
#    0.000    0.000    0.000    0.000    0.000    0.000 
#
# Total GULP energy -312128.271256 kJ/mol
# GULP energy per Si atom -5573.719130 kJ/mol
# Density = 2.064575 g / cm^3
# Si number density = 20.692851 Si / 1000 Ang^3
#
#
#
# Elastic Constant Matrix: (Units=GPa)
#
#
# Indices 1 2 3 4 5 6 
#
# 1 75.0339 -6.9129 8.0675 0.0000 0.0000 0.0000
# 2 -6.9129 57.9374 -14.5119 0.0000 0.0000 0.0000
# 3 8.0675 -14.5119 31.1004 0.0000 0.0000 0.0000
# 4 0.0000 0.0000 0.0000 13.4603 0.0000 0.0000
# 5 0.0000 0.0000 0.0000 0.0000 25.1994 0.0000
# 6 0.0000 0.0000 0.0000 0.0000 0.0000 13.8186
#
#
#
# Elastic Compliance Matrix: (Units=1/GPa)
#
#
# Indices 1 2 3 4 5 6 
#
# 1 0.013746 0.000846 -0.003171 0.000000 0.000000 0.000000
# 2 0.000846 0.019596 0.008924 0.000000 0.000000 0.000000
# 3 -0.003171 0.008924 0.037141 0.000000 0.000000 0.000000
# 4 0.000000 0.000000 0.000000 0.074292 0.000000 0.000000
# 5 0.000000 0.000000 0.000000 0.000000 0.039683 0.000000
# 6 0.000000 0.000000 0.000000 0.000000 0.000000 0.072366
#
#
# Mechanical properties :
#
#
# Convention : Reuss Voigt Hill
#
# Bulk Modulus (GPa) = 11.95003 15.26191 13.60597
# Shear Modulus (GPa) = 18.41480 22.32426 20.36953
#
# Velocity S-wave (km/s) = 2.98637 3.28813 3.14088
# Velocity P-wave (km/s) = 4.20461 4.66982 4.44331
#
# Compressibility (1/GPa) = 0.08368179
#
# Stress axis : x y z
#
# Youngs Moduli (GPa) = 72.74739 51.03003 26.92457
#
# Poissons Ratio (x) = -0.04316 0.08538
# Poissons Ratio (y) = -0.06153 -0.24029
# Poissons Ratio (z) = 0.23069 -0.45542
#
# Static dielectric constant tensor:
#      x y z
#    x 1.823430 0.000000 0.000000 
#    y 0.000000 1.780580 0.000000 
#    z 0.000000 0.000000 1.741690 
# 
# From -- ./inp_files/27713.got.cif
#   From: 2010.05.17/outbox.cif.g08.bks.cpg/sg67_14_cif.got.tgz:27713.got - 2010.06.03 18:28:57.
