data_PCOD9501109
_publ_section_title
;
Structure prediction by ZEFSAII (Michael W. Deem and Ramdas Pophale) SiO2 
 PCOD9501109
Probable space group: C M M A
;
_chemical_formula_sum "Si O2"
_cell_formula_units_Z 96
_cell_length_a 11.074455
_cell_length_b 15.251511
_cell_length_c 29.150254
_cell_angle_alpha 90.000000
_cell_angle_beta 90.000000
_cell_angle_gamma 90.000000
_cell_volume 4923.541222
_symmetry_space_group_name_H-M "C M M A"
_symmetry_group_IT_number 67
_symmetry_cell_setting 'orthorhombic'
loop_
_space_group_symop_operation_xyz
x,y,z
-x,1/2-y,z
x,-y,-z
-x,1/2+y,-z
-x,-y,-z
x,1/2+y,-z
-x,y,z
x,1/2-y,z
1/2+x,1/2+y,z
1/2-x,-y,z
1/2+x,1/2-y,-z
1/2-x,y,-z
1/2-x,1/2-y,-z
1/2+x,y,-z
1/2-x,1/2+y,z
1/2+x,-y,z
loop_
_atom_site_type_symbol
_atom_site_label
_atom_site_fract_x
_atom_site_fract_y
_atom_site_fract_z
Si Si1 0.366922 0.059999 0.125203
Si Si2 0.129070 0.101067 0.980773
Si Si3 0.865122 0.062758 0.372875
Si Si4 0.867788 0.855302 0.726530
Si Si5 0.132806 0.644537 0.527277
Si Si6 0.368458 0.854352 0.778347
O O1 0.500000 0.015280 0.128523
O O2 0.363339 0.099432 0.074202
O O3 0.361286 0.126548 0.167536
O O4 0.250000 0.000000 0.129427
O O5 0.000000 0.139662 0.994560
O O6 0.250000 0.142683 0.000000
O O7 0.127608 0.000000 0.000000
O O8 0.858749 0.120406 0.326892
O O9 0.858266 0.118102 0.419604
O O10 0.000000 0.020152 0.372636
O O11 0.750000 0.000000 0.372306
O O12 0.867752 0.750000 0.731046
O O13 0.750393 0.890151 0.753171
O O14 0.000000 0.886777 0.743435
O O15 0.133519 0.750000 0.523903
O O16 0.250000 0.610989 0.500000
O O17 0.000000 0.614274 0.510064
O O18 0.500000 0.888546 0.761994
O O19 0.369423 0.750000 0.771120
#
# Coordination Sequence:
#
# PCOD9501109 Si02
#       6
#    16  16  16  16  16  16
#     4  10  19  30  47  72  97 124 158 197 241 286
#     4   9  15  25  42  65  90 118 153 193 232 274
#     4  10  21  35  52  76 106 137 167 206 257 305
#     4   9  18  35  57  75  93 126 171 210 245 292
#     4   9  18  34  55  77 102 135 176 217 253 295
#     4   9  19  35  52  71  98 130 162 199 246 298
#
# _framework density 19.498161
#
# number of rings (size 3 to 8) (size 9 to 14) (size 15 to 20)
#    0.000    2.667    1.667    0.500    0.000    5.000 
#    0.000    5.000    0.000    5.500    0.000    0.000 
#    0.000    0.000    0.000    0.000    0.000    0.000 
#
# Total GULP energy -267333.175914 kJ/mol
# GULP energy per Si atom -5569.441165 kJ/mol
# Density = 1.945378 g / cm^3
# Si number density = 19.498161 Si / 1000 Ang^3
#
#
#
# Elastic Constant Matrix: (Units=GPa)
#
#
# Indices 1 2 3 4 5 6 
#
# 1 239.5453 27.5257 73.9696 0.0000 0.0000 0.0000
# 2 27.5257 23.8345 -2.2614 0.0000 0.0000 0.0000
# 3 73.9696 -2.2614 95.2160 0.0000 0.0000 0.0000
# 4 0.0000 0.0000 0.0000 19.3193 0.0000 0.0000
# 5 0.0000 0.0000 0.0000 0.0000 37.9556 0.0000
# 6 0.0000 0.0000 0.0000 0.0000 0.0000 10.6396
#
#
#
# Elastic Compliance Matrix: (Units=1/GPa)
#
#
# Indices 1 2 3 4 5 6 
#
# 1 0.006848 -0.008432 -0.005520 0.000000 0.000000 0.000000
# 2 -0.008432 0.052434 0.007796 0.000000 0.000000 0.000000
# 3 -0.005520 0.007796 0.014976 0.000000 0.000000 0.000000
# 4 0.000000 0.000000 0.000000 0.051762 0.000000 0.000000
# 5 0.000000 0.000000 0.000000 0.000000 0.026347 0.000000
# 6 0.000000 0.000000 0.000000 0.000000 0.000000 0.093988
#
#
# Mechanical properties :
#
#
# Convention : Reuss Voigt Hill
#
# Bulk Modulus (GPa) = 16.14332 61.89595 39.01964
# Shear Modulus (GPa) = 17.90084 30.87371 24.38728
#
# Velocity S-wave (km/s) = 3.03327 3.98353 3.54043
# Velocity P-wave (km/s) = 4.53487 7.27815 6.06368
#
# Compressibility (1/GPa) = 0.06194512
#
# Stress axis : x y z
#
# Youngs Moduli (GPa) = 146.02423 19.07158 66.77278
#
# Poissons Ratio (x) = 0.16082 0.36861
# Poissons Ratio (y) = 1.23135 -0.52058
# Poissons Ratio (z) = 0.80611 -0.14869
#
# Static dielectric constant tensor:
#      x y z
#    x 1.756580 0.000000 0.000000 
#    y 0.000000 1.682030 0.000000 
#    z 0.000000 0.000000 1.659210 
# 
# From -- ./inp_files/41478.got.cif
#   From: 2010.05.17/outbox.cif.g08.bks.cpg/sg67_21_cif.got.tgz:41478.got - 2010.06.03 18:28:57.
