data_PCOD9501785
_publ_section_title
;
Structure prediction by ZEFSAII (Michael W. Deem and Ramdas Pophale) SiO2 
 PCOD9501785
Probable space group: C M M A
;
_chemical_formula_sum "Si O2"
_cell_formula_units_Z 80
_cell_length_a 16.962470
_cell_length_b 14.689480
_cell_length_c 13.699983
_cell_angle_alpha 90.000000
_cell_angle_beta 90.000000
_cell_angle_gamma 90.000000
_cell_volume 3413.622898
_symmetry_space_group_name_H-M "C M M A"
_symmetry_group_IT_number 67
_symmetry_cell_setting 'orthorhombic'
loop_
_space_group_symop_operation_xyz
x,y,z
-x,1/2-y,z
x,-y,-z
-x,1/2+y,-z
-x,-y,-z
x,1/2+y,-z
-x,y,z
x,1/2-y,z
1/2+x,1/2+y,z
1/2-x,-y,z
1/2+x,1/2-y,-z
1/2-x,y,-z
1/2-x,1/2-y,-z
1/2+x,y,-z
1/2-x,1/2+y,z
1/2+x,-y,z
loop_
_atom_site_type_symbol
_atom_site_label
_atom_site_fract_x
_atom_site_fract_y
_atom_site_fract_z
Si Si1 0.000000 0.387321 0.393994
Si Si2 0.165243 0.897701 0.294526
Si Si3 0.585213 0.640168 0.111103
Si Si4 0.500000 0.607821 0.622496
Si Si5 0.836017 0.607829 0.693899
Si Si6 0.823483 0.640081 0.069477
O O1 0.083289 0.352887 0.350685
O O2 0.000000 0.369233 0.508688
O O3 0.000000 0.496678 0.373860
O O4 0.081241 0.859220 0.328150
O O5 0.248749 0.855034 0.328403
O O6 0.169349 0.899531 0.176846
O O7 0.165933 0.001397 0.332558
O O8 0.500000 0.604647 0.142904
O O9 0.584110 0.750000 0.112822
O O10 0.650200 0.613508 0.189712
O O11 0.603851 0.614763 0.000363
O O12 0.819755 0.750000 0.081532
O O13 0.750000 0.614567 0.000000
#
# Coordination Sequence:
#
# PCOD9501785 Si02
#       6
#     8  16  16   8  16  16
#     4   9  18  36  58  77 106 138 181 233 282 333
#     4  10  21  34  52  81 112 142 180 224 274 324
#     4  10  20  34  53  79 107 144 188 224 268 325
#     4   9  20  36  54  79 108 144 179 225 282 335
#     4  10  19  34  55  81 109 137 179 232 275 323
#     4  10  20  35  53  75 109 150 187 218 262 327
#
# _framework density 23.435513
#
# number of rings (size 3 to 8) (size 9 to 14) (size 15 to 20)
#    0.000    2.200    3.000    0.000    1.400    1.600 
#    0.000    5.000    0.000    2.400    0.000    2.800 
#    0.000    0.000    0.000    0.000    0.000    0.000 
#
# Total GULP energy -223253.486958 kJ/mol
# GULP energy per Si atom -5581.337174 kJ/mol
# Density = 2.338217 g / cm^3
# Si number density = 23.435513 Si / 1000 Ang^3
#
#
#
# Elastic Constant Matrix: (Units=GPa)
#
#
# Indices 1 2 3 4 5 6 
#
# 1 253.3305 14.7827 84.3006 0.0000 0.0000 0.0000
# 2 14.7827 75.2589 -3.6588 0.0000 0.0000 0.0000
# 3 84.3006 -3.6588 99.4883 0.0000 0.0000 0.0000
# 4 0.0000 0.0000 0.0000 21.8834 0.0000 0.0000
# 5 0.0000 0.0000 0.0000 0.0000 26.2080 0.0000
# 6 0.0000 0.0000 0.0000 0.0000 0.0000 -1.9033
#
#
#
# Elastic Compliance Matrix: (Units=1/GPa)
#
#
# Indices 1 2 3 4 5 6 
#
# 1 0.005629 -0.001340 -0.004819 0.000000 0.000000 0.000000
# 2 -0.001340 0.013630 0.001637 0.000000 0.000000 0.000000
# 3 -0.004819 0.001637 0.014195 0.000000 0.000000 0.000000
# 4 0.000000 0.000000 0.000000 0.045697 0.000000 0.000000
# 5 0.000000 0.000000 0.000000 0.000000 0.038156 0.000000
# 6 0.000000 0.000000 0.000000 0.000000 0.000000 -0.525390
#
#
# Mechanical properties :
#
#
# Convention : Reuss Voigt Hill
#
# Bulk Modulus (GPa) = 40.96737 68.76963 54.86850
# Shear Modulus (GPa) = -12.79097 31.41451 9.31177
#
# Velocity S-wave (km/s) = -2.33876 3.66521 1.99549
# Velocity P-wave (km/s) = 3.19778 6.87892 5.36402
#
# Compressibility (1/GPa) = 0.02440967
#
# Stress axis : x y z
#
# Youngs Moduli (GPa) = 177.64222 73.36623 70.44664
#
# Poissons Ratio (x) = 0.09831 0.33950
# Poissons Ratio (y) = 0.23805 -0.11530
# Poissons Ratio (z) = 0.85610 -0.12008
#
# Static dielectric constant tensor:
#      x y z
#    x 1.953490 0.000000 0.000000 
#    y 0.000000 1.902210 0.000000 
#    z 0.000000 0.000000 1.821140 
# 
# From -- ./inp_files/19348.got.cif
#   From: 2010.05.17/outbox.cif.g08.bks.cpg/sg67_10_cif.got.tgz:19348.got - 2010.06.03 18:28:57.
