data_PCOD9501557
_publ_section_title
;
Structure prediction by ZEFSAII (Michael W. Deem and Ramdas Pophale) SiO2 
 PCOD9501557
Probable space group: C M M A
;
_chemical_formula_sum "Si O2"
_cell_formula_units_Z 104
_cell_length_a 7.764201
_cell_length_b 28.174730
_cell_length_c 22.220090
_cell_angle_alpha 90.000000
_cell_angle_beta 90.000000
_cell_angle_gamma 90.000000
_cell_volume 4860.739497
_symmetry_space_group_name_H-M "C M M A"
_symmetry_group_IT_number 67
_symmetry_cell_setting 'orthorhombic'
loop_
_space_group_symop_operation_xyz
x,y,z
-x,1/2-y,z
x,-y,-z
-x,1/2+y,-z
-x,-y,-z
x,1/2+y,-z
-x,y,z
x,1/2-y,z
1/2+x,1/2+y,z
1/2-x,-y,z
1/2+x,1/2-y,-z
1/2-x,y,-z
1/2-x,1/2-y,-z
1/2+x,y,-z
1/2-x,1/2+y,z
1/2+x,-y,z
loop_
_atom_site_type_symbol
_atom_site_label
_atom_site_fract_x
_atom_site_fract_y
_atom_site_fract_z
Si Si1 0.788780 0.250000 0.859753
Si Si2 0.206901 0.344867 0.930583
Si Si3 0.204642 0.750000 0.278229
Si Si4 0.250000 0.500000 0.643606
Si Si5 0.700778 0.435858 0.252969
Si Si6 0.701332 0.649272 0.321717
Si Si7 0.793435 0.084637 0.431079
Si Si8 0.706977 0.947548 0.883450
O O1 0.732322 0.200828 0.892075
O O2 0.730251 0.250000 0.790559
O O3 0.000000 0.250000 0.861522
O O4 0.270813 0.398178 0.912969
O O5 0.000000 0.346278 0.923342
O O6 0.250000 0.336357 0.000000
O O7 0.261379 0.796292 0.313370
O O8 0.000000 0.750000 0.274088
O O9 0.191679 0.538116 0.694772
O O10 0.309203 0.539610 0.595781
O O11 0.500000 0.450855 0.258940
O O12 0.706439 0.380689 0.269415
O O13 0.764840 0.446287 0.186388
O O14 0.500000 0.640931 0.313501
O O15 0.748991 0.628079 0.386728
O O16 0.750000 0.093474 0.500000
O O17 0.000000 0.073903 0.426093
O O18 0.500000 0.944964 0.882931
O O19 0.750000 0.000000 0.909079
#
# Coordination Sequence:
#
# PCOD9501557 Si02
#       8
#     8  16   8   8  16  16  16  16
#     4   9  19  38  64  89 115 142 179 235 292 347
#     4  10  21  38  59  83 113 150 191 236 284 339
#     4  11  21  38  65  91 112 142 184 227 284 347
#     4  10  19  32  56  84 113 144 186 236 288 332
#     4  10  19  34  56  82 112 149 191 232 284 345
#     4  10  22  38  56  82 117 149 183 232 286 334
#     4  10  22  37  54  79 112 150 189 231 275 328
#     4  10  21  36  55  81 114 153 197 240 286 342
#
# _framework density 21.395921999999999
#
# number of rings (size 3 to 8) (size 9 to 14) (size 15 to 20)
#    0.000    2.000    0.769    2.538    0.000    8.923 
#    0.000    5.000    0.000    0.000    0.000    0.000 
#    0.000    0.000    0.000    0.000    0.000    0.000 
#
# Total GULP energy -289730.863982 kJ/mol
# GULP energy per Si atom -5571.747384 kJ/mol
# Density = 2.134722 g / cm^3
# Si number density = 21.395922 Si / 1000 Ang^3
#
#
#
# Elastic Constant Matrix: (Units=GPa)
#
#
# Indices 1 2 3 4 5 6 
#
# 1 54.5903 14.7746 12.3129 0.0000 0.0000 0.0000
# 2 14.7746 202.1310 67.7805 0.0000 0.0000 0.0000
# 3 12.3129 67.7805 109.8147 0.0000 0.0000 0.0000
# 4 0.0000 0.0000 0.0000 23.6807 0.0000 0.0000
# 5 0.0000 0.0000 0.0000 0.0000 14.2368 0.0000
# 6 0.0000 0.0000 0.0000 0.0000 0.0000 29.1649
#
#
#
# Elastic Compliance Matrix: (Units=1/GPa)
#
#
# Indices 1 2 3 4 5 6 
#
# 1 0.018908 -0.000846 -0.001598 0.000000 0.000000 0.000000
# 2 -0.000846 0.006276 -0.003779 0.000000 0.000000 0.000000
# 3 -0.001598 -0.003779 0.011618 0.000000 0.000000 0.000000
# 4 0.000000 0.000000 0.000000 0.042228 0.000000 0.000000
# 5 0.000000 0.000000 0.000000 0.000000 0.070241 0.000000
# 6 0.000000 0.000000 0.000000 0.000000 0.000000 0.034288
#
#
# Mechanical properties :
#
#
# Convention : Reuss Voigt Hill
#
# Bulk Modulus (GPa) = 41.05775 61.80801 51.43288
# Shear Modulus (GPa) = 24.49497 31.52768 28.01132
#
# Velocity S-wave (km/s) = 3.38722 3.84283 3.62220
# Velocity P-wave (km/s) = 5.87613 6.97426 6.44861
#
# Compressibility (1/GPa) = 0.02435594
#
# Stress axis : x y z
#
# Youngs Moduli (GPa) = 52.88860 159.32766 86.07402
#
# Poissons Ratio (x) = 0.13484 0.13752
# Poissons Ratio (y) = 0.04476 0.32528
# Poissons Ratio (z) = 0.08450 0.60211
#
# Static dielectric constant tensor:
#      x y z
#    x 1.879640 0.000000 0.000000 
#    y 0.000000 1.778170 0.000000 
#    z 0.000000 0.000000 1.738440 
# 
# From -- ./inp_files/37362.got.cif
#   From: 2010.05.17/outbox.cif.g08.bks.cpg/sg67_19_cif.got.tgz:37362.got - 2010.06.03 18:28:57.
