data_PCOD9501077
_publ_section_title
;
Structure prediction by ZEFSAII (Michael W. Deem and Ramdas Pophale) SiO2 
 PCOD9501077
Probable space group: C M M A
;
_chemical_formula_sum "Si O2"
_cell_formula_units_Z 128
_cell_length_a 17.454367
_cell_length_b 25.261661
_cell_length_c 18.696842
_cell_angle_alpha 90.000000
_cell_angle_beta 90.000000
_cell_angle_gamma 90.000000
_cell_volume 8243.929404
_symmetry_space_group_name_H-M "C M M A"
_symmetry_group_IT_number 67
_symmetry_cell_setting 'orthorhombic'
loop_
_space_group_symop_operation_xyz
x,y,z
-x,1/2-y,z
x,-y,-z
-x,1/2+y,-z
-x,-y,-z
x,1/2+y,-z
-x,y,z
x,1/2-y,z
1/2+x,1/2+y,z
1/2-x,-y,z
1/2+x,1/2-y,-z
1/2-x,y,-z
1/2-x,1/2-y,-z
1/2+x,y,-z
1/2-x,1/2+y,z
1/2+x,-y,z
loop_
_atom_site_type_symbol
_atom_site_label
_atom_site_fract_x
_atom_site_fract_y
_atom_site_fract_z
Si Si1 0.793541 0.444884 0.385565
Si Si2 0.635395 0.901852 0.655751
Si Si3 0.092204 0.190115 0.758508
Si Si4 0.410838 0.490682 0.727843
Si Si5 0.340950 0.415811 0.011093
Si Si6 0.591251 0.992294 0.105005
Si Si7 0.092473 0.312134 0.922407
Si Si8 0.084843 0.435613 0.499743
O O1 0.750000 0.500000 0.406680
O O2 0.725608 0.408789 0.357310
O O3 0.853598 0.458950 0.323267
O O4 0.843469 0.421614 0.449938
O O5 0.618824 0.848114 0.696267
O O6 0.604035 0.948451 0.706727
O O7 0.596594 0.912544 0.578860
O O8 0.118116 0.250000 0.745899
O O9 0.114958 0.175562 0.839830
O O10 0.000000 0.189534 0.758824
O O11 0.500000 0.477987 0.713831
O O12 0.394259 0.483454 0.811372
O O13 0.365836 0.455731 0.075038
O O14 0.369688 0.356749 0.028258
O O15 0.250000 0.417027 0.000000
O O16 0.380935 0.442817 0.942315
O O17 0.500000 0.000160 0.095227
O O18 0.111600 0.250000 0.936645
O O19 0.000000 0.316466 0.927675
O O20 0.085872 0.500000 0.500000
O O21 0.000000 0.420176 0.473172
#
# Coordination Sequence:
#
# PCOD9501077 Si02
#       8
#    16  16  16  16  16  16  16  16
#     4  10  20  29  43  64  97 127 155 191 234 275
#     4  11  20  28  47  72  97 128 154 191 243 287
#     4   9  18  33  52  74  96 119 155 199 241 285
#     4  10  19  30  45  67  94 126 163 193 226 280
#     4  11  21  31  47  69  98 124 155 195 241 290
#     4  10  20  33  48  65  92 132 167 195 229 283
#     4   9  18  34  55  73  92 122 158 198 242 290
#     4  11  19  29  45  65  94 130 167 195 225 272
#
# _framework density 15.526577
#
# number of rings (size 3 to 8) (size 9 to 14) (size 15 to 20)
#    0.000    1.875    2.500    5.625    0.000    6.250 
#    0.000    0.000    0.000    1.500    0.000    0.000 
#    0.000    1.500    0.000    0.500    0.000    0.000 
#
# Total GULP energy -356919.313464 kJ/mol
# GULP energy per Si atom -5576.864273 kJ/mol
# Density = 1.549124 g / cm^3
# Si number density = 15.526577 Si / 1000 Ang^3
#
#
#
# Elastic Constant Matrix: (Units=GPa)
#
#
# Indices 1 2 3 4 5 6 
#
# 1 85.9207 30.7051 38.0478 0.0000 0.0000 0.0000
# 2 30.7051 72.4627 45.3054 0.0000 0.0000 0.0000
# 3 38.0478 45.3054 89.4372 0.0000 0.0000 0.0000
# 4 0.0000 0.0000 0.0000 23.3631 0.0000 0.0000
# 5 0.0000 0.0000 0.0000 0.0000 -47.9502 0.0000
# 6 0.0000 0.0000 0.0000 0.0000 0.0000 2.0964
#
#
#
# Elastic Compliance Matrix: (Units=1/GPa)
#
#
# Indices 1 2 3 4 5 6 
#
# 1 0.014904 -0.003441 -0.004597 0.000000 0.000000 0.000000
# 2 -0.003441 0.020991 -0.009169 0.000000 0.000000 0.000000
# 3 -0.004597 -0.009169 0.017782 0.000000 0.000000 0.000000
# 4 0.000000 0.000000 0.000000 0.042802 0.000000 0.000000
# 5 0.000000 0.000000 0.000000 0.000000 -0.020855 0.000000
# 6 0.000000 0.000000 0.000000 0.000000 0.000000 0.477012
#
#
# Mechanical properties :
#
#
# Convention : Reuss Voigt Hill
#
# Bulk Modulus (GPa) = 51.91735 52.88190 52.39963
# Shear Modulus (GPa) = 8.42499 4.41935 6.42217
#
# Velocity S-wave (km/s) = 2.33194 1.68893 2.03598
# Velocity P-wave (km/s) = 6.38443 6.15924 6.27284
#
# Compressibility (1/GPa) = 0.01926138
#
# Stress axis : x y z
#
# Youngs Moduli (GPa) = 67.09532 47.63878 56.23762
#
# Poissons Ratio (x) = 0.16393 0.25854
# Poissons Ratio (y) = 0.23088 0.51567
# Poissons Ratio (z) = 0.30846 0.43682
#
# Static dielectric constant tensor:
#      x y z
#    x 1.526950 0.000000 0.000000 
#    y 0.000000 1.508600 0.000000 
#    z 0.000000 0.000000 1.530310 
# 
# From -- ./inp_files/34577.got.cif
#   From: 2010.05.17/outbox.cif.g08.bks.cpg/sg67_18_cif.got.tgz:34577.got - 2010.06.03 18:28:57.
