data_PCOD9501325
_publ_section_title
;
Structure prediction by ZEFSAII (Michael W. Deem and Ramdas Pophale) SiO2 
 PCOD9501325
Probable space group: C M M A
;
_chemical_formula_sum "Si O2"
_cell_formula_units_Z 56
_cell_length_a 5.317879
_cell_length_b 26.016542
_cell_length_c 20.249606
_cell_angle_alpha 90.000000
_cell_angle_beta 90.000000
_cell_angle_gamma 90.000000
_cell_volume 2801.590142
_symmetry_space_group_name_H-M "C M M A"
_symmetry_group_IT_number 67
_symmetry_cell_setting 'orthorhombic'
loop_
_space_group_symop_operation_xyz
x,y,z
-x,1/2-y,z
x,-y,-z
-x,1/2+y,-z
-x,-y,-z
x,1/2+y,-z
-x,y,z
x,1/2-y,z
1/2+x,1/2+y,z
1/2-x,-y,z
1/2+x,1/2-y,-z
1/2-x,y,-z
1/2-x,1/2-y,-z
1/2+x,y,-z
1/2-x,1/2+y,z
1/2+x,-y,z
loop_
_atom_site_type_symbol
_atom_site_label
_atom_site_fract_x
_atom_site_fract_y
_atom_site_fract_z
Si Si1 0.000000 0.124285 0.814584
Si Si2 0.500000 0.904114 0.668226
Si Si3 0.000000 0.250000 0.457526
Si Si4 0.000000 0.192033 0.205469
Si Si5 0.500000 0.837599 0.351065
Si Si6 0.500000 0.250000 0.042904
Si Si7 0.000000 0.367035 0.955415
Si Si8 0.500000 0.557087 0.530038
O O1 0.000000 0.088609 0.748144
O O2 0.251800 0.159183 0.810733
O O3 0.000000 0.100111 0.887963
O O4 0.249633 0.871826 0.652794
O O5 0.500000 0.946189 0.609602
O O6 0.250000 0.250000 0.500000
O O7 0.000000 0.199731 0.412271
O O8 0.000000 0.195506 0.284281
O O9 0.000000 0.250000 0.176155
O O10 0.500000 0.192429 0.071546
O O11 0.250000 0.250000 0.000000
O O12 0.250000 0.373914 0.000000
O O13 0.500000 0.500000 0.500000
O O14 0.250000 0.582780 0.500000
#
# Coordination Sequence:
#
# PCOD9501325 Si02
#       8
#     8   8   4   8   8   4   8   8
#     4  10  21  32  48  72  89 129 173 214 270 304
#     4  10  21  36  56  75 102 131 174 216 256 321
#     4  12  24  34  46  66  96 130 172 222 264 310
#     4  10  19  32  48  61  87 121 171 225 264 309
#     4  10  21  36  48  68  95 132 174 219 264 302
#     4   8  16  26  36  52  76 110 152 200 256 298
#     4  10  19  32  44  62  93 125 165 218 270 315
#     4  10  21  37  59  86 111 137 163 200 258 325
#
# _framework density 19.98865
#
# number of rings (size 3 to 8) (size 9 to 14) (size 15 to 20)
#    0.000    2.000    0.714    3.000    2.000    3.429 
#    2.571    0.000    0.000    0.000    0.000    0.000 
#    0.000    0.000    0.000   15.429    0.000    0.000 
#
# Total GULP energy -156007.261445 kJ/mol
# GULP energy per Si atom -5571.687909 kJ/mol
# Density = 1.994315 g / cm^3
# Si number density = 19.988650 Si / 1000 Ang^3
#
#
#
# Elastic Constant Matrix: (Units=GPa)
#
#
# Indices 1 2 3 4 5 6 
#
# 1 177.7042 7.9847 49.7766 0.0000 0.0000 0.0000
# 2 7.9847 22.4895 26.9237 0.0000 0.0000 0.0000
# 3 49.7766 26.9237 195.1249 0.0000 0.0000 0.0000
# 4 0.0000 0.0000 0.0000 22.4637 0.0000 0.0000
# 5 0.0000 0.0000 0.0000 0.0000 23.7997 0.0000
# 6 0.0000 0.0000 0.0000 0.0000 0.0000 -7.2189
#
#
#
# Elastic Compliance Matrix: (Units=1/GPa)
#
#
# Indices 1 2 3 4 5 6 
#
# 1 0.006063 -0.000361 -0.001497 0.000000 0.000000 0.000000
# 2 -0.000361 0.053285 -0.007260 0.000000 0.000000 0.000000
# 3 -0.001497 -0.007260 0.006509 0.000000 0.000000 0.000000
# 4 0.000000 0.000000 0.000000 0.044516 0.000000 0.000000
# 5 0.000000 0.000000 0.000000 0.000000 0.042017 0.000000
# 6 0.000000 0.000000 0.000000 0.000000 0.000000 -0.138525
#
#
# Mechanical properties :
#
#
# Convention : Reuss Voigt Hill
#
# Bulk Modulus (GPa) = 20.99922 62.74318 41.87120
# Shear Modulus (GPa) = 104.22197 28.51780 66.36989
#
# Velocity S-wave (km/s) = 7.22868 3.78127 5.76852
# Velocity P-wave (km/s) = 8.95545 7.10785 8.08460
#
# Compressibility (1/GPa) = 0.04762081
#
# Stress axis : x y z
#
# Youngs Moduli (GPa) = 164.93972 18.76701 153.64331
#
# Poissons Ratio (x) = 0.00677 0.22999
# Poissons Ratio (y) = 0.05946 1.11551
# Poissons Ratio (z) = 0.24690 0.13626
#
# Static dielectric constant tensor:
#      x y z
#    x 1.432100 0.000000 0.000000 
#    y 0.000000 1.634140 0.000000 
#    z 0.000000 0.000000 1.756450 
# 
# From -- ./inp_files/31437.got.cif
#   From: 2010.05.17/outbox.cif.g08.bks.cpg/sg67_16_cif.got.tgz:31437.got - 2010.06.03 18:28:57.
