data_PCOD9501395
_publ_section_title
;
Structure prediction by ZEFSAII (Michael W. Deem and Ramdas Pophale) SiO2 
 PCOD9501395
Probable space group: C M M A
;
_chemical_formula_sum "Si O2"
_cell_formula_units_Z 96
_cell_length_a 27.460096
_cell_length_b 15.108151
_cell_length_c 12.324035
_cell_angle_alpha 90.000000
_cell_angle_beta 90.000000
_cell_angle_gamma 90.000000
_cell_volume 5112.888136
_symmetry_space_group_name_H-M "C M M A"
_symmetry_group_IT_number 67
_symmetry_cell_setting 'orthorhombic'
loop_
_space_group_symop_operation_xyz
x,y,z
-x,1/2-y,z
x,-y,-z
-x,1/2+y,-z
-x,-y,-z
x,1/2+y,-z
-x,y,z
x,1/2-y,z
1/2+x,1/2+y,z
1/2-x,-y,z
1/2+x,1/2-y,-z
1/2-x,y,-z
1/2-x,1/2-y,-z
1/2+x,y,-z
1/2-x,1/2+y,z
1/2+x,-y,z
loop_
_atom_site_type_symbol
_atom_site_label
_atom_site_fract_x
_atom_site_fract_y
_atom_site_fract_z
Si Si1 0.874107 0.902183 0.716748
Si Si2 0.941010 0.654298 0.274478
Si Si3 0.055620 0.894196 0.515551
Si Si4 0.689578 0.750000 0.354353
Si Si5 0.804384 0.250000 0.599918
Si Si6 0.942775 0.984107 0.872737
Si Si7 0.695575 0.461142 0.377027
O O1 0.910308 0.877769 0.617811
O O2 0.830864 0.832397 0.710910
O O3 0.907044 0.910943 0.822926
O O4 0.846265 0.993169 0.692568
O O5 0.922549 0.750000 0.236256
O O6 0.926464 0.641804 0.399945
O O7 0.931014 0.573240 0.194977
O O8 0.000000 0.656865 0.278407
O O9 0.000000 0.863589 0.534906
O O10 0.053851 0.000000 0.500000
O O11 0.746411 0.750000 0.377674
O O12 0.672446 0.750000 0.479520
O O13 0.811954 0.354933 0.632568
O O14 0.000000 0.962938 0.852903
O O15 0.936397 0.000000 0.000000
O O16 0.688343 0.500000 0.500000
O O17 0.750000 0.500000 0.348914
#
# Coordination Sequence:
#
# PCOD9501395 Si02
#       7
#    16  16  16   8   8  16  16
#     4  12  22  36  57  89 117 157 199 246 301 363
#     4   9  18  33  53  76 106 148 194 238 288 349
#     4  10  19  32  50  77 117 153 183 228 291 356
#     4  11  22  34  55  83 124 157 192 238 298 369
#     4  11  20  38  54  85 126 163 195 234 306 379
#     4  10  22  42  62  80 114 161 207 255 303 351
#     4  11  20  35  57  82 121 161 197 239 297 374
#
# _framework density 18.776081000000001
#
# number of rings (size 3 to 8) (size 9 to 14) (size 15 to 20)
#    0.000    1.500    5.000    2.000    1.167    0.000 
#    3.000    1.250    0.000    0.500    0.000    1.167 
#    0.000    0.000    0.000    0.000    0.000    0.000 
#
# Total GULP energy -267391.034965 kJ/mol
# GULP energy per Si atom -5570.646562 kJ/mol
# Density = 1.873335 g / cm^3
# Si number density = 18.776081 Si / 1000 Ang^3
#
#
#
# Elastic Constant Matrix: (Units=GPa)
#
#
# Indices 1 2 3 4 5 6 
#
# 1 96.3253 29.0478 41.8255 0.0000 0.0000 0.0000
# 2 29.0478 111.2197 18.1769 0.0000 0.0000 0.0000
# 3 41.8255 18.1769 71.1267 0.0000 0.0000 0.0000
# 4 0.0000 0.0000 0.0000 5.0790 0.0000 0.0000
# 5 0.0000 0.0000 0.0000 0.0000 24.4528 0.0000
# 6 0.0000 0.0000 0.0000 0.0000 0.0000 8.8198
#
#
#
# Elastic Compliance Matrix: (Units=1/GPa)
#
#
# Indices 1 2 3 4 5 6 
#
# 1 0.014584 -0.002512 -0.007934 0.000000 0.000000 0.000000
# 2 -0.002512 0.009816 -0.001031 0.000000 0.000000 0.000000
# 3 -0.007934 -0.001031 0.018989 0.000000 0.000000 0.000000
# 4 0.000000 0.000000 0.000000 0.196888 0.000000 0.000000
# 5 0.000000 0.000000 0.000000 0.000000 0.040895 0.000000
# 6 0.000000 0.000000 0.000000 0.000000 0.000000 0.113382
#
#
# Mechanical properties :
#
#
# Convention : Reuss Voigt Hill
#
# Bulk Modulus (GPa) = 48.93936 50.75246 49.84591
# Shear Modulus (GPa) = 11.78355 20.31174 16.04765
#
# Velocity S-wave (km/s) = 2.50788 3.29262 2.92667
# Velocity P-wave (km/s) = 5.87429 6.44548 6.16650
#
# Compressibility (1/GPa) = 0.02043345
#
# Stress axis : x y z
#
# Youngs Moduli (GPa) = 68.56747 101.87559 52.66343
#
# Poissons Ratio (x) = 0.25595 0.41784
# Poissons Ratio (y) = 0.17226 0.05430
# Poissons Ratio (z) = 0.54402 0.10505
#
# Static dielectric constant tensor:
#      x y z
#    x 1.713540 0.000000 0.000000 
#    y 0.000000 1.726850 0.000000 
#    z 0.000000 0.000000 1.616820 
# 
# From -- ./inp_files/23746.got.cif
#   From: 2010.05.17/outbox.cif.g08.bks.cpg/sg67_12_cif.got.tgz:23746.got - 2010.06.03 18:28:57.
