data_PCOD9501609
_publ_section_title
;
Structure prediction by ZEFSAII (Michael W. Deem and Ramdas Pophale) SiO2 
 PCOD9501609
Probable space group: C M M A
;
_chemical_formula_sum "Si O2"
_cell_formula_units_Z 120
_cell_length_a 8.488864
_cell_length_b 27.311032
_cell_length_c 28.966123
_cell_angle_alpha 90.000000
_cell_angle_beta 90.000000
_cell_angle_gamma 90.000000
_cell_volume 6715.495423
_symmetry_space_group_name_H-M "C M M A"
_symmetry_group_IT_number 67
_symmetry_cell_setting 'orthorhombic'
loop_
_space_group_symop_operation_xyz
x,y,z
-x,1/2-y,z
x,-y,-z
-x,1/2+y,-z
-x,-y,-z
x,1/2+y,-z
-x,y,z
x,1/2-y,z
1/2+x,1/2+y,z
1/2-x,-y,z
1/2+x,1/2-y,-z
1/2-x,y,-z
1/2-x,1/2-y,-z
1/2+x,y,-z
1/2-x,1/2+y,z
1/2+x,-y,z
loop_
_atom_site_type_symbol
_atom_site_label
_atom_site_fract_x
_atom_site_fract_y
_atom_site_fract_z
Si Si1 0.809225 0.357315 0.052505
Si Si2 0.811657 0.054633 0.117999
Si Si3 0.189850 0.692911 0.548645
Si Si4 0.190831 0.305164 0.255917
Si Si5 0.311528 0.552070 0.308663
Si Si6 0.308758 0.848020 0.354085
Si Si7 0.187005 0.904145 0.214142
Si Si8 0.190102 0.250000 0.052775
O O1 0.754162 0.403491 0.082431
O O2 0.759788 0.303350 0.071789
O O3 0.000000 0.357950 0.052143
O O4 0.750000 0.361106 0.000000
O O5 0.761683 0.072674 0.168643
O O6 0.000000 0.053127 0.115603
O O7 0.750000 0.000000 0.108706
O O8 0.236445 0.750000 0.550491
O O9 0.250000 0.672172 0.500000
O O10 0.248557 0.668750 0.596004
O O11 0.000000 0.690649 0.548266
O O12 0.237276 0.250000 0.243056
O O13 0.239103 0.316375 0.309164
O O14 0.257268 0.348564 0.224348
O O15 0.000000 0.308228 0.254246
O O16 0.500000 0.551807 0.304646
O O17 0.250000 0.500000 0.324544
O O18 0.265446 0.596438 0.342173
O O19 0.241221 0.565039 0.258698
O O20 0.500000 0.844761 0.355223
O O21 0.000000 0.905599 0.210241
O O22 0.000000 0.250000 0.053175
O O23 0.250000 0.250000 0.000000
#
# Coordination Sequence:
#
# PCOD9501609 Si02
#       8
#    16  16  16  16  16  16  16   8
#     4   9  19  35  58  83 109 136 172 213 258 309
#     4  11  23  39  56  78 106 141 180 219 261 312
#     4   9  16  27  44  67  95 126 160 198 240 290
#     4   9  17  32  54  77 102 135 173 212 255 307
#     4  10  19  33  53  75  97 124 164 210 256 306
#     4   8  15  28  48  71  95 127 166 204 245 299
#     4  11  22  36  53  75 105 138 171 212 258 306
#     4   8  14  30  54  80 104 130 162 204 248 294
#
# _framework density 17.869119999999999
#
# number of rings (size 3 to 8) (size 9 to 14) (size 15 to 20)
#    0.000    2.533    0.000    3.600    0.000    3.200 
#    1.200    4.667    0.000    3.600    0.000    2.800 
#    0.000    0.000    0.000    0.000    0.000    0.000 
#
# Total GULP energy -334508.985060 kJ/mol
# GULP energy per Si atom -5575.149751 kJ/mol
# Density = 1.782845 g / cm^3
# Si number density = 17.869120 Si / 1000 Ang^3
#
#
#
# Elastic Constant Matrix: (Units=GPa)
#
#
# Indices 1 2 3 4 5 6 
#
# 1 25.8043 27.3718 11.3746 0.0000 0.0000 0.0000
# 2 27.3718 150.4271 59.0855 0.0000 0.0000 0.0000
# 3 11.3746 59.0855 82.1153 0.0000 0.0000 0.0000
# 4 0.0000 0.0000 0.0000 17.2412 0.0000 0.0000
# 5 0.0000 0.0000 0.0000 0.0000 20.6056 0.0000
# 6 0.0000 0.0000 0.0000 0.0000 0.0000 25.4440
#
#
#
# Elastic Compliance Matrix: (Units=1/GPa)
#
#
# Indices 1 2 3 4 5 6 
#
# 1 0.048037 -0.008541 -0.000508 0.000000 0.000000 0.000000
# 2 -0.008541 0.010785 -0.006577 0.000000 0.000000 0.000000
# 3 -0.000508 -0.006577 0.016981 0.000000 0.000000 0.000000
# 4 0.000000 0.000000 0.000000 0.058001 0.000000 0.000000
# 5 0.000000 0.000000 0.000000 0.000000 0.048530 0.000000
# 6 0.000000 0.000000 0.000000 0.000000 0.000000 0.039302
#
#
# Mechanical properties :
#
#
# Convention : Reuss Voigt Hill
#
# Bulk Modulus (GPa) = 22.44676 50.44564 36.44620
# Shear Modulus (GPa) = 18.67476 23.35914 21.01695
#
# Velocity S-wave (km/s) = 3.23629 3.61949 3.43324
# Velocity P-wave (km/s) = 5.15303 6.76458 6.01304
#
# Compressibility (1/GPa) = 0.04454986
#
# Stress axis : x y z
#
# Youngs Moduli (GPa) = 20.81715 92.71768 58.88875
#
# Poissons Ratio (x) = 0.79192 0.02994
# Poissons Ratio (y) = 0.17780 0.38734
# Poissons Ratio (z) = 0.01058 0.60985
#
# Static dielectric constant tensor:
#      x y z
#    x 1.615650 0.000000 0.000000 
#    y 0.000000 1.631600 0.000000 
#    z 0.000000 0.000000 1.588610 
# 
# From -- ./inp_files/43902.got.cif
#   From: 2010.05.17/outbox.cif.g08.bks.cpg/sg67_22_cif.got.tgz:43902.got - 2010.06.03 18:28:57.
