data_PCOD9501028
_publ_section_title
;
Structure prediction by ZEFSAII (Michael W. Deem and Ramdas Pophale) SiO2 
 PCOD9501028
Probable space group: C M M A
;
_chemical_formula_sum "Si O2"
_cell_formula_units_Z 64
_cell_length_a 8.915831
_cell_length_b 28.380255
_cell_length_c 14.236185
_cell_angle_alpha 90.000000
_cell_angle_beta 90.000000
_cell_angle_gamma 90.000000
_cell_volume 3602.232533
_symmetry_space_group_name_H-M "C M M A"
_symmetry_group_IT_number 67
_symmetry_cell_setting 'orthorhombic'
loop_
_space_group_symop_operation_xyz
x,y,z
-x,1/2-y,z
x,-y,-z
-x,1/2+y,-z
-x,-y,-z
x,1/2+y,-z
-x,y,z
x,1/2-y,z
1/2+x,1/2+y,z
1/2-x,-y,z
1/2+x,1/2-y,-z
1/2-x,y,-z
1/2-x,1/2-y,-z
1/2+x,y,-z
1/2-x,1/2+y,z
1/2+x,-y,z
loop_
_atom_site_type_symbol
_atom_site_label
_atom_site_fract_x
_atom_site_fract_y
_atom_site_fract_z
Si Si1 0.178781 0.805893 0.898427
Si Si2 0.819440 0.049741 0.604258
Si Si3 0.673617 0.878447 0.257453
Si Si4 0.170044 0.549264 0.911190
O O1 0.202122 0.750000 0.885490
O O2 0.230233 0.833932 0.804626
O O3 0.000000 0.815374 0.905310
O O4 0.250000 0.818221 0.000000
O O5 0.750000 0.053560 0.500000
O O6 0.768880 0.096513 0.660924
O O7 0.000000 0.045708 0.602349
O O8 0.750000 0.000000 0.643053
O O9 0.500000 0.869868 0.288090
O O10 0.672708 0.918649 0.178520
O O11 0.250000 0.500000 0.893275
O O12 0.000000 0.540804 0.937316
O O13 0.250000 0.572462 0.000000
#
# Coordination Sequence:
#
# PCOD9501028 Si02
#       4
#    16  16  16  16
#     4   9  18  33  53  77 107 142 178 218 262 308
#     4  11  22  37  57  79 105 136 170 211 258 309
#     4  10  20  33  50  74 102 133 172 214 257 305
#     4  10  19  29  42  62  93 129 162 199 240 290
#
# _framework density 17.766759
#
# number of rings (size 3 to 8) (size 9 to 14) (size 15 to 20)
#    0.000    2.000    0.000    6.000    0.000    5.000 
#    0.000    0.000    0.000    0.750    0.000    0.000 
#    0.000    0.000    0.000    0.000    0.000    0.000 
#
# Total GULP energy -178287.881497 kJ/mol
# GULP energy per Si atom -5571.496297 kJ/mol
# Density = 1.772632 g / cm^3
# Si number density = 17.766759 Si / 1000 Ang^3
#
#
#
# Elastic Constant Matrix: (Units=GPa)
#
#
# Indices 1 2 3 4 5 6 
#
# 1 108.1080 36.4565 35.8476 0.0000 0.0000 0.0000
# 2 36.4565 94.0179 41.8757 0.0000 0.0000 0.0000
# 3 35.8476 41.8757 76.9480 0.0000 0.0000 0.0000
# 4 0.0000 0.0000 0.0000 38.3088 0.0000 0.0000
# 5 0.0000 0.0000 0.0000 0.0000 23.7413 0.0000
# 6 0.0000 0.0000 0.0000 0.0000 0.0000 16.4493
#
#
#
# Elastic Compliance Matrix: (Units=1/GPa)
#
#
# Indices 1 2 3 4 5 6 
#
# 1 0.011445 -0.002723 -0.003850 0.000000 0.000000 0.000000
# 2 -0.002723 0.014687 -0.006724 0.000000 0.000000 0.000000
# 3 -0.003850 -0.006724 0.018449 0.000000 0.000000 0.000000
# 4 0.000000 0.000000 0.000000 0.026104 0.000000 0.000000
# 5 0.000000 0.000000 0.000000 0.000000 0.042121 0.000000
# 6 0.000000 0.000000 0.000000 0.000000 0.000000 0.060793
#
#
# Mechanical properties :
#
#
# Convention : Reuss Voigt Hill
#
# Bulk Modulus (GPa) = 55.59794 56.38149 55.98972
# Shear Modulus (GPa) = 24.24973 26.69282 25.47128
#
# Velocity S-wave (km/s) = 3.69845 3.88029 3.79046
# Velocity P-wave (km/s) = 7.04267 7.20268 7.12313
#
# Compressibility (1/GPa) = 0.01798628
#
# Stress axis : x y z
#
# Youngs Moduli (GPa) = 87.37524 68.08647 54.20436
#
# Poissons Ratio (x) = 0.18541 0.20868
# Poissons Ratio (y) = 0.23794 0.36448
# Poissons Ratio (z) = 0.33638 0.45783
#
# Static dielectric constant tensor:
#      x y z
#    x 1.624800 0.000000 0.000000 
#    y 0.000000 1.637860 0.000000 
#    z 0.000000 0.000000 1.626610 
# 
# From -- ./inp_files/25221.got.cif
#   From: 2010.05.17/outbox.cif.g08.bks.cpg/sg67_13_cif.got.tgz:25221.got - 2010.06.03 18:28:57.
