data_PCOD9501170
_publ_section_title
;
Structure prediction by ZEFSAII (Michael W. Deem and Ramdas Pophale) SiO2 
 PCOD9501170
Probable space group: C M M A
;
_chemical_formula_sum "Si O2"
_cell_formula_units_Z 104
_cell_length_a 27.974479
_cell_length_b 8.410322
_cell_length_c 24.707619
_cell_angle_alpha 90.000000
_cell_angle_beta 90.000000
_cell_angle_gamma 90.000000
_cell_volume 5813.069647
_symmetry_space_group_name_H-M "C M M A"
_symmetry_group_IT_number 67
_symmetry_cell_setting 'orthorhombic'
loop_
_space_group_symop_operation_xyz
x,y,z
-x,1/2-y,z
x,-y,-z
-x,1/2+y,-z
-x,-y,-z
x,1/2+y,-z
-x,y,z
x,1/2-y,z
1/2+x,1/2+y,z
1/2-x,-y,z
1/2+x,1/2-y,-z
1/2-x,y,-z
1/2-x,1/2-y,-z
1/2+x,y,-z
1/2-x,1/2+y,z
1/2+x,-y,z
loop_
_atom_site_type_symbol
_atom_site_label
_atom_site_fract_x
_atom_site_fract_y
_atom_site_fract_z
Si Si1 0.500000 0.441936 0.061926
Si Si2 0.895793 0.059225 0.668329
Si Si3 0.697885 0.059659 0.728735
Si Si4 0.105453 0.439970 0.938759
Si Si5 0.052393 0.058096 0.228491
Si Si6 0.353717 0.558438 0.164941
Si Si7 0.555197 0.558231 0.559278
O O1 0.500000 0.250000 0.065073
O O2 0.447654 0.498261 0.081267
O O3 0.500000 0.500000 0.000000
O O4 0.896043 0.250000 0.669580
O O5 0.911149 0.005083 0.608498
O O6 0.844585 0.000550 0.690043
O O7 0.934819 0.996515 0.711119
O O8 0.696582 0.250000 0.727930
O O9 0.685402 0.007626 0.790646
O O10 0.750000 0.000000 0.713024
O O11 0.104375 0.250000 0.940083
O O12 0.144941 0.495452 0.895871
O O13 0.112700 0.500000 0.000000
O O14 0.052568 0.250000 0.227128
O O15 0.096275 0.002786 0.191832
O O16 0.000000 0.000655 0.211621
O O17 0.353291 0.750000 0.162841
O O18 0.570063 0.500000 0.500000
O O19 0.500000 0.505920 0.568290
O O20 0.555159 0.750000 0.559091
#
# Coordination Sequence:
#
# PCOD9501170 Si02
#       7
#     8  16  16  16  16  16  16
#     4   8  16  28  40  60  88 122 164 200 229 270
#     4  10  19  32  51  76 105 136 173 215 258 304
#     4  10  21  38  59  80 102 128 164 209 262 317
#     4  10  19  31  47  67  95 130 168 206 245 293
#     4   9  18  31  46  68 100 137 172 208 253 302
#     4   9  19  33  49  72  99 127 161 202 249 303
#     4   9  18  31  48  74 109 148 186 218 249 289
#
# _framework density 17.890719000000001
#
# number of rings (size 3 to 8) (size 9 to 14) (size 15 to 20)
#    0.000    2.615    0.000    2.769    1.077    5.846 
#    0.000    1.538    0.000    0.923    0.000    6.462 
#    0.000    0.000    0.000    0.000    0.000    0.000 
#
# Total GULP energy -289799.981528 kJ/mol
# GULP energy per Si atom -5573.076568 kJ/mol
# Density = 1.785000 g / cm^3
# Si number density = 17.890719 Si / 1000 Ang^3
#
#
#
# Elastic Constant Matrix: (Units=GPa)
#
#
# Indices 1 2 3 4 5 6 
#
# 1 59.2747 3.5750 20.3246 0.0000 0.0000 0.0000
# 2 3.5750 8.6774 3.2166 0.0000 0.0000 0.0000
# 3 20.3246 3.2166 104.7035 0.0000 0.0000 0.0000
# 4 0.0000 0.0000 0.0000 25.8266 0.0000 0.0000
# 5 0.0000 0.0000 0.0000 0.0000 17.7134 0.0000
# 6 0.0000 0.0000 0.0000 0.0000 0.0000 15.1358
#
#
#
# Elastic Compliance Matrix: (Units=1/GPa)
#
#
# Indices 1 2 3 4 5 6 
#
# 1 0.018411 -0.006332 -0.003379 0.000000 0.000000 0.000000
# 2 -0.006332 0.118747 -0.002419 0.000000 0.000000 0.000000
# 3 -0.003379 -0.002419 0.010281 0.000000 0.000000 0.000000
# 4 0.000000 0.000000 0.000000 0.038720 0.000000 0.000000
# 5 0.000000 0.000000 0.000000 0.000000 0.056454 0.000000
# 6 0.000000 0.000000 0.000000 0.000000 0.000000 0.066069
#
#
# Mechanical properties :
#
#
# Convention : Reuss Voigt Hill
#
# Bulk Modulus (GPa) = 8.11834 25.20977 16.66405
# Shear Modulus (GPa) = 13.36889 21.43779 17.40334
#
# Velocity S-wave (km/s) = 2.73656 3.46535 3.12229
# Velocity P-wave (km/s) = 3.81216 5.48936 4.72576
#
# Compressibility (1/GPa) = 0.12317792
#
# Stress axis : x y z
#
# Youngs Moduli (GPa) = 54.31451 8.42128 97.26607
#
# Poissons Ratio (x) = 0.05333 0.32870
# Poissons Ratio (y) = 0.34395 0.23527
# Poissons Ratio (z) = 0.18355 0.02037
#
# Static dielectric constant tensor:
#      x y z
#    x 1.624110 0.000000 0.000000 
#    y 0.000000 1.605390 0.000000 
#    z 0.000000 0.000000 1.618120 
# 
# From -- ./inp_files/37501.got.cif
#   From: 2010.05.17/outbox.cif.g08.bks.cpg/sg67_19_cif.got.tgz:37501.got - 2010.06.03 18:28:57.
