data_PCOD9501303
_publ_section_title
;
Structure prediction by ZEFSAII (Michael W. Deem and Ramdas Pophale) SiO2 
 PCOD9501303
Probable space group: C M M A
;
_chemical_formula_sum "Si O2"
_cell_formula_units_Z 96
_cell_length_a 14.099836
_cell_length_b 29.746023
_cell_length_c 10.161246
_cell_angle_alpha 90.000000
_cell_angle_beta 90.000000
_cell_angle_gamma 90.000000
_cell_volume 4261.769297
_symmetry_space_group_name_H-M "C M M A"
_symmetry_group_IT_number 67
_symmetry_cell_setting 'orthorhombic'
loop_
_space_group_symop_operation_xyz
x,y,z
-x,1/2-y,z
x,-y,-z
-x,1/2+y,-z
-x,-y,-z
x,1/2+y,-z
-x,y,z
x,1/2-y,z
1/2+x,1/2+y,z
1/2-x,-y,z
1/2+x,1/2-y,-z
1/2-x,y,-z
1/2-x,1/2-y,-z
1/2+x,y,-z
1/2-x,1/2+y,z
1/2+x,-y,z
loop_
_atom_site_type_symbol
_atom_site_label
_atom_site_fract_x
_atom_site_fract_y
_atom_site_fract_z
Si Si1 0.615753 0.301471 0.743509
Si Si2 0.884782 0.378460 0.055682
Si Si3 0.394214 0.029760 0.385084
Si Si4 0.115451 0.698857 0.443390
Si Si5 0.645915 0.521277 0.131974
Si Si6 0.883746 0.619896 0.249636
O O1 0.500000 0.301762 0.744128
O O2 0.644973 0.250000 0.770803
O O3 0.646478 0.336843 0.853802
O O4 0.644002 0.313029 0.593099
O O5 0.853793 0.425598 0.117730
O O6 0.000000 0.378274 0.055293
O O7 0.854151 0.377699 0.902832
O O8 0.500000 0.042851 0.433137
O O9 0.349519 0.075342 0.327149
O O10 0.349966 0.000000 0.500000
O O11 0.402045 0.996569 0.262041
O O12 0.146053 0.750000 0.415832
O O13 0.144297 0.663379 0.333332
O O14 0.000000 0.698994 0.442951
O O15 0.750000 0.500000 0.139152
O O16 0.602606 0.500000 0.000000
O O17 0.000000 0.617349 0.247056
#
# Coordination Sequence:
#
# PCOD9501303 Si02
#       6
#    16  16  16  16  16  16
#     4   8  15  27  45  74 109 140 172 215 269 327
#     4  10  19  31  52  78 106 141 182 226 271 322
#     4  10  21  35  54  79 105 134 174 226 275 327
#     4   8  14  25  41  65 102 140 168 204 262 323
#     4  11  23  38  54  74 105 147 183 226 275 324
#     4   9  17  28  43  70 101 132 171 213 261 316
#
# _framework density 22.525856000000001
#
# number of rings (size 3 to 8) (size 9 to 14) (size 15 to 20)
#    0.000    2.667    1.667    1.500    2.333    1.667 
#    0.000    3.333    0.000    0.000    0.000    3.500 
#    0.000    2.667    0.000    0.000    0.000    0.167 
#
# Total GULP energy -268222.140231 kJ/mol
# GULP energy per Si atom -5587.961255 kJ/mol
# Density = 2.247459 g / cm^3
# Si number density = 22.525856 Si / 1000 Ang^3
#
#
#
# Elastic Constant Matrix: (Units=GPa)
#
#
# Indices 1 2 3 4 5 6 
#
# 1 66.5955 5.7365 5.5621 0.0000 0.0000 0.0000
# 2 5.7365 193.7848 119.0191 0.0000 0.0000 0.0000
# 3 5.5621 119.0191 160.8310 0.0000 0.0000 0.0000
# 4 0.0000 0.0000 0.0000 49.7612 0.0000 0.0000
# 5 0.0000 0.0000 0.0000 0.0000 3.8171 0.0000
# 6 0.0000 0.0000 0.0000 0.0000 0.0000 0.0771
#
#
#
# Elastic Compliance Matrix: (Units=1/GPa)
#
#
# Indices 1 2 3 4 5 6 
#
# 1 0.015065 -0.000231 -0.000350 0.000000 0.000000 0.000000
# 2 -0.000231 0.009464 -0.006995 0.000000 0.000000 0.000000
# 3 -0.000350 -0.006995 0.011407 0.000000 0.000000 0.000000
# 4 0.000000 0.000000 0.000000 0.020096 0.000000 0.000000
# 5 0.000000 0.000000 0.000000 0.000000 0.261982 0.000000
# 6 0.000000 0.000000 0.000000 0.000000 0.000000 12.971430
#
#
# Mechanical properties :
#
#
# Convention : Reuss Voigt Hill
#
# Bulk Modulus (GPa) = 48.11727 75.76075 61.93901
# Shear Modulus (GPa) = 0.37561 30.12398 15.24980
#
# Velocity S-wave (km/s) = 0.40879 3.66089 2.60473
# Velocity P-wave (km/s) = 4.65082 7.18159 6.05001
#
# Compressibility (1/GPa) = 0.02078256
#
# Stress axis : x y z
#
# Youngs Moduli (GPa) = 66.37831 105.66805 87.66904
#
# Poissons Ratio (x) = 0.02440 0.03069
# Poissons Ratio (y) = 0.01533 0.61327
# Poissons Ratio (z) = 0.02324 0.73918
#
# Static dielectric constant tensor:
#      x y z
#    x 1.932410 0.000000 0.000000 
#    y 0.000000 1.780750 0.000000 
#    z 0.000000 0.000000 2.258100 
# 
# From -- ./inp_files/11433.got.cif
#   From: 2010.05.17/outbox.cif.g08.bks.cpg/sg67_6_cif.got.tgz:11433.got - 2010.06.03 18:28:57.
