data_PCOD9501757
_publ_section_title
;
Structure prediction by ZEFSAII (Michael W. Deem and Ramdas Pophale) SiO2 
 PCOD9501757
Probable space group: C M M A
;
_chemical_formula_sum "Si O2"
_cell_formula_units_Z 96
_cell_length_a 31.199718
_cell_length_b 34.272897
_cell_length_c 5.051988
_cell_angle_alpha 90.000000
_cell_angle_beta 90.000000
_cell_angle_gamma 90.000000
_cell_volume 5402.114621
_symmetry_space_group_name_H-M "C M M A"
_symmetry_group_IT_number 67
_symmetry_cell_setting 'orthorhombic'
loop_
_space_group_symop_operation_xyz
x,y,z
-x,1/2-y,z
x,-y,-z
-x,1/2+y,-z
-x,-y,-z
x,1/2+y,-z
-x,y,z
x,1/2-y,z
1/2+x,1/2+y,z
1/2-x,-y,z
1/2+x,1/2-y,-z
1/2-x,y,-z
1/2-x,1/2-y,-z
1/2+x,y,-z
1/2-x,1/2+y,z
1/2+x,-y,z
loop_
_atom_site_type_symbol
_atom_site_label
_atom_site_fract_x
_atom_site_fract_y
_atom_site_fract_z
Si Si1 0.590828 0.647927 0.111592
Si Si2 0.000000 0.131980 0.291364
Si Si3 0.374225 0.606308 0.614237
Si Si4 0.000000 0.576991 0.202157
Si Si5 0.169580 0.204182 0.127487
Si Si6 0.295642 0.837565 0.627932
Si Si7 0.412844 0.472325 0.249987
O O1 0.543100 0.655211 0.216476
O O2 0.609651 0.615982 0.318827
O O3 0.622461 0.684831 0.108484
O O4 0.595110 0.629618 0.820140
O O5 0.000000 0.111667 0.578786
O O6 0.000000 0.095892 0.086804
O O7 0.327395 0.625394 0.636880
O O8 0.378134 0.561512 0.694979
O O9 0.957896 0.550539 0.227531
O O10 0.169475 0.250000 0.078866
O O11 0.185160 0.193776 0.421243
O O12 0.200102 0.182192 0.915694
O O13 0.250000 0.847736 0.500000
O O14 0.415278 0.500000 0.500000
O O15 0.404948 0.500000 0.000000
#
# Coordination Sequence:
#
# PCOD9501757 Si02
#       7
#    16   8  16   8  16  16  16
#     4  10  19  34  53  73 102 145 184 213 254 309
#     4  12  18  33  55  72 100 145 190 221 250 302
#     4  10  20  37  52  74 105 139 177 215 260 319
#     4  12  22  33  50  76 109 135 180 229 261 308
#     4  10  21  35  54  82 115 138 166 217 273 319
#     4  10  21  36  59  83 104 137 176 214 264 325
#     4  12  22  34  50  76 110 141 172 218 273 316
#
# _framework density 17.770818999999999
#
# number of rings (size 3 to 8) (size 9 to 14) (size 15 to 20)
#    0.000    1.333    3.333    3.500    0.000    2.000 
#    0.000    0.417    0.000    0.500    0.000    9.333 
#    0.000    0.000    0.000    0.000    0.000    0.000 
#
# Total GULP energy -267889.570142 kJ/mol
# GULP energy per Si atom -5581.032711 kJ/mol
# Density = 1.773037 g / cm^3
# Si number density = 17.770819 Si / 1000 Ang^3
#
#
#
# Elastic Constant Matrix: (Units=GPa)
#
#
# Indices 1 2 3 4 5 6 
#
# 1 104.0103 54.7390 4.1159 0.0000 0.0000 0.0000
# 2 54.7390 71.1299 15.6716 0.0000 0.0000 0.0000
# 3 4.1159 15.6716 77.8248 0.0000 0.0000 0.0000
# 4 0.0000 0.0000 0.0000 17.5028 0.0000 0.0000
# 5 0.0000 0.0000 0.0000 0.0000 23.6631 0.0000
# 6 0.0000 0.0000 0.0000 0.0000 0.0000 9.9140
#
#
#
# Elastic Compliance Matrix: (Units=1/GPa)
#
#
# Indices 1 2 3 4 5 6 
#
# 1 0.016384 -0.012994 0.001750 0.000000 0.000000 0.000000
# 2 -0.012994 0.025017 -0.004350 0.000000 0.000000 0.000000
# 3 0.001750 -0.004350 0.013633 0.000000 0.000000 0.000000
# 4 0.000000 0.000000 0.000000 0.057134 0.000000 0.000000
# 5 0.000000 0.000000 0.000000 0.000000 0.042260 0.000000
# 6 0.000000 0.000000 0.000000 0.000000 0.000000 0.100868
#
#
# Mechanical properties :
#
#
# Convention : Reuss Voigt Hill
#
# Bulk Modulus (GPa) = 41.93755 44.66869 43.30312
# Shear Modulus (GPa) = 16.98187 22.11187 19.54687
#
# Velocity S-wave (km/s) = 3.09464 3.53126 3.32014
# Velocity P-wave (km/s) = 6.03485 6.46660 6.25445
#
# Compressibility (1/GPa) = 0.02384498
#
# Stress axis : x y z
#
# Youngs Moduli (GPa) = 61.03655 39.97302 73.35212
#
# Poissons Ratio (x) = 0.51940 -0.12837
# Poissons Ratio (y) = 0.79310 0.31912
# Poissons Ratio (z) = -0.10682 0.17390
#
# Static dielectric constant tensor:
#      x y z
#    x 1.663580 0.000000 0.000000 
#    y 0.000000 1.569460 0.000000 
#    z 0.000000 0.000000 1.601820 
# 
# From -- ./inp_files/4908.got.cif
#   From: 2010.05.17/outbox.cif.g08.bks.cpg/sg67_3_cif.got.tgz:4908.got - 2010.06.03 18:28:57.
