data_PCOD9501563
_publ_section_title
;
Structure prediction by ZEFSAII (Michael W. Deem and Ramdas Pophale) SiO2 
 PCOD9501563
Probable space group: C M M A
;
_chemical_formula_sum "Si O2"
_cell_formula_units_Z 104
_cell_length_a 25.397212
_cell_length_b 9.080251
_cell_length_c 31.455311
_cell_angle_alpha 90.000000
_cell_angle_beta 90.000000
_cell_angle_gamma 90.000000
_cell_volume 7254.005512
_symmetry_space_group_name_H-M "C M M A"
_symmetry_group_IT_number 67
_symmetry_cell_setting 'orthorhombic'
loop_
_space_group_symop_operation_xyz
x,y,z
-x,1/2-y,z
x,-y,-z
-x,1/2+y,-z
-x,-y,-z
x,1/2+y,-z
-x,y,z
x,1/2-y,z
1/2+x,1/2+y,z
1/2-x,-y,z
1/2+x,1/2-y,-z
1/2-x,y,-z
1/2-x,1/2-y,-z
1/2+x,y,-z
1/2-x,1/2+y,z
1/2+x,-y,z
loop_
_atom_site_type_symbol
_atom_site_label
_atom_site_fract_x
_atom_site_fract_y
_atom_site_fract_z
Si Si1 0.438478 0.926520 0.308195
Si Si2 0.436037 0.577234 0.871177
Si Si3 0.692761 0.427797 0.455241
Si Si4 0.435826 0.080168 0.956954
Si Si5 0.063558 0.924179 0.222102
Si Si6 0.895439 0.072345 0.399876
Si Si7 0.500000 0.925685 0.454134
O O1 0.500000 0.970859 0.313902
O O2 0.437997 0.750000 0.304291
O O3 0.407177 0.964906 0.350829
O O4 0.417509 0.995782 0.264519
O O5 0.500000 0.567620 0.870905
O O6 0.423237 0.750000 0.874770
O O7 0.417476 0.493166 0.913028
O O8 0.417987 0.523097 0.824556
O O9 0.674498 0.500000 0.500000
O O10 0.695849 0.250000 0.458426
O O11 0.750000 0.500000 0.447432
O O12 0.652433 0.481859 0.419555
O O13 0.500000 0.072506 0.956659
O O14 0.420918 0.250000 0.958320
O O15 0.418337 0.000000 0.000000
O O16 0.074135 0.750000 0.224807
O O17 0.000000 0.942261 0.222073
O O18 0.886403 0.250000 0.402982
O O19 0.947952 0.037891 0.427048
O O20 0.500000 0.750000 0.460010
O O21 0.500000 0.000000 0.500000
#
# Coordination Sequence:
#
# PCOD9501563 Si02
#       7
#    16  16  16  16  16  16   8
#     4   9  16  27  42  59  81 109 135 160 195 236
#     4   8  13  21  30  39  54  77 105 139 181 224
#     4  11  22  37  55  73  90 112 140 172 207 244
#     4   9  15  20  26  36  50  69  96 133 178 227
#     4   8  14  23  34  48  67  91 119 153 189 227
#     4  10  19  33  49  67  92 118 142 171 204 243
#     4  10  20  32  46  64  90 118 142 166 199 240
#
# _framework density 14.336907
#
# number of rings (size 3 to 8) (size 9 to 14) (size 15 to 20)
#    0.000    2.769    0.769    3.692    0.000    4.923 
#    0.000    3.077    0.000    0.000    0.000    0.000 
#    0.000    0.000    0.000    0.000    0.000    0.000 
#
# Total GULP energy -289487.217551 kJ/mol
# GULP energy per Si atom -5567.061876 kJ/mol
# Density = 1.430428 g / cm^3
# Si number density = 14.336907 Si / 1000 Ang^3
#
#
#
# Elastic Constant Matrix: (Units=GPa)
#
#
# Indices 1 2 3 4 5 6 
#
# 1 21.9526 21.3977 32.1060 0.0000 0.0000 0.0000
# 2 21.3977 65.1938 71.0921 0.0000 0.0000 0.0000
# 3 32.1060 71.0921 176.4257 0.0000 0.0000 0.0000
# 4 0.0000 0.0000 0.0000 30.1704 0.0000 0.0000
# 5 0.0000 0.0000 0.0000 0.0000 6.0377 0.0000
# 6 0.0000 0.0000 0.0000 0.0000 0.0000 11.3942
#
#
#
# Elastic Compliance Matrix: (Units=1/GPa)
#
#
# Indices 1 2 3 4 5 6 
#
# 1 0.070664 -0.016358 -0.006268 0.000000 0.000000 0.000000
# 2 -0.016358 0.031149 -0.009575 0.000000 0.000000 0.000000
# 3 -0.006268 -0.009575 0.010667 0.000000 0.000000 0.000000
# 4 0.000000 0.000000 0.000000 0.033145 0.000000 0.000000
# 5 0.000000 0.000000 0.000000 0.000000 0.165627 0.000000
# 6 0.000000 0.000000 0.000000 0.000000 0.000000 0.087764
#
#
# Mechanical properties :
#
#
# Convention : Reuss Voigt Hill
#
# Bulk Modulus (GPa) = 20.79940 56.97375 38.88657
# Shear Modulus (GPa) = 10.42874 18.78554 14.60714
#
# Velocity S-wave (km/s) = 2.69997 3.62372 3.19540
# Velocity P-wave (km/s) = 4.92533 7.57192 6.38721
#
# Compressibility (1/GPa) = 0.04807832
#
# Stress axis : x y z
#
# Youngs Moduli (GPa) = 14.15145 32.10374 93.74719
#
# Poissons Ratio (x) = 0.52516 0.58759
# Poissons Ratio (y) = 0.23149 0.89762
# Poissons Ratio (z) = 0.08870 0.30739
#
# Static dielectric constant tensor:
#      x y z
#    x 1.445300 0.000000 0.000000 
#    y 0.000000 1.479400 0.000000 
#    z 0.000000 0.000000 1.498740 
# 
# From -- ./inp_files/45979.got.cif
#   From: 2010.05.17/outbox.cif.g08.bks.cpg/sg67_23_cif.got.tgz:45979.got - 2010.06.03 18:28:57.
