data_PCOD9501018
_publ_section_title
;
Structure prediction by ZEFSAII (Michael W. Deem and Ramdas Pophale) SiO2 
 PCOD9501018
Probable space group: C M M A
;
_chemical_formula_sum "Si O2"
_cell_formula_units_Z 104
_cell_length_a 8.832834
_cell_length_b 26.136100
_cell_length_c 28.308001
_cell_angle_alpha 90.000000
_cell_angle_beta 90.000000
_cell_angle_gamma 90.000000
_cell_volume 6535.067143
_symmetry_space_group_name_H-M "C M M A"
_symmetry_group_IT_number 67
_symmetry_cell_setting 'orthorhombic'
loop_
_space_group_symop_operation_xyz
x,y,z
-x,1/2-y,z
x,-y,-z
-x,1/2+y,-z
-x,-y,-z
x,1/2+y,-z
-x,y,z
x,1/2-y,z
1/2+x,1/2+y,z
1/2-x,-y,z
1/2+x,1/2-y,-z
1/2-x,y,-z
1/2-x,1/2-y,-z
1/2+x,y,-z
1/2-x,1/2+y,z
1/2+x,-y,z
loop_
_atom_site_type_symbol
_atom_site_label
_atom_site_fract_x
_atom_site_fract_y
_atom_site_fract_z
Si Si1 0.671187 0.308883 0.221443
Si Si2 0.318472 0.057518 0.452607
Si Si3 0.676595 0.658672 0.886977
Si Si4 0.680146 0.056373 0.349616
Si Si5 0.818439 0.250000 0.052323
Si Si6 0.182887 0.444701 0.151152
Si Si7 0.324285 0.595169 0.254512
O O1 0.500000 0.325358 0.235256
O O2 0.690495 0.250000 0.233728
O O3 0.680373 0.315889 0.165064
O O4 0.794449 0.345580 0.243735
O O5 0.500000 0.054539 0.457077
O O6 0.250000 0.082109 0.500000
O O7 0.280239 0.080430 0.400985
O O8 0.250000 0.000000 0.451179
O O9 0.500000 0.652997 0.900620
O O10 0.759434 0.698780 0.921108
O O11 0.752588 0.602814 0.879545
O O12 0.500000 0.052572 0.348080
O O13 0.737819 0.082245 0.302177
O O14 0.750000 0.000000 0.349124
O O15 0.000000 0.250000 0.051544
O O16 0.750000 0.250000 0.000000
O O17 0.250000 0.500000 0.137775
O O18 0.227331 0.433360 0.206214
O O19 0.000000 0.444878 0.148637
O O20 0.500000 0.583164 0.260945
#
# Coordination Sequence:
#
# PCOD9501018 Si02
#       7
#    16  16  16  16   8  16  16
#     4   9  17  31  50  70  95 127 158 192 236 285
#     4   9  16  25  38  55  75 104 143 185 230 277
#     4  10  19  35  56  79 105 135 169 207 251 297
#     4  10  19  29  41  58  84 118 153 191 233 279
#     4  12  24  38  58  84 112 138 168 210 253 298
#     4  10  20  33  49  74 103 137 175 210 246 290
#     4  10  20  30  43  66  94 126 162 198 237 281
#
# _framework density 15.914144
#
# number of rings (size 3 to 8) (size 9 to 14) (size 15 to 20)
#    0.000    2.154    0.769    3.923    0.000    5.846 
#    0.000    0.000    0.000    0.462    0.000    3.231 
#    0.000    0.615    0.000    2.000    0.000    2.769 
#
# Total GULP energy -289706.783227 kJ/mol
# GULP energy per Si atom -5571.284293 kJ/mol
# Density = 1.587792 g / cm^3
# Si number density = 15.914144 Si / 1000 Ang^3
#
#
#
# Elastic Constant Matrix: (Units=GPa)
#
#
# Indices 1 2 3 4 5 6 
#
# 1 83.5013 38.0643 52.4532 0.0000 0.0000 0.0000
# 2 38.0643 83.0067 43.8160 0.0000 0.0000 0.0000
# 3 52.4532 43.8160 103.1085 0.0000 0.0000 0.0000
# 4 0.0000 0.0000 0.0000 61.4677 0.0000 0.0000
# 5 0.0000 0.0000 0.0000 0.0000 26.8114 0.0000
# 6 0.0000 0.0000 0.0000 0.0000 0.0000 25.9173
#
#
#
# Elastic Compliance Matrix: (Units=1/GPa)
#
#
# Indices 1 2 3 4 5 6 
#
# 1 0.018885 -0.004627 -0.007641 0.000000 0.000000 0.000000
# 2 -0.004627 0.016665 -0.004728 0.000000 0.000000 0.000000
# 3 -0.007641 -0.004728 0.015595 0.000000 0.000000 0.000000
# 4 0.000000 0.000000 0.000000 0.016269 0.000000 0.000000
# 5 0.000000 0.000000 0.000000 0.000000 0.037298 0.000000
# 6 0.000000 0.000000 0.000000 0.000000 0.000000 0.038584
#
#
# Mechanical properties :
#
#
# Convention : Reuss Voigt Hill
#
# Bulk Modulus (GPa) = 58.29876 59.80929 59.05402
# Shear Modulus (GPa) = 27.32190 31.85813 29.59002
#
# Velocity S-wave (km/s) = 4.14796 4.47909 4.31670
# Velocity P-wave (km/s) = 7.72357 8.02581 7.87614
#
# Compressibility (1/GPa) = 0.01715302
#
# Stress axis : x y z
#
# Youngs Moduli (GPa) = 52.95280 60.00761 64.12410
#
# Poissons Ratio (x) = 0.27763 0.48997
# Poissons Ratio (y) = 0.24499 0.30318
# Poissons Ratio (z) = 0.40461 0.28371
#
# Static dielectric constant tensor:
#      x y z
#    x 1.540110 0.000000 0.000000 
#    y 0.000000 1.542250 0.000000 
#    z 0.000000 0.000000 1.561740 
# 
# From -- ./inp_files/42752.got.cif
#   From: 2010.05.17/outbox.cif.g08.bks.cpg/sg67_22_cif.got.tgz:42752.got - 2010.06.03 18:28:57.
