data_PCOD9501299
_publ_section_title
;
Structure prediction by ZEFSAII (Michael W. Deem and Ramdas Pophale) SiO2 
 PCOD9501299
Probable space group: C M M A
;
_chemical_formula_sum "Si O2"
_cell_formula_units_Z 104
_cell_length_a 27.472112
_cell_length_b 8.579923
_cell_length_c 21.552808
_cell_angle_alpha 90.000000
_cell_angle_beta 90.000000
_cell_angle_gamma 90.000000
_cell_volume 5080.182321
_symmetry_space_group_name_H-M "C M M A"
_symmetry_group_IT_number 67
_symmetry_cell_setting 'orthorhombic'
loop_
_space_group_symop_operation_xyz
x,y,z
-x,1/2-y,z
x,-y,-z
-x,1/2+y,-z
-x,-y,-z
x,1/2+y,-z
-x,y,z
x,1/2-y,z
1/2+x,1/2+y,z
1/2-x,-y,z
1/2+x,1/2-y,-z
1/2-x,y,-z
1/2-x,1/2-y,-z
1/2+x,y,-z
1/2-x,1/2+y,z
1/2+x,-y,z
loop_
_atom_site_type_symbol
_atom_site_label
_atom_site_fract_x
_atom_site_fract_y
_atom_site_fract_z
Si Si1 0.556459 0.429872 0.407838
Si Si2 0.903820 0.062982 0.853154
Si Si3 0.151108 0.928333 0.563751
Si Si4 0.000000 0.438303 0.930383
Si Si5 0.803062 0.934874 0.314499
Si Si6 0.804264 0.435781 0.176843
Si Si7 0.557271 0.572492 0.274061
O O1 0.500000 0.452893 0.424184
O O2 0.570088 0.250000 0.420675
O O3 0.592815 0.551511 0.438664
O O4 0.561202 0.465149 0.334403
O O5 0.901832 0.250000 0.853774
O O6 0.949513 0.012681 0.896352
O O7 0.849289 0.998322 0.864462
O O8 0.917676 0.001591 0.785072
O O9 0.165622 0.750000 0.569501
O O10 0.171323 0.000000 0.500000
O O11 0.165471 0.018867 0.626074
O O12 0.000000 0.250000 0.929785
O O13 0.000000 0.500000 0.000000
O O14 0.802993 0.750000 0.306049
O O15 0.750000 0.000000 0.330082
O O16 0.814921 0.011265 0.248055
O O17 0.803012 0.250000 0.174464
O O18 0.750000 0.500000 0.161794
O O19 0.500000 0.582159 0.259967
O O20 0.574895 0.750000 0.286588
#
# Coordination Sequence:
#
# PCOD9501299 Si02
#       7
#    16  16  16   8  16  16  16
#     4  10  21  37  56  78 107 144 184 233 292 354
#     4  11  21  37  59  88 124 166 207 252 301 358
#     4  12  25  41  58  78 105 141 189 240 292 355
#     4  10  24  42  64  92 130 174 217 256 301 350
#     4  11  22  40  63  88 117 150 187 236 295 356
#     4  11  22  38  61  93 126 162 201 250 307 365
#     4  10  19  31  51  82 115 148 189 240 296 355
#
# _framework density 20.471706999999999
#
# number of rings (size 3 to 8) (size 9 to 14) (size 15 to 20)
#    0.000    1.231    0.769    7.385    0.000    3.385 
#    0.000    1.538    0.000    0.462    0.000    3.231 
#    0.000    0.000    0.000    0.000    0.000    0.000 
#
# Total GULP energy -290562.639176 kJ/mol
# GULP energy per Si atom -5587.743061 kJ/mol
# Density = 2.042511 g / cm^3
# Si number density = 20.471707 Si / 1000 Ang^3
#
#
#
# Elastic Constant Matrix: (Units=GPa)
#
#
# Indices 1 2 3 4 5 6 
#
# 1 133.7622 39.7790 54.7286 0.0000 0.0000 0.0000
# 2 39.7790 122.0673 14.7847 0.0000 0.0000 0.0000
# 3 54.7286 14.7847 37.0633 0.0000 0.0000 0.0000
# 4 0.0000 0.0000 0.0000 26.0626 0.0000 0.0000
# 5 0.0000 0.0000 0.0000 0.0000 11.4560 0.0000
# 6 0.0000 0.0000 0.0000 0.0000 0.0000 34.0915
#
#
#
# Elastic Compliance Matrix: (Units=1/GPa)
#
#
# Indices 1 2 3 4 5 6 
#
# 1 0.019930 -0.003079 -0.028201 0.000000 0.000000 0.000000
# 2 -0.003079 0.009084 0.000923 0.000000 0.000000 0.000000
# 3 -0.028201 0.000923 0.068255 0.000000 0.000000 0.000000
# 4 0.000000 0.000000 0.000000 0.038369 0.000000 0.000000
# 5 0.000000 0.000000 0.000000 0.000000 0.087291 0.000000
# 6 0.000000 0.000000 0.000000 0.000000 0.000000 0.029333
#
#
# Mechanical properties :
#
#
# Convention : Reuss Voigt Hill
#
# Bulk Modulus (GPa) = 27.35620 56.83082 42.09351
# Shear Modulus (GPa) = 15.37708 26.56205 20.96956
#
# Velocity S-wave (km/s) = 2.74366 3.60599 3.20397
# Velocity P-wave (km/s) = 4.84034 6.72001 5.85608
#
# Compressibility (1/GPa) = 0.03655478
#
# Stress axis : x y z
#
# Youngs Moduli (GPa) = 50.17585 110.08610 14.65104
#
# Poissons Ratio (x) = 0.33896 0.41317
# Poissons Ratio (y) = 0.15449 -0.01352
# Poissons Ratio (z) = 1.41500 -0.10162
#
# Static dielectric constant tensor:
#      x y z
#    x 1.794200 0.000000 0.000000 
#    y 0.000000 1.703260 0.000000 
#    z 0.000000 0.000000 1.705170 
# 
# From -- ./inp_files/37312.got.cif
#   From: 2010.05.17/outbox.cif.g08.bks.cpg/sg67_19_cif.got.tgz:37312.got - 2010.06.03 18:28:57.
