data_PCOD9501288
_publ_section_title
;
Structure prediction by ZEFSAII (Michael W. Deem and Ramdas Pophale) SiO2 
 PCOD9501288
Probable space group: C M M A
;
_chemical_formula_sum "Si O2"
_cell_formula_units_Z 64
_cell_length_a 31.367920
_cell_length_b 11.170352
_cell_length_c 8.936850
_cell_angle_alpha 90.000000
_cell_angle_beta 90.000000
_cell_angle_gamma 90.000000
_cell_volume 3131.389198
_symmetry_space_group_name_H-M "C M M A"
_symmetry_group_IT_number 67
_symmetry_cell_setting 'orthorhombic'
loop_
_space_group_symop_operation_xyz
x,y,z
-x,1/2-y,z
x,-y,-z
-x,1/2+y,-z
-x,-y,-z
x,1/2+y,-z
-x,y,z
x,1/2-y,z
1/2+x,1/2+y,z
1/2-x,-y,z
1/2+x,1/2-y,-z
1/2-x,y,-z
1/2-x,1/2-y,-z
1/2+x,y,-z
1/2-x,1/2+y,z
1/2+x,-y,z
loop_
_atom_site_type_symbol
_atom_site_label
_atom_site_fract_x
_atom_site_fract_y
_atom_site_fract_z
Si Si1 0.412888 0.379229 0.845753
Si Si2 0.949370 0.619665 0.181156
Si Si3 0.188039 0.382534 0.090231
Si Si4 0.702252 0.379711 0.564406
O O1 0.420136 0.250000 0.770708
O O2 0.426808 0.499367 0.761560
O O3 0.363226 0.386938 0.888866
O O4 0.438358 0.376955 0.003348
O O5 0.935388 0.750000 0.241207
O O6 0.000000 0.609126 0.199327
O O7 0.198267 0.250000 0.025290
O O8 0.205804 0.388944 0.257492
O O9 0.200978 0.500000 0.000000
O O10 0.681088 0.500000 0.500000
O O11 0.681760 0.250000 0.529645
O O12 0.750000 0.376334 0.500000
#
# Coordination Sequence:
#
# PCOD9501288 Si02
#       4
#    16  16  16  16
#     4   9  15  23  36  58  90 124 158 196 238 284
#     4   9  15  22  34  55  91 135 165 188 233 293
#     4  10  19  31  51  78 103 129 164 211 260 304
#     4   9  19  37  57  75  99 132 168 206 252 309
#
# _framework density 20.438213999999999
#
# number of rings (size 3 to 8) (size 9 to 14) (size 15 to 20)
#    0.000    2.750    2.500    1.500    0.000    2.500 
#    0.000    2.500    0.000   13.500    0.000    0.000 
#    0.000    4.000    0.000   11.500    0.000    8.500 
#
# Total GULP energy -178171.596632 kJ/mol
# GULP energy per Si atom -5567.862395 kJ/mol
# Density = 2.039170 g / cm^3
# Si number density = 20.438214 Si / 1000 Ang^3
#
#
#
# Elastic Constant Matrix: (Units=GPa)
#
#
# Indices 1 2 3 4 5 6 
#
# 1 48.9347 35.8852 2.8366 0.0000 0.0000 0.0000
# 2 35.8852 287.2207 46.2177 0.0000 0.0000 0.0000
# 3 2.8366 46.2177 30.1041 0.0000 0.0000 0.0000
# 4 0.0000 0.0000 0.0000 21.2241 0.0000 0.0000
# 5 0.0000 0.0000 0.0000 0.0000 -6.6473 0.0000
# 6 0.0000 0.0000 0.0000 0.0000 0.0000 -144.1760
#
#
#
# Elastic Compliance Matrix: (Units=1/GPa)
#
#
# Indices 1 2 3 4 5 6 
#
# 1 0.022691 -0.003308 0.002941 0.000000 0.000000 0.000000
# 2 -0.003308 0.005106 -0.007528 0.000000 0.000000 0.000000
# 3 0.002941 -0.007528 0.044498 0.000000 0.000000 0.000000
# 4 0.000000 0.000000 0.000000 0.047116 0.000000 0.000000
# 5 0.000000 0.000000 0.000000 0.000000 -0.150437 0.000000
# 6 0.000000 0.000000 0.000000 0.000000 0.000000 -0.006936
#
#
# Mechanical properties :
#
#
# Convention : Reuss Voigt Hill
#
# Bulk Modulus (GPa) = 17.69752 59.57093 38.63423
# Shear Modulus (GPa) = -1498.63027 -7.16518 -752.89773
#
# Velocity S-wave (km/s) = -27.10795 -1.87440 -19.21398
# Velocity P-wave (km/s) = 31.16264 4.95233 21.75528
#
# Compressibility (1/GPa) = 0.05650509
#
# Stress axis : x y z
#
# Youngs Moduli (GPa) = 44.07045 195.83687 22.47289
#
# Poissons Ratio (x) = 0.64787 -0.06609
# Poissons Ratio (y) = 0.14579 0.16917
# Poissons Ratio (z) = -0.12961 1.47422
#
# Static dielectric constant tensor:
#      x y z
#    x 1.706260 0.000000 0.000000 
#    y 0.000000 1.880430 0.000000 
#    z 0.000000 0.000000 1.668830 
# 
# From -- ./inp_files/6716.got.cif
#   From: 2010.05.17/outbox.cif.g08.bks.cpg/sg67_4_cif.got.tgz:6716.got - 2010.06.03 18:28:57.
