data_PCOD9501255
_publ_section_title
;
Structure prediction by ZEFSAII (Michael W. Deem and Ramdas Pophale) SiO2 
 PCOD9501255
Probable space group: C M M A
;
_chemical_formula_sum "Si O2"
_cell_formula_units_Z 96
_cell_length_a 8.988390
_cell_length_b 18.665515
_cell_length_c 32.413816
_cell_angle_alpha 90.000000
_cell_angle_beta 90.000000
_cell_angle_gamma 90.000000
_cell_volume 5438.160830
_symmetry_space_group_name_H-M "C M M A"
_symmetry_group_IT_number 67
_symmetry_cell_setting 'orthorhombic'
loop_
_space_group_symop_operation_xyz
x,y,z
-x,1/2-y,z
x,-y,-z
-x,1/2+y,-z
-x,-y,-z
x,1/2+y,-z
-x,y,z
x,1/2-y,z
1/2+x,1/2+y,z
1/2-x,-y,z
1/2+x,1/2-y,-z
1/2-x,y,-z
1/2-x,1/2-y,-z
1/2+x,y,-z
1/2-x,1/2+y,z
1/2+x,-y,z
loop_
_atom_site_type_symbol
_atom_site_label
_atom_site_fract_x
_atom_site_fract_y
_atom_site_fract_z
Si Si1 0.672150 0.337285 0.042043
Si Si2 0.822167 0.078904 0.617475
Si Si3 0.320987 0.421007 0.791488
Si Si4 0.678035 0.920665 0.709278
Si Si5 0.821805 0.833499 0.873385
Si Si6 0.674744 0.835984 0.456812
O O1 0.500000 0.357019 0.041679
O O2 0.682044 0.250000 0.042013
O O3 0.748312 0.361194 0.084495
O O4 0.750000 0.362176 0.000000
O O5 0.792754 0.109864 0.663600
O O6 0.754087 0.126767 0.581564
O O7 0.000000 0.072700 0.613036
O O8 0.750000 0.000000 0.615142
O O9 0.500000 0.425845 0.787959
O O10 0.250000 0.500000 0.795266
O O11 0.253576 0.386892 0.749609
O O12 0.282273 0.376848 0.832405
O O13 0.500000 0.925473 0.714958
O O14 0.750000 0.000000 0.707670
O O15 0.779999 0.750000 0.868136
O O16 0.000000 0.836598 0.878315
O O17 0.500000 0.853766 0.457340
O O18 0.689565 0.750000 0.453386
O O19 0.750000 0.857946 0.500000
#
# Coordination Sequence:
#
# PCOD9501255 Si02
#       6
#    16  16  16  16  16  16
#     4   9  16  26  43  67  93 122 155 192 235 283
#     4  10  20  34  54  79 105 132 166 210 254 295
#     4  10  19  31  50  72  96 128 163 199 238 286
#     4   9  17  30  49  72  98 128 162 201 242 286
#     4   9  18  32  48  68  95 125 158 197 239 281
#     4  10  21  37  56  77 103 136 171 206 247 298
#
# _framework density 17.653027000000002
#
# number of rings (size 3 to 8) (size 9 to 14) (size 15 to 20)
#    0.000    2.500    0.000    3.500    0.000    6.667 
#    0.000    2.500    0.000    3.500    0.000    3.500 
#    0.000    0.000    0.000    0.000    0.000    0.000 
#
# Total GULP energy -267565.190081 kJ/mol
# GULP energy per Si atom -5574.274793 kJ/mol
# Density = 1.761285 g / cm^3
# Si number density = 17.653027 Si / 1000 Ang^3
#
#
#
# Elastic Constant Matrix: (Units=GPa)
#
#
# Indices 1 2 3 4 5 6 
#
# 1 96.4935 30.6354 98.4885 0.0000 0.0000 0.0000
# 2 30.6354 20.6222 49.8435 0.0000 0.0000 0.0000
# 3 98.4885 49.8435 226.9661 0.0000 0.0000 0.0000
# 4 0.0000 0.0000 0.0000 28.5505 0.0000 0.0000
# 5 0.0000 0.0000 0.0000 0.0000 38.9024 0.0000
# 6 0.0000 0.0000 0.0000 0.0000 0.0000 18.0413
#
#
#
# Elastic Compliance Matrix: (Units=1/GPa)
#
#
# Indices 1 2 3 4 5 6 
#
# 1 0.022040 -0.020515 -0.005059 0.000000 0.000000 0.000000
# 2 -0.020515 0.122441 -0.017987 0.000000 0.000000 0.000000
# 3 -0.005059 -0.017987 0.010551 0.000000 0.000000 0.000000
# 4 0.000000 0.000000 0.000000 0.035026 0.000000 0.000000
# 5 0.000000 0.000000 0.000000 0.000000 0.025705 0.000000
# 6 0.000000 0.000000 0.000000 0.000000 0.000000 0.055428
#
#
# Mechanical properties :
#
#
# Convention : Reuss Voigt Hill
#
# Bulk Modulus (GPa) = 14.72500 78.00184 46.36342
# Shear Modulus (GPa) = 13.12510 28.10648 20.61579
#
# Velocity S-wave (km/s) = 2.72969 3.99452 3.42106
# Velocity P-wave (km/s) = 4.27719 8.09672 6.47500
#
# Compressibility (1/GPa) = 0.06791173
#
# Stress axis : x y z
#
# Youngs Moduli (GPa) = 45.37259 8.16717 94.77625
#
# Poissons Ratio (x) = 0.16755 0.47944
# Poissons Ratio (y) = 0.93080 1.70475
# Poissons Ratio (z) = 0.22952 0.14690
#
# Static dielectric constant tensor:
#      x y z
#    x 1.590630 0.000000 0.000000 
#    y 0.000000 1.585350 0.000000 
#    z 0.000000 0.000000 1.625520 
# 
# From -- ./inp_files/40774.got.cif
#   From: 2010.05.17/outbox.cif.g08.bks.cpg/sg67_21_cif.got.tgz:40774.got - 2010.06.03 18:28:57.
