data_PCOD9501373
_publ_section_title
;
Structure prediction by ZEFSAII (Michael W. Deem and Ramdas Pophale) SiO2 
 PCOD9501373
Probable space group: C M M A
;
_chemical_formula_sum "Si O2"
_cell_formula_units_Z 116
_cell_length_a 7.683067
_cell_length_b 30.296031
_cell_length_c 23.336619
_cell_angle_alpha 90.000000
_cell_angle_beta 90.000000
_cell_angle_gamma 90.000000
_cell_volume 5431.981633
_symmetry_space_group_name_H-M "C M M A"
_symmetry_group_IT_number 67
_symmetry_cell_setting 'orthorhombic'
loop_
_space_group_symop_operation_xyz
x,y,z
-x,1/2-y,z
x,-y,-z
-x,1/2+y,-z
-x,-y,-z
x,1/2+y,-z
-x,y,z
x,1/2-y,z
1/2+x,1/2+y,z
1/2-x,-y,z
1/2+x,1/2-y,-z
1/2-x,y,-z
1/2-x,1/2-y,-z
1/2+x,y,-z
1/2-x,1/2+y,z
1/2+x,-y,z
loop_
_atom_site_type_symbol
_atom_site_label
_atom_site_fract_x
_atom_site_fract_y
_atom_site_fract_z
Si Si1 0.500000 0.250000 0.572389
Si Si2 0.296683 0.424686 0.436164
Si Si3 0.785271 0.373519 0.849210
Si Si4 0.304015 0.360112 0.277589
Si Si5 0.693154 0.451914 0.682502
Si Si6 0.294435 0.448552 0.065698
Si Si7 0.288548 0.675895 0.600881
Si Si8 0.791638 0.700343 0.063304
O O1 0.656420 0.211468 0.575184
O O2 0.500000 0.432176 0.425720
O O3 0.250000 0.438068 0.500000
O O4 0.196225 0.449869 0.386344
O O5 0.264517 0.372093 0.428253
O O6 0.721552 0.363647 0.785051
O O7 0.724652 0.417153 0.883610
O O8 0.731001 0.332819 0.888710
O O9 0.000000 0.375643 0.846293
O O10 0.500000 0.343184 0.269648
O O11 0.308354 0.410879 0.298323
O O12 0.236385 0.332224 0.331851
O O13 0.500000 0.442564 0.703532
O O14 0.750000 0.500000 0.702178
O O15 0.500000 0.444721 0.069038
O O16 0.250000 0.500000 0.073094
O O17 0.250000 0.435530 0.000000
O O18 0.500000 0.686166 0.597658
O O19 0.720963 0.750000 0.068288
O O20 0.000000 0.702602 0.068116
O O21 0.750000 0.683452 0.000000
#
# Coordination Sequence:
#
# PCOD9501373 Si02
#       8
#     4  16  16  16  16  16  16  16
#     4  12  22  36  70  82 122 150 212 240 298 348
#     4  10  21  38  63  88 121 158 193 234 291 342
#     4   9  18  33  54  78 103 138 180 224 278 340
#     4   9  19  38  58  79 112 147 188 238 290 347
#     4  11  22  37  59  86 117 151 194 234 281 337
#     4  10  19  32  50  72 103 137 178 221 274 332
#     4   9  21  39  61  88 118 157 199 243 298 352
#     4   9  17  31  52  75 103 136 175 218 274 335
#
# _framework density 21.355005999999999
#
# number of rings (size 3 to 8) (size 9 to 14) (size 15 to 20)
#    0.000    2.345    0.000    3.931    4.828    0.828 
#    1.241    5.862    0.000    0.000    0.000    0.000 
#    0.000    0.000    0.000    0.000    0.000    0.000 
#
# Total GULP energy -322998.325785 kJ/mol
# GULP energy per Si atom -5568.936651 kJ/mol
# Density = 2.130640 g / cm^3
# Si number density = 21.355006 Si / 1000 Ang^3
#
#
#
# Elastic Constant Matrix: (Units=GPa)
#
#
# Indices 1 2 3 4 5 6 
#
# 1 72.8344 8.0703 -16.2737 0.0000 0.0000 0.0000
# 2 8.0703 35.4565 -13.5844 0.0000 0.0000 0.0000
# 3 -16.2737 -13.5844 79.6275 0.0000 0.0000 0.0000
# 4 0.0000 0.0000 0.0000 -2.1420 0.0000 0.0000
# 5 0.0000 0.0000 0.0000 0.0000 11.3141 0.0000
# 6 0.0000 0.0000 0.0000 0.0000 0.0000 -29.1689
#
#
#
# Elastic Compliance Matrix: (Units=1/GPa)
#
#
# Indices 1 2 3 4 5 6 
#
# 1 0.014564 -0.002327 0.002580 0.000000 0.000000 0.000000
# 2 -0.002327 0.030548 0.004736 0.000000 0.000000 0.000000
# 3 0.002580 0.004736 0.013894 0.000000 0.000000 0.000000
# 4 0.000000 0.000000 0.000000 -0.466847 0.000000 0.000000
# 5 0.000000 0.000000 0.000000 0.000000 0.088385 0.000000
# 6 0.000000 0.000000 0.000000 0.000000 0.000000 -0.034283
#
#
# Mechanical properties :
#
#
# Convention : Reuss Voigt Hill
#
# Bulk Modulus (GPa) = 14.49637 16.03809 15.26723
# Shear Modulus (GPa) = -14.67467 9.98105 -2.34681
#
# Velocity S-wave (km/s) = -2.62425 2.16426 -1.04945
# Velocity P-wave (km/s) = 1.54248 3.71105 2.38670
#
# Compressibility (1/GPa) = 0.06898278
#
# Stress axis : x y z
#
# Youngs Moduli (GPa) = 68.66279 32.73582 71.97557
#
# Poissons Ratio (x) = 0.07616 -0.18567
# Poissons Ratio (y) = 0.15975 -0.34087
# Poissons Ratio (z) = -0.17712 -0.15503
#
# Static dielectric constant tensor:
#      x y z
#    x 1.812530 0.000000 0.000000 
#    y 0.000000 1.776180 0.000000 
#    z 0.000000 0.000000 1.798830 
# 
# From -- ./inp_files/41209.got.cif
#   From: 2010.05.17/outbox.cif.g08.bks.cpg/sg67_21_cif.got.tgz:41209.got - 2010.06.03 18:28:57.
