data_PCOD9501670
_publ_section_title
;
Structure prediction by ZEFSAII (Michael W. Deem and Ramdas Pophale) SiO2 
 PCOD9501670
Probable space group: C M M A
;
_chemical_formula_sum "Si O2"
_cell_formula_units_Z 88
_cell_length_a 25.399468
_cell_length_b 8.641544
_cell_length_c 22.461596
_cell_angle_alpha 90.000000
_cell_angle_beta 90.000000
_cell_angle_gamma 90.000000
_cell_volume 4930.109639
_symmetry_space_group_name_H-M "C M M A"
_symmetry_group_IT_number 67
_symmetry_cell_setting 'orthorhombic'
loop_
_space_group_symop_operation_xyz
x,y,z
-x,1/2-y,z
x,-y,-z
-x,1/2+y,-z
-x,-y,-z
x,1/2+y,-z
-x,y,z
x,1/2-y,z
1/2+x,1/2+y,z
1/2-x,-y,z
1/2+x,1/2-y,-z
1/2-x,y,-z
1/2-x,1/2-y,-z
1/2+x,y,-z
1/2-x,1/2+y,z
1/2+x,-y,z
loop_
_atom_site_type_symbol
_atom_site_label
_atom_site_fract_x
_atom_site_fract_y
_atom_site_fract_z
Si Si1 0.806587 0.063911 0.161616
Si Si2 0.000000 0.435536 0.566072
Si Si3 0.916201 0.936086 0.335667
Si Si4 0.192763 0.064067 0.299677
Si Si5 0.000000 0.065252 0.890176
Si Si6 0.500000 0.064684 0.756447
Si Si7 0.109201 0.436077 0.063495
O O1 0.804875 0.250000 0.161040
O O2 0.815411 0.016431 0.230234
O O3 0.852041 0.013926 0.116734
O O4 0.750000 0.000000 0.142812
O O5 0.000000 0.500000 0.500000
O O6 0.050887 0.481306 0.605392
O O7 0.000000 0.250000 0.562932
O O8 0.917277 0.750000 0.330495
O O9 0.856809 0.996662 0.334926
O O10 0.949154 0.007353 0.280613
O O11 0.192941 0.250000 0.302926
O O12 0.250000 0.000000 0.317862
O O13 0.000000 0.250000 0.891260
O O14 0.948321 0.001090 0.922381
O O15 0.000000 0.005271 0.822243
O O16 0.500000 0.250000 0.759997
O O17 0.107513 0.250000 0.062050
O O18 0.127513 0.500000 0.000000
#
# Coordination Sequence:
#
# PCOD9501670 Si02
#       7
#    16   8  16  16   8   8  16
#     4   9  20  36  55  77 103 133 170 214 263 315
#     4   9  20  36  56  82 114 149 187 226 267 310
#     4  10  20  35  54  82 115 146 182 225 266 314
#     4  10  19  33  54  81 110 144 180 221 272 325
#     4  12  24  38  56  77 101 134 171 216 272 325
#     4  11  21  34  54  81 109 139 173 216 269 327
#     4  11  23  39  55  74 100 133 173 218 265 323
#
# _framework density 17.849502999999999
#
# number of rings (size 3 to 8) (size 9 to 14) (size 15 to 20)
#    0.000    1.818    0.000    5.182    0.000    6.182 
#    0.000    1.818    0.000    0.545    0.000    3.818 
#    0.000    0.000    0.000    0.000    0.000    0.000 
#
# Total GULP energy -245809.073451 kJ/mol
# GULP energy per Si atom -5586.569851 kJ/mol
# Density = 1.780888 g / cm^3
# Si number density = 17.849503 Si / 1000 Ang^3
#
#
#
# Elastic Constant Matrix: (Units=GPa)
#
#
# Indices 1 2 3 4 5 6 
#
# 1 151.2450 37.6517 48.2649 0.0000 0.0000 0.0000
# 2 37.6517 68.1532 24.5759 0.0000 0.0000 0.0000
# 3 48.2649 24.5759 78.5176 0.0000 0.0000 0.0000
# 4 0.0000 0.0000 0.0000 28.4835 0.0000 0.0000
# 5 0.0000 0.0000 0.0000 0.0000 -20.1751 0.0000
# 6 0.0000 0.0000 0.0000 0.0000 0.0000 31.7974
#
#
#
# Elastic Compliance Matrix: (Units=1/GPa)
#
#
# Indices 1 2 3 4 5 6 
#
# 1 0.008836 -0.003295 -0.004400 0.000000 0.000000 0.000000
# 2 -0.003295 0.017768 -0.003536 0.000000 0.000000 0.000000
# 3 -0.004400 -0.003536 0.016548 0.000000 0.000000 0.000000
# 4 0.000000 0.000000 0.000000 0.035108 0.000000 0.000000
# 5 0.000000 0.000000 0.000000 0.000000 -0.049566 0.000000
# 6 0.000000 0.000000 0.000000 0.000000 0.000000 0.031449
#
#
# Mechanical properties :
#
#
# Convention : Reuss Voigt Hill
#
# Bulk Modulus (GPa) = 48.33358 57.65563 52.99461
# Shear Modulus (GPa) = 55.86441 20.51604 38.19022
#
# Velocity S-wave (km/s) = 5.60048 3.39394 4.63056
# Velocity P-wave (km/s) = 8.30408 6.90866 7.63830
#
# Compressibility (1/GPa) = 0.02068955
#
# Stress axis : x y z
#
# Youngs Moduli (GPa) = 113.16991 56.28031 60.43140
#
# Poissons Ratio (x) = 0.18544 0.26592
# Poissons Ratio (y) = 0.37288 0.21369
# Poissons Ratio (z) = 0.49799 0.19901
#
# Static dielectric constant tensor:
#      x y z
#    x 1.599690 0.000000 0.000000 
#    y 0.000000 1.598450 0.000000 
#    z 0.000000 0.000000 1.595700 
# 
# From -- ./inp_files/39623.got.cif
#   From: 2010.05.17/outbox.cif.g08.bks.cpg/sg67_20_cif.got.tgz:39623.got - 2010.06.03 18:28:57.
