data_PCOD9501434
_publ_section_title
;
Structure prediction by ZEFSAII (Michael W. Deem and Ramdas Pophale) SiO2 
 PCOD9501434
Probable space group: C M M A
;
_chemical_formula_sum "Si O2"
_cell_formula_units_Z 88
_cell_length_a 28.000639
_cell_length_b 10.455830
_cell_length_c 14.342813
_cell_angle_alpha 90.000000
_cell_angle_beta 90.000000
_cell_angle_gamma 90.000000
_cell_volume 4199.144233
_symmetry_space_group_name_H-M "C M M A"
_symmetry_group_IT_number 67
_symmetry_cell_setting 'orthorhombic'
loop_
_space_group_symop_operation_xyz
x,y,z
-x,1/2-y,z
x,-y,-z
-x,1/2+y,-z
-x,-y,-z
x,1/2+y,-z
-x,y,z
x,1/2-y,z
1/2+x,1/2+y,z
1/2-x,-y,z
1/2+x,1/2-y,-z
1/2-x,y,-z
1/2-x,1/2-y,-z
1/2+x,y,-z
1/2-x,1/2+y,z
1/2+x,-y,z
loop_
_atom_site_type_symbol
_atom_site_label
_atom_site_fract_x
_atom_site_fract_y
_atom_site_fract_z
Si Si1 0.605428 0.401358 0.085868
Si Si2 0.287660 0.896696 0.631504
Si Si3 0.055703 0.750000 0.614285
Si Si4 0.500000 0.599502 0.913712
Si Si5 0.893395 0.496562 0.610539
Si Si6 0.445959 0.250000 0.385451
Si Si7 0.212663 0.606757 0.147642
O O1 0.607118 0.250000 0.059264
O O2 0.656178 0.425432 0.136814
O O3 0.605952 0.500000 0.000000
O O4 0.552612 0.419492 0.132505
O O5 0.287933 0.750000 0.592990
O O6 0.338217 0.965864 0.619689
O O7 0.278698 0.883943 0.741727
O O8 0.250000 0.000000 0.595811
O O9 0.084665 0.626698 0.648001
O O10 0.055837 0.750000 0.499732
O O11 0.000000 0.750000 0.641365
O O12 0.500000 0.750000 0.943125
O O13 0.500000 0.500000 0.000000
O O14 0.903825 0.500000 0.500000
O O15 0.920052 0.374591 0.650321
O O16 0.500000 0.250000 0.356430
O O17 0.220553 0.750000 0.107999
O O18 0.250000 0.500000 0.111741
#
# Coordination Sequence:
#
# PCOD9501434 Si02
#       7
#    16  16   8   8  16   8  16
#     4   9  17  30  51  77 103 130 161 200 238 284
#     4  10  21  37  54  71  95 131 169 208 254 304
#     4   9  18  30  49  75 101 133 159 196 250 304
#     4   8  14  26  46  72 100 130 159 188 234 282
#     4  10  19  32  51  76 100 127 166 209 251 298
#     4   9  16  30  51  73 101 127 161 202 248 300
#     4   9  19  35  53  72  97 131 168 203 246 295
#
# _framework density 20.956651000000001
#
# number of rings (size 3 to 8) (size 9 to 14) (size 15 to 20)
#    0.000    2.727    0.909    0.545    1.273    3.636 
#    0.000    2.727    4.000    0.000    0.000    0.000 
#    0.000    0.000    0.000    0.000    0.000    0.000 
#
# Total GULP energy -244987.593988 kJ/mol
# GULP energy per Si atom -5567.899863 kJ/mol
# Density = 2.090895 g / cm^3
# Si number density = 20.956651 Si / 1000 Ang^3
#
#
#
# Elastic Constant Matrix: (Units=GPa)
#
#
# Indices 1 2 3 4 5 6 
#
# 1 216.6924 122.9350 5.3054 0.0000 0.0000 0.0000
# 2 122.9350 181.8355 7.7973 0.0000 0.0000 0.0000
# 3 5.3054 7.7973 36.0929 0.0000 0.0000 0.0000
# 4 0.0000 0.0000 0.0000 20.8025 0.0000 0.0000
# 5 0.0000 0.0000 0.0000 0.0000 34.0157 0.0000
# 6 0.0000 0.0000 0.0000 0.0000 0.0000 37.2122
#
#
#
# Elastic Compliance Matrix: (Units=1/GPa)
#
#
# Indices 1 2 3 4 5 6 
#
# 1 0.007486 -0.005061 -0.000007 0.000000 0.000000 0.000000
# 2 -0.005061 0.008972 -0.001194 0.000000 0.000000 0.000000
# 3 -0.000007 -0.001194 0.027965 0.000000 0.000000 0.000000
# 4 0.000000 0.000000 0.000000 0.048071 0.000000 0.000000
# 5 0.000000 0.000000 0.000000 0.000000 0.029398 0.000000
# 6 0.000000 0.000000 0.000000 0.000000 0.000000 0.026873
#
#
# Mechanical properties :
#
#
# Convention : Reuss Voigt Hill
#
# Bulk Modulus (GPa) = 31.34899 78.52181 54.93540
# Shear Modulus (GPa) = 29.08264 38.31163 33.69713
#
# Velocity S-wave (km/s) = 3.72930 4.28031 4.01427
# Velocity P-wave (km/s) = 5.79094 7.87262 6.91061
#
# Compressibility (1/GPa) = 0.03189896
#
# Stress axis : x y z
#
# Youngs Moduli (GPa) = 133.57865 111.45403 35.75858
#
# Poissons Ratio (x) = 0.56407 0.00025
# Poissons Ratio (y) = 0.67604 0.04271
# Poissons Ratio (z) = 0.00095 0.13312
#
# Static dielectric constant tensor:
#      x y z
#    x 2.014440 0.000000 0.000000 
#    y 0.000000 1.749230 0.000000 
#    z 0.000000 0.000000 1.767500 
# 
# From -- ./inp_files/34910.got.cif
#   From: 2010.05.17/outbox.cif.g08.bks.cpg/sg67_18_cif.got.tgz:34910.got - 2010.06.03 18:28:57.
