data_PCOD9501579
_publ_section_title
;
Structure prediction by ZEFSAII (Michael W. Deem and Ramdas Pophale) SiO2 
 PCOD9501579
Probable space group: C M M A
;
_chemical_formula_sum "Si O2"
_cell_formula_units_Z 112
_cell_length_a 14.583070
_cell_length_b 21.904523
_cell_length_c 16.794684
_cell_angle_alpha 90.000000
_cell_angle_beta 90.000000
_cell_angle_gamma 90.000000
_cell_volume 5364.813112
_symmetry_space_group_name_H-M "C M M A"
_symmetry_group_IT_number 67
_symmetry_cell_setting 'orthorhombic'
loop_
_space_group_symop_operation_xyz
x,y,z
-x,1/2-y,z
x,-y,-z
-x,1/2+y,-z
-x,-y,-z
x,1/2+y,-z
-x,y,z
x,1/2-y,z
1/2+x,1/2+y,z
1/2-x,-y,z
1/2+x,1/2-y,-z
1/2-x,y,-z
1/2-x,1/2-y,-z
1/2+x,y,-z
1/2-x,1/2+y,z
1/2+x,-y,z
loop_
_atom_site_type_symbol
_atom_site_label
_atom_site_fract_x
_atom_site_fract_y
_atom_site_fract_z
Si Si1 0.160677 0.316099 0.943013
Si Si2 0.893726 0.935014 0.971406
Si Si3 0.102822 0.058346 0.542769
Si Si4 0.294506 0.851562 0.766753
Si Si5 0.611116 0.817559 0.601872
Si Si6 0.648045 0.520764 0.715598
Si Si7 0.604562 0.102806 0.798816
O O1 0.114106 0.250000 0.958291
O O2 0.184078 0.319243 0.849705
O O3 0.250000 0.316080 0.000000
O O4 0.112248 0.379359 0.966964
O O5 0.856674 0.909947 0.887691
O O6 0.000000 0.947230 0.952706
O O7 0.854593 0.000000 0.000000
O O8 0.143242 0.126365 0.546129
O O9 0.098802 0.040938 0.635631
O O10 0.000000 0.064005 0.508044
O O11 0.146565 0.000000 0.500000
O O12 0.340948 0.823684 0.688144
O O13 0.336413 0.920325 0.770633
O O14 0.184171 0.857601 0.757591
O O15 0.500000 0.824134 0.611909
O O16 0.628600 0.750000 0.569578
O O17 0.750000 0.500000 0.691355
O O18 0.603018 0.463401 0.757742
O O19 0.500000 0.127440 0.800499
#
# Coordination Sequence:
#
# PCOD9501579 Si02
#       7
#    16  16  16  16  16  16  16
#     4  11  22  35  51  74 105 142 184 235 289 339
#     4  10  21  36  54  76 102 137 183 237 294 348
#     4   9  17  30  50  80 115 144 173 218 276 330
#     4  10  19  34  52  77 108 148 191 235 284 338
#     4   9  18  33  55  82 112 148 188 230 280 341
#     4   9  18  30  50  79 108 141 182 225 275 327
#     4  10  19  33  51  74 105 142 186 237 287 340
#
# _framework density 20.876776
#
# number of rings (size 3 to 8) (size 9 to 14) (size 15 to 20)
#    0.000    2.286    1.429    1.714    0.000    2.000 
#    0.000    0.000    0.000    1.714    0.000   23.000 
#    0.000   16.000    0.000    0.000    0.000    0.286 
#
# Total GULP energy -312006.856911 kJ/mol
# GULP energy per Si atom -5571.551016 kJ/mol
# Density = 2.082926 g / cm^3
# Si number density = 20.876776 Si / 1000 Ang^3
#
#
#
# Elastic Constant Matrix: (Units=GPa)
#
#
# Indices 1 2 3 4 5 6 
#
# 1 70.4190 16.4061 12.4542 0.0000 0.0000 0.0000
# 2 16.4061 147.1454 38.7995 0.0000 0.0000 0.0000
# 3 12.4542 38.7995 44.8730 0.0000 0.0000 0.0000
# 4 0.0000 0.0000 0.0000 19.7968 0.0000 0.0000
# 5 0.0000 0.0000 0.0000 0.0000 19.6617 0.0000
# 6 0.0000 0.0000 0.0000 0.0000 0.0000 -7.2458
#
#
#
# Elastic Compliance Matrix: (Units=1/GPa)
#
#
# Indices 1 2 3 4 5 6 
#
# 1 0.014996 -0.000744 -0.003519 0.000000 0.000000 0.000000
# 2 -0.000744 0.008840 -0.007437 0.000000 0.000000 0.000000
# 3 -0.003519 -0.007437 0.029692 0.000000 0.000000 0.000000
# 4 0.000000 0.000000 0.000000 0.050513 0.000000 0.000000
# 5 0.000000 0.000000 0.000000 0.000000 0.050860 0.000000
# 6 0.000000 0.000000 0.000000 0.000000 0.000000 -0.138012
#
#
# Mechanical properties :
#
#
# Convention : Reuss Voigt Hill
#
# Bulk Modulus (GPa) = 33.19082 44.19520 38.69301
# Shear Modulus (GPa) = 99.33934 19.42774 59.38354
#
# Velocity S-wave (km/s) = 6.90557 3.05387 5.33915
# Velocity P-wave (km/s) = 8.91715 5.80089 7.52216
#
# Compressibility (1/GPa) = 0.03012881
#
# Stress axis : x y z
#
# Youngs Moduli (GPa) = 66.68263 113.12281 33.67910
#
# Poissons Ratio (x) = 0.08419 0.11850
# Poissons Ratio (y) = 0.04963 0.25047
# Poissons Ratio (z) = 0.23463 0.84128
#
# Static dielectric constant tensor:
#      x y z
#    x 1.792380 0.000000 0.000000 
#    y 0.000000 1.814210 0.000000 
#    z 0.000000 0.000000 1.735610 
# 
# From -- ./inp_files/27500.got.cif
#   From: 2010.05.17/outbox.cif.g08.bks.cpg/sg67_14_cif.got.tgz:27500.got - 2010.06.03 18:28:57.
