data_PCOD9501833
_publ_section_title
;
Structure prediction by ZEFSAII (Michael W. Deem and Ramdas Pophale) SiO2 
 PCOD9501833
Probable space group: C M M A
;
_chemical_formula_sum "Si O2"
_cell_formula_units_Z 72
_cell_length_a 23.207660
_cell_length_b 9.357812
_cell_length_c 18.069569
_cell_angle_alpha 90.000000
_cell_angle_beta 90.000000
_cell_angle_gamma 90.000000
_cell_volume 3924.221049
_symmetry_space_group_name_H-M "C M M A"
_symmetry_group_IT_number 67
_symmetry_cell_setting 'orthorhombic'
loop_
_space_group_symop_operation_xyz
x,y,z
-x,1/2-y,z
x,-y,-z
-x,1/2+y,-z
-x,-y,-z
x,1/2+y,-z
-x,y,z
x,1/2-y,z
1/2+x,1/2+y,z
1/2-x,-y,z
1/2+x,1/2-y,-z
1/2-x,y,-z
1/2-x,1/2-y,-z
1/2+x,y,-z
1/2-x,1/2+y,z
1/2+x,-y,z
loop_
_atom_site_type_symbol
_atom_site_label
_atom_site_fract_x
_atom_site_fract_y
_atom_site_fract_z
Si Si1 0.602771 0.000000 0.500000
Si Si2 0.312016 0.923584 0.926976
Si Si3 0.191455 0.916755 0.373632
Si Si4 0.374641 0.423019 0.226459
Si Si5 0.500000 0.897378 0.406842
Si Si6 0.000000 0.921197 0.268147
O O1 0.644376 0.067718 0.438467
O O2 0.557231 0.097832 0.543742
O O3 0.307086 0.750000 0.935746
O O4 0.347225 0.955175 0.852599
O O5 0.250000 0.000000 0.918238
O O6 0.337649 0.000000 0.000000
O O7 0.205425 0.750000 0.364622
O O8 0.163154 0.972052 0.296793
O O9 0.250000 0.000000 0.391109
O O10 0.375958 0.250000 0.232668
O O11 0.440275 0.474644 0.233683
O O12 0.500000 0.750000 0.362077
O O13 0.500000 0.032491 0.353502
O O14 0.000000 0.750000 0.262898
#
# Coordination Sequence:
#
# PCOD9501833 Si02
#       6
#     8  16  16  16   8   8
#     4  11  23  38  58  78 113 149 188 228 288 341
#     4  10  19  34  57  86 115 145 182 222 270 327
#     4  11  23  39  57  80 110 149 190 232 281 334
#     4   9  19  36  59  83 108 145 189 225 271 334
#     4  11  23  37  58  87 108 138 190 246 287 324
#     4  10  19  39  63  80 106 148 188 228 279 340
#
# _framework density 18.34759
#
# number of rings (size 3 to 8) (size 9 to 14) (size 15 to 20)
#    0.000    1.778    2.222    3.000    0.000    4.444 
#    0.000    3.889    0.000    0.000    0.000    0.000 
#    0.000    0.000    0.000    0.000    0.000    0.000 
#
# Total GULP energy -200674.931331 kJ/mol
# GULP energy per Si atom -5574.303648 kJ/mol
# Density = 1.830583 g / cm^3
# Si number density = 18.347590 Si / 1000 Ang^3
#
#
#
# Elastic Constant Matrix: (Units=GPa)
#
#
# Indices 1 2 3 4 5 6 
#
# 1 138.4625 34.0220 62.2289 0.0000 0.0000 0.0000
# 2 34.0220 56.2421 21.8701 0.0000 0.0000 0.0000
# 3 62.2289 21.8701 127.1012 0.0000 0.0000 0.0000
# 4 0.0000 0.0000 0.0000 -2.1884 0.0000 0.0000
# 5 0.0000 0.0000 0.0000 0.0000 26.8271 0.0000
# 6 0.0000 0.0000 0.0000 0.0000 0.0000 165.4374
#
#
#
# Elastic Compliance Matrix: (Units=1/GPa)
#
#
# Indices 1 2 3 4 5 6 
#
# 1 0.010242 -0.004550 -0.004232 0.000000 0.000000 0.000000
# 2 -0.004550 0.021077 -0.001399 0.000000 0.000000 0.000000
# 3 -0.004232 -0.001399 0.010180 0.000000 0.000000 0.000000
# 4 0.000000 0.000000 0.000000 -0.456955 0.000000 0.000000
# 5 0.000000 0.000000 0.000000 0.000000 0.037276 0.000000
# 6 0.000000 0.000000 0.000000 0.000000 0.000000 0.006045
#
#
# Mechanical properties :
#
#
# Convention : Reuss Voigt Hill
#
# Bulk Modulus (GPa) = 47.30866 62.00531 54.65698
# Shear Modulus (GPa) = -14.50416 51.59419 18.54501
#
# Velocity S-wave (km/s) = -2.81467 5.30862 3.18269
# Velocity P-wave (km/s) = 3.90864 8.45242 6.58487
#
# Compressibility (1/GPa) = 0.02113778
#
# Stress axis : x y z
#
# Youngs Moduli (GPa) = 97.63747 47.44576 98.22964
#
# Poissons Ratio (x) = 0.21588 0.41566
# Poissons Ratio (y) = 0.44426 0.13741
# Poissons Ratio (z) = 0.41316 0.06637
#
# Static dielectric constant tensor:
#      x y z
#    x 1.626010 0.000000 0.000000 
#    y 0.000000 1.640930 0.000000 
#    z 0.000000 0.000000 1.642430 
# 
# From -- ./inp_files/35374.got.cif
#   From: 2010.05.17/outbox.cif.g08.bks.cpg/sg67_18_cif.got.tgz:35374.got - 2010.06.03 18:28:57.
