data_PCOD9501194
_publ_section_title
;
Structure prediction by ZEFSAII (Michael W. Deem and Ramdas Pophale) SiO2 
 PCOD9501194
Probable space group: C M M A
;
_chemical_formula_sum "Si O2"
_cell_formula_units_Z 96
_cell_length_a 28.298592
_cell_length_b 8.562472
_cell_length_c 24.674630
_cell_angle_alpha 90.000000
_cell_angle_beta 90.000000
_cell_angle_gamma 90.000000
_cell_volume 5978.808470
_symmetry_space_group_name_H-M "C M M A"
_symmetry_group_IT_number 67
_symmetry_cell_setting 'orthorhombic'
loop_
_space_group_symop_operation_xyz
x,y,z
-x,1/2-y,z
x,-y,-z
-x,1/2+y,-z
-x,-y,-z
x,1/2+y,-z
-x,y,z
x,1/2-y,z
1/2+x,1/2+y,z
1/2-x,-y,z
1/2+x,1/2-y,-z
1/2-x,y,-z
1/2-x,1/2-y,-z
1/2+x,y,-z
1/2-x,1/2+y,z
1/2+x,-y,z
loop_
_atom_site_type_symbol
_atom_site_label
_atom_site_fract_x
_atom_site_fract_y
_atom_site_fract_z
Si Si1 0.054954 0.561419 0.941405
Si Si2 0.105426 0.439909 0.166947
Si Si3 0.803077 0.437397 0.558473
Si Si4 0.946230 0.938888 0.722804
Si Si5 0.802006 0.062729 0.227803
Si Si6 0.355048 0.437177 0.332700
O O1 0.056255 0.750000 0.942283
O O2 0.086053 0.505350 0.890731
O O3 0.000000 0.514936 0.933384
O O4 0.070405 0.500000 0.000000
O O5 0.105075 0.250000 0.165468
O O6 0.071201 0.485018 0.216794
O O7 0.158128 0.488261 0.184372
O O8 0.818961 0.500000 0.500000
O O9 0.801232 0.250000 0.556518
O O10 0.750000 0.500000 0.567722
O O11 0.836086 0.485804 0.608449
O O12 0.944548 0.750000 0.720639
O O13 0.000000 0.988905 0.713130
O O14 0.907478 0.004463 0.681562
O O15 0.801160 0.250000 0.228806
O O16 0.750000 0.000000 0.216668
O O17 0.820884 0.004124 0.285948
O O18 0.353745 0.250000 0.329732
#
# Coordination Sequence:
#
# PCOD9501194 Si02
#       6
#    16  16  16  16  16  16
#     4   9  16  27  44  65  89 116 146 182 223 267
#     4   8  15  28  46  66  89 119 152 184 221 269
#     4  10  20  32  48  69  93 121 152 186 225 269
#     4   9  17  30  49  71  93 121 156 190 227 272
#     4  10  19  31  48  69  92 120 153 188 227 272
#     4  10  20  32  47  70  97 124 152 185 228 272
#
# _framework density 16.056711
#
# number of rings (size 3 to 8) (size 9 to 14) (size 15 to 20)
#    0.000    2.667    0.000    4.000    0.000    6.333 
#    0.000    4.167    0.000    5.000    0.000    3.500 
#    0.000    0.000    0.000    0.000    0.000    0.000 
#
# Total GULP energy -267587.388313 kJ/mol
# GULP energy per Si atom -5574.737257 kJ/mol
# Density = 1.602016 g / cm^3
# Si number density = 16.056711 Si / 1000 Ang^3
#
#
#
# Elastic Constant Matrix: (Units=GPa)
#
#
# Indices 1 2 3 4 5 6 
#
# 1 130.5594 27.4381 94.0235 0.0000 0.0000 0.0000
# 2 27.4381 24.5594 29.8270 0.0000 0.0000 0.0000
# 3 94.0235 29.8270 161.9899 0.0000 0.0000 0.0000
# 4 0.0000 0.0000 0.0000 24.1907 0.0000 0.0000
# 5 0.0000 0.0000 0.0000 0.0000 22.3662 0.0000
# 6 0.0000 0.0000 0.0000 0.0000 0.0000 24.9593
#
#
#
# Elastic Compliance Matrix: (Units=1/GPa)
#
#
# Indices 1 2 3 4 5 6 
#
# 1 0.014163 -0.007521 -0.006836 0.000000 0.000000 0.000000
# 2 -0.007521 0.056439 -0.006027 0.000000 0.000000 0.000000
# 3 -0.006836 -0.006027 0.011250 0.000000 0.000000 0.000000
# 4 0.000000 0.000000 0.000000 0.041338 0.000000 0.000000
# 5 0.000000 0.000000 0.000000 0.000000 0.044710 0.000000
# 6 0.000000 0.000000 0.000000 0.000000 0.000000 0.040065
#
#
# Mechanical properties :
#
#
# Convention : Reuss Voigt Hill
#
# Bulk Modulus (GPa) = 24.33919 68.85400 46.59659
# Shear Modulus (GPa) = 19.05283 25.35791 22.20537
#
# Velocity S-wave (km/s) = 3.44844 3.97832 3.72282
# Velocity P-wave (km/s) = 5.57197 8.00484 6.89653
#
# Compressibility (1/GPa) = 0.04108600
#
# Stress axis : x y z
#
# Youngs Moduli (GPa) = 70.60831 17.71810 88.88509
#
# Poissons Ratio (x) = 0.13326 0.60758
# Poissons Ratio (y) = 0.53104 0.53569
# Poissons Ratio (z) = 0.48265 0.10678
#
# Static dielectric constant tensor:
#      x y z
#    x 1.529120 0.000000 0.000000 
#    y 0.000000 1.550190 0.000000 
#    z 0.000000 0.000000 1.529470 
# 
# From -- ./inp_files/40941.got.cif
#   From: 2010.05.17/outbox.cif.g08.bks.cpg/sg67_21_cif.got.tgz:40941.got - 2010.06.03 18:28:57.
