data_PCOD9501110
_publ_section_title
;
Structure prediction by ZEFSAII (Michael W. Deem and Ramdas Pophale) SiO2 
 PCOD9501110
Probable space group: C M M A
;
_chemical_formula_sum "Si O2"
_cell_formula_units_Z 96
_cell_length_a 9.111366
_cell_length_b 31.850444
_cell_length_c 20.021935
_cell_angle_alpha 90.000000
_cell_angle_beta 90.000000
_cell_angle_gamma 90.000000
_cell_volume 5810.386611
_symmetry_space_group_name_H-M "C M M A"
_symmetry_group_IT_number 67
_symmetry_cell_setting 'orthorhombic'
loop_
_space_group_symop_operation_xyz
x,y,z
-x,1/2-y,z
x,-y,-z
-x,1/2+y,-z
-x,-y,-z
x,1/2+y,-z
-x,y,z
x,1/2-y,z
1/2+x,1/2+y,z
1/2-x,-y,z
1/2+x,1/2-y,-z
1/2-x,y,-z
1/2-x,1/2-y,-z
1/2+x,y,-z
1/2-x,1/2+y,z
1/2+x,-y,z
loop_
_atom_site_type_symbol
_atom_site_label
_atom_site_fract_x
_atom_site_fract_y
_atom_site_fract_z
Si Si1 0.169953 0.957472 0.831202
Si Si2 0.676077 0.797815 0.928722
Si Si3 0.178389 0.633328 0.680294
Si Si4 0.176632 0.129340 0.824641
Si Si5 0.176115 0.201590 0.429943
Si Si6 0.832519 0.958612 0.668483
O O1 0.255937 0.914984 0.849016
O O2 0.170266 0.958869 0.749822
O O3 0.000000 0.956039 0.852284
O O4 0.250000 0.000000 0.854256
O O5 0.500000 0.799088 0.936615
O O6 0.716092 0.750000 0.908284
O O7 0.715708 0.832862 0.874560
O O8 0.750000 0.806143 0.000000
O O9 0.254497 0.638190 0.751919
O O10 0.216548 0.670336 0.629618
O O11 0.224202 0.587761 0.651080
O O12 0.000000 0.632089 0.689255
O O13 0.000000 0.125974 0.819913
O O14 0.216485 0.250000 0.414942
O O15 0.250000 0.189932 0.500000
O O16 0.000000 0.199727 0.437447
O O17 0.000000 0.961618 0.646589
O O18 0.750000 0.000000 0.645018
#
# Coordination Sequence:
#
# PCOD9501110 Si02
#       6
#    16  16  16  16  16  16
#     4   9  16  27  44  67  96 128 160 193 233 282
#     4   9  19  35  52  70  94 126 163 200 239 287
#     4   9  18  31  46  68  97 125 154 192 237 282
#     4  10  19  30  47  73 101 126 157 199 243 283
#     4   9  18  33  51  69  91 121 157 195 237 288
#     4   8  14  24  39  60  87 117 148 182 219 263
#
# _framework density 16.522137000000001
#
# number of rings (size 3 to 8) (size 9 to 14) (size 15 to 20)
#    0.000    3.000    0.000    2.000    0.000    6.667 
#    0.000    0.000    0.000    1.000    0.000    7.000 
#    0.000    0.000    0.000    0.000    0.000    0.000 
#
# Total GULP energy -267307.468967 kJ/mol
# GULP energy per Si atom -5568.905603 kJ/mol
# Density = 1.648453 g / cm^3
# Si number density = 16.522137 Si / 1000 Ang^3
#
#
#
# Elastic Constant Matrix: (Units=GPa)
#
#
# Indices 1 2 3 4 5 6 
#
# 1 49.1414 62.4463 36.0848 0.0000 0.0000 0.0000
# 2 62.4463 169.9991 87.0289 0.0000 0.0000 0.0000
# 3 36.0848 87.0289 64.1740 0.0000 0.0000 0.0000
# 4 0.0000 0.0000 0.0000 -4.9860 0.0000 0.0000
# 5 0.0000 0.0000 0.0000 0.0000 20.0096 0.0000
# 6 0.0000 0.0000 0.0000 0.0000 0.0000 27.4620
#
#
#
# Elastic Compliance Matrix: (Units=1/GPa)
#
#
# Indices 1 2 3 4 5 6 
#
# 1 0.039464 -0.010258 -0.008279 0.000000 0.000000 0.000000
# 2 -0.010258 0.021906 -0.023940 0.000000 0.000000 0.000000
# 3 -0.008279 -0.023940 0.052704 0.000000 0.000000 0.000000
# 4 0.000000 0.000000 0.000000 -0.200563 0.000000 0.000000
# 5 0.000000 0.000000 0.000000 0.000000 0.049976 0.000000
# 6 0.000000 0.000000 0.000000 0.000000 0.000000 0.036414
#
#
# Mechanical properties :
#
#
# Convention : Reuss Voigt Hill
#
# Bulk Modulus (GPa) = 34.34058 72.71496 53.52777
# Shear Modulus (GPa) = 52.87493 15.01408 33.94450
#
# Velocity S-wave (km/s) = 5.66321 3.01778 4.53756
# Velocity P-wave (km/s) = 7.97448 7.49992 7.74084
#
# Compressibility (1/GPa) = 0.02912007
#
# Stress axis : x y z
#
# Youngs Moduli (GPa) = 25.33930 45.64908 18.97399
#
# Poissons Ratio (x) = 0.46828 0.15709
# Poissons Ratio (y) = 0.25993 0.45423
# Poissons Ratio (z) = 0.20979 1.09283
#
# Static dielectric constant tensor:
#      x y z
#    x 1.562440 0.000000 0.000000 
#    y 0.000000 1.579760 0.000000 
#    z 0.000000 0.000000 1.516100 
# 
# From -- ./inp_files/37182.got.cif
#   From: 2010.05.17/outbox.cif.g08.bks.cpg/sg67_19_cif.got.tgz:37182.got - 2010.06.03 18:28:57.
