data_PCOD9501350
_publ_section_title
;
Structure prediction by ZEFSAII (Michael W. Deem and Ramdas Pophale) SiO2 
 PCOD9501350
Probable space group: C M M A
;
_chemical_formula_sum "Si O2"
_cell_formula_units_Z 104
_cell_length_a 27.758089
_cell_length_b 8.496593
_cell_length_c 24.701648
_cell_angle_alpha 90.000000
_cell_angle_beta 90.000000
_cell_angle_gamma 90.000000
_cell_volume 5825.863541
_symmetry_space_group_name_H-M "C M M A"
_symmetry_group_IT_number 67
_symmetry_cell_setting 'orthorhombic'
loop_
_space_group_symop_operation_xyz
x,y,z
-x,1/2-y,z
x,-y,-z
-x,1/2+y,-z
-x,-y,-z
x,1/2+y,-z
-x,y,z
x,1/2-y,z
1/2+x,1/2+y,z
1/2-x,-y,z
1/2+x,1/2-y,-z
1/2-x,y,-z
1/2-x,1/2-y,-z
1/2+x,y,-z
1/2-x,1/2+y,z
1/2+x,-y,z
loop_
_atom_site_type_symbol
_atom_site_label
_atom_site_fract_x
_atom_site_fract_y
_atom_site_fract_z
Si Si1 0.893446 0.562453 0.060780
Si Si2 0.554435 0.562763 0.776463
Si Si3 0.852450 0.564381 0.835696
Si Si4 0.400245 0.440984 0.671131
Si Si5 0.801839 0.439355 0.270571
Si Si6 0.500000 0.560024 0.938393
Si Si7 0.555752 0.560570 0.441835
O O1 0.894459 0.750000 0.058188
O O2 0.854778 0.510379 0.105128
O O3 0.947083 0.508195 0.081142
O O4 0.885785 0.500000 0.000000
O O5 0.500000 0.521723 0.792709
O O6 0.560753 0.750000 0.785114
O O7 0.595995 0.471528 0.807998
O O8 0.563338 0.519456 0.713768
O O9 0.846077 0.750000 0.841588
O O10 0.814770 0.504518 0.790549
O O11 0.404684 0.250000 0.675638
O O12 0.346528 0.485143 0.690925
O O13 0.413322 0.487891 0.610199
O O14 0.801159 0.250000 0.269409
O O15 0.750000 0.500000 0.287806
O O16 0.500000 0.750000 0.935227
O O17 0.500000 0.500000 0.000000
O O18 0.572958 0.500000 0.500000
O O19 0.500000 0.508291 0.434864
O O20 0.555716 0.750000 0.443188
#
# Coordination Sequence:
#
# PCOD9501350 Si02
#       7
#    16  16  16  16  16   8  16
#     4  10  19  32  49  70  98 132 167 204 242 288
#     4  10  20  31  45  69 100 131 164 204 246 290
#     4  10  21  35  50  72  98 128 164 201 245 300
#     4   9  18  33  51  72  99 132 169 206 248 300
#     4   9  19  35  55  76  97 121 158 206 256 309
#     4   8  16  28  42  62  90 124 162 196 225 264
#     4   9  17  29  47  72 104 141 175 206 240 281
#
# _framework density 17.851431000000002
#
# number of rings (size 3 to 8) (size 9 to 14) (size 15 to 20)
#    0.000    2.615    0.000    2.769    1.077    6.154 
#    0.000    1.538    0.000    0.923    0.000    6.462 
#    0.000    0.000    0.000    0.000    0.000    0.000 
#
# Total GULP energy -289838.503407 kJ/mol
# GULP energy per Si atom -5573.817373 kJ/mol
# Density = 1.781080 g / cm^3
# Si number density = 17.851431 Si / 1000 Ang^3
#
#
#
# Elastic Constant Matrix: (Units=GPa)
#
#
# Indices 1 2 3 4 5 6 
#
# 1 54.9033 4.2706 18.9558 0.0000 0.0000 0.0000
# 2 4.2706 9.9734 10.8768 0.0000 0.0000 0.0000
# 3 18.9558 10.8768 110.9006 0.0000 0.0000 0.0000
# 4 0.0000 0.0000 0.0000 27.0993 0.0000 0.0000
# 5 0.0000 0.0000 0.0000 0.0000 18.2786 0.0000
# 6 0.0000 0.0000 0.0000 0.0000 0.0000 20.8659
#
#
#
# Elastic Compliance Matrix: (Units=1/GPa)
#
#
# Indices 1 2 3 4 5 6 
#
# 1 0.019604 -0.005308 -0.002830 0.000000 0.000000 0.000000
# 2 -0.005308 0.113713 -0.010245 0.000000 0.000000 0.000000
# 3 -0.002830 -0.010245 0.010506 0.000000 0.000000 0.000000
# 4 0.000000 0.000000 0.000000 0.036901 0.000000 0.000000
# 5 0.000000 0.000000 0.000000 0.000000 0.054709 0.000000
# 6 0.000000 0.000000 0.000000 0.000000 0.000000 0.047925
#
#
# Mechanical properties :
#
#
# Convention : Reuss Voigt Hill
#
# Bulk Modulus (GPa) = 9.34096 27.10930 18.22513
# Shear Modulus (GPa) = 14.05248 22.69371 18.37310
#
# Velocity S-wave (km/s) = 2.80874 3.56933 3.21163
# Velocity P-wave (km/s) = 3.97022 5.67502 4.89737
#
# Compressibility (1/GPa) = 0.10705539
#
# Stress axis : x y z
#
# Youngs Moduli (GPa) = 51.01034 8.79411 95.18675
#
# Poissons Ratio (x) = 0.04668 0.26940
# Poissons Ratio (y) = 0.27075 0.97522
# Poissons Ratio (z) = 0.14437 0.09010
#
# Static dielectric constant tensor:
#      x y z
#    x 1.615610 0.000000 0.000000 
#    y 0.000000 1.597820 0.000000 
#    z 0.000000 0.000000 1.629100 
# 
# From -- ./inp_files/42755.got.cif
#   From: 2010.05.17/outbox.cif.g08.bks.cpg/sg67_22_cif.got.tgz:42755.got - 2010.06.03 18:28:57.
