data_PCOD9501998
_publ_section_title
;
Structure prediction by ZEFSAII (Michael W. Deem and Ramdas Pophale) SiO2 
 PCOD9501998
Probable space group: C M M A
;
_chemical_formula_sum "Si O2"
_cell_formula_units_Z 96
_cell_length_a 19.046885
_cell_length_b 15.934742
_cell_length_c 14.762580
_cell_angle_alpha 90.000000
_cell_angle_beta 90.000000
_cell_angle_gamma 90.000000
_cell_volume 4480.549297
_symmetry_space_group_name_H-M "C M M A"
_symmetry_group_IT_number 67
_symmetry_cell_setting 'orthorhombic'
loop_
_space_group_symop_operation_xyz
x,y,z
-x,1/2-y,z
x,-y,-z
-x,1/2+y,-z
-x,-y,-z
x,1/2+y,-z
-x,y,z
x,1/2-y,z
1/2+x,1/2+y,z
1/2-x,-y,z
1/2+x,1/2-y,-z
1/2-x,y,-z
1/2-x,1/2-y,-z
1/2+x,y,-z
1/2-x,1/2+y,z
1/2+x,-y,z
loop_
_atom_site_type_symbol
_atom_site_label
_atom_site_fract_x
_atom_site_fract_y
_atom_site_fract_z
Si Si1 0.683998 0.944360 0.625004
Si Si2 0.352088 0.851012 0.118839
Si Si3 0.919516 0.418483 0.299262
Si Si4 0.419956 0.152416 0.504942
Si Si5 0.294545 0.149167 0.195559
Si Si6 0.919984 0.852840 0.069821
O O1 0.639475 0.900204 0.546207
O O2 0.710791 0.879660 0.701054
O O3 0.750000 0.000000 0.596258
O O4 0.630498 0.004714 0.677518
O O5 0.349120 0.750000 0.112261
O O6 0.396612 0.875361 0.206628
O O7 0.272730 0.881028 0.138190
O O8 0.387640 0.880818 0.026197
O O9 0.912965 0.358328 0.387106
O O10 0.000000 0.445476 0.293534
O O11 0.500000 0.124051 0.481303
O O12 0.413754 0.250000 0.480138
O O13 0.294108 0.250000 0.193059
O O14 0.366664 0.120591 0.148573
O O15 0.921135 0.750000 0.069517
O O16 0.000000 0.881316 0.081741
#
# Coordination Sequence:
#
# PCOD9501998 Si02
#       6
#    16  16  16  16  16  16
#     4  12  24  42  61  91 128 171 206 254 315 385
#     4  10  19  36  61  91 124 163 208 258 311 368
#     4  11  23  40  63  91 126 165 206 256 315 377
#     4  10  23  44  69  95 123 163 216 269 317 370
#     4  10  21  39  62  89 122 163 212 259 309 367
#     4   9  18  33  59  93 124 158 206 263 315 364
#
# _framework density 21.425944000000001
#
# number of rings (size 3 to 8) (size 9 to 14) (size 15 to 20)
#    0.000    1.667    1.667    3.000    0.000    7.667 
#    0.000    3.333    0.000    2.000    0.000    0.000 
#    0.000    0.000    0.000    0.000    0.000    0.000 
#
# Total GULP energy -268393.184322 kJ/mol
# GULP energy per Si atom -5591.524673 kJ/mol
# Density = 2.137718 g / cm^3
# Si number density = 21.425944 Si / 1000 Ang^3
#
#
#
# Elastic Constant Matrix: (Units=GPa)
#
#
# Indices 1 2 3 4 5 6 
#
# 1 152.5053 36.6557 50.9111 0.0000 0.0000 0.0000
# 2 36.6557 26.8947 17.8488 0.0000 0.0000 0.0000
# 3 50.9111 17.8488 109.9472 0.0000 0.0000 0.0000
# 4 0.0000 0.0000 0.0000 8.9301 0.0000 0.0000
# 5 0.0000 0.0000 0.0000 0.0000 62.0760 0.0000
# 6 0.0000 0.0000 0.0000 0.0000 0.0000 28.6639
#
#
#
# Elastic Compliance Matrix: (Units=1/GPa)
#
#
# Indices 1 2 3 4 5 6 
#
# 1 0.010489 -0.012409 -0.002842 0.000000 0.000000 0.000000
# 2 -0.012409 0.056353 -0.003402 0.000000 0.000000 0.000000
# 3 -0.002842 -0.003402 0.010964 0.000000 0.000000 0.000000
# 4 0.000000 0.000000 0.000000 0.111981 0.000000 0.000000
# 5 0.000000 0.000000 0.000000 0.000000 0.016109 0.000000
# 6 0.000000 0.000000 0.000000 0.000000 0.000000 0.034887
#
#
# Mechanical properties :
#
#
# Convention : Reuss Voigt Hill
#
# Bulk Modulus (GPa) = 24.69263 55.57537 40.13400
# Shear Modulus (GPa) = 17.14746 32.19611 24.67178
#
# Velocity S-wave (km/s) = 2.83205 3.88063 3.39704
# Velocity P-wave (km/s) = 4.71632 6.78776 5.84455
#
# Compressibility (1/GPa) = 0.04049791
#
# Stress axis : x y z
#
# Youngs Moduli (GPa) = 95.34196 17.74539 91.20995
#
# Poissons Ratio (x) = 0.22020 0.25924
# Poissons Ratio (y) = 1.18309 0.31032
# Poissons Ratio (z) = 0.27099 0.06038
#
# Static dielectric constant tensor:
#      x y z
#    x 1.773390 0.000000 0.000000 
#    y 0.000000 1.775090 0.000000 
#    z 0.000000 0.000000 1.750330 
# 
# From -- ./inp_files/29250.got.cif
#   From: 2010.05.17/outbox.cif.g08.bks.cpg/sg67_15_cif.got.tgz:29250.got - 2010.06.03 18:28:57.
