data_PCOD9501290
_publ_section_title
;
Structure prediction by ZEFSAII (Michael W. Deem and Ramdas Pophale) SiO2 
 PCOD9501290
Probable space group: C M M A
;
_chemical_formula_sum "Si O2"
_cell_formula_units_Z 80
_cell_length_a 26.559008
_cell_length_b 15.286447
_cell_length_c 9.230126
_cell_angle_alpha 90.000000
_cell_angle_beta 90.000000
_cell_angle_gamma 90.000000
_cell_volume 3747.365328
_symmetry_space_group_name_H-M "C M M A"
_symmetry_group_IT_number 67
_symmetry_cell_setting 'orthorhombic'
loop_
_space_group_symop_operation_xyz
x,y,z
-x,1/2-y,z
x,-y,-z
-x,1/2+y,-z
-x,-y,-z
x,1/2+y,-z
-x,y,z
x,1/2-y,z
1/2+x,1/2+y,z
1/2-x,-y,z
1/2+x,1/2-y,-z
1/2-x,y,-z
1/2-x,1/2-y,-z
1/2+x,y,-z
1/2-x,1/2+y,z
1/2+x,-y,z
loop_
_atom_site_type_symbol
_atom_site_label
_atom_site_fract_x
_atom_site_fract_y
_atom_site_fract_z
Si Si1 0.345258 0.642768 0.351884
Si Si2 0.751022 0.356623 0.833926
Si Si3 0.442176 0.914033 0.899581
Si Si4 0.643559 0.856070 0.687149
Si Si5 0.444627 0.651395 0.200281
O O1 0.343813 0.750000 0.346207
O O2 0.295731 0.612969 0.264880
O O3 0.349490 0.618596 0.519693
O O4 0.395923 0.610504 0.273342
O O5 0.748287 0.250000 0.835682
O O6 0.804556 0.379503 0.766293
O O7 0.750000 0.386543 0.000000
O O8 0.500000 0.911867 0.848209
O O9 0.402929 0.898305 0.772621
O O10 0.436488 0.843737 0.028126
O O11 0.434592 0.000000 0.000000
O O12 0.637403 0.750000 0.692647
O O13 0.500000 0.610486 0.224853
O O14 0.447272 0.750000 0.258213
#
# Coordination Sequence:
#
# PCOD9501290 Si02
#       5
#    16  16  16  16  16
#     4   9  17  29  48  78 111 135 164 213 266 315
#     4   9  16  27  47  76 107 136 167 204 250 308
#     4  10  21  36  52  72 100 135 177 222 267 318
#     4  10  19  31  51  78 105 134 171 217 267 317
#     4   9  17  31  52  75  98 128 167 209 255 310
#
# _framework density 21.348333
#
# number of rings (size 3 to 8) (size 9 to 14) (size 15 to 20)
#    0.000    2.600    0.000    2.400    0.000    7.600 
#    0.000    3.000    0.000    9.000    0.000    5.600 
#    0.000    0.000    0.000    0.000    0.000    0.000 
#
# Total GULP energy -223165.598971 kJ/mol
# GULP energy per Si atom -5579.139974 kJ/mol
# Density = 2.129974 g / cm^3
# Si number density = 21.348333 Si / 1000 Ang^3
#
#
#
# Elastic Constant Matrix: (Units=GPa)
#
#
# Indices 1 2 3 4 5 6 
#
# 1 233.3222 27.2441 155.0875 0.0000 0.0000 0.0000
# 2 27.2441 51.5378 18.9200 0.0000 0.0000 0.0000
# 3 155.0875 18.9200 190.2632 0.0000 0.0000 0.0000
# 4 0.0000 0.0000 0.0000 12.6919 0.0000 0.0000
# 5 0.0000 0.0000 0.0000 0.0000 -38.1372 0.0000
# 6 0.0000 0.0000 0.0000 0.0000 0.0000 -4.3163
#
#
#
# Elastic Compliance Matrix: (Units=1/GPa)
#
#
# Indices 1 2 3 4 5 6 
#
# 1 0.009607 -0.002287 -0.007603 0.000000 0.000000 0.000000
# 2 -0.002287 0.020683 -0.000192 0.000000 0.000000 0.000000
# 3 -0.007603 -0.000192 0.011473 0.000000 0.000000 0.000000
# 4 0.000000 0.000000 0.000000 0.078790 0.000000 0.000000
# 5 0.000000 0.000000 0.000000 0.000000 -0.026221 0.000000
# 6 0.000000 0.000000 0.000000 0.000000 0.000000 -0.231680
#
#
# Mechanical properties :
#
#
# Convention : Reuss Voigt Hill
#
# Bulk Modulus (GPa) = 46.30353 97.51403 71.90878
# Shear Modulus (GPa) = -45.46103 12.30579 -16.57762
#
# Velocity S-wave (km/s) = -4.61964 2.40350 -2.78965
# Velocity P-wave (km/s) = 2.59195 7.31294 4.83534
#
# Compressibility (1/GPa) = 0.02159663
#
# Stress axis : x y z
#
# Youngs Moduli (GPa) = 104.09252 48.34906 87.16404
#
# Poissons Ratio (x) = 0.11058 0.66273
# Poissons Ratio (y) = 0.23808 0.01677
# Poissons Ratio (z) = 0.79145 0.00930
#
# Static dielectric constant tensor:
#      x y z
#    x 1.751070 0.000000 0.000000 
#    y 0.000000 1.912020 0.000000 
#    z 0.000000 0.000000 1.726110 
# 
# From -- ./inp_files/13529.got.cif
#   From: 2010.05.17/outbox.cif.g08.bks.cpg/sg67_7_cif.got.tgz:13529.got - 2010.06.03 18:28:57.
