data_PCOD9501590
_publ_section_title
;
Structure prediction by ZEFSAII (Michael W. Deem and Ramdas Pophale) SiO2 
 PCOD9501590
Probable space group: C M M A
;
_chemical_formula_sum "Si O2"
_cell_formula_units_Z 80
_cell_length_a 26.794281
_cell_length_b 14.042585
_cell_length_c 11.493769
_cell_angle_alpha 90.000000
_cell_angle_beta 90.000000
_cell_angle_gamma 90.000000
_cell_volume 4324.656655
_symmetry_space_group_name_H-M "C M M A"
_symmetry_group_IT_number 67
_symmetry_cell_setting 'orthorhombic'
loop_
_space_group_symop_operation_xyz
x,y,z
-x,1/2-y,z
x,-y,-z
-x,1/2+y,-z
-x,-y,-z
x,1/2+y,-z
-x,y,z
x,1/2-y,z
1/2+x,1/2+y,z
1/2-x,-y,z
1/2+x,1/2-y,-z
1/2-x,y,-z
1/2-x,1/2-y,-z
1/2+x,y,-z
1/2-x,1/2+y,z
1/2+x,-y,z
loop_
_atom_site_type_symbol
_atom_site_label
_atom_site_fract_x
_atom_site_fract_y
_atom_site_fract_z
Si Si1 0.595005 0.956290 0.679594
Si Si2 0.940009 0.358952 0.444251
Si Si3 0.694130 0.017791 0.195412
Si Si4 0.160623 0.137835 0.021016
Si Si5 0.444595 0.863319 0.911746
O O1 0.580653 0.891285 0.569817
O O2 0.566088 0.919704 0.793279
O O3 0.579905 0.063595 0.646594
O O4 0.653551 0.952706 0.709642
O O5 0.926469 0.250000 0.417838
O O6 0.000000 0.366106 0.448498
O O7 0.750000 0.000000 0.236960
O O8 0.690347 0.094878 0.090114
O O9 0.676369 0.920613 0.133441
O O10 0.168486 0.250000 0.030432
O O11 0.101966 0.118090 0.996175
O O12 0.500000 0.884695 0.957556
O O13 0.442689 0.750000 0.885522
#
# Coordination Sequence:
#
# PCOD9501590 Si02
#       5
#    16  16  16  16  16
#     4  10  19  33  52  74 100 130 165 204 245 292
#     4  10  20  35  55  77 101 128 158 196 245 302
#     4  10  21  35  51  73  99 131 171 211 248 284
#     4   9  18  33  52  74 102 135 169 204 242 290
#     4   9  16  28  49  77 106 134 163 196 239 293
#
# _framework density 18.49858
#
# number of rings (size 3 to 8) (size 9 to 14) (size 15 to 20)
#    0.000    2.400    0.000    4.200    0.000    4.800 
#    0.000   12.000    0.000    3.600    0.000    0.000 
#    0.000    0.000    0.000    0.000    0.000    0.000 
#
# Total GULP energy -223319.217462 kJ/mol
# GULP energy per Si atom -5582.980437 kJ/mol
# Density = 1.845648 g / cm^3
# Si number density = 18.498580 Si / 1000 Ang^3
#
#
#
# Elastic Constant Matrix: (Units=GPa)
#
#
# Indices 1 2 3 4 5 6 
#
# 1 98.4160 8.9129 12.7821 0.0000 0.0000 0.0000
# 2 8.9129 102.6881 13.7054 0.0000 0.0000 0.0000
# 3 12.7821 13.7054 26.5380 0.0000 0.0000 0.0000
# 4 0.0000 0.0000 0.0000 10.3917 0.0000 0.0000
# 5 0.0000 0.0000 0.0000 0.0000 -19.9511 0.0000
# 6 0.0000 0.0000 0.0000 0.0000 0.0000 20.8258
#
#
#
# Elastic Compliance Matrix: (Units=1/GPa)
#
#
# Indices 1 2 3 4 5 6 
#
# 1 0.010846 -0.000262 -0.005088 0.000000 0.000000 0.000000
# 2 -0.000262 0.010465 -0.005279 0.000000 0.000000 0.000000
# 3 -0.005088 -0.005279 0.042859 0.000000 0.000000 0.000000
# 4 0.000000 0.000000 0.000000 0.096231 0.000000 0.000000
# 5 0.000000 0.000000 0.000000 0.000000 -0.050123 0.000000
# 6 0.000000 0.000000 0.000000 0.000000 0.000000 0.048017
#
#
# Mechanical properties :
#
#
# Convention : Reuss Voigt Hill
#
# Bulk Modulus (GPa) = 23.30374 33.16030 28.23202
# Shear Modulus (GPa) = 25.79212 15.06939 20.43076
#
# Velocity S-wave (km/s) = 3.73805 2.85726 3.32693
# Velocity P-wave (km/s) = 5.59067 5.37122 5.48205
#
# Compressibility (1/GPa) = 0.04291156
#
# Stress axis : x y z
#
# Youngs Moduli (GPa) = 92.20356 95.55213 23.33244
#
# Poissons Ratio (x) = 0.02506 0.11872
# Poissons Ratio (y) = 0.02418 0.12316
# Poissons Ratio (z) = 0.46917 0.50438
#
# Static dielectric constant tensor:
#      x y z
#    x 1.652600 0.000000 0.000000 
#    y 0.000000 1.649580 0.000000 
#    z 0.000000 0.000000 1.608690 
# 
# From -- ./inp_files/21655.got.cif
#   From: 2010.05.17/outbox.cif.g08.bks.cpg/sg67_11_cif.got.tgz:21655.got - 2010.06.03 18:28:57.
