data_PCOD9501525
_publ_section_title
;
Structure prediction by ZEFSAII (Michael W. Deem and Ramdas Pophale) SiO2 
 PCOD9501525
Probable space group: C M M A
;
_chemical_formula_sum "Si O2"
_cell_formula_units_Z 96
_cell_length_a 14.369991
_cell_length_b 25.176220
_cell_length_c 11.302844
_cell_angle_alpha 90.000000
_cell_angle_beta 90.000000
_cell_angle_gamma 90.000000
_cell_volume 4089.166128
_symmetry_space_group_name_H-M "C M M A"
_symmetry_group_IT_number 67
_symmetry_cell_setting 'orthorhombic'
loop_
_space_group_symop_operation_xyz
x,y,z
-x,1/2-y,z
x,-y,-z
-x,1/2+y,-z
-x,-y,-z
x,1/2+y,-z
-x,y,z
x,1/2-y,z
1/2+x,1/2+y,z
1/2-x,-y,z
1/2+x,1/2-y,-z
1/2-x,y,-z
1/2-x,1/2-y,-z
1/2+x,y,-z
1/2-x,1/2+y,z
1/2+x,-y,z
loop_
_atom_site_type_symbol
_atom_site_label
_atom_site_fract_x
_atom_site_fract_y
_atom_site_fract_z
Si Si1 0.386892 0.750000 0.056737
Si Si2 0.613336 0.356053 0.813340
Si Si3 0.397725 0.355643 0.337335
Si Si4 0.346385 0.689670 0.429265
Si Si5 0.886828 0.528540 0.878094
Si Si6 0.113719 0.025561 0.627388
Si Si7 0.113607 0.250000 0.785487
O O1 0.500000 0.750000 0.062104
O O2 0.355687 0.803747 0.118038
O O3 0.361447 0.750000 0.920941
O O4 0.500000 0.356219 0.807149
O O5 0.649629 0.349130 0.680903
O O6 0.642964 0.410141 0.875422
O O7 0.500000 0.364220 0.279915
O O8 0.409821 0.333444 0.468672
O O9 0.353635 0.413570 0.352864
O O10 0.352548 0.305405 0.270469
O O11 0.371685 0.750000 0.393168
O O12 0.250000 0.691453 0.500000
O O13 0.860444 0.504591 0.749285
O O14 0.000000 0.526837 0.879520
O O15 0.856818 0.500000 0.000000
O O16 0.000000 0.026655 0.622330
O O17 0.142276 0.000000 0.500000
O O18 0.000000 0.250000 0.769655
#
# Coordination Sequence:
#
# PCOD9501525 Si02
#       7
#     8  16  16  16  16  16   8
#     4   9  18  29  47  78 110 141 178 223 272 327
#     4  10  19  33  55  80 112 149 185 226 278 339
#     4  10  19  32  54  76 102 136 174 219 270 332
#     4  11  22  35  52  77 110 141 179 232 283 332
#     4   9  18  30  49  81 116 144 176 222 274 326
#     4   9  17  29  46  72 104 136 173 218 265 314
#     4   9  18  29  45  76 106 131 170 221 270 319
#
# _framework density 23.476669000000001
#
# number of rings (size 3 to 8) (size 9 to 14) (size 15 to 20)
#    0.000    2.333    1.667    1.500    2.333    3.333 
#    0.000    0.000    0.000    6.500    0.000    1.167 
#    0.000    0.000    0.000    0.000    0.000    0.167 
#
# Total GULP energy -268036.838683 kJ/mol
# GULP energy per Si atom -5584.100806 kJ/mol
# Density = 2.342324 g / cm^3
# Si number density = 23.476669 Si / 1000 Ang^3
#
#
#
# Elastic Constant Matrix: (Units=GPa)
#
#
# Indices 1 2 3 4 5 6 
#
# 1 55.1523 16.4330 2.4359 0.0000 0.0000 0.0000
# 2 16.4330 211.2842 105.8695 0.0000 0.0000 0.0000
# 3 2.4359 105.8695 193.5609 0.0000 0.0000 0.0000
# 4 0.0000 0.0000 0.0000 39.5894 0.0000 0.0000
# 5 0.0000 0.0000 0.0000 0.0000 -0.6825 0.0000
# 6 0.0000 0.0000 0.0000 0.0000 0.0000 2.3841
#
#
#
# Elastic Compliance Matrix: (Units=1/GPa)
#
#
# Indices 1 2 3 4 5 6 
#
# 1 0.018645 -0.001836 0.000769 0.000000 0.000000 0.000000
# 2 -0.001836 0.006701 -0.003642 0.000000 0.000000 0.000000
# 3 0.000769 -0.003642 0.007149 0.000000 0.000000 0.000000
# 4 0.000000 0.000000 0.000000 0.025259 0.000000 0.000000
# 5 0.000000 0.000000 0.000000 0.000000 -1.465163 0.000000
# 6 0.000000 0.000000 0.000000 0.000000 0.000000 0.419445
#
#
# Mechanical properties :
#
#
# Convention : Reuss Voigt Hill
#
# Bulk Modulus (GPa) = 43.33216 78.83046 61.08131
# Shear Modulus (GPa) = -5.15010 30.60880 12.72935
#
# Velocity S-wave (km/s) = -1.48272 3.61473 2.33107
# Velocity P-wave (km/s) = 3.94542 7.14652 5.77231
#
# Compressibility (1/GPa) = 0.02307755
#
# Stress axis : x y z
#
# Youngs Moduli (GPa) = 53.63494 149.24128 139.88818
#
# Poissons Ratio (x) = 0.27395 -0.10763
# Poissons Ratio (y) = 0.09845 0.50945
# Poissons Ratio (z) = -0.04127 0.54351
#
# Static dielectric constant tensor:
#      x y z
#    x 1.906960 0.000000 0.000000 
#    y 0.000000 1.878780 0.000000 
#    z 0.000000 0.000000 1.836830 
# 
# From -- ./inp_files/21044.got.cif
#   From: 2010.05.17/outbox.cif.g08.bks.cpg/sg67_11_cif.got.tgz:21044.got - 2010.06.03 18:28:57.
