data_PCOD9501734
_publ_section_title
;
Structure prediction by ZEFSAII (Michael W. Deem and Ramdas Pophale) SiO2 
 PCOD9501734
Probable space group: C M M A
;
_chemical_formula_sum "Si O2"
_cell_formula_units_Z 96
_cell_length_a 19.258341
_cell_length_b 24.307142
_cell_length_c 9.821920
_cell_angle_alpha 90.000000
_cell_angle_beta 90.000000
_cell_angle_gamma 90.000000
_cell_volume 4597.790334
_symmetry_space_group_name_H-M "C M M A"
_symmetry_group_IT_number 67
_symmetry_cell_setting 'orthorhombic'
loop_
_space_group_symop_operation_xyz
x,y,z
-x,1/2-y,z
x,-y,-z
-x,1/2+y,-z
-x,-y,-z
x,1/2+y,-z
-x,y,z
x,1/2-y,z
1/2+x,1/2+y,z
1/2-x,-y,z
1/2+x,1/2-y,-z
1/2-x,y,-z
1/2-x,1/2-y,-z
1/2+x,y,-z
1/2-x,1/2+y,z
1/2+x,-y,z
loop_
_atom_site_type_symbol
_atom_site_label
_atom_site_fract_x
_atom_site_fract_y
_atom_site_fract_z
Si Si1 0.769619 0.689986 0.342230
Si Si2 0.383906 0.310925 0.772226
Si Si3 0.331953 0.100955 0.966968
Si Si4 0.127114 0.593740 0.271052
Si Si5 0.425459 0.605809 0.449575
Si Si6 0.826471 0.024938 0.298036
O O1 0.805830 0.750000 0.321311
O O2 0.750000 0.685685 0.500000
O O3 0.697260 0.692785 0.265245
O O4 0.807946 0.634845 0.297161
O O5 0.410842 0.250000 0.799530
O O6 0.378806 0.351476 0.899240
O O7 0.419555 0.339937 0.643539
O O8 0.327802 0.052774 0.852290
O O9 0.250000 0.114050 0.000000
O O10 0.371805 0.089726 0.107758
O O11 0.077737 0.617498 0.389580
O O12 0.128340 0.529621 0.308352
O O13 0.500000 0.578928 0.417508
O O14 0.359314 0.569561 0.400347
O O15 0.750000 0.000000 0.325512
#
# Coordination Sequence:
#
# PCOD9501734 Si02
#       6
#    16  16  16  16  16  16
#     4  10  19  33  57  93 130 156 201 271 333 388
#     4  10  21  39  65  94 128 171 217 268 334 401
#     4  11  21  37  58  99 138 166 209 268 336 394
#     4  12  22  35  61  90 129 171 211 266 336 390
#     4  11  26  45  63  91 130 173 227 277 330 395
#     4  11  23  39  64  94 129 170 219 273 327 402
#
# _framework density 20.879594999999998
#
# number of rings (size 3 to 8) (size 9 to 14) (size 15 to 20)
#    0.000    1.167    5.000    2.000    0.000    3.333 
#    0.000    3.333    0.000    5.000    0.000    0.000 
#    0.000    0.000    0.000    0.000    0.000    0.000 
#
# Total GULP energy -267221.416666 kJ/mol
# GULP energy per Si atom -5567.112847 kJ/mol
# Density = 2.083207 g / cm^3
# Si number density = 20.879595 Si / 1000 Ang^3
#
#
#
# Elastic Constant Matrix: (Units=GPa)
#
#
# Indices 1 2 3 4 5 6 
#
# 1 61.8196 18.8710 16.8593 0.0000 0.0000 0.0000
# 2 18.8710 100.0000 27.4363 0.0000 0.0000 0.0000
# 3 16.8593 27.4363 113.2475 0.0000 0.0000 0.0000
# 4 0.0000 0.0000 0.0000 9.7779 0.0000 0.0000
# 5 0.0000 0.0000 0.0000 0.0000 -21.9192 0.0000
# 6 0.0000 0.0000 0.0000 0.0000 0.0000 -23.6763
#
#
#
# Elastic Compliance Matrix: (Units=1/GPa)
#
#
# Indices 1 2 3 4 5 6 
#
# 1 0.017554 -0.002780 -0.001940 0.000000 0.000000 0.000000
# 2 -0.002780 0.011152 -0.002288 0.000000 0.000000 0.000000
# 3 -0.001940 -0.002288 0.009673 0.000000 0.000000 0.000000
# 4 0.000000 0.000000 0.000000 0.102271 0.000000 0.000000
# 5 0.000000 0.000000 0.000000 0.000000 -0.045622 0.000000
# 6 0.000000 0.000000 0.000000 0.000000 0.000000 -0.042236
#
#
# Mechanical properties :
#
#
# Convention : Reuss Voigt Hill
#
# Bulk Modulus (GPa) = 41.04505 44.60003 42.82254
# Shear Modulus (GPa) = 66.72963 6.96319 36.84641
#
# Velocity S-wave (km/s) = 5.65938 1.82816 4.20540
# Velocity P-wave (km/s) = 7.89971 5.08559 6.64337
#
# Compressibility (1/GPa) = 0.02436348
#
# Stress axis : x y z
#
# Youngs Moduli (GPa) = 56.96765 89.66660 103.37763
#
# Poissons Ratio (x) = 0.24931 0.20052
# Poissons Ratio (y) = 0.15839 0.23652
# Poissons Ratio (z) = 0.11050 0.20515
#
# Static dielectric constant tensor:
#      x y z
#    x 1.766240 0.000000 0.000000 
#    y 0.000000 1.800570 0.000000 
#    z 0.000000 0.000000 1.413140 
# 
# From -- ./inp_files/11467.got.cif
#   From: 2010.05.17/outbox.cif.g08.bks.cpg/sg67_6_cif.got.tgz:11467.got - 2010.06.03 18:28:57.
