data_PCOD9501430
_publ_section_title
;
Structure prediction by ZEFSAII (Michael W. Deem and Ramdas Pophale) SiO2 
 PCOD9501430
Probable space group: C M M A
;
_chemical_formula_sum "Si O2"
_cell_formula_units_Z 88
_cell_length_a 8.661221
_cell_length_b 15.147115
_cell_length_c 32.486988
_cell_angle_alpha 90.000000
_cell_angle_beta 90.000000
_cell_angle_gamma 90.000000
_cell_volume 4262.049515
_symmetry_space_group_name_H-M "C M M A"
_symmetry_group_IT_number 67
_symmetry_cell_setting 'orthorhombic'
loop_
_space_group_symop_operation_xyz
x,y,z
-x,1/2-y,z
x,-y,-z
-x,1/2+y,-z
-x,-y,-z
x,1/2+y,-z
-x,y,z
x,1/2-y,z
1/2+x,1/2+y,z
1/2-x,-y,z
1/2+x,1/2-y,-z
1/2-x,y,-z
1/2-x,1/2-y,-z
1/2+x,y,-z
1/2-x,1/2+y,z
1/2+x,-y,z
loop_
_atom_site_type_symbol
_atom_site_label
_atom_site_fract_x
_atom_site_fract_y
_atom_site_fract_z
Si Si1 0.313571 0.400047 0.104600
Si Si2 0.327194 0.354717 0.630504
Si Si3 0.813624 0.599918 0.195421
Si Si4 0.684019 0.401485 0.283647
Si Si5 0.813693 0.854072 0.542459
Si Si6 0.315540 0.750000 0.046007
O O1 0.500000 0.401471 0.101891
O O2 0.250000 0.500000 0.100676
O O3 0.269037 0.364620 0.150520
O O4 0.245324 0.335580 0.070537
O O5 0.500000 0.392316 0.636204
O O6 0.341758 0.250000 0.623836
O O7 0.238477 0.364316 0.672967
O O8 0.260128 0.389772 0.587118
O O9 0.750000 0.500000 0.195555
O O10 0.765444 0.640360 0.239588
O O11 0.000000 0.597961 0.195564
O O12 0.500000 0.402008 0.283753
O O13 0.750000 0.500000 0.282903
O O14 0.769040 0.750000 0.541609
O O15 0.750000 0.893333 0.500000
O O16 0.000000 0.859043 0.542420
O O17 0.500000 0.750000 0.045177
O O18 0.250000 0.750000 0.000000
#
# Coordination Sequence:
#
# PCOD9501430 Si02
#       6
#    16  16  16  16  16   8
#     4  10  20  39  65  92 123 161 201 249 303 354
#     4   9  18  32  47  67  99 132 163 206 259 311
#     4   8  16  31  53  79 107 140 180 223 268 319
#     4  10  19  32  51  75 102 137 176 214 258 314
#     4   8  14  25  42  63  87 118 156 200 251 306
#     4  12  26  44  64  92 126 162 206 252 299 356
#
# _framework density 20.647342999999999
#
# number of rings (size 3 to 8) (size 9 to 14) (size 15 to 20)
#    0.000    2.727    0.000    3.000    0.000    2.909 
#    1.636    3.636    0.000    0.545    0.000    3.818 
#    0.000    0.000    0.000    0.000    0.000    0.000 
#
# Total GULP energy -245059.212500 kJ/mol
# GULP energy per Si atom -5569.527557 kJ/mol
# Density = 2.060035 g / cm^3
# Si number density = 20.647343 Si / 1000 Ang^3
#
#
#
# Elastic Constant Matrix: (Units=GPa)
#
#
# Indices 1 2 3 4 5 6 
#
# 1 53.6721 16.2293 66.2953 0.0000 0.0000 0.0000
# 2 16.2293 60.9099 54.6058 0.0000 0.0000 0.0000
# 3 66.2953 54.6058 271.4173 0.0000 0.0000 0.0000
# 4 0.0000 0.0000 0.0000 51.2197 0.0000 0.0000
# 5 0.0000 0.0000 0.0000 0.0000 32.6517 0.0000
# 6 0.0000 0.0000 0.0000 0.0000 0.0000 19.9646
#
#
#
# Elastic Compliance Matrix: (Units=1/GPa)
#
#
# Indices 1 2 3 4 5 6 
#
# 1 0.026801 -0.001552 -0.006234 0.000000 0.000000 0.000000
# 2 -0.001552 0.020120 -0.003669 0.000000 0.000000 0.000000
# 3 -0.006234 -0.003669 0.005945 0.000000 0.000000 0.000000
# 4 0.000000 0.000000 0.000000 0.019524 0.000000 0.000000
# 5 0.000000 0.000000 0.000000 0.000000 0.030626 0.000000
# 6 0.000000 0.000000 0.000000 0.000000 0.000000 0.050089
#
#
# Mechanical properties :
#
#
# Convention : Reuss Voigt Hill
#
# Bulk Modulus (GPa) = 33.38168 73.36223 53.37195
# Shear Modulus (GPa) = 26.88152 37.35847 32.12000
#
# Velocity S-wave (km/s) = 3.61215 4.25827 3.94845
# Velocity P-wave (km/s) = 5.79651 7.73210 6.83319
#
# Compressibility (1/GPa) = 0.02995655
#
# Stress axis : x y z
#
# Youngs Moduli (GPa) = 37.31160 49.70080 168.20298
#
# Poissons Ratio (x) = 0.07715 1.04859
# Poissons Ratio (y) = 0.05792 0.61711
# Poissons Ratio (z) = 0.23260 0.18234
#
# Static dielectric constant tensor:
#      x y z
#    x 1.697380 0.000000 0.000000 
#    y 0.000000 1.753470 0.000000 
#    z 0.000000 0.000000 1.821810 
# 
# From -- ./inp_files/45192.got.cif
#   From: 2010.05.17/outbox.cif.g08.bks.cpg/sg67_23_cif.got.tgz:45192.got - 2010.06.03 18:28:57.
