data_PCOD9501680
_publ_section_title
;
Structure prediction by ZEFSAII (Michael W. Deem and Ramdas Pophale) SiO2 
 PCOD9501680
Probable space group: C M M A
;
_chemical_formula_sum "Si O2"
_cell_formula_units_Z 112
_cell_length_a 21.457457
_cell_length_b 14.950135
_cell_length_c 16.613125
_cell_angle_alpha 90.000000
_cell_angle_beta 90.000000
_cell_angle_gamma 90.000000
_cell_volume 5329.355583
_symmetry_space_group_name_H-M "C M M A"
_symmetry_group_IT_number 67
_symmetry_cell_setting 'orthorhombic'
loop_
_space_group_symop_operation_xyz
x,y,z
-x,1/2-y,z
x,-y,-z
-x,1/2+y,-z
-x,-y,-z
x,1/2+y,-z
-x,y,z
x,1/2-y,z
1/2+x,1/2+y,z
1/2-x,-y,z
1/2+x,1/2-y,-z
1/2-x,y,-z
1/2-x,1/2-y,-z
1/2+x,y,-z
1/2-x,1/2+y,z
1/2+x,-y,z
loop_
_atom_site_type_symbol
_atom_site_label
_atom_site_fract_x
_atom_site_fract_y
_atom_site_fract_z
Si Si1 0.319954 0.353484 0.526475
Si Si2 0.134110 0.152329 0.651526
Si Si3 0.797983 0.356378 0.932228
Si Si4 0.366537 0.453494 0.682191
Si Si5 0.928259 0.605179 0.993143
Si Si6 0.754961 0.353504 0.240491
Si Si7 0.932008 0.144602 0.181004
O O1 0.315720 0.250000 0.556599
O O2 0.250000 0.381275 0.500000
O O3 0.359383 0.352374 0.444586
O O4 0.350402 0.416252 0.593603
O O5 0.105646 0.250000 0.673110
O O6 0.203057 0.153149 0.690378
O O7 0.110846 0.055807 0.680385
O O8 0.790590 0.250000 0.934004
O O9 0.776325 0.382214 0.842964
O O10 0.750000 0.393181 0.000000
O O11 0.871571 0.371534 0.947072
O O12 0.304320 0.427076 0.731824
O O13 0.414078 0.397087 0.734784
O O14 0.899226 0.627659 0.904607
O O15 0.000000 0.643145 0.004508
O O16 0.934933 0.500000 0.000000
O O17 0.780834 0.250000 0.231888
O O18 0.933054 0.250000 0.191168
O O19 0.000000 0.107604 0.161351
#
# Coordination Sequence:
#
# PCOD9501680 Si02
#       7
#    16  16  16  16  16  16  16
#     4  10  19  33  54  85 122 155 197 242 290 365
#     4  10  22  36  51  80 123 160 199 247 289 356
#     4  10  21  37  57  84 119 155 196 250 313 375
#     4  12  21  34  62  87 118 165 199 240 314 374
#     4  10  22  40  61  87 120 161 210 251 299 370
#     4  10  20  33  51  83 120 152 195 243 299 365
#     4  10  22  40  63  92 120 148 197 262 310 353
#
# _framework density 21.015675000000002
#
# number of rings (size 3 to 8) (size 9 to 14) (size 15 to 20)
#    0.000    1.714    1.429    3.429    2.000    2.857 
#    2.571    0.000    0.000    2.143    0.000    2.000 
#    0.000    0.000    0.000    0.000    0.000    0.000 
#
# Total GULP energy -312008.074672 kJ/mol
# GULP energy per Si atom -5571.572762 kJ/mol
# Density = 2.096784 g / cm^3
# Si number density = 21.015675 Si / 1000 Ang^3
#
#
#
# Elastic Constant Matrix: (Units=GPa)
#
#
# Indices 1 2 3 4 5 6 
#
# 1 33.3435 -5.7217 37.0197 0.0000 0.0000 0.0000
# 2 -5.7217 115.5998 44.7191 0.0000 0.0000 0.0000
# 3 37.0197 44.7191 115.3139 0.0000 0.0000 0.0000
# 4 0.0000 0.0000 0.0000 34.9619 0.0000 0.0000
# 5 0.0000 0.0000 0.0000 0.0000 47.8386 0.0000
# 6 0.0000 0.0000 0.0000 0.0000 0.0000 36.8450
#
#
#
# Elastic Compliance Matrix: (Units=1/GPa)
#
#
# Indices 1 2 3 4 5 6 
#
# 1 0.057616 0.011773 -0.023063 0.000000 0.000000 0.000000
# 2 0.011773 0.012583 -0.008659 0.000000 0.000000 0.000000
# 3 -0.023063 -0.008659 0.019434 0.000000 0.000000 0.000000
# 4 0.000000 0.000000 0.000000 0.028603 0.000000 0.000000
# 5 0.000000 0.000000 0.000000 0.000000 0.020904 0.000000
# 6 0.000000 0.000000 0.000000 0.000000 0.000000 0.027141
#
#
# Mechanical properties :
#
#
# Convention : Reuss Voigt Hill
#
# Bulk Modulus (GPa) = 20.10606 46.25459 33.18033
# Shear Modulus (GPa) = 22.44607 36.47846 29.46226
#
# Velocity S-wave (km/s) = 3.27167 4.17078 3.74828
# Velocity P-wave (km/s) = 4.88464 6.72690 5.87839
#
# Compressibility (1/GPa) = 0.04973625
#
# Stress axis : x y z
#
# Youngs Moduli (GPa) = 17.35620 79.47162 51.45628
#
# Poissons Ratio (x) = -0.93565 1.18671
# Poissons Ratio (y) = -0.20434 0.44558
# Poissons Ratio (z) = 0.40028 0.68818
#
# Static dielectric constant tensor:
#      x y z
#    x 1.755480 0.000000 0.000000 
#    y 0.000000 1.813520 0.000000 
#    z 0.000000 0.000000 1.777270 
# 
# From -- ./inp_files/30199.got.cif
#   From: 2010.05.17/outbox.cif.g08.bks.cpg/sg67_16_cif.got.tgz:30199.got - 2010.06.03 18:28:57.
