data_PCOD9501031
_publ_section_title
;
Structure prediction by ZEFSAII (Michael W. Deem and Ramdas Pophale) SiO2 
 PCOD9501031
Probable space group: C M M A
;
_chemical_formula_sum "Si O2"
_cell_formula_units_Z 64
_cell_length_a 36.610075
_cell_length_b 11.225344
_cell_length_c 7.280883
_cell_angle_alpha 90.000000
_cell_angle_beta 90.000000
_cell_angle_gamma 90.000000
_cell_volume 2992.156670
_symmetry_space_group_name_H-M "C M M A"
_symmetry_group_IT_number 67
_symmetry_cell_setting 'orthorhombic'
loop_
_space_group_symop_operation_xyz
x,y,z
-x,1/2-y,z
x,-y,-z
-x,1/2+y,-z
-x,-y,-z
x,1/2+y,-z
-x,y,z
x,1/2-y,z
1/2+x,1/2+y,z
1/2-x,-y,z
1/2+x,1/2-y,-z
1/2-x,y,-z
1/2-x,1/2-y,-z
1/2+x,y,-z
1/2-x,1/2+y,z
1/2+x,-y,z
loop_
_atom_site_type_symbol
_atom_site_label
_atom_site_fract_x
_atom_site_fract_y
_atom_site_fract_z
Si Si1 0.043681 0.621367 0.788278
Si Si2 0.649924 0.616871 0.625309
Si Si3 0.426028 0.621027 0.796348
Si Si4 0.734585 0.120907 0.289771
O O1 0.053624 0.750000 0.703815
O O2 0.057374 0.497199 0.706507
O O3 0.000000 0.616062 0.803748
O O4 0.060859 0.622652 0.992972
O O5 0.645314 0.500000 0.500000
O O6 0.646865 0.750000 0.534595
O O7 0.617558 0.613182 0.773911
O O8 0.690831 0.612086 0.703203
O O9 0.437738 0.750000 0.719390
O O10 0.745072 0.250000 0.211128
O O11 0.750000 0.122766 0.500000
O O12 0.750000 0.000000 0.205849
#
# Coordination Sequence:
#
# PCOD9501031 Si02
#       4
#    16  16  16  16
#     4   9  17  31  52  73  89 109 145 191 230 266
#     4  10  19  29  42  64  95 125 150 182 223 266
#     4   9  17  28  44  68  94 118 145 182 227 268
#     4   9  15  25  41  59  82 113 150 186 215 249
#
# _framework density 21.389254999999999
#
# number of rings (size 3 to 8) (size 9 to 14) (size 15 to 20)
#    0.000    2.750    2.500    1.500    0.000    2.500 
#    0.000    0.000    0.000    3.000    0.000    7.000 
#    0.000   26.000    0.000    0.000    0.000    0.000 
#
# Total GULP energy -178155.879274 kJ/mol
# GULP energy per Si atom -5567.371227 kJ/mol
# Density = 2.134057 g / cm^3
# Si number density = 21.389255 Si / 1000 Ang^3
#
#
#
# Elastic Constant Matrix: (Units=GPa)
#
#
# Indices 1 2 3 4 5 6 
#
# 1 110.7668 65.9401 15.2375 0.0000 0.0000 0.0000
# 2 65.9401 280.4240 24.0245 0.0000 0.0000 0.0000
# 3 15.2375 24.0245 63.9417 0.0000 0.0000 0.0000
# 4 0.0000 0.0000 0.0000 -13.0365 0.0000 0.0000
# 5 0.0000 0.0000 0.0000 0.0000 22.6418 0.0000
# 6 0.0000 0.0000 0.0000 0.0000 0.0000 37.8590
#
#
#
# Elastic Compliance Matrix: (Units=1/GPa)
#
#
# Indices 1 2 3 4 5 6 
#
# 1 0.010664 -0.002366 -0.001652 0.000000 0.000000 0.000000
# 2 -0.002366 0.004210 -0.001018 0.000000 0.000000 0.000000
# 3 -0.001652 -0.001018 0.016415 0.000000 0.000000 0.000000
# 4 0.000000 0.000000 0.000000 -0.076708 0.000000 0.000000
# 5 0.000000 0.000000 0.000000 0.000000 0.044166 0.000000
# 6 0.000000 0.000000 0.000000 0.000000 0.000000 0.026414
#
#
# Mechanical properties :
#
#
# Convention : Reuss Voigt Hill
#
# Bulk Modulus (GPa) = 47.13282 73.94852 60.54067
# Shear Modulus (GPa) = 118.18884 32.82155 75.50520
#
# Velocity S-wave (km/s) = 7.44151 3.92150 5.94787
# Velocity P-wave (km/s) = 9.79380 7.42644 8.69110
#
# Compressibility (1/GPa) = 0.02121664
#
# Stress axis : x y z
#
# Youngs Moduli (GPa) = 93.77581 237.55392 60.91835
#
# Poissons Ratio (x) = 0.56204 0.10065
# Poissons Ratio (y) = 0.22187 0.06200
# Poissons Ratio (z) = 0.15494 0.24179
#
# Static dielectric constant tensor:
#      x y z
#    x 1.724870 0.000000 0.000000 
#    y 0.000000 1.888730 0.000000 
#    z 0.000000 0.000000 1.709350 
# 
# From -- ./inp_files/6725.got.cif
#   From: 2010.05.17/outbox.cif.g08.bks.cpg/sg67_4_cif.got.tgz:6725.got - 2010.06.03 18:28:57.
