data_PCOD9501232
_publ_section_title
;
Structure prediction by ZEFSAII (Michael W. Deem and Ramdas Pophale) SiO2 
 PCOD9501232
Probable space group: C M M A
;
_chemical_formula_sum "Si O2"
_cell_formula_units_Z 72
_cell_length_a 15.412818
_cell_length_b 8.795464
_cell_length_c 26.673235
_cell_angle_alpha 90.000000
_cell_angle_beta 90.000000
_cell_angle_gamma 90.000000
_cell_volume 3615.900712
_symmetry_space_group_name_H-M "C M M A"
_symmetry_group_IT_number 67
_symmetry_cell_setting 'orthorhombic'
loop_
_space_group_symop_operation_xyz
x,y,z
-x,1/2-y,z
x,-y,-z
-x,1/2+y,-z
-x,-y,-z
x,1/2+y,-z
-x,y,z
x,1/2-y,z
1/2+x,1/2+y,z
1/2-x,-y,z
1/2+x,1/2-y,-z
1/2-x,y,-z
1/2-x,1/2-y,-z
1/2+x,y,-z
1/2-x,1/2+y,z
1/2+x,-y,z
loop_
_atom_site_type_symbol
_atom_site_label
_atom_site_fract_x
_atom_site_fract_y
_atom_site_fract_z
Si Si1 0.103593 0.919812 0.049755
Si Si2 0.500000 0.065762 0.555520
Si Si3 0.846892 0.066354 0.840900
Si Si4 0.653500 0.432940 0.628815
Si Si5 0.652382 0.067804 0.740183
O O1 0.140624 0.750000 0.050947
O O2 0.117441 0.986121 0.105160
O O3 0.000000 0.910066 0.043744
O O4 0.138195 0.000000 0.000000
O O5 0.500000 0.250000 0.553647
O O6 0.414634 0.017915 0.586724
O O7 0.500000 0.000000 0.500000
O O8 0.848632 0.250000 0.838711
O O9 0.750000 0.000000 0.840332
O O10 0.889708 0.002805 0.790018
O O11 0.661108 0.250000 0.626869
O O12 0.750000 0.500000 0.622710
O O13 0.617471 0.469153 0.684773
O O14 0.655543 0.250000 0.745786
O O15 0.750000 0.000000 0.738287
#
# Coordination Sequence:
#
# PCOD9501232 Si02
#       5
#    16   8  16  16  16
#     4   9  19  35  51  66  90 126 165 205 250 299
#     4  10  22  40  58  82 116 150 185 230 273 318
#     4  10  19  31  49  73 101 128 159 205 255 304
#     4   9  19  36  58  81 111 148 185 226 274 323
#     4   9  16  29  50  75 101 133 168 205 252 307
#
# _framework density 19.912051999999999
#
# number of rings (size 3 to 8) (size 9 to 14) (size 15 to 20)
#    0.000    2.667    0.000    2.667    0.000    4.444 
#    2.000    4.444    0.000    0.000    0.000    0.000 
#    0.000    0.000    0.000    0.000    0.000    0.000 
#
# Total GULP energy -200531.635021 kJ/mol
# GULP energy per Si atom -5570.323195 kJ/mol
# Density = 1.986673 g / cm^3
# Si number density = 19.912052 Si / 1000 Ang^3
#
#
#
# Elastic Constant Matrix: (Units=GPa)
#
#
# Indices 1 2 3 4 5 6 
#
# 1 57.2511 16.7748 59.0139 0.0000 0.0000 0.0000
# 2 16.7748 43.8444 60.1923 0.0000 0.0000 0.0000
# 3 59.0139 60.1923 242.5149 0.0000 0.0000 0.0000
# 4 0.0000 0.0000 0.0000 37.9320 0.0000 0.0000
# 5 0.0000 0.0000 0.0000 0.0000 33.6328 0.0000
# 6 0.0000 0.0000 0.0000 0.0000 0.0000 9.0198
#
#
#
# Elastic Compliance Matrix: (Units=1/GPa)
#
#
# Indices 1 2 3 4 5 6 
#
# 1 0.023401 -0.001722 -0.005267 0.000000 0.000000 0.000000
# 2 -0.001722 0.034723 -0.008199 0.000000 0.000000 0.000000
# 3 -0.005267 -0.008199 0.007440 0.000000 0.000000 0.000000
# 4 0.000000 0.000000 0.000000 0.026363 0.000000 0.000000
# 5 0.000000 0.000000 0.000000 0.000000 0.029733 0.000000
# 6 0.000000 0.000000 0.000000 0.000000 0.000000 0.110867
#
#
# Mechanical properties :
#
#
# Convention : Reuss Voigt Hill
#
# Bulk Modulus (GPa) = 28.41945 68.39694 48.40819
# Shear Modulus (GPa) = 18.20610 29.95887 24.08249
#
# Velocity S-wave (km/s) = 3.02706 3.88307 3.48148
# Velocity P-wave (km/s) = 5.14985 7.38434 6.36590
#
# Compressibility (1/GPa) = 0.03518717
#
# Stress axis : x y z
#
# Youngs Moduli (GPa) = 42.73395 28.79908 134.40598
#
# Poissons Ratio (x) = 0.04960 0.70789
# Poissons Ratio (y) = 0.07361 1.10202
# Poissons Ratio (z) = 0.22507 0.23613
#
# Static dielectric constant tensor:
#      x y z
#    x 1.706550 0.000000 0.000000 
#    y 0.000000 1.696980 0.000000 
#    z 0.000000 0.000000 1.772110 
# 
# From -- ./inp_files/42128.got.cif
#   From: 2010.05.17/outbox.cif.g08.bks.cpg/sg67_22_cif.got.tgz:42128.got - 2010.06.03 18:28:57.
