data_PCOD9501208
_publ_section_title
;
Structure prediction by ZEFSAII (Michael W. Deem and Ramdas Pophale) SiO2 
 PCOD9501208
Probable space group: C M M A
;
_chemical_formula_sum "Si O2"
_cell_formula_units_Z 96
_cell_length_a 8.791236
_cell_length_b 28.169553
_cell_length_c 24.350073
_cell_angle_alpha 90.000000
_cell_angle_beta 90.000000
_cell_angle_gamma 90.000000
_cell_volume 6030.178417
_symmetry_space_group_name_H-M "C M M A"
_symmetry_group_IT_number 67
_symmetry_cell_setting 'orthorhombic'
loop_
_space_group_symop_operation_xyz
x,y,z
-x,1/2-y,z
x,-y,-z
-x,1/2+y,-z
-x,-y,-z
x,1/2+y,-z
-x,y,z
x,1/2-y,z
1/2+x,1/2+y,z
1/2-x,-y,z
1/2+x,1/2-y,-z
1/2-x,y,-z
1/2-x,1/2-y,-z
1/2+x,y,-z
1/2-x,1/2+y,z
1/2+x,-y,z
loop_
_atom_site_type_symbol
_atom_site_label
_atom_site_fract_x
_atom_site_fract_y
_atom_site_fract_z
Si Si1 0.181236 0.552160 0.441214
Si Si2 0.816722 0.305062 0.941255
Si Si3 0.682888 0.195679 0.728193
Si Si4 0.181754 0.448105 0.225554
Si Si5 0.318031 0.104678 0.660626
Si Si6 0.817462 0.858023 0.168662
O O1 0.250000 0.500000 0.429086
O O2 0.250000 0.566884 0.500000
O O3 0.231168 0.586932 0.392682
O O4 0.000000 0.548613 0.445082
O O5 0.771432 0.250000 0.931276
O O6 0.768734 0.337636 0.890332
O O7 0.000000 0.306244 0.944159
O O8 0.750000 0.319586 0.000000
O O9 0.500000 0.192434 0.736094
O O10 0.722280 0.250000 0.715798
O O11 0.721198 0.157771 0.680802
O O12 0.761452 0.177730 0.783805
O O13 0.250000 0.500000 0.217435
O O14 0.217560 0.428930 0.287028
O O15 0.248760 0.409026 0.184146
O O16 0.000000 0.449169 0.220462
O O17 0.500000 0.102117 0.651065
O O18 0.000000 0.860584 0.169891
#
# Coordination Sequence:
#
# PCOD9501208 Si02
#       6
#    16  16  16  16  16  16
#     4  11  21  33  50  71  96 125 157 193 235 281
#     4   9  18  31  47  69  96 126 159 195 236 281
#     4   9  18  32  50  72  98 129 162 196 237 283
#     4  10  20  33  50  72  98 128 160 195 237 284
#     4   9  18  32  49  71  98 125 156 193 233 279
#     4  10  19  31  48  71  99 128 159 197 239 283
#
# _framework density 15.919926
#
# number of rings (size 3 to 8) (size 9 to 14) (size 15 to 20)
#    0.000    2.333    0.000    5.000    0.000    7.000 
#    0.000    1.667    0.000    1.000    0.000    3.500 
#    0.000    0.000    0.000    0.000    0.000    0.000 
#
# Total GULP energy -267799.825148 kJ/mol
# GULP energy per Si atom -5579.163024 kJ/mol
# Density = 1.588369 g / cm^3
# Si number density = 15.919926 Si / 1000 Ang^3
#
#
#
# Elastic Constant Matrix: (Units=GPa)
#
#
# Indices 1 2 3 4 5 6 
#
# 1 59.8009 52.3211 59.9300 0.0000 0.0000 0.0000
# 2 52.3211 136.4522 89.9344 0.0000 0.0000 0.0000
# 3 59.9300 89.9344 136.4147 0.0000 0.0000 0.0000
# 4 0.0000 0.0000 0.0000 20.8680 0.0000 0.0000
# 5 0.0000 0.0000 0.0000 0.0000 26.5112 0.0000
# 6 0.0000 0.0000 0.0000 0.0000 0.0000 23.7548
#
#
#
# Elastic Compliance Matrix: (Units=1/GPa)
#
#
# Indices 1 2 3 4 5 6 
#
# 1 0.031903 -0.005297 -0.010524 0.000000 0.000000 0.000000
# 2 -0.005297 0.013839 -0.006797 0.000000 0.000000 0.000000
# 3 -0.010524 -0.006797 0.016435 0.000000 0.000000 0.000000
# 4 0.000000 0.000000 0.000000 0.047920 0.000000 0.000000
# 5 0.000000 0.000000 0.000000 0.000000 0.037720 0.000000
# 6 0.000000 0.000000 0.000000 0.000000 0.000000 0.042097
#
#
# Mechanical properties :
#
#
# Convention : Reuss Voigt Hill
#
# Bulk Modulus (GPa) = 59.02347 81.89319 70.45833
# Shear Modulus (GPa) = 20.76448 22.92560 21.84504
#
# Velocity S-wave (km/s) = 3.61544 3.79893 3.70832
# Velocity P-wave (km/s) = 7.38811 8.41396 7.91767
#
# Compressibility (1/GPa) = 0.01694241
#
# Stress axis : x y z
#
# Youngs Moduli (GPa) = 31.34536 72.25785 60.84647
#
# Poissons Ratio (x) = 0.38273 0.64032
# Poissons Ratio (y) = 0.16603 0.41357
# Poissons Ratio (z) = 0.32986 0.49113
#
# Static dielectric constant tensor:
#      x y z
#    x 1.532100 0.000000 0.000000 
#    y 0.000000 1.524280 0.000000 
#    z 0.000000 0.000000 1.511780 
# 
# From -- ./inp_files/37156.got.cif
#   From: 2010.05.17/outbox.cif.g08.bks.cpg/sg67_19_cif.got.tgz:37156.got - 2010.06.03 18:28:57.
