data_PCOD9501856
_publ_section_title
;
Structure prediction by ZEFSAII (Michael W. Deem and Ramdas Pophale) SiO2 
 PCOD9501856
Probable space group: C M M A
;
_chemical_formula_sum "Si O2"
_cell_formula_units_Z 72
_cell_length_a 20.626044
_cell_length_b 8.379460
_cell_length_c 20.139620
_cell_angle_alpha 90.000000
_cell_angle_beta 90.000000
_cell_angle_gamma 90.000000
_cell_volume 3480.833451
_symmetry_space_group_name_H-M "C M M A"
_symmetry_group_IT_number 67
_symmetry_cell_setting 'orthorhombic'
loop_
_space_group_symop_operation_xyz
x,y,z
-x,1/2-y,z
x,-y,-z
-x,1/2+y,-z
-x,-y,-z
x,1/2+y,-z
-x,y,z
x,1/2-y,z
1/2+x,1/2+y,z
1/2-x,-y,z
1/2+x,1/2-y,-z
1/2-x,y,-z
1/2-x,1/2-y,-z
1/2+x,y,-z
1/2-x,1/2+y,z
1/2+x,-y,z
loop_
_atom_site_type_symbol
_atom_site_label
_atom_site_fract_x
_atom_site_fract_y
_atom_site_fract_z
Si Si1 0.821935 0.941336 0.075062
Si Si2 0.924834 0.055161 0.813671
Si Si3 0.817011 0.940004 0.288277
Si Si4 0.858543 0.058681 0.424729
Si Si5 0.000000 0.558428 0.575210
O O1 0.820281 0.750000 0.075852
O O2 0.880844 0.992774 0.123021
O O3 0.750000 0.000000 0.095353
O O4 0.832766 0.000000 0.000000
O O5 0.926911 0.250000 0.812923
O O6 0.880953 0.002540 0.750959
O O7 0.000000 0.000615 0.813435
O O8 0.817111 0.750000 0.286310
O O9 0.750000 0.000000 0.256557
O O10 0.816941 0.996572 0.364294
O O11 0.856591 0.250000 0.427213
O O12 0.930499 0.001629 0.401401
O O13 0.845227 0.000000 0.500000
O O14 0.000000 0.500000 0.500000
O O15 0.000000 0.750000 0.578894
#
# Coordination Sequence:
#
# PCOD9501856 Si02
#       5
#    16  16  16  16   8
#     4  10  19  34  59  88 121 157 194 235 279 334
#     4   9  20  38  59  85 116 152 193 238 288 341
#     4  11  23  39  60  83 112 151 192 238 291 349
#     4  10  20  36  57  84 115 147 188 235 290 348
#     4   8  16  30  50  76 108 140 171 216 271 330
#
# _framework density 20.684701
#
# number of rings (size 3 to 8) (size 9 to 14) (size 15 to 20)
#    0.000    2.222    0.000    3.333    1.556    1.778 
#    0.000    5.556    0.000    7.333    0.000    0.000 
#    0.000    0.000    0.000    0.000    0.000    0.000 
#
# Total GULP energy -200684.810962 kJ/mol
# GULP energy per Si atom -5574.578082 kJ/mol
# Density = 2.063762 g / cm^3
# Si number density = 20.684701 Si / 1000 Ang^3
#
#
#
# Elastic Constant Matrix: (Units=GPa)
#
#
# Indices 1 2 3 4 5 6 
#
# 1 213.9040 24.2967 95.7000 0.0000 0.0000 0.0000
# 2 24.2967 36.8417 23.2272 0.0000 0.0000 0.0000
# 3 95.7000 23.2272 142.9987 0.0000 0.0000 0.0000
# 4 0.0000 0.0000 0.0000 5.4367 0.0000 0.0000
# 5 0.0000 0.0000 0.0000 0.0000 37.1881 0.0000
# 6 0.0000 0.0000 0.0000 0.0000 0.0000 23.5037
#
#
#
# Elastic Compliance Matrix: (Units=1/GPa)
#
#
# Indices 1 2 3 4 5 6 
#
# 1 0.006778 -0.001794 -0.004245 0.000000 0.000000 0.000000
# 2 -0.001794 0.030715 -0.003788 0.000000 0.000000 0.000000
# 3 -0.004245 -0.003788 0.010449 0.000000 0.000000 0.000000
# 4 0.000000 0.000000 0.000000 0.183934 0.000000 0.000000
# 5 0.000000 0.000000 0.000000 0.000000 0.026890 0.000000
# 6 0.000000 0.000000 0.000000 0.000000 0.000000 0.042547
#
#
# Mechanical properties :
#
#
# Convention : Reuss Voigt Hill
#
# Bulk Modulus (GPa) = 35.35099 75.57693 55.46396
# Shear Modulus (GPa) = 15.13337 29.92707 22.53022
#
# Velocity S-wave (km/s) = 2.70778 3.80784 3.30392
# Velocity P-wave (km/s) = 5.18687 7.47996 6.43636
#
# Compressibility (1/GPa) = 0.02828775
#
# Stress axis : x y z
#
# Youngs Moduli (GPa) = 147.54162 32.55773 95.70256
#
# Poissons Ratio (x) = 0.05840 0.40621
# Poissons Ratio (y) = 0.26467 0.36257
# Poissons Ratio (z) = 0.62625 0.12334
#
# Static dielectric constant tensor:
#      x y z
#    x 1.840300 0.000000 0.000000 
#    y 0.000000 1.697540 0.000000 
#    z 0.000000 0.000000 1.722800 
# 
# From -- ./inp_files/39224.got.cif
#   From: 2010.05.17/outbox.cif.g08.bks.cpg/sg67_20_cif.got.tgz:39224.got - 2010.06.03 18:28:57.
