data_PCOD9501114
_publ_section_title
;
Structure prediction by ZEFSAII (Michael W. Deem and Ramdas Pophale) SiO2 
 PCOD9501114
Probable space group: C M M A
;
_chemical_formula_sum "Si O2"
_cell_formula_units_Z 112
_cell_length_a 28.110966
_cell_length_b 14.471919
_cell_length_c 10.730051
_cell_angle_alpha 90.000000
_cell_angle_beta 90.000000
_cell_angle_gamma 90.000000
_cell_volume 4365.195302
_symmetry_space_group_name_H-M "C M M A"
_symmetry_group_IT_number 67
_symmetry_cell_setting 'orthorhombic'
loop_
_space_group_symop_operation_xyz
x,y,z
-x,1/2-y,z
x,-y,-z
-x,1/2+y,-z
-x,-y,-z
x,1/2+y,-z
-x,y,z
x,1/2-y,z
1/2+x,1/2+y,z
1/2-x,-y,z
1/2+x,1/2-y,-z
1/2-x,y,-z
1/2-x,1/2-y,-z
1/2+x,y,-z
1/2-x,1/2+y,z
1/2+x,-y,z
loop_
_atom_site_type_symbol
_atom_site_label
_atom_site_fract_x
_atom_site_fract_y
_atom_site_fract_z
Si Si1 0.711212 0.637252 0.104538
Si Si2 0.588680 0.848089 0.271241
Si Si3 0.947557 0.968330 0.139901
Si Si4 0.196919 0.143891 0.371381
Si Si5 0.356728 0.359684 0.103854
Si Si6 0.341794 0.860460 0.628466
Si Si7 0.051675 0.891242 0.471180
O O1 0.710757 0.750000 0.115815
O O2 0.720211 0.603316 0.245381
O O3 0.750000 0.613897 0.000000
O O4 0.663059 0.607849 0.030503
O O5 0.583135 0.750000 0.200167
O O6 0.642411 0.852407 0.321723
O O7 0.557533 0.844927 0.395157
O O8 0.574922 0.943256 0.207508
O O9 0.911095 0.884601 0.128778
O O10 0.000000 0.948906 0.190832
O O11 0.953064 0.000000 0.000000
O O12 0.214337 0.250000 0.384749
O O13 0.190558 0.105150 0.512172
O O14 0.349488 0.250000 0.103111
O O15 0.331814 0.395548 0.231640
O O16 0.335405 0.750000 0.628499
O O17 0.398208 0.875786 0.599835
O O18 0.000000 0.862770 0.420109
O O19 0.050624 0.000000 0.500000
#
# Coordination Sequence:
#
# PCOD9501114 Si02
#       7
#    16  16  16  16  16  16  16
#     4   9  17  32  58  88 114 148 198 252 307 370
#     4  10  20  35  56  80 111 157 207 254 303 354
#     4  11  24  38  54  81 116 156 204 255 307 364
#     4   8  15  30  52  78 109 147 193 242 293 353
#     4  10  21  38  58  82 118 159 197 245 306 371
#     4   9  18  31  48  73 107 148 189 230 288 354
#     4  10  19  30  47  74 108 146 193 246 294 344
#
# _framework density 25.657501
#
# number of rings (size 3 to 8) (size 9 to 14) (size 15 to 20)
#    0.000    2.429    0.000    3.429    0.000    5.714 
#    0.000    3.571    0.000    8.143    0.000    0.000 
#    0.000    5.714    0.000    2.000    0.000    2.143 
#
# Total GULP energy -312594.083559 kJ/mol
# GULP energy per Si atom -5582.037206 kJ/mol
# Density = 2.559910 g / cm^3
# Si number density = 25.657501 Si / 1000 Ang^3
#
#
#
# Elastic Constant Matrix: (Units=GPa)
#
#
# Indices 1 2 3 4 5 6 
#
# 1 99.2699 -6.1488 1.7138 0.0000 0.0000 0.0000
# 2 -6.1488 55.8910 -6.4717 0.0000 0.0000 0.0000
# 3 1.7138 -6.4717 153.8101 0.0000 0.0000 0.0000
# 4 0.0000 0.0000 0.0000 15.5312 0.0000 0.0000
# 5 0.0000 0.0000 0.0000 0.0000 -4.5786 0.0000
# 6 0.0000 0.0000 0.0000 0.0000 0.0000 10.2924
#
#
#
# Elastic Compliance Matrix: (Units=1/GPa)
#
#
# Indices 1 2 3 4 5 6 
#
# 1 0.010143 0.001108 -0.000066 0.000000 0.000000 0.000000
# 2 0.001108 0.018101 0.000749 0.000000 0.000000 0.000000
# 3 -0.000066 0.000749 0.006534 0.000000 0.000000 0.000000
# 4 0.000000 0.000000 0.000000 0.064386 0.000000 0.000000
# 5 0.000000 0.000000 0.000000 0.000000 -0.218409 0.000000
# 6 0.000000 0.000000 0.000000 0.000000 0.000000 0.097159
#
#
# Mechanical properties :
#
#
# Convention : Reuss Voigt Hill
#
# Bulk Modulus (GPa) = 26.06888 31.90641 28.98764
# Shear Modulus (GPa) = -388.17067 25.57419 -181.29824
#
# Velocity S-wave (km/s) = -12.31332 3.16056 -8.41512
# Velocity P-wave (km/s) = 13.85549 5.07754 9.11574
#
# Compressibility (1/GPa) = 0.03835992
#
# Stress axis : x y z
#
# Youngs Moduli (GPa) = 98.58692 55.24669 153.05055
#
# Poissons Ratio (x) = -0.06123 0.01016
# Poissons Ratio (y) = -0.10926 -0.11467
# Poissons Ratio (z) = 0.00655 -0.04139
#
# Static dielectric constant tensor:
#      x y z
#    x 2.100970 0.000000 0.000000 
#    y 0.000000 2.151180 0.000000 
#    z 0.000000 0.000000 2.074230 
# 
# From -- ./inp_files/23846.got.cif
#   From: 2010.05.17/outbox.cif.g08.bks.cpg/sg67_12_cif.got.tgz:23846.got - 2010.06.03 18:28:57.
