data_PCOD9501005
_publ_section_title
;
Structure prediction by ZEFSAII (Michael W. Deem and Ramdas Pophale) SiO2 
 PCOD9501005
Probable space group: C M M A
;
_chemical_formula_sum "Si O2"
_cell_formula_units_Z 116
_cell_length_a 9.447296
_cell_length_b 25.060796
_cell_length_c 28.966008
_cell_angle_alpha 90.000000
_cell_angle_beta 90.000000
_cell_angle_gamma 90.000000
_cell_volume 6857.898141
_symmetry_space_group_name_H-M "C M M A"
_symmetry_group_IT_number 67
_symmetry_cell_setting 'orthorhombic'
loop_
_space_group_symop_operation_xyz
x,y,z
-x,1/2-y,z
x,-y,-z
-x,1/2+y,-z
-x,-y,-z
x,1/2+y,-z
-x,y,z
x,1/2-y,z
1/2+x,1/2+y,z
1/2-x,-y,z
1/2+x,1/2-y,-z
1/2-x,y,-z
1/2-x,1/2-y,-z
1/2+x,y,-z
1/2-x,1/2+y,z
1/2+x,-y,z
loop_
_atom_site_type_symbol
_atom_site_label
_atom_site_fract_x
_atom_site_fract_y
_atom_site_fract_z
Si Si1 0.336367 0.314973 0.954594
Si Si2 0.750000 0.500000 0.500000
Si Si3 0.162225 0.547636 0.340716
Si Si4 0.338527 0.086260 0.570920
Si Si5 0.837212 0.184848 0.863641
Si Si6 0.341787 0.687215 0.223185
Si Si7 0.340257 0.333527 0.311320
Si Si8 0.331908 0.689185 0.580336
O O1 0.500000 0.332356 0.955137
O O2 0.338089 0.250000 0.954916
O O3 0.254071 0.331095 0.908233
O O4 0.250000 0.331869 0.000000
O O5 0.663701 0.458918 0.531802
O O6 0.250000 0.500000 0.318291
O O7 0.244301 0.562436 0.387696
O O8 0.160303 0.602294 0.312605
O O9 0.000000 0.532114 0.350652
O O10 0.500000 0.096587 0.585244
O O11 0.262600 0.142366 0.558548
O O12 0.840261 0.250000 0.863295
O O13 0.760768 0.165851 0.816849
O O14 0.000000 0.167238 0.866361
O O15 0.500000 0.663952 0.222416
O O16 0.354854 0.750000 0.212969
O O17 0.270817 0.683512 0.273254
O O18 0.500000 0.315304 0.299763
O O19 0.310533 0.314950 0.363862
O O20 0.500000 0.678902 0.572578
O O21 0.299901 0.750000 0.565893
#
# Coordination Sequence:
#
# PCOD9501005 Si02
#       8
#    16   4  16  16  16  16  16  16
#     4   9  15  22  32  46  65  91 129 178 228 277
#     4  12  26  40  58  82 110 136 170 202 250 296
#     4  10  20  35  54  76 102 127 156 192 233 277
#     4  11  23  37  58  83 107 134 165 203 242 285
#     4   9  16  25  36  49  69 101 139 181 230 277
#     4  10  19  28  39  59  86 115 150 191 229 268
#     4   9  18  31  48  70  94 123 155 186 225 274
#     4   9  19  37  58  79 106 136 165 199 241 288
#
# _framework density 16.914802999999999
#
# number of rings (size 3 to 8) (size 9 to 14) (size 15 to 20)
#    0.000    2.345    0.690    3.517    0.000    9.379 
#    0.000    0.345    0.000    0.000    0.000    0.000 
#    0.000    0.000    0.000    0.000    0.000    0.690 
#
# Total GULP energy -323268.999289 kJ/mol
# GULP energy per Si atom -5573.603436 kJ/mol
# Density = 1.687630 g / cm^3
# Si number density = 16.914803 Si / 1000 Ang^3
#
#
#
# Elastic Constant Matrix: (Units=GPa)
#
#
# Indices 1 2 3 4 5 6 
#
# 1 145.8229 30.9220 44.4451 0.0000 0.0000 0.0000
# 2 30.9220 72.6302 3.5821 0.0000 0.0000 0.0000
# 3 44.4451 3.5821 50.7433 0.0000 0.0000 0.0000
# 4 0.0000 0.0000 0.0000 2.4922 0.0000 0.0000
# 5 0.0000 0.0000 0.0000 0.0000 4.7346 0.0000
# 6 0.0000 0.0000 0.0000 0.0000 0.0000 0.0601
#
#
#
# Elastic Compliance Matrix: (Units=1/GPa)
#
#
# Indices 1 2 3 4 5 6 
#
# 1 0.010392 -0.003989 -0.008820 0.000000 0.000000 0.000000
# 2 -0.003989 0.015348 0.002411 0.000000 0.000000 0.000000
# 3 -0.008820 0.002411 0.027263 0.000000 0.000000 0.000000
# 4 0.000000 0.000000 0.000000 0.401254 0.000000 0.000000
# 5 0.000000 0.000000 0.000000 0.000000 0.211209 0.000000
# 6 0.000000 0.000000 0.000000 0.000000 0.000000 16.635773
#
#
# Mechanical properties :
#
#
# Convention : Reuss Voigt Hill
#
# Bulk Modulus (GPa) = 31.05182 47.45497 39.25339
# Shear Modulus (GPa) = 0.28847 14.14054 7.21450
#
# Velocity S-wave (km/s) = 0.41342 2.89448 2.06748
# Velocity P-wave (km/s) = 4.31573 6.26792 5.38110
#
# Compressibility (1/GPa) = 0.03220423
#
# Stress axis : x y z
#
# Youngs Moduli (GPa) = 96.22827 65.15542 36.68037
#
# Poissons Ratio (x) = 0.25992 0.32354
# Poissons Ratio (y) = 0.38388 -0.08843
# Poissons Ratio (z) = 0.84878 -0.15707
#
# Static dielectric constant tensor:
#      x y z
#    x 1.588780 0.000000 0.000000 
#    y 0.000000 1.587210 0.000000 
#    z 0.000000 0.000000 1.572800 
# 
# From -- ./inp_files/45425.got.cif
#   From: 2010.05.17/outbox.cif.g08.bks.cpg/sg67_23_cif.got.tgz:45425.got - 2010.06.03 18:28:57.
