data_PCOD9501682
_publ_section_title
;
Structure prediction by ZEFSAII (Michael W. Deem and Ramdas Pophale) SiO2 
 PCOD9501682
Probable space group: C M M A
;
_chemical_formula_sum "Si O2"
_cell_formula_units_Z 84
_cell_length_a 21.985853
_cell_length_b 14.648660
_cell_length_c 11.369642
_cell_angle_alpha 90.000000
_cell_angle_beta 90.000000
_cell_angle_gamma 90.000000
_cell_volume 3661.744256
_symmetry_space_group_name_H-M "C M M A"
_symmetry_group_IT_number 67
_symmetry_cell_setting 'orthorhombic'
loop_
_space_group_symop_operation_xyz
x,y,z
-x,1/2-y,z
x,-y,-z
-x,1/2+y,-z
-x,-y,-z
x,1/2+y,-z
-x,y,z
x,1/2-y,z
1/2+x,1/2+y,z
1/2-x,-y,z
1/2+x,1/2-y,-z
1/2-x,y,-z
1/2-x,1/2-y,-z
1/2+x,y,-z
1/2-x,1/2+y,z
1/2+x,-y,z
loop_
_atom_site_type_symbol
_atom_site_label
_atom_site_fract_x
_atom_site_fract_y
_atom_site_fract_z
Si Si1 0.069539 0.644872 0.078531
Si Si2 0.383845 0.856231 0.170875
Si Si3 0.302388 0.575312 0.640722
Si Si4 0.750000 0.750000 0.500000
Si Si5 0.754338 0.642969 0.133055
Si Si6 0.431700 0.979498 0.689585
O O1 0.085397 0.750000 0.107089
O O2 0.070050 0.584461 0.194277
O O3 0.000000 0.643694 0.034190
O O4 0.107585 0.614945 0.965171
O O5 0.401749 0.750000 0.178274
O O6 0.311854 0.862134 0.193848
O O7 0.420034 0.919249 0.259913
O O8 0.250000 0.500000 0.618376
O O9 0.284031 0.668959 0.577820
O O10 0.299280 0.590831 0.782031
O O11 0.371982 0.547476 0.615384
O O12 0.770899 0.750000 0.126310
O O13 0.750000 0.609418 0.000000
O O14 0.500000 0.970726 0.638868
#
# Coordination Sequence:
#
# PCOD9501682 Si02
#       6
#    16  16  16   4  16  16
#     4   9  18  31  50  85 139 198 240 274 337 426
#     4  10  19  33  54  90 141 199 242 281 347 425
#     4  12  25  48  75 109 137 183 240 289 361 426
#     4  12  30  52  84  98 132 176 234 308 346 430
#     4  10  20  36  63 102 149 189 230 290 351 422
#     4  11  23  38  63  99 139 179 233 300 357 423
#
# _framework density 22.939888
#
# number of rings (size 3 to 8) (size 9 to 14) (size 15 to 20)
#    0.000    1.524    2.857    2.571    1.333    4.571 
#    0.000    0.000    0.000    3.429    0.000    0.000 
#    0.000    0.000    0.000    0.000    0.000    0.000 
#
# Total GULP energy -234352.223062 kJ/mol
# GULP energy per Si atom -5579.814835 kJ/mol
# Density = 2.288768 g / cm^3
# Si number density = 22.939888 Si / 1000 Ang^3
#
#
#
# Elastic Constant Matrix: (Units=GPa)
#
#
# Indices 1 2 3 4 5 6 
#
# 1 190.1369 48.5970 28.3398 0.0000 0.0000 0.0000
# 2 48.5970 139.6243 33.7641 0.0000 0.0000 0.0000
# 3 28.3398 33.7641 82.7609 0.0000 0.0000 0.0000
# 4 0.0000 0.0000 0.0000 24.3727 0.0000 0.0000
# 5 0.0000 0.0000 0.0000 0.0000 -31.3759 0.0000
# 6 0.0000 0.0000 0.0000 0.0000 0.0000 18.5945
#
#
#
# Elastic Compliance Matrix: (Units=1/GPa)
#
#
# Indices 1 2 3 4 5 6 
#
# 1 0.005899 -0.001736 -0.001312 0.000000 0.000000 0.000000
# 2 -0.001736 0.008457 -0.002856 0.000000 0.000000 0.000000
# 3 -0.001312 -0.002856 0.013697 0.000000 0.000000 0.000000
# 4 0.000000 0.000000 0.000000 0.041029 0.000000 0.000000
# 5 0.000000 0.000000 0.000000 0.000000 -0.031872 0.000000
# 6 0.000000 0.000000 0.000000 0.000000 0.000000 0.053779
#
#
# Mechanical properties :
#
#
# Convention : Reuss Voigt Hill
#
# Bulk Modulus (GPa) = 61.55326 70.43599 65.99463
# Shear Modulus (GPa) = 46.20572 22.43968 34.32270
#
# Velocity S-wave (km/s) = 4.49286 3.13100 3.87227
# Velocity P-wave (km/s) = 7.33519 6.62134 6.98739
#
# Compressibility (1/GPa) = 0.01624609
#
# Stress axis : x y z
#
# Youngs Moduli (GPa) = 169.53373 118.24779 73.00759
#
# Poissons Ratio (x) = 0.20526 0.09576
# Poissons Ratio (y) = 0.29428 0.20849
# Poissons Ratio (z) = 0.22237 0.33768
#
# Static dielectric constant tensor:
#      x y z
#    x 1.884580 0.000000 0.000000 
#    y 0.000000 1.844280 0.000000 
#    z 0.000000 0.000000 1.847800 
# 
# From -- ./inp_files/21766.got.cif
#   From: 2010.05.17/outbox.cif.g08.bks.cpg/sg67_11_cif.got.tgz:21766.got - 2010.06.03 18:28:57.
