data_PCOD9501553
_publ_section_title
;
Structure prediction by ZEFSAII (Michael W. Deem and Ramdas Pophale) SiO2 
 PCOD9501553
Probable space group: C M M A
;
_chemical_formula_sum "Si O2"
_cell_formula_units_Z 104
_cell_length_a 13.937128
_cell_length_b 22.969491
_cell_length_c 17.298414
_cell_angle_alpha 90.000000
_cell_angle_beta 90.000000
_cell_angle_gamma 90.000000
_cell_volume 5537.719411
_symmetry_space_group_name_H-M "C M M A"
_symmetry_group_IT_number 67
_symmetry_cell_setting 'orthorhombic'
loop_
_space_group_symop_operation_xyz
x,y,z
-x,1/2-y,z
x,-y,-z
-x,1/2+y,-z
-x,-y,-z
x,1/2+y,-z
-x,y,z
x,1/2-y,z
1/2+x,1/2+y,z
1/2-x,-y,z
1/2+x,1/2-y,-z
1/2-x,y,-z
1/2-x,1/2-y,-z
1/2+x,y,-z
1/2-x,1/2+y,z
1/2+x,-y,z
loop_
_atom_site_type_symbol
_atom_site_label
_atom_site_fract_x
_atom_site_fract_y
_atom_site_fract_z
Si Si1 0.250000 0.500000 0.752953
Si Si2 0.384753 0.316236 0.047794
Si Si3 0.883698 0.817825 0.341111
Si Si4 0.387803 0.819513 0.131382
Si Si5 0.385551 0.032079 0.618746
Si Si6 0.884527 0.591265 0.467188
Si Si7 0.707159 0.121120 0.191254
O O1 0.326737 0.468588 0.697063
O O2 0.296824 0.551821 0.800891
O O3 0.500000 0.315707 0.052819
O O4 0.350735 0.250000 0.062757
O O5 0.343922 0.357160 0.113493
O O6 0.362325 0.331003 0.958856
O O7 0.856311 0.750000 0.343423
O O8 0.852504 0.853714 0.417262
O O9 0.841771 0.849300 0.265636
O O10 0.000000 0.820815 0.336816
O O11 0.500000 0.833425 0.142885
O O12 0.376614 0.750000 0.143591
O O13 0.315886 0.855640 0.183856
O O14 0.500000 0.038754 0.630402
O O15 0.349989 0.078190 0.554198
O O16 0.369425 0.968115 0.581179
O O17 0.000000 0.596468 0.474776
#
# Coordination Sequence:
#
# PCOD9501553 Si02
#       7
#     8  16  16  16  16  16  16
#     4  12  26  35  51  82 110 154 190 224 265 322
#     4   9  18  35  62  89 106 131 176 228 281 333
#     4  10  19  32  55  88 119 140 166 221 294 345
#     4   9  19  37  60  82 105 141 188 226 261 319
#     4   9  18  36  56  75 102 141 190 234 263 305
#     4   8  15  31  56  80 102 135 179 224 269 317
#     4  12  22  34  50  80 117 149 181 220 273 324
#
# _framework density 18.780294000000001
#
# number of rings (size 3 to 8) (size 9 to 14) (size 15 to 20)
#    0.000    2.308    1.538    4.154    0.000    4.923 
#    0.000    1.538    0.000    5.538    0.000    2.154 
#    0.000    0.000    0.000    0.000    0.000    0.000 
#
# Total GULP energy -290318.297229 kJ/mol
# GULP energy per Si atom -5583.044177 kJ/mol
# Density = 1.873755 g / cm^3
# Si number density = 18.780294 Si / 1000 Ang^3
#
#
#
# Elastic Constant Matrix: (Units=GPa)
#
#
# Indices 1 2 3 4 5 6 
#
# 1 53.6290 22.7510 30.4536 0.0000 0.0000 0.0000
# 2 22.7510 112.3667 56.0472 0.0000 0.0000 0.0000
# 3 30.4536 56.0472 67.9324 0.0000 0.0000 0.0000
# 4 0.0000 0.0000 0.0000 14.0835 0.0000 0.0000
# 5 0.0000 0.0000 0.0000 0.0000 34.3114 0.0000
# 6 0.0000 0.0000 0.0000 0.0000 0.0000 19.8515
#
#
#
# Elastic Compliance Matrix: (Units=1/GPa)
#
#
# Indices 1 2 3 4 5 6 
#
# 1 0.025068 0.000900 -0.011981 0.000000 0.000000 0.000000
# 2 0.000900 0.015155 -0.012907 0.000000 0.000000 0.000000
# 3 -0.011981 -0.012907 0.030740 0.000000 0.000000 0.000000
# 4 0.000000 0.000000 0.000000 0.071005 0.000000 0.000000
# 5 0.000000 0.000000 0.000000 0.000000 0.029145 0.000000
# 6 0.000000 0.000000 0.000000 0.000000 0.000000 0.050374
#
#
# Mechanical properties :
#
#
# Convention : Reuss Voigt Hill
#
# Bulk Modulus (GPa) = 43.50021 50.27017 46.88519
# Shear Modulus (GPa) = 18.04238 21.96102 20.00170
#
# Velocity S-wave (km/s) = 3.10289 3.42331 3.26703
# Velocity P-wave (km/s) = 6.00418 6.51544 6.26503
#
# Compressibility (1/GPa) = 0.02298840
#
# Stress axis : x y z
#
# Youngs Moduli (GPa) = 39.89156 65.98426 32.53061
#
# Poissons Ratio (x) = -0.05940 0.38973
# Poissons Ratio (y) = -0.03591 0.41988
# Poissons Ratio (z) = 0.47792 0.85167
#
# Static dielectric constant tensor:
#      x y z
#    x 1.703130 0.000000 0.000000 
#    y 0.000000 1.627380 0.000000 
#    z 0.000000 0.000000 1.640370 
# 
# From -- ./inp_files/33722.got.cif
#   From: 2010.05.17/outbox.cif.g08.bks.cpg/sg67_17_cif.got.tgz:33722.got - 2010.06.03 18:28:57.
