data_PCOD9501356
_publ_section_title
;
Structure prediction by ZEFSAII (Michael W. Deem and Ramdas Pophale) SiO2 
 PCOD9501356
Probable space group: C M M A
;
_chemical_formula_sum "Si O2"
_cell_formula_units_Z 88
_cell_length_a 28.150292
_cell_length_b 8.512272
_cell_length_c 19.318339
_cell_angle_alpha 90.000000
_cell_angle_beta 90.000000
_cell_angle_gamma 90.000000
_cell_volume 4629.117233
_symmetry_space_group_name_H-M "C M M A"
_symmetry_group_IT_number 67
_symmetry_cell_setting 'orthorhombic'
loop_
_space_group_symop_operation_xyz
x,y,z
-x,1/2-y,z
x,-y,-z
-x,1/2+y,-z
-x,-y,-z
x,1/2+y,-z
-x,y,z
x,1/2-y,z
1/2+x,1/2+y,z
1/2-x,-y,z
1/2+x,1/2-y,-z
1/2-x,y,-z
1/2-x,1/2-y,-z
1/2+x,y,-z
1/2-x,1/2+y,z
1/2+x,-y,z
loop_
_atom_site_type_symbol
_atom_site_label
_atom_site_fract_x
_atom_site_fract_y
_atom_site_fract_z
Si Si1 0.500000 0.560603 0.078631
Si Si2 0.394723 0.561542 0.422544
Si Si3 0.447630 0.560574 0.705687
Si Si4 0.145254 0.061883 0.789020
Si Si5 0.604780 0.438462 0.921786
Si Si6 0.301070 0.937562 0.338219
O O1 0.500000 0.750000 0.080746
O O2 0.551838 0.507328 0.104317
O O3 0.500000 0.500000 0.000000
O O4 0.399074 0.500000 0.500000
O O5 0.396849 0.750000 0.421636
O O6 0.434823 0.493916 0.371617
O O7 0.344054 0.511713 0.388813
O O8 0.500000 0.504266 0.726903
O O9 0.447604 0.750000 0.707997
O O10 0.403908 0.504801 0.752728
O O11 0.146173 0.250000 0.788977
O O12 0.142914 0.000563 0.867083
O O13 0.186062 0.999811 0.738395
O O14 0.605305 0.250000 0.923132
O O15 0.611220 0.500000 0.000000
O O16 0.300427 0.750000 0.336852
O O17 0.250000 0.000000 0.360590
#
# Coordination Sequence:
#
# PCOD9501356 Si02
#       6
#     8  16  16  16  16  16
#     4   8  16  28  42  64  96 134 173 212 255 302
#     4  10  21  36  55  80 109 140 175 217 262 313
#     4   9  19  35  53  75 105 143 184 222 261 309
#     4  10  20  34  54  79 107 140 178 222 269 318
#     4  10  19  32  49  73 105 142 182 224 269 315
#     4  10  21  38  59  82 107 136 173 216 266 321
#
# _framework density 19.010103999999998
#
# number of rings (size 3 to 8) (size 9 to 14) (size 15 to 20)
#    0.000    2.364    0.000    2.182    1.273    4.727 
#    0.000    1.818    0.000    0.545    0.000    3.818 
#    0.000    0.000    0.000    0.000    0.000    0.000 
#
# Total GULP energy -245447.311005 kJ/mol
# GULP energy per Si atom -5578.347977 kJ/mol
# Density = 1.896684 g / cm^3
# Si number density = 19.010104 Si / 1000 Ang^3
#
#
#
# Elastic Constant Matrix: (Units=GPa)
#
#
# Indices 1 2 3 4 5 6 
#
# 1 37.5353 -0.7390 -14.8426 0.0000 0.0000 0.0000
# 2 -0.7390 21.0089 -4.5994 0.0000 0.0000 0.0000
# 3 -14.8426 -4.5994 66.9384 0.0000 0.0000 0.0000
# 4 0.0000 0.0000 0.0000 22.8051 0.0000 0.0000
# 5 0.0000 0.0000 0.0000 0.0000 18.9915 0.0000
# 6 0.0000 0.0000 0.0000 0.0000 0.0000 22.6064
#
#
#
# Elastic Compliance Matrix: (Units=1/GPa)
#
#
# Indices 1 2 3 4 5 6 
#
# 1 0.029330 0.002493 0.006675 0.000000 0.000000 0.000000
# 2 0.002493 0.048538 0.003888 0.000000 0.000000 0.000000
# 3 0.006675 0.003888 0.016686 0.000000 0.000000 0.000000
# 4 0.000000 0.000000 0.000000 0.043850 0.000000 0.000000
# 5 0.000000 0.000000 0.000000 0.000000 0.052655 0.000000
# 6 0.000000 0.000000 0.000000 0.000000 0.000000 0.044235
#
#
# Mechanical properties :
#
#
# Convention : Reuss Voigt Hill
#
# Bulk Modulus (GPa) = 8.28736 9.45782 8.87259
# Shear Modulus (GPa) = 20.04772 22.59150 21.31961
#
# Velocity S-wave (km/s) = 3.25096 3.45105 3.35250
# Velocity P-wave (km/s) = 4.29657 4.56789 4.43431
#
# Compressibility (1/GPa) = 0.12066566
#
# Stress axis : x y z
#
# Youngs Moduli (GPa) = 34.09464 20.60251 59.92940
#
# Poissons Ratio (x) = -0.05136 -0.40002
# Poissons Ratio (y) = -0.08500 -0.23300
# Poissons Ratio (z) = -0.22758 -0.08010
#
# Static dielectric constant tensor:
#      x y z
#    x 1.682460 0.000000 0.000000 
#    y 0.000000 1.629680 0.000000 
#    z 0.000000 0.000000 1.647250 
# 
# From -- ./inp_files/32464.got.cif
#   From: 2010.05.17/outbox.cif.g08.bks.cpg/sg67_17_cif.got.tgz:32464.got - 2010.06.03 18:28:57.
