data_PCOD9501233
_publ_section_title
;
Structure prediction by ZEFSAII (Michael W. Deem and Ramdas Pophale) SiO2 
 PCOD9501233
Probable space group: C M M A
;
_chemical_formula_sum "Si O2"
_cell_formula_units_Z 128
_cell_length_a 10.573589
_cell_length_b 28.739322
_cell_length_c 25.513937
_cell_angle_alpha 90.000000
_cell_angle_beta 90.000000
_cell_angle_gamma 90.000000
_cell_volume 7753.118508
_symmetry_space_group_name_H-M "C M M A"
_symmetry_group_IT_number 67
_symmetry_cell_setting 'orthorhombic'
loop_
_space_group_symop_operation_xyz
x,y,z
-x,1/2-y,z
x,-y,-z
-x,1/2+y,-z
-x,-y,-z
x,1/2+y,-z
-x,y,z
x,1/2-y,z
1/2+x,1/2+y,z
1/2-x,-y,z
1/2+x,1/2-y,-z
1/2-x,y,-z
1/2-x,1/2-y,-z
1/2+x,y,-z
1/2-x,1/2+y,z
1/2+x,-y,z
loop_
_atom_site_type_symbol
_atom_site_label
_atom_site_fract_x
_atom_site_fract_y
_atom_site_fract_z
Si Si1 0.141995 0.963741 0.398623
Si Si2 0.351895 0.863986 0.956254
Si Si3 0.346245 0.856707 0.750596
Si Si4 0.653378 0.196896 0.353033
Si Si5 0.147634 0.960933 0.272390
Si Si6 0.846858 0.196799 0.854032
Si Si7 0.135374 0.474829 0.942477
Si Si8 0.851563 0.863812 0.454013
O O1 0.151550 0.955234 0.335911
O O2 0.155609 0.915228 0.428688
O O3 0.000000 0.982103 0.408698
O O4 0.250000 0.000000 0.413881
O O5 0.500000 0.854638 0.970001
O O6 0.320275 0.835645 0.903806
O O7 0.343190 0.919897 0.948397
O O8 0.250000 0.851017 0.000000
O O9 0.500000 0.854886 0.750101
O O10 0.301869 0.832904 0.696763
O O11 0.315858 0.911202 0.751938
O O12 0.301822 0.827763 0.800822
O O13 0.500000 0.197633 0.349790
O O14 0.697924 0.250000 0.350536
O O15 0.682073 0.172089 0.407666
O O16 0.000000 0.971739 0.259330
O O17 0.250000 0.000000 0.258282
O O18 0.801710 0.250000 0.859454
O O19 0.000000 0.198853 0.850675
O O20 0.250000 0.500000 0.914175
O O21 0.000000 0.481836 0.916526
O O22 0.128054 0.500000 0.000000
O O23 0.750000 0.859633 0.500000
O O24 0.000000 0.856416 0.469332
#
# Coordination Sequence:
#
# PCOD9501233 Si02
#       8
#    16  16  16  16  16  16  16  16
#     4   9  17  30  47  68  95 127 162 198 237 286
#     4  10  19  31  49  73 101 132 166 202 242 291
#     4   9  15  28  51  75  99 126 160 204 247 288
#     4   9  16  28  49  73  94 123 163 202 245 295
#     4   9  16  28  49  74 100 128 159 195 239 291
#     4   9  18  31  48  74 103 127 159 208 256 290
#     4   9  15  25  43  66  91 124 163 198 231 274
#     4  10  20  33  47  69 100 129 160 202 246 291
#
# _framework density 16.509485999999999
#
# number of rings (size 3 to 8) (size 9 to 14) (size 15 to 20)
#    0.000    2.750    2.500    0.375    0.000    2.750 
#    0.000    1.875    0.000    0.750    0.000    0.000 
#    0.000    3.000    0.000    0.000    0.000    0.000 
#
# Total GULP energy -356297.097301 kJ/mol
# GULP energy per Si atom -5567.142145 kJ/mol
# Density = 1.647191 g / cm^3
# Si number density = 16.509486 Si / 1000 Ang^3
#
#
#
# Elastic Constant Matrix: (Units=GPa)
#
#
# Indices 1 2 3 4 5 6 
#
# 1 67.8270 45.3978 32.9844 0.0000 0.0000 0.0000
# 2 45.3978 132.2835 56.3264 0.0000 0.0000 0.0000
# 3 32.9844 56.3264 52.0403 0.0000 0.0000 0.0000
# 4 0.0000 0.0000 0.0000 9.5982 0.0000 0.0000
# 5 0.0000 0.0000 0.0000 0.0000 12.2052 0.0000
# 6 0.0000 0.0000 0.0000 0.0000 0.0000 3.6007
#
#
#
# Elastic Compliance Matrix: (Units=1/GPa)
#
#
# Indices 1 2 3 4 5 6 
#
# 1 0.021929 -0.002982 -0.010672 0.000000 0.000000 0.000000
# 2 -0.002982 0.014427 -0.013726 0.000000 0.000000 0.000000
# 3 -0.010672 -0.013726 0.040836 0.000000 0.000000 0.000000
# 4 0.000000 0.000000 0.000000 0.104186 0.000000 0.000000
# 5 0.000000 0.000000 0.000000 0.000000 0.081932 0.000000
# 6 0.000000 0.000000 0.000000 0.000000 0.000000 0.277725
#
#
# Mechanical properties :
#
#
# Convention : Reuss Voigt Hill
#
# Bulk Modulus (GPa) = 44.57542 57.95200 51.26371
# Shear Modulus (GPa) = 8.28815 12.91030 10.59922
#
# Velocity S-wave (km/s) = 2.24302 2.79945 2.53654
# Velocity P-wave (km/s) = 5.81091 6.75482 6.30057
#
# Compressibility (1/GPa) = 0.02243389
#
# Stress axis : x y z
#
# Youngs Moduli (GPa) = 45.60220 69.31400 24.48822
#
# Poissons Ratio (x) = 0.20666 0.26133
# Poissons Ratio (y) = 0.13597 0.33611
# Poissons Ratio (z) = 0.48666 0.95137
#
# Static dielectric constant tensor:
#      x y z
#    x 1.567640 0.000000 0.000000 
#    y 0.000000 1.554590 0.000000 
#    z 0.000000 0.000000 1.557400 
# 
# From -- ./inp_files/41633.got.cif
#   From: 2010.05.17/outbox.cif.g08.bks.cpg/sg67_21_cif.got.tgz:41633.got - 2010.06.03 18:28:57.
