data_PCOD9501639
_publ_section_title
;
Structure prediction by ZEFSAII (Michael W. Deem and Ramdas Pophale) SiO2 
 PCOD9501639
Probable space group: C M M A
;
_chemical_formula_sum "Si O2"
_cell_formula_units_Z 80
_cell_length_a 14.490289
_cell_length_b 25.204623
_cell_length_c 10.241809
_cell_angle_alpha 90.000000
_cell_angle_beta 90.000000
_cell_angle_gamma 90.000000
_cell_volume 3740.536746
_symmetry_space_group_name_H-M "C M M A"
_symmetry_group_IT_number 67
_symmetry_cell_setting 'orthorhombic'
loop_
_space_group_symop_operation_xyz
x,y,z
-x,1/2-y,z
x,-y,-z
-x,1/2+y,-z
-x,-y,-z
x,1/2+y,-z
-x,y,z
x,1/2-y,z
1/2+x,1/2+y,z
1/2-x,-y,z
1/2+x,1/2-y,-z
1/2-x,y,-z
1/2-x,1/2-y,-z
1/2+x,y,-z
1/2-x,1/2+y,z
1/2+x,-y,z
loop_
_atom_site_type_symbol
_atom_site_label
_atom_site_fract_x
_atom_site_fract_y
_atom_site_fract_z
Si Si1 0.888685 0.046882 0.684146
Si Si2 0.235130 0.144078 0.637627
Si Si3 0.604148 0.577706 0.970291
Si Si4 0.837803 0.691632 0.096542
Si Si5 0.888935 0.569669 0.736991
O O1 0.833348 0.093486 0.613483
O O2 0.857702 0.055245 0.835471
O O3 0.000000 0.055040 0.673119
O O4 0.870383 0.984930 0.658773
O O5 0.250000 0.172427 0.500000
O O6 0.194218 0.178333 0.755955
O O7 0.331497 0.118583 0.683394
O O8 0.500000 0.558020 0.972919
O O9 0.605240 0.641126 0.951996
O O10 0.642767 0.563919 0.111529
O O11 0.881014 0.750000 0.091170
O O12 0.750000 0.692049 0.000000
O O13 0.000000 0.577750 0.736008
#
# Coordination Sequence:
#
# PCOD9501639 Si02
#       5
#    16  16  16  16  16
#     4   9  19  33  53  80 112 148 185 225 266 321
#     4  11  23  37  54  80 113 148 185 224 272 324
#     4   9  17  32  54  82 110 137 177 228 279 324
#     4  10  20  37  59  80 103 133 180 230 278 327
#     4  10  19  33  53  80 113 148 184 222 269 321
#
# _framework density 21.387304
#
# number of rings (size 3 to 8) (size 9 to 14) (size 15 to 20)
#    0.000    2.200    2.000    1.200    0.000    5.600 
#    0.000    4.000    0.000    0.600    0.000    2.800 
#    0.000    0.000    0.000    0.000    0.000    0.000 
#
# Total GULP energy -223205.488900 kJ/mol
# GULP energy per Si atom -5580.137222 kJ/mol
# Density = 2.133863 g / cm^3
# Si number density = 21.387304 Si / 1000 Ang^3
#
#
#
# Elastic Constant Matrix: (Units=GPa)
#
#
# Indices 1 2 3 4 5 6 
#
# 1 64.2488 7.1333 -9.0153 0.0000 0.0000 0.0000
# 2 7.1333 111.3993 -9.4988 0.0000 0.0000 0.0000
# 3 -9.0153 -9.4988 77.3966 0.0000 0.0000 0.0000
# 4 0.0000 0.0000 0.0000 11.2751 0.0000 0.0000
# 5 0.0000 0.0000 0.0000 0.0000 17.3092 0.0000
# 6 0.0000 0.0000 0.0000 0.0000 0.0000 13.8650
#
#
#
# Elastic Compliance Matrix: (Units=1/GPa)
#
#
# Indices 1 2 3 4 5 6 
#
# 1 0.015906 -0.000870 0.001746 0.000000 0.000000 0.000000
# 2 -0.000870 0.009119 0.001018 0.000000 0.000000 0.000000
# 3 0.001746 0.001018 0.013249 0.000000 0.000000 0.000000
# 4 0.000000 0.000000 0.000000 0.088691 0.000000 0.000000
# 5 0.000000 0.000000 0.000000 0.000000 0.057773 0.000000
# 6 0.000000 0.000000 0.000000 0.000000 0.000000 0.072124
#
#
# Mechanical properties :
#
#
# Convention : Reuss Voigt Hill
#
# Bulk Modulus (GPa) = 23.77412 25.58703 24.68057
# Shear Modulus (GPa) = 18.71995 26.11820 22.41908
#
# Velocity S-wave (km/s) = 2.96173 3.49836 3.24117
# Velocity P-wave (km/s) = 4.77869 5.32049 5.05685
#
# Compressibility (1/GPa) = 0.04206255
#
# Stress axis : x y z
#
# Youngs Moduli (GPa) = 62.86918 109.65879 75.47876
#
# Poissons Ratio (x) = 0.09536 -0.13179
# Poissons Ratio (y) = 0.05467 -0.07683
# Poissons Ratio (z) = -0.10977 -0.11162
#
# Static dielectric constant tensor:
#      x y z
#    x 1.774270 0.000000 0.000000 
#    y 0.000000 1.757900 0.000000 
#    z 0.000000 0.000000 1.830480 
# 
# From -- ./inp_files/9926.got.cif
#   From: 2010.05.17/outbox.cif.g08.bks.cpg/sg67_5_cif.got.tgz:9926.got - 2010.06.03 18:28:57.
