data_PCOD9501805
_publ_section_title
;
Structure prediction by ZEFSAII (Michael W. Deem and Ramdas Pophale) SiO2 
 PCOD9501805
Probable space group: C M M A
;
_chemical_formula_sum "Si O2"
_cell_formula_units_Z 112
_cell_length_a 27.862585
_cell_length_b 13.385098
_cell_length_c 15.956776
_cell_angle_alpha 90.000000
_cell_angle_beta 90.000000
_cell_angle_gamma 90.000000
_cell_volume 5950.974785
_symmetry_space_group_name_H-M "C M M A"
_symmetry_group_IT_number 67
_symmetry_cell_setting 'orthorhombic'
loop_
_space_group_symop_operation_xyz
x,y,z
-x,1/2-y,z
x,-y,-z
-x,1/2+y,-z
-x,-y,-z
x,1/2+y,-z
-x,y,z
x,1/2-y,z
1/2+x,1/2+y,z
1/2-x,-y,z
1/2+x,1/2-y,-z
1/2-x,y,-z
1/2-x,1/2-y,-z
1/2+x,y,-z
1/2-x,1/2+y,z
1/2+x,-y,z
loop_
_atom_site_type_symbol
_atom_site_label
_atom_site_fract_x
_atom_site_fract_y
_atom_site_fract_z
Si Si1 0.347522 0.444249 0.875143
Si Si2 0.129249 0.133382 0.639448
Si Si3 0.303837 0.637353 0.965018
Si Si4 0.555103 0.130799 0.813046
Si Si5 0.805410 0.525753 0.704235
Si Si6 0.643712 0.366748 0.551708
Si Si7 0.054689 0.533675 0.629162
O O1 0.324853 0.550965 0.904623
O O2 0.404340 0.434251 0.859335
O O3 0.321777 0.416710 0.787703
O O4 0.335225 0.370833 0.950916
O O5 0.124093 0.250000 0.654455
O O6 0.163654 0.076159 0.703275
O O7 0.152869 0.118564 0.546850
O O8 0.079042 0.074350 0.641423
O O9 0.304777 0.750000 0.930010
O O10 0.250000 0.616796 0.000000
O O11 0.500000 0.115729 0.842139
O O12 0.565626 0.250000 0.817671
O O13 0.556843 0.094223 0.716557
O O14 0.750000 0.500000 0.704908
O O15 0.821734 0.582236 0.619669
O O16 0.644387 0.250000 0.568277
O O17 0.590461 0.408979 0.567481
O O18 0.000000 0.528443 0.601542
#
# Coordination Sequence:
#
# PCOD9501805 Si02
#       7
#    16  16  16  16  16  16  16
#     4  11  20  38  62  86 117 147 188 239 282 334
#     4  10  22  38  52  76 116 154 188 234 292 345
#     4  10  22  39  60  89 124 158 187 226 283 339
#     4  10  20  35  59  89 117 148 188 236 289 340
#     4  11  22  36  57  83 109 145 194 241 282 337
#     4  10  21  36  54  79 113 149 190 241 291 338
#     4  10  19  34  56  81 110 146 191 242 287 335
#
# _framework density 18.820446
#
# number of rings (size 3 to 8) (size 9 to 14) (size 15 to 20)
#    0.000    1.714    2.857    4.286    0.000    5.143 
#    0.000    4.286    0.000    1.286    0.000    0.000 
#    0.000    0.000    0.000    0.000    0.000    0.000 
#
# Total GULP energy -312327.266352 kJ/mol
# GULP energy per Si atom -5577.272613 kJ/mol
# Density = 1.877761 g / cm^3
# Si number density = 18.820446 Si / 1000 Ang^3
#
#
#
# Elastic Constant Matrix: (Units=GPa)
#
#
# Indices 1 2 3 4 5 6 
#
# 1 100.6227 10.7159 18.0039 0.0000 0.0000 0.0000
# 2 10.7159 91.1297 2.4350 0.0000 0.0000 0.0000
# 3 18.0039 2.4350 37.9360 0.0000 0.0000 0.0000
# 4 0.0000 0.0000 0.0000 15.7508 0.0000 0.0000
# 5 0.0000 0.0000 0.0000 0.0000 106.7688 0.0000
# 6 0.0000 0.0000 0.0000 0.0000 0.0000 17.7192
#
#
#
# Elastic Compliance Matrix: (Units=1/GPa)
#
#
# Indices 1 2 3 4 5 6 
#
# 1 0.010980 -0.001154 -0.005137 0.000000 0.000000 0.000000
# 2 -0.001154 0.011113 -0.000166 0.000000 0.000000 0.000000
# 3 -0.005137 -0.000166 0.028809 0.000000 0.000000 0.000000
# 4 0.000000 0.000000 0.000000 0.063489 0.000000 0.000000
# 5 0.000000 0.000000 0.000000 0.000000 0.009366 0.000000
# 6 0.000000 0.000000 0.000000 0.000000 0.000000 0.056436
#
#
# Mechanical properties :
#
#
# Convention : Reuss Voigt Hill
#
# Bulk Modulus (GPa) = 26.32326 32.44423 29.38374
# Shear Modulus (GPa) = 24.29905 41.28334 32.79119
#
# Velocity S-wave (km/s) = 3.59708 4.68860 4.17864
# Velocity P-wave (km/s) = 5.59186 6.82546 6.23922
#
# Compressibility (1/GPa) = 0.03798921
#
# Stress axis : x y z
#
# Youngs Moduli (GPa) = 91.07363 89.98075 34.71174
#
# Poissons Ratio (x) = 0.10383 0.17831
# Poissons Ratio (y) = 0.10509 0.00575
# Poissons Ratio (z) = 0.46784 0.01491
#
# Static dielectric constant tensor:
#      x y z
#    x 1.650300 0.000000 0.000000 
#    y 0.000000 1.674050 0.000000 
#    z 0.000000 0.000000 1.673950 
# 
# From -- ./inp_files/30794.got.cif
#   From: 2010.05.17/outbox.cif.g08.bks.cpg/sg67_16_cif.got.tgz:30794.got - 2010.06.03 18:28:57.
