data_PCOD9501498
_publ_section_title
;
Structure prediction by ZEFSAII (Michael W. Deem and Ramdas Pophale) SiO2 
 PCOD9501498
Probable space group: C M M A
;
_chemical_formula_sum "Si O2"
_cell_formula_units_Z 96
_cell_length_a 14.919257
_cell_length_b 27.288023
_cell_length_c 14.239255
_cell_angle_alpha 90.000000
_cell_angle_beta 90.000000
_cell_angle_gamma 90.000000
_cell_volume 5797.043179
_symmetry_space_group_name_H-M "C M M A"
_symmetry_group_IT_number 67
_symmetry_cell_setting 'orthorhombic'
loop_
_space_group_symop_operation_xyz
x,y,z
-x,1/2-y,z
x,-y,-z
-x,1/2+y,-z
-x,-y,-z
x,1/2+y,-z
-x,y,z
x,1/2-y,z
1/2+x,1/2+y,z
1/2-x,-y,z
1/2+x,1/2-y,-z
1/2-x,y,-z
1/2-x,1/2-y,-z
1/2+x,y,-z
1/2-x,1/2+y,z
1/2+x,-y,z
loop_
_atom_site_type_symbol
_atom_site_label
_atom_site_fract_x
_atom_site_fract_y
_atom_site_fract_z
Si Si1 0.263950 0.120057 0.604669
Si Si2 0.104906 0.432290 0.707916
Si Si3 0.106162 0.807167 0.948970
Si Si4 0.894449 0.527484 0.599402
Si Si5 0.773972 0.807037 0.767908
Si Si6 0.895050 0.145909 0.855102
O O1 0.250000 0.139303 0.500000
O O2 0.169306 0.099068 0.641598
O O3 0.332186 0.074556 0.603680
O O4 0.296457 0.160200 0.678457
O O5 0.124927 0.488838 0.683487
O O6 0.117763 0.408751 0.811682
O O7 0.000000 0.425656 0.683844
O O8 0.125806 0.750000 0.976025
O O9 0.164106 0.819115 0.857677
O O10 0.000000 0.809751 0.928333
O O11 0.125072 0.843157 0.036005
O O12 0.878190 0.500000 0.500000
O O13 0.000000 0.540057 0.602643
O O14 0.784254 0.750000 0.748026
O O15 0.672296 0.819704 0.797742
O O16 0.000000 0.158388 0.841436
#
# Coordination Sequence:
#
# PCOD9501498 Si02
#       6
#    16  16  16  16  16  16
#     4  11  21  32  51  73  99 135 173 210 252 302
#     4   9  18  31  48  76 106 127 156 208 261 304
#     4   9  17  31  52  74  97 132 176 216 253 300
#     4  10  19  32  53  76  98 126 165 210 254 302
#     4  10  21  34  48  72 104 136 171 212 253 297
#     4   9  17  30  51  77 103 130 164 206 255 303
#
# _framework density 16.560165999999999
#
# number of rings (size 3 to 8) (size 9 to 14) (size 15 to 20)
#    0.000    2.333    1.667    1.500    0.000    3.333 
#    0.000    0.000    0.000    1.000    0.000   14.000 
#    0.000    0.000    0.000    0.000    0.000    0.000 
#
# Total GULP energy -267441.873441 kJ/mol
# GULP energy per Si atom -5571.705697 kJ/mol
# Density = 1.652247 g / cm^3
# Si number density = 16.560166 Si / 1000 Ang^3
#
#
#
# Elastic Constant Matrix: (Units=GPa)
#
#
# Indices 1 2 3 4 5 6 
#
# 1 48.4722 39.4653 48.9926 0.0000 0.0000 0.0000
# 2 39.4653 79.3315 77.6239 0.0000 0.0000 0.0000
# 3 48.9926 77.6239 130.4474 0.0000 0.0000 0.0000
# 4 0.0000 0.0000 0.0000 33.4135 0.0000 0.0000
# 5 0.0000 0.0000 0.0000 0.0000 20.8633 0.0000
# 6 0.0000 0.0000 0.0000 0.0000 0.0000 17.6681
#
#
#
# Elastic Compliance Matrix: (Units=1/GPa)
#
#
# Indices 1 2 3 4 5 6 
#
# 1 0.037225 -0.011583 -0.007088 0.000000 0.000000 0.000000
# 2 -0.011583 0.033778 -0.015750 0.000000 0.000000 0.000000
# 3 -0.007088 -0.015750 0.019700 0.000000 0.000000 0.000000
# 4 0.000000 0.000000 0.000000 0.029928 0.000000 0.000000
# 5 0.000000 0.000000 0.000000 0.000000 0.047931 0.000000
# 6 0.000000 0.000000 0.000000 0.000000 0.000000 0.056599
#
#
# Mechanical properties :
#
#
# Convention : Reuss Voigt Hill
#
# Bulk Modulus (GPa) = 45.74192 65.60164 55.67178
# Shear Modulus (GPa) = 16.59519 20.53361 18.56440
#
# Velocity S-wave (km/s) = 3.16905 3.52510 3.35181
# Velocity P-wave (km/s) = 6.40876 7.50124 6.97641
#
# Compressibility (1/GPa) = 0.02186178
#
# Stress axis : x y z
#
# Youngs Moduli (GPa) = 26.86331 29.60472 50.76056
#
# Poissons Ratio (x) = 0.34291 0.35981
# Poissons Ratio (y) = 0.31115 0.79948
# Poissons Ratio (z) = 0.19042 0.46627
#
# Static dielectric constant tensor:
#      x y z
#    x 1.568890 0.000000 0.000000 
#    y 0.000000 1.549580 0.000000 
#    z 0.000000 0.000000 1.563920 
# 
# From -- ./inp_files/27822.got.cif
#   From: 2010.05.17/outbox.cif.g08.bks.cpg/sg67_14_cif.got.tgz:27822.got - 2010.06.03 18:28:57.
