data_PCOD9501909
_publ_section_title
;
Structure prediction by ZEFSAII (Michael W. Deem and Ramdas Pophale) SiO2 
 PCOD9501909
Probable space group: C M M A
;
_chemical_formula_sum "Si O2"
_cell_formula_units_Z 112
_cell_length_a 14.717976
_cell_length_b 24.128378
_cell_length_c 13.878186
_cell_angle_alpha 90.000000
_cell_angle_beta 90.000000
_cell_angle_gamma 90.000000
_cell_volume 4928.433741
_symmetry_space_group_name_H-M "C M M A"
_symmetry_group_IT_number 67
_symmetry_cell_setting 'orthorhombic'
loop_
_space_group_symop_operation_xyz
x,y,z
-x,1/2-y,z
x,-y,-z
-x,1/2+y,-z
-x,-y,-z
x,1/2+y,-z
-x,y,z
x,1/2-y,z
1/2+x,1/2+y,z
1/2-x,-y,z
1/2+x,1/2-y,-z
1/2-x,y,-z
1/2-x,1/2-y,-z
1/2+x,y,-z
1/2-x,1/2+y,z
1/2+x,-y,z
loop_
_atom_site_type_symbol
_atom_site_label
_atom_site_fract_x
_atom_site_fract_y
_atom_site_fract_z
Si Si1 0.107969 0.118049 0.343934
Si Si2 0.608271 0.186607 0.082752
Si Si3 0.105372 0.919194 0.982958
Si Si4 0.225845 0.816392 0.272660
Si Si5 0.608422 0.623167 0.565774
Si Si6 0.651002 0.508565 0.840023
Si Si7 0.398410 0.491219 0.359609
O O1 0.177301 0.152628 0.278685
O O2 0.117121 0.139356 0.454131
O O3 0.000000 0.120603 0.316929
O O4 0.137961 0.053449 0.349148
O O5 0.500000 0.182021 0.106815
O O6 0.626082 0.250000 0.056492
O O7 0.627167 0.144809 0.995071
O O8 0.669480 0.171641 0.174844
O O9 0.000000 0.927589 0.008564
O O10 0.156634 0.951382 0.068248
O O11 0.118009 0.950148 0.882788
O O12 0.236658 0.750000 0.279362
O O13 0.165560 0.839309 0.361607
O O14 0.500000 0.624417 0.589114
O O15 0.640957 0.559066 0.578969
O O16 0.750000 0.500000 0.800031
O O17 0.596445 0.530890 0.750305
O O18 0.500000 0.500633 0.396373
#
# Coordination Sequence:
#
# PCOD9501909 Si02
#       7
#    16  16  16  16  16  16  16
#     4  10  23  40  58  84 119 160 205 249 296 356
#     4   9  19  36  61  91 118 150 196 251 305 353
#     4  10  19  35  57  81 116 152 185 233 291 352
#     4  11  23  38  58  87 121 157 202 250 298 354
#     4  10  21  38  61  89 120 154 195 250 310 361
#     4  11  22  33  52  87 120 148 186 234 286 355
#     4  10  21  38  60  86 117 155 196 243 301 360
#
# _framework density 22.725272
#
# number of rings (size 3 to 8) (size 9 to 14) (size 15 to 20)
#    0.000    1.857    0.000    4.714    4.000    6.286 
#    0.000    2.857    0.000    2.571    0.000    2.000 
#    0.000    0.000    0.000    0.000    0.000    0.000 
#
# Total GULP energy -312904.426973 kJ/mol
# GULP energy per Si atom -5587.579053 kJ/mol
# Density = 2.267355 g / cm^3
# Si number density = 22.725272 Si / 1000 Ang^3
#
#
#
# Elastic Constant Matrix: (Units=GPa)
#
#
# Indices 1 2 3 4 5 6 
#
# 1 81.0579 27.3905 5.4270 0.0000 0.0000 0.0000
# 2 27.3905 114.4256 21.6254 0.0000 0.0000 0.0000
# 3 5.4270 21.6254 60.1631 0.0000 0.0000 0.0000
# 4 0.0000 0.0000 0.0000 23.1020 0.0000 0.0000
# 5 0.0000 0.0000 0.0000 0.0000 17.7558 0.0000
# 6 0.0000 0.0000 0.0000 0.0000 0.0000 11.8840
#
#
#
# Elastic Compliance Matrix: (Units=1/GPa)
#
#
# Indices 1 2 3 4 5 6 
#
# 1 0.013423 -0.003202 -0.000060 0.000000 0.000000 0.000000
# 2 -0.003202 0.010140 -0.003356 0.000000 0.000000 0.000000
# 3 -0.000060 -0.003356 0.017833 0.000000 0.000000 0.000000
# 4 0.000000 0.000000 0.000000 0.043286 0.000000 0.000000
# 5 0.000000 0.000000 0.000000 0.000000 0.056319 0.000000
# 6 0.000000 0.000000 0.000000 0.000000 0.000000 0.084147
#
#
# Mechanical properties :
#
#
# Convention : Reuss Voigt Hill
#
# Bulk Modulus (GPa) = 35.51054 40.50360 38.00707
# Shear Modulus (GPa) = 20.17993 23.96194 22.07093
#
# Velocity S-wave (km/s) = 2.98316 3.25070 3.11980
# Velocity P-wave (km/s) = 5.24648 5.65255 5.45329
#
# Compressibility (1/GPa) = 0.02816065
#
# Stress axis : x y z
#
# Youngs Moduli (GPa) = 74.50024 98.61974 56.07522
#
# Poissons Ratio (x) = 0.31575 0.00336
# Poissons Ratio (y) = 0.23853 0.18819
# Poissons Ratio (z) = 0.00447 0.33096
#
# Static dielectric constant tensor:
#      x y z
#    x 1.884770 0.000000 0.000000 
#    y 0.000000 1.850760 0.000000 
#    z 0.000000 0.000000 1.871370 
# 
# From -- ./inp_files/27495.got.cif
#   From: 2010.05.17/outbox.cif.g08.bks.cpg/sg67_14_cif.got.tgz:27495.got - 2010.06.03 18:28:57.
