data_PCOD9501172
_publ_section_title
;
Structure prediction by ZEFSAII (Michael W. Deem and Ramdas Pophale) SiO2 
 PCOD9501172
Probable space group: C M M A
;
_chemical_formula_sum "Si O2"
_cell_formula_units_Z 104
_cell_length_a 9.185775
_cell_length_b 25.309095
_cell_length_c 27.818189
_cell_angle_alpha 90.000000
_cell_angle_beta 90.000000
_cell_angle_gamma 90.000000
_cell_volume 6467.274174
_symmetry_space_group_name_H-M "C M M A"
_symmetry_group_IT_number 67
_symmetry_cell_setting 'orthorhombic'
loop_
_space_group_symop_operation_xyz
x,y,z
-x,1/2-y,z
x,-y,-z
-x,1/2+y,-z
-x,-y,-z
x,1/2+y,-z
-x,y,z
x,1/2-y,z
1/2+x,1/2+y,z
1/2-x,-y,z
1/2+x,1/2-y,-z
1/2-x,y,-z
1/2-x,1/2-y,-z
1/2+x,y,-z
1/2-x,1/2+y,z
1/2+x,-y,z
loop_
_atom_site_type_symbol
_atom_site_label
_atom_site_fract_x
_atom_site_fract_y
_atom_site_fract_z
Si Si1 0.326232 0.250000 0.448871
Si Si2 0.336177 0.750000 0.796221
Si Si3 0.327836 0.750000 0.300390
Si Si4 0.829875 0.144179 0.858718
Si Si5 0.826708 0.312336 0.050568
Si Si6 0.824774 0.833051 0.367563
Si Si7 0.675146 0.944154 0.782232
Si Si8 0.325685 0.555747 0.671127
O O1 0.500000 0.250000 0.455382
O O2 0.250000 0.250000 0.500000
O O3 0.288960 0.301610 0.416563
O O4 0.500000 0.750000 0.774359
O O5 0.217886 0.750000 0.754806
O O6 0.323107 0.698512 0.828918
O O7 0.500000 0.750000 0.307059
O O8 0.255602 0.699436 0.326003
O O9 0.737113 0.152512 0.906566
O O10 0.780777 0.098595 0.821986
O O11 0.000000 0.135058 0.871207
O O12 0.795895 0.250000 0.061005
O O13 0.000000 0.318242 0.046534
O O14 0.750000 0.324586 0.000000
O O15 0.786307 0.894689 0.362612
O O16 0.000000 0.828585 0.360711
O O17 0.500000 0.948936 0.784370
O O18 0.710785 0.929467 0.726764
O O19 0.750000 0.000000 0.791776
O O20 0.500000 0.548594 0.668694
O O21 0.250000 0.500000 0.660050
#
# Coordination Sequence:
#
# PCOD9501172 Si02
#       8
#     8   8   8  16  16  16  16  16
#     4   9  18  32  52  75  98 129 168 209 253 300
#     4  10  19  31  47  67  97 133 160 190 240 302
#     4  11  21  29  43  70 101 128 162 209 246 280
#     4  10  19  32  51  71  93 125 164 197 235 289
#     4  10  20  33  50  71  97 124 154 194 243 296
#     4   9  18  34  52  69  96 136 171 198 244 307
#     4   9  18  31  48  71  97 129 164 197 233 279
#     4   9  17  31  51  73  99 130 168 205 240 287
#
# _framework density 16.080964000000002
#
# number of rings (size 3 to 8) (size 9 to 14) (size 15 to 20)
#    0.000    2.462    0.769    2.538    0.000    6.154 
#    0.000    3.077    0.000    0.923    0.000    6.462 
#    0.000    0.000    0.000    0.000    0.000    0.000 
#
# Total GULP energy -289900.669225 kJ/mol
# GULP energy per Si atom -5575.012870 kJ/mol
# Density = 1.604436 g / cm^3
# Si number density = 16.080964 Si / 1000 Ang^3
#
#
#
# Elastic Constant Matrix: (Units=GPa)
#
#
# Indices 1 2 3 4 5 6 
#
# 1 34.4697 36.0581 41.7119 0.0000 0.0000 0.0000
# 2 36.0581 120.5172 65.3184 0.0000 0.0000 0.0000
# 3 41.7119 65.3184 98.9560 0.0000 0.0000 0.0000
# 4 0.0000 0.0000 0.0000 9.3140 0.0000 0.0000
# 5 0.0000 0.0000 0.0000 0.0000 28.8730 0.0000
# 6 0.0000 0.0000 0.0000 0.0000 0.0000 22.8171
#
#
#
# Elastic Compliance Matrix: (Units=1/GPa)
#
#
# Indices 1 2 3 4 5 6 
#
# 1 0.062702 -0.006906 -0.021872 0.000000 0.000000 0.000000
# 2 -0.006906 0.013680 -0.006119 0.000000 0.000000 0.000000
# 3 -0.021872 -0.006119 0.023364 0.000000 0.000000 0.000000
# 4 0.000000 0.000000 0.000000 0.107365 0.000000 0.000000
# 5 0.000000 0.000000 0.000000 0.000000 0.034634 0.000000
# 6 0.000000 0.000000 0.000000 0.000000 0.000000 0.043827
#
#
# Mechanical properties :
#
#
# Convention : Reuss Voigt Hill
#
# Bulk Modulus (GPa) = 33.38570 60.01330 46.69950
# Shear Modulus (GPa) = 13.68548 19.59111 16.63829
#
# Velocity S-wave (km/s) = 2.92042 3.49417 3.22010
# Velocity P-wave (km/s) = 5.67255 7.32663 6.55200
#
# Compressibility (1/GPa) = 0.02995295
#
# Stress axis : x y z
#
# Youngs Moduli (GPa) = 15.94834 73.09839 42.80120
#
# Poissons Ratio (x) = 0.50482 0.93614
# Poissons Ratio (y) = 0.11014 0.26190
# Poissons Ratio (z) = 0.34882 0.44728
#
# Static dielectric constant tensor:
#      x y z
#    x 1.539660 0.000000 0.000000 
#    y 0.000000 1.531920 0.000000 
#    z 0.000000 0.000000 1.522040 
# 
# From -- ./inp_files/43778.got.cif
#   From: 2010.05.17/outbox.cif.g08.bks.cpg/sg67_22_cif.got.tgz:43778.got - 2010.06.03 18:28:57.
