data_PCOD9501113
_publ_section_title
;
Structure prediction by ZEFSAII (Michael W. Deem and Ramdas Pophale) SiO2 
 PCOD9501113
Probable space group: C M M A
;
_chemical_formula_sum "Si O2"
_cell_formula_units_Z 116
_cell_length_a 7.631203
_cell_length_b 29.016060
_cell_length_c 24.321288
_cell_angle_alpha 90.000000
_cell_angle_beta 90.000000
_cell_angle_gamma 90.000000
_cell_volume 5385.400640
_symmetry_space_group_name_H-M "C M M A"
_symmetry_group_IT_number 67
_symmetry_cell_setting 'orthorhombic'
loop_
_space_group_symop_operation_xyz
x,y,z
-x,1/2-y,z
x,-y,-z
-x,1/2+y,-z
-x,-y,-z
x,1/2+y,-z
-x,y,z
x,1/2-y,z
1/2+x,1/2+y,z
1/2-x,-y,z
1/2+x,1/2-y,-z
1/2-x,y,-z
1/2-x,1/2-y,-z
1/2+x,y,-z
1/2-x,1/2+y,z
1/2+x,-y,z
loop_
_atom_site_type_symbol
_atom_site_label
_atom_site_fract_x
_atom_site_fract_y
_atom_site_fract_z
Si Si1 0.300910 0.053064 0.354678
Si Si2 0.208394 0.371989 0.436540
Si Si3 0.288661 0.450488 0.822510
Si Si4 0.709254 0.682477 0.063113
Si Si5 0.785162 0.802804 0.658319
Si Si6 0.801172 0.379067 0.261803
Si Si7 0.500000 0.250000 0.105624
Si Si8 0.207609 0.926306 0.939128
O O1 0.500000 0.055649 0.335278
O O2 0.284293 0.080712 0.411835
O O3 0.193511 0.082959 0.310670
O O4 0.250000 0.000000 0.359334
O O5 0.250000 0.364573 0.500000
O O6 0.268528 0.330391 0.396680
O O7 0.000000 0.375189 0.430697
O O8 0.500000 0.446394 0.822604
O O9 0.250000 0.500000 0.796196
O O10 0.219493 0.406693 0.788743
O O11 0.217313 0.449771 0.884694
O O12 0.500000 0.689113 0.073768
O O13 0.749775 0.628012 0.064745
O O14 0.843391 0.710251 0.100693
O O15 0.750000 0.697181 0.000000
O O16 0.728169 0.750000 0.659387
O O17 0.723006 0.833657 0.709953
O O18 0.000000 0.803089 0.659331
O O19 0.000000 0.366596 0.245827
O O20 0.000000 0.930093 0.935001
O O21 0.250000 0.943459 0.000000
#
# Coordination Sequence:
#
# PCOD9501113 Si02
#       8
#    16  16  16  16  16  16   4  16
#     4  11  21  34  53  77 109 144 185 229 281 337
#     4  10  20  34  51  76 111 148 191 235 277 323
#     4  10  21  37  57  84 110 141 179 225 278 337
#     4  10  19  30  47  74 106 141 179 229 271 320
#     4   8  15  30  54  82 108 144 184 223 271 324
#     4   9  18  34  57  83 112 140 176 228 277 330
#     4  12  20  28  50  78 104 136 194 220 274 322
#     4   9  20  37  54  75 109 146 182 224 280 337
#
# _framework density 21.539715000000001
#
# number of rings (size 3 to 8) (size 9 to 14) (size 15 to 20)
#    0.000    2.345    0.690    3.310    0.966    3.034 
#    0.000    2.759    1.517    9.931    0.000    0.000 
#    0.000    0.000    0.000    0.000    0.000    0.000 
#
# Total GULP energy -323108.914148 kJ/mol
# GULP energy per Si atom -5570.843347 kJ/mol
# Density = 2.149069 g / cm^3
# Si number density = 21.539715 Si / 1000 Ang^3
#
#
#
# Elastic Constant Matrix: (Units=GPa)
#
#
# Indices 1 2 3 4 5 6 
#
# 1 77.3225 9.1213 -10.3067 0.0000 0.0000 0.0000
# 2 9.1213 138.2988 36.0021 0.0000 0.0000 0.0000
# 3 -10.3067 36.0021 89.1751 0.0000 0.0000 0.0000
# 4 0.0000 0.0000 0.0000 23.9633 0.0000 0.0000
# 5 0.0000 0.0000 0.0000 0.0000 8.1574 0.0000
# 6 0.0000 0.0000 0.0000 0.0000 0.0000 -12.7357
#
#
#
# Elastic Compliance Matrix: (Units=1/GPa)
#
#
# Indices 1 2 3 4 5 6 
#
# 1 0.013386 -0.001437 0.002127 0.000000 0.000000 0.000000
# 2 -0.001437 0.008234 -0.003490 0.000000 0.000000 0.000000
# 3 0.002127 -0.003490 0.012869 0.000000 0.000000 0.000000
# 4 0.000000 0.000000 0.000000 0.041730 0.000000 0.000000
# 5 0.000000 0.000000 0.000000 0.000000 0.122588 0.000000
# 6 0.000000 0.000000 0.000000 0.000000 0.000000 -0.078520
#
#
# Mechanical properties :
#
#
# Convention : Reuss Voigt Hill
#
# Bulk Modulus (GPa) = 34.61505 41.60331 38.10918
# Shear Modulus (GPa) = 36.89565 21.87565 29.38565
#
# Velocity S-wave (km/s) = 4.14322 3.19030 3.69759
# Velocity P-wave (km/s) = 6.24449 5.73823 5.99671
#
# Compressibility (1/GPa) = 0.02888916
#
# Stress axis : x y z
#
# Youngs Moduli (GPa) = 74.70579 121.44656 77.70693
#
# Poissons Ratio (x) = 0.17447 -0.16529
# Poissons Ratio (y) = 0.10732 0.27122
# Poissons Ratio (z) = -0.15891 0.42389
#
# Static dielectric constant tensor:
#      x y z
#    x 1.807710 0.000000 0.000000 
#    y 0.000000 1.786260 0.000000 
#    z 0.000000 0.000000 1.825250 
# 
# From -- ./inp_files/41227.got.cif
#   From: 2010.05.17/outbox.cif.g08.bks.cpg/sg67_21_cif.got.tgz:41227.got - 2010.06.03 18:28:57.
