data_PCOD9501677
_publ_section_title
;
Structure prediction by ZEFSAII (Michael W. Deem and Ramdas Pophale) SiO2 
 PCOD9501677
Probable space group: C M M A
;
_chemical_formula_sum "Si O2"
_cell_formula_units_Z 116
_cell_length_a 26.920748
_cell_length_b 7.644846
_cell_length_c 23.971054
_cell_angle_alpha 90.000000
_cell_angle_beta 90.000000
_cell_angle_gamma 90.000000
_cell_volume 4933.362113
_symmetry_space_group_name_H-M "C M M A"
_symmetry_group_IT_number 67
_symmetry_cell_setting 'orthorhombic'
loop_
_space_group_symop_operation_xyz
x,y,z
-x,1/2-y,z
x,-y,-z
-x,1/2+y,-z
-x,-y,-z
x,1/2+y,-z
-x,y,z
x,1/2-y,z
1/2+x,1/2+y,z
1/2-x,-y,z
1/2+x,1/2-y,-z
1/2-x,y,-z
1/2-x,1/2-y,-z
1/2+x,y,-z
1/2-x,1/2+y,z
1/2+x,-y,z
loop_
_atom_site_type_symbol
_atom_site_label
_atom_site_fract_x
_atom_site_fract_y
_atom_site_fract_z
Si Si1 0.407033 0.450269 0.787218
Si Si2 0.194387 0.460139 0.622233
Si Si3 0.419115 0.967213 0.089941
Si Si4 0.000000 0.750000 0.053111
Si Si5 0.941873 0.950602 0.672059
Si Si6 0.806043 0.041805 0.750506
Si Si7 0.102590 0.552663 0.441208
Si Si8 0.805252 0.454783 0.065421
O O1 0.423804 0.250000 0.781426
O O2 0.429987 0.511368 0.844754
O O3 0.419290 0.535850 0.727662
O O4 0.347439 0.457710 0.789424
O O5 0.189142 0.250000 0.626305
O O6 0.250000 0.500000 0.604538
O O7 0.187609 0.523594 0.686221
O O8 0.153754 0.534751 0.579864
O O9 0.424927 0.750000 0.082155
O O10 0.360774 0.018386 0.082210
O O11 0.456116 0.093209 0.056446
O O12 0.923688 0.750000 0.665739
O O13 0.000000 0.946606 0.681515
O O14 0.930994 0.040036 0.613381
O O15 0.812798 0.250000 0.751939
O O16 0.750000 0.000000 0.766761
O O17 0.079710 0.500000 0.500000
O O18 0.116746 0.750000 0.452178
O O19 0.808900 0.250000 0.073525
O O20 0.750000 0.500000 0.089435
O O21 0.802215 0.500000 0.000000
#
# Coordination Sequence:
#
# PCOD9501677 Si02
#       8
#    16  16  16   4  16  16  16  16
#     4  10  21  39  62  90 127 163 208 266 326 389
#     4   9  19  34  53  78 109 142 180 225 276 349
#     4  10  25  45  67 104 145 189 242 303 358 422
#     4  12  26  44  74  96 146 200 248 292 360 436
#     4  10  22  40  63  86 108 147 192 243 309 375
#     4  10  19  33  54  83 119 155 196 242 305 379
#     4  11  23  40  58  82 111 142 184 241 298 365
#     4  10  21  40  73 107 149 193 246 311 365 428
#
# _framework density 23.513373999999999
#
# number of rings (size 3 to 8) (size 9 to 14) (size 15 to 20)
#    0.000    1.931    1.379    1.862    3.862    3.034 
#    0.000    3.103    0.000    0.000    0.000    0.000 
#    0.000    0.000    0.000    0.000    0.000    0.000 
#
# Total GULP energy -322958.198138 kJ/mol
# GULP energy per Si atom -5568.244795 kJ/mol
# Density = 2.345986 g / cm^3
# Si number density = 23.513374 Si / 1000 Ang^3
#
#
#
# Elastic Constant Matrix: (Units=GPa)
#
#
# Indices 1 2 3 4 5 6 
#
# 1 126.8203 26.4580 22.8578 0.0000 0.0000 0.0000
# 2 26.4580 68.0160 14.0061 0.0000 0.0000 0.0000
# 3 22.8578 14.0061 101.0350 0.0000 0.0000 0.0000
# 4 0.0000 0.0000 0.0000 4.7537 0.0000 0.0000
# 5 0.0000 0.0000 0.0000 0.0000 -29.8406 0.0000
# 6 0.0000 0.0000 0.0000 0.0000 0.0000 8.4006
#
#
#
# Elastic Compliance Matrix: (Units=1/GPa)
#
#
# Indices 1 2 3 4 5 6 
#
# 1 0.008815 -0.003107 -0.001564 0.000000 0.000000 0.000000
# 2 -0.003107 0.016230 -0.001547 0.000000 0.000000 0.000000
# 3 -0.001564 -0.001547 0.010466 0.000000 0.000000 0.000000
# 4 0.000000 0.000000 0.000000 0.210364 0.000000 0.000000
# 5 0.000000 0.000000 0.000000 0.000000 -0.033511 0.000000
# 6 0.000000 0.000000 0.000000 0.000000 0.000000 0.119039
#
#
# Mechanical properties :
#
#
# Convention : Reuss Voigt Hill
#
# Bulk Modulus (GPa) = 43.33630 46.94613 45.14121
# Shear Modulus (GPa) = 14.22355 12.16602 13.19478
#
# Velocity S-wave (km/s) = 2.46217 2.27713 2.37145
# Velocity P-wave (km/s) = 5.15301 5.18872 5.17090
#
# Compressibility (1/GPa) = 0.02307535
#
# Stress axis : x y z
#
# Youngs Moduli (GPa) = 113.44016 61.61571 95.54976
#
# Poissons Ratio (x) = 0.19145 0.14940
# Poissons Ratio (y) = 0.35247 0.14781
# Poissons Ratio (z) = 0.17737 0.09531
#
# Static dielectric constant tensor:
#      x y z
#    x 1.917890 0.000000 0.000000 
#    y 0.000000 1.924490 0.000000 
#    z 0.000000 0.000000 1.994200 
# 
# From -- ./inp_files/42838.got.cif
#   From: 2010.05.17/outbox.cif.g08.bks.cpg/sg67_22_cif.got.tgz:42838.got - 2010.06.03 18:28:57.
