data_PCOD9501715
_publ_section_title
;
Structure prediction by ZEFSAII (Michael W. Deem and Ramdas Pophale) SiO2 
 PCOD9501715
Probable space group: C M M A
;
_chemical_formula_sum "Si O2"
_cell_formula_units_Z 112
_cell_length_a 18.923234
_cell_length_b 16.572501
_cell_length_c 19.936504
_cell_angle_alpha 90.000000
_cell_angle_beta 90.000000
_cell_angle_gamma 90.000000
_cell_volume 6252.193605
_symmetry_space_group_name_H-M "C M M A"
_symmetry_group_IT_number 67
_symmetry_cell_setting 'orthorhombic'
loop_
_space_group_symop_operation_xyz
x,y,z
-x,1/2-y,z
x,-y,-z
-x,1/2+y,-z
-x,-y,-z
x,1/2+y,-z
-x,y,z
x,1/2-y,z
1/2+x,1/2+y,z
1/2-x,-y,z
1/2+x,1/2-y,-z
1/2-x,y,-z
1/2-x,1/2-y,-z
1/2+x,y,-z
1/2-x,1/2+y,z
1/2+x,-y,z
loop_
_atom_site_type_symbol
_atom_site_label
_atom_site_fract_x
_atom_site_fract_y
_atom_site_fract_z
Si Si1 0.417904 0.841243 0.885884
Si Si2 0.922278 0.910650 0.969887
Si Si3 0.799709 0.921301 0.182315
Si Si4 0.193962 0.926377 0.338810
Si Si5 0.286833 0.343791 0.930254
Si Si6 0.916432 0.473602 0.421999
Si Si7 0.206697 0.656070 0.565389
O O1 0.500000 0.847448 0.868800
O O2 0.394358 0.750000 0.867909
O O3 0.412299 0.852165 0.966006
O O4 0.376204 0.914563 0.851953
O O5 0.000000 0.898027 0.941003
O O6 0.858531 0.892851 0.921291
O O7 0.918713 0.000000 0.000000
O O8 0.812405 0.906083 0.260597
O O9 0.759803 0.856926 0.135241
O O10 0.750000 0.000000 0.176434
O O11 0.234785 0.855235 0.376801
O O12 0.250000 0.000000 0.344052
O O13 0.123056 0.958983 0.375553
O O14 0.301739 0.250000 0.939363
O O15 0.250000 0.372987 0.000000
O O16 0.915030 0.500000 0.500000
O O17 0.863930 0.395715 0.419565
O O18 0.000000 0.461322 0.404138
O O19 0.189106 0.750000 0.555379
O O20 0.250000 0.624889 0.500000
#
# Coordination Sequence:
#
# PCOD9501715 Si02
#       7
#    16  16  16  16  16  16  16
#     4  10  20  35  55  77 106 146 184 223 285 355
#     4  10  20  34  54  80 106 138 185 243 295 345
#     4  11  22  36  55  82 112 145 184 237 289 334
#     4   9  20  36  56  82 112 149 192 231 276 342
#     4  11  22  34  53  80 108 144 188 236 287 347
#     4  10  19  34  59  86 116 152 189 234 282 334
#     4  10  19  33  56  84 114 152 192 231 275 332
#
# _framework density 17.913712
#
# number of rings (size 3 to 8) (size 9 to 14) (size 15 to 20)
#    0.000    1.857    2.857    1.714    0.000    2.857 
#    0.000    0.000    0.000    3.857    0.000    6.000 
#    0.000    0.000    0.000    0.000    0.000    0.000 
#
# Total GULP energy -311849.275291 kJ/mol
# GULP energy per Si atom -5568.737059 kJ/mol
# Density = 1.787294 g / cm^3
# Si number density = 17.913712 Si / 1000 Ang^3
#
#
#
# Elastic Constant Matrix: (Units=GPa)
#
#
# Indices 1 2 3 4 5 6 
#
# 1 142.9775 37.8630 42.9026 0.0000 0.0000 0.0000
# 2 37.8630 47.9461 19.0706 0.0000 0.0000 0.0000
# 3 42.9026 19.0706 71.7844 0.0000 0.0000 0.0000
# 4 0.0000 0.0000 0.0000 6.4783 0.0000 0.0000
# 5 0.0000 0.0000 0.0000 0.0000 15.4377 0.0000
# 6 0.0000 0.0000 0.0000 0.0000 0.0000 34.4871
#
#
#
# Elastic Compliance Matrix: (Units=1/GPa)
#
#
# Indices 1 2 3 4 5 6 
#
# 1 0.009901 -0.006111 -0.004294 0.000000 0.000000 0.000000
# 2 -0.006111 0.027093 -0.003545 0.000000 0.000000 0.000000
# 3 -0.004294 -0.003545 0.017439 0.000000 0.000000 0.000000
# 4 0.000000 0.000000 0.000000 0.154361 0.000000 0.000000
# 5 0.000000 0.000000 0.000000 0.000000 0.064777 0.000000
# 6 0.000000 0.000000 0.000000 0.000000 0.000000 0.028996
#
#
# Mechanical properties :
#
#
# Convention : Reuss Voigt Hill
#
# Bulk Modulus (GPa) = 37.69022 51.37560 44.53291
# Shear Modulus (GPa) = 14.73577 22.13874 18.43725
#
# Velocity S-wave (km/s) = 2.87121 3.51929 3.21164
# Velocity P-wave (km/s) = 5.66368 6.72723 6.21823
#
# Compressibility (1/GPa) = 0.02653208
#
# Stress axis : x y z
#
# Youngs Moduli (GPa) = 101.00195 36.91047 57.34354
#
# Poissons Ratio (x) = 0.22555 0.24623
# Poissons Ratio (y) = 0.61720 0.20330
# Poissons Ratio (z) = 0.43369 0.13086
#
# Static dielectric constant tensor:
#      x y z
#    x 1.660880 0.000000 0.000000 
#    y 0.000000 1.622560 0.000000 
#    z 0.000000 0.000000 1.632640 
# 
# From -- ./inp_files/39063.got.cif
#   From: 2010.05.17/outbox.cif.g08.bks.cpg/sg67_20_cif.got.tgz:39063.got - 2010.06.03 18:28:57.
