data_PCOD9501344
_publ_section_title
;
Structure prediction by ZEFSAII (Michael W. Deem and Ramdas Pophale) SiO2 
 PCOD9501344
Probable space group: C M M A
;
_chemical_formula_sum "Si O2"
_cell_formula_units_Z 104
_cell_length_a 8.908210
_cell_length_b 27.642799
_cell_length_c 24.239485
_cell_angle_alpha 90.000000
_cell_angle_beta 90.000000
_cell_angle_gamma 90.000000
_cell_volume 5968.921272
_symmetry_space_group_name_H-M "C M M A"
_symmetry_group_IT_number 67
_symmetry_cell_setting 'orthorhombic'
loop_
_space_group_symop_operation_xyz
x,y,z
-x,1/2-y,z
x,-y,-z
-x,1/2+y,-z
-x,-y,-z
x,1/2+y,-z
-x,y,z
x,1/2-y,z
1/2+x,1/2+y,z
1/2-x,-y,z
1/2+x,1/2-y,-z
1/2-x,y,-z
1/2-x,1/2-y,-z
1/2+x,y,-z
1/2-x,1/2+y,z
1/2+x,-y,z
loop_
_atom_site_type_symbol
_atom_site_label
_atom_site_fract_x
_atom_site_fract_y
_atom_site_fract_z
Si Si1 0.322745 0.395051 0.164296
Si Si2 0.179442 0.857620 0.939223
Si Si3 0.320613 0.693141 0.559155
Si Si4 0.323677 0.858075 0.336841
Si Si5 0.819686 0.051604 0.726031
Si Si6 0.675848 0.194343 0.776469
Si Si7 0.819926 0.750000 0.939343
O O1 0.500000 0.397583 0.155062
O O2 0.238834 0.395070 0.105986
O O3 0.279398 0.434418 0.210517
O O4 0.278466 0.344457 0.193316
O O5 0.222024 0.803120 0.917472
O O6 0.000000 0.859832 0.943538
O O7 0.250000 0.863663 0.000000
O O8 0.500000 0.688044 0.557108
O O9 0.285515 0.750000 0.569309
O O10 0.250000 0.680355 0.500000
O O11 0.252880 0.661400 0.608125
O O12 0.500000 0.867153 0.345796
O O13 0.246262 0.906049 0.312396
O O14 0.311614 0.817740 0.288468
O O15 0.000000 0.051068 0.721912
O O16 0.750000 0.000000 0.711966
O O17 0.500000 0.186388 0.792251
O O18 0.712472 0.250000 0.787983
O O19 0.000000 0.750000 0.941653
O O20 0.750000 0.750000 0.000000
#
# Coordination Sequence:
#
# PCOD9501344 Si02
#       7
#    16  16  16  16  16  16   8
#     4  10  21  34  49  74 102 130 166 209 257 310
#     4  10  19  32  49  69  97 133 171 209 250 301
#     4  10  20  33  51  78 114 155 194 229 263 303
#     4  10  19  33  54  79 107 140 179 221 267 316
#     4  10  21  38  59  81 105 132 170 218 270 324
#     4   9  18  31  47  69 100 137 173 209 251 302
#     4   8  16  28  42  62  88 124 166 202 233 276
#
# _framework density 17.423584000000002
#
# number of rings (size 3 to 8) (size 9 to 14) (size 15 to 20)
#    0.000    2.308    0.000    2.769    1.077    4.923 
#    0.000    0.000    0.000    0.923    0.000    6.462 
#    0.000    0.000    0.000    0.000    0.000    0.000 
#
# Total GULP energy -290067.251660 kJ/mol
# GULP energy per Si atom -5578.216378 kJ/mol
# Density = 1.738393 g / cm^3
# Si number density = 17.423584 Si / 1000 Ang^3
#
#
#
# Elastic Constant Matrix: (Units=GPa)
#
#
# Indices 1 2 3 4 5 6 
#
# 1 56.0444 25.1447 47.8922 0.0000 0.0000 0.0000
# 2 25.1447 58.5788 30.4523 0.0000 0.0000 0.0000
# 3 47.8922 30.4523 113.6298 0.0000 0.0000 0.0000
# 4 0.0000 0.0000 0.0000 19.5812 0.0000 0.0000
# 5 0.0000 0.0000 0.0000 0.0000 32.7861 0.0000
# 6 0.0000 0.0000 0.0000 0.0000 0.0000 22.1677
#
#
#
# Elastic Compliance Matrix: (Units=1/GPa)
#
#
# Indices 1 2 3 4 5 6 
#
# 1 0.030438 -0.007432 -0.010837 0.000000 0.000000 0.000000
# 2 -0.007432 0.021649 -0.002670 0.000000 0.000000 0.000000
# 3 -0.010837 -0.002670 0.014084 0.000000 0.000000 0.000000
# 4 0.000000 0.000000 0.000000 0.051069 0.000000 0.000000
# 5 0.000000 0.000000 0.000000 0.000000 0.030501 0.000000
# 6 0.000000 0.000000 0.000000 0.000000 0.000000 0.045111
#
#
# Mechanical properties :
#
#
# Convention : Reuss Voigt Hill
#
# Bulk Modulus (GPa) = 41.16313 48.35905 44.76109
# Shear Modulus (GPa) = 20.59086 23.22459 21.90772
#
# Velocity S-wave (km/s) = 3.44143 3.65491 3.54977
# Velocity P-wave (km/s) = 6.28232 6.75472 6.52280
#
# Compressibility (1/GPa) = 0.02429359
#
# Stress axis : x y z
#
# Youngs Moduli (GPa) = 32.85345 46.19195 71.00456
#
# Poissons Ratio (x) = 0.34328 0.76950
# Poissons Ratio (y) = 0.24416 0.18955
# Poissons Ratio (z) = 0.35604 0.12331
#
# Static dielectric constant tensor:
#      x y z
#    x 1.585060 0.000000 0.000000 
#    y 0.000000 1.582920 0.000000 
#    z 0.000000 0.000000 1.594010 
# 
# From -- ./inp_files/37326.got.cif
#   From: 2010.05.17/outbox.cif.g08.bks.cpg/sg67_19_cif.got.tgz:37326.got - 2010.06.03 18:28:57.
