data_PCOD9501292
_publ_section_title
;
Structure prediction by ZEFSAII (Michael W. Deem and Ramdas Pophale) SiO2 
 PCOD9501292
Probable space group: C M M A
;
_chemical_formula_sum "Si O2"
_cell_formula_units_Z 96
_cell_length_a 16.840417
_cell_length_b 15.293868
_cell_length_c 18.475390
_cell_angle_alpha 90.000000
_cell_angle_beta 90.000000
_cell_angle_gamma 90.000000
_cell_volume 4758.431190
_symmetry_space_group_name_H-M "C M M A"
_symmetry_group_IT_number 67
_symmetry_cell_setting 'orthorhombic'
loop_
_space_group_symop_operation_xyz
x,y,z
-x,1/2-y,z
x,-y,-z
-x,1/2+y,-z
-x,-y,-z
x,1/2+y,-z
-x,y,z
x,1/2-y,z
1/2+x,1/2+y,z
1/2-x,-y,z
1/2+x,1/2-y,-z
1/2-x,y,-z
1/2-x,1/2-y,-z
1/2+x,y,-z
1/2-x,1/2+y,z
1/2+x,-y,z
loop_
_atom_site_type_symbol
_atom_site_label
_atom_site_fract_x
_atom_site_fract_y
_atom_site_fract_z
Si Si1 0.802555 0.915411 0.200043
Si Si2 0.096693 0.652441 0.633291
Si Si3 0.096368 0.848045 0.466283
Si Si4 0.589328 0.935809 0.940147
Si Si5 0.628541 0.250000 0.005506
Si Si6 0.403829 0.539540 0.669781
Si Si7 0.767511 0.250000 0.127792
O O1 0.859234 0.932853 0.131491
O O2 0.858984 0.905030 0.269367
O O3 0.748090 0.834131 0.177044
O O4 0.750000 0.000000 0.212284
O O5 0.122706 0.750000 0.657780
O O6 0.122278 0.640802 0.549336
O O7 0.118811 0.563340 0.674181
O O8 0.000000 0.653933 0.633621
O O9 0.120048 0.750000 0.442557
O O10 0.119122 0.921188 0.408531
O O11 0.000000 0.849806 0.468579
O O12 0.500000 0.966279 0.923670
O O13 0.586207 0.839875 0.975005
O O14 0.625792 0.000000 0.000000
O O15 0.654090 0.250000 0.921471
O O16 0.701331 0.250000 0.063558
O O17 0.500000 0.546189 0.677218
#
# Coordination Sequence:
#
# PCOD9501292 Si02
#       7
#    16  16  16  16   8  16   8
#     4  11  23  38  53  77 109 151 186 219 268 332
#     4   8  14  27  48  75 105 138 181 233 286 336
#     4   8  14  25  46  77 107 136 175 227 287 341
#     4  10  20  35  59  86 111 136 175 230 276 316
#     4   9  17  34  58  84 105 135 172 216 268 324
#     4  10  19  31  51  78 110 143 181 231 284 332
#     4   9  20  36  56  76 104 139 182 218 257 324
#
# _framework density 20.174716
#
# number of rings (size 3 to 8) (size 9 to 14) (size 15 to 20)
#    0.000    2.667    0.000    3.250    1.167    3.667 
#    1.500    0.833    0.000    2.000    0.000    2.333 
#    0.000    0.000    0.000    0.000    0.000    0.000 
#
# Total GULP energy -267577.479889 kJ/mol
# GULP energy per Si atom -5574.530831 kJ/mol
# Density = 2.012880 g / cm^3
# Si number density = 20.174716 Si / 1000 Ang^3
#
#
#
# Elastic Constant Matrix: (Units=GPa)
#
#
# Indices 1 2 3 4 5 6 
#
# 1 22.8337 2.6344 13.0822 0.0000 0.0000 0.0000
# 2 2.6344 66.2831 10.0192 0.0000 0.0000 0.0000
# 3 13.0822 10.0192 50.6309 0.0000 0.0000 0.0000
# 4 0.0000 0.0000 0.0000 25.5744 0.0000 0.0000
# 5 0.0000 0.0000 0.0000 0.0000 -48.2473 0.0000
# 6 0.0000 0.0000 0.0000 0.0000 0.0000 6.6168
#
#
#
# Elastic Compliance Matrix: (Units=1/GPa)
#
#
# Indices 1 2 3 4 5 6 
#
# 1 0.051405 -0.000036 -0.013275 0.000000 0.000000 0.000000
# 2 -0.000036 0.015552 -0.003068 0.000000 0.000000 0.000000
# 3 -0.013275 -0.003068 0.023788 0.000000 0.000000 0.000000
# 4 0.000000 0.000000 0.000000 0.039102 0.000000 0.000000
# 5 0.000000 0.000000 0.000000 0.000000 -0.020727 0.000000
# 6 0.000000 0.000000 0.000000 0.000000 0.000000 0.151130
#
#
# Mechanical properties :
#
#
# Convention : Reuss Voigt Hill
#
# Bulk Modulus (GPa) = 17.24563 21.24659 19.24611
# Shear Modulus (GPa) = 16.00831 4.38956 10.19894
#
# Velocity S-wave (km/s) = 2.81994 1.47665 2.25084
# Velocity P-wave (km/s) = 4.37829 3.66899 4.03924
#
# Compressibility (1/GPa) = 0.05798572
#
# Stress axis : x y z
#
# Youngs Moduli (GPa) = 19.45342 64.30028 42.03810
#
# Poissons Ratio (x) = 0.00235 0.55805
# Poissons Ratio (y) = 0.00071 0.12898
# Poissons Ratio (z) = 0.25824 0.19728
#
# Static dielectric constant tensor:
#      x y z
#    x 1.712910 0.000000 0.000000 
#    y 0.000000 1.732820 0.000000 
#    z 0.000000 0.000000 1.695040 
# 
# From -- ./inp_files/29363.got.cif
#   From: 2010.05.17/outbox.cif.g08.bks.cpg/sg67_15_cif.got.tgz:29363.got - 2010.06.03 18:28:57.
