data_PCOD9501078
_publ_section_title
;
Structure prediction by ZEFSAII (Michael W. Deem and Ramdas Pophale) SiO2 
 PCOD9501078
Probable space group: C M M A
;
_chemical_formula_sum "Si O2"
_cell_formula_units_Z 72
_cell_length_a 8.924483
_cell_length_b 25.884692
_cell_length_c 20.034256
_cell_angle_alpha 90.000000
_cell_angle_beta 90.000000
_cell_angle_gamma 90.000000
_cell_volume 4628.063267
_symmetry_space_group_name_H-M "C M M A"
_symmetry_group_IT_number 67
_symmetry_cell_setting 'orthorhombic'
loop_
_space_group_symop_operation_xyz
x,y,z
-x,1/2-y,z
x,-y,-z
-x,1/2+y,-z
-x,-y,-z
x,1/2+y,-z
-x,y,z
x,1/2-y,z
1/2+x,1/2+y,z
1/2-x,-y,z
1/2+x,1/2-y,-z
1/2-x,y,-z
1/2-x,1/2-y,-z
1/2+x,y,-z
1/2-x,1/2+y,z
1/2+x,-y,z
loop_
_atom_site_type_symbol
_atom_site_label
_atom_site_fract_x
_atom_site_fract_y
_atom_site_fract_z
Si Si1 0.678842 0.445398 0.572076
Si Si2 0.678537 0.343690 0.656394
Si Si3 0.820420 0.250000 0.573609
Si Si4 0.827151 0.312857 0.068598
Si Si5 0.677442 0.187970 0.207874
O O1 0.500000 0.451064 0.564515
O O2 0.750000 0.500000 0.592982
O O3 0.750000 0.432427 0.500000
O O4 0.708447 0.399212 0.623341
O O5 0.500000 0.334086 0.653979
O O6 0.762424 0.299995 0.613504
O O7 0.736987 0.339205 0.731729
O O8 0.750000 0.250000 0.500000
O O9 0.000000 0.250000 0.570170
O O10 0.825182 0.250000 0.067272
O O11 0.739480 0.327921 0.135503
O O12 0.000000 0.329046 0.071589
O O13 0.750000 0.330390 0.000000
O O14 0.500000 0.178962 0.212235
O O15 0.701993 0.250000 0.214856
#
# Coordination Sequence:
#
# PCOD9501078 Si02
#       5
#    16  16   8  16  16
#     4  10  21  36  55  75  94 122 158 202 250 295
#     4  11  22  35  51  72  98 128 162 200 244 292
#     4  12  24  36  50  70  95 128 163 198 240 288
#     4   9  16  26  41  61  88 124 163 202 238 278
#     4  10  19  30  45  67  95 129 165 198 240 288
#
# _framework density 15.557263000000001
#
# number of rings (size 3 to 8) (size 9 to 14) (size 15 to 20)
#    0.000    1.778    1.111    5.000    0.000    8.889 
#    0.000    0.000    0.000    0.000    0.000    0.000 
#    0.000    0.889    0.000    9.333    0.000    5.556 
#
# Total GULP energy -200970.287596 kJ/mol
# GULP energy per Si atom -5582.507989 kJ/mol
# Density = 1.552185 g / cm^3
# Si number density = 15.557263 Si / 1000 Ang^3
#
#
#
# Elastic Constant Matrix: (Units=GPa)
#
#
# Indices 1 2 3 4 5 6 
#
# 1 119.6253 57.5063 76.0247 0.0000 0.0000 0.0000
# 2 57.5063 65.6067 61.2822 0.0000 0.0000 0.0000
# 3 76.0247 61.2822 147.0014 0.0000 0.0000 0.0000
# 4 0.0000 0.0000 0.0000 7.8085 0.0000 0.0000
# 5 0.0000 0.0000 0.0000 0.0000 32.8324 0.0000
# 6 0.0000 0.0000 0.0000 0.0000 0.0000 17.5666
#
#
#
# Elastic Compliance Matrix: (Units=1/GPa)
#
#
# Indices 1 2 3 4 5 6 
#
# 1 0.015705 -0.010120 -0.003903 0.000000 0.000000 0.000000
# 2 -0.010120 0.031484 -0.007891 0.000000 0.000000 0.000000
# 3 -0.003903 -0.007891 0.012111 0.000000 0.000000 0.000000
# 4 0.000000 0.000000 0.000000 0.128065 0.000000 0.000000
# 5 0.000000 0.000000 0.000000 0.000000 0.030458 0.000000
# 6 0.000000 0.000000 0.000000 0.000000 0.000000 0.056926
#
#
# Mechanical properties :
#
#
# Convention : Reuss Voigt Hill
#
# Bulk Modulus (GPa) = 64.63770 80.20665 72.42218
# Shear Modulus (GPa) = 15.44474 20.80285 18.12379
#
# Velocity S-wave (km/s) = 3.15424 3.66071 3.41687
# Velocity P-wave (km/s) = 7.40973 8.33879 7.88795
#
# Compressibility (1/GPa) = 0.01547085
#
# Stress axis : x y z
#
# Youngs Moduli (GPa) = 63.67444 31.76226 82.56870
#
# Poissons Ratio (x) = 0.32143 0.32229
# Poissons Ratio (y) = 0.64437 0.65158
# Poissons Ratio (z) = 0.24854 0.25065
#
# Static dielectric constant tensor:
#      x y z
#    x 1.519860 0.000000 0.000000 
#    y 0.000000 1.492830 0.000000 
#    z 0.000000 0.000000 1.509980 
# 
# From -- ./inp_files/31961.got.cif
#   From: 2010.05.17/outbox.cif.g08.bks.cpg/sg67_16_cif.got.tgz:31961.got - 2010.06.03 18:28:57.
