data_PCOD9501657
_publ_section_title
;
Structure prediction by ZEFSAII (Michael W. Deem and Ramdas Pophale) SiO2 
 PCOD9501657
Probable space group: C M M A
;
_chemical_formula_sum "Si O2"
_cell_formula_units_Z 96
_cell_length_a 26.423873
_cell_length_b 17.460583
_cell_length_c 12.419647
_cell_angle_alpha 90.000000
_cell_angle_beta 90.000000
_cell_angle_gamma 90.000000
_cell_volume 5730.129882
_symmetry_space_group_name_H-M "C M M A"
_symmetry_group_IT_number 67
_symmetry_cell_setting 'orthorhombic'
loop_
_space_group_symop_operation_xyz
x,y,z
-x,1/2-y,z
x,-y,-z
-x,1/2+y,-z
-x,-y,-z
x,1/2+y,-z
-x,y,z
x,1/2-y,z
1/2+x,1/2+y,z
1/2-x,-y,z
1/2+x,1/2-y,-z
1/2-x,y,-z
1/2-x,1/2-y,-z
1/2+x,y,-z
1/2-x,1/2+y,z
1/2+x,-y,z
loop_
_atom_site_type_symbol
_atom_site_label
_atom_site_fract_x
_atom_site_fract_y
_atom_site_fract_z
Si Si1 0.368353 0.163994 0.144325
Si Si2 0.559138 0.158555 0.563302
Si Si3 0.191441 0.986491 0.128545
Si Si4 0.900834 0.562502 0.749647
Si Si5 0.059045 0.603733 0.320342
Si Si6 0.557297 0.590764 0.025664
O O1 0.349927 0.250000 0.132000
O O2 0.324869 0.100564 0.152034
O O3 0.404657 0.155517 0.247685
O O4 0.403318 0.138230 0.044241
O O5 0.500000 0.143628 0.593840
O O6 0.565657 0.250000 0.556620
O O7 0.595903 0.119940 0.650032
O O8 0.566710 0.121426 0.445885
O O9 0.250000 0.000000 0.153720
O O10 0.153183 0.039290 0.197976
O O11 0.184171 0.000000 0.000000
O O12 0.926661 0.483200 0.710947
O O13 0.932387 0.597920 0.848235
O O14 0.000000 0.617236 0.295534
O O15 0.500000 0.612041 0.997712
O O16 0.563502 0.500000 0.000000
#
# Coordination Sequence:
#
# PCOD9501657 Si02
#       6
#    16  16  16  16  16  16
#     4  11  21  34  54  83 111 140 178 224 275 319
#     4  10  21  34  49  77 115 149 181 220 265 313
#     4  10  20  40  61  77 102 138 180 233 275 323
#     4  11  19  34  55  79 102 144 186 223 266 327
#     4  10  19  33  54  78 109 150 191 219 248 310
#     4  11  19  31  50  78 113 147 177 210 260 325
#
# _framework density 16.753547000000001
#
# number of rings (size 3 to 8) (size 9 to 14) (size 15 to 20)
#    0.000    1.500    5.000    3.000    0.000    4.000 
#    0.000    2.500    0.000    8.000    0.000    5.833 
#    0.000    0.000    0.000    0.000    0.000    0.000 
#
# Total GULP energy -267930.488639 kJ/mol
# GULP energy per Si atom -5581.885180 kJ/mol
# Density = 1.671542 g / cm^3
# Si number density = 16.753547 Si / 1000 Ang^3
#
#
#
# Elastic Constant Matrix: (Units=GPa)
#
#
# Indices 1 2 3 4 5 6 
#
# 1 110.7497 45.5725 44.2741 0.0000 0.0000 0.0000
# 2 45.5725 51.3875 33.8762 0.0000 0.0000 0.0000
# 3 44.2741 33.8762 103.3608 0.0000 0.0000 0.0000
# 4 0.0000 0.0000 0.0000 16.2429 0.0000 0.0000
# 5 0.0000 0.0000 0.0000 0.0000 20.6868 0.0000
# 6 0.0000 0.0000 0.0000 0.0000 0.0000 7.4828
#
#
#
# Elastic Compliance Matrix: (Units=1/GPa)
#
#
# Indices 1 2 3 4 5 6 
#
# 1 0.014742 -0.011367 -0.002589 0.000000 0.000000 0.000000
# 2 -0.011367 0.033588 -0.006139 0.000000 0.000000 0.000000
# 3 -0.002589 -0.006139 0.012796 0.000000 0.000000 0.000000
# 4 0.000000 0.000000 0.000000 0.061565 0.000000 0.000000
# 5 0.000000 0.000000 0.000000 0.000000 0.048340 0.000000
# 6 0.000000 0.000000 0.000000 0.000000 0.000000 0.133639
#
#
# Mechanical properties :
#
#
# Convention : Reuss Voigt Hill
#
# Bulk Modulus (GPa) = 47.76691 56.99375 52.38033
# Shear Modulus (GPa) = 14.21105 18.33418 16.27261
#
# Velocity S-wave (km/s) = 2.91562 3.31168 3.11994
# Velocity P-wave (km/s) = 6.31727 6.97967 6.65671
#
# Compressibility (1/GPa) = 0.02093499
#
# Stress axis : x y z
#
# Youngs Moduli (GPa) = 67.83466 29.77277 78.14899
#
# Poissons Ratio (x) = 0.33842 0.20234
# Poissons Ratio (y) = 0.77106 0.47979
# Poissons Ratio (z) = 0.17563 0.18279
#
# Static dielectric constant tensor:
#      x y z
#    x 1.552440 0.000000 0.000000 
#    y 0.000000 1.569830 0.000000 
#    z 0.000000 0.000000 1.579230 
# 
# From -- ./inp_files/19816.got.cif
#   From: 2010.05.17/outbox.cif.g08.bks.cpg/sg67_10_cif.got.tgz:19816.got - 2010.06.03 18:28:57.
