data_PCOD9501236
_publ_section_title
;
Structure prediction by ZEFSAII (Michael W. Deem and Ramdas Pophale) SiO2 
 PCOD9501236
Probable space group: C M M A
;
_chemical_formula_sum "Si O2"
_cell_formula_units_Z 80
_cell_length_a 16.462905
_cell_length_b 18.431541
_cell_length_c 13.924902
_cell_angle_alpha 90.000000
_cell_angle_beta 90.000000
_cell_angle_gamma 90.000000
_cell_volume 4225.326429
_symmetry_space_group_name_H-M "C M M A"
_symmetry_group_IT_number 67
_symmetry_cell_setting 'orthorhombic'
loop_
_space_group_symop_operation_xyz
x,y,z
-x,1/2-y,z
x,-y,-z
-x,1/2+y,-z
-x,-y,-z
x,1/2+y,-z
-x,y,z
x,1/2-y,z
1/2+x,1/2+y,z
1/2-x,-y,z
1/2+x,1/2-y,-z
1/2-x,y,-z
1/2-x,1/2-y,-z
1/2+x,y,-z
1/2-x,1/2+y,z
1/2+x,-y,z
loop_
_atom_site_type_symbol
_atom_site_label
_atom_site_fract_x
_atom_site_fract_y
_atom_site_fract_z
Si Si1 0.202537 0.163932 0.175795
Si Si2 0.905641 0.079285 0.547290
Si Si3 0.406329 0.545604 0.096576
Si Si4 0.175393 0.055332 0.749766
Si Si5 0.092782 0.164293 0.364732
O O1 0.206854 0.250000 0.156146
O O2 0.153034 0.114854 0.100404
O O3 0.288280 0.124811 0.194628
O O4 0.149940 0.152233 0.273676
O O5 0.860517 0.078620 0.648044
O O6 0.873637 0.130807 0.462799
O O7 0.000000 0.901312 0.435828
O O8 0.902586 0.000000 0.500000
O O9 0.500000 0.568903 0.102176
O O10 0.385696 0.491192 0.184460
O O11 0.393473 0.500000 0.000000
O O12 0.250000 0.000000 0.733180
O O13 0.086809 0.250000 0.376782
O O14 0.000000 0.135617 0.348797
#
# Coordination Sequence:
#
# PCOD9501236 Si02
#       5
#    16  16  16  16  16
#     4  10  21  36  57  84 112 142 177 222 272 324
#     4  10  19  31  49  73 104 145 190 230 266 310
#     4  10  21  39  62  83 104 136 180 227 273 322
#     4  10  21  34  51  78 111 143 178 222 276 328
#     4   9  18  32  50  74 104 140 182 223 262 306
#
# _framework density 18.933447999999999
#
# number of rings (size 3 to 8) (size 9 to 14) (size 15 to 20)
#    0.000    2.200    0.000    3.600    0.000   10.000 
#    0.000    4.000    0.000    3.000    0.000    0.000 
#    0.000    0.000    0.000    0.000    0.000    0.000 
#
# Total GULP energy -223256.079250 kJ/mol
# GULP energy per Si atom -5581.401981 kJ/mol
# Density = 1.889035 g / cm^3
# Si number density = 18.933448 Si / 1000 Ang^3
#
#
#
# Elastic Constant Matrix: (Units=GPa)
#
#
# Indices 1 2 3 4 5 6 
#
# 1 29.6771 22.0028 1.3729 0.0000 0.0000 0.0000
# 2 22.0028 87.4521 8.8786 0.0000 0.0000 0.0000
# 3 1.3729 8.8786 32.4655 0.0000 0.0000 0.0000
# 4 0.0000 0.0000 0.0000 24.0630 0.0000 0.0000
# 5 0.0000 0.0000 0.0000 0.0000 3.9297 0.0000
# 6 0.0000 0.0000 0.0000 0.0000 0.0000 18.6029
#
#
#
# Elastic Compliance Matrix: (Units=1/GPa)
#
#
# Indices 1 2 3 4 5 6 
#
# 1 0.041463 -0.010547 0.001131 0.000000 0.000000 0.000000
# 2 -0.010547 0.014444 -0.003504 0.000000 0.000000 0.000000
# 3 0.001131 -0.003504 0.031712 0.000000 0.000000 0.000000
# 4 0.000000 0.000000 0.000000 0.041558 0.000000 0.000000
# 5 0.000000 0.000000 0.000000 0.000000 0.254475 0.000000
# 6 0.000000 0.000000 0.000000 0.000000 0.000000 0.053755
#
#
# Mechanical properties :
#
#
# Convention : Reuss Voigt Hill
#
# Bulk Modulus (GPa) = 16.18656 23.78924 19.98790
# Shear Modulus (GPa) = 10.33398 17.14181 13.73789
#
# Velocity S-wave (km/s) = 2.33878 3.01220 2.69660
# Velocity P-wave (km/s) = 3.98258 4.96888 4.50282
#
# Compressibility (1/GPa) = 0.06177966
#
# Stress axis : x y z
#
# Youngs Moduli (GPa) = 24.11772 69.23214 31.53343
#
# Poissons Ratio (x) = 0.73018 -0.03566
# Poissons Ratio (y) = 0.25437 0.11050
# Poissons Ratio (z) = -0.02728 0.24260
#
# Static dielectric constant tensor:
#      x y z
#    x 1.685860 0.000000 0.000000 
#    y 0.000000 1.741160 0.000000 
#    z 0.000000 0.000000 1.660880 
# 
# From -- ./inp_files/28373.got.cif
#   From: 2010.05.17/outbox.cif.g08.bks.cpg/sg67_15_cif.got.tgz:28373.got - 2010.06.03 18:28:57.
