data_PCOD9501963
_publ_section_title
;
Structure prediction by ZEFSAII (Michael W. Deem and Ramdas Pophale) SiO2 
 PCOD9501963
Probable space group: C M M A
;
_chemical_formula_sum "Si O2"
_cell_formula_units_Z 120
_cell_length_a 21.780624
_cell_length_b 23.619356
_cell_length_c 12.528371
_cell_angle_alpha 90.000000
_cell_angle_beta 90.000000
_cell_angle_gamma 90.000000
_cell_volume 6445.149202
_symmetry_space_group_name_H-M "C M M A"
_symmetry_group_IT_number 67
_symmetry_cell_setting 'orthorhombic'
loop_
_space_group_symop_operation_xyz
x,y,z
-x,1/2-y,z
x,-y,-z
-x,1/2+y,-z
-x,-y,-z
x,1/2+y,-z
-x,y,z
x,1/2-y,z
1/2+x,1/2+y,z
1/2-x,-y,z
1/2+x,1/2-y,-z
1/2-x,y,-z
1/2-x,1/2-y,-z
1/2+x,y,-z
1/2-x,1/2+y,z
1/2+x,-y,z
loop_
_atom_site_type_symbol
_atom_site_label
_atom_site_fract_x
_atom_site_fract_y
_atom_site_fract_z
Si Si1 0.888261 0.110174 0.792996
Si Si2 0.067230 0.432359 0.004868
Si Si3 0.682755 0.000061 0.292598
Si Si4 0.934131 0.623845 0.438258
Si Si5 0.691108 0.683661 0.556176
Si Si6 0.281393 0.815193 0.809224
Si Si7 0.299619 0.913243 0.095338
Si Si8 0.101516 0.500000 0.500000
O O1 0.925512 0.128763 0.689403
O O2 0.846525 0.159028 0.845115
O O3 0.841874 0.060065 0.753566
O O4 0.931817 0.086668 0.882841
O O5 0.130420 0.408382 0.053840
O O6 0.000000 0.418857 0.053895
O O7 0.073937 0.500000 0.000000
O O8 0.692216 0.958849 0.190832
O O9 0.750000 0.000000 0.342701
O O10 0.638488 0.985328 0.391012
O O11 0.871645 0.653363 0.476505
O O12 0.932589 0.557914 0.469894
O O13 0.000000 0.648293 0.471121
O O14 0.685533 0.750000 0.527988
O O15 0.750000 0.657379 0.500000
O O16 0.708123 0.680836 0.681337
O O17 0.271849 0.750000 0.838278
O O18 0.228703 0.856069 0.854045
O O19 0.250000 0.929001 0.000000
#
# Coordination Sequence:
#
# PCOD9501963 Si02
#       8
#    16  16  16  16  16  16  16   8
#     4  10  19  36  55  81 114 147 187 238 286 345
#     4  11  22  36  55  83 116 152 189 234 290 350
#     4  11  20  34  56  86 115 151 191 242 291 342
#     4  10  21  36  56  82 116 154 187 231 287 351
#     4   9  20  38  61  85 110 144 193 246 295 342
#     4  10  21  36  58  86 113 147 191 241 296 346
#     4  12  23  36  60  87 118 148 198 249 289 348
#     4  10  24  34  52  82 125 160 187 220 291 368
#
# _framework density 18.618653999999999
#
# number of rings (size 3 to 8) (size 9 to 14) (size 15 to 20)
#    0.000    1.600    4.000    0.800    1.867    0.533 
#    0.000    0.667    0.000    2.400    0.000    0.000 
#    0.000    0.000    0.000    0.000    0.000    0.000 
#
# Total GULP energy -334152.989132 kJ/mol
# GULP energy per Si atom -5569.216486 kJ/mol
# Density = 1.857628 g / cm^3
# Si number density = 18.618654 Si / 1000 Ang^3
#
#
#
# Elastic Constant Matrix: (Units=GPa)
#
#
# Indices 1 2 3 4 5 6 
#
# 1 169.9408 44.1415 30.3457 0.0000 0.0000 0.0000
# 2 44.1415 76.6465 15.9069 0.0000 0.0000 0.0000
# 3 30.3457 15.9069 43.3677 0.0000 0.0000 0.0000
# 4 0.0000 0.0000 0.0000 23.9858 0.0000 0.0000
# 5 0.0000 0.0000 0.0000 0.0000 12.5973 0.0000
# 6 0.0000 0.0000 0.0000 0.0000 0.0000 -8.2750
#
#
#
# Elastic Compliance Matrix: (Units=1/GPa)
#
#
# Indices 1 2 3 4 5 6 
#
# 1 0.007501 -0.003497 -0.003966 0.000000 0.000000 0.000000
# 2 -0.003497 0.015752 -0.003331 0.000000 0.000000 0.000000
# 3 -0.003966 -0.003331 0.027056 0.000000 0.000000 0.000000
# 4 0.000000 0.000000 0.000000 0.041691 0.000000 0.000000
# 5 0.000000 0.000000 0.000000 0.000000 0.079382 0.000000
# 6 0.000000 0.000000 0.000000 0.000000 0.000000 -0.120846
#
#
# Mechanical properties :
#
#
# Convention : Reuss Voigt Hill
#
# Bulk Modulus (GPa) = 34.81765 52.30479 43.56122
# Shear Modulus (GPa) = 61.20205 18.96568 40.08387
#
# Velocity S-wave (km/s) = 5.73958 3.19507 4.64496
# Velocity P-wave (km/s) = 7.91610 6.46258 7.22598
#
# Compressibility (1/GPa) = 0.02872107
#
# Stress axis : x y z
#
# Youngs Moduli (GPa) = 133.31800 63.48399 36.96097
#
# Poissons Ratio (x) = 0.22199 0.14659
# Poissons Ratio (y) = 0.46618 0.12311
# Poissons Ratio (z) = 0.52874 0.21146
#
# Static dielectric constant tensor:
#      x y z
#    x 1.684460 0.000000 0.000000 
#    y 0.000000 1.657650 0.000000 
#    z 0.000000 0.000000 1.675850 
# 
# From -- ./inp_files/21157.got.cif
#   From: 2010.05.17/outbox.cif.g08.bks.cpg/sg67_11_cif.got.tgz:21157.got - 2010.06.03 18:28:57.
