data_PCOD9501442
_publ_section_title
;
Structure prediction by ZEFSAII (Michael W. Deem and Ramdas Pophale) SiO2 
 PCOD9501442
Probable space group: C M M A
;
_chemical_formula_sum "Si O2"
_cell_formula_units_Z 80
_cell_length_a 24.530495
_cell_length_b 7.735787
_cell_length_c 21.208795
_cell_angle_alpha 90.000000
_cell_angle_beta 90.000000
_cell_angle_gamma 90.000000
_cell_volume 4024.637870
_symmetry_space_group_name_H-M "C M M A"
_symmetry_group_IT_number 67
_symmetry_cell_setting 'orthorhombic'
loop_
_space_group_symop_operation_xyz
x,y,z
-x,1/2-y,z
x,-y,-z
-x,1/2+y,-z
-x,-y,-z
x,1/2+y,-z
-x,y,z
x,1/2-y,z
1/2+x,1/2+y,z
1/2-x,-y,z
1/2+x,1/2-y,-z
1/2-x,y,-z
1/2-x,1/2-y,-z
1/2+x,y,-z
1/2-x,1/2+y,z
1/2+x,-y,z
loop_
_atom_site_type_symbol
_atom_site_label
_atom_site_fract_x
_atom_site_fract_y
_atom_site_fract_z
Si Si1 0.383195 0.542326 0.429091
Si Si2 0.686553 0.957690 0.311183
Si Si3 0.000000 0.461271 0.381036
Si Si4 0.000000 0.539151 0.766101
Si Si5 0.382048 0.037711 0.810541
Si Si6 0.813118 0.545640 0.927857
O O1 0.366613 0.500000 0.500000
O O2 0.384706 0.750000 0.423931
O O3 0.342559 0.477326 0.374823
O O4 0.444573 0.479226 0.414410
O O5 0.681709 0.750000 0.311358
O O6 0.654018 0.018125 0.249412
O O7 0.750000 0.000000 0.308491
O O8 0.000000 0.250000 0.382128
O O9 0.000000 0.512319 0.307493
O O10 0.944292 0.482944 0.799488
O O11 0.000000 0.750000 0.766020
O O12 0.382174 0.250000 0.810960
O O13 0.353525 0.974687 0.874596
O O14 0.816504 0.750000 0.923516
O O15 0.750000 0.500000 0.915355
O O16 0.826187 0.500000 0.000000
#
# Coordination Sequence:
#
# PCOD9501442 Si02
#       6
#    16  16   8   8  16  16
#     4  10  20  33  51  74  99 127 162 204 251 297
#     4  10  20  34  51  73  98 128 166 206 247 292
#     4   9  15  29  52  75  97 124 159 206 251 290
#     4   9  14  27  52  77  99 124 161 208 248 288
#     4   9  17  30  51  77 101 127 165 207 246 290
#     4  10  19  32  51  77 105 135 168 202 242 288
#
# _framework density 19.877565000000001
#
# number of rings (size 3 to 8) (size 9 to 14) (size 15 to 20)
#    0.000    2.400    2.000    2.100    0.000    1.200 
#    0.000    3.500    0.000    0.000    0.000    5.600 
#    0.000    0.000    0.000    0.000    0.000    0.000 
#
# Total GULP energy -223300.667200 kJ/mol
# GULP energy per Si atom -5582.516680 kJ/mol
# Density = 1.983232 g / cm^3
# Si number density = 19.877565 Si / 1000 Ang^3
#
#
#
# Elastic Constant Matrix: (Units=GPa)
#
#
# Indices 1 2 3 4 5 6 
#
# 1 173.9500 3.0744 112.8215 0.0000 0.0000 0.0000
# 2 3.0744 29.3907 5.9904 0.0000 0.0000 0.0000
# 3 112.8215 5.9904 180.1041 0.0000 0.0000 0.0000
# 4 0.0000 0.0000 0.0000 7.3073 0.0000 0.0000
# 5 0.0000 0.0000 0.0000 0.0000 39.5606 0.0000
# 6 0.0000 0.0000 0.0000 0.0000 0.0000 14.6391
#
#
#
# Elastic Compliance Matrix: (Units=1/GPa)
#
#
# Indices 1 2 3 4 5 6 
#
# 1 0.009684 0.000225 -0.006074 0.000000 0.000000 0.000000
# 2 0.000225 0.034262 -0.001281 0.000000 0.000000 0.000000
# 3 -0.006074 -0.001281 0.009400 0.000000 0.000000 0.000000
# 4 0.000000 0.000000 0.000000 0.136850 0.000000 0.000000
# 5 0.000000 0.000000 0.000000 0.000000 0.025278 0.000000
# 6 0.000000 0.000000 0.000000 0.000000 0.000000 0.068310
#
#
# Mechanical properties :
#
#
# Convention : Reuss Voigt Hill
#
# Bulk Modulus (GPa) = 25.58399 69.69084 47.63741
# Shear Modulus (GPa) = 16.07346 29.73862 22.90604
#
# Velocity S-wave (km/s) = 2.84671 3.87213 3.39832
# Velocity P-wave (km/s) = 4.86865 7.42478 6.27818
#
# Compressibility (1/GPa) = 0.03908695
#
# Stress axis : x y z
#
# Youngs Moduli (GPa) = 103.26015 29.18700 106.38523
#
# Poissons Ratio (x) = -0.00657 0.64618
# Poissons Ratio (y) = -0.02323 0.13623
# Poissons Ratio (z) = 0.62720 0.03737
#
# Static dielectric constant tensor:
#      x y z
#    x 1.689020 0.000000 0.000000 
#    y 0.000000 1.681330 0.000000 
#    z 0.000000 0.000000 1.707600 
# 
# From -- ./inp_files/39511.got.cif
#   From: 2010.05.17/outbox.cif.g08.bks.cpg/sg67_20_cif.got.tgz:39511.got - 2010.06.03 18:28:57.
