data_PCOD9501915
_publ_section_title
;
Structure prediction by ZEFSAII (Michael W. Deem and Ramdas Pophale) SiO2 
 PCOD9501915
Probable space group: C M M A
;
_chemical_formula_sum "Si O2"
_cell_formula_units_Z 64
_cell_length_a 15.686706
_cell_length_b 8.697098
_cell_length_c 24.471130
_cell_angle_alpha 90.000000
_cell_angle_beta 90.000000
_cell_angle_gamma 90.000000
_cell_volume 3338.567375
_symmetry_space_group_name_H-M "C M M A"
_symmetry_group_IT_number 67
_symmetry_cell_setting 'orthorhombic'
loop_
_space_group_symop_operation_xyz
x,y,z
-x,1/2-y,z
x,-y,-z
-x,1/2+y,-z
-x,-y,-z
x,1/2+y,-z
-x,y,z
x,1/2-y,z
1/2+x,1/2+y,z
1/2-x,-y,z
1/2+x,1/2-y,-z
1/2-x,y,-z
1/2-x,1/2-y,-z
1/2+x,y,-z
1/2-x,1/2+y,z
1/2+x,-y,z
loop_
_atom_site_type_symbol
_atom_site_label
_atom_site_fract_x
_atom_site_fract_y
_atom_site_fract_z
Si Si1 0.000000 0.563258 0.364124
Si Si2 0.340591 0.932675 0.171991
Si Si3 0.500000 0.935103 0.761802
Si Si4 0.603115 0.430300 0.058400
Si Si5 0.157156 0.435409 0.560345
O O1 0.000000 0.513791 0.301332
O O2 0.084180 0.516127 0.397305
O O3 0.000000 0.750000 0.363841
O O4 0.341008 0.750000 0.176361
O O5 0.250000 0.000000 0.189898
O O6 0.416990 0.003145 0.207272
O O7 0.356460 0.981998 0.109239
O O8 0.500000 0.750000 0.764218
O O9 0.500000 0.444205 0.062820
O O10 0.624602 0.250000 0.061196
O O11 0.628310 0.500000 0.000000
O O12 0.137179 0.500000 0.500000
O O13 0.160505 0.250000 0.557821
O O14 0.250000 0.500000 0.575656
#
# Coordination Sequence:
#
# PCOD9501915 Si02
#       5
#     8  16   8  16  16
#     4   9  21  38  60  85 117 156 197 242 293 349
#     4  12  25  42  64  90 120 158 203 250 302 362
#     4  11  23  44  65  87 120 158 201 254 306 357
#     4  10  20  36  61  91 124 158 194 242 300 360
#     4  10  19  35  57  87 121 157 194 238 290 345
#
# _framework density 19.169899000000001
#
# number of rings (size 3 to 8) (size 9 to 14) (size 15 to 20)
#    0.000    1.500    1.250    5.250    0.000    2.500 
#    0.000   11.875    0.000    0.000    0.000    0.000 
#    0.000    0.000    0.000    0.000    0.000    0.000 
#
# Total GULP energy -178953.756830 kJ/mol
# GULP energy per Si atom -5592.304901 kJ/mol
# Density = 1.912627 g / cm^3
# Si number density = 19.169899 Si / 1000 Ang^3
#
#
#
# Elastic Constant Matrix: (Units=GPa)
#
#
# Indices 1 2 3 4 5 6 
#
# 1 154.1391 65.0080 111.5435 0.0000 0.0000 0.0000
# 2 65.0080 125.7716 50.8635 0.0000 0.0000 0.0000
# 3 111.5435 50.8635 150.4743 0.0000 0.0000 0.0000
# 4 0.0000 0.0000 0.0000 24.1958 0.0000 0.0000
# 5 0.0000 0.0000 0.0000 0.0000 -13.0674 0.0000
# 6 0.0000 0.0000 0.0000 0.0000 0.0000 16.6590
#
#
#
# Elastic Compliance Matrix: (Units=1/GPa)
#
#
# Indices 1 2 3 4 5 6 
#
# 1 0.015483 -0.003893 -0.010161 0.000000 0.000000 0.000000
# 2 -0.003893 0.010189 -0.000558 0.000000 0.000000 0.000000
# 3 -0.010161 -0.000558 0.014366 0.000000 0.000000 0.000000
# 4 0.000000 0.000000 0.000000 0.041330 0.000000 0.000000
# 5 0.000000 0.000000 0.000000 0.000000 -0.076526 0.000000
# 6 0.000000 0.000000 0.000000 0.000000 0.000000 0.060028
#
#
# Mechanical properties :
#
#
# Convention : Reuss Voigt Hill
#
# Bulk Modulus (GPa) = 92.47820 98.35719 95.41770
# Shear Modulus (GPa) = 51.17806 19.08880 35.13343
#
# Velocity S-wave (km/s) = 5.17253 3.15901 4.28570
# Velocity P-wave (km/s) = 9.16621 8.04520 8.62394
#
# Compressibility (1/GPa) = 0.01081336
#
# Stress axis : x y z
#
# Youngs Moduli (GPa) = 64.58815 98.14530 69.60693
#
# Poissons Ratio (x) = 0.38212 0.70727
# Poissons Ratio (y) = 0.25147 0.03884
# Poissons Ratio (z) = 0.65628 0.05476
#
# Static dielectric constant tensor:
#      x y z
#    x 1.661820 0.000000 0.000000 
#    y 0.000000 1.642160 0.000000 
#    z 0.000000 0.000000 1.638800 
# 
# From -- ./inp_files/40424.got.cif
#   From: 2010.05.17/outbox.cif.g08.bks.cpg/sg67_21_cif.got.tgz:40424.got - 2010.06.03 18:28:57.
