data_PCOD9501240
_publ_section_title
;
Structure prediction by ZEFSAII (Michael W. Deem and Ramdas Pophale) SiO2 
 PCOD9501240
Probable space group: C M M A
;
_chemical_formula_sum "Si O2"
_cell_formula_units_Z 80
_cell_length_a 24.436013
_cell_length_b 16.980202
_cell_length_c 9.020766
_cell_angle_alpha 90.000000
_cell_angle_beta 90.000000
_cell_angle_gamma 90.000000
_cell_volume 3742.972335
_symmetry_space_group_name_H-M "C M M A"
_symmetry_group_IT_number 67
_symmetry_cell_setting 'orthorhombic'
loop_
_space_group_symop_operation_xyz
x,y,z
-x,1/2-y,z
x,-y,-z
-x,1/2+y,-z
-x,-y,-z
x,1/2+y,-z
-x,y,z
x,1/2-y,z
1/2+x,1/2+y,z
1/2-x,-y,z
1/2+x,1/2-y,-z
1/2-x,y,-z
1/2-x,1/2-y,-z
1/2+x,y,-z
1/2-x,1/2+y,z
1/2+x,-y,z
loop_
_atom_site_type_symbol
_atom_site_label
_atom_site_fract_x
_atom_site_fract_y
_atom_site_fract_z
Si Si1 0.563271 0.658117 0.601528
Si Si2 0.260044 0.162025 0.673116
Si Si3 0.810479 0.657698 0.070988
Si Si4 0.908026 0.949442 0.129629
Si Si5 0.641107 0.939782 0.379799
O O1 0.500000 0.651782 0.552509
O O2 0.578624 0.750000 0.612142
O O3 0.566428 0.618192 0.764811
O O4 0.601772 0.615589 0.479711
O O5 0.275787 0.250000 0.721286
O O6 0.250000 0.161823 0.500000
O O7 0.203852 0.144539 0.755546
O O8 0.310377 0.105779 0.701069
O O9 0.825159 0.750000 0.047166
O O10 0.858007 0.595316 0.044637
O O11 0.750000 0.644035 0.000000
O O12 0.890613 0.011546 0.256079
O O13 0.936832 0.000000 0.000000
O O14 0.666105 0.000000 0.500000
#
# Coordination Sequence:
#
# PCOD9501240 Si02
#       5
#    16  16  16  16  16
#     4  10  22  43  67  85 109 150 195 241 296 357
#     4  10  19  31  49  74 107 147 191 237 277 322
#     4  10  21  36  54  78 116 165 202 229 273 338
#     4  11  23  37  58  89 122 154 190 239 293 346
#     4  10  21  34  55  84 112 147 190 238 289 342
#
# _framework density 21.373387000000001
#
# number of rings (size 3 to 8) (size 9 to 14) (size 15 to 20)
#    0.000    1.800    0.000    4.800    0.000   10.400 
#    0.000    3.000    0.000    2.400    0.000    0.000 
#    0.000    0.000    0.000    0.000    0.000    0.000 
#
# Total GULP energy -223188.389079 kJ/mol
# GULP energy per Si atom -5579.709727 kJ/mol
# Density = 2.132474 g / cm^3
# Si number density = 21.373387 Si / 1000 Ang^3
#
#
#
# Elastic Constant Matrix: (Units=GPa)
#
#
# Indices 1 2 3 4 5 6 
#
# 1 61.8099 46.4028 3.5566 0.0000 0.0000 0.0000
# 2 46.4028 118.4085 24.5448 0.0000 0.0000 0.0000
# 3 3.5566 24.5448 81.2018 0.0000 0.0000 0.0000
# 4 0.0000 0.0000 0.0000 32.0898 0.0000 0.0000
# 5 0.0000 0.0000 0.0000 0.0000 18.8466 0.0000
# 6 0.0000 0.0000 0.0000 0.0000 0.0000 111.5860
#
#
#
# Elastic Compliance Matrix: (Units=1/GPa)
#
#
# Indices 1 2 3 4 5 6 
#
# 1 0.023179 -0.009466 0.001846 0.000000 0.000000 0.000000
# 2 -0.009466 0.012876 -0.003477 0.000000 0.000000 0.000000
# 3 0.001846 -0.003477 0.013285 0.000000 0.000000 0.000000
# 4 0.000000 0.000000 0.000000 0.031163 0.000000 0.000000
# 5 0.000000 0.000000 0.000000 0.000000 0.053060 0.000000
# 6 0.000000 0.000000 0.000000 0.000000 0.000000 0.008962
#
#
# Mechanical properties :
#
#
# Convention : Reuss Voigt Hill
#
# Bulk Modulus (GPa) = 36.83897 45.60318 41.22107
# Shear Modulus (GPa) = 28.77404 44.96554 36.86979
#
# Velocity S-wave (km/s) = 3.67312 4.59171 4.15786
# Velocity P-wave (km/s) = 5.93821 7.03523 6.50987
#
# Compressibility (1/GPa) = 0.02714517
#
# Stress axis : x y z
#
# Youngs Moduli (GPa) = 43.14241 77.66470 75.27155
#
# Poissons Ratio (x) = 0.73519 -0.13896
# Poissons Ratio (y) = 0.40840 0.26175
# Poissons Ratio (z) = -0.07965 0.27007
#
# Static dielectric constant tensor:
#      x y z
#    x 1.791240 0.000000 0.000000 
#    y 0.000000 1.792840 0.000000 
#    z 0.000000 0.000000 1.850960 
# 
# From -- ./inp_files/9970.got.cif
#   From: 2010.05.17/outbox.cif.g08.bks.cpg/sg67_5_cif.got.tgz:9970.got - 2010.06.03 18:28:57.
