data_PCOD9501477
_publ_section_title
;
Structure prediction by ZEFSAII (Michael W. Deem and Ramdas Pophale) SiO2 
 PCOD9501477
Probable space group: C M M A
;
_chemical_formula_sum "Si O2"
_cell_formula_units_Z 80
_cell_length_a 16.735203
_cell_length_b 29.614069
_cell_length_c 8.775712
_cell_angle_alpha 90.000000
_cell_angle_beta 90.000000
_cell_angle_gamma 90.000000
_cell_volume 4349.220545
_symmetry_space_group_name_H-M "C M M A"
_symmetry_group_IT_number 67
_symmetry_cell_setting 'orthorhombic'
loop_
_space_group_symop_operation_xyz
x,y,z
-x,1/2-y,z
x,-y,-z
-x,1/2+y,-z
-x,-y,-z
x,1/2+y,-z
-x,y,z
x,1/2-y,z
1/2+x,1/2+y,z
1/2-x,-y,z
1/2+x,1/2-y,-z
1/2-x,y,-z
1/2-x,1/2-y,-z
1/2+x,y,-z
1/2-x,1/2+y,z
1/2+x,-y,z
loop_
_atom_site_type_symbol
_atom_site_label
_atom_site_fract_x
_atom_site_fract_y
_atom_site_fract_z
Si Si1 0.340865 0.451467 0.557905
Si Si2 0.265031 0.250000 0.681308
Si Si3 0.181247 0.674888 0.114913
Si Si4 0.405181 0.250000 0.911365
Si Si5 0.406022 0.597312 0.699477
Si Si6 0.905397 0.002271 0.179007
O O1 0.376073 0.500000 0.500000
O O2 0.250000 0.449911 0.500000
O O3 0.383498 0.409346 0.478509
O O4 0.354106 0.459052 0.736692
O O5 0.250000 0.250000 0.500000
O O6 0.222666 0.292877 0.760083
O O7 0.354846 0.250000 0.752753
O O8 0.138238 0.635446 0.206223
O O9 0.250000 0.658056 0.000000
O O10 0.123656 0.706736 0.011821
O O11 0.500000 0.250000 0.889577
O O12 0.500000 0.603909 0.714657
O O13 0.384204 0.548030 0.765061
O O14 0.000000 0.010344 0.211050
O O15 0.894054 0.000000 0.000000
#
# Coordination Sequence:
#
# PCOD9501477 Si02
#       6
#    16   8  16   8  16  16
#     4   9  18  32  48  70 100 136 177 219 265 310
#     4   9  19  37  57  78 107 138 170 215 274 330
#     4   9  19  34  54  80 108 142 178 215 264 321
#     4   9  17  35  60  80 105 140 178 219 266 322
#     4  10  19  32  52  76 103 136 175 217 261 311
#     4   9  18  33  52  73 101 139 181 223 264 308
#
# _framework density 18.394099000000001
#
# number of rings (size 3 to 8) (size 9 to 14) (size 15 to 20)
#    0.000    2.800    0.000    2.400    0.000    4.800 
#    0.000   12.000    0.000    0.000    0.000    0.000 
#    0.000    0.000    0.000    0.000    0.000    0.000 
#
# Total GULP energy -222754.026776 kJ/mol
# GULP energy per Si atom -5568.850669 kJ/mol
# Density = 1.835223 g / cm^3
# Si number density = 18.394099 Si / 1000 Ang^3
#
#
#
# Elastic Constant Matrix: (Units=GPa)
#
#
# Indices 1 2 3 4 5 6 
#
# 1 112.7751 59.8211 66.9609 0.0000 0.0000 0.0000
# 2 59.8211 89.2284 52.9863 0.0000 0.0000 0.0000
# 3 66.9609 52.9863 122.8049 0.0000 0.0000 0.0000
# 4 0.0000 0.0000 0.0000 27.2607 0.0000 0.0000
# 5 0.0000 0.0000 0.0000 0.0000 24.4095 0.0000
# 6 0.0000 0.0000 0.0000 0.0000 0.0000 17.2149
#
#
#
# Elastic Compliance Matrix: (Units=1/GPa)
#
#
# Indices 1 2 3 4 5 6 
#
# 1 0.016168 -0.007535 -0.005565 0.000000 0.000000 0.000000
# 2 -0.007535 0.018580 -0.003908 0.000000 0.000000 0.000000
# 3 -0.005565 -0.003908 0.012863 0.000000 0.000000 0.000000
# 4 0.000000 0.000000 0.000000 0.036683 0.000000 0.000000
# 5 0.000000 0.000000 0.000000 0.000000 0.040968 0.000000
# 6 0.000000 0.000000 0.000000 0.000000 0.000000 0.058089
#
#
# Mechanical properties :
#
#
# Convention : Reuss Voigt Hill
#
# Bulk Modulus (GPa) = 73.55282 76.03832 74.79557
# Shear Modulus (GPa) = 22.53283 23.44636 22.98959
#
# Velocity S-wave (km/s) = 3.50380 3.57412 3.53914
# Velocity P-wave (km/s) = 7.51284 7.64596 7.57969
#
# Compressibility (1/GPa) = 0.01359567
#
# Stress axis : x y z
#
# Youngs Moduli (GPa) = 61.84930 53.82273 77.74001
#
# Poissons Ratio (x) = 0.40556 0.43261
# Poissons Ratio (y) = 0.46604 0.30380
# Poissons Ratio (z) = 0.34418 0.21033
#
# Static dielectric constant tensor:
#      x y z
#    x 1.644680 0.000000 0.000000 
#    y 0.000000 1.621720 0.000000 
#    z 0.000000 0.000000 1.764500 
# 
# From -- ./inp_files/10032.got.cif
#   From: 2010.05.17/outbox.cif.g08.bks.cpg/sg67_6_cif.got.tgz:10032.got - 2010.06.03 18:28:57.
