data_PCOD9501556
_publ_section_title
;
Structure prediction by ZEFSAII (Michael W. Deem and Ramdas Pophale) SiO2 
 PCOD9501556
Probable space group: C M M A
;
_chemical_formula_sum "Si O2"
_cell_formula_units_Z 96
_cell_length_a 15.306595
_cell_length_b 24.540724
_cell_length_c 12.646772
_cell_angle_alpha 90.000000
_cell_angle_beta 90.000000
_cell_angle_gamma 90.000000
_cell_volume 4750.569230
_symmetry_space_group_name_H-M "C M M A"
_symmetry_group_IT_number 67
_symmetry_cell_setting 'orthorhombic'
loop_
_space_group_symop_operation_xyz
x,y,z
-x,1/2-y,z
x,-y,-z
-x,1/2+y,-z
-x,-y,-z
x,1/2+y,-z
-x,y,z
x,1/2-y,z
1/2+x,1/2+y,z
1/2-x,-y,z
1/2+x,1/2-y,-z
1/2-x,y,-z
1/2-x,1/2-y,-z
1/2+x,y,-z
1/2-x,1/2+y,z
1/2+x,-y,z
loop_
_atom_site_type_symbol
_atom_site_label
_atom_site_fract_x
_atom_site_fract_y
_atom_site_fract_z
Si Si1 0.106596 0.061518 0.998717
Si Si2 0.164991 0.250000 0.922854
Si Si3 0.143014 0.941936 0.620711
Si Si4 0.146254 0.935855 0.377094
Si Si5 0.603568 0.357941 0.188660
Si Si6 0.598488 0.250000 0.853611
Si Si7 0.897566 0.866272 0.810065
O O1 0.128495 0.094704 0.894079
O O2 0.000000 0.059293 0.003960
O O3 0.140342 0.095181 0.099085
O O4 0.138689 0.000000 0.000000
O O5 0.151973 0.196680 0.850300
O O6 0.250000 0.250000 0.000000
O O7 0.094931 0.250000 0.019022
O O8 0.117152 0.931352 0.499267
O O9 0.248409 0.939104 0.623440
O O10 0.109431 0.896539 0.699776
O O11 0.115604 0.003111 0.656238
O O12 0.119705 0.885879 0.302534
O O13 0.500000 0.346941 0.178902
O O14 0.500000 0.250000 0.809665
O O15 0.641461 0.194052 0.815044
O O16 0.000000 0.859897 0.837121
#
# Coordination Sequence:
#
# PCOD9501556 Si02
#       7
#    16   8  16  16  16   8  16
#     4   9  17  29  49  80 112 140 176 227 290 349
#     4  12  26  40  59  85 116 159 204 238 291 363
#     4   9  19  38  58  83 120 153 200 244 291 361
#     4   9  20  37  59  83 115 163 193 239 305 354
#     4  11  22  38  59  85 120 156 197 251 304 357
#     4  10  20  38  57  79 111 150 186 233 289 334
#     4  10  19  32  56  81 108 146 189 239 289 342
#
# _framework density 20.208105
#
# number of rings (size 3 to 8) (size 9 to 14) (size 15 to 20)
#    0.000    2.167    1.667    2.750    2.333    2.667 
#    0.000    2.500    0.000    7.000    0.000    0.000 
#    0.000    0.000    0.000    0.000    0.000    0.000 
#
# Total GULP energy -267842.517464 kJ/mol
# GULP energy per Si atom -5580.052447 kJ/mol
# Density = 2.016211 g / cm^3
# Si number density = 20.208105 Si / 1000 Ang^3
#
#
#
# Elastic Constant Matrix: (Units=GPa)
#
#
# Indices 1 2 3 4 5 6 
#
# 1 60.0054 19.6690 5.9152 0.0000 0.0000 0.0000
# 2 19.6690 206.8862 86.3968 0.0000 0.0000 0.0000
# 3 5.9152 86.3968 97.1410 0.0000 0.0000 0.0000
# 4 0.0000 0.0000 0.0000 32.5407 0.0000 0.0000
# 5 0.0000 0.0000 0.0000 0.0000 22.1804 0.0000
# 6 0.0000 0.0000 0.0000 0.0000 0.0000 35.0637
#
#
#
# Elastic Compliance Matrix: (Units=1/GPa)
#
#
# Indices 1 2 3 4 5 6 
#
# 1 0.017227 -0.001909 0.000649 0.000000 0.000000 0.000000
# 2 -0.001909 0.007901 -0.006911 0.000000 0.000000 0.000000
# 3 0.000649 -0.006911 0.016401 0.000000 0.000000 0.000000
# 4 0.000000 0.000000 0.000000 0.030731 0.000000 0.000000
# 5 0.000000 0.000000 0.000000 0.000000 0.045085 0.000000
# 6 0.000000 0.000000 0.000000 0.000000 0.000000 0.028520
#
#
# Mechanical properties :
#
#
# Convention : Reuss Voigt Hill
#
# Bulk Modulus (GPa) = 39.70271 65.33275 52.51773
# Shear Modulus (GPa) = 29.30791 34.76040 32.03416
#
# Velocity S-wave (km/s) = 3.81242 4.15193 3.98579
# Velocity P-wave (km/s) = 6.25052 7.44210 6.87219
#
# Compressibility (1/GPa) = 0.02518720
#
# Stress axis : x y z
#
# Youngs Moduli (GPa) = 58.04896 126.56477 60.97035
#
# Poissons Ratio (x) = 0.24156 -0.03954
# Poissons Ratio (y) = 0.11079 0.42136
# Poissons Ratio (z) = -0.03764 0.87469
#
# Static dielectric constant tensor:
#      x y z
#    x 1.796340 0.000000 0.000000 
#    y 0.000000 1.712890 0.000000 
#    z 0.000000 0.000000 1.683820 
# 
# From -- ./inp_files/19731.got.cif
#   From: 2010.05.17/outbox.cif.g08.bks.cpg/sg67_10_cif.got.tgz:19731.got - 2010.06.03 18:28:57.
