data_PCOD9501228
_publ_section_title
;
Structure prediction by ZEFSAII (Michael W. Deem and Ramdas Pophale) SiO2 
 PCOD9501228
Probable space group: C M M A
;
_chemical_formula_sum "Si O2"
_cell_formula_units_Z 80
_cell_length_a 15.428499
_cell_length_b 15.488159
_cell_length_c 14.682874
_cell_angle_alpha 90.000000
_cell_angle_beta 90.000000
_cell_angle_gamma 90.000000
_cell_volume 3508.605558
_symmetry_space_group_name_H-M "C M M A"
_symmetry_group_IT_number 67
_symmetry_cell_setting 'orthorhombic'
loop_
_space_group_symop_operation_xyz
x,y,z
-x,1/2-y,z
x,-y,-z
-x,1/2+y,-z
-x,-y,-z
x,1/2+y,-z
-x,y,z
x,1/2-y,z
1/2+x,1/2+y,z
1/2-x,-y,z
1/2+x,1/2-y,-z
1/2-x,y,-z
1/2-x,1/2-y,-z
1/2+x,y,-z
1/2-x,1/2+y,z
1/2+x,-y,z
loop_
_atom_site_type_symbol
_atom_site_label
_atom_site_fract_x
_atom_site_fract_y
_atom_site_fract_z
Si Si1 0.403450 0.574452 0.431322
Si Si2 0.393782 0.150306 0.757603
Si Si3 0.178570 0.653305 0.428951
Si Si4 0.395803 0.647717 0.759262
Si Si5 0.894366 0.497859 0.103871
O O1 0.371333 0.500000 0.500000
O O2 0.500000 0.546042 0.405573
O O3 0.362646 0.606994 0.337259
O O4 0.402953 0.652766 0.502866
O O5 0.500000 0.152333 0.755135
O O6 0.365230 0.250000 0.765409
O O7 0.367390 0.087068 0.839497
O O8 0.206647 0.750000 0.406947
O O9 0.250000 0.619327 0.500000
O O10 0.150828 0.614789 0.332824
O O11 0.500000 0.640722 0.746084
O O12 0.378009 0.750000 0.774502
O O13 0.370513 0.584334 0.840952
O O14 0.000000 0.495862 0.102138
O O15 0.863853 0.500000 0.000000
#
# Coordination Sequence:
#
# PCOD9501228 Si02
#       5
#    16  16  16  16  16
#     4  10  19  31  49  71  97 131 169 209 256 314
#     4   9  17  28  43  66  95 125 159 202 252 304
#     4  10  20  32  47  71 102 134 169 210 258 314
#     4   9  17  30  49  73 103 140 180 221 267 322
#     4   9  17  29  46  70 100 132 169 216 266 314
#
# _framework density 22.801079999999999
#
# number of rings (size 3 to 8) (size 9 to 14) (size 15 to 20)
#    0.000    2.600    0.000    2.400    0.000    6.400 
#    0.000    4.000    0.000    0.000    0.000    2.800 
#    0.000    6.400    0.000    0.000    0.000    0.200 
#
# Total GULP energy -222917.344006 kJ/mol
# GULP energy per Si atom -5572.933600 kJ/mol
# Density = 2.274918 g / cm^3
# Si number density = 22.801080 Si / 1000 Ang^3
#
#
#
# Elastic Constant Matrix: (Units=GPa)
#
#
# Indices 1 2 3 4 5 6 
#
# 1 50.1820 27.1082 23.8346 0.0000 0.0000 0.0000
# 2 27.1082 170.8117 118.3750 0.0000 0.0000 0.0000
# 3 23.8346 118.3750 265.0647 0.0000 0.0000 0.0000
# 4 0.0000 0.0000 0.0000 29.8860 0.0000 0.0000
# 5 0.0000 0.0000 0.0000 0.0000 4.9790 0.0000
# 6 0.0000 0.0000 0.0000 0.0000 0.0000 5.9349
#
#
#
# Elastic Compliance Matrix: (Units=1/GPa)
#
#
# Indices 1 2 3 4 5 6 
#
# 1 0.021862 -0.003052 -0.000603 0.000000 0.000000 0.000000
# 2 -0.003052 0.008904 -0.003702 0.000000 0.000000 0.000000
# 3 -0.000603 -0.003702 0.005480 0.000000 0.000000 0.000000
# 4 0.000000 0.000000 0.000000 0.033460 0.000000 0.000000
# 5 0.000000 0.000000 0.000000 0.000000 0.200845 0.000000
# 6 0.000000 0.000000 0.000000 0.000000 0.000000 0.168496
#
#
# Mechanical properties :
#
#
# Convention : Reuss Voigt Hill
#
# Bulk Modulus (GPa) = 46.43991 91.63265 69.03628
# Shear Modulus (GPa) = 10.84738 29.27601 20.06170
#
# Velocity S-wave (km/s) = 2.18351 3.58715 2.96946
# Velocity P-wave (km/s) = 5.17384 7.57839 6.48847
#
# Compressibility (1/GPa) = 0.02153320
#
# Stress axis : x y z
#
# Youngs Moduli (GPa) = 45.74064 112.30417 182.47372
#
# Poissons Ratio (x) = 0.34272 0.11003
# Poissons Ratio (y) = 0.13959 0.67555
# Poissons Ratio (z) = 0.02758 0.41577
#
# Static dielectric constant tensor:
#      x y z
#    x 2.081500 0.000000 0.000000 
#    y 0.000000 2.049530 0.000000 
#    z 0.000000 0.000000 1.801790 
# 
# From -- ./inp_files/29078.got.cif
#   From: 2010.05.17/outbox.cif.g08.bks.cpg/sg67_15_cif.got.tgz:29078.got - 2010.06.03 18:28:57.
