data_PCOD9501605
_publ_section_title
;
Structure prediction by ZEFSAII (Michael W. Deem and Ramdas Pophale) SiO2 
 PCOD9501605
Probable space group: C M M A
;
_chemical_formula_sum "Si O2"
_cell_formula_units_Z 112
_cell_length_a 14.364004
_cell_length_b 30.526125
_cell_length_c 12.941951
_cell_angle_alpha 90.000000
_cell_angle_beta 90.000000
_cell_angle_gamma 90.000000
_cell_volume 5674.752787
_symmetry_space_group_name_H-M "C M M A"
_symmetry_group_IT_number 67
_symmetry_cell_setting 'orthorhombic'
loop_
_space_group_symop_operation_xyz
x,y,z
-x,1/2-y,z
x,-y,-z
-x,1/2+y,-z
-x,-y,-z
x,1/2+y,-z
-x,y,z
x,1/2-y,z
1/2+x,1/2+y,z
1/2-x,-y,z
1/2+x,1/2-y,-z
1/2-x,y,-z
1/2-x,1/2-y,-z
1/2+x,y,-z
1/2-x,1/2+y,z
1/2+x,-y,z
loop_
_atom_site_type_symbol
_atom_site_label
_atom_site_fract_x
_atom_site_fract_y
_atom_site_fract_z
Si Si1 0.401284 0.922503 0.817176
Si Si2 0.393571 0.622270 0.593863
Si Si3 0.236333 0.644425 0.119197
Si Si4 0.112705 0.198574 0.724481
Si Si5 0.392505 0.405541 0.767405
Si Si6 0.640786 0.510639 0.113860
Si Si7 0.386263 0.453663 0.555129
O O1 0.500000 0.908919 0.863485
O O2 0.394305 0.902109 0.704165
O O3 0.318769 0.901992 0.882752
O O4 0.398944 0.974413 0.808845
O O5 0.500000 0.629328 0.558811
O O6 0.355880 0.669949 0.624487
O O7 0.354251 0.586835 0.516185
O O8 0.169118 0.678307 0.179183
O O9 0.325646 0.633498 0.192346
O O10 0.250000 0.657519 0.000000
O O11 0.128988 0.250000 0.713708
O O12 0.000000 0.191857 0.736743
O O13 0.500000 0.392079 0.748629
O O14 0.387602 0.441001 0.858245
O O15 0.358591 0.435573 0.669410
O O16 0.750000 0.500000 0.116613
O O17 0.606844 0.500000 0.000000
O O18 0.357758 0.500000 0.500000
O O19 0.500000 0.455944 0.557402
#
# Coordination Sequence:
#
# PCOD9501605 Si02
#       7
#    16  16  16  16  16  16  16
#     4  10  19  33  53  73 100 144 193 237 280 329
#     4   8  15  30  55  82 107 138 175 226 286 331
#     4  11  22  36  55  80 116 148 180 232 293 349
#     4   9  19  38  65  92 111 136 184 239 289 344
#     4  11  23  36  54  80 112 154 198 235 278 345
#     4  11  21  33  48  68 103 147 194 240 275 310
#     4   9  17  32  55  82 114 154 196 234 276 330
#
# _framework density 19.736542
#
# number of rings (size 3 to 8) (size 9 to 14) (size 15 to 20)
#    0.000    2.143    1.429    3.429    0.000    6.000 
#    0.000    2.857    0.000    2.143    0.000    2.000 
#    0.000    0.000    0.000    0.000    0.000    0.000 
#
# Total GULP energy -311879.773378 kJ/mol
# GULP energy per Si atom -5569.281667 kJ/mol
# Density = 1.969162 g / cm^3
# Si number density = 19.736542 Si / 1000 Ang^3
#
#
#
# Elastic Constant Matrix: (Units=GPa)
#
#
# Indices 1 2 3 4 5 6 
#
# 1 82.3699 16.6103 19.9572 0.0000 0.0000 0.0000
# 2 16.6103 115.6479 39.3874 0.0000 0.0000 0.0000
# 3 19.9572 39.3874 90.9051 0.0000 0.0000 0.0000
# 4 0.0000 0.0000 0.0000 22.5075 0.0000 0.0000
# 5 0.0000 0.0000 0.0000 0.0000 12.5048 0.0000
# 6 0.0000 0.0000 0.0000 0.0000 0.0000 16.0972
#
#
#
# Elastic Compliance Matrix: (Units=1/GPa)
#
#
# Indices 1 2 3 4 5 6 
#
# 1 0.012929 -0.001044 -0.002386 0.000000 0.000000 0.000000
# 2 -0.001044 0.010228 -0.004202 0.000000 0.000000 0.000000
# 3 -0.002386 -0.004202 0.013345 0.000000 0.000000 0.000000
# 4 0.000000 0.000000 0.000000 0.044430 0.000000 0.000000
# 5 0.000000 0.000000 0.000000 0.000000 0.079969 0.000000
# 6 0.000000 0.000000 0.000000 0.000000 0.000000 0.062122
#
#
# Mechanical properties :
#
#
# Convention : Reuss Voigt Hill
#
# Bulk Modulus (GPa) = 47.08774 48.98141 48.03457
# Shear Modulus (GPa) = 20.37754 24.41978 22.39866
#
# Velocity S-wave (km/s) = 3.21671 3.52133 3.37246
# Velocity P-wave (km/s) = 6.14054 6.43463 6.28930
#
# Compressibility (1/GPa) = 0.02123695
#
# Stress axis : x y z
#
# Youngs Moduli (GPa) = 77.34531 97.76903 74.93389
#
# Poissons Ratio (x) = 0.10211 0.17879
# Poissons Ratio (y) = 0.08078 0.31490
# Poissons Ratio (z) = 0.18454 0.41086
#
# Static dielectric constant tensor:
#      x y z
#    x 1.786160 0.000000 0.000000 
#    y 0.000000 1.698030 0.000000 
#    z 0.000000 0.000000 1.782170 
# 
# From -- ./inp_files/18597.got.cif
#   From: 2010.05.17/outbox.cif.g08.bks.cpg/sg67_10_cif.got.tgz:18597.got - 2010.06.03 18:28:57.
