data_PCOD9501153
_publ_section_title
;
Structure prediction by ZEFSAII (Michael W. Deem and Ramdas Pophale) SiO2 
 PCOD9501153
Probable space group: C M M A
;
_chemical_formula_sum "Si O2"
_cell_formula_units_Z 112
_cell_length_a 14.542886
_cell_length_b 18.963448
_cell_length_c 19.729765
_cell_angle_alpha 90.000000
_cell_angle_beta 90.000000
_cell_angle_gamma 90.000000
_cell_volume 5441.138959
_symmetry_space_group_name_H-M "C M M A"
_symmetry_group_IT_number 67
_symmetry_cell_setting 'orthorhombic'
loop_
_space_group_symop_operation_xyz
x,y,z
-x,1/2-y,z
x,-y,-z
-x,1/2+y,-z
-x,-y,-z
x,1/2+y,-z
-x,y,z
x,1/2-y,z
1/2+x,1/2+y,z
1/2-x,-y,z
1/2+x,1/2-y,-z
1/2-x,y,-z
1/2-x,1/2-y,-z
1/2+x,y,-z
1/2-x,1/2+y,z
1/2+x,-y,z
loop_
_atom_site_type_symbol
_atom_site_label
_atom_site_fract_x
_atom_site_fract_y
_atom_site_fract_z
Si Si1 0.390676 0.606306 0.774513
Si Si2 0.142826 0.921242 0.078483
Si Si3 0.392484 0.671491 0.204087
Si Si4 0.887841 0.526223 0.426795
Si Si5 0.112697 0.459425 0.287381
Si Si6 0.136924 0.417393 0.071731
Si Si7 0.112315 0.827065 0.363197
O O1 0.500000 0.602940 0.766128
O O2 0.375303 0.621682 0.853224
O O3 0.356494 0.527517 0.755989
O O4 0.359715 0.658115 0.714853
O O5 0.252777 0.922056 0.072827
O O6 0.107208 0.001910 0.086813
O O7 0.108372 0.897159 0.004661
O O8 0.500000 0.677751 0.222255
O O9 0.351784 0.750000 0.205776
O O10 0.351965 0.612547 0.254382
O O11 0.390063 0.636928 0.129566
O O12 0.857453 0.500000 0.500000
O O13 0.860849 0.475088 0.364757
O O14 0.858408 0.605426 0.407071
O O15 0.000000 0.526804 0.427049
O O16 0.000000 0.457950 0.284764
O O17 0.144526 0.750000 0.385472
O O18 0.000000 0.826454 0.365460
#
# Coordination Sequence:
#
# PCOD9501153 Si02
#       7
#    16  16  16  16  16  16  16
#     4   9  15  25  44  66  86 113 150 185 221 269
#     4   9  17  30  47  65  87 115 147 192 233 270
#     4  10  19  31  46  63  88 122 156 191 228 266
#     4   8  13  22  38  59  85 118 151 178 209 261
#     4   8  14  25  40  60  85 112 147 185 219 258
#     4   9  18  31  45  64  89 115 150 189 231 274
#     4   8  14  24  37  57  87 117 143 179 225 263
#
# _framework density 20.583925000000001
#
# number of rings (size 3 to 8) (size 9 to 14) (size 15 to 20)
#    0.000    3.286    1.429    2.571    0.000    0.571 
#    0.000    5.000    0.000    6.000    0.000    0.000 
#    0.000    9.143    0.000    6.429    0.000    7.143 
#
# Total GULP energy -312130.580974 kJ/mol
# GULP energy per Si atom -5573.760375 kJ/mol
# Density = 2.053708 g / cm^3
# Si number density = 20.583925 Si / 1000 Ang^3
#
#
#
# Elastic Constant Matrix: (Units=GPa)
#
#
# Indices 1 2 3 4 5 6 
#
# 1 49.4785 2.5598 -10.4540 0.0000 0.0000 0.0000
# 2 2.5598 137.4629 78.0835 0.0000 0.0000 0.0000
# 3 -10.4540 78.0835 166.1519 0.0000 0.0000 0.0000
# 4 0.0000 0.0000 0.0000 17.1124 0.0000 0.0000
# 5 0.0000 0.0000 0.0000 0.0000 25.2382 0.0000
# 6 0.0000 0.0000 0.0000 0.0000 0.0000 8.5122
#
#
#
# Elastic Compliance Matrix: (Units=1/GPa)
#
#
# Indices 1 2 3 4 5 6 
#
# 1 0.020718 -0.001536 0.002026 0.000000 0.000000 0.000000
# 2 -0.001536 0.010038 -0.004814 0.000000 0.000000 0.000000
# 3 0.002026 -0.004814 0.008408 0.000000 0.000000 0.000000
# 4 0.000000 0.000000 0.000000 0.058437 0.000000 0.000000
# 5 0.000000 0.000000 0.000000 0.000000 0.039622 0.000000
# 6 0.000000 0.000000 0.000000 0.000000 0.000000 0.117478
#
#
# Mechanical properties :
#
#
# Convention : Reuss Voigt Hill
#
# Bulk Modulus (GPa) = 32.77090 54.83021 43.80056
# Shear Modulus (GPa) = 18.27995 29.03283 23.65639
#
# Velocity S-wave (km/s) = 2.98328 3.75969 3.39376
# Velocity P-wave (km/s) = 5.27464 6.74850 6.05657
#
# Compressibility (1/GPa) = 0.03051488
#
# Stress axis : x y z
#
# Youngs Moduli (GPa) = 48.26658 99.62357 118.92920
#
# Poissons Ratio (x) = 0.15306 -0.24090
# Poissons Ratio (y) = 0.07416 0.57252
# Poissons Ratio (z) = -0.09777 0.47958
#
# Static dielectric constant tensor:
#      x y z
#    x 1.794170 0.000000 0.000000 
#    y 0.000000 1.730550 0.000000 
#    z 0.000000 0.000000 1.745130 
# 
# From -- ./inp_files/39060.got.cif
#   From: 2010.05.17/outbox.cif.g08.bks.cpg/sg67_20_cif.got.tgz:39060.got - 2010.06.03 18:28:57.
