data_PCOD9501067
_publ_section_title
;
Structure prediction by ZEFSAII (Michael W. Deem and Ramdas Pophale) SiO2 
 PCOD9501067
Probable space group: C M M A
;
_chemical_formula_sum "Si O2"
_cell_formula_units_Z 112
_cell_length_a 15.326294
_cell_length_b 28.528512
_cell_length_c 14.334277
_cell_angle_alpha 90.000000
_cell_angle_beta 90.000000
_cell_angle_gamma 90.000000
_cell_volume 6267.467132
_symmetry_space_group_name_H-M "C M M A"
_symmetry_group_IT_number 67
_symmetry_cell_setting 'orthorhombic'
loop_
_space_group_symop_operation_xyz
x,y,z
-x,1/2-y,z
x,-y,-z
-x,1/2+y,-z
-x,-y,-z
x,1/2+y,-z
-x,y,z
x,1/2-y,z
1/2+x,1/2+y,z
1/2-x,-y,z
1/2+x,1/2-y,-z
1/2-x,y,-z
1/2-x,1/2-y,-z
1/2+x,y,-z
1/2-x,1/2+y,z
1/2+x,-y,z
loop_
_atom_site_type_symbol
_atom_site_label
_atom_site_fract_x
_atom_site_fract_y
_atom_site_fract_z
Si Si1 0.399323 0.196029 0.458361
Si Si2 0.213707 0.696803 0.272902
Si Si3 0.651471 0.198431 0.963504
Si Si4 0.899681 0.382109 0.166323
Si Si5 0.602056 0.834052 0.341101
Si Si6 0.354143 0.447062 0.995632
Si Si7 0.902581 0.361367 0.868110
O O1 0.500000 0.190650 0.428086
O O2 0.389201 0.250000 0.492531
O O3 0.336296 0.190226 0.371319
O O4 0.384129 0.163690 0.548290
O O5 0.195225 0.750000 0.236898
O O6 0.316208 0.694517 0.299414
O O7 0.170141 0.657847 0.204500
O O8 0.621833 0.250000 0.935383
O O9 0.598273 0.176719 0.048724
O O10 0.750000 0.200897 0.000000
O O11 0.649802 0.161265 0.880792
O O12 0.890392 0.380846 0.277555
O O13 0.876383 0.426771 0.106101
O O14 0.000000 0.371770 0.146021
O O15 0.500000 0.817237 0.329029
O O16 0.388437 0.500000 0.000000
O O17 0.250000 0.448012 0.000000
O O18 0.383821 0.410379 0.076508
O O19 0.000000 0.363404 0.826314
#
# Coordination Sequence:
#
# PCOD9501067 Si02
#       7
#    16  16  16  16  16  16  16
#     4   9  18  32  49  71  99 133 176 218 255 300
#     4  11  21  33  50  72 103 141 178 217 257 299
#     4  10  19  30  44  63  92 130 167 203 243 290
#     4  10  20  32  47  69  97 127 162 205 249 297
#     4  10  20  33  49  70  99 136 177 220 261 300
#     4  10  20  36  58  79 100 128 164 211 264 314
#     4  11  22  34  50  73 102 135 170 208 252 305
#
# _framework density 17.870058
#
# number of rings (size 3 to 8) (size 9 to 14) (size 15 to 20)
#    0.000    1.857    0.000    6.857    0.000    8.000 
#    0.000    2.857    0.000    0.000    0.000    1.000 
#    0.000    9.143    0.000    0.857    0.000    1.286 
#
# Total GULP energy -311876.211286 kJ/mol
# GULP energy per Si atom -5569.218059 kJ/mol
# Density = 1.782939 g / cm^3
# Si number density = 17.870058 Si / 1000 Ang^3
#
#
#
# Elastic Constant Matrix: (Units=GPa)
#
#
# Indices 1 2 3 4 5 6 
#
# 1 97.1501 21.4240 30.6063 0.0000 0.0000 0.0000
# 2 21.4240 103.5370 36.8216 0.0000 0.0000 0.0000
# 3 30.6063 36.8216 93.7630 0.0000 0.0000 0.0000
# 4 0.0000 0.0000 0.0000 13.5971 0.0000 0.0000
# 5 0.0000 0.0000 0.0000 0.0000 29.8707 0.0000
# 6 0.0000 0.0000 0.0000 0.0000 0.0000 38.2280
#
#
#
# Elastic Compliance Matrix: (Units=1/GPa)
#
#
# Indices 1 2 3 4 5 6 
#
# 1 0.011605 -0.001225 -0.003307 0.000000 0.000000 0.000000
# 2 -0.001225 0.011356 -0.004059 0.000000 0.000000 0.000000
# 3 -0.003307 -0.004059 0.013339 0.000000 0.000000 0.000000
# 4 0.000000 0.000000 0.000000 0.073545 0.000000 0.000000
# 5 0.000000 0.000000 0.000000 0.000000 0.033478 0.000000
# 6 0.000000 0.000000 0.000000 0.000000 0.000000 0.026159
#
#
# Mechanical properties :
#
#
# Convention : Reuss Voigt Hill
#
# Bulk Modulus (GPa) = 52.31162 52.46153 52.38658
# Shear Modulus (GPa) = 25.90169 30.04569 27.97369
#
# Velocity S-wave (km/s) = 3.81129 4.10487 3.96080
# Velocity P-wave (km/s) = 6.97888 7.20330 7.09198
#
# Compressibility (1/GPa) = 0.01911621
#
# Stress axis : x y z
#
# Youngs Moduli (GPa) = 86.16658 88.06208 74.96873
#
# Poissons Ratio (x) = 0.10790 0.24793
# Poissons Ratio (y) = 0.10558 0.30434
# Poissons Ratio (z) = 0.28496 0.35749
#
# Static dielectric constant tensor:
#      x y z
#    x 1.679930 0.000000 0.000000 
#    y 0.000000 1.628990 0.000000 
#    z 0.000000 0.000000 1.641560 
# 
# From -- ./inp_files/27853.got.cif
#   From: 2010.05.17/outbox.cif.g08.bks.cpg/sg67_14_cif.got.tgz:27853.got - 2010.06.03 18:28:57.
