data_PCOD9501453
_publ_section_title
;
Structure prediction by ZEFSAII (Michael W. Deem and Ramdas Pophale) SiO2 
 PCOD9501453
Probable space group: C M M A
;
_chemical_formula_sum "Si O2"
_cell_formula_units_Z 84
_cell_length_a 15.084999
_cell_length_b 23.703485
_cell_length_c 12.310441
_cell_angle_alpha 90.000000
_cell_angle_beta 90.000000
_cell_angle_gamma 90.000000
_cell_volume 4401.808042
_symmetry_space_group_name_H-M "C M M A"
_symmetry_group_IT_number 67
_symmetry_cell_setting 'orthorhombic'
loop_
_space_group_symop_operation_xyz
x,y,z
-x,1/2-y,z
x,-y,-z
-x,1/2+y,-z
-x,-y,-z
x,1/2+y,-z
-x,y,z
x,1/2-y,z
1/2+x,1/2+y,z
1/2-x,-y,z
1/2+x,1/2-y,-z
1/2-x,y,-z
1/2-x,1/2-y,-z
1/2+x,y,-z
1/2-x,1/2+y,z
1/2+x,-y,z
loop_
_atom_site_type_symbol
_atom_site_label
_atom_site_fract_x
_atom_site_fract_y
_atom_site_fract_z
Si Si1 0.604660 0.685130 0.230273
Si Si2 0.097370 0.971446 0.840923
Si Si3 0.750000 0.000000 0.500000
Si Si4 0.215840 0.910282 0.675227
Si Si5 0.098313 0.101807 0.775418
Si Si6 0.855469 0.619920 0.992365
O O1 0.500000 0.682365 0.251829
O O2 0.633630 0.750000 0.234521
O O3 0.657890 0.646272 0.315608
O O4 0.620064 0.660883 0.107807
O O5 0.180079 0.944585 0.778853
O O6 0.104931 0.940949 0.956910
O O7 0.000000 0.953002 0.797489
O O8 0.101012 0.037237 0.817804
O O9 0.799057 0.044898 0.421498
O O10 0.318794 0.894344 0.693719
O O11 0.000000 0.112741 0.730094
O O12 0.111853 0.136378 0.887548
O O13 0.750000 0.615438 0.000000
#
# Coordination Sequence:
#
# PCOD9501453 Si02
#       6
#    16  16   4  16  16  16
#     4  10  22  42  65  88 118 159 206 247 286 347
#     4  10  19  32  51  78 117 160 196 234 286 355
#     4  12  24  40  68  90 124 146 192 254 326 374
#     4  11  21  40  57  87 118 153 195 251 310 355
#     4  11  20  32  50  80 123 162 196 232 288 360
#     4  11  19  30  53  83 118 158 196 235 285 340
#
# _framework density 19.083067
#
# number of rings (size 3 to 8) (size 9 to 14) (size 15 to 20)
#    0.000    1.333    5.714    4.000    0.000    2.667 
#    0.000    4.762    0.000    0.571    0.000    0.000 
#    0.000    0.000    0.000    0.000    0.000    0.000 
#
# Total GULP energy -233844.210174 kJ/mol
# GULP energy per Si atom -5567.719290 kJ/mol
# Density = 1.903963 g / cm^3
# Si number density = 19.083067 Si / 1000 Ang^3
#
#
#
# Elastic Constant Matrix: (Units=GPa)
#
#
# Indices 1 2 3 4 5 6 
#
# 1 135.5184 24.5824 13.7583 0.0000 0.0000 0.0000
# 2 24.5824 114.2569 24.0771 0.0000 0.0000 0.0000
# 3 13.7583 24.0771 46.0514 0.0000 0.0000 0.0000
# 4 0.0000 0.0000 0.0000 21.5183 0.0000 0.0000
# 5 0.0000 0.0000 0.0000 0.0000 -8.0859 0.0000
# 6 0.0000 0.0000 0.0000 0.0000 0.0000 40.4751
#
#
#
# Elastic Compliance Matrix: (Units=1/GPa)
#
#
# Indices 1 2 3 4 5 6 
#
# 1 0.007786 -0.001332 -0.001630 0.000000 0.000000 0.000000
# 2 -0.001332 0.010064 -0.004864 0.000000 0.000000 0.000000
# 3 -0.001630 -0.004864 0.024745 0.000000 0.000000 0.000000
# 4 0.000000 0.000000 0.000000 0.046472 0.000000 0.000000
# 5 0.000000 0.000000 0.000000 0.000000 -0.123672 0.000000
# 6 0.000000 0.000000 0.000000 0.000000 0.000000 0.024707
#
#
# Mechanical properties :
#
#
# Convention : Reuss Voigt Hill
#
# Bulk Modulus (GPa) = 37.11432 46.74026 41.92729
# Shear Modulus (GPa) = 339.38130 26.34210 182.86170
#
# Velocity S-wave (km/s) = 13.35029 3.71939 9.79960
# Velocity P-wave (km/s) = 16.03532 6.55678 12.24996
#
# Compressibility (1/GPa) = 0.02694378
#
# Stress axis : x y z
#
# Youngs Moduli (GPa) = 128.43377 99.36759 40.41266
#
# Poissons Ratio (x) = 0.13233 0.06587
# Poissons Ratio (y) = 0.17104 0.19656
# Poissons Ratio (z) = 0.20934 0.48330
#
# Static dielectric constant tensor:
#      x y z
#    x 1.695940 0.000000 0.000000 
#    y 0.000000 1.690860 0.000000 
#    z 0.000000 0.000000 1.722640 
# 
# From -- ./inp_files/18104.got.cif
#   From: 2010.05.17/outbox.cif.g08.bks.cpg/sg67_10_cif.got.tgz:18104.got - 2010.06.03 18:28:57.
