data_PCOD9501604
_publ_section_title
;
Structure prediction by ZEFSAII (Michael W. Deem and Ramdas Pophale) SiO2 
 PCOD9501604
Probable space group: C M M A
;
_chemical_formula_sum "Si O2"
_cell_formula_units_Z 72
_cell_length_a 16.578502
_cell_length_b 8.177403
_cell_length_c 26.331988
_cell_angle_alpha 90.000000
_cell_angle_beta 90.000000
_cell_angle_gamma 90.000000
_cell_volume 3569.803703
_symmetry_space_group_name_H-M "C M M A"
_symmetry_group_IT_number 67
_symmetry_cell_setting 'orthorhombic'
loop_
_space_group_symop_operation_xyz
x,y,z
-x,1/2-y,z
x,-y,-z
-x,1/2+y,-z
-x,-y,-z
x,1/2+y,-z
-x,y,z
x,1/2-y,z
1/2+x,1/2+y,z
1/2-x,-y,z
1/2+x,1/2-y,-z
1/2-x,y,-z
1/2-x,1/2-y,-z
1/2+x,y,-z
1/2-x,1/2+y,z
1/2+x,-y,z
loop_
_atom_site_type_symbol
_atom_site_label
_atom_site_fract_x
_atom_site_fract_y
_atom_site_fract_z
Si Si1 0.343904 0.444043 0.378668
Si Si2 0.404687 0.561950 0.160053
Si Si3 0.500000 0.448224 0.441650
Si Si4 0.842364 0.053397 0.266796
Si Si5 0.842672 0.054397 0.053600
O O1 0.340766 0.250000 0.384038
O O2 0.250000 0.500000 0.386554
O O3 0.416289 0.506422 0.414932
O O4 0.370304 0.486426 0.321033
O O5 0.500000 0.569387 0.157639
O O6 0.372526 0.750000 0.160961
O O7 0.381496 0.489818 0.214612
O O8 0.375845 0.486774 0.106966
O O9 0.500000 0.250000 0.438169
O O10 0.500000 0.500000 0.500000
O O11 0.850582 0.250000 0.268939
O O12 0.750000 0.000000 0.263367
O O13 0.848831 0.250000 0.054515
O O14 0.750000 0.000000 0.052345
O O15 0.880800 0.000000 0.000000
#
# Coordination Sequence:
#
# PCOD9501604 Si02
#       5
#    16  16   8  16  16
#     4  10  21  39  60  87 120 155 193 238 288 337
#     4   9  19  33  49  74 105 136 172 216 268 322
#     4  10  24  42  62  88 122 158 195 238 285 334
#     4  10  19  33  56  81 107 142 182 225 271 328
#     4  10  19  33  53  72  96 130 170 218 264 317
#
# _framework density 20.169177000000001
#
# number of rings (size 3 to 8) (size 9 to 14) (size 15 to 20)
#    0.000    2.222    0.000    4.667    1.556    2.667 
#    0.000    5.556    0.000    7.333    0.000    0.000 
#    0.000    0.000    0.000    0.000    0.000    0.000 
#
# Total GULP energy -200554.835473 kJ/mol
# GULP energy per Si atom -5570.967652 kJ/mol
# Density = 2.012327 g / cm^3
# Si number density = 20.169177 Si / 1000 Ang^3
#
#
#
# Elastic Constant Matrix: (Units=GPa)
#
#
# Indices 1 2 3 4 5 6 
#
# 1 74.8873 10.6568 97.6137 0.0000 0.0000 0.0000
# 2 10.6568 30.1938 11.3164 0.0000 0.0000 0.0000
# 3 97.6137 11.3164 215.1597 0.0000 0.0000 0.0000
# 4 0.0000 0.0000 0.0000 25.2323 0.0000 0.0000
# 5 0.0000 0.0000 0.0000 0.0000 810.7083 0.0000
# 6 0.0000 0.0000 0.0000 0.0000 0.0000 17.0827
#
#
#
# Elastic Compliance Matrix: (Units=1/GPa)
#
#
# Indices 1 2 3 4 5 6 
#
# 1 0.033816 -0.006310 -0.015010 0.000000 0.000000 0.000000
# 2 -0.006310 0.034963 0.001024 0.000000 0.000000 0.000000
# 3 -0.015010 0.001024 0.011404 0.000000 0.000000 0.000000
# 4 0.000000 0.000000 0.000000 0.039632 0.000000 0.000000
# 5 0.000000 0.000000 0.000000 0.000000 0.001233 0.000000
# 6 0.000000 0.000000 0.000000 0.000000 0.000000 0.058539
#
#
# Mechanical properties :
#
#
# Convention : Reuss Voigt Hill
#
# Bulk Modulus (GPa) = 25.25842 62.15718 43.70780
# Shear Modulus (GPa) = 21.42469 183.98159 102.70314
#
# Velocity S-wave (km/s) = 3.26275 9.56123 7.14363
# Velocity P-wave (km/s) = 5.17151 12.36020 9.47415
#
# Compressibility (1/GPa) = 0.03959076
#
# Stress axis : x y z
#
# Youngs Moduli (GPa) = 29.57142 28.60187 87.69162
#
# Poissons Ratio (x) = 0.18047 1.31625
# Poissons Ratio (y) = 0.18659 -0.08977
# Poissons Ratio (z) = 0.44387 -0.02928
#
# Static dielectric constant tensor:
#      x y z
#    x 1.694470 0.000000 0.000000 
#    y 0.000000 1.740440 0.000000 
#    z 0.000000 0.000000 1.779540 
# 
# From -- ./inp_files/44409.got.cif
#   From: 2010.05.17/outbox.cif.g08.bks.cpg/sg67_23_cif.got.tgz:44409.got - 2010.06.03 18:28:57.
