data_PCOD9501818
_publ_section_title
;
Structure prediction by ZEFSAII (Michael W. Deem and Ramdas Pophale) SiO2 
 PCOD9501818
Probable space group: C M M A
;
_chemical_formula_sum "Si O2"
_cell_formula_units_Z 80
_cell_length_a 18.581958
_cell_length_b 19.837643
_cell_length_c 10.830014
_cell_angle_alpha 90.000000
_cell_angle_beta 90.000000
_cell_angle_gamma 90.000000
_cell_volume 3992.184118
_symmetry_space_group_name_H-M "C M M A"
_symmetry_group_IT_number 67
_symmetry_cell_setting 'orthorhombic'
loop_
_space_group_symop_operation_xyz
x,y,z
-x,1/2-y,z
x,-y,-z
-x,1/2+y,-z
-x,-y,-z
x,1/2+y,-z
-x,y,z
x,1/2-y,z
1/2+x,1/2+y,z
1/2-x,-y,z
1/2+x,1/2-y,-z
1/2-x,y,-z
1/2-x,1/2-y,-z
1/2+x,y,-z
1/2-x,1/2+y,z
1/2+x,-y,z
loop_
_atom_site_type_symbol
_atom_site_label
_atom_site_fract_x
_atom_site_fract_y
_atom_site_fract_z
Si Si1 0.915421 0.879803 0.958918
Si Si2 0.416128 0.750000 0.761504
Si Si3 0.418242 0.537754 0.281668
Si Si4 0.366476 0.891268 0.759391
Si Si5 0.834884 0.250000 0.024353
Si Si6 0.271373 0.079317 0.632865
O O1 0.910984 0.941110 0.862672
O O2 0.000000 0.860532 0.966521
O O3 0.887894 0.895565 0.096512
O O4 0.866585 0.817310 0.913635
O O5 0.500000 0.750000 0.789289
O O6 0.396759 0.821887 0.703106
O O7 0.371840 0.750000 0.889150
O O8 0.500000 0.551618 0.319549
O O9 0.400001 0.458913 0.298614
O O10 0.356290 0.580477 0.347622
O O11 0.280704 0.890777 0.737412
O O12 0.750000 0.250000 0.000000
O O13 0.250000 0.107835 0.500000
O O14 0.250000 0.000000 0.633233
#
# Coordination Sequence:
#
# PCOD9501818 Si02
#       6
#    16   8  16  16   8  16
#     4  10  20  33  52  81 115 145 178 224 273 326
#     4  10  20  34  53  78 110 144 183 226 274 326
#     4  10  20  34  56  83 114 145 180 224 279 332
#     4  10  19  34  57  80 111 145 181 225 276 327
#     4  10  20  30  48  74 113 152 186 209 258 331
#     4   9  20  38  55  77 107 143 186 234 275 321
#
# _framework density 20.039155000000001
#
# number of rings (size 3 to 8) (size 9 to 14) (size 15 to 20)
#    0.000    2.200    0.000    4.500    5.600    1.600 
#    0.000   13.500    0.000    0.000    0.000    0.000 
#    0.000    0.000    0.000    0.000    0.000    0.000 
#
# Total GULP energy -222954.520937 kJ/mol
# GULP energy per Si atom -5573.863023 kJ/mol
# Density = 1.999355 g / cm^3
# Si number density = 20.039155 Si / 1000 Ang^3
#
#
#
# Elastic Constant Matrix: (Units=GPa)
#
#
# Indices 1 2 3 4 5 6 
#
# 1 204.6612 56.1394 44.4499 0.0000 0.0000 0.0000
# 2 56.1394 89.0793 7.1500 0.0000 0.0000 0.0000
# 3 44.4499 7.1500 35.8952 0.0000 0.0000 0.0000
# 4 0.0000 0.0000 0.0000 2.8231 0.0000 0.0000
# 5 0.0000 0.0000 0.0000 0.0000 21.0061 0.0000
# 6 0.0000 0.0000 0.0000 0.0000 0.0000 23.3561
#
#
#
# Elastic Compliance Matrix: (Units=1/GPa)
#
#
# Indices 1 2 3 4 5 6 
#
# 1 0.008057 -0.004347 -0.009112 0.000000 0.000000 0.000000
# 2 -0.004347 0.013753 0.002643 0.000000 0.000000 0.000000
# 3 -0.009112 0.002643 0.038616 0.000000 0.000000 0.000000
# 4 0.000000 0.000000 0.000000 0.354225 0.000000 0.000000
# 5 0.000000 0.000000 0.000000 0.000000 0.047605 0.000000
# 6 0.000000 0.000000 0.000000 0.000000 0.000000 0.042815
#
#
# Mechanical properties :
#
#
# Convention : Reuss Voigt Hill
#
# Bulk Modulus (GPa) = 25.77624 60.56826 43.17225
# Shear Modulus (GPa) = 9.26552 24.23014 16.74783
#
# Velocity S-wave (km/s) = 2.15261 3.48104 2.89408
# Velocity P-wave (km/s) = 4.36683 6.81524 5.72349
#
# Compressibility (1/GPa) = 0.03879541
#
# Stress axis : x y z
#
# Youngs Moduli (GPa) = 124.10974 72.71099 25.89607
#
# Poissons Ratio (x) = 0.31604 0.23596
# Poissons Ratio (y) = 0.53945 -0.06844
# Poissons Ratio (z) = 1.13087 -0.19217
#
# Static dielectric constant tensor:
#      x y z
#    x 1.716990 0.000000 0.000000 
#    y 0.000000 1.795330 0.000000 
#    z 0.000000 0.000000 1.721530 
# 
# From -- ./inp_files/19380.got.cif
#   From: 2010.05.17/outbox.cif.g08.bks.cpg/sg67_10_cif.got.tgz:19380.got - 2010.06.03 18:28:57.
