data_PCOD9501611
_publ_section_title
;
Structure prediction by ZEFSAII (Michael W. Deem and Ramdas Pophale) SiO2 
 PCOD9501611
Probable space group: C M M A
;
_chemical_formula_sum "Si O2"
_cell_formula_units_Z 104
_cell_length_a 26.791836
_cell_length_b 8.668675
_cell_length_c 22.809786
_cell_angle_alpha 90.000000
_cell_angle_beta 90.000000
_cell_angle_gamma 90.000000
_cell_volume 5297.566388
_symmetry_space_group_name_H-M "C M M A"
_symmetry_group_IT_number 67
_symmetry_cell_setting 'orthorhombic'
loop_
_space_group_symop_operation_xyz
x,y,z
-x,1/2-y,z
x,-y,-z
-x,1/2+y,-z
-x,-y,-z
x,1/2+y,-z
-x,y,z
x,1/2-y,z
1/2+x,1/2+y,z
1/2-x,-y,z
1/2+x,1/2-y,-z
1/2-x,y,-z
1/2-x,1/2-y,-z
1/2+x,y,-z
1/2-x,1/2+y,z
1/2+x,-y,z
loop_
_atom_site_type_symbol
_atom_site_label
_atom_site_fract_x
_atom_site_fract_y
_atom_site_fract_z
Si Si1 0.555354 0.563983 0.811788
Si Si2 0.196641 0.934995 0.645850
Si Si3 0.658343 0.064568 0.771746
Si Si4 0.303186 0.564968 0.100913
Si Si5 0.407122 0.434186 0.059987
Si Si6 0.391230 0.435765 0.433780
Si Si7 0.500000 0.564558 0.566003
O O1 0.500000 0.514034 0.793213
O O2 0.557580 0.750000 0.808072
O O3 0.601868 0.496304 0.776531
O O4 0.564343 0.521850 0.880222
O O5 0.197729 0.750000 0.644655
O O6 0.184789 0.987856 0.712388
O O7 0.250000 0.000000 0.627222
O O8 0.152751 0.995524 0.604676
O O9 0.656897 0.250000 0.771593
O O10 0.687058 0.017212 0.831058
O O11 0.303257 0.750000 0.096986
O O12 0.250000 0.500000 0.081278
O O13 0.350946 0.498642 0.067223
O O14 0.405717 0.250000 0.056953
O O15 0.429091 0.500000 0.000000
O O16 0.388140 0.500000 0.500000
O O17 0.387894 0.250000 0.435136
O O18 0.446196 0.480808 0.408535
O O19 0.500000 0.750000 0.563330
O O20 0.500000 0.500000 0.500000
#
# Coordination Sequence:
#
# PCOD9501611 Si02
#       7
#    16  16  16  16  16  16   8
#     4   9  19  36  57  80 107 140 178 222 271 324
#     4  11  23  39  58  84 116 151 191 235 283 337
#     4   9  20  37  56  79 108 140 179 224 273 328
#     4  10  19  33  53  76 101 134 174 218 269 322
#     4  10  20  34  51  74 105 138 175 218 265 320
#     4  10  20  37  60  87 118 154 193 236 283 335
#     4   8  16  32  56  82 110 144 184 226 271 322
#
# _framework density 19.631654999999999
#
# number of rings (size 3 to 8) (size 9 to 14) (size 15 to 20)
#    0.000    2.308    0.000    2.308    0.000    4.308 
#    1.385    3.077    0.000    0.000    0.000    0.000 
#    0.000    0.000    0.000    0.000    0.000    0.000 
#
# Total GULP energy -290294.930700 kJ/mol
# GULP energy per Si atom -5582.594821 kJ/mol
# Density = 1.958697 g / cm^3
# Si number density = 19.631655 Si / 1000 Ang^3
#
#
#
# Elastic Constant Matrix: (Units=GPa)
#
#
# Indices 1 2 3 4 5 6 
#
# 1 131.9134 20.3925 22.5438 0.0000 0.0000 0.0000
# 2 20.3925 33.9427 14.5010 0.0000 0.0000 0.0000
# 3 22.5438 14.5010 52.6404 0.0000 0.0000 0.0000
# 4 0.0000 0.0000 0.0000 25.0509 0.0000 0.0000
# 5 0.0000 0.0000 0.0000 0.0000 -1.6246 0.0000
# 6 0.0000 0.0000 0.0000 0.0000 0.0000 26.8955
#
#
#
# Elastic Compliance Matrix: (Units=1/GPa)
#
#
# Indices 1 2 3 4 5 6 
#
# 1 0.008655 -0.004099 -0.002577 0.000000 0.000000 0.000000
# 2 -0.004099 0.035332 -0.007978 0.000000 0.000000 0.000000
# 3 -0.002577 -0.007978 0.022298 0.000000 0.000000 0.000000
# 4 0.000000 0.000000 0.000000 0.039919 0.000000 0.000000
# 5 0.000000 0.000000 0.000000 0.000000 -0.615543 0.000000
# 6 0.000000 0.000000 0.000000 0.000000 0.000000 0.037181
#
#
# Mechanical properties :
#
#
# Convention : Reuss Voigt Hill
#
# Bulk Modulus (GPa) = 27.04345 37.04124 32.04234
# Shear Modulus (GPa) = -11.61372 20.80166 4.59397
#
# Velocity S-wave (km/s) = -2.43488 3.25868 1.53139
# Velocity P-wave (km/s) = 2.42909 5.75045 4.41408
#
# Compressibility (1/GPa) = 0.03697754
#
# Stress axis : x y z
#
# Youngs Moduli (GPa) = 115.54263 28.30294 44.84647
#
# Poissons Ratio (x) = 0.11600 0.11559
# Poissons Ratio (y) = 0.47356 0.35777
# Poissons Ratio (z) = 0.29781 0.22579
#
# Static dielectric constant tensor:
#      x y z
#    x 1.682610 0.000000 0.000000 
#    y 0.000000 1.661190 0.000000 
#    z 0.000000 0.000000 1.691960 
# 
# From -- ./inp_files/39959.got.cif
#   From: 2010.05.17/outbox.cif.g08.bks.cpg/sg67_20_cif.got.tgz:39959.got - 2010.06.03 18:28:57.
