data_PCOD9501976
_publ_section_title
;
Structure prediction by ZEFSAII (Michael W. Deem and Ramdas Pophale) SiO2 
 PCOD9501976
Probable space group: C M M A
;
_chemical_formula_sum "Si O2"
_cell_formula_units_Z 128
_cell_length_a 21.219124
_cell_length_b 15.351096
_cell_length_c 19.756824
_cell_angle_alpha 90.000000
_cell_angle_beta 90.000000
_cell_angle_gamma 90.000000
_cell_volume 6435.524817
_symmetry_space_group_name_H-M "C M M A"
_symmetry_group_IT_number 67
_symmetry_cell_setting 'orthorhombic'
loop_
_space_group_symop_operation_xyz
x,y,z
-x,1/2-y,z
x,-y,-z
-x,1/2+y,-z
-x,-y,-z
x,1/2+y,-z
-x,y,z
x,1/2-y,z
1/2+x,1/2+y,z
1/2-x,-y,z
1/2+x,1/2-y,-z
1/2-x,y,-z
1/2-x,1/2-y,-z
1/2+x,y,-z
1/2-x,1/2+y,z
1/2+x,-y,z
loop_
_atom_site_type_symbol
_atom_site_label
_atom_site_fract_x
_atom_site_fract_y
_atom_site_fract_z
Si Si1 0.569009 0.856394 0.521722
Si Si2 0.102987 0.148848 0.674886
Si Si3 0.303672 0.574715 0.176396
Si Si4 0.817933 0.602038 0.977332
Si Si5 0.570759 0.526663 0.798079
Si Si6 0.750956 0.105125 0.690399
Si Si7 0.306143 0.854192 0.451746
Si Si8 0.928750 0.347600 0.926054
O O1 0.500000 0.886179 0.499796
O O2 0.569239 0.750000 0.519125
O O3 0.581129 0.878472 0.600143
O O4 0.626713 0.888861 0.476464
O O5 0.086029 0.250000 0.684490
O O6 0.074731 0.090073 0.733770
O O7 0.178696 0.138972 0.678274
O O8 0.250000 0.500000 0.163020
O O9 0.319915 0.612368 0.103209
O O10 0.368987 0.535839 0.204945
O O11 0.274425 0.633277 0.236022
O O12 0.819638 0.500000 0.000000
O O13 0.750000 0.636946 0.000000
O O14 0.876513 0.642643 0.016597
O O15 0.500000 0.488060 0.801124
O O16 0.580578 0.583429 0.866198
O O17 0.709209 0.130056 0.626215
O O18 0.750000 0.000000 0.693033
O O19 0.307483 0.750000 0.461875
O O20 0.250000 0.888383 0.500000
O O21 0.924749 0.250000 0.897092
O O22 0.000000 0.359684 0.952955
#
# Coordination Sequence:
#
# PCOD9501976 Si02
#       8
#    16  16  16  16  16  16  16  16
#     4   9  18  33  55  82 111 141 177 227 282 332
#     4  11  20  34  57  85 114 147 183 227 284 341
#     4  11  20  38  56  80 114 150 189 228 277 336
#     4  11  20  35  61  83 109 147 190 234 275 332
#     4  11  21  35  56  83 115 150 184 228 286 344
#     4  11  22  36  57  80 115 150 187 229 280 333
#     4  10  19  36  59  82 106 140 193 237 271 328
#     4  10  22  38  56  83 116 146 184 236 288 338
#
# _framework density 19.889597999999999
#
# number of rings (size 3 to 8) (size 9 to 14) (size 15 to 20)
#    0.000    1.500    6.250    1.125    0.000    2.500 
#    0.000    1.875    0.000    0.750    0.000    1.750 
#    0.000    0.000    0.000    0.000    0.000    0.000 
#
# Total GULP energy -357372.420044 kJ/mol
# GULP energy per Si atom -5583.944063 kJ/mol
# Density = 1.984433 g / cm^3
# Si number density = 19.889598 Si / 1000 Ang^3
#
#
#
# Elastic Constant Matrix: (Units=GPa)
#
#
# Indices 1 2 3 4 5 6 
#
# 1 144.3038 4.8216 45.7428 0.0000 0.0000 0.0000
# 2 4.8216 16.5403 -12.5907 0.0000 0.0000 0.0000
# 3 45.7428 -12.5907 101.2394 0.0000 0.0000 0.0000
# 4 0.0000 0.0000 0.0000 26.8806 0.0000 0.0000
# 5 0.0000 0.0000 0.0000 0.0000 35.3812 0.0000
# 6 0.0000 0.0000 0.0000 0.0000 0.0000 3.9897
#
#
#
# Elastic Compliance Matrix: (Units=1/GPa)
#
#
# Indices 1 2 3 4 5 6 
#
# 1 0.008601 -0.006037 -0.004637 0.000000 0.000000 0.000000
# 2 -0.006037 0.071018 0.011560 0.000000 0.000000 0.000000
# 3 -0.004637 0.011560 0.013410 0.000000 0.000000 0.000000
# 4 0.000000 0.000000 0.000000 0.037202 0.000000 0.000000
# 5 0.000000 0.000000 0.000000 0.000000 0.028264 0.000000
# 6 0.000000 0.000000 0.000000 0.000000 0.000000 0.250644
#
#
# Mechanical properties :
#
#
# Convention : Reuss Voigt Hill
#
# Bulk Modulus (GPa) = 10.54843 37.55897 24.05370
# Shear Modulus (GPa) = 11.39034 28.19096 19.79065
#
# Velocity S-wave (km/s) = 2.39567 3.76888 3.15782
# Velocity P-wave (km/s) = 3.60101 6.15338 5.04140
#
# Compressibility (1/GPa) = 0.09480082
#
# Stress axis : x y z
#
# Youngs Moduli (GPa) = 116.25881 14.08096 74.56859
#
# Poissons Ratio (x) = 0.08501 0.34579
# Poissons Ratio (y) = 0.70189 -0.86201
# Poissons Ratio (z) = 0.53912 -0.16278
#
# Static dielectric constant tensor:
#      x y z
#    x 1.712770 0.000000 0.000000 
#    y 0.000000 1.725360 0.000000 
#    z 0.000000 0.000000 1.687800 
# 
# From -- ./inp_files/35231.got.cif
#   From: 2010.05.17/outbox.cif.g08.bks.cpg/sg67_18_cif.got.tgz:35231.got - 2010.06.03 18:28:57.
