data_PCOD9501108
_publ_section_title
;
Structure prediction by ZEFSAII (Michael W. Deem and Ramdas Pophale) SiO2 
 PCOD9501108
Probable space group: C M M A
;
_chemical_formula_sum "Si O2"
_cell_formula_units_Z 96
_cell_length_a 8.725563
_cell_length_b 23.868515
_cell_length_c 26.359709
_cell_angle_alpha 90.000000
_cell_angle_beta 90.000000
_cell_angle_gamma 90.000000
_cell_volume 5489.837253
_symmetry_space_group_name_H-M "C M M A"
_symmetry_group_IT_number 67
_symmetry_cell_setting 'orthorhombic'
loop_
_space_group_symop_operation_xyz
x,y,z
-x,1/2-y,z
x,-y,-z
-x,1/2+y,-z
-x,-y,-z
x,1/2+y,-z
-x,y,z
x,1/2-y,z
1/2+x,1/2+y,z
1/2-x,-y,z
1/2+x,1/2-y,-z
1/2-x,y,-z
1/2-x,1/2-y,-z
1/2+x,y,-z
1/2-x,1/2+y,z
1/2+x,-y,z
loop_
_atom_site_type_symbol
_atom_site_label
_atom_site_fract_x
_atom_site_fract_y
_atom_site_fract_z
Si Si1 0.817126 0.861810 0.240918
Si Si2 0.316474 0.750000 0.191286
Si Si3 0.824241 0.818005 0.447409
Si Si4 0.182805 0.184009 0.339626
Si Si5 0.684116 0.130896 0.948488
Si Si6 0.683675 0.750000 0.921117
Si Si7 0.684021 0.438042 0.846247
O O1 0.750919 0.804816 0.217106
O O2 0.760676 0.856733 0.298823
O O3 0.750757 0.910214 0.204844
O O4 0.000000 0.862847 0.238928
O O5 0.500000 0.750000 0.194334
O O6 0.259584 0.750000 0.134087
O O7 0.825155 0.750000 0.449834
O O8 0.750000 0.837974 0.500000
O O9 0.730887 0.831705 0.396681
O O10 0.000000 0.836514 0.442971
O O11 0.229479 0.250000 0.331556
O O12 0.000000 0.182002 0.333650
O O13 0.500000 0.134772 0.951370
O O14 0.757048 0.192662 0.945506
O O15 0.724255 0.098489 0.896392
O O16 0.750000 0.103689 0.000000
O O17 0.500000 0.750000 0.919033
O O18 0.500000 0.439005 0.842787
O O19 0.750000 0.500000 0.852314
#
# Coordination Sequence:
#
# PCOD9501108 Si02
#       7
#    16   8  16  16  16   8  16
#     4  12  23  36  57  83 111 143 183 227 276 331
#     4  12  22  35  55  82 113 145 179 219 274 329
#     4   9  16  26  40  61  95 139 187 228 268 319
#     4  10  19  30  47  72 106 144 183 227 275 324
#     4  11  24  41  62  86 116 147 180 223 271 323
#     4  12  23  37  60  88 117 147 181 219 268 325
#     4  11  25  44  64  83 109 143 182 228 276 328
#
# _framework density 17.486857000000001
#
# number of rings (size 3 to 8) (size 9 to 14) (size 15 to 20)
#    0.000    1.167    2.500    5.250    0.000    5.000 
#    0.000    1.667    0.000    0.000    0.000    0.000 
#    0.000    0.667    0.000    6.667    0.000    4.333 
#
# Total GULP energy -268088.002112 kJ/mol
# GULP energy per Si atom -5585.166711 kJ/mol
# Density = 1.744706 g / cm^3
# Si number density = 17.486857 Si / 1000 Ang^3
#
#
#
# Elastic Constant Matrix: (Units=GPa)
#
#
# Indices 1 2 3 4 5 6 
#
# 1 115.7628 38.7793 58.2927 0.0000 0.0000 0.0000
# 2 38.7793 79.5456 44.1209 0.0000 0.0000 0.0000
# 3 58.2927 44.1209 153.7625 0.0000 0.0000 0.0000
# 4 0.0000 0.0000 0.0000 5.4186 0.0000 0.0000
# 5 0.0000 0.0000 0.0000 0.0000 35.2213 0.0000
# 6 0.0000 0.0000 0.0000 0.0000 0.0000 22.0289
#
#
#
# Elastic Compliance Matrix: (Units=1/GPa)
#
#
# Indices 1 2 3 4 5 6 
#
# 1 0.011575 -0.003816 -0.003293 0.000000 0.000000 0.000000
# 2 -0.003816 0.016209 -0.003204 0.000000 0.000000 0.000000
# 3 -0.003293 -0.003204 0.008671 0.000000 0.000000 0.000000
# 4 0.000000 0.000000 0.000000 0.184551 0.000000 0.000000
# 5 0.000000 0.000000 0.000000 0.000000 0.028392 0.000000
# 6 0.000000 0.000000 0.000000 0.000000 0.000000 0.045395
#
#
# Mechanical properties :
#
#
# Convention : Reuss Voigt Hill
#
# Bulk Modulus (GPa) = 63.17868 70.16187 66.67027
# Shear Modulus (GPa) = 15.59104 26.39230 20.99167
#
# Velocity S-wave (km/s) = 2.98918 3.88914 3.46847
# Velocity P-wave (km/s) = 6.93695 7.77026 7.36540
#
# Compressibility (1/GPa) = 0.01582812
#
# Stress axis : x y z
#
# Youngs Moduli (GPa) = 86.39258 61.69328 115.32119
#
# Poissons Ratio (x) = 0.23545 0.37977
# Poissons Ratio (y) = 0.32971 0.36952
# Poissons Ratio (z) = 0.28450 0.19768
#
# Static dielectric constant tensor:
#      x y z
#    x 1.581750 0.000000 0.000000 
#    y 0.000000 1.569060 0.000000 
#    z 0.000000 0.000000 1.614030 
# 
# From -- ./inp_files/40839.got.cif
#   From: 2010.05.17/outbox.cif.g08.bks.cpg/sg67_21_cif.got.tgz:40839.got - 2010.06.03 18:28:57.
