data_PCOD9501337
_publ_section_title
;
Structure prediction by ZEFSAII (Michael W. Deem and Ramdas Pophale) SiO2 
 PCOD9501337
Probable space group: C M M A
;
_chemical_formula_sum "Si O2"
_cell_formula_units_Z 80
_cell_length_a 19.855132
_cell_length_b 8.536446
_cell_length_c 26.893243
_cell_angle_alpha 90.000000
_cell_angle_beta 90.000000
_cell_angle_gamma 90.000000
_cell_volume 4558.196592
_symmetry_space_group_name_H-M "C M M A"
_symmetry_group_IT_number 67
_symmetry_cell_setting 'orthorhombic'
loop_
_space_group_symop_operation_xyz
x,y,z
-x,1/2-y,z
x,-y,-z
-x,1/2+y,-z
-x,-y,-z
x,1/2+y,-z
-x,y,z
x,1/2-y,z
1/2+x,1/2+y,z
1/2-x,-y,z
1/2+x,1/2-y,-z
1/2-x,y,-z
1/2-x,1/2-y,-z
1/2+x,y,-z
1/2-x,1/2+y,z
1/2+x,-y,z
loop_
_atom_site_type_symbol
_atom_site_label
_atom_site_fract_x
_atom_site_fract_y
_atom_site_fract_z
Si Si1 0.081823 0.568739 0.247639
Si Si2 0.174387 0.938324 0.446026
Si Si3 0.325647 0.438626 0.945946
Si Si4 0.422218 0.058515 0.356590
Si Si5 0.422928 0.062064 0.857690
O O1 0.102253 0.750000 0.243683
O O2 0.102596 0.505986 0.301867
O O3 0.102349 0.483299 0.197254
O O4 0.000000 0.564240 0.249203
O O5 0.175758 0.750000 0.447326
O O6 0.125179 0.990062 0.401756
O O7 0.152029 0.000000 0.500000
O O8 0.250000 0.000000 0.437721
O O9 0.324385 0.250000 0.947015
O O10 0.250000 0.500000 0.937620
O O11 0.374859 0.493039 0.901944
O O12 0.347826 0.500000 0.000000
O O13 0.500000 0.009938 0.363849
O O14 0.422382 0.250000 0.354957
O O15 0.500000 0.003255 0.863256
O O16 0.425208 0.250000 0.860359
#
# Coordination Sequence:
#
# PCOD9501337 Si02
#       5
#    16  16  16  16  16
#     4   8  14  27  48  71  93 120 154 188 225 272
#     4  10  19  32  49  67  92 124 155 190 231 276
#     4  10  20  34  51  69  93 125 157 191 231 275
#     4   8  15  29  49  71  93 119 153 192 231 270
#     4   9  18  32  49  71  98 124 151 188 233 274
#
# _framework density 17.550799999999999
#
# number of rings (size 3 to 8) (size 9 to 14) (size 15 to 20)
#    0.000    3.000    0.000    3.600    0.000    2.400 
#    0.000    3.000    0.000    9.000    0.000    0.000 
#    0.000    0.000    0.000    0.000    0.000    0.000 
#
# Total GULP energy -222815.671704 kJ/mol
# GULP energy per Si atom -5570.391793 kJ/mol
# Density = 1.751085 g / cm^3
# Si number density = 17.550800 Si / 1000 Ang^3
#
#
#
# Elastic Constant Matrix: (Units=GPa)
#
#
# Indices 1 2 3 4 5 6 
#
# 1 58.9972 14.8739 93.8253 0.0000 0.0000 0.0000
# 2 14.8739 24.6646 27.5133 0.0000 0.0000 0.0000
# 3 93.8253 27.5133 211.8115 0.0000 0.0000 0.0000
# 4 0.0000 0.0000 0.0000 26.0558 0.0000 0.0000
# 5 0.0000 0.0000 0.0000 0.0000 -80.2373 0.0000
# 6 0.0000 0.0000 0.0000 0.0000 0.0000 14.3030
#
#
#
# Elastic Compliance Matrix: (Units=1/GPa)
#
#
# Indices 1 2 3 4 5 6 
#
# 1 0.058502 -0.007452 -0.024946 0.000000 0.000000 0.000000
# 2 -0.007452 0.048363 -0.002981 0.000000 0.000000 0.000000
# 3 -0.024946 -0.002981 0.016159 0.000000 0.000000 0.000000
# 4 0.000000 0.000000 0.000000 0.038379 0.000000 0.000000
# 5 0.000000 0.000000 0.000000 0.000000 -0.012463 0.000000
# 6 0.000000 0.000000 0.000000 0.000000 0.000000 0.069915
#
#
# Mechanical properties :
#
#
# Convention : Reuss Voigt Hill
#
# Bulk Modulus (GPa) = 19.13320 63.09980 41.11650
# Shear Modulus (GPa) = 16.28475 2.64170 9.46322
#
# Velocity S-wave (km/s) = 3.04939 1.22819 2.32457
# Velocity P-wave (km/s) = 4.82946 6.16782 5.53921
#
# Compressibility (1/GPa) = 0.05226517
#
# Stress axis : x y z
#
# Youngs Moduli (GPa) = 17.09354 20.67679 61.88575
#
# Poissons Ratio (x) = 0.15408 1.54382
# Poissons Ratio (y) = 0.12738 0.18450
# Poissons Ratio (z) = 0.42642 0.06164
#
# Static dielectric constant tensor:
#      x y z
#    x 1.581910 0.000000 0.000000 
#    y 0.000000 1.607540 0.000000 
#    z 0.000000 0.000000 1.613880 
# 
# From -- ./inp_files/44428.got.cif
#   From: 2010.05.17/outbox.cif.g08.bks.cpg/sg67_23_cif.got.tgz:44428.got - 2010.06.03 18:28:57.
