data_PCOD9501261
_publ_section_title
;
Structure prediction by ZEFSAII (Michael W. Deem and Ramdas Pophale) SiO2 
 PCOD9501261
Probable space group: C M M A
;
_chemical_formula_sum "Si O2"
_cell_formula_units_Z 96
_cell_length_a 8.969878
_cell_length_b 18.646293
_cell_length_c 32.423279
_cell_angle_alpha 90.000000
_cell_angle_beta 90.000000
_cell_angle_gamma 90.000000
_cell_volume 5422.954665
_symmetry_space_group_name_H-M "C M M A"
_symmetry_group_IT_number 67
_symmetry_cell_setting 'orthorhombic'
loop_
_space_group_symop_operation_xyz
x,y,z
-x,1/2-y,z
x,-y,-z
-x,1/2+y,-z
-x,-y,-z
x,1/2+y,-z
-x,y,z
x,1/2-y,z
1/2+x,1/2+y,z
1/2-x,-y,z
1/2+x,1/2-y,-z
1/2-x,y,-z
1/2-x,1/2-y,-z
1/2+x,y,-z
1/2-x,1/2+y,z
1/2+x,-y,z
loop_
_atom_site_type_symbol
_atom_site_label
_atom_site_fract_x
_atom_site_fract_y
_atom_site_fract_z
Si Si1 0.824972 0.663882 0.872462
Si Si2 0.677978 0.921041 0.798147
Si Si3 0.821431 0.579576 0.293443
Si Si4 0.828094 0.162577 0.957797
Si Si5 0.179489 0.920790 0.624147
Si Si6 0.678857 0.666618 0.457615
O O1 0.807811 0.750000 0.869795
O O2 0.742778 0.627024 0.834448
O O3 0.756317 0.640304 0.916279
O O4 0.000000 0.647112 0.871312
O O5 0.500000 0.927664 0.801892
O O6 0.709256 0.889864 0.752162
O O7 0.750000 0.000000 0.800693
O O8 0.750000 0.500000 0.291890
O O9 0.746271 0.613241 0.333872
O O10 0.000000 0.575068 0.298905
O O11 0.825150 0.250000 0.958317
O O12 0.000000 0.140295 0.956642
O O13 0.750000 0.138436 0.000000
O O14 0.219715 0.876689 0.583303
O O15 0.000000 0.925418 0.627427
O O16 0.250000 0.000000 0.620455
O O17 0.500000 0.663949 0.461510
O O18 0.723577 0.750000 0.453075
O O19 0.750000 0.638658 0.500000
#
# Coordination Sequence:
#
# PCOD9501261 Si02
#       6
#    16  16  16  16  16  16
#     4  10  20  33  50  74 103 133 167 208 252 296
#     4  10  20  34  53  75 100 132 169 207 247 297
#     4   9  17  30  49  72  97 126 161 199 240 287
#     4   9  16  27  45  69  97 129 165 205 249 296
#     4  10  19  31  50  74  99 124 155 198 241 283
#     4   9  19  35  52  70  94 127 163 196 234 282
#
# _framework density 17.702528000000001
#
# number of rings (size 3 to 8) (size 9 to 14) (size 15 to 20)
#    0.000    2.500    0.000    3.500    0.000    6.667 
#    0.000    2.500    0.000    3.500    0.000    3.500 
#    0.000    0.000    0.000    0.000    0.000    0.000 
#
# Total GULP energy -267570.120903 kJ/mol
# GULP energy per Si atom -5574.377519 kJ/mol
# Density = 1.766224 g / cm^3
# Si number density = 17.702528 Si / 1000 Ang^3
#
#
#
# Elastic Constant Matrix: (Units=GPa)
#
#
# Indices 1 2 3 4 5 6 
#
# 1 102.8068 29.2937 93.0868 0.0000 0.0000 0.0000
# 2 29.2937 18.0186 46.2889 0.0000 0.0000 0.0000
# 3 93.0868 46.2889 221.4387 0.0000 0.0000 0.0000
# 4 0.0000 0.0000 0.0000 22.8025 0.0000 0.0000
# 5 0.0000 0.0000 0.0000 0.0000 38.0481 0.0000
# 6 0.0000 0.0000 0.0000 0.0000 0.0000 19.4842
#
#
#
# Elastic Compliance Matrix: (Units=1/GPa)
#
#
# Indices 1 2 3 4 5 6 
#
# 1 0.019201 -0.022636 -0.003340 0.000000 0.000000 0.000000
# 2 -0.022636 0.146554 -0.021120 0.000000 0.000000 0.000000
# 3 -0.003340 -0.021120 0.010335 0.000000 0.000000 0.000000
# 4 0.000000 0.000000 0.000000 0.043855 0.000000 0.000000
# 5 0.000000 0.000000 0.000000 0.000000 0.026283 0.000000
# 6 0.000000 0.000000 0.000000 0.000000 0.000000 0.051324
#
#
# Mechanical properties :
#
#
# Convention : Reuss Voigt Hill
#
# Bulk Modulus (GPa) = 12.21023 75.51143 43.86083
# Shear Modulus (GPa) = 11.93199 27.63993 19.78596
#
# Velocity S-wave (km/s) = 2.59902 3.95569 3.34682
# Velocity P-wave (km/s) = 3.98986 7.97569 6.30597
#
# Compressibility (1/GPa) = 0.08189857
#
# Stress axis : x y z
#
# Youngs Moduli (GPa) = 52.08088 6.82342 96.76206
#
# Poissons Ratio (x) = 0.15446 0.32316
# Poissons Ratio (y) = 1.17892 2.04358
# Poissons Ratio (z) = 0.17394 0.14411
#
# Static dielectric constant tensor:
#      x y z
#    x 1.593760 0.000000 0.000000 
#    y 0.000000 1.587330 0.000000 
#    z 0.000000 0.000000 1.627750 
# 
# From -- ./inp_files/43470.got.cif
#   From: 2010.05.17/outbox.cif.g08.bks.cpg/sg67_22_cif.got.tgz:43470.got - 2010.06.03 18:28:57.
