data_PCOD9501928
_publ_section_title
;
Structure prediction by ZEFSAII (Michael W. Deem and Ramdas Pophale) SiO2 
 PCOD9501928
Probable space group: C M M A
;
_chemical_formula_sum "Si O2"
_cell_formula_units_Z 64
_cell_length_a 16.667269
_cell_length_b 15.630264
_cell_length_c 11.705527
_cell_angle_alpha 90.000000
_cell_angle_beta 90.000000
_cell_angle_gamma 90.000000
_cell_volume 3049.451491
_symmetry_space_group_name_H-M "C M M A"
_symmetry_group_IT_number 67
_symmetry_cell_setting 'orthorhombic'
loop_
_space_group_symop_operation_xyz
x,y,z
-x,1/2-y,z
x,-y,-z
-x,1/2+y,-z
-x,-y,-z
x,1/2+y,-z
-x,y,z
x,1/2-y,z
1/2+x,1/2+y,z
1/2-x,-y,z
1/2+x,1/2-y,-z
1/2-x,y,-z
1/2-x,1/2-y,-z
1/2+x,y,-z
1/2-x,1/2+y,z
1/2+x,-y,z
loop_
_atom_site_type_symbol
_atom_site_label
_atom_site_fract_x
_atom_site_fract_y
_atom_site_fract_z
Si Si1 0.862723 0.847318 0.450514
Si Si2 0.208788 0.408064 0.333803
Si Si3 0.827034 0.853650 0.922781
Si Si4 0.000000 0.354714 0.977015
Si Si5 0.000000 0.645465 0.283774
O O1 0.885271 0.750000 0.480601
O O2 0.857573 0.900449 0.567172
O O3 0.778130 0.846993 0.384258
O O4 0.923938 0.881755 0.356947
O O5 0.250000 0.500000 0.334321
O O6 0.183537 0.383181 0.207428
O O7 0.826232 0.750000 0.925240
O O8 0.750000 0.881672 0.000000
O O9 0.914915 0.881577 0.967986
O O10 0.000000 0.250000 0.979527
O O11 0.000000 0.384209 0.845726
O O12 0.000000 0.750000 0.278241
#
# Coordination Sequence:
#
# PCOD9501928 Si02
#       5
#    16  16  16   8   8
#     4  10  19  35  59  82 107 143 190 237 284 342
#     4  11  22  36  53  80 115 149 186 231 286 343
#     4  10  20  36  60  85 113 153 197 241 287 338
#     4   9  18  33  56  89 120 147 192 244 289 345
#     4   9  18  33  57  87 113 140 181 240 296 339
#
# _framework density 20.987382
#
# number of rings (size 3 to 8) (size 9 to 14) (size 15 to 20)
#    0.000    2.000    0.000    6.000    0.000    5.500 
#    0.000    7.500    0.000    3.000    0.000    0.000 
#    0.000    0.000    0.000    0.000    0.000    0.500 
#
# Total GULP energy -178612.192949 kJ/mol
# GULP energy per Si atom -5581.631030 kJ/mol
# Density = 2.093961 g / cm^3
# Si number density = 20.987382 Si / 1000 Ang^3
#
#
#
# Elastic Constant Matrix: (Units=GPa)
#
#
# Indices 1 2 3 4 5 6 
#
# 1 128.3777 21.6035 115.0043 0.0000 0.0000 0.0000
# 2 21.6035 46.5040 29.6515 0.0000 0.0000 0.0000
# 3 115.0043 29.6515 255.7000 0.0000 0.0000 0.0000
# 4 0.0000 0.0000 0.0000 9.2677 0.0000 0.0000
# 5 0.0000 0.0000 0.0000 0.0000 42.4101 0.0000
# 6 0.0000 0.0000 0.0000 0.0000 0.0000 8.1190
#
#
#
# Elastic Compliance Matrix: (Units=1/GPa)
#
#
# Indices 1 2 3 4 5 6 
#
# 1 0.013322 -0.002557 -0.005695 0.000000 0.000000 0.000000
# 2 -0.002557 0.023711 -0.001599 0.000000 0.000000 0.000000
# 3 -0.005695 -0.001599 0.006658 0.000000 0.000000 0.000000
# 4 0.000000 0.000000 0.000000 0.107902 0.000000 0.000000
# 5 0.000000 0.000000 0.000000 0.000000 0.023579 0.000000
# 6 0.000000 0.000000 0.000000 0.000000 0.000000 0.123168
#
#
# Mechanical properties :
#
#
# Convention : Reuss Voigt Hill
#
# Bulk Modulus (GPa) = 41.68906 84.78893 63.23899
# Shear Modulus (GPa) = 15.33556 29.58085 22.45820
#
# Velocity S-wave (km/s) = 2.70609 3.75835 3.27476
# Velocity P-wave (km/s) = 5.44710 7.70203 6.67054
#
# Compressibility (1/GPa) = 0.02398711
#
# Stress axis : x y z
#
# Youngs Moduli (GPa) = 75.06598 42.17384 150.20195
#
# Poissons Ratio (x) = 0.10785 0.85540
# Poissons Ratio (y) = 0.19197 0.24023
# Poissons Ratio (z) = 0.42750 0.06745
#
# Static dielectric constant tensor:
#      x y z
#    x 1.823530 0.000000 0.000000 
#    y 0.000000 1.789180 0.000000 
#    z 0.000000 0.000000 1.703470 
# 
# From -- ./inp_files/19001.got.cif
#   From: 2010.05.17/outbox.cif.g08.bks.cpg/sg67_10_cif.got.tgz:19001.got - 2010.06.03 18:28:57.
