data_PCOD9501627
_publ_section_title
;
Structure prediction by ZEFSAII (Michael W. Deem and Ramdas Pophale) SiO2 
 PCOD9501627
Probable space group: C M M A
;
_chemical_formula_sum "Si O2"
_cell_formula_units_Z 128
_cell_length_a 18.439586
_cell_length_b 21.533433
_cell_length_c 18.489678
_cell_angle_alpha 90.000000
_cell_angle_beta 90.000000
_cell_angle_gamma 90.000000
_cell_volume 7341.651877
_symmetry_space_group_name_H-M "C M M A"
_symmetry_group_IT_number 67
_symmetry_cell_setting 'orthorhombic'
loop_
_space_group_symop_operation_xyz
x,y,z
-x,1/2-y,z
x,-y,-z
-x,1/2+y,-z
-x,-y,-z
x,1/2+y,-z
-x,y,z
x,1/2-y,z
1/2+x,1/2+y,z
1/2-x,-y,z
1/2+x,1/2-y,-z
1/2-x,y,-z
1/2-x,1/2-y,-z
1/2+x,y,-z
1/2-x,1/2+y,z
1/2+x,-y,z
loop_
_atom_site_type_symbol
_atom_site_label
_atom_site_fract_x
_atom_site_fract_y
_atom_site_fract_z
Si Si1 0.287435 0.937872 0.578128
Si Si2 0.762281 0.317243 0.181911
Si Si3 0.720846 0.818196 0.355032
Si Si4 0.580782 0.856151 0.155273
Si Si5 0.414742 0.530812 0.660627
Si Si6 0.186358 0.551350 0.200495
Si Si7 0.420663 0.117004 0.672645
Si Si8 0.083269 0.490097 0.083542
O O1 0.250000 0.933857 0.500000
O O2 0.269567 0.873658 0.616652
O O3 0.373117 0.947787 0.588025
O O4 0.250000 0.000000 0.611734
O O5 0.729418 0.250000 0.159694
O O6 0.771242 0.314508 0.268667
O O7 0.842720 0.321407 0.146747
O O8 0.719856 0.382557 0.174978
O O9 0.734773 0.750000 0.385878
O O10 0.639248 0.841958 0.365910
O O11 0.500000 0.827736 0.142501
O O12 0.582020 0.874064 0.240493
O O13 0.584894 0.918229 0.107475
O O14 0.500000 0.547681 0.666108
O O15 0.365522 0.554610 0.728333
O O16 0.410262 0.456067 0.661233
O O17 0.250000 0.500000 0.213294
O O18 0.136635 0.525758 0.136334
O O19 0.500000 0.135391 0.647549
O O20 0.000000 0.511503 0.093872
O O21 0.102397 0.500000 0.000000
#
# Coordination Sequence:
#
# PCOD9501627 Si02
#       8
#    16  16  16  16  16  16  16  16
#     4  11  22  37  56  80 111 142 182 230 278 329
#     4  10  20  32  51  82 112 141 183 235 280 332
#     4  10  19  33  53  77 108 144 179 222 277 332
#     4   9  16  30  49  75 109 145 178 220 282 335
#     4  11  20  34  59  84 108 143 187 228 277 328
#     4  12  19  33  59  84 111 145 184 238 283 327
#     4   9  16  28  50  80 109 134 173 224 275 330
#     4  10  20  33  52  83 117 146 187 238 288 339
#
# _framework density 17.434768999999999
#
# number of rings (size 3 to 8) (size 9 to 14) (size 15 to 20)
#    0.000    1.750    5.000    1.500    0.000    1.000 
#    0.000    4.375    0.000    4.125    0.000    1.750 
#    0.000    0.000    0.000    0.000    0.000    0.000 
#
# Total GULP energy -356298.790514 kJ/mol
# GULP energy per Si atom -5567.168602 kJ/mol
# Density = 1.739509 g / cm^3
# Si number density = 17.434769 Si / 1000 Ang^3
#
#
#
# Elastic Constant Matrix: (Units=GPa)
#
#
# Indices 1 2 3 4 5 6 
#
# 1 97.4637 39.1228 41.1720 0.0000 0.0000 0.0000
# 2 39.1228 109.2677 17.8270 0.0000 0.0000 0.0000
# 3 41.1720 17.8270 47.3654 0.0000 0.0000 0.0000
# 4 0.0000 0.0000 0.0000 -1.7317 0.0000 0.0000
# 5 0.0000 0.0000 0.0000 0.0000 20.8208 0.0000
# 6 0.0000 0.0000 0.0000 0.0000 0.0000 8.3574
#
#
#
# Elastic Compliance Matrix: (Units=1/GPa)
#
#
# Indices 1 2 3 4 5 6 
#
# 1 0.017783 -0.004097 -0.013916 0.000000 0.000000 0.000000
# 2 -0.004097 0.010694 -0.000464 0.000000 0.000000 0.000000
# 3 -0.013916 -0.000464 0.033384 0.000000 0.000000 0.000000
# 4 0.000000 0.000000 0.000000 -0.577459 0.000000 0.000000
# 5 0.000000 0.000000 0.000000 0.000000 0.048029 0.000000
# 6 0.000000 0.000000 0.000000 0.000000 0.000000 0.119654
#
#
# Mechanical properties :
#
#
# Convention : Reuss Voigt Hill
#
# Bulk Modulus (GPa) = 40.14850 50.03784 45.09317
# Shear Modulus (GPa) = -16.52026 15.88763 -0.31632
#
# Velocity S-wave (km/s) = -3.08156 3.02199 -0.42641
# Velocity P-wave (km/s) = 3.22745 6.39835 5.06731
#
# Compressibility (1/GPa) = 0.02490753
#
# Stress axis : x y z
#
# Youngs Moduli (GPa) = 56.23212 93.50701 29.95484
#
# Poissons Ratio (x) = 0.38309 0.41686
# Poissons Ratio (y) = 0.23038 0.01390
# Poissons Ratio (z) = 0.78254 0.04338
#
# Static dielectric constant tensor:
#      x y z
#    x 1.629170 0.000000 0.000000 
#    y 0.000000 1.621880 0.000000 
#    z 0.000000 0.000000 1.606790 
# 
# From -- ./inp_files/39117.got.cif
#   From: 2010.05.17/outbox.cif.g08.bks.cpg/sg67_20_cif.got.tgz:39117.got - 2010.06.03 18:28:57.
