data_PCOD9501043
_publ_section_title
;
Structure prediction by ZEFSAII (Michael W. Deem and Ramdas Pophale) SiO2 
 PCOD9501043
Probable space group: C M M A
;
_chemical_formula_sum "Si O2"
_cell_formula_units_Z 96
_cell_length_a 8.765125
_cell_length_b 27.744705
_cell_length_c 24.452687
_cell_angle_alpha 90.000000
_cell_angle_beta 90.000000
_cell_angle_gamma 90.000000
_cell_volume 5946.546432
_symmetry_space_group_name_H-M "C M M A"
_symmetry_group_IT_number 67
_symmetry_cell_setting 'orthorhombic'
loop_
_space_group_symop_operation_xyz
x,y,z
-x,1/2-y,z
x,-y,-z
-x,1/2+y,-z
-x,-y,-z
x,1/2+y,-z
-x,y,z
x,1/2-y,z
1/2+x,1/2+y,z
1/2-x,-y,z
1/2+x,1/2-y,-z
1/2-x,y,-z
1/2-x,1/2-y,-z
1/2+x,y,-z
1/2-x,1/2+y,z
1/2+x,-y,z
loop_
_atom_site_type_symbol
_atom_site_label
_atom_site_fract_x
_atom_site_fract_y
_atom_site_fract_z
Si Si1 0.182579 0.144253 0.721960
Si Si2 0.176132 0.308617 0.943131
Si Si3 0.317810 0.051299 0.667311
Si Si4 0.683871 0.403426 0.441584
Si Si5 0.815308 0.696517 0.389520
Si Si6 0.181269 0.307152 0.171943
O O1 0.261755 0.093963 0.706931
O O2 0.224288 0.181008 0.672515
O O3 0.235331 0.165032 0.779565
O O4 0.000000 0.138215 0.720297
O O5 0.180927 0.250000 0.944317
O O6 0.263865 0.323103 0.888181
O O7 0.000000 0.323080 0.939988
O O8 0.250000 0.325339 0.000000
O O9 0.500000 0.049756 0.664959
O O10 0.250209 0.064947 0.607723
O O11 0.250000 0.000000 0.684121
O O12 0.500000 0.406142 0.441019
O O13 0.750000 0.417694 0.500000
O O14 0.731537 0.347986 0.427858
O O15 0.757078 0.750000 0.402870
O O16 0.000000 0.698071 0.392068
O O17 0.216145 0.250000 0.177019
O O18 0.000000 0.313135 0.176706
#
# Coordination Sequence:
#
# PCOD9501043 Si02
#       6
#    16  16  16  16  16  16
#     4  10  19  32  50  72  97 125 159 197 238 285
#     4   9  16  26  40  59  87 126 169 209 246 283
#     4  11  22  38  57  75  95 119 149 189 240 293
#     4  10  20  34  51  73  98 124 156 192 231 278
#     4   8  15  28  46  67  93 125 157 189 226 269
#     4  10  19  29  43  67  99 134 170 205 240 280
#
# _framework density 16.143823999999999
#
# number of rings (size 3 to 8) (size 9 to 14) (size 15 to 20)
#    0.000    2.333    0.000    5.000    0.000    4.333 
#    0.000    1.667    0.000    9.500    0.000    0.000 
#    0.000    0.667    0.000    6.667    0.000    4.333 
#
# Total GULP energy -267762.692537 kJ/mol
# GULP energy per Si atom -5578.389428 kJ/mol
# Density = 1.610708 g / cm^3
# Si number density = 16.143824 Si / 1000 Ang^3
#
#
#
# Elastic Constant Matrix: (Units=GPa)
#
#
# Indices 1 2 3 4 5 6 
#
# 1 87.8703 28.0053 36.8264 0.0000 0.0000 0.0000
# 2 28.0053 46.8750 3.8601 0.0000 0.0000 0.0000
# 3 36.8264 3.8601 84.1763 0.0000 0.0000 0.0000
# 4 0.0000 0.0000 0.0000 8.1142 0.0000 0.0000
# 5 0.0000 0.0000 0.0000 0.0000 28.8609 0.0000
# 6 0.0000 0.0000 0.0000 0.0000 0.0000 19.9701
#
#
#
# Elastic Compliance Matrix: (Units=1/GPa)
#
#
# Indices 1 2 3 4 5 6 
#
# 1 0.017566 -0.009899 -0.007231 0.000000 0.000000 0.000000
# 2 -0.009899 0.026993 0.003093 0.000000 0.000000 0.000000
# 3 -0.007231 0.003093 0.014901 0.000000 0.000000 0.000000
# 4 0.000000 0.000000 0.000000 0.123240 0.000000 0.000000
# 5 0.000000 0.000000 0.000000 0.000000 0.034649 0.000000
# 6 0.000000 0.000000 0.000000 0.000000 0.000000 0.050075
#
#
# Mechanical properties :
#
#
# Convention : Reuss Voigt Hill
#
# Bulk Modulus (GPa) = 31.86147 39.58947 35.72547
# Shear Modulus (GPa) = 16.34198 21.40438 18.87318
#
# Velocity S-wave (km/s) = 3.18508 3.64518 3.42287
# Velocity P-wave (km/s) = 5.77106 6.50328 6.14808
#
# Compressibility (1/GPa) = 0.03138587
#
# Stress axis : x y z
#
# Youngs Moduli (GPa) = 56.92846 37.04682 67.10745
#
# Poissons Ratio (x) = 0.36673 0.48525
# Poissons Ratio (y) = 0.56355 -0.20756
# Poissons Ratio (z) = 0.41165 -0.11459
#
# Static dielectric constant tensor:
#      x y z
#    x 1.535450 0.000000 0.000000 
#    y 0.000000 1.538120 0.000000 
#    z 0.000000 0.000000 1.527190 
# 
# From -- ./inp_files/39868.got.cif
#   From: 2010.05.17/outbox.cif.g08.bks.cpg/sg67_20_cif.got.tgz:39868.got - 2010.06.03 18:28:57.
