data_PCOD9501755
_publ_section_title
;
Structure prediction by ZEFSAII (Michael W. Deem and Ramdas Pophale) SiO2 
 PCOD9501755
Probable space group: C M M A
;
_chemical_formula_sum "Si O2"
_cell_formula_units_Z 96
_cell_length_a 8.498470
_cell_length_b 26.413428
_cell_length_c 24.234950
_cell_angle_alpha 90.000000
_cell_angle_beta 90.000000
_cell_angle_gamma 90.000000
_cell_volume 5440.109513
_symmetry_space_group_name_H-M "C M M A"
_symmetry_group_IT_number 67
_symmetry_cell_setting 'orthorhombic'
loop_
_space_group_symop_operation_xyz
x,y,z
-x,1/2-y,z
x,-y,-z
-x,1/2+y,-z
-x,-y,-z
x,1/2+y,-z
-x,y,z
x,1/2-y,z
1/2+x,1/2+y,z
1/2-x,-y,z
1/2+x,1/2-y,-z
1/2-x,y,-z
1/2-x,1/2-y,-z
1/2+x,y,-z
1/2-x,1/2+y,z
1/2+x,-y,z
loop_
_atom_site_type_symbol
_atom_site_label
_atom_site_fract_x
_atom_site_fract_y
_atom_site_fract_z
Si Si1 0.308298 0.750000 0.130685
Si Si2 0.190708 0.152393 0.676231
Si Si3 0.811342 0.055540 0.872019
Si Si4 0.310290 0.555278 0.744443
Si Si5 0.189099 0.250000 0.258029
Si Si6 0.688702 0.348342 0.937929
Si Si7 0.189491 0.191140 0.559280
O O1 0.500000 0.750000 0.130695
O O2 0.257543 0.750000 0.194275
O O3 0.256803 0.800370 0.098518
O O4 0.244201 0.100645 0.705167
O O5 0.248938 0.200339 0.711034
O O6 0.241915 0.159998 0.612839
O O7 0.000000 0.152996 0.676881
O O8 0.760925 0.064291 0.808149
O O9 0.746822 0.099965 0.910094
O O10 0.000000 0.055596 0.873938
O O11 0.750000 0.000000 0.888280
O O12 0.500000 0.554547 0.743775
O O13 0.250000 0.500000 0.727842
O O14 0.000000 0.250000 0.259183
O O15 0.500000 0.348229 0.938628
O O16 0.750000 0.343738 0.000000
O O17 0.240201 0.250000 0.566233
O O18 0.250000 0.173181 0.500000
O O19 0.000000 0.190871 0.558167
#
# Coordination Sequence:
#
# PCOD9501755 Si02
#       7
#     8  16  16  16   8  16  16
#     4   9  21  38  54  75 107 140 169 205 256 305
#     4  10  19  34  52  75 107 141 172 209 259 311
#     4  10  20  36  56  81 106 133 168 210 260 310
#     4   9  19  34  55  78 104 136 172 211 255 308
#     4  11  21  32  51  81 108 134 168 211 256 303
#     4  11  22  38  57  77 103 136 172 212 253 303
#     4   9  17  30  48  70 101 138 174 212 253 299
#
# _framework density 17.646704
#
# number of rings (size 3 to 8) (size 9 to 14) (size 15 to 20)
#    0.000    2.167    0.833    2.500    0.000    2.333 
#    0.000    5.417    0.000    0.500    0.000    3.500 
#    0.000    0.000    0.000    0.000    0.000    0.000 
#
# Total GULP energy -267957.016977 kJ/mol
# GULP energy per Si atom -5582.437854 kJ/mol
# Density = 1.760654 g / cm^3
# Si number density = 17.646704 Si / 1000 Ang^3
#
#
#
# Elastic Constant Matrix: (Units=GPa)
#
#
# Indices 1 2 3 4 5 6 
#
# 1 19.7137 18.4515 22.7875 0.0000 0.0000 0.0000
# 2 18.4515 124.4668 93.4734 0.0000 0.0000 0.0000
# 3 22.7875 93.4734 158.9669 0.0000 0.0000 0.0000
# 4 0.0000 0.0000 0.0000 34.5993 0.0000 0.0000
# 5 0.0000 0.0000 0.0000 0.0000 23.8432 0.0000
# 6 0.0000 0.0000 0.0000 0.0000 0.0000 21.0179
#
#
#
# Elastic Compliance Matrix: (Units=1/GPa)
#
#
# Indices 1 2 3 4 5 6 
#
# 1 0.062190 -0.004521 -0.006257 0.000000 0.000000 0.000000
# 2 -0.004521 0.014716 -0.008005 0.000000 0.000000 0.000000
# 3 -0.006257 -0.008005 0.011895 0.000000 0.000000 0.000000
# 4 0.000000 0.000000 0.000000 0.028902 0.000000 0.000000
# 5 0.000000 0.000000 0.000000 0.000000 0.041941 0.000000
# 6 0.000000 0.000000 0.000000 0.000000 0.000000 0.047579
#
#
# Mechanical properties :
#
#
# Convention : Reuss Voigt Hill
#
# Bulk Modulus (GPa) = 19.51768 63.61911 41.56840
# Shear Modulus (GPa) = 19.09379 27.12109 23.10744
#
# Velocity S-wave (km/s) = 3.29295 3.92457 3.62255
# Velocity P-wave (km/s) = 5.05394 7.52770 6.41126
#
# Compressibility (1/GPa) = 0.05123560
#
# Stress axis : x y z
#
# Youngs Moduli (GPa) = 16.07988 67.95198 84.07178
#
# Poissons Ratio (x) = 0.30718 0.52600
# Poissons Ratio (y) = 0.07269 0.67301
# Poissons Ratio (z) = 0.10060 0.54397
#
# Static dielectric constant tensor:
#      x y z
#    x 1.600760 0.000000 0.000000 
#    y 0.000000 1.573400 0.000000 
#    z 0.000000 0.000000 1.596710 
# 
# From -- ./inp_files/40805.got.cif
#   From: 2010.05.17/outbox.cif.g08.bks.cpg/sg67_21_cif.got.tgz:40805.got - 2010.06.03 18:28:57.
