data_PCOD9501341
_publ_section_title
;
Structure prediction by ZEFSAII (Michael W. Deem and Ramdas Pophale) SiO2 
 PCOD9501341
Probable space group: C M M A
;
_chemical_formula_sum "Si O2"
_cell_formula_units_Z 72
_cell_length_a 16.050836
_cell_length_b 8.508919
_cell_length_c 26.000870
_cell_angle_alpha 90.000000
_cell_angle_beta 90.000000
_cell_angle_gamma 90.000000
_cell_volume 3551.075669
_symmetry_space_group_name_H-M "C M M A"
_symmetry_group_IT_number 67
_symmetry_cell_setting 'orthorhombic'
loop_
_space_group_symop_operation_xyz
x,y,z
-x,1/2-y,z
x,-y,-z
-x,1/2+y,-z
-x,-y,-z
x,1/2+y,-z
-x,y,z
x,1/2-y,z
1/2+x,1/2+y,z
1/2-x,-y,z
1/2+x,1/2-y,-z
1/2-x,y,-z
1/2-x,1/2-y,-z
1/2+x,y,-z
1/2-x,1/2+y,z
1/2+x,-y,z
loop_
_atom_site_type_symbol
_atom_site_label
_atom_site_fract_x
_atom_site_fract_y
_atom_site_fract_z
Si Si1 0.344502 0.439318 0.553116
Si Si2 0.099757 0.430673 0.336655
Si Si3 0.160702 0.936556 0.118536
Si Si4 0.598695 0.059409 0.774661
Si Si5 0.500000 0.062718 0.942087
O O1 0.384673 0.500000 0.500000
O O2 0.348096 0.250000 0.551881
O O3 0.250000 0.500000 0.552687
O O4 0.379607 0.499376 0.607658
O O5 0.130755 0.250000 0.338021
O O6 0.127953 0.499003 0.281820
O O7 0.000000 0.424941 0.332782
O O8 0.159789 0.750000 0.115002
O O9 0.250000 0.000000 0.100290
O O10 0.147266 0.988717 0.177631
O O11 0.082693 0.004040 0.087020
O O12 0.500000 0.022220 0.780816
O O13 0.605200 0.250000 0.775388
O O14 0.500000 0.250000 0.941704
O O15 0.500000 0.000000 0.000000
#
# Coordination Sequence:
#
# PCOD9501341 Si02
#       5
#    16  16  16  16   8
#     4  10  19  32  49  68  96 134 180 230 287 350
#     4   8  16  31  52  78 106 141 184 231 288 355
#     4  12  25  42  66  99 135 174 220 266 316 375
#     4   9  17  34  60  86 118 159 200 246 308 373
#     4  12  26  48  74 102 136 176 217 264 319 370
#
# _framework density 20.275545000000001
#
# number of rings (size 3 to 8) (size 9 to 14) (size 15 to 20)
#    0.000    2.000    1.111    5.667    0.000    1.778 
#    0.000    6.667    0.000    4.667    0.000    0.000 
#    0.000    0.000    0.000    0.000    0.000    0.000 
#
# Total GULP energy -200855.311724 kJ/mol
# GULP energy per Si atom -5579.314215 kJ/mol
# Density = 2.022940 g / cm^3
# Si number density = 20.275545 Si / 1000 Ang^3
#
#
#
# Elastic Constant Matrix: (Units=GPa)
#
#
# Indices 1 2 3 4 5 6 
#
# 1 95.4831 36.0040 65.8820 0.0000 0.0000 0.0000
# 2 36.0040 89.2846 47.9902 0.0000 0.0000 0.0000
# 3 65.8820 47.9902 184.2116 0.0000 0.0000 0.0000
# 4 0.0000 0.0000 0.0000 32.2071 0.0000 0.0000
# 5 0.0000 0.0000 0.0000 0.0000 11.1177 0.0000
# 6 0.0000 0.0000 0.0000 0.0000 0.0000 20.6814
#
#
#
# Elastic Compliance Matrix: (Units=1/GPa)
#
#
# Indices 1 2 3 4 5 6 
#
# 1 0.014859 -0.003646 -0.004364 0.000000 0.000000 0.000000
# 2 -0.003646 0.013919 -0.002322 0.000000 0.000000 0.000000
# 3 -0.004364 -0.002322 0.007594 0.000000 0.000000 0.000000
# 4 0.000000 0.000000 0.000000 0.031049 0.000000 0.000000
# 5 0.000000 0.000000 0.000000 0.000000 0.089947 0.000000
# 6 0.000000 0.000000 0.000000 0.000000 0.000000 0.048353
#
#
# Mechanical properties :
#
#
# Convention : Reuss Voigt Hill
#
# Bulk Modulus (GPa) = 63.66569 74.30351 68.98460
# Shear Modulus (GPa) = 21.58694 27.40811 24.49753
#
# Velocity S-wave (km/s) = 3.26648 3.68065 3.47973
# Velocity P-wave (km/s) = 6.75980 7.40198 7.08817
#
# Compressibility (1/GPa) = 0.01570705
#
# Stress axis : x y z
#
# Youngs Moduli (GPa) = 67.29779 71.84679 131.67643
#
# Poissons Ratio (x) = 0.26196 0.57470
# Poissons Ratio (y) = 0.24538 0.30575
# Poissons Ratio (z) = 0.29372 0.16683
#
# Static dielectric constant tensor:
#      x y z
#    x 1.695780 0.000000 0.000000 
#    y 0.000000 1.702710 0.000000 
#    z 0.000000 0.000000 1.773620 
# 
# From -- ./inp_files/44261.got.cif
#   From: 2010.05.17/outbox.cif.g08.bks.cpg/sg67_23_cif.got.tgz:44261.got - 2010.06.03 18:28:57.
