data_PCOD9501467
_publ_section_title
;
Structure prediction by ZEFSAII (Michael W. Deem and Ramdas Pophale) SiO2 
 PCOD9501467
Probable space group: C M M A
;
_chemical_formula_sum "Si O2"
_cell_formula_units_Z 80
_cell_length_a 15.740033
_cell_length_b 17.100149
_cell_length_c 12.428817
_cell_angle_alpha 90.000000
_cell_angle_beta 90.000000
_cell_angle_gamma 90.000000
_cell_volume 3345.301973
_symmetry_space_group_name_H-M "C M M A"
_symmetry_group_IT_number 67
_symmetry_cell_setting 'orthorhombic'
loop_
_space_group_symop_operation_xyz
x,y,z
-x,1/2-y,z
x,-y,-z
-x,1/2+y,-z
-x,-y,-z
x,1/2+y,-z
-x,y,z
x,1/2-y,z
1/2+x,1/2+y,z
1/2-x,-y,z
1/2+x,1/2-y,-z
1/2-x,y,-z
1/2-x,1/2-y,-z
1/2+x,y,-z
1/2-x,1/2+y,z
1/2+x,-y,z
loop_
_atom_site_type_symbol
_atom_site_label
_atom_site_fract_x
_atom_site_fract_y
_atom_site_fract_z
Si Si1 0.595882 0.540518 0.110636
Si Si2 0.155816 0.157895 0.972005
Si Si3 0.314326 0.336363 0.601780
Si Si4 0.144237 0.340129 0.723662
Si Si5 0.652543 0.995423 0.340171
O O1 0.500000 0.515537 0.135242
O O2 0.650347 0.524199 0.213923
O O3 0.624188 0.500000 0.000000
O O4 0.597775 0.628730 0.068995
O O5 0.159608 0.250000 0.973681
O O6 0.128082 0.140577 0.849180
O O7 0.250000 0.127735 0.000000
O O8 0.355186 0.250000 0.600679
O O9 0.250000 0.339151 0.500000
O O10 0.246142 0.338543 0.700742
O O11 0.374435 0.412922 0.605951
O O12 0.114966 0.250000 0.700394
O O13 0.113862 0.416700 0.655770
O O14 0.750000 0.000000 0.377223
#
# Coordination Sequence:
#
# PCOD9501467 Si02
#       5
#    16  16  16  16  16
#     4  11  23  35  50  77 113 151 190 236 292 347
#     4  10  19  32  52  75 103 142 187 231 281 342
#     4   9  18  32  51  81 114 137 171 231 292 339
#     4   9  17  29  45  70 101 134 175 222 268 326
#     4  10  19  32  55  79 104 147 188 231 281 347
#
# _framework density 23.914133
#
# number of rings (size 3 to 8) (size 9 to 14) (size 15 to 20)
#    0.000    2.200    2.000    2.400    0.000    6.400 
#    0.000    0.000    0.000    0.600    0.000   12.600 
#    0.000   17.600    0.000    0.000    0.000    0.000 
#
# Total GULP energy -222688.857322 kJ/mol
# GULP energy per Si atom -5567.221433 kJ/mol
# Density = 2.385970 g / cm^3
# Si number density = 23.914133 Si / 1000 Ang^3
#
#
#
# Elastic Constant Matrix: (Units=GPa)
#
#
# Indices 1 2 3 4 5 6 
#
# 1 34.5421 14.2957 9.9155 0.0000 0.0000 0.0000
# 2 14.2957 219.0129 25.7417 0.0000 0.0000 0.0000
# 3 9.9155 25.7417 90.6889 0.0000 0.0000 0.0000
# 4 0.0000 0.0000 0.0000 16.0349 0.0000 0.0000
# 5 0.0000 0.0000 0.0000 0.0000 -5.8055 0.0000
# 6 0.0000 0.0000 0.0000 0.0000 0.0000 3.6258
#
#
#
# Elastic Compliance Matrix: (Units=1/GPa)
#
#
# Indices 1 2 3 4 5 6 
#
# 1 0.030455 -0.001652 -0.002861 0.000000 0.000000 0.000000
# 2 -0.001652 0.004813 -0.001186 0.000000 0.000000 0.000000
# 3 -0.002861 -0.001186 0.011676 0.000000 0.000000 0.000000
# 4 0.000000 0.000000 0.000000 0.062364 0.000000 0.000000
# 5 0.000000 0.000000 0.000000 0.000000 -0.172251 0.000000
# 6 0.000000 0.000000 0.000000 0.000000 0.000000 0.275801
#
#
# Mechanical properties :
#
#
# Convention : Reuss Voigt Hill
#
# Bulk Modulus (GPa) = 28.13125 49.34997 38.74061
# Shear Modulus (GPa) = 21.17714 22.39046 21.78380
#
# Velocity S-wave (km/s) = 2.97905 3.06320 3.02141
# Velocity P-wave (km/s) = 4.86024 5.76125 5.32982
#
# Compressibility (1/GPa) = 0.03554766
#
# Stress axis : x y z
#
# Youngs Moduli (GPa) = 32.83537 207.76638 85.64550
#
# Poissons Ratio (x) = 0.34315 0.24503
# Poissons Ratio (y) = 0.05423 0.10154
# Poissons Ratio (z) = 0.09394 0.24633
#
# Static dielectric constant tensor:
#      x y z
#    x 1.915680 0.000000 0.000000 
#    y 0.000000 2.237690 0.000000 
#    z 0.000000 0.000000 1.942880 
# 
# From -- ./inp_files/28370.got.cif
#   From: 2010.05.17/outbox.cif.g08.bks.cpg/sg67_15_cif.got.tgz:28370.got - 2010.06.03 18:28:57.
