data_PCOD9501226
_publ_section_title
;
Structure prediction by ZEFSAII (Michael W. Deem and Ramdas Pophale) SiO2 
 PCOD9501226
Probable space group: C M M A
;
_chemical_formula_sum "Si O2"
_cell_formula_units_Z 112
_cell_length_a 16.199440
_cell_length_b 26.309913
_cell_length_c 16.483387
_cell_angle_alpha 90.000000
_cell_angle_beta 90.000000
_cell_angle_gamma 90.000000
_cell_volume 7025.316083
_symmetry_space_group_name_H-M "C M M A"
_symmetry_group_IT_number 67
_symmetry_cell_setting 'orthorhombic'
loop_
_space_group_symop_operation_xyz
x,y,z
-x,1/2-y,z
x,-y,-z
-x,1/2+y,-z
-x,-y,-z
x,1/2+y,-z
-x,y,z
x,1/2-y,z
1/2+x,1/2+y,z
1/2-x,-y,z
1/2+x,1/2-y,-z
1/2-x,y,-z
1/2-x,1/2-y,-z
1/2+x,y,-z
1/2-x,1/2+y,z
1/2+x,-y,z
loop_
_atom_site_type_symbol
_atom_site_label
_atom_site_fract_x
_atom_site_fract_y
_atom_site_fract_z
Si Si1 0.500000 0.188806 0.471817
Si Si2 0.653276 0.150793 0.176497
Si Si3 0.329041 0.688210 0.448537
Si Si4 0.591205 0.621349 0.137427
Si Si5 0.750684 0.060140 0.098139
Si Si6 0.849523 0.692370 0.003891
Si Si7 0.500000 0.312268 0.278684
Si Si8 0.321664 0.310378 0.740625
O O1 0.500000 0.250000 0.482290
O O2 0.584273 0.170113 0.513825
O O3 0.500000 0.179979 0.375583
O O4 0.680431 0.094865 0.142219
O O5 0.627768 0.181519 0.096119
O O6 0.579917 0.160480 0.239607
O O7 0.736149 0.174745 0.215161
O O8 0.329362 0.750000 0.453110
O O9 0.250000 0.670589 0.500000
O O10 0.319633 0.675554 0.353973
O O11 0.500000 0.599752 0.139287
O O12 0.663194 0.580355 0.133305
O O13 0.608272 0.658642 0.212563
O O14 0.605528 0.655033 0.057113
O O15 0.750000 0.000000 0.111840
O O16 0.750000 0.068509 0.000000
O O17 0.867252 0.750000 0.980247
O O18 0.750000 0.685243 0.000000
O O19 0.500000 0.250000 0.264628
O O20 0.333957 0.250000 0.747718
#
# Coordination Sequence:
#
# PCOD9501226 Si02
#       8
#     8  16  16  16  16  16   8  16
#     4   9  18  32  46  67 103 141 175 205 241 298
#     4  11  20  34  49  74 103 134 181 215 250 306
#     4   9  17  29  46  67  96 137 179 208 241 294
#     4  11  22  34  49  76 103 129 176 217 250 304
#     4  10  20  40  58  70  95 135 173 219 275 310
#     4  11  19  31  47  66 101 145 172 200 240 291
#     4  11  22  32  50  78 111 143 171 213 252 298
#     4  10  19  31  49  71 104 145 173 204 252 298
#
# _framework density 15.942342999999999
#
# number of rings (size 3 to 8) (size 9 to 14) (size 15 to 20)
#    0.000    1.714    4.286    2.571    2.000    3.429 
#    1.286    0.714    0.000    0.000    0.000    0.000 
#    0.000   41.143    0.000    0.000    0.000    0.000 
#
# Total GULP energy -312230.022677 kJ/mol
# GULP energy per Si atom -5575.536119 kJ/mol
# Density = 1.590606 g / cm^3
# Si number density = 15.942343 Si / 1000 Ang^3
#
#
#
# Elastic Constant Matrix: (Units=GPa)
#
#
# Indices 1 2 3 4 5 6 
#
# 1 77.1711 22.9542 30.7117 0.0000 0.0000 0.0000
# 2 22.9542 82.8308 22.8284 0.0000 0.0000 0.0000
# 3 30.7117 22.8284 106.9066 0.0000 0.0000 0.0000
# 4 0.0000 0.0000 0.0000 0.1389 0.0000 0.0000
# 5 0.0000 0.0000 0.0000 0.0000 12.5541 0.0000
# 6 0.0000 0.0000 0.0000 0.0000 0.0000 3.2522
#
#
#
# Elastic Compliance Matrix: (Units=1/GPa)
#
#
# Indices 1 2 3 4 5 6 
#
# 1 0.015408 -0.003241 -0.003734 0.000000 0.000000 0.000000
# 2 -0.003241 0.013509 -0.001954 0.000000 0.000000 0.000000
# 3 -0.003734 -0.001954 0.010844 0.000000 0.000000 0.000000
# 4 0.000000 0.000000 0.000000 7.201525 0.000000 0.000000
# 5 0.000000 0.000000 0.000000 0.000000 0.079655 0.000000
# 6 0.000000 0.000000 0.000000 0.000000 0.000000 0.307485
#
#
# Mechanical properties :
#
#
# Convention : Reuss Voigt Hill
#
# Bulk Modulus (GPa) = 45.65417 46.65522 46.15469
# Shear Modulus (GPa) = 0.65329 15.88332 8.26830
#
# Velocity S-wave (km/s) = 0.64084 3.15984 2.27983
# Velocity P-wave (km/s) = 5.40803 6.53003 5.99534
#
# Compressibility (1/GPa) = 0.02190381
#
# Stress axis : x y z
#
# Youngs Moduli (GPa) = 64.89982 74.02287 92.21720
#
# Poissons Ratio (x) = 0.23989 0.34438
# Poissons Ratio (y) = 0.21032 0.18017
# Poissons Ratio (z) = 0.24236 0.14462
#
# Static dielectric constant tensor:
#      x y z
#    x 1.600660 0.000000 0.000000 
#    y 0.000000 1.515860 0.000000 
#    z 0.000000 0.000000 1.537520 
# 
# From -- ./inp_files/27783.got.cif
#   From: 2010.05.17/outbox.cif.g08.bks.cpg/sg67_14_cif.got.tgz:27783.got - 2010.06.03 18:28:57.
