data_PCOD9501667
_publ_section_title
;
Structure prediction by ZEFSAII (Michael W. Deem and Ramdas Pophale) SiO2 
 PCOD9501667
Probable space group: C M M A
;
_chemical_formula_sum "Si O2"
_cell_formula_units_Z 116
_cell_length_a 7.772559
_cell_length_b 28.966867
_cell_length_c 24.473118
_cell_angle_alpha 90.000000
_cell_angle_beta 90.000000
_cell_angle_gamma 90.000000
_cell_volume 5510.041336
_symmetry_space_group_name_H-M "C M M A"
_symmetry_group_IT_number 67
_symmetry_cell_setting 'orthorhombic'
loop_
_space_group_symop_operation_xyz
x,y,z
-x,1/2-y,z
x,-y,-z
-x,1/2+y,-z
-x,-y,-z
x,1/2+y,-z
-x,y,z
x,1/2-y,z
1/2+x,1/2+y,z
1/2-x,-y,z
1/2+x,1/2-y,-z
1/2-x,y,-z
1/2-x,1/2-y,-z
1/2+x,y,-z
1/2-x,1/2+y,z
1/2+x,-y,z
loop_
_atom_site_type_symbol
_atom_site_label
_atom_site_fract_x
_atom_site_fract_y
_atom_site_fract_z
Si Si1 0.295119 0.053324 0.380651
Si Si2 0.198153 0.355162 0.438012
Si Si3 0.293873 0.549862 0.824688
Si Si4 0.700175 0.686033 0.062413
Si Si5 0.299131 0.801593 0.667668
Si Si6 0.289092 0.391294 0.273719
Si Si7 0.500000 0.250000 0.103001
Si Si8 0.293997 0.920624 0.940510
O O1 0.500000 0.057343 0.382680
O O2 0.225276 0.090821 0.423573
O O3 0.238062 0.072555 0.321303
O O4 0.250000 0.000000 0.389348
O O5 0.250000 0.346090 0.500000
O O6 0.292139 0.324367 0.392522
O O7 0.000000 0.343923 0.430992
O O8 0.500000 0.553526 0.826444
O O9 0.250000 0.500000 0.800974
O O10 0.230258 0.589945 0.784568
O O11 0.229175 0.553337 0.886704
O O12 0.500000 0.697826 0.072786
O O13 0.719086 0.630902 0.063777
O O14 0.845540 0.710157 0.098997
O O15 0.750000 0.699457 0.000000
O O16 0.500000 0.797541 0.682097
O O17 0.224196 0.750000 0.669184
O O18 0.225810 0.840861 0.707913
O O19 0.500000 0.390255 0.273560
O O20 0.500000 0.917012 0.938385
O O21 0.250000 0.940325 0.000000
#
# Coordination Sequence:
#
# PCOD9501667 Si02
#       8
#    16  16  16  16  16  16   4  16
#     4  10  19  33  54  80 113 147 188 233 286 347
#     4  11  22  36  53  77 112 151 196 241 285 330
#     4  10  21  36  59  84 114 145 185 232 286 345
#     4  11  20  31  51  77 109 148 184 233 282 328
#     4   9  18  35  60  85 112 148 189 230 282 340
#     4   8  16  33  56  84 114 142 179 231 283 340
#     4  12  20  32  50  82 112 136 202 228 278 326
#     4  10  20  37  54  76 113 152 191 237 291 351
#
# _framework density 21.052475000000001
#
# number of rings (size 3 to 8) (size 9 to 14) (size 15 to 20)
#    0.000    2.069    1.379    4.552    0.000    2.207 
#    0.000    5.517    1.517    0.000    0.000    0.000 
#    0.000    0.000    0.000    0.000    0.000    0.000 
#
# Total GULP energy -323151.572376 kJ/mol
# GULP energy per Si atom -5571.578834 kJ/mol
# Density = 2.100456 g / cm^3
# Si number density = 21.052475 Si / 1000 Ang^3
#
#
#
# Elastic Constant Matrix: (Units=GPa)
#
#
# Indices 1 2 3 4 5 6 
#
# 1 90.1264 -2.7250 0.9301 0.0000 0.0000 0.0000
# 2 -2.7250 140.4235 51.3444 0.0000 0.0000 0.0000
# 3 0.9301 51.3444 106.9322 0.0000 0.0000 0.0000
# 4 0.0000 0.0000 0.0000 26.1423 0.0000 0.0000
# 5 0.0000 0.0000 0.0000 0.0000 8.0331 0.0000
# 6 0.0000 0.0000 0.0000 0.0000 0.0000 9.1174
#
#
#
# Elastic Compliance Matrix: (Units=1/GPa)
#
#
# Indices 1 2 3 4 5 6 
#
# 1 0.011107 0.000304 -0.000243 0.000000 0.000000 0.000000
# 2 0.000304 0.008646 -0.004154 0.000000 0.000000 0.000000
# 3 -0.000243 -0.004154 0.011348 0.000000 0.000000 0.000000
# 4 0.000000 0.000000 0.000000 0.038252 0.000000 0.000000
# 5 0.000000 0.000000 0.000000 0.000000 0.124485 0.000000
# 6 0.000000 0.000000 0.000000 0.000000 0.000000 0.109680
#
#
# Mechanical properties :
#
#
# Convention : Reuss Voigt Hill
#
# Bulk Modulus (GPa) = 43.63635 48.50901 46.07268
# Shear Modulus (GPa) = 15.65714 27.85407 21.75560
#
# Velocity S-wave (km/s) = 2.73008 3.64136 3.21814
# Velocity P-wave (km/s) = 5.54168 6.38524 5.97836
#
# Compressibility (1/GPa) = 0.02291668
#
# Stress axis : x y z
#
# Youngs Moduli (GPa) = 90.03145 115.65848 88.11745
#
# Poissons Ratio (x) = -0.03519 0.02139
# Poissons Ratio (y) = -0.02740 0.36605
# Poissons Ratio (z) = 0.02185 0.48046
#
# Static dielectric constant tensor:
#      x y z
#    x 1.774870 0.000000 0.000000 
#    y 0.000000 1.799470 0.000000 
#    z 0.000000 0.000000 1.856600 
# 
# From -- ./inp_files/41229.got.cif
#   From: 2010.05.17/outbox.cif.g08.bks.cpg/sg67_21_cif.got.tgz:41229.got - 2010.06.03 18:28:57.
