data_PCOD9501594
_publ_section_title
;
Structure prediction by ZEFSAII (Michael W. Deem and Ramdas Pophale) SiO2 
 PCOD9501594
Probable space group: C M M A
;
_chemical_formula_sum "Si O2"
_cell_formula_units_Z 72
_cell_length_a 7.703983
_cell_length_b 32.825417
_cell_length_c 14.663216
_cell_angle_alpha 90.000000
_cell_angle_beta 90.000000
_cell_angle_gamma 90.000000
_cell_volume 3708.128706
_symmetry_space_group_name_H-M "C M M A"
_symmetry_group_IT_number 67
_symmetry_cell_setting 'orthorhombic'
loop_
_space_group_symop_operation_xyz
x,y,z
-x,1/2-y,z
x,-y,-z
-x,1/2+y,-z
-x,-y,-z
x,1/2+y,-z
-x,y,z
x,1/2-y,z
1/2+x,1/2+y,z
1/2-x,-y,z
1/2+x,1/2-y,-z
1/2-x,y,-z
1/2-x,1/2-y,-z
1/2+x,y,-z
1/2-x,1/2+y,z
1/2+x,-y,z
loop_
_atom_site_type_symbol
_atom_site_label
_atom_site_fract_x
_atom_site_fract_y
_atom_site_fract_z
Si Si1 0.795027 0.045788 0.893467
Si Si2 0.291360 0.704961 0.892683
Si Si3 0.291469 0.660949 0.605893
Si Si4 0.292017 0.750000 0.607667
Si Si5 0.786725 0.124053 0.786521
O O1 0.721750 0.083211 0.835182
O O2 0.000000 0.048850 0.887227
O O3 0.750000 0.000000 0.863672
O O4 0.750000 0.050094 0.000000
O O5 0.500000 0.705649 0.882184
O O6 0.227600 0.750000 0.862365
O O7 0.229648 0.664935 0.839753
O O8 0.250000 0.701064 0.000000
O O9 0.500000 0.662844 0.610096
O O10 0.250000 0.653704 0.500000
O O11 0.226056 0.705838 0.637541
O O12 0.233417 0.628724 0.681125
O O13 0.500000 0.750000 0.622906
O O14 0.250000 0.750000 0.500000
O O15 0.000000 0.123770 0.789302
#
# Coordination Sequence:
#
# PCOD9501594 Si02
#       5
#    16  16  16   8  16
#     4  10  19  33  52  74  98 123 153 193 238 283
#     4   9  17  29  45  65  92 125 157 187 223 271
#     4   9  17  30  46  67  93 123 158 196 234 273
#     4   8  14  24  42  62  85 116 152 190 227 264
#     4   9  18  30  48  71  94 123 158 193 230 279
#
# _framework density 19.416802000000001
#
# number of rings (size 3 to 8) (size 9 to 14) (size 15 to 20)
#    0.000    2.889    0.000    2.000    1.556    0.000 
#    0.000    4.444    0.000    0.667    0.000    4.667 
#    0.000    0.000    0.000    0.000    0.000    0.000 
#
# Total GULP energy -200645.288882 kJ/mol
# GULP energy per Si atom -5573.480247 kJ/mol
# Density = 1.937261 g / cm^3
# Si number density = 19.416802 Si / 1000 Ang^3
#
#
#
# Elastic Constant Matrix: (Units=GPa)
#
#
# Indices 1 2 3 4 5 6 
#
# 1 33.1240 12.4876 1.6280 0.0000 0.0000 0.0000
# 2 12.4876 182.2583 106.7782 0.0000 0.0000 0.0000
# 3 1.6280 106.7782 107.8117 0.0000 0.0000 0.0000
# 4 0.0000 0.0000 0.0000 28.4657 0.0000 0.0000
# 5 0.0000 0.0000 0.0000 0.0000 13.3662 0.0000
# 6 0.0000 0.0000 0.0000 0.0000 0.0000 -0.3505
#
#
#
# Elastic Compliance Matrix: (Units=1/GPa)
#
#
# Indices 1 2 3 4 5 6 
#
# 1 0.031692 -0.004505 0.003983 0.000000 0.000000 0.000000
# 2 -0.004505 0.013712 -0.013512 0.000000 0.000000 0.000000
# 3 0.003983 -0.013512 0.022598 0.000000 0.000000 0.000000
# 4 0.000000 0.000000 0.000000 0.035130 0.000000 0.000000
# 5 0.000000 0.000000 0.000000 0.000000 0.074815 0.000000
# 6 0.000000 0.000000 0.000000 0.000000 0.000000 -2.853451
#
#
# Mechanical properties :
#
#
# Convention : Reuss Voigt Hill
#
# Bulk Modulus (GPa) = 25.04136 62.77573 43.90854
# Shear Modulus (GPa) = -1.89816 21.78298 9.94241
#
# Velocity S-wave (km/s) = -0.98980 3.35305 2.26531
# Velocity P-wave (km/s) = 3.40859 6.88414 5.43185
#
# Compressibility (1/GPa) = 0.03993394
#
# Stress axis : x y z
#
# Youngs Moduli (GPa) = 31.55346 72.93063 44.25186
#
# Poissons Ratio (x) = 0.32856 -0.17627
# Poissons Ratio (y) = 0.14215 0.59794
# Poissons Ratio (z) = -0.12569 0.98545
#
# Static dielectric constant tensor:
#      x y z
#    x 1.726200 0.000000 0.000000 
#    y 0.000000 1.721640 0.000000 
#    z 0.000000 0.000000 1.712180 
# 
# From -- ./inp_files/25301.got.cif
#   From: 2010.05.17/outbox.cif.g08.bks.cpg/sg67_13_cif.got.tgz:25301.got - 2010.06.03 18:28:57.
