data_PCOD9501693
_publ_section_title
;
Structure prediction by ZEFSAII (Michael W. Deem and Ramdas Pophale) SiO2 
 PCOD9501693
Probable space group: C M M A
;
_chemical_formula_sum "Si O2"
_cell_formula_units_Z 96
_cell_length_a 27.677289
_cell_length_b 14.879912
_cell_length_c 13.472599
_cell_angle_alpha 90.000000
_cell_angle_beta 90.000000
_cell_angle_gamma 90.000000
_cell_volume 5548.496226
_symmetry_space_group_name_H-M "C M M A"
_symmetry_group_IT_number 67
_symmetry_cell_setting 'orthorhombic'
loop_
_space_group_symop_operation_xyz
x,y,z
-x,1/2-y,z
x,-y,-z
-x,1/2+y,-z
-x,-y,-z
x,1/2+y,-z
-x,y,z
x,1/2-y,z
1/2+x,1/2+y,z
1/2-x,-y,z
1/2+x,1/2-y,-z
1/2-x,y,-z
1/2-x,1/2-y,-z
1/2+x,y,-z
1/2-x,1/2+y,z
1/2+x,-y,z
loop_
_atom_site_type_symbol
_atom_site_label
_atom_site_fract_x
_atom_site_fract_y
_atom_site_fract_z
Si Si1 0.622767 0.418108 0.292843
Si Si2 0.266255 0.356795 0.813404
Si Si3 0.057241 0.554012 0.603810
Si Si4 0.944944 0.750000 0.325114
Si Si5 0.944927 0.250000 0.437787
Si Si6 0.281055 0.356292 0.402585
Si Si7 0.820405 0.978234 0.113328
O O1 0.591617 0.503398 0.322076
O O2 0.586298 0.335629 0.297735
O O3 0.668438 0.403227 0.368646
O O4 0.641031 0.429223 0.181501
O O5 0.271388 0.250000 0.836408
O O6 0.251211 0.363844 0.697404
O O7 0.224699 0.408311 0.877154
O O8 0.309728 0.425394 0.834344
O O9 0.060376 0.500000 0.500000
O O10 0.076270 0.655275 0.592819
O O11 0.000000 0.553321 0.629765
O O12 0.947811 0.750000 0.444068
O O13 0.000000 0.750000 0.287225
O O14 0.000000 0.250000 0.399744
O O15 0.292156 0.250000 0.417848
O O16 0.250000 0.386155 0.500000
O O17 0.831368 0.000000 0.000000
#
# Coordination Sequence:
#
# PCOD9501693 Si02
#       7
#    16  16  16   8   8  16  16
#     4  11  21  35  56  84 112 150 190 234 283 338
#     4   9  18  36  58  79 106 149 192 229 274 325
#     4  10  19  33  55  82 112 145 181 227 280 333
#     4  11  20  36  61  88 113 141 189 238 281 334
#     4   9  18  34  54  80 112 143 179 225 271 329
#     4   9  18  33  52  78 119 157 180 211 261 330
#     4  10  22  37  54  79 107 140 190 244 288 331
#
# _framework density 17.301984999999998
#
# number of rings (size 3 to 8) (size 9 to 14) (size 15 to 20)
#    0.000    2.167    2.500    1.500    1.167    2.667 
#    1.500    5.833    0.000    2.000    0.000    1.750 
#    0.000    0.000    0.000    0.000    0.000    0.000 
#
# Total GULP energy -267317.073665 kJ/mol
# GULP energy per Si atom -5569.105701 kJ/mol
# Density = 1.726261 g / cm^3
# Si number density = 17.301985 Si / 1000 Ang^3
#
#
#
# Elastic Constant Matrix: (Units=GPa)
#
#
# Indices 1 2 3 4 5 6 
#
# 1 60.7718 32.8249 34.9715 0.0000 0.0000 0.0000
# 2 32.8249 139.7073 25.5357 0.0000 0.0000 0.0000
# 3 34.9715 25.5357 74.5276 0.0000 0.0000 0.0000
# 4 0.0000 0.0000 0.0000 27.5394 0.0000 0.0000
# 5 0.0000 0.0000 0.0000 0.0000 13.3580 0.0000
# 6 0.0000 0.0000 0.0000 0.0000 0.0000 45.4545
#
#
#
# Elastic Compliance Matrix: (Units=1/GPa)
#
#
# Indices 1 2 3 4 5 6 
#
# 1 0.024364 -0.003878 -0.010104 0.000000 0.000000 0.000000
# 2 -0.003878 0.008253 -0.001008 0.000000 0.000000 0.000000
# 3 -0.010104 -0.001008 0.018505 0.000000 0.000000 0.000000
# 4 0.000000 0.000000 0.000000 0.036312 0.000000 0.000000
# 5 0.000000 0.000000 0.000000 0.000000 0.074862 0.000000
# 6 0.000000 0.000000 0.000000 0.000000 0.000000 0.022000
#
#
# Mechanical properties :
#
#
# Convention : Reuss Voigt Hill
#
# Bulk Modulus (GPa) = 47.29954 51.29678 49.29816
# Shear Modulus (GPa) = 22.59156 29.38202 25.98679
#
# Velocity S-wave (km/s) = 3.61740 4.12538 3.87971
# Velocity P-wave (km/s) = 6.69660 7.23906 6.97310
#
# Compressibility (1/GPa) = 0.02114186
#
# Stress axis : x y z
#
# Youngs Moduli (GPa) = 41.04456 121.16545 54.04087
#
# Poissons Ratio (x) = 0.46983 0.54602
# Poissons Ratio (y) = 0.15915 0.05449
# Poissons Ratio (z) = 0.41471 0.12217
#
# Static dielectric constant tensor:
#      x y z
#    x 1.610160 0.000000 0.000000 
#    y 0.000000 1.594390 0.000000 
#    z 0.000000 0.000000 1.574680 
# 
# From -- ./inp_files/23733.got.cif
#   From: 2010.05.17/outbox.cif.g08.bks.cpg/sg67_12_cif.got.tgz:23733.got - 2010.06.03 18:28:57.
