data_PCOD9501564
_publ_section_title
;
Structure prediction by ZEFSAII (Michael W. Deem and Ramdas Pophale) SiO2 
 PCOD9501564
Probable space group: C M M A
;
_chemical_formula_sum "Si O2"
_cell_formula_units_Z 88
_cell_length_a 25.804733
_cell_length_b 8.812860
_cell_length_c 26.146705
_cell_angle_alpha 90.000000
_cell_angle_beta 90.000000
_cell_angle_gamma 90.000000
_cell_volume 5946.113678
_symmetry_space_group_name_H-M "C M M A"
_symmetry_group_IT_number 67
_symmetry_cell_setting 'orthorhombic'
loop_
_space_group_symop_operation_xyz
x,y,z
-x,1/2-y,z
x,-y,-z
-x,1/2+y,-z
-x,-y,-z
x,1/2+y,-z
-x,y,z
x,1/2-y,z
1/2+x,1/2+y,z
1/2-x,-y,z
1/2+x,1/2-y,-z
1/2-x,y,-z
1/2-x,1/2-y,-z
1/2+x,y,-z
1/2-x,1/2+y,z
1/2+x,-y,z
loop_
_atom_site_type_symbol
_atom_site_label
_atom_site_fract_x
_atom_site_fract_y
_atom_site_fract_z
Si Si1 0.438348 0.567961 0.052405
Si Si2 0.306794 0.931784 0.444785
Si Si3 0.500000 0.067764 0.443478
Si Si4 0.062652 0.070600 0.163826
Si Si5 0.397592 0.066179 0.378839
Si Si6 0.439802 0.567648 0.730181
O O1 0.500000 0.531859 0.052658
O O2 0.433954 0.750000 0.050738
O O3 0.418022 0.515797 0.108060
O O4 0.416276 0.500000 0.000000
O O5 0.304222 0.750000 0.447945
O O6 0.322694 0.000000 0.500000
O O7 0.250000 0.000000 0.433840
O O8 0.348169 0.986695 0.403398
O O9 0.500000 0.250000 0.447329
O O10 0.448591 0.025216 0.411875
O O11 0.500000 0.000000 0.500000
O O12 0.072773 0.250000 0.167292
O O13 0.000000 0.051469 0.162968
O O14 0.080872 0.991457 0.215587
O O15 0.391834 0.250000 0.381146
O O16 0.408398 0.021754 0.320137
O O17 0.500000 0.517310 0.724323
O O18 0.440485 0.750000 0.731394
#
# Coordination Sequence:
#
# PCOD9501564 Si02
#       6
#    16  16   8  16  16  16
#     4   8  13  20  29  42  62  89 124 168 213 249
#     4  11  22  37  55  73  90 112 141 176 217 261
#     4  10  20  32  46  64  90 118 141 170 211 254
#     4   8  14  23  33  47  70  99 131 171 213 249
#     4  10  19  33  49  67  92 118 144 178 215 255
#     4   9  16  27  42  59  81 111 143 173 208 250
#
# _framework density 14.799583
#
# number of rings (size 3 to 8) (size 9 to 14) (size 15 to 20)
#    0.000    2.727    0.909    3.818    0.000    3.636 
#    0.000    3.636    0.000    0.000    0.000    0.000 
#    0.000    0.000    0.000    0.000    0.000    0.909 
#
# Total GULP energy -244989.623102 kJ/mol
# GULP energy per Si atom -5567.945980 kJ/mol
# Density = 1.476590 g / cm^3
# Si number density = 14.799583 Si / 1000 Ang^3
#
#
#
# Elastic Constant Matrix: (Units=GPa)
#
#
# Indices 1 2 3 4 5 6 
#
# 1 34.5012 21.0679 48.6388 0.0000 0.0000 0.0000
# 2 21.0679 36.6311 46.1712 0.0000 0.0000 0.0000
# 3 48.6388 46.1712 180.4507 0.0000 0.0000 0.0000
# 4 0.0000 0.0000 0.0000 28.0213 0.0000 0.0000
# 5 0.0000 0.0000 0.0000 0.0000 9.1327 0.0000
# 6 0.0000 0.0000 0.0000 0.0000 0.0000 13.5125
#
#
#
# Elastic Compliance Matrix: (Units=1/GPa)
#
#
# Indices 1 2 3 4 5 6 
#
# 1 0.054363 -0.018889 -0.009820 0.000000 0.000000 0.000000
# 2 -0.018889 0.046857 -0.006898 0.000000 0.000000 0.000000
# 3 -0.009820 -0.006898 0.009954 0.000000 0.000000 0.000000
# 4 0.000000 0.000000 0.000000 0.035687 0.000000 0.000000
# 5 0.000000 0.000000 0.000000 0.000000 0.109497 0.000000
# 6 0.000000 0.000000 0.000000 0.000000 0.000000 0.074005
#
#
# Mechanical properties :
#
#
# Convention : Reuss Voigt Hill
#
# Bulk Modulus (GPa) = 25.02480 53.70433 39.36457
# Shear Modulus (GPa) = 12.05123 19.18031 15.61577
#
# Velocity S-wave (km/s) = 2.85668 3.60391 3.25183
# Velocity P-wave (km/s) = 5.27510 7.32694 6.38399
#
# Compressibility (1/GPa) = 0.03996035
#
# Stress axis : x y z
#
# Youngs Moduli (GPa) = 18.39500 21.34148 100.46700
#
# Poissons Ratio (x) = 0.40311 0.98659
# Poissons Ratio (y) = 0.34745 0.69301
# Poissons Ratio (z) = 0.18064 0.14721
#
# Static dielectric constant tensor:
#      x y z
#    x 1.461120 0.000000 0.000000 
#    y 0.000000 1.500820 0.000000 
#    z 0.000000 0.000000 1.528500 
# 
# From -- ./inp_files/44598.got.cif
#   From: 2010.05.17/outbox.cif.g08.bks.cpg/sg67_23_cif.got.tgz:44598.got - 2010.06.03 18:28:57.
