data_PCOD9501017
_publ_section_title
;
Structure prediction by ZEFSAII (Michael W. Deem and Ramdas Pophale) SiO2 
 PCOD9501017
Probable space group: C M M A
;
_chemical_formula_sum "Si O2"
_cell_formula_units_Z 104
_cell_length_a 26.257316
_cell_length_b 8.931928
_cell_length_c 28.435498
_cell_angle_alpha 90.000000
_cell_angle_beta 90.000000
_cell_angle_gamma 90.000000
_cell_volume 6668.933441
_symmetry_space_group_name_H-M "C M M A"
_symmetry_group_IT_number 67
_symmetry_cell_setting 'orthorhombic'
loop_
_space_group_symop_operation_xyz
x,y,z
-x,1/2-y,z
x,-y,-z
-x,1/2+y,-z
-x,-y,-z
x,1/2+y,-z
-x,y,z
x,1/2-y,z
1/2+x,1/2+y,z
1/2-x,-y,z
1/2+x,1/2-y,-z
1/2-x,y,-z
1/2-x,1/2-y,-z
1/2+x,y,-z
1/2-x,1/2+y,z
1/2+x,-y,z
loop_
_atom_site_type_symbol
_atom_site_label
_atom_site_fract_x
_atom_site_fract_y
_atom_site_fract_z
Si Si1 0.693138 0.929455 0.046694
Si Si2 0.805760 0.928205 0.850351
Si Si3 0.153615 0.924850 0.243080
Si Si4 0.405426 0.924733 0.383764
Si Si5 0.195449 0.569971 0.345508
Si Si6 0.558845 0.419816 0.722986
Si Si7 0.000000 0.432056 0.448267
O O1 0.696690 0.750000 0.041532
O O2 0.670257 0.963699 0.098264
O O3 0.750000 0.000000 0.048406
O O4 0.668406 0.000000 0.000000
O O5 0.801298 0.750000 0.847691
O O6 0.750000 0.000000 0.850014
O O7 0.832340 0.988781 0.803965
O O8 0.163925 0.750000 0.236655
O O9 0.182802 0.974270 0.290981
O O10 0.094934 0.959045 0.253802
O O11 0.393736 0.750000 0.393597
O O12 0.432974 0.930631 0.333012
O O13 0.448068 0.977765 0.420855
O O14 0.352195 0.011953 0.376757
O O15 0.197500 0.750000 0.347539
O O16 0.250000 0.500000 0.358527
O O17 0.500000 0.438294 0.734331
O O18 0.574910 0.250000 0.736477
O O19 0.000000 0.500000 0.500000
O O20 0.000000 0.250000 0.449023
#
# Coordination Sequence:
#
# PCOD9501017 Si02
#       7
#    16  16  16  16  16  16   8
#     4   9  16  25  38  55  75 103 141 182 224 268
#     4  10  19  29  41  58  83 116 151 187 225 268
#     4  10  20  30  42  64  92 122 155 189 228 272
#     4   9  17  32  52  73  98 128 161 194 231 279
#     4  10  20  32  47  70  97 128 164 198 234 277
#     4   9  16  29  49  68  89 120 154 187 225 270
#     4  10  20  34  54  80 106 130 158 194 239 284
#
# _framework density 15.594697999999999
#
# number of rings (size 3 to 8) (size 9 to 14) (size 15 to 20)
#    0.000    2.462    0.769    2.769    0.000    5.846 
#    0.000    0.000    0.000    0.462    0.000    3.231 
#    0.000    0.615    0.000    2.000    0.000    2.769 
#
# Total GULP energy -289550.280239 kJ/mol
# GULP energy per Si atom -5568.274620 kJ/mol
# Density = 1.555920 g / cm^3
# Si number density = 15.594698 Si / 1000 Ang^3
#
#
#
# Elastic Constant Matrix: (Units=GPa)
#
#
# Indices 1 2 3 4 5 6 
#
# 1 80.2506 30.1707 44.0772 0.0000 0.0000 0.0000
# 2 30.1707 47.0759 39.3463 0.0000 0.0000 0.0000
# 3 44.0772 39.3463 104.4502 0.0000 0.0000 0.0000
# 4 0.0000 0.0000 0.0000 26.6506 0.0000 0.0000
# 5 0.0000 0.0000 0.0000 0.0000 -0.7484 0.0000
# 6 0.0000 0.0000 0.0000 0.0000 0.0000 21.8891
#
#
#
# Elastic Compliance Matrix: (Units=1/GPa)
#
#
# Indices 1 2 3 4 5 6 
#
# 1 0.017875 -0.007519 -0.004711 0.000000 0.000000 0.000000
# 2 -0.007519 0.034166 -0.009698 0.000000 0.000000 0.000000
# 3 -0.004711 -0.009698 0.015215 0.000000 0.000000 0.000000
# 4 0.000000 0.000000 0.000000 0.037523 0.000000 0.000000
# 5 0.000000 0.000000 0.000000 0.000000 -1.336095 0.000000
# 6 0.000000 0.000000 0.000000 0.000000 0.000000 0.045685
#
#
# Mechanical properties :
#
#
# Convention : Reuss Voigt Hill
#
# Bulk Modulus (GPa) = 42.73130 50.99613 46.86371
# Shear Modulus (GPa) = -4.40926 17.43708 6.51391
#
# Velocity S-wave (km/s) = -1.68332 3.34749 2.04599
# Velocity P-wave (km/s) = 4.86648 6.90745 5.97476
#
# Compressibility (1/GPa) = 0.02340205
#
# Stress axis : x y z
#
# Youngs Moduli (GPa) = 55.94382 29.26864 65.72473
#
# Poissons Ratio (x) = 0.22006 0.30962
# Poissons Ratio (y) = 0.42062 0.63737
# Poissons Ratio (z) = 0.26354 0.28384
#
# Static dielectric constant tensor:
#      x y z
#    x 1.508660 0.000000 0.000000 
#    y 0.000000 1.501560 0.000000 
#    z 0.000000 0.000000 1.548190 
# 
# From -- ./inp_files/40988.got.cif
#   From: 2010.05.17/outbox.cif.g08.bks.cpg/sg67_21_cif.got.tgz:40988.got - 2010.06.03 18:28:57.
