data_PCOD9501808
_publ_section_title
;
Structure prediction by ZEFSAII (Michael W. Deem and Ramdas Pophale) SiO2 
 PCOD9501808
Probable space group: C M M A
;
_chemical_formula_sum "Si O2"
_cell_formula_units_Z 64
_cell_length_a 39.113222
_cell_length_b 10.352689
_cell_length_c 8.841772
_cell_angle_alpha 90.000000
_cell_angle_beta 90.000000
_cell_angle_gamma 90.000000
_cell_volume 3580.272415
_symmetry_space_group_name_H-M "C M M A"
_symmetry_group_IT_number 67
_symmetry_cell_setting 'orthorhombic'
loop_
_space_group_symop_operation_xyz
x,y,z
-x,1/2-y,z
x,-y,-z
-x,1/2+y,-z
-x,-y,-z
x,1/2+y,-z
-x,y,z
x,1/2-y,z
1/2+x,1/2+y,z
1/2-x,-y,z
1/2+x,1/2-y,-z
1/2-x,y,-z
1/2-x,1/2-y,-z
1/2+x,y,-z
1/2-x,1/2+y,z
1/2+x,-y,z
loop_
_atom_site_type_symbol
_atom_site_label
_atom_site_fract_x
_atom_site_fract_y
_atom_site_fract_z
Si Si1 0.715246 0.250000 0.179997
Si Si2 0.293352 0.250000 0.812490
Si Si3 0.101446 0.402598 0.639940
Si Si4 0.539589 0.102083 0.131654
Si Si5 0.168411 0.489847 0.817693
O O1 0.753975 0.250000 0.238619
O O2 0.695177 0.378202 0.224966
O O3 0.712063 0.250000 0.995768
O O4 0.315037 0.375104 0.767950
O O5 0.100522 0.500000 0.500000
O O6 0.106190 0.250000 0.600905
O O7 0.066267 0.413431 0.733401
O O8 0.132594 0.450115 0.745400
O O9 0.500000 0.084509 0.179073
O O10 0.543052 0.250000 0.074940
O O11 0.546928 0.000000 0.000000
O O12 0.164795 0.500000 0.000000
#
# Coordination Sequence:
#
# PCOD9501808 Si02
#       5
#     8   8  16  16  16
#     4   9  16  32  51  83 114 137 174 235 285 334
#     4   9  18  28  55  85 108 137 182 227 289 338
#     4  11  24  39  55  79 114 154 190 229 272 324
#     4   9  19  38  63  90 117 144 180 227 276 327
#     4  10  19  34  56  82 110 143 182 234 282 333
#
# _framework density 17.875734999999999
#
# number of rings (size 3 to 8) (size 9 to 14) (size 15 to 20)
#    0.000    2.250    1.250    1.500    1.750    4.500 
#    0.000    0.000    0.000    4.500    0.000    0.000 
#    0.000    0.000    0.000    0.000    0.000    0.000 
#
# Total GULP energy -178439.889375 kJ/mol
# GULP energy per Si atom -5576.246543 kJ/mol
# Density = 1.783505 g / cm^3
# Si number density = 17.875735 Si / 1000 Ang^3
#
#
#
# Elastic Constant Matrix: (Units=GPa)
#
#
# Indices 1 2 3 4 5 6 
#
# 1 109.5159 85.2870 50.5045 0.0000 0.0000 0.0000
# 2 85.2870 184.0431 62.1774 0.0000 0.0000 0.0000
# 3 50.5045 62.1774 47.4855 0.0000 0.0000 0.0000
# 4 0.0000 0.0000 0.0000 19.6724 0.0000 0.0000
# 5 0.0000 0.0000 0.0000 0.0000 -9.5336 0.0000
# 6 0.0000 0.0000 0.0000 0.0000 0.0000 27.8827
#
#
#
# Elastic Compliance Matrix: (Units=1/GPa)
#
#
# Indices 1 2 3 4 5 6 
#
# 1 0.019148 -0.003574 -0.015685 0.000000 0.000000 0.000000
# 2 -0.003574 0.010411 -0.009831 0.000000 0.000000 0.000000
# 3 -0.015685 -0.009831 0.050614 0.000000 0.000000 0.000000
# 4 0.000000 0.000000 0.000000 0.050833 0.000000 0.000000
# 5 0.000000 0.000000 0.000000 0.000000 -0.104892 0.000000
# 6 0.000000 0.000000 0.000000 0.000000 0.000000 0.035865
#
#
# Mechanical properties :
#
#
# Convention : Reuss Voigt Hill
#
# Bulk Modulus (GPa) = 45.47015 81.88695 63.67855
# Shear Modulus (GPa) = 39.21879 17.14266 28.18072
#
# Velocity S-wave (km/s) = 4.68906 3.10012 3.97480
# Velocity P-wave (km/s) = 7.40327 7.66308 7.53429
#
# Compressibility (1/GPa) = 0.02199245
#
# Stress axis : x y z
#
# Youngs Moduli (GPa) = 52.22476 96.05153 19.75734
#
# Poissons Ratio (x) = 0.34330 0.30990
# Poissons Ratio (y) = 0.18666 0.19423
# Poissons Ratio (z) = 0.81916 0.94427
#
# Static dielectric constant tensor:
#      x y z
#    x 1.596990 0.000000 0.000000 
#    y 0.000000 1.610100 0.000000 
#    z 0.000000 0.000000 1.595210 
# 
# From -- ./inp_files/6754.got.cif
#   From: 2010.05.17/outbox.cif.g08.bks.cpg/sg67_4_cif.got.tgz:6754.got - 2010.06.03 18:28:57.
