data_PCOD9501632
_publ_section_title
;
Structure prediction by ZEFSAII (Michael W. Deem and Ramdas Pophale) SiO2 
 PCOD9501632
Probable space group: C M M A
;
_chemical_formula_sum "Si O2"
_cell_formula_units_Z 96
_cell_length_a 8.700798
_cell_length_b 26.319108
_cell_length_c 24.046926
_cell_angle_alpha 90.000000
_cell_angle_beta 90.000000
_cell_angle_gamma 90.000000
_cell_volume 5506.679739
_symmetry_space_group_name_H-M "C M M A"
_symmetry_group_IT_number 67
_symmetry_cell_setting 'orthorhombic'
loop_
_space_group_symop_operation_xyz
x,y,z
-x,1/2-y,z
x,-y,-z
-x,1/2+y,-z
-x,-y,-z
x,1/2+y,-z
-x,y,z
x,1/2-y,z
1/2+x,1/2+y,z
1/2-x,-y,z
1/2+x,1/2-y,-z
1/2-x,y,-z
1/2-x,1/2-y,-z
1/2+x,y,-z
1/2-x,1/2+y,z
1/2+x,-y,z
loop_
_atom_site_type_symbol
_atom_site_label
_atom_site_fract_x
_atom_site_fract_y
_atom_site_fract_z
Si Si1 0.815237 0.348589 0.561772
Si Si2 0.814847 0.250000 0.633017
Si Si3 0.815061 0.945117 0.756026
Si Si4 0.315318 0.444540 0.626798
Si Si5 0.316144 0.690665 0.940182
Si Si6 0.185930 0.848741 0.827667
Si Si7 0.185352 0.250000 0.243095
O O1 0.750000 0.342663 0.500000
O O2 0.767545 0.300435 0.599438
O O3 0.752573 0.400105 0.589188
O O4 0.000000 0.350134 0.559814
O O5 0.748952 0.250000 0.694851
O O6 0.000000 0.250000 0.636106
O O7 0.771746 0.935010 0.691594
O O8 0.764076 0.899847 0.796244
O O9 0.000000 0.947165 0.757637
O O10 0.750000 0.000000 0.771780
O O11 0.500000 0.445002 0.622798
O O12 0.250000 0.500000 0.611697
O O13 0.500000 0.688406 0.941458
O O14 0.269995 0.750000 0.931369
O O15 0.252014 0.658491 0.889043
O O16 0.250000 0.675077 0.000000
O O17 0.233443 0.800134 0.790696
O O18 0.000000 0.848615 0.830630
O O19 0.000000 0.250000 0.245795
#
# Coordination Sequence:
#
# PCOD9501632 Si02
#       7
#    16   8  16  16  16  16   8
#     4  11  23  39  57  79 105 139 179 221 268 319
#     4  10  23  39  55  77 109 142 177 220 266 318
#     4   9  19  34  54  79 107 141 178 215 261 314
#     4  10  20  37  59  83 110 139 175 220 270 323
#     4  10  20  33  51  76 108 145 182 219 263 312
#     4  10  19  33  53  79 110 142 178 218 261 313
#     4  10  20  33  54  81 109 140 174 216 267 318
#
# _framework density 17.433371999999999
#
# number of rings (size 3 to 8) (size 9 to 14) (size 15 to 20)
#    0.000    2.000    0.833    2.750    0.000    5.667 
#    0.000    1.667    0.000    0.500    0.000    3.500 
#    0.000    0.000    0.000    0.000    0.000    0.000 
#
# Total GULP energy -268078.200080 kJ/mol
# GULP energy per Si atom -5584.962502 kJ/mol
# Density = 1.739369 g / cm^3
# Si number density = 17.433372 Si / 1000 Ang^3
#
#
#
# Elastic Constant Matrix: (Units=GPa)
#
#
# Indices 1 2 3 4 5 6 
#
# 1 29.0789 27.6838 31.2830 0.0000 0.0000 0.0000
# 2 27.6838 109.2445 80.1631 0.0000 0.0000 0.0000
# 3 31.2830 80.1631 142.6764 0.0000 0.0000 0.0000
# 4 0.0000 0.0000 0.0000 0.0414 0.0000 0.0000
# 5 0.0000 0.0000 0.0000 0.0000 33.6558 0.0000
# 6 0.0000 0.0000 0.0000 0.0000 0.0000 24.3796
#
#
#
# Elastic Compliance Matrix: (Units=1/GPa)
#
#
# Indices 1 2 3 4 5 6 
#
# 1 0.048476 -0.007631 -0.006341 0.000000 0.000000 0.000000
# 2 -0.007631 0.016777 -0.007753 0.000000 0.000000 0.000000
# 3 -0.006341 -0.007753 0.012755 0.000000 0.000000 0.000000
# 4 0.000000 0.000000 0.000000 24.170622 0.000000 0.000000
# 5 0.000000 0.000000 0.000000 0.000000 0.029713 0.000000
# 6 0.000000 0.000000 0.000000 0.000000 0.000000 0.041018
#
#
# Mechanical properties :
#
#
# Convention : Reuss Voigt Hill
#
# Bulk Modulus (GPa) = 28.93735 62.13996 45.53865
# Shear Modulus (GPa) = 0.20513 21.07334 10.63924
#
# Velocity S-wave (km/s) = 0.34340 3.48054 2.47306
# Velocity P-wave (km/s) = 4.09782 7.20235 5.85944
#
# Compressibility (1/GPa) = 0.03455742
#
# Stress axis : x y z
#
# Youngs Moduli (GPa) = 20.62875 59.60698 78.40002
#
# Poissons Ratio (x) = 0.45488 0.49714
# Poissons Ratio (y) = 0.15742 0.60781
# Poissons Ratio (z) = 0.13081 0.46212
#
# Static dielectric constant tensor:
#      x y z
#    x 1.588860 0.000000 0.000000 
#    y 0.000000 1.574650 0.000000 
#    z 0.000000 0.000000 1.565450 
# 
# From -- ./inp_files/40821.got.cif
#   From: 2010.05.17/outbox.cif.g08.bks.cpg/sg67_21_cif.got.tgz:40821.got - 2010.06.03 18:28:57.
