data_PCOD9501763
_publ_section_title
;
Structure prediction by ZEFSAII (Michael W. Deem and Ramdas Pophale) SiO2 
 PCOD9501763
Probable space group: C M M A
;
_chemical_formula_sum "Si O2"
_cell_formula_units_Z 68
_cell_length_a 25.318992
_cell_length_b 8.110070
_cell_length_c 14.309599
_cell_angle_alpha 90.000000
_cell_angle_beta 90.000000
_cell_angle_gamma 90.000000
_cell_volume 2938.315851
_symmetry_space_group_name_H-M "C M M A"
_symmetry_group_IT_number 67
_symmetry_cell_setting 'orthorhombic'
loop_
_space_group_symop_operation_xyz
x,y,z
-x,1/2-y,z
x,-y,-z
-x,1/2+y,-z
-x,-y,-z
x,1/2+y,-z
-x,y,z
x,1/2-y,z
1/2+x,1/2+y,z
1/2-x,-y,z
1/2+x,1/2-y,-z
1/2-x,y,-z
1/2-x,1/2-y,-z
1/2+x,y,-z
1/2-x,1/2+y,z
1/2+x,-y,z
loop_
_atom_site_type_symbol
_atom_site_label
_atom_site_fract_x
_atom_site_fract_y
_atom_site_fract_z
Si Si1 0.807742 0.057597 0.639217
Si Si2 0.079868 0.437827 0.400298
Si Si3 0.170765 0.941700 0.140953
Si Si4 0.250000 0.500000 0.000000
Si Si5 0.558417 0.950068 0.192250
O O1 0.815718 0.250000 0.616907
O O2 0.812288 0.038220 0.751462
O O3 0.750000 0.000000 0.609662
O O4 0.856598 0.955472 0.599719
O O5 0.060550 0.500000 0.500000
O O6 0.063845 0.250000 0.394550
O O7 0.062657 0.512733 0.300526
O O8 0.180969 0.750000 0.114435
O O9 0.206407 0.057831 0.076231
O O10 0.108567 0.979127 0.137787
O O11 0.500000 0.991835 0.156683
O O12 0.563596 0.750000 0.192976
#
# Coordination Sequence:
#
# PCOD9501763 Si02
#       5
#    16  16  16   4  16
#     4  10  19  34  53  77 111 152 193 235 288 346
#     4  10  20  34  53  81 114 150 194 242 288 337
#     4  10  22  37  59  90 120 152 192 238 290 349
#     4  12  22  40  62  94 124 152 184 236 294 352
#     4   9  20  40  63  85 116 158 198 239 291 345
#
# _framework density 23.142509
#
# number of rings (size 3 to 8) (size 9 to 14) (size 15 to 20)
#    0.000    2.118    1.176    1.765    0.000    5.176 
#    0.000    2.941    0.000    0.000    0.000    0.000 
#    0.000    0.000    0.000    0.000    0.000    0.000 
#
# Total GULP energy -189682.316056 kJ/mol
# GULP energy per Si atom -5578.891649 kJ/mol
# Density = 2.308984 g / cm^3
# Si number density = 23.142509 Si / 1000 Ang^3
#
#
#
# Elastic Constant Matrix: (Units=GPa)
#
#
# Indices 1 2 3 4 5 6 
#
# 1 198.5393 20.9483 28.2418 0.0000 0.0000 0.0000
# 2 20.9483 51.0155 25.3555 0.0000 0.0000 0.0000
# 3 28.2418 25.3555 80.9320 0.0000 0.0000 0.0000
# 4 0.0000 0.0000 0.0000 4.4777 0.0000 0.0000
# 5 0.0000 0.0000 0.0000 0.0000 59.9987 0.0000
# 6 0.0000 0.0000 0.0000 0.0000 0.0000 8.7743
#
#
#
# Elastic Compliance Matrix: (Units=1/GPa)
#
#
# Indices 1 2 3 4 5 6 
#
# 1 0.005397 -0.001516 -0.001408 0.000000 0.000000 0.000000
# 2 -0.001516 0.023643 -0.006878 0.000000 0.000000 0.000000
# 3 -0.001408 -0.006878 0.015002 0.000000 0.000000 0.000000
# 4 0.000000 0.000000 0.000000 0.223328 0.000000 0.000000
# 5 0.000000 0.000000 0.000000 0.000000 0.016667 0.000000
# 6 0.000000 0.000000 0.000000 0.000000 0.000000 0.113970
#
#
# Mechanical properties :
#
#
# Convention : Reuss Voigt Hill
#
# Bulk Modulus (GPa) = 40.92132 53.28646 47.10389
# Shear Modulus (GPa) = 11.74375 31.71287 21.72831
#
# Velocity S-wave (km/s) = 2.25512 3.70581 3.06746
# Velocity P-wave (km/s) = 4.94989 6.43320 5.73967
#
# Compressibility (1/GPa) = 0.02443714
#
# Stress axis : x y z
#
# Youngs Moduli (GPa) = 185.28475 42.29572 66.65606
#
# Poissons Ratio (x) = 0.06413 0.09387
# Poissons Ratio (y) = 0.28093 0.45847
# Poissons Ratio (z) = 0.26094 0.29092
#
# Static dielectric constant tensor:
#      x y z
#    x 1.846970 0.000000 0.000000 
#    y 0.000000 1.909840 0.000000 
#    z 0.000000 0.000000 1.891160 
# 
# From -- ./inp_files/30479.got.cif
#   From: 2010.05.17/outbox.cif.g08.bks.cpg/sg67_16_cif.got.tgz:30479.got - 2010.06.03 18:28:57.
