data_PCOD9501312
_publ_section_title
;
Structure prediction by ZEFSAII (Michael W. Deem and Ramdas Pophale) SiO2 
 PCOD9501312
Probable space group: C M M A
;
_chemical_formula_sum "Si O2"
_cell_formula_units_Z 88
_cell_length_a 14.334373
_cell_length_b 14.999070
_cell_length_c 15.777522
_cell_angle_alpha 90.000000
_cell_angle_beta 90.000000
_cell_angle_gamma 90.000000
_cell_volume 3392.202951
_symmetry_space_group_name_H-M "C M M A"
_symmetry_group_IT_number 67
_symmetry_cell_setting 'orthorhombic'
loop_
_space_group_symop_operation_xyz
x,y,z
-x,1/2-y,z
x,-y,-z
-x,1/2+y,-z
-x,-y,-z
x,1/2+y,-z
-x,y,z
x,1/2-y,z
1/2+x,1/2+y,z
1/2-x,-y,z
1/2+x,1/2-y,-z
1/2-x,y,-z
1/2-x,1/2-y,-z
1/2+x,y,-z
1/2-x,1/2+y,z
1/2+x,-y,z
loop_
_atom_site_type_symbol
_atom_site_label
_atom_site_fract_x
_atom_site_fract_y
_atom_site_fract_z
Si Si1 0.135579 0.750000 0.876851
Si Si2 0.105731 0.356268 0.614477
Si Si3 0.390532 0.103024 0.203477
Si Si4 0.640128 0.100561 0.013384
Si Si5 0.888636 0.402277 0.248212
Si Si6 0.886128 0.353725 0.433046
O O1 0.160039 0.827215 0.806229
O O2 0.106554 0.671658 0.945340
O O3 0.097754 0.250000 0.603096
O O4 0.151484 0.368554 0.706146
O O5 0.146987 0.387594 0.524978
O O6 0.000000 0.395640 0.619054
O O7 0.500000 0.124743 0.211422
O O8 0.367323 0.134923 0.109835
O O9 0.376010 0.996914 0.204436
O O10 0.750000 0.096064 0.000000
O O11 0.602542 0.000000 0.000000
O O12 0.862278 0.405440 0.347265
O O13 0.000000 0.378346 0.245498
O O14 0.856929 0.250000 0.420682
O O15 0.000000 0.353640 0.438328
#
# Coordination Sequence:
#
# PCOD9501312 Si02
#       6
#     8  16  16  16  16  16
#     4  12  22  38  58  80 104 150 194 236 281 328
#     4   8  15  28  47  75 114 153 184 219 274 336
#     4  10  21  36  55  85 116 145 186 236 286 335
#     4  11  25  44  61  81 110 146 193 240 287 342
#     4  10  19  31  52  84 119 150 185 229 281 333
#     4   8  13  24  44  73 113 153 181 215 268 334
#
# _framework density 25.941844
#
# number of rings (size 3 to 8) (size 9 to 14) (size 15 to 20)
#    0.000    2.364    2.727    1.636    1.273    2.545 
#    0.000    3.636    0.000    0.000    0.000    2.545 
#    0.000    0.000    0.000    0.000    0.000    0.000 
#
# Total GULP energy -244941.323085 kJ/mol
# GULP energy per Si atom -5566.848252 kJ/mol
# Density = 2.588280 g / cm^3
# Si number density = 25.941844 Si / 1000 Ang^3
#
#
#
# Elastic Constant Matrix: (Units=GPa)
#
#
# Indices 1 2 3 4 5 6 
#
# 1 72.9345 -1.3934 15.5379 0.0000 0.0000 0.0000
# 2 -1.3934 54.2936 31.8111 0.0000 0.0000 0.0000
# 3 15.5379 31.8111 273.7336 0.0000 0.0000 0.0000
# 4 0.0000 0.0000 0.0000 47.2590 0.0000 0.0000
# 5 0.0000 0.0000 0.0000 0.0000 22.1448 0.0000
# 6 0.0000 0.0000 0.0000 0.0000 0.0000 -13.1002
#
#
#
# Elastic Compliance Matrix: (Units=1/GPa)
#
#
# Indices 1 2 3 4 5 6 
#
# 1 0.013918 0.000880 -0.000892 0.000000 0.000000 0.000000
# 2 0.000880 0.019820 -0.002353 0.000000 0.000000 0.000000
# 3 -0.000892 -0.002353 0.003977 0.000000 0.000000 0.000000
# 4 0.000000 0.000000 0.000000 0.021160 0.000000 0.000000
# 5 0.000000 0.000000 0.000000 0.000000 0.045157 0.000000
# 6 0.000000 0.000000 0.000000 0.000000 0.000000 -0.076335
#
#
# Mechanical properties :
#
#
# Convention : Reuss Voigt Hill
#
# Bulk Modulus (GPa) = 30.31788 54.76363 42.54075
# Shear Modulus (GPa) = 115.14552 34.92780 75.03666
#
# Velocity S-wave (km/s) = 6.66951 3.67330 5.38403
# Velocity P-wave (km/s) = 8.42746 6.25674 7.42189
#
# Compressibility (1/GPa) = 0.03298384
#
# Stress axis : x y z
#
# Youngs Moduli (GPa) = 71.85023 50.45474 251.42625
#
# Poissons Ratio (x) = -0.04440 0.22434
# Poissons Ratio (y) = -0.06323 0.59167
# Poissons Ratio (z) = 0.06411 0.11873
#
# Static dielectric constant tensor:
#      x y z
#    x 2.083230 0.000000 0.000000 
#    y 0.000000 1.996920 0.000000 
#    z 0.000000 0.000000 2.045050 
# 
# From -- ./inp_files/29124.got.cif
#   From: 2010.05.17/outbox.cif.g08.bks.cpg/sg67_15_cif.got.tgz:29124.got - 2010.06.03 18:28:57.
