data_PCOD9501514
_publ_section_title
;
Structure prediction by ZEFSAII (Michael W. Deem and Ramdas Pophale) SiO2 
 PCOD9501514
Probable space group: C M M A
;
_chemical_formula_sum "Si O2"
_cell_formula_units_Z 80
_cell_length_a 14.206107
_cell_length_b 25.490214
_cell_length_c 11.842614
_cell_angle_alpha 90.000000
_cell_angle_beta 90.000000
_cell_angle_gamma 90.000000
_cell_volume 4288.408390
_symmetry_space_group_name_H-M "C M M A"
_symmetry_group_IT_number 67
_symmetry_cell_setting 'orthorhombic'
loop_
_space_group_symop_operation_xyz
x,y,z
-x,1/2-y,z
x,-y,-z
-x,1/2+y,-z
-x,-y,-z
x,1/2+y,-z
-x,y,z
x,1/2-y,z
1/2+x,1/2+y,z
1/2-x,-y,z
1/2+x,1/2-y,-z
1/2-x,y,-z
1/2-x,1/2-y,-z
1/2+x,y,-z
1/2-x,1/2+y,z
1/2+x,-y,z
loop_
_atom_site_type_symbol
_atom_site_label
_atom_site_fract_x
_atom_site_fract_y
_atom_site_fract_z
Si Si1 0.889476 0.645337 0.948079
Si Si2 0.205316 0.690483 0.153678
Si Si3 0.888217 0.970402 0.382140
Si Si4 0.889297 0.569255 0.755710
Si Si5 0.735965 0.866631 0.625827
O O1 0.814107 0.683057 0.885677
O O2 0.875135 0.589653 0.883798
O O3 0.000000 0.658765 0.937332
O O4 0.855825 0.650609 0.077130
O O5 0.175332 0.750000 0.132241
O O6 0.199877 0.675117 0.283830
O O7 0.833602 0.916299 0.377927
O O8 0.000000 0.961160 0.379128
O O9 0.866586 0.000000 0.500000
O O10 0.862936 0.010419 0.280708
O O11 0.831840 0.608850 0.676498
O O12 0.000000 0.574051 0.731151
O O13 0.750000 0.846179 0.500000
#
# Coordination Sequence:
#
# PCOD9501514 Si02
#       5
#    16  16  16  16  16
#     4   9  18  36  60  81 106 140 180 229 281 332
#     4  10  22  37  54  81 109 140 190 236 275 330
#     4  10  19  32  53  81 111 143 180 221 268 329
#     4   9  18  32  53  83 110 137 180 227 272 330
#     4  11  21  33  54  79 110 150 183 223 275 331
#
# _framework density 18.654938999999999
#
# number of rings (size 3 to 8) (size 9 to 14) (size 15 to 20)
#    0.000    2.200    2.000    1.800    0.000    2.800 
#    0.000    1.000    0.000    8.400    0.000    5.600 
#    0.000    0.000    0.000    0.000    0.000    0.000 
#
# Total GULP energy -222943.363648 kJ/mol
# GULP energy per Si atom -5573.584091 kJ/mol
# Density = 1.861248 g / cm^3
# Si number density = 18.654939 Si / 1000 Ang^3
#
#
#
# Elastic Constant Matrix: (Units=GPa)
#
#
# Indices 1 2 3 4 5 6 
#
# 1 76.4785 15.5563 26.8696 0.0000 0.0000 0.0000
# 2 15.5563 44.2835 38.5725 0.0000 0.0000 0.0000
# 3 26.8696 38.5725 137.8666 0.0000 0.0000 0.0000
# 4 0.0000 0.0000 0.0000 26.5146 0.0000 0.0000
# 5 0.0000 0.0000 0.0000 0.0000 20.2672 0.0000
# 6 0.0000 0.0000 0.0000 0.0000 0.0000 12.1910
#
#
#
# Elastic Compliance Matrix: (Units=1/GPa)
#
#
# Indices 1 2 3 4 5 6 
#
# 1 0.014427 -0.003463 -0.001843 0.000000 0.000000 0.000000
# 2 -0.003463 0.030689 -0.007911 0.000000 0.000000 0.000000
# 3 -0.001843 -0.007911 0.009826 0.000000 0.000000 0.000000
# 4 0.000000 0.000000 0.000000 0.037715 0.000000 0.000000
# 5 0.000000 0.000000 0.000000 0.000000 0.049341 0.000000
# 6 0.000000 0.000000 0.000000 0.000000 0.000000 0.082027
#
#
# Mechanical properties :
#
#
# Convention : Reuss Voigt Hill
#
# Bulk Modulus (GPa) = 35.07753 46.73615 40.90684
# Shear Modulus (GPa) = 19.23345 23.63656 21.43501
#
# Velocity S-wave (km/s) = 3.21442 3.56341 3.39341
# Velocity P-wave (km/s) = 5.71146 6.48366 6.10978
#
# Compressibility (1/GPa) = 0.02850828
#
# Stress axis : x y z
#
# Youngs Moduli (GPa) = 69.31225 32.58455 101.77030
#
# Poissons Ratio (x) = 0.11284 0.18756
# Poissons Ratio (y) = 0.24002 0.80515
# Poissons Ratio (z) = 0.12774 0.25779
#
# Static dielectric constant tensor:
#      x y z
#    x 1.652300 0.000000 0.000000 
#    y 0.000000 1.629310 0.000000 
#    z 0.000000 0.000000 1.684080 
# 
# From -- ./inp_files/17914.got.cif
#   From: 2010.05.17/outbox.cif.g08.bks.cpg/sg67_9_cif.got.tgz:17914.got - 2010.06.03 18:28:57.
