data_PCOD9501801
_publ_section_title
;
Structure prediction by ZEFSAII (Michael W. Deem and Ramdas Pophale) SiO2 
 PCOD9501801
Probable space group: C M M A
;
_chemical_formula_sum "Si O2"
_cell_formula_units_Z 112
_cell_length_a 21.373072
_cell_length_b 18.640494
_cell_length_c 15.715445
_cell_angle_alpha 90.000000
_cell_angle_beta 90.000000
_cell_angle_gamma 90.000000
_cell_volume 6261.105899
_symmetry_space_group_name_H-M "C M M A"
_symmetry_group_IT_number 67
_symmetry_cell_setting 'orthorhombic'
loop_
_space_group_symop_operation_xyz
x,y,z
-x,1/2-y,z
x,-y,-z
-x,1/2+y,-z
-x,-y,-z
x,1/2+y,-z
-x,y,z
x,1/2-y,z
1/2+x,1/2+y,z
1/2-x,-y,z
1/2+x,1/2-y,-z
1/2-x,y,-z
1/2-x,1/2-y,-z
1/2+x,y,-z
1/2-x,1/2+y,z
1/2+x,-y,z
loop_
_atom_site_type_symbol
_atom_site_label
_atom_site_fract_x
_atom_site_fract_y
_atom_site_fract_z
Si Si1 0.779947 0.163876 0.628954
Si Si2 0.074655 0.538662 0.585300
Si Si3 0.347446 0.835848 0.458244
Si Si4 0.074673 0.977303 0.236350
Si Si5 0.926491 0.435698 0.068664
Si Si6 0.643681 0.167025 0.208467
Si Si7 0.678642 0.166409 0.010389
O O1 0.774965 0.250000 0.624764
O O2 0.712470 0.138541 0.597068
O O3 0.830630 0.145710 0.556233
O O4 0.802356 0.147040 0.723462
O O5 0.098557 0.500000 0.500000
O O6 0.093846 0.621048 0.575550
O O7 0.099284 0.504668 0.672756
O O8 0.000000 0.531293 0.586492
O O9 0.354140 0.750000 0.452092
O O10 0.093065 0.895068 0.220450
O O11 0.000000 0.981341 0.237995
O O12 0.093526 0.028957 0.158417
O O13 0.875714 0.377471 0.037835
O O14 0.000000 0.410676 0.073543
O O15 0.925840 0.500000 0.000000
O O16 0.624222 0.250000 0.226934
O O17 0.664940 0.164609 0.111104
O O18 0.677499 0.250000 0.982359
O O19 0.750000 0.139131 0.000000
#
# Coordination Sequence:
#
# PCOD9501801 Si02
#       7
#    16  16  16  16  16  16  16
#     4   8  16  31  52  78 105 133 170 220 269 309
#     4  10  21  36  52  75 110 142 169 215 273 318
#     4   9  17  33  55  75 100 139 181 217 257 311
#     4  10  21  37  55  79 110 143 180 224 272 321
#     4  10  20  38  59  80 109 146 186 228 274 325
#     4  10  19  34  56  80 106 138 177 222 274 331
#     4  10  22  38  56  83 116 146 180 230 285 333
#
# _framework density 17.888214000000001
#
# number of rings (size 3 to 8) (size 9 to 14) (size 15 to 20)
#    0.000    2.429    1.429    1.714    0.000    2.286 
#    0.000   10.000    0.000    7.714    0.000    0.000 
#    0.000    0.000    0.000    0.000    0.000    0.000 
#
# Total GULP energy -311840.048749 kJ/mol
# GULP energy per Si atom -5568.572299 kJ/mol
# Density = 1.784750 g / cm^3
# Si number density = 17.888214 Si / 1000 Ang^3
#
#
#
# Elastic Constant Matrix: (Units=GPa)
#
#
# Indices 1 2 3 4 5 6 
#
# 1 39.5746 36.1374 33.9419 0.0000 0.0000 0.0000
# 2 36.1374 76.5228 46.2978 0.0000 0.0000 0.0000
# 3 33.9419 46.2978 127.3803 0.0000 0.0000 0.0000
# 4 0.0000 0.0000 0.0000 27.8958 0.0000 0.0000
# 5 0.0000 0.0000 0.0000 0.0000 16.2704 0.0000
# 6 0.0000 0.0000 0.0000 0.0000 0.0000 9.4067
#
#
#
# Elastic Compliance Matrix: (Units=1/GPa)
#
#
# Indices 1 2 3 4 5 6 
#
# 1 0.047527 -0.018949 -0.005777 0.000000 0.000000 0.000000
# 2 -0.018949 0.024307 -0.003785 0.000000 0.000000 0.000000
# 3 -0.005777 -0.003785 0.010766 0.000000 0.000000 0.000000
# 4 0.000000 0.000000 0.000000 0.035848 0.000000 0.000000
# 5 0.000000 0.000000 0.000000 0.000000 0.061461 0.000000
# 6 0.000000 0.000000 0.000000 0.000000 0.000000 0.106307
#
#
# Mechanical properties :
#
#
# Convention : Reuss Voigt Hill
#
# Bulk Modulus (GPa) = 39.09822 52.91465 46.00643
# Shear Modulus (GPa) = 14.21411 19.18796 16.70104
#
# Velocity S-wave (km/s) = 2.82194 3.27870 3.05886
# Velocity P-wave (km/s) = 5.70282 6.63160 6.18467
#
# Compressibility (1/GPa) = 0.02557661
#
# Stress axis : x y z
#
# Youngs Moduli (GPa) = 21.04084 41.14071 92.88830
#
# Poissons Ratio (x) = 0.77958 0.53659
# Poissons Ratio (y) = 0.39871 0.35162
# Poissons Ratio (z) = 0.12155 0.15573
#
# Static dielectric constant tensor:
#      x y z
#    x 1.615240 0.000000 0.000000 
#    y 0.000000 1.604780 0.000000 
#    z 0.000000 0.000000 1.634560 
# 
# From -- ./inp_files/30151.got.cif
#   From: 2010.05.17/outbox.cif.g08.bks.cpg/sg67_16_cif.got.tgz:30151.got - 2010.06.03 18:28:57.
