data_PCOD9501283
_publ_section_title
;
Structure prediction by ZEFSAII (Michael W. Deem and Ramdas Pophale) SiO2 
 PCOD9501283
Probable space group: C M M A
;
_chemical_formula_sum "Si O2"
_cell_formula_units_Z 96
_cell_length_a 20.066420
_cell_length_b 14.898694
_cell_length_c 15.325455
_cell_angle_alpha 90.000000
_cell_angle_beta 90.000000
_cell_angle_gamma 90.000000
_cell_volume 4581.750919
_symmetry_space_group_name_H-M "C M M A"
_symmetry_group_IT_number 67
_symmetry_cell_setting 'orthorhombic'
loop_
_space_group_symop_operation_xyz
x,y,z
-x,1/2-y,z
x,-y,-z
-x,1/2+y,-z
-x,-y,-z
x,1/2+y,-z
-x,y,z
x,1/2-y,z
1/2+x,1/2+y,z
1/2-x,-y,z
1/2+x,1/2-y,-z
1/2-x,y,-z
1/2-x,1/2-y,-z
1/2+x,y,-z
1/2-x,1/2+y,z
1/2+x,-y,z
loop_
_atom_site_type_symbol
_atom_site_label
_atom_site_fract_x
_atom_site_fract_y
_atom_site_fract_z
Si Si1 0.923882 0.139921 0.605320
Si Si2 0.683806 0.141138 0.741230
Si Si3 0.320623 0.140701 0.541607
Si Si4 0.075214 0.593511 0.884043
Si Si5 0.667476 0.852008 0.761428
Si Si6 0.575470 0.119064 0.079419
O O1 0.926559 0.250000 0.607355
O O2 0.881183 0.113796 0.520817
O O3 0.882866 0.107744 0.690218
O O4 0.000000 0.108233 0.605378
O O5 0.681416 0.250000 0.743582
O O6 0.671852 0.111803 0.641508
O O7 0.628972 0.109922 0.809906
O O8 0.758471 0.109560 0.766069
O O9 0.319292 0.250000 0.542138
O O10 0.250000 0.112013 0.500000
O O11 0.074042 0.487875 0.905288
O O12 0.000000 0.620742 0.858087
O O13 0.090509 0.638053 0.978098
O O14 0.678355 0.750000 0.729450
O O15 0.630290 0.848296 0.853231
O O16 0.500000 0.150620 0.098804
#
# Coordination Sequence:
#
# PCOD9501283 Si02
#       6
#    16  16  16  16  16  16
#     4   9  16  26  44  72 101 130 169 210 246 299
#     4  10  20  32  51  79 109 139 170 212 264 310
#     4   9  15  28  47  68 102 141 168 201 257 312
#     4   9  20  38  55  73  99 136 181 218 256 315
#     4  10  19  31  50  79 108 132 166 213 263 311
#     4   9  19  37  57  73  98 137 175 216 265 313
#
# _framework density 20.952687999999998
#
# number of rings (size 3 to 8) (size 9 to 14) (size 15 to 20)
#    0.000    2.667    1.667    1.500    0.000    4.000 
#    0.000    6.667    0.000    1.000    0.000    3.500 
#    0.000    0.000    0.000    0.000    0.000    0.000 
#
# Total GULP energy -267935.633785 kJ/mol
# GULP energy per Si atom -5581.992371 kJ/mol
# Density = 2.090500 g / cm^3
# Si number density = 20.952688 Si / 1000 Ang^3
#
#
#
# Elastic Constant Matrix: (Units=GPa)
#
#
# Indices 1 2 3 4 5 6 
#
# 1 223.1102 11.9799 150.4386 0.0000 0.0000 0.0000
# 2 11.9799 45.8428 10.8674 0.0000 0.0000 0.0000
# 3 150.4386 10.8674 186.2901 0.0000 0.0000 0.0000
# 4 0.0000 0.0000 0.0000 31.9013 0.0000 0.0000
# 5 0.0000 0.0000 0.0000 0.0000 45.0363 0.0000
# 6 0.0000 0.0000 0.0000 0.0000 0.0000 10.4993
#
#
#
# Elastic Compliance Matrix: (Units=1/GPa)
#
#
# Indices 1 2 3 4 5 6 
#
# 1 0.009862 -0.000699 -0.007924 0.000000 0.000000 0.000000
# 2 -0.000699 0.022169 -0.000729 0.000000 0.000000 0.000000
# 3 -0.007924 -0.000729 0.011809 0.000000 0.000000 0.000000
# 4 0.000000 0.000000 0.000000 0.031347 0.000000 0.000000
# 5 0.000000 0.000000 0.000000 0.000000 0.022204 0.000000
# 6 0.000000 0.000000 0.000000 0.000000 0.000000 0.095244
#
#
# Mechanical properties :
#
#
# Convention : Reuss Voigt Hill
#
# Bulk Modulus (GPa) = 39.78046 89.09052 64.43549
# Shear Modulus (GPa) = 22.75646 36.28452 29.52049
#
# Velocity S-wave (km/s) = 3.29916 4.16593 3.75762
# Velocity P-wave (km/s) = 5.79134 8.10877 7.04598
#
# Compressibility (1/GPa) = 0.02513797
#
# Stress axis : x y z
#
# Youngs Moduli (GPa) = 101.39652 45.10781 84.68037
#
# Poissons Ratio (x) = 0.03153 0.67097
# Poissons Ratio (y) = 0.07087 0.06172
# Poissons Ratio (z) = 0.80342 0.03288
#
# Static dielectric constant tensor:
#      x y z
#    x 1.721230 0.000000 0.000000 
#    y 0.000000 1.841050 0.000000 
#    z 0.000000 0.000000 1.720320 
# 
# From -- ./inp_files/27213.got.cif
#   From: 2010.05.17/outbox.cif.g08.bks.cpg/sg67_14_cif.got.tgz:27213.got - 2010.06.03 18:28:57.
