data_PCOD9501977
_publ_section_title
;
Structure prediction by ZEFSAII (Michael W. Deem and Ramdas Pophale) SiO2 
 PCOD9501977
Probable space group: C M M A
;
_chemical_formula_sum "Si O2"
_cell_formula_units_Z 96
_cell_length_a 14.341359
_cell_length_b 17.698625
_cell_length_c 21.024512
_cell_angle_alpha 90.000000
_cell_angle_beta 90.000000
_cell_angle_gamma 90.000000
_cell_volume 5336.490727
_symmetry_space_group_name_H-M "C M M A"
_symmetry_group_IT_number 67
_symmetry_cell_setting 'orthorhombic'
loop_
_space_group_symop_operation_xyz
x,y,z
-x,1/2-y,z
x,-y,-z
-x,1/2+y,-z
-x,-y,-z
x,1/2+y,-z
-x,y,z
x,1/2-y,z
1/2+x,1/2+y,z
1/2-x,-y,z
1/2+x,1/2-y,-z
1/2-x,y,-z
1/2-x,1/2-y,-z
1/2+x,y,-z
1/2-x,1/2+y,z
1/2+x,-y,z
loop_
_atom_site_type_symbol
_atom_site_label
_atom_site_fract_x
_atom_site_fract_y
_atom_site_fract_z
Si Si1 0.500000 0.540477 0.321113
Si Si2 0.709668 0.914409 0.319172
Si Si3 0.808366 0.160117 0.798603
Si Si4 0.185800 0.161567 0.562272
Si Si5 0.182435 0.160915 0.941990
Si Si6 0.000000 0.933591 0.200082
Si Si7 0.500000 0.559588 0.943388
Si Si8 0.500000 0.063106 0.444990
O O1 0.402190 0.584549 0.326194
O O2 0.500000 0.495980 0.254538
O O3 0.500000 0.479637 0.377732
O O4 0.740674 0.875427 0.253553
O O5 0.758797 0.871335 0.377375
O O6 0.750000 0.000000 0.319109
O O7 0.818446 0.250000 0.788647
O O8 0.776026 0.147527 0.871534
O O9 0.908468 0.118769 0.793078
O O10 0.164898 0.250000 0.572482
O O11 0.250000 0.154198 0.500000
O O12 0.091865 0.114387 0.551672
O O13 0.159376 0.250000 0.945093
O O14 0.090445 0.111853 0.948375
O O15 0.250000 0.142748 0.000000
O O16 0.000000 0.969798 0.129514
O O17 0.500000 0.500000 0.000000
O O18 0.500000 0.000000 0.500000
#
# Coordination Sequence:
#
# PCOD9501977 Si02
#       8
#     8  16  16  16  16   8   8   8
#     4  12  24  38  57  92 119 159 197 236 301 357
#     4  12  23  40  62  88 123 158 197 246 302 362
#     4  10  20  37  61  86 113 152 200 251 303 354
#     4  11  25  43  64  93 125 162 206 252 298 356
#     4   9  19  37  58  80 111 154 199 241 292 356
#     4  10  19  36  59  84 118 145 196 257 300 356
#     4  10  21  33  52  86 116 150 189 244 303 352
#     4  12  23  39  68  94 122 162 205 252 301 357
#
# _framework density 17.989350000000002
#
# number of rings (size 3 to 8) (size 9 to 14) (size 15 to 20)
#    0.000    1.333    3.333    2.250    0.000    3.667 
#    0.000    5.000    0.000    2.000    0.000    0.000 
#    0.000    0.000    0.000    0.000    0.000    0.000 
#
# Total GULP energy -268147.486694 kJ/mol
# GULP energy per Si atom -5586.405973 kJ/mol
# Density = 1.794841 g / cm^3
# Si number density = 17.989350 Si / 1000 Ang^3
#
#
#
# Elastic Constant Matrix: (Units=GPa)
#
#
# Indices 1 2 3 4 5 6 
#
# 1 138.8945 70.6196 71.5144 0.0000 0.0000 0.0000
# 2 70.6196 87.4382 84.8169 0.0000 0.0000 0.0000
# 3 71.5144 84.8169 152.3330 0.0000 0.0000 0.0000
# 4 0.0000 0.0000 0.0000 38.5052 0.0000 0.0000
# 5 0.0000 0.0000 0.0000 0.0000 27.1512 0.0000
# 6 0.0000 0.0000 0.0000 0.0000 0.0000 28.3999
#
#
#
# Elastic Compliance Matrix: (Units=1/GPa)
#
#
# Indices 1 2 3 4 5 6 
#
# 1 0.012236 -0.009372 -0.000526 0.000000 0.000000 0.000000
# 2 -0.009372 0.032046 -0.013443 0.000000 0.000000 0.000000
# 3 -0.000526 -0.013443 0.014296 0.000000 0.000000 0.000000
# 4 0.000000 0.000000 0.000000 0.025971 0.000000 0.000000
# 5 0.000000 0.000000 0.000000 0.000000 0.036831 0.000000
# 6 0.000000 0.000000 0.000000 0.000000 0.000000 0.035211
#
#
# Mechanical properties :
#
#
# Convention : Reuss Voigt Hill
#
# Bulk Modulus (GPa) = 84.06100 92.50748 88.28424
# Shear Modulus (GPa) = 24.12697 28.92560 26.52628
#
# Velocity S-wave (km/s) = 3.66619 4.01425 3.84416
# Velocity P-wave (km/s) = 8.04679 8.54522 8.29975
#
# Compressibility (1/GPa) = 0.01189612
#
# Stress axis : x y z
#
# Youngs Moduli (GPa) = 81.72907 31.20549 69.94812
#
# Poissons Ratio (x) = 0.29245 0.03679
# Poissons Ratio (y) = 0.76595 0.94030
# Poissons Ratio (z) = 0.04299 0.41949
#
# Static dielectric constant tensor:
#      x y z
#    x 1.599980 0.000000 0.000000 
#    y 0.000000 1.592570 0.000000 
#    z 0.000000 0.000000 1.616840 
# 
# From -- ./inp_files/38590.got.cif
#   From: 2010.05.17/outbox.cif.g08.bks.cpg/sg67_20_cif.got.tgz:38590.got - 2010.06.03 18:28:57.
