data_PCOD9501908
_publ_section_title
;
Structure prediction by ZEFSAII (Michael W. Deem and Ramdas Pophale) SiO2 
 PCOD9501908
Probable space group: C M M A
;
_chemical_formula_sum "Si O2"
_cell_formula_units_Z 80
_cell_length_a 21.656621
_cell_length_b 22.429515
_cell_length_c 8.282588
_cell_angle_alpha 90.000000
_cell_angle_beta 90.000000
_cell_angle_gamma 90.000000
_cell_volume 4023.246461
_symmetry_space_group_name_H-M "C M M A"
_symmetry_group_IT_number 67
_symmetry_cell_setting 'orthorhombic'
loop_
_space_group_symop_operation_xyz
x,y,z
-x,1/2-y,z
x,-y,-z
-x,1/2+y,-z
-x,-y,-z
x,1/2+y,-z
-x,y,z
x,1/2-y,z
1/2+x,1/2+y,z
1/2-x,-y,z
1/2+x,1/2-y,-z
1/2-x,y,-z
1/2-x,1/2-y,-z
1/2+x,y,-z
1/2-x,1/2+y,z
1/2+x,-y,z
loop_
_atom_site_type_symbol
_atom_site_label
_atom_site_fract_x
_atom_site_fract_y
_atom_site_fract_z
Si Si1 0.500000 0.455641 0.849429
Si Si2 0.000000 0.319192 0.197824
Si Si3 0.866443 0.644551 0.682443
Si Si4 0.758052 0.186111 0.807727
Si Si5 0.366414 0.477513 0.816449
Si Si6 0.311212 0.418750 0.391711
O O1 0.500000 0.384691 0.895151
O O2 0.437580 0.472715 0.759933
O O3 0.500000 0.500000 0.000000
O O4 0.933708 0.326852 0.288989
O O5 0.000000 0.250000 0.132404
O O6 0.807607 0.686081 0.713451
O O7 0.849270 0.591618 0.809250
O O8 0.861201 0.610836 0.511365
O O9 0.789080 0.250000 0.773342
O O10 0.795950 0.130636 0.741804
O O11 0.750000 0.182114 0.000000
O O12 0.330745 0.520927 0.696744
O O13 0.361623 0.500000 0.000000
O O14 0.250000 0.426690 0.500000
#
# Coordination Sequence:
#
# PCOD9501908 Si02
#       6
#     8   8  16  16  16  16
#     4   8  18  35  57  83 111 146 187 232 281 334
#     4  10  20  35  57  85 114 148 189 232 280 338
#     4  10  21  35  55  82 111 145 182 228 279 333
#     4  10  21  37  56  78 106 143 186 228 275 332
#     4  10  19  35  57  80 109 142 182 230 278 329
#     4  10  22  36  53  79 112 146 183 229 282 338
#
# _framework density 19.884440000000001
#
# number of rings (size 3 to 8) (size 9 to 14) (size 15 to 20)
#    0.000    2.200    0.000    2.400    0.000   10.800 
#    0.000    8.000    0.000    1.200    0.000    8.400 
#    0.000    0.000    0.000    0.000    0.000    0.000 
#
# Total GULP energy -222693.240683 kJ/mol
# GULP energy per Si atom -5567.331017 kJ/mol
# Density = 1.983918 g / cm^3
# Si number density = 19.884440 Si / 1000 Ang^3
#
#
#
# Elastic Constant Matrix: (Units=GPa)
#
#
# Indices 1 2 3 4 5 6 
#
# 1 47.7067 35.5609 8.7027 0.0000 0.0000 0.0000
# 2 35.5609 147.0600 26.4442 0.0000 0.0000 0.0000
# 3 8.7027 26.4442 59.5778 0.0000 0.0000 0.0000
# 4 0.0000 0.0000 0.0000 -22.0540 0.0000 0.0000
# 5 0.0000 0.0000 0.0000 0.0000 17.1218 0.0000
# 6 0.0000 0.0000 0.0000 0.0000 0.0000 33.0133
#
#
#
# Elastic Compliance Matrix: (Units=1/GPa)
#
#
# Indices 1 2 3 4 5 6 
#
# 1 0.025634 -0.006005 -0.001079 0.000000 0.000000 0.000000
# 2 -0.006005 0.008796 -0.003027 0.000000 0.000000 0.000000
# 3 -0.001079 -0.003027 0.018286 0.000000 0.000000 0.000000
# 4 0.000000 0.000000 0.000000 -0.045343 0.000000 0.000000
# 5 0.000000 0.000000 0.000000 0.000000 0.058405 0.000000
# 6 0.000000 0.000000 0.000000 0.000000 0.000000 0.030291
#
#
# Mechanical properties :
#
#
# Convention : Reuss Voigt Hill
#
# Bulk Modulus (GPa) = 30.77454 43.97334 37.37394
# Shear Modulus (GPa) = 39.33211 17.85868 28.59539
#
# Velocity S-wave (km/s) = 4.45234 3.00012 3.79632
# Velocity P-wave (km/s) = 6.47621 5.84495 6.16866
#
# Compressibility (1/GPa) = 0.03249440
#
# Stress axis : x y z
#
# Youngs Moduli (GPa) = 39.01046 113.68454 54.68645
#
# Poissons Ratio (x) = 0.68263 0.05902
# Poissons Ratio (y) = 0.23424 0.16555
# Poissons Ratio (z) = 0.04210 0.34415
#
# Static dielectric constant tensor:
#      x y z
#    x 1.775350 0.000000 0.000000 
#    y 0.000000 1.773600 0.000000 
#    z 0.000000 0.000000 1.694600 
# 
# From -- ./inp_files/12371.got.cif
#   From: 2010.05.17/outbox.cif.g08.bks.cpg/sg67_7_cif.got.tgz:12371.got - 2010.06.03 18:28:57.
