data_PCOD9501523
_publ_section_title
;
Structure prediction by ZEFSAII (Michael W. Deem and Ramdas Pophale) SiO2 
 PCOD9501523
Probable space group: C M M A
;
_chemical_formula_sum "Si O2"
_cell_formula_units_Z 76
_cell_length_a 13.797650
_cell_length_b 25.092450
_cell_length_c 11.911794
_cell_angle_alpha 90.000000
_cell_angle_beta 90.000000
_cell_angle_gamma 90.000000
_cell_volume 4124.063710
_symmetry_space_group_name_H-M "C M M A"
_symmetry_group_IT_number 67
_symmetry_cell_setting 'orthorhombic'
loop_
_space_group_symop_operation_xyz
x,y,z
-x,1/2-y,z
x,-y,-z
-x,1/2+y,-z
-x,-y,-z
x,1/2+y,-z
-x,y,z
x,1/2-y,z
1/2+x,1/2+y,z
1/2-x,-y,z
1/2+x,1/2-y,-z
1/2-x,y,-z
1/2-x,1/2-y,-z
1/2+x,y,-z
1/2-x,1/2+y,z
1/2+x,-y,z
loop_
_atom_site_type_symbol
_atom_site_label
_atom_site_fract_x
_atom_site_fract_y
_atom_site_fract_z
Si Si1 0.888203 0.103179 0.682145
Si Si2 0.384053 0.151010 0.072674
Si Si3 0.382881 0.549625 0.077865
Si Si4 0.886009 0.474554 0.326538
Si Si5 0.250000 0.913092 0.500000
Si Si6 0.250000 0.250000 0.000000
O O1 0.865439 0.126697 0.803849
O O2 0.814414 0.120689 0.586086
O O3 0.000000 0.116208 0.656021
O O4 0.880708 0.038586 0.681294
O O5 0.500000 0.160850 0.065096
O O6 0.323546 0.203147 0.047392
O O7 0.360602 0.104604 0.983067
O O8 0.500000 0.545437 0.085892
O O9 0.348871 0.546256 0.205931
O O10 0.353239 0.500000 0.000000
O O11 0.822911 0.448877 0.424962
O O12 0.000000 0.461093 0.343193
#
# Coordination Sequence:
#
# PCOD9501523 Si02
#       6
#    16  16  16  16   8   4
#     4  10  20  36  56  80 120 166 200 238 294 362
#     4  10  22  41  63  88 120 158 200 252 311 368
#     4   9  16  33  60  88 119 153 191 241 307 373
#     4  10  19  32  53  84 124 162 196 238 293 364
#     4  12  23  32  50  87 132 167 206 240 289 364
#     4  12  26  40  62  92 116 150 210 260 302 354
#
# _framework density 18.428425000000001
#
# number of rings (size 3 to 8) (size 9 to 14) (size 15 to 20)
#    0.000    1.895    2.105    2.842    2.947    1.684 
#    0.000    0.526    0.000    0.632    0.000    0.000 
#    0.000    0.000    0.000    0.000    0.000    0.000 
#
# Total GULP energy -211852.766678 kJ/mol
# GULP energy per Si atom -5575.072807 kJ/mol
# Density = 1.838648 g / cm^3
# Si number density = 18.428425 Si / 1000 Ang^3
#
#
#
# Elastic Constant Matrix: (Units=GPa)
#
#
# Indices 1 2 3 4 5 6 
#
# 1 109.1036 31.8191 64.8171 0.0000 0.0000 0.0000
# 2 31.8191 87.1974 47.5878 0.0000 0.0000 0.0000
# 3 64.8171 47.5878 144.6189 0.0000 0.0000 0.0000
# 4 0.0000 0.0000 0.0000 7.9779 0.0000 0.0000
# 5 0.0000 0.0000 0.0000 0.0000 26.2185 0.0000
# 6 0.0000 0.0000 0.0000 0.0000 0.0000 334.3898
#
#
#
# Elastic Compliance Matrix: (Units=1/GPa)
#
#
# Indices 1 2 3 4 5 6 
#
# 1 0.012736 -0.001868 -0.005094 0.000000 0.000000 0.000000
# 2 -0.001868 0.014252 -0.003853 0.000000 0.000000 0.000000
# 3 -0.005094 -0.003853 0.010466 0.000000 0.000000 0.000000
# 4 0.000000 0.000000 0.000000 0.125347 0.000000 0.000000
# 5 0.000000 0.000000 0.000000 0.000000 0.038141 0.000000
# 6 0.000000 0.000000 0.000000 0.000000 0.000000 0.002991
#
#
# Mechanical properties :
#
#
# Convention : Reuss Voigt Hill
#
# Bulk Modulus (GPa) = 63.18779 69.92975 66.55877
# Shear Modulus (GPa) = 21.66036 86.83029 54.24533
#
# Velocity S-wave (km/s) = 3.43210 6.87167 5.43135
# Velocity P-wave (km/s) = 7.07590 10.04932 8.69072
#
# Compressibility (1/GPa) = 0.01582584
#
# Stress axis : x y z
#
# Youngs Moduli (GPa) = 78.51468 70.16354 95.55198
#
# Poissons Ratio (x) = 0.13105 0.48672
# Poissons Ratio (y) = 0.14664 0.36814
# Poissons Ratio (z) = 0.39994 0.27032
#
# Static dielectric constant tensor:
#      x y z
#    x 1.705450 0.000000 0.000000 
#    y 0.000000 1.576420 0.000000 
#    z 0.000000 0.000000 1.661180 
# 
# From -- ./inp_files/18020.got.cif
#   From: 2010.05.17/outbox.cif.g08.bks.cpg/sg67_10_cif.got.tgz:18020.got - 2010.06.03 18:28:57.
