data_PCOD9501218
_publ_section_title
;
Structure prediction by ZEFSAII (Michael W. Deem and Ramdas Pophale) SiO2 
 PCOD9501218
Probable space group: C M M A
;
_chemical_formula_sum "Si O2"
_cell_formula_units_Z 80
_cell_length_a 27.667303
_cell_length_b 9.765939
_cell_length_c 17.482850
_cell_angle_alpha 90.000000
_cell_angle_beta 90.000000
_cell_angle_gamma 90.000000
_cell_volume 4723.817003
_symmetry_space_group_name_H-M "C M M A"
_symmetry_group_IT_number 67
_symmetry_cell_setting 'orthorhombic'
loop_
_space_group_symop_operation_xyz
x,y,z
-x,1/2-y,z
x,-y,-z
-x,1/2+y,-z
-x,-y,-z
x,1/2+y,-z
-x,y,z
x,1/2-y,z
1/2+x,1/2+y,z
1/2-x,-y,z
1/2+x,1/2-y,-z
1/2-x,y,-z
1/2-x,1/2-y,-z
1/2+x,y,-z
1/2-x,1/2+y,z
1/2+x,-y,z
loop_
_atom_site_type_symbol
_atom_site_label
_atom_site_fract_x
_atom_site_fract_y
_atom_site_fract_z
Si Si1 0.944457 0.250000 0.054154
Si Si2 0.700148 0.082073 0.923415
Si Si3 0.558469 0.250000 0.378893
Si Si4 0.441771 0.250000 0.552471
Si Si5 0.943125 0.750000 0.128869
Si Si6 0.394809 0.463382 0.839272
Si Si7 0.441783 0.041604 0.683627
O O1 0.919494 0.119750 0.091833
O O2 0.000000 0.250000 0.077278
O O3 0.941682 0.250000 0.963260
O O4 0.705136 0.250000 0.934590
O O5 0.661615 0.054850 0.856573
O O6 0.750000 0.000000 0.907266
O O7 0.682212 0.000000 0.000000
O O8 0.500000 0.250000 0.383701
O O9 0.577166 0.250000 0.466238
O O10 0.571347 0.385373 0.333346
O O11 0.500000 0.250000 0.545697
O O12 0.429672 0.121584 0.605819
O O13 0.915275 0.616171 0.156235
O O14 0.000000 0.750000 0.152783
O O15 0.413399 0.408512 0.757933
O O16 0.500000 0.054783 0.696565
#
# Coordination Sequence:
#
# PCOD9501218 Si02
#       7
#     8  16   8   8   8  16  16
#     4  11  21  35  50  71 104 144 187 219 254 316
#     4  11  24  42  64  84 104 136 183 237 290 339
#     4   9  17  31  47  70 102 143 186 217 251 306
#     4   9  17  29  49  70 100 143 182 217 255 304
#     4  11  23  35  50  73 106 152 191 221 256 312
#     4  12  23  35  54  78 109 142 181 229 280 322
#     4  10  19  31  48  74 108 144 178 216 263 316
#
# _framework density 16.935457
#
# number of rings (size 3 to 8) (size 9 to 14) (size 15 to 20)
#    0.000    1.400    1.000    6.600    2.800    5.600 
#    0.000    0.000    0.000    0.000    0.000    0.000 
#    0.000    4.800    0.000    0.000    0.000    0.000 
#
# Total GULP energy -223140.670301 kJ/mol
# GULP energy per Si atom -5578.516758 kJ/mol
# Density = 1.689691 g / cm^3
# Si number density = 16.935457 Si / 1000 Ang^3
#
#
#
# Elastic Constant Matrix: (Units=GPa)
#
#
# Indices 1 2 3 4 5 6 
#
# 1 63.2423 26.4860 41.0205 0.0000 0.0000 0.0000
# 2 26.4860 136.2746 23.4509 0.0000 0.0000 0.0000
# 3 41.0205 23.4509 91.1413 0.0000 0.0000 0.0000
# 4 0.0000 0.0000 0.0000 -10.0528 0.0000 0.0000
# 5 0.0000 0.0000 0.0000 0.0000 11.8368 0.0000
# 6 0.0000 0.0000 0.0000 0.0000 0.0000 20.4765
#
#
#
# Elastic Compliance Matrix: (Units=1/GPa)
#
#
# Indices 1 2 3 4 5 6 
#
# 1 0.023347 -0.002856 -0.009773 0.000000 0.000000 0.000000
# 2 -0.002856 0.008027 -0.000780 0.000000 0.000000 0.000000
# 3 -0.009773 -0.000780 0.015571 0.000000 0.000000 0.000000
# 4 0.000000 0.000000 0.000000 -0.099474 0.000000 0.000000
# 5 0.000000 0.000000 0.000000 0.000000 0.084482 0.000000
# 6 0.000000 0.000000 0.000000 0.000000 0.000000 0.048836
#
#
# Mechanical properties :
#
#
# Convention : Reuss Voigt Hill
#
# Bulk Modulus (GPa) = 49.68276 52.50810 51.09543
# Shear Modulus (GPa) = 43.73753 17.76549 30.75151
#
# Velocity S-wave (km/s) = 5.08744 3.24236 4.26585
# Velocity P-wave (km/s) = 7.99435 6.71486 7.38238
#
# Compressibility (1/GPa) = 0.02012770
#
# Stress axis : x y z
#
# Youngs Moduli (GPa) = 42.83124 124.57276 64.22026
#
# Poissons Ratio (x) = 0.35577 0.62764
# Poissons Ratio (y) = 0.12232 0.05010
# Poissons Ratio (z) = 0.41860 0.09718
#
# Static dielectric constant tensor:
#      x y z
#    x 1.567540 0.000000 0.000000 
#    y 0.000000 1.676840 0.000000 
#    z 0.000000 0.000000 1.574030 
# 
# From -- ./inp_files/35828.got.cif
#   From: 2010.05.17/outbox.cif.g08.bks.cpg/sg67_18_cif.got.tgz:35828.got - 2010.06.03 18:28:57.
