data_PCOD9501461
_publ_section_title
;
Structure prediction by ZEFSAII (Michael W. Deem and Ramdas Pophale) SiO2 
 PCOD9501461
Probable space group: C M M A
;
_chemical_formula_sum "Si O2"
_cell_formula_units_Z 80
_cell_length_a 19.832793
_cell_length_b 8.564223
_cell_length_c 25.993134
_cell_angle_alpha 90.000000
_cell_angle_beta 90.000000
_cell_angle_gamma 90.000000
_cell_volume 4414.997804
_symmetry_space_group_name_H-M "C M M A"
_symmetry_group_IT_number 67
_symmetry_cell_setting 'orthorhombic'
loop_
_space_group_symop_operation_xyz
x,y,z
-x,1/2-y,z
x,-y,-z
-x,1/2+y,-z
-x,-y,-z
x,1/2+y,-z
-x,y,z
x,1/2-y,z
1/2+x,1/2+y,z
1/2-x,-y,z
1/2+x,1/2-y,-z
1/2-x,y,-z
1/2-x,1/2-y,-z
1/2+x,y,-z
1/2-x,1/2+y,z
1/2+x,-y,z
loop_
_atom_site_type_symbol
_atom_site_label
_atom_site_fract_x
_atom_site_fract_y
_atom_site_fract_z
Si Si1 0.675513 0.561491 0.260587
Si Si2 0.324502 0.937125 0.142798
Si Si3 0.676034 0.062372 0.557206
Si Si4 0.422660 0.440580 0.648574
Si Si5 0.578142 0.563175 0.944618
O O1 0.677858 0.750000 0.261949
O O2 0.750000 0.500000 0.273958
O O3 0.660085 0.513896 0.201768
O O4 0.619536 0.509032 0.301320
O O5 0.323951 0.750000 0.141118
O O6 0.250000 0.000000 0.130664
O O7 0.377305 0.000460 0.101842
O O8 0.678766 0.250000 0.555813
O O9 0.619645 0.013048 0.598169
O O10 0.661843 0.000000 0.500000
O O11 0.750000 0.000000 0.572476
O O12 0.500000 0.494188 0.648325
O O13 0.423865 0.250000 0.649093
O O14 0.500000 0.513634 0.938352
O O15 0.580637 0.750000 0.945425
O O16 0.601745 0.500000 0.000000
#
# Coordination Sequence:
#
# PCOD9501461 Si02
#       5
#    16  16  16  16  16
#     4   9  18  33  54  76 100 132 168 208 250 298
#     4  10  20  34  54  80 107 136 172 214 259 306
#     4  10  19  32  52  74  98 130 167 208 250 297
#     4   9  18  32  50  74 102 132 167 206 250 298
#     4  10  21  37  56  78 106 139 174 213 257 307
#
# _framework density 18.120055000000001
#
# number of rings (size 3 to 8) (size 9 to 14) (size 15 to 20)
#    0.000    2.400    0.000    3.000    0.000    3.600 
#    0.000    5.000    0.000    4.800    0.000    0.000 
#    0.000    0.000    0.000    0.000    0.000    0.000 
#
# Total GULP energy -223242.637413 kJ/mol
# GULP energy per Si atom -5581.065935 kJ/mol
# Density = 1.807881 g / cm^3
# Si number density = 18.120055 Si / 1000 Ang^3
#
#
#
# Elastic Constant Matrix: (Units=GPa)
#
#
# Indices 1 2 3 4 5 6 
#
# 1 158.6680 27.9648 127.9985 0.0000 0.0000 0.0000
# 2 27.9648 30.1989 28.8587 0.0000 0.0000 0.0000
# 3 127.9985 28.8587 142.9107 0.0000 0.0000 0.0000
# 4 0.0000 0.0000 0.0000 11.5642 0.0000 0.0000
# 5 0.0000 0.0000 0.0000 0.0000 180.3888 0.0000
# 6 0.0000 0.0000 0.0000 0.0000 0.0000 25.7967
#
#
#
# Elastic Compliance Matrix: (Units=1/GPa)
#
#
# Indices 1 2 3 4 5 6 
#
# 1 0.022809 -0.001982 -0.020029 0.000000 0.000000 0.000000
# 2 -0.001982 0.041204 -0.006546 0.000000 0.000000 0.000000
# 3 -0.020029 -0.006546 0.026258 0.000000 0.000000 0.000000
# 4 0.000000 0.000000 0.000000 0.086474 0.000000 0.000000
# 5 0.000000 0.000000 0.000000 0.000000 0.005544 0.000000
# 6 0.000000 0.000000 0.000000 0.000000 0.000000 0.038765
#
#
# Mechanical properties :
#
#
# Convention : Reuss Voigt Hill
#
# Bulk Modulus (GPa) = 30.15792 77.93573 54.04683
# Shear Modulus (GPa) = 17.28792 53.34698 35.31745
#
# Velocity S-wave (km/s) = 3.09216 5.43183 4.41963
# Velocity P-wave (km/s) = 5.42477 9.07986 7.47904
#
# Compressibility (1/GPa) = 0.03315878
#
# Stress axis : x y z
#
# Youngs Moduli (GPa) = 43.84173 24.26951 38.08320
#
# Poissons Ratio (x) = 0.04809 0.76277
# Poissons Ratio (y) = 0.08688 0.24928
# Poissons Ratio (z) = 0.87811 0.15886
#
# Static dielectric constant tensor:
#      x y z
#    x 1.595150 0.000000 0.000000 
#    y 0.000000 1.614210 0.000000 
#    z 0.000000 0.000000 1.614590 
# 
# From -- ./inp_files/43240.got.cif
#   From: 2010.05.17/outbox.cif.g08.bks.cpg/sg67_22_cif.got.tgz:43240.got - 2010.06.03 18:28:57.
