data_PCOD9501980
_publ_section_title
;
Structure prediction by ZEFSAII (Michael W. Deem and Ramdas Pophale) SiO2 
 PCOD9501980
Probable space group: C M M A
;
_chemical_formula_sum "Si O2"
_cell_formula_units_Z 88
_cell_length_a 23.788472
_cell_length_b 15.626022
_cell_length_c 11.864877
_cell_angle_alpha 90.000000
_cell_angle_beta 90.000000
_cell_angle_gamma 90.000000
_cell_volume 4410.402430
_symmetry_space_group_name_H-M "C M M A"
_symmetry_group_IT_number 67
_symmetry_cell_setting 'orthorhombic'
loop_
_space_group_symop_operation_xyz
x,y,z
-x,1/2-y,z
x,-y,-z
-x,1/2+y,-z
-x,-y,-z
x,1/2+y,-z
-x,y,z
x,1/2-y,z
1/2+x,1/2+y,z
1/2-x,-y,z
1/2+x,1/2-y,-z
1/2-x,y,-z
1/2-x,1/2-y,-z
1/2+x,y,-z
1/2-x,1/2+y,z
1/2+x,-y,z
loop_
_atom_site_type_symbol
_atom_site_label
_atom_site_fract_x
_atom_site_fract_y
_atom_site_fract_z
Si Si1 0.065532 0.010067 0.247734
Si Si2 0.742863 0.146717 0.704272
Si Si3 0.371877 0.653432 0.667066
Si Si4 0.690420 0.152902 0.939677
Si Si5 0.857941 0.911090 0.566279
Si Si6 0.613220 0.500000 0.000000
O O1 0.101872 0.075220 0.325595
O O2 0.078832 0.013969 0.114845
O O3 0.000000 0.023573 0.268937
O O4 0.084948 0.915217 0.285130
O O5 0.742555 0.250000 0.702077
O O6 0.808236 0.122185 0.697607
O O7 0.709127 0.120152 0.816475
O O8 0.704499 0.112278 0.604692
O O9 0.378742 0.750000 0.710681
O O10 0.376838 0.653543 0.531257
O O11 0.666446 0.250000 0.932682
O O12 0.652047 0.084918 0.003953
O O13 0.750000 0.159742 0.000000
O O14 0.857918 0.000000 0.500000
#
# Coordination Sequence:
#
# PCOD9501980 Si02
#       6
#    16  16  16  16  16   8
#     4  11  25  42  61  85 117 160 214 264 301 353
#     4  10  19  36  59  89 125 154 190 242 303 375
#     4  10  22  38  62  92 123 158 197 246 309 374
#     4  10  21  36  59  92 127 160 197 245 305 378
#     4  10  21  37  59  88 122 155 197 244 301 367
#     4  12  22  42  66  86 118 167 213 256 314 362
#
# _framework density 19.952826999999999
#
# number of rings (size 3 to 8) (size 9 to 14) (size 15 to 20)
#    0.000    1.636    1.818    2.727    0.000   12.364 
#    0.000    0.000    0.000    5.455    0.000    0.000 
#    0.000    0.000    0.000    0.000    0.000    0.000 
#
# Total GULP energy -245604.441982 kJ/mol
# GULP energy per Si atom -5581.919136 kJ/mol
# Density = 1.990741 g / cm^3
# Si number density = 19.952827 Si / 1000 Ang^3
#
#
#
# Elastic Constant Matrix: (Units=GPa)
#
#
# Indices 1 2 3 4 5 6 
#
# 1 89.3121 4.5055 12.3876 0.0000 0.0000 0.0000
# 2 4.5055 25.3738 -23.0014 0.0000 0.0000 0.0000
# 3 12.3876 -23.0014 66.0818 0.0000 0.0000 0.0000
# 4 0.0000 0.0000 0.0000 33.7209 0.0000 0.0000
# 5 0.0000 0.0000 0.0000 0.0000 13.7926 0.0000
# 6 0.0000 0.0000 0.0000 0.0000 0.0000 -81.9332
#
#
#
# Elastic Compliance Matrix: (Units=1/GPa)
#
#
# Indices 1 2 3 4 5 6 
#
# 1 0.012119 -0.006153 -0.004413 0.000000 0.000000 0.000000
# 2 -0.006153 0.060702 0.022282 0.000000 0.000000 0.000000
# 3 -0.004413 0.022282 0.023716 0.000000 0.000000 0.000000
# 4 0.000000 0.000000 0.000000 0.029655 0.000000 0.000000
# 5 0.000000 0.000000 0.000000 0.000000 0.072503 0.000000
# 6 0.000000 0.000000 0.000000 0.000000 0.000000 -0.012205
#
#
# Mechanical properties :
#
#
# Convention : Reuss Voigt Hill
#
# Bulk Modulus (GPa) = 8.33546 18.72791 13.53169
# Shear Modulus (GPa) = 24.62473 5.57448 15.09960
#
# Velocity S-wave (km/s) = 3.51685 1.67329 2.75392
# Velocity P-wave (km/s) = 4.54727 3.62487 4.11201
#
# Compressibility (1/GPa) = 0.11996944
#
# Stress axis : x y z
#
# Youngs Moduli (GPa) = 82.51348 16.47387 42.16559
#
# Poissons Ratio (x) = 0.10136 0.18610
# Poissons Ratio (y) = 0.50769 -0.93955
# Poissons Ratio (z) = 0.36417 -0.36708
#
# Static dielectric constant tensor:
#      x y z
#    x 1.665590 0.000000 0.000000 
#    y 0.000000 1.730870 0.000000 
#    z 0.000000 0.000000 1.787070 
# 
# From -- ./inp_files/22822.got.cif
#   From: 2010.05.17/outbox.cif.g08.bks.cpg/sg67_12_cif.got.tgz:22822.got - 2010.06.03 18:28:57.
