data_PCOD9501433
_publ_section_title
;
Structure prediction by ZEFSAII (Michael W. Deem and Ramdas Pophale) SiO2 
 PCOD9501433
Probable space group: C M M A
;
_chemical_formula_sum "Si O2"
_cell_formula_units_Z 80
_cell_length_a 14.335107
_cell_length_b 9.942648
_cell_length_c 24.697507
_cell_angle_alpha 90.000000
_cell_angle_beta 90.000000
_cell_angle_gamma 90.000000
_cell_volume 3520.109072
_symmetry_space_group_name_H-M "C M M A"
_symmetry_group_IT_number 67
_symmetry_cell_setting 'orthorhombic'
loop_
_space_group_symop_operation_xyz
x,y,z
-x,1/2-y,z
x,-y,-z
-x,1/2+y,-z
-x,-y,-z
x,1/2+y,-z
-x,y,z
x,1/2-y,z
1/2+x,1/2+y,z
1/2-x,-y,z
1/2+x,1/2-y,-z
1/2-x,y,-z
1/2-x,1/2-y,-z
1/2+x,y,-z
1/2-x,1/2+y,z
1/2+x,-y,z
loop_
_atom_site_type_symbol
_atom_site_label
_atom_site_fract_x
_atom_site_fract_y
_atom_site_fract_z
Si Si1 0.886387 0.406618 0.949146
Si Si2 0.886116 0.095055 0.151956
Si Si3 0.137798 0.250000 0.555057
Si Si4 0.361949 0.011664 0.368187
Si Si5 0.864557 0.750000 0.568991
Si Si6 0.608677 0.598666 0.754336
O O1 0.853768 0.250000 0.950346
O O2 0.860081 0.492609 0.896191
O O3 0.000000 0.399422 0.949787
O O4 0.859147 0.500000 0.000000
O O5 0.852843 0.250000 0.146443
O O6 0.000000 0.103486 0.151239
O O7 0.855581 0.020161 0.206993
O O8 0.107823 0.122535 0.589060
O O9 0.105401 0.250000 0.493396
O O10 0.251397 0.250000 0.560450
O O11 0.388871 0.052111 0.307800
O O12 0.250000 0.000000 0.366769
O O13 0.393720 0.874570 0.394791
O O14 0.500000 0.611881 0.769765
O O15 0.650231 0.750000 0.759742
#
# Coordination Sequence:
#
# PCOD9501433 Si02
#       6
#    16  16   8  16   8  16
#     4   9  15  23  37  58  86 120 158 200 244 287
#     4   9  17  28  42  62  88 121 162 202 241 287
#     4   9  16  32  49  73  99 123 156 193 242 294
#     4  10  19  32  51  75  98 123 159 201 243 288
#     4   9  18  28  51  75  97 123 152 199 244 288
#     4  10  20  34  50  67  95 134 168 197 237 293
#
# _framework density 22.726566999999999
#
# number of rings (size 3 to 8) (size 9 to 14) (size 15 to 20)
#    0.000    2.600    1.000    1.800    1.400    7.200 
#    0.000    0.000    0.000    3.600    0.000    0.000 
#    0.000    0.800    0.000    5.800    0.000    8.000 
#
# Total GULP energy -223324.074349 kJ/mol
# GULP energy per Si atom -5583.101859 kJ/mol
# Density = 2.267484 g / cm^3
# Si number density = 22.726567 Si / 1000 Ang^3
#
#
#
# Elastic Constant Matrix: (Units=GPa)
#
#
# Indices 1 2 3 4 5 6 
#
# 1 81.3677 3.6208 -13.0049 0.0000 0.0000 0.0000
# 2 3.6208 281.7784 117.2240 0.0000 0.0000 0.0000
# 3 -13.0049 117.2240 160.8646 0.0000 0.0000 0.0000
# 4 0.0000 0.0000 0.0000 37.0832 0.0000 0.0000
# 5 0.0000 0.0000 0.0000 0.0000 15.1594 0.0000
# 6 0.0000 0.0000 0.0000 0.0000 0.0000 1.6186
#
#
#
# Elastic Compliance Matrix: (Units=1/GPa)
#
#
# Indices 1 2 3 4 5 6 
#
# 1 0.012588 -0.000840 0.001630 0.000000 0.000000 0.000000
# 2 -0.000840 0.005149 -0.003820 0.000000 0.000000 0.000000
# 3 0.001630 -0.003820 0.009132 0.000000 0.000000 0.000000
# 4 0.000000 0.000000 0.000000 0.026966 0.000000 0.000000
# 5 0.000000 0.000000 0.000000 0.000000 0.065965 0.000000
# 6 0.000000 0.000000 0.000000 0.000000 0.000000 0.617818
#
#
# Mechanical properties :
#
#
# Convention : Reuss Voigt Hill
#
# Bulk Modulus (GPa) = 48.05802 82.18785 65.12293
# Shear Modulus (GPa) = 6.66121 38.51696 22.58909
#
# Velocity S-wave (km/s) = 1.71388 4.12126 3.15612
# Velocity P-wave (km/s) = 5.01085 7.67389 6.48064
#
# Compressibility (1/GPa) = 0.02080818
#
# Stress axis : x y z
#
# Youngs Moduli (GPa) = 79.44269 194.21989 109.50823
#
# Poissons Ratio (x) = 0.16308 -0.17844
# Poissons Ratio (y) = 0.06670 0.41831
# Poissons Ratio (z) = -0.12945 0.74190
#
# Static dielectric constant tensor:
#      x y z
#    x 2.120890 0.000000 0.000000 
#    y 0.000000 1.776050 0.000000 
#    z 0.000000 0.000000 1.790510 
# 
# From -- ./inp_files/39537.got.cif
#   From: 2010.05.17/outbox.cif.g08.bks.cpg/sg67_20_cif.got.tgz:39537.got - 2010.06.03 18:28:57.
