data_PCOD9501187
_publ_section_title
;
Structure prediction by ZEFSAII (Michael W. Deem and Ramdas Pophale) SiO2 
 PCOD9501187
Probable space group: C M M A
;
_chemical_formula_sum "Si O2"
_cell_formula_units_Z 112
_cell_length_a 25.535914
_cell_length_b 20.983851
_cell_length_c 12.135826
_cell_angle_alpha 90.000000
_cell_angle_beta 90.000000
_cell_angle_gamma 90.000000
_cell_volume 6502.883025
_symmetry_space_group_name_H-M "C M M A"
_symmetry_group_IT_number 67
_symmetry_cell_setting 'orthorhombic'
loop_
_space_group_symop_operation_xyz
x,y,z
-x,1/2-y,z
x,-y,-z
-x,1/2+y,-z
-x,-y,-z
x,1/2+y,-z
-x,y,z
x,1/2-y,z
1/2+x,1/2+y,z
1/2-x,-y,z
1/2+x,1/2-y,-z
1/2-x,y,-z
1/2-x,1/2-y,-z
1/2+x,y,-z
1/2-x,1/2+y,z
1/2+x,-y,z
loop_
_atom_site_type_symbol
_atom_site_label
_atom_site_fract_x
_atom_site_fract_y
_atom_site_fract_z
Si Si1 0.244184 0.823867 0.133218
Si Si2 0.060279 0.879156 0.736726
Si Si3 0.936438 0.926076 0.497848
Si Si4 0.132670 0.374405 0.865418
Si Si5 0.437516 0.321215 0.316764
Si Si6 0.143182 0.675940 0.889705
Si Si7 0.058060 0.988424 0.130905
O O1 0.235452 0.750000 0.165789
O O2 0.193448 0.864311 0.165572
O O3 0.302220 0.846166 0.166299
O O4 0.250000 0.825358 0.000000
O O5 0.078033 0.892911 0.612770
O O6 0.096854 0.832424 0.804110
O O7 0.000000 0.857706 0.734931
O O8 0.062060 0.946276 0.802360
O O9 0.921512 0.879344 0.397599
O O10 0.000000 0.928944 0.495166
O O11 0.918348 0.000000 0.500000
O O12 0.096016 0.327716 0.794509
O O13 0.106128 0.442382 0.843766
O O14 0.130603 0.359907 0.996287
O O15 0.500000 0.326486 0.296171
O O16 0.428878 0.250000 0.364435
O O17 0.150924 0.750000 0.919042
O O18 0.000000 0.960527 0.158315
O O19 0.058401 0.000000 0.000000
#
# Coordination Sequence:
#
# PCOD9501187 Si02
#       7
#    16  16  16  16  16  16  16
#     4   8  16  31  49  69  96 133 171 206 246 296
#     4  10  20  34  52  74 101 133 168 203 251 309
#     4   9  18  34  53  71  95 134 177 208 245 308
#     4  11  18  31  53  73  99 136 171 203 252 310
#     4  10  20  31  47  76 107 131 165 218 264 297
#     4  10  20  33  50  74 104 133 165 206 253 306
#     4  10  19  31  47  72 106 136 162 201 251 303
#
# _framework density 17.223129
#
# number of rings (size 3 to 8) (size 9 to 14) (size 15 to 20)
#    0.000    2.286    1.429    3.429    0.000    3.714 
#    0.000    2.143    0.000    0.857    0.000    4.000 
#    0.000    0.000    0.000    0.000    0.000    0.000 
#
# Total GULP energy -311912.440092 kJ/mol
# GULP energy per Si atom -5569.865002 kJ/mol
# Density = 1.718393 g / cm^3
# Si number density = 17.223129 Si / 1000 Ang^3
#
#
#
# Elastic Constant Matrix: (Units=GPa)
#
#
# Indices 1 2 3 4 5 6 
#
# 1 89.5941 24.9292 26.1410 0.0000 0.0000 0.0000
# 2 24.9292 48.8192 3.8184 0.0000 0.0000 0.0000
# 3 26.1410 3.8184 54.7758 0.0000 0.0000 0.0000
# 4 0.0000 0.0000 0.0000 21.7400 0.0000 0.0000
# 5 0.0000 0.0000 0.0000 0.0000 6.7756 0.0000
# 6 0.0000 0.0000 0.0000 0.0000 0.0000 23.3369
#
#
#
# Elastic Compliance Matrix: (Units=1/GPa)
#
#
# Indices 1 2 3 4 5 6 
#
# 1 0.015124 -0.007198 -0.006716 0.000000 0.000000 0.000000
# 2 -0.007198 0.024021 0.001760 0.000000 0.000000 0.000000
# 3 -0.006716 0.001760 0.021339 0.000000 0.000000 0.000000
# 4 0.000000 0.000000 0.000000 0.045998 0.000000 0.000000
# 5 0.000000 0.000000 0.000000 0.000000 0.147589 0.000000
# 6 0.000000 0.000000 0.000000 0.000000 0.000000 0.042851
#
#
# Mechanical properties :
#
#
# Convention : Reuss Voigt Hill
#
# Bulk Modulus (GPa) = 27.64129 33.66291 30.65210
# Shear Modulus (GPa) = 15.00211 19.59054 17.29632
#
# Velocity S-wave (km/s) = 2.95455 3.37628 3.17243
# Velocity P-wave (km/s) = 5.26526 5.89802 5.59060
#
# Compressibility (1/GPa) = 0.03617776
#
# Stress axis : x y z
#
# Youngs Moduli (GPa) = 66.12179 41.62951 46.86357
#
# Poissons Ratio (x) = 0.29963 0.31473
# Poissons Ratio (y) = 0.47591 -0.08250
# Poissons Ratio (z) = 0.44406 -0.07328
#
# Static dielectric constant tensor:
#      x y z
#    x 1.609120 0.000000 0.000000 
#    y 0.000000 1.610450 0.000000 
#    z 0.000000 0.000000 1.582880 
# 
# From -- ./inp_files/22166.got.cif
#   From: 2010.05.17/outbox.cif.g08.bks.cpg/sg67_12_cif.got.tgz:22166.got - 2010.06.03 18:28:57.
