data_PCOD9501920
_publ_section_title
;
Structure prediction by ZEFSAII (Michael W. Deem and Ramdas Pophale) SiO2 
 PCOD9501920
Probable space group: C M M A
;
_chemical_formula_sum "Si O2"
_cell_formula_units_Z 96
_cell_length_a 18.790375
_cell_length_b 14.724576
_cell_length_c 15.769612
_cell_angle_alpha 90.000000
_cell_angle_beta 90.000000
_cell_angle_gamma 90.000000
_cell_volume 4363.141054
_symmetry_space_group_name_H-M "C M M A"
_symmetry_group_IT_number 67
_symmetry_cell_setting 'orthorhombic'
loop_
_space_group_symop_operation_xyz
x,y,z
-x,1/2-y,z
x,-y,-z
-x,1/2+y,-z
-x,-y,-z
x,1/2+y,-z
-x,y,z
x,1/2-y,z
1/2+x,1/2+y,z
1/2-x,-y,z
1/2+x,1/2-y,-z
1/2-x,y,-z
1/2-x,1/2-y,-z
1/2+x,y,-z
1/2-x,1/2+y,z
1/2+x,-y,z
loop_
_atom_site_type_symbol
_atom_site_label
_atom_site_fract_x
_atom_site_fract_y
_atom_site_fract_z
Si Si1 0.792753 0.359582 0.352025
Si Si2 0.083968 0.889704 0.170345
Si Si3 0.175980 0.938166 0.829674
Si Si4 0.332575 0.888938 0.998462
Si Si5 0.923416 0.861223 0.533061
Si Si6 0.865461 0.855439 0.359705
O O1 0.790658 0.250000 0.358710
O O2 0.810055 0.386788 0.256425
O O3 0.854747 0.391731 0.414439
O O4 0.713293 0.396591 0.367407
O O5 0.106963 0.854811 0.263112
O O6 0.000000 0.878272 0.158467
O O7 0.111259 0.992373 0.178186
O O8 0.125413 0.856259 0.084690
O O9 0.150628 0.869885 0.903788
O O10 0.250000 0.000000 0.846537
O O11 0.250000 0.863557 0.000000
O O12 0.338931 0.000000 0.000000
O O13 0.924246 0.750000 0.537421
O O14 0.915059 0.890585 0.434892
O O15 0.000000 0.891868 0.566769
O O16 0.856633 0.750000 0.381496
#
# Coordination Sequence:
#
# PCOD9501920 Si02
#       6
#    16  16  16  16  16  16
#     4  10  20  35  59  86 109 143 193 232 272 334
#     4  11  22  34  56  88 112 142 189 234 278 332
#     4  11  19  36  58  79 110 150 180 225 277 328
#     4   9  15  31  54  76 102 144 181 216 268 326
#     4   9  18  33  54  80 112 150 188 228 276 331
#     4  10  19  35  58  83 114 151 188 230 278 333
#
# _framework density 22.002497999999999
#
# number of rings (size 3 to 8) (size 9 to 14) (size 15 to 20)
#    0.000    2.000    5.000    1.000    0.000    6.667 
#    0.000    1.667    0.000    5.000    0.000    0.000 
#    0.000    0.000    0.000    0.000    0.000    0.000 
#
# Total GULP energy -267320.223047 kJ/mol
# GULP energy per Si atom -5569.171313 kJ/mol
# Density = 2.195242 g / cm^3
# Si number density = 22.002498 Si / 1000 Ang^3
#
#
#
# Elastic Constant Matrix: (Units=GPa)
#
#
# Indices 1 2 3 4 5 6 
#
# 1 177.9852 6.7074 66.9616 0.0000 0.0000 0.0000
# 2 6.7074 30.2888 -16.7218 0.0000 0.0000 0.0000
# 3 66.9616 -16.7218 97.5766 0.0000 0.0000 0.0000
# 4 0.0000 0.0000 0.0000 -15.9456 0.0000 0.0000
# 5 0.0000 0.0000 0.0000 0.0000 31.6999 0.0000
# 6 0.0000 0.0000 0.0000 0.0000 0.0000 10.9193
#
#
#
# Elastic Compliance Matrix: (Units=1/GPa)
#
#
# Indices 1 2 3 4 5 6 
#
# 1 0.008335 -0.005526 -0.006667 0.000000 0.000000 0.000000
# 2 -0.005526 0.040130 0.010670 0.000000 0.000000 0.000000
# 3 -0.006667 0.010670 0.016652 0.000000 0.000000 0.000000
# 4 0.000000 0.000000 0.000000 -0.062713 0.000000 0.000000
# 5 0.000000 0.000000 0.000000 0.000000 0.031546 0.000000
# 6 0.000000 0.000000 0.000000 0.000000 0.000000 0.091581
#
#
# Mechanical properties :
#
#
# Convention : Reuss Voigt Hill
#
# Bulk Modulus (GPa) = 16.11109 46.63835 31.37472
# Shear Modulus (GPa) = 33.49705 21.92829 27.71267
#
# Velocity S-wave (km/s) = 3.90605 3.16037 3.55283
# Velocity P-wave (km/s) = 5.26130 5.87878 5.57859
#
# Compressibility (1/GPa) = 0.06206906
#
# Stress axis : x y z
#
# Youngs Moduli (GPa) = 119.97725 24.91919 60.05320
#
# Poissons Ratio (x) = 0.13771 0.40037
# Poissons Ratio (y) = 0.66304 -0.64074
# Poissons Ratio (z) = 0.79987 -0.26588
#
# Static dielectric constant tensor:
#      x y z
#    x 1.834890 0.000000 0.000000 
#    y 0.000000 2.099910 0.000000 
#    z 0.000000 0.000000 1.898290 
# 
# From -- ./inp_files/27216.got.cif
#   From: 2010.05.17/outbox.cif.g08.bks.cpg/sg67_14_cif.got.tgz:27216.got - 2010.06.03 18:28:57.
