data_PCOD9501447
_publ_section_title
;
Structure prediction by ZEFSAII (Michael W. Deem and Ramdas Pophale) SiO2 
 PCOD9501447
Probable space group: C M M A
;
_chemical_formula_sum "Si O2"
_cell_formula_units_Z 80
_cell_length_a 25.529122
_cell_length_b 17.181716
_cell_length_c 10.285129
_cell_angle_alpha 90.000000
_cell_angle_beta 90.000000
_cell_angle_gamma 90.000000
_cell_volume 4511.408548
_symmetry_space_group_name_H-M "C M M A"
_symmetry_group_IT_number 67
_symmetry_cell_setting 'orthorhombic'
loop_
_space_group_symop_operation_xyz
x,y,z
-x,1/2-y,z
x,-y,-z
-x,1/2+y,-z
-x,-y,-z
x,1/2+y,-z
-x,y,z
x,1/2-y,z
1/2+x,1/2+y,z
1/2-x,-y,z
1/2+x,1/2-y,-z
1/2-x,y,-z
1/2-x,1/2-y,-z
1/2+x,y,-z
1/2-x,1/2+y,z
1/2+x,-y,z
loop_
_atom_site_type_symbol
_atom_site_label
_atom_site_fract_x
_atom_site_fract_y
_atom_site_fract_z
Si Si1 0.322392 0.839899 0.723675
Si Si2 0.059653 0.564699 0.887190
Si Si3 0.879817 0.495199 0.642625
Si Si4 0.842340 0.660026 0.968398
Si Si5 0.719058 0.578877 0.257843
O O1 0.334505 0.750000 0.690589
O O2 0.359435 0.907337 0.666816
O O3 0.262298 0.861396 0.688999
O O4 0.328406 0.848957 0.880291
O O5 0.082802 0.524863 0.757465
O O6 0.099215 0.631258 0.935554
O O7 0.000000 0.591014 0.868017
O O8 0.060468 0.500000 0.000000
O O9 0.903760 0.500000 0.500000
O O10 0.828740 0.552297 0.650054
O O11 0.835847 0.750000 0.934560
O O12 0.805142 0.610748 0.875020
O O13 0.750000 0.500000 0.229284
#
# Coordination Sequence:
#
# PCOD9501447 Si02
#       5
#    16  16  16  16  16
#     4  10  19  32  51  77 110 145 182 219 266 319
#     4  10  20  37  60  82 102 132 179 226 274 328
#     4  10  21  37  54  78 110 145 182 222 266 319
#     4  10  19  32  52  82 112 139 176 228 282 322
#     4   9  19  30  50  77 110 148 186 218 259 313
#
# _framework density 17.732821000000001
#
# number of rings (size 3 to 8) (size 9 to 14) (size 15 to 20)
#    0.000    2.200    2.000    1.200    0.000    8.400 
#    0.000    6.000    0.000    0.600    0.000    0.000 
#    0.000    0.000    0.000    0.000    0.000    0.000 
#
# Total GULP energy -223134.614645 kJ/mol
# GULP energy per Si atom -5578.365366 kJ/mol
# Density = 1.769246 g / cm^3
# Si number density = 17.732821 Si / 1000 Ang^3
#
#
#
# Elastic Constant Matrix: (Units=GPa)
#
#
# Indices 1 2 3 4 5 6 
#
# 1 67.2944 -10.4140 6.2773 0.0000 0.0000 0.0000
# 2 -10.4140 33.6197 9.4901 0.0000 0.0000 0.0000
# 3 6.2773 9.4901 67.9859 0.0000 0.0000 0.0000
# 4 0.0000 0.0000 0.0000 9.7614 0.0000 0.0000
# 5 0.0000 0.0000 0.0000 0.0000 1.0723 0.0000
# 6 0.0000 0.0000 0.0000 0.0000 0.0000 9.9342
#
#
#
# Elastic Compliance Matrix: (Units=1/GPa)
#
#
# Indices 1 2 3 4 5 6 
#
# 1 0.015932 0.005570 -0.002249 0.000000 0.000000 0.000000
# 2 0.005570 0.032912 -0.005108 0.000000 0.000000 0.000000
# 3 -0.002249 -0.005108 0.015630 0.000000 0.000000 0.000000
# 4 0.000000 0.000000 0.000000 0.102445 0.000000 0.000000
# 5 0.000000 0.000000 0.000000 0.000000 0.932605 0.000000
# 6 0.000000 0.000000 0.000000 0.000000 0.000000 0.100663
#
#
# Mechanical properties :
#
#
# Convention : Reuss Voigt Hill
#
# Bulk Modulus (GPa) = 16.42071 19.95633 18.18852
# Shear Modulus (GPa) = 4.08477 15.05667 9.57072
#
# Velocity S-wave (km/s) = 1.51938 2.91707 2.32570
# Velocity P-wave (km/s) = 3.51542 4.75647 4.18224
#
# Compressibility (1/GPa) = 0.06089870
#
# Stress axis : x y z
#
# Youngs Moduli (GPa) = 62.76775 30.38432 63.98105
#
# Poissons Ratio (x) = -0.16923 0.14386
# Poissons Ratio (y) = -0.34960 0.32684
# Poissons Ratio (z) = 0.14113 0.15522
#
# Static dielectric constant tensor:
#      x y z
#    x 1.615680 0.000000 0.000000 
#    y 0.000000 1.597150 0.000000 
#    z 0.000000 0.000000 1.600460 
# 
# From -- ./inp_files/9907.got.cif
#   From: 2010.05.17/outbox.cif.g08.bks.cpg/sg67_5_cif.got.tgz:9907.got - 2010.06.03 18:28:57.
