data_PCOD9501050
_publ_section_title
;
Structure prediction by ZEFSAII (Michael W. Deem and Ramdas Pophale) SiO2 
 PCOD9501050
Probable space group: C M M A
;
_chemical_formula_sum "Si O2"
_cell_formula_units_Z 116
_cell_length_a 18.049063
_cell_length_b 26.203768
_cell_length_c 14.595390
_cell_angle_alpha 90.000000
_cell_angle_beta 90.000000
_cell_angle_gamma 90.000000
_cell_volume 6902.940193
_symmetry_space_group_name_H-M "C M M A"
_symmetry_group_IT_number 67
_symmetry_cell_setting 'orthorhombic'
loop_
_space_group_symop_operation_xyz
x,y,z
-x,1/2-y,z
x,-y,-z
-x,1/2+y,-z
-x,-y,-z
x,1/2+y,-z
-x,y,z
x,1/2-y,z
1/2+x,1/2+y,z
1/2-x,-y,z
1/2+x,1/2-y,-z
1/2-x,y,-z
1/2-x,1/2-y,-z
1/2+x,y,-z
1/2-x,1/2+y,z
1/2+x,-y,z
loop_
_atom_site_type_symbol
_atom_site_label
_atom_site_fract_x
_atom_site_fract_y
_atom_site_fract_z
Si Si1 0.273429 0.621240 0.266168
Si Si2 0.776921 0.311172 0.897046
Si Si3 0.086162 0.561313 0.674878
Si Si4 0.917958 0.310355 0.793689
Si Si5 0.183631 0.309477 0.611682
Si Si6 0.847533 0.548989 0.344058
Si Si7 0.250000 0.500000 0.500000
Si Si8 0.082557 0.618217 0.482440
O O1 0.267996 0.655369 0.175710
O O2 0.353288 0.595929 0.274875
O O3 0.253305 0.658690 0.350983
O O4 0.208085 0.578060 0.274805
O O5 0.770001 0.250000 0.877845
O O6 0.861798 0.326889 0.873827
O O7 0.750000 0.319716 0.000000
O O8 0.114305 0.503303 0.686151
O O9 0.091132 0.580230 0.568729
O O10 0.000000 0.566392 0.701827
O O11 0.926455 0.250000 0.807608
O O12 0.874347 0.314260 0.697402
O O13 0.000000 0.333654 0.792236
O O14 0.198241 0.250000 0.596188
O O15 0.144159 0.338051 0.527833
O O16 0.796858 0.534601 0.431563
O O17 0.907939 0.585943 0.389035
O O18 0.000000 0.640421 0.488097
#
# Coordination Sequence:
#
# PCOD9501050 Si02
#       8
#    16  16  16  16  16  16   4  16
#     4  10  19  33  53  75  97 127 168 206 252 309
#     4   9  18  34  56  79 103 130 161 202 250 306
#     4  11  21  33  47  68 101 136 169 207 248 292
#     4   8  13  24  44  70  97 123 154 197 249 292
#     4   9  18  30  47  69  98 134 169 212 257 295
#     4  11  18  30  50  72  98 130 171 218 256 287
#     4  12  16  28  50  72  96 128 174 216 248 284
#     4  10  19  29  45  71 100 133 173 210 248 293
#
# _framework density 16.804433
#
# number of rings (size 3 to 8) (size 9 to 14) (size 15 to 20)
#    0.000    2.207    2.759    2.069    0.000    3.586 
#    0.000    3.448    0.000    5.793    0.000    0.966 
#    0.000    0.000    0.000    0.000    0.000    0.000 
#
# Total GULP energy -323002.162208 kJ/mol
# GULP energy per Si atom -5569.002797 kJ/mol
# Density = 1.676619 g / cm^3
# Si number density = 16.804433 Si / 1000 Ang^3
#
#
#
# Elastic Constant Matrix: (Units=GPa)
#
#
# Indices 1 2 3 4 5 6 
#
# 1 103.5981 42.6533 42.6118 0.0000 0.0000 0.0000
# 2 42.6533 102.7222 27.1628 0.0000 0.0000 0.0000
# 3 42.6118 27.1628 67.1205 0.0000 0.0000 0.0000
# 4 0.0000 0.0000 0.0000 24.6785 0.0000 0.0000
# 5 0.0000 0.0000 0.0000 0.0000 11.7862 0.0000
# 6 0.0000 0.0000 0.0000 0.0000 0.0000 12.4352
#
#
#
# Elastic Compliance Matrix: (Units=1/GPa)
#
#
# Indices 1 2 3 4 5 6 
#
# 1 0.014387 -0.003985 -0.007521 0.000000 0.000000 0.000000
# 2 -0.003985 0.012005 -0.002328 0.000000 0.000000 0.000000
# 3 -0.007521 -0.002328 0.020616 0.000000 0.000000 0.000000
# 4 0.000000 0.000000 0.000000 0.040521 0.000000 0.000000
# 5 0.000000 0.000000 0.000000 0.000000 0.084845 0.000000
# 6 0.000000 0.000000 0.000000 0.000000 0.000000 0.080417
#
#
# Mechanical properties :
#
#
# Convention : Reuss Voigt Hill
#
# Bulk Modulus (GPa) = 51.70909 55.36629 53.53769
# Shear Modulus (GPa) = 17.42732 20.51419 18.97076
#
# Velocity S-wave (km/s) = 3.22385 3.49773 3.36358
# Velocity P-wave (km/s) = 6.68547 7.02361 6.85662
#
# Compressibility (1/GPa) = 0.01933896
#
# Stress axis : x y z
#
# Youngs Moduli (GPa) = 69.50763 83.29549 48.50714
#
# Poissons Ratio (x) = 0.33194 0.36482
# Poissons Ratio (y) = 0.27700 0.11295
# Poissons Ratio (z) = 0.52276 0.19395
#
# Static dielectric constant tensor:
#      x y z
#    x 1.629360 0.000000 0.000000 
#    y 0.000000 1.601690 0.000000 
#    z 0.000000 0.000000 1.551870 
# 
# From -- ./inp_files/28826.got.cif
#   From: 2010.05.17/outbox.cif.g08.bks.cpg/sg67_15_cif.got.tgz:28826.got - 2010.06.03 18:28:57.
