data_PCOD9501163
_publ_section_title
;
Structure prediction by ZEFSAII (Michael W. Deem and Ramdas Pophale) SiO2 
 PCOD9501163
Probable space group: C M M A
;
_chemical_formula_sum "Si O2"
_cell_formula_units_Z 112
_cell_length_a 18.051076
_cell_length_b 15.000338
_cell_length_c 18.484881
_cell_angle_alpha 90.000000
_cell_angle_beta 90.000000
_cell_angle_gamma 90.000000
_cell_volume 5005.192658
_symmetry_space_group_name_H-M "C M M A"
_symmetry_group_IT_number 67
_symmetry_cell_setting 'orthorhombic'
loop_
_space_group_symop_operation_xyz
x,y,z
-x,1/2-y,z
x,-y,-z
-x,1/2+y,-z
-x,-y,-z
x,1/2+y,-z
-x,y,z
x,1/2-y,z
1/2+x,1/2+y,z
1/2-x,-y,z
1/2+x,1/2-y,-z
1/2-x,y,-z
1/2-x,1/2-y,-z
1/2+x,y,-z
1/2-x,1/2+y,z
1/2+x,-y,z
loop_
_atom_site_type_symbol
_atom_site_label
_atom_site_fract_x
_atom_site_fract_y
_atom_site_fract_z
Si Si1 0.579638 0.092894 0.779421
Si Si2 0.583117 0.120401 0.215221
Si Si3 0.630962 0.350702 0.626691
Si Si4 0.335169 0.854602 0.527016
Si Si5 0.157653 0.389306 0.928313
Si Si6 0.328580 0.393904 0.913647
Si Si7 0.210518 0.093945 0.674554
O O1 0.500000 0.129797 0.800035
O O2 0.592348 0.105956 0.694755
O O3 0.637845 0.131407 0.836423
O O4 0.579549 0.986784 0.787709
O O5 0.500000 0.150640 0.236473
O O6 0.605508 0.147325 0.134261
O O7 0.653814 0.135382 0.267823
O O8 0.604517 0.250000 0.621937
O O9 0.623105 0.387173 0.545213
O O10 0.717610 0.350226 0.651084
O O11 0.353910 0.750000 0.542528
O O12 0.250000 0.855327 0.500000
O O13 0.336339 0.912587 0.599790
O O14 0.243317 0.364795 0.915584
O O15 0.162699 0.497892 0.920244
O O16 0.136425 0.363603 0.010087
O O17 0.250000 0.000000 0.697397
#
# Coordination Sequence:
#
# PCOD9501163 Si02
#       7
#    16  16  16  16  16  16  16
#     4  10  19  31  46  71 108 142 172 209 256 308
#     4  10  20  31  45  73 112 141 168 207 257 314
#     4  10  20  35  54  77 102 133 173 218 265 314
#     4   8  17  33  52  76 101 124 167 223 265 311
#     4   8  14  25  44  67 102 137 170 207 259 297
#     4   8  14  25  44  71  97 134 175 214 246 302
#     4  11  19  32  55  79 101 132 174 217 269 305
#
# _framework density 22.376761999999999
#
# number of rings (size 3 to 8) (size 9 to 14) (size 15 to 20)
#    0.000    2.714    1.429    3.000    2.000    3.429 
#    0.000    3.571    0.000    4.286    0.000    9.000 
#    0.000    0.000    0.000    0.000    0.000    0.000 
#
# Total GULP energy -311925.330171 kJ/mol
# GULP energy per Si atom -5570.095182 kJ/mol
# Density = 2.232583 g / cm^3
# Si number density = 22.376762 Si / 1000 Ang^3
#
#
#
# Elastic Constant Matrix: (Units=GPa)
#
#
# Indices 1 2 3 4 5 6 
#
# 1 47.4126 -2.0569 27.8599 0.0000 0.0000 0.0000
# 2 -2.0569 49.9626 -0.5384 0.0000 0.0000 0.0000
# 3 27.8599 -0.5384 111.7085 0.0000 0.0000 0.0000
# 4 0.0000 0.0000 0.0000 -151.7696 0.0000 0.0000
# 5 0.0000 0.0000 0.0000 0.0000 4.0618 0.0000
# 6 0.0000 0.0000 0.0000 0.0000 0.0000 -26.2572
#
#
#
# Elastic Compliance Matrix: (Units=1/GPa)
#
#
# Indices 1 2 3 4 5 6 
#
# 1 0.024758 0.000953 -0.006170 0.000000 0.000000 0.000000
# 2 0.000953 0.020053 -0.000141 0.000000 0.000000 0.000000
# 3 -0.006170 -0.000141 0.010490 0.000000 0.000000 0.000000
# 4 0.000000 0.000000 0.000000 -0.006589 0.000000 0.000000
# 5 0.000000 0.000000 0.000000 0.000000 0.246198 0.000000
# 6 0.000000 0.000000 0.000000 0.000000 0.000000 -0.038085
#
#
# Mechanical properties :
#
#
# Convention : Reuss Voigt Hill
#
# Bulk Modulus (GPa) = 22.42936 28.84589 25.63762
# Shear Modulus (GPa) = 17.70516 -22.53839 -2.41662
#
# Velocity S-wave (km/s) = 2.81593 -3.17712 -1.04034
# Velocity P-wave (km/s) = 4.54069 0.73472 3.16844
#
# Compressibility (1/GPa) = 0.04458443
#
# Stress axis : x y z
#
# Youngs Moduli (GPa) = 40.39039 49.86867 95.32890
#
# Poissons Ratio (x) = -0.04751 0.58819
# Poissons Ratio (y) = -0.03848 0.01344
# Poissons Ratio (z) = 0.24921 0.00703
#
# Static dielectric constant tensor:
#      x y z
#    x 1.826700 0.000000 0.000000 
#    y 0.000000 1.878460 0.000000 
#    z 0.000000 0.000000 1.871940 
# 
# From -- ./inp_files/35092.got.cif
#   From: 2010.05.17/outbox.cif.g08.bks.cpg/sg67_18_cif.got.tgz:35092.got - 2010.06.03 18:28:57.
