data_PCOD9501167
_publ_section_title
;
Structure prediction by ZEFSAII (Michael W. Deem and Ramdas Pophale) SiO2 
 PCOD9501167
Probable space group: C M M A
;
_chemical_formula_sum "Si O2"
_cell_formula_units_Z 96
_cell_length_a 20.799049
_cell_length_b 8.341836
_cell_length_c 30.891448
_cell_angle_alpha 90.000000
_cell_angle_beta 90.000000
_cell_angle_gamma 90.000000
_cell_volume 5359.735910
_symmetry_space_group_name_H-M "C M M A"
_symmetry_group_IT_number 67
_symmetry_cell_setting 'orthorhombic'
loop_
_space_group_symop_operation_xyz
x,y,z
-x,1/2-y,z
x,-y,-z
-x,1/2+y,-z
-x,-y,-z
x,1/2+y,-z
-x,y,z
x,1/2-y,z
1/2+x,1/2+y,z
1/2-x,-y,z
1/2+x,1/2-y,-z
1/2-x,y,-z
1/2-x,1/2-y,-z
1/2+x,y,-z
1/2-x,1/2+y,z
1/2+x,-y,z
loop_
_atom_site_type_symbol
_atom_site_label
_atom_site_fract_x
_atom_site_fract_y
_atom_site_fract_z
Si Si1 0.426787 0.941718 0.548253
Si Si2 0.178810 0.558345 0.615722
Si Si3 0.321873 0.057666 0.951406
Si Si4 0.178791 0.056169 0.285197
Si Si5 0.073295 0.554422 0.783336
Si Si6 0.573364 0.554488 0.117884
O O1 0.500000 0.998457 0.557497
O O2 0.427089 0.750000 0.548229
O O3 0.409888 0.000000 0.500000
O O4 0.375841 0.000303 0.583275
O O5 0.179094 0.750000 0.615903
O O6 0.250000 0.500000 0.602932
O O7 0.167021 0.502188 0.665261
O O8 0.321842 0.250000 0.951412
O O9 0.374503 0.999361 0.916894
O O10 0.250000 0.000000 0.940473
O O11 0.336676 0.000000 0.000000
O O12 0.177927 0.250000 0.285111
O O13 0.124863 0.998659 0.251722
O O14 0.250000 0.000000 0.272634
O O15 0.073972 0.750000 0.782876
O O16 0.088337 0.505421 0.832716
O O17 0.000000 0.505325 0.773364
O O18 0.500000 0.505065 0.107836
O O19 0.573902 0.750000 0.117412
#
# Coordination Sequence:
#
# PCOD9501167 Si02
#       6
#    16  16  16  16  16  16
#     4  10  21  37  56  78 104 133 166 205 249 296
#     4  10  20  34  52  75 104 135 169 207 246 291
#     4  10  19  31  47  67  92 121 154 192 235 282
#     4   9  18  31  49  73  99 128 160 197 239 282
#     4   8  14  27  47  70  95 123 158 197 234 277
#     4   8  15  28  46  68  93 121 155 195 236 279
#
# _framework density 17.911328999999999
#
# number of rings (size 3 to 8) (size 9 to 14) (size 15 to 20)
#    0.000    2.833    0.000    3.000    0.000    3.667 
#    0.000    3.333    0.000    3.000    0.000    4.667 
#    0.000    0.000    0.000    0.000    0.000    0.000 
#
# Total GULP energy -267640.896383 kJ/mol
# GULP energy per Si atom -5575.852008 kJ/mol
# Density = 1.787056 g / cm^3
# Si number density = 17.911329 Si / 1000 Ang^3
#
#
#
# Elastic Constant Matrix: (Units=GPa)
#
#
# Indices 1 2 3 4 5 6 
#
# 1 169.4163 20.6669 142.9397 0.0000 0.0000 0.0000
# 2 20.6669 22.4321 19.6398 0.0000 0.0000 0.0000
# 3 142.9397 19.6398 142.4070 0.0000 0.0000 0.0000
# 4 0.0000 0.0000 0.0000 9.9621 0.0000 0.0000
# 5 0.0000 0.0000 0.0000 0.0000 45.4785 0.0000
# 6 0.0000 0.0000 0.0000 0.0000 0.0000 22.2642
#
#
#
# Elastic Compliance Matrix: (Units=1/GPa)
#
#
# Indices 1 2 3 4 5 6 
#
# 1 0.038616 -0.001867 -0.038503 0.000000 0.000000 0.000000
# 2 -0.001867 0.050791 -0.005131 0.000000 0.000000 0.000000
# 3 -0.038503 -0.005131 0.046377 0.000000 0.000000 0.000000
# 4 0.000000 0.000000 0.000000 0.100381 0.000000 0.000000
# 5 0.000000 0.000000 0.000000 0.000000 0.021988 0.000000
# 6 0.000000 0.000000 0.000000 0.000000 0.000000 0.044915
#
#
# Mechanical properties :
#
#
# Convention : Reuss Voigt Hill
#
# Bulk Modulus (GPa) = 22.33024 77.86093 50.09558
# Shear Modulus (GPa) = 12.22500 25.60822 18.91661
#
# Velocity S-wave (km/s) = 2.61536 3.78527 3.25333
# Velocity P-wave (km/s) = 4.64912 7.91637 6.49166
#
# Compressibility (1/GPa) = 0.04478233
#
# Stress axis : x y z
#
# Youngs Moduli (GPa) = 25.89583 19.68848 21.56244
#
# Poissons Ratio (x) = 0.03676 0.83022
# Poissons Ratio (y) = 0.04835 0.11063
# Poissons Ratio (z) = 0.99707 0.10102
#
# Static dielectric constant tensor:
#      x y z
#    x 1.596430 0.000000 0.000000 
#    y 0.000000 1.616260 0.000000 
#    z 0.000000 0.000000 1.602840 
# 
# From -- ./inp_files/44573.got.cif
#   From: 2010.05.17/outbox.cif.g08.bks.cpg/sg67_23_cif.got.tgz:44573.got - 2010.06.03 18:28:57.
