data_PCOD9501565
_publ_section_title
;
Structure prediction by ZEFSAII (Michael W. Deem and Ramdas Pophale) SiO2 
 PCOD9501565
Probable space group: C M M A
;
_chemical_formula_sum "Si O2"
_cell_formula_units_Z 88
_cell_length_a 8.264289
_cell_length_b 34.115788
_cell_length_c 16.529326
_cell_angle_alpha 90.000000
_cell_angle_beta 90.000000
_cell_angle_gamma 90.000000
_cell_volume 4660.323322
_symmetry_space_group_name_H-M "C M M A"
_symmetry_group_IT_number 67
_symmetry_cell_setting 'orthorhombic'
loop_
_space_group_symop_operation_xyz
x,y,z
-x,1/2-y,z
x,-y,-z
-x,1/2+y,-z
-x,-y,-z
x,1/2+y,-z
-x,y,z
x,1/2-y,z
1/2+x,1/2+y,z
1/2-x,-y,z
1/2+x,1/2-y,-z
1/2-x,y,-z
1/2-x,1/2-y,-z
1/2+x,y,-z
1/2-x,1/2+y,z
1/2+x,-y,z
loop_
_atom_site_type_symbol
_atom_site_label
_atom_site_fract_x
_atom_site_fract_y
_atom_site_fract_z
Si Si1 0.693089 0.313293 0.785792
Si Si2 0.306743 0.750000 0.089691
Si Si3 0.694230 0.400130 0.234518
Si Si4 0.307520 0.044995 0.911216
Si Si5 0.690604 0.792672 0.612958
Si Si6 0.304768 0.119308 0.414482
O O1 0.500000 0.308530 0.772511
O O2 0.745965 0.288520 0.862608
O O3 0.734891 0.358604 0.793662
O O4 0.785784 0.295940 0.708924
O O5 0.500000 0.750000 0.091316
O O6 0.250000 0.750000 0.000000
O O7 0.500000 0.398495 0.234558
O O8 0.746799 0.432017 0.168365
O O9 0.744818 0.401990 0.330308
O O10 0.500000 0.046162 0.911451
O O11 0.250000 0.000000 0.905998
O O12 0.250000 0.060220 0.000000
O O13 0.500000 0.792357 0.592561
O O14 0.760471 0.750000 0.588033
O O15 0.758604 0.835230 0.586535
O O16 0.500000 0.121018 0.413452
O O17 0.250000 0.101583 0.500000
#
# Coordination Sequence:
#
# PCOD9501565 Si02
#       6
#    16   8  16  16  16  16
#     4  10  19  33  49  71  99 133 180 232 278 330
#     4  10  22  34  46  66  95 130 175 226 277 328
#     4  10  21  38  58  83 113 150 189 230 279 336
#     4  11  22  39  64  94 124 153 181 221 272 330
#     4   9  17  30  48  68  94 133 178 227 284 340
#     4   9  19  33  50  75 108 145 188 235 284 336
#
# _framework density 18.882809000000002
#
# number of rings (size 3 to 8) (size 9 to 14) (size 15 to 20)
#    0.000    2.182    0.909    4.364    0.000    6.182 
#    0.000    1.818    0.000    0.545    0.000    3.818 
#    0.000    0.000    0.000    0.000    0.000    0.000 
#
# Total GULP energy -245191.822067 kJ/mol
# GULP energy per Si atom -5572.541411 kJ/mol
# Density = 1.883983 g / cm^3
# Si number density = 18.882809 Si / 1000 Ang^3
#
#
#
# Elastic Constant Matrix: (Units=GPa)
#
#
# Indices 1 2 3 4 5 6 
#
# 1 38.8766 4.4691 17.1056 0.0000 0.0000 0.0000
# 2 4.4691 60.2767 56.1245 0.0000 0.0000 0.0000
# 3 17.1056 56.1245 184.1905 0.0000 0.0000 0.0000
# 4 0.0000 0.0000 0.0000 51.7915 0.0000 0.0000
# 5 0.0000 0.0000 0.0000 0.0000 26.0879 0.0000
# 6 0.0000 0.0000 0.0000 0.0000 0.0000 15.5958
#
#
#
# Elastic Compliance Matrix: (Units=1/GPa)
#
#
# Indices 1 2 3 4 5 6 
#
# 1 0.026827 0.000462 -0.002632 0.000000 0.000000 0.000000
# 2 0.000462 0.023169 -0.007103 0.000000 0.000000 0.000000
# 3 -0.002632 -0.007103 0.007838 0.000000 0.000000 0.000000
# 4 0.000000 0.000000 0.000000 0.019308 0.000000 0.000000
# 5 0.000000 0.000000 0.000000 0.000000 0.038332 0.000000
# 6 0.000000 0.000000 0.000000 0.000000 0.000000 0.064120
#
#
# Mechanical properties :
#
#
# Convention : Reuss Voigt Hill
#
# Bulk Modulus (GPa) = 25.45281 48.74916 37.10098
# Shear Modulus (GPa) = 23.67006 32.40468 28.03737
#
# Velocity S-wave (km/s) = 3.54436 4.14707 3.85750
# Velocity P-wave (km/s) = 5.50078 6.98596 6.28738
#
# Compressibility (1/GPa) = 0.03928839
#
# Stress axis : x y z
#
# Youngs Moduli (GPa) = 37.27523 43.16024 127.58510
#
# Poissons Ratio (x) = -0.01993 0.33582
# Poissons Ratio (y) = -0.01721 0.90622
# Poissons Ratio (z) = 0.09811 0.30656
#
# Static dielectric constant tensor:
#      x y z
#    x 1.656530 0.000000 0.000000 
#    y 0.000000 1.662610 0.000000 
#    z 0.000000 0.000000 1.681330 
# 
# From -- ./inp_files/32453.got.cif
#   From: 2010.05.17/outbox.cif.g08.bks.cpg/sg67_17_cif.got.tgz:32453.got - 2010.06.03 18:28:57.
