data_PCOD9501865
_publ_section_title
;
Structure prediction by ZEFSAII (Michael W. Deem and Ramdas Pophale) SiO2 
 PCOD9501865
Probable space group: C M M A
;
_chemical_formula_sum "Si O2"
_cell_formula_units_Z 104
_cell_length_a 14.509915
_cell_length_b 19.512250
_cell_length_c 17.769927
_cell_angle_alpha 90.000000
_cell_angle_beta 90.000000
_cell_angle_gamma 90.000000
_cell_volume 5031.041083
_symmetry_space_group_name_H-M "C M M A"
_symmetry_group_IT_number 67
_symmetry_cell_setting 'orthorhombic'
loop_
_space_group_symop_operation_xyz
x,y,z
-x,1/2-y,z
x,-y,-z
-x,1/2+y,-z
-x,-y,-z
x,1/2+y,-z
-x,y,z
x,1/2-y,z
1/2+x,1/2+y,z
1/2-x,-y,z
1/2+x,1/2-y,-z
1/2-x,y,-z
1/2-x,1/2-y,-z
1/2+x,y,-z
1/2-x,1/2+y,z
1/2+x,-y,z
loop_
_atom_site_type_symbol
_atom_site_label
_atom_site_fract_x
_atom_site_fract_y
_atom_site_fract_z
Si Si1 0.649613 0.533096 0.771683
Si Si2 0.395352 0.169795 0.871486
Si Si3 0.397081 0.005037 0.392346
Si Si4 0.236938 0.116443 0.418743
Si Si5 0.902430 0.448268 0.930556
Si Si6 0.247275 0.830481 0.252853
Si Si7 0.750000 0.863931 0.000000
O O1 0.750000 0.500000 0.768750
O O2 0.600329 0.505922 0.698127
O O3 0.604240 0.515458 0.850594
O O4 0.665384 0.615623 0.765708
O O5 0.500000 0.140577 0.879733
O O6 0.407105 0.250000 0.857283
O O7 0.333513 0.146619 0.800015
O O8 0.331087 0.166165 0.946672
O O9 0.500000 0.016749 0.420131
O O10 0.324352 0.064863 0.411371
O O11 0.351514 0.934010 0.418761
O O12 0.250000 0.151646 0.500000
O O13 0.233133 0.159856 0.341965
O O14 0.000000 0.409428 0.933255
O O15 0.901407 0.500000 0.000000
O O16 0.810220 0.405688 0.940336
O O17 0.227168 0.750000 0.237176
#
# Coordination Sequence:
#
# PCOD9501865 Si02
#       7
#    16  16  16  16  16  16   8
#     4  11  19  39  60  87 118 156 203 256 300 366
#     4  10  22  39  60  86 117 159 209 254 300 361
#     4  10  19  34  60  88 119 158 198 248 306 362
#     4  10  21  37  57  90 125 152 201 254 301 375
#     4  11  24  36  53  84 119 155 197 251 309 358
#     4  10  21  40  63  86 121 163 201 247 309 366
#     4  12  20  38  60  82 120 158 198 252 304 360
#
# _framework density 20.671665000000001
#
# number of rings (size 3 to 8) (size 9 to 14) (size 15 to 20)
#    0.000    1.538    4.615    3.231    0.000    2.154 
#    0.000    0.000    0.000   12.462    0.000    4.308 
#    0.000    0.000    0.000    0.000    0.000    0.000 
#
# Total GULP energy -289847.847292 kJ/mol
# GULP energy per Si atom -5573.997063 kJ/mol
# Density = 2.062462 g / cm^3
# Si number density = 20.671665 Si / 1000 Ang^3
#
#
#
# Elastic Constant Matrix: (Units=GPa)
#
#
# Indices 1 2 3 4 5 6 
#
# 1 122.9628 12.1672 16.3775 0.0000 0.0000 0.0000
# 2 12.1672 50.1951 2.3577 0.0000 0.0000 0.0000
# 3 16.3775 2.3577 178.6618 0.0000 0.0000 0.0000
# 4 0.0000 0.0000 0.0000 15.3343 0.0000 0.0000
# 5 0.0000 0.0000 0.0000 0.0000 -17.8314 0.0000
# 6 0.0000 0.0000 0.0000 0.0000 0.0000 12.4235
#
#
#
# Elastic Compliance Matrix: (Units=1/GPa)
#
#
# Indices 1 2 3 4 5 6 
#
# 1 0.008431 -0.002009 -0.000746 0.000000 0.000000 0.000000
# 2 -0.002009 0.020413 -0.000085 0.000000 0.000000 0.000000
# 3 -0.000746 -0.000085 0.005667 0.000000 0.000000 0.000000
# 4 0.000000 0.000000 0.000000 0.065213 0.000000 0.000000
# 5 0.000000 0.000000 0.000000 0.000000 -0.056081 0.000000
# 6 0.000000 0.000000 0.000000 0.000000 0.000000 0.080493
#
#
# Mechanical properties :
#
#
# Convention : Reuss Voigt Hill
#
# Bulk Modulus (GPa) = 34.68571 45.95829 40.32200
# Shear Modulus (GPa) = 35.86132 23.37977 29.62054
#
# Velocity S-wave (km/s) = 4.16962 3.36669 3.78948
# Velocity P-wave (km/s) = 6.32430 6.11503 6.22054
#
# Compressibility (1/GPa) = 0.02883031
#
# Stress axis : x y z
#
# Youngs Moduli (GPa) = 118.61432 48.98805 176.46940
#
# Poissons Ratio (x) = 0.09839 0.13170
# Poissons Ratio (y) = 0.23824 0.01505
# Poissons Ratio (z) = 0.08852 0.00418
#
# Static dielectric constant tensor:
#      x y z
#    x 1.775430 0.000000 0.000000 
#    y 0.000000 1.764480 0.000000 
#    z 0.000000 0.000000 1.581920 
# 
# From -- ./inp_files/33700.got.cif
#   From: 2010.05.17/outbox.cif.g08.bks.cpg/sg67_17_cif.got.tgz:33700.got - 2010.06.03 18:28:57.
