data_PCOD9501516
_publ_section_title
;
Structure prediction by ZEFSAII (Michael W. Deem and Ramdas Pophale) SiO2 
 PCOD9501516
Probable space group: C M M A
;
_chemical_formula_sum "Si O2"
_cell_formula_units_Z 80
_cell_length_a 28.685827
_cell_length_b 17.048276
_cell_length_c 9.018632
_cell_angle_alpha 90.000000
_cell_angle_beta 90.000000
_cell_angle_gamma 90.000000
_cell_volume 4410.506930
_symmetry_space_group_name_H-M "C M M A"
_symmetry_group_IT_number 67
_symmetry_cell_setting 'orthorhombic'
loop_
_space_group_symop_operation_xyz
x,y,z
-x,1/2-y,z
x,-y,-z
-x,1/2+y,-z
-x,-y,-z
x,1/2+y,-z
-x,y,z
x,1/2-y,z
1/2+x,1/2+y,z
1/2-x,-y,z
1/2+x,1/2-y,-z
1/2-x,y,-z
1/2-x,1/2-y,-z
1/2+x,y,-z
1/2-x,1/2+y,z
1/2+x,-y,z
loop_
_atom_site_type_symbol
_atom_site_label
_atom_site_fract_x
_atom_site_fract_y
_atom_site_fract_z
Si Si1 0.805241 0.512217 0.669508
Si Si2 0.053835 0.604131 0.654219
Si Si3 0.946748 0.414669 0.686494
Si Si4 0.646995 0.839247 0.196519
Si Si5 0.367660 0.077599 0.096513
O O1 0.820895 0.500000 0.500000
O O2 0.750000 0.500000 0.677843
O O3 0.820872 0.598775 0.717773
O O4 0.830655 0.453301 0.782966
O O5 0.062874 0.616848 0.478852
O O6 0.057033 0.509885 0.677712
O O7 0.093736 0.644398 0.750625
O O8 0.000000 0.626813 0.686077
O O9 0.910927 0.389471 0.811375
O O10 0.000000 0.395486 0.723496
O O11 0.659345 0.750000 0.225684
O O12 0.650613 0.861239 0.023404
O O13 0.381265 0.000000 0.000000
#
# Coordination Sequence:
#
# PCOD9501516 Si02
#       5
#    16  16  16  16  16
#     4  10  21  41  66  86 104 140 190 238 283 336
#     4   9  17  31  54  82 115 152 193 237 277 322
#     4   9  16  29  53  83 109 146 203 244 265 313
#     4  11  23  37  55  86 123 152 183 228 287 343
#     4  10  19  32  53  81 113 148 186 223 278 336
#
# _framework density 18.138504000000001
#
# number of rings (size 3 to 8) (size 9 to 14) (size 15 to 20)
#    0.000    2.200    4.000    2.400    0.000    5.200 
#    0.000    8.000    0.000    1.200    0.000    0.000 
#    0.000    0.000    0.000    0.000    0.000    0.000 
#
# Total GULP energy -223170.130776 kJ/mol
# GULP energy per Si atom -5579.253269 kJ/mol
# Density = 1.809722 g / cm^3
# Si number density = 18.138504 Si / 1000 Ang^3
#
#
#
# Elastic Constant Matrix: (Units=GPa)
#
#
# Indices 1 2 3 4 5 6 
#
# 1 77.1434 37.1360 59.3118 0.0000 0.0000 0.0000
# 2 37.1360 72.8604 39.4663 0.0000 0.0000 0.0000
# 3 59.3118 39.4663 129.1603 0.0000 0.0000 0.0000
# 4 0.0000 0.0000 0.0000 6.7706 0.0000 0.0000
# 5 0.0000 0.0000 0.0000 0.0000 -62.9151 0.0000
# 6 0.0000 0.0000 0.0000 0.0000 0.0000 8.3406
#
#
#
# Elastic Compliance Matrix: (Units=1/GPa)
#
#
# Indices 1 2 3 4 5 6 
#
# 1 0.022747 -0.007113 -0.008272 0.000000 0.000000 0.000000
# 2 -0.007113 0.018671 -0.002439 0.000000 0.000000 0.000000
# 3 -0.008272 -0.002439 0.012286 0.000000 0.000000 0.000000
# 4 0.000000 0.000000 0.000000 0.147698 0.000000 0.000000
# 5 0.000000 0.000000 0.000000 0.000000 -0.015894 0.000000
# 6 0.000000 0.000000 0.000000 0.000000 0.000000 0.119896
#
#
# Mechanical properties :
#
#
# Convention : Reuss Voigt Hill
#
# Bulk Modulus (GPa) = 55.38199 61.22136 58.30167
# Shear Modulus (GPa) = 14.40628 -0.01078 7.19775
#
# Velocity S-wave (km/s) = 2.82128 -0.07716 1.99420
# Velocity P-wave (km/s) = 6.41965 5.81528 6.12493
#
# Compressibility (1/GPa) = 0.01805641
#
# Stress axis : x y z
#
# Youngs Moduli (GPa) = 43.96147 53.55800 81.39187
#
# Poissons Ratio (x) = 0.38096 0.67330
# Poissons Ratio (y) = 0.31270 0.19850
# Poissons Ratio (z) = 0.36366 0.13062
#
# Static dielectric constant tensor:
#      x y z
#    x 1.625260 0.000000 0.000000 
#    y 0.000000 1.607830 0.000000 
#    z 0.000000 0.000000 1.633950 
# 
# From -- ./inp_files/9888.got.cif
#   From: 2010.05.17/outbox.cif.g08.bks.cpg/sg67_5_cif.got.tgz:9888.got - 2010.06.03 18:28:57.
