data_PCOD9501124
_publ_section_title
;
Structure prediction by ZEFSAII (Michael W. Deem and Ramdas Pophale) SiO2 
 PCOD9501124
Probable space group: C M M A
;
_chemical_formula_sum "Si O2"
_cell_formula_units_Z 128
_cell_length_a 20.945717
_cell_length_b 16.937740
_cell_length_c 20.048307
_cell_angle_alpha 90.000000
_cell_angle_beta 90.000000
_cell_angle_gamma 90.000000
_cell_volume 7112.600198
_symmetry_space_group_name_H-M "C M M A"
_symmetry_group_IT_number 67
_symmetry_cell_setting 'orthorhombic'
loop_
_space_group_symop_operation_xyz
x,y,z
-x,1/2-y,z
x,-y,-z
-x,1/2+y,-z
-x,-y,-z
x,1/2+y,-z
-x,y,z
x,1/2-y,z
1/2+x,1/2+y,z
1/2-x,-y,z
1/2+x,1/2-y,-z
1/2-x,y,-z
1/2-x,1/2-y,-z
1/2+x,y,-z
1/2-x,1/2+y,z
1/2+x,-y,z
loop_
_atom_site_type_symbol
_atom_site_label
_atom_site_fract_x
_atom_site_fract_y
_atom_site_fract_z
Si Si1 0.667818 0.844209 0.933383
Si Si2 0.820130 0.655628 0.918774
Si Si3 0.569649 0.958711 0.427839
Si Si4 0.727176 0.338701 0.307584
Si Si5 0.283255 0.914340 0.429826
Si Si6 0.193593 0.937722 0.794284
Si Si7 0.929363 0.843302 0.178693
Si Si8 0.890670 0.548862 0.297116
O O1 0.657020 0.750000 0.934957
O O2 0.743001 0.854697 0.920835
O O3 0.624117 0.873630 0.873117
O O4 0.654308 0.871306 0.008924
O O5 0.832261 0.750000 0.910038
O O6 0.840393 0.601139 0.857650
O O7 0.500000 0.916467 0.420565
O O8 0.640024 0.919636 0.431384
O O9 0.566513 0.000000 0.500000
O O10 0.575355 0.015786 0.362936
O O11 0.707589 0.250000 0.295355
O O12 0.767029 0.350785 0.374305
O O13 0.768796 0.370192 0.246167
O O14 0.666695 0.394029 0.318074
O O15 0.250000 0.894918 0.500000
O O16 0.250000 0.000000 0.411538
O O17 0.250000 0.000000 0.812330
O O18 0.143655 0.978777 0.744362
O O19 0.917559 0.750000 0.194087
O O20 0.928177 0.897405 0.244168
O O21 0.000000 0.847505 0.147973
#
# Coordination Sequence:
#
# PCOD9501124 Si02
#       8
#    16  16  16  16  16  16  16  16
#     4   8  15  29  49  73 104 136 171 214 264 320
#     4   9  16  29  50  76 102 133 174 222 266 313
#     4  11  21  35  59  83 105 145 189 220 268 333
#     4  11  20  31  52  81 110 143 183 230 280 325
#     4  11  18  36  57  80 114 141 175 233 274 324
#     4  10  19  30  48  75 109 141 175 221 274 325
#     4  10  20  34  53  77 107 144 178 214 269 335
#     4  11  20  35  51  79 113 141 178 229 276 323
#
# _framework density 17.996231999999999
#
# number of rings (size 3 to 8) (size 9 to 14) (size 15 to 20)
#    0.000    1.875    3.750    3.750    0.000    1.250 
#    0.000    4.375    0.000    2.625    0.000    3.500 
#    0.000    0.000    0.000    0.000    0.000    0.000 
#
# Total GULP energy -356482.083264 kJ/mol
# GULP energy per Si atom -5570.032551 kJ/mol
# Density = 1.795527 g / cm^3
# Si number density = 17.996232 Si / 1000 Ang^3
#
#
#
# Elastic Constant Matrix: (Units=GPa)
#
#
# Indices 1 2 3 4 5 6 
#
# 1 97.0846 4.7993 26.8632 0.0000 0.0000 0.0000
# 2 4.7993 25.8640 38.2416 0.0000 0.0000 0.0000
# 3 26.8632 38.2416 110.4831 0.0000 0.0000 0.0000
# 4 0.0000 0.0000 0.0000 16.9477 0.0000 0.0000
# 5 0.0000 0.0000 0.0000 0.0000 -7.2623 0.0000
# 6 0.0000 0.0000 0.0000 0.0000 0.0000 38.7624
#
#
#
# Elastic Compliance Matrix: (Units=1/GPa)
#
#
# Indices 1 2 3 4 5 6 
#
# 1 0.011242 0.004005 -0.004120 0.000000 0.000000 0.000000
# 2 0.004005 0.080620 -0.028879 0.000000 0.000000 0.000000
# 3 -0.004120 -0.028879 0.020049 0.000000 0.000000 0.000000
# 4 0.000000 0.000000 0.000000 0.059005 0.000000 0.000000
# 5 0.000000 0.000000 0.000000 0.000000 -0.137697 0.000000
# 6 0.000000 0.000000 0.000000 0.000000 0.000000 0.025798
#
#
# Mechanical properties :
#
#
# Convention : Reuss Voigt Hill
#
# Bulk Modulus (GPa) = 18.54453 41.47110 30.00781
# Shear Modulus (GPa) = 37.04262 20.59138 28.81700
#
# Velocity S-wave (km/s) = 4.54183 3.38628 4.00594
# Velocity P-wave (km/s) = 6.15072 6.19544 6.17312
#
# Compressibility (1/GPa) = 0.05392426
#
# Stress axis : x y z
#
# Youngs Moduli (GPa) = 88.95009 12.40385 49.87830
#
# Poissons Ratio (x) = -0.04968 0.20549
# Poissons Ratio (y) = -0.35628 1.44044
# Poissons Ratio (z) = 0.36646 0.35821
#
# Static dielectric constant tensor:
#      x y z
#    x 1.651460 0.000000 0.000000 
#    y 0.000000 1.615340 0.000000 
#    z 0.000000 0.000000 1.655190 
# 
# From -- ./inp_files/39417.got.cif
#   From: 2010.05.17/outbox.cif.g08.bks.cpg/sg67_20_cif.got.tgz:39417.got - 2010.06.03 18:28:57.
