data_PCOD9501659
_publ_section_title
;
Structure prediction by ZEFSAII (Michael W. Deem and Ramdas Pophale) SiO2 
 PCOD9501659
Probable space group: C M M A
;
_chemical_formula_sum "Si O2"
_cell_formula_units_Z 96
_cell_length_a 8.646294
_cell_length_b 19.115805
_cell_length_c 32.315497
_cell_angle_alpha 90.000000
_cell_angle_beta 90.000000
_cell_angle_gamma 90.000000
_cell_volume 5341.133461
_symmetry_space_group_name_H-M "C M M A"
_symmetry_group_IT_number 67
_symmetry_cell_setting 'orthorhombic'
loop_
_space_group_symop_operation_xyz
x,y,z
-x,1/2-y,z
x,-y,-z
-x,1/2+y,-z
-x,-y,-z
x,1/2+y,-z
-x,y,z
x,1/2-y,z
1/2+x,1/2+y,z
1/2-x,-y,z
1/2+x,1/2-y,-z
1/2-x,y,-z
1/2-x,1/2-y,-z
1/2+x,y,-z
1/2-x,1/2+y,z
1/2+x,-y,z
loop_
_atom_site_type_symbol
_atom_site_label
_atom_site_fract_x
_atom_site_fract_y
_atom_site_fract_z
Si Si1 0.314055 0.420977 0.380250
Si Si2 0.813876 0.078818 0.710125
Si Si3 0.186867 0.830657 0.876324
Si Si4 0.184981 0.331688 0.455731
Si Si5 0.814103 0.079145 0.800876
Si Si6 0.685829 0.422265 0.955167
O O1 0.500000 0.423070 0.382270
O O2 0.250000 0.500000 0.383172
O O3 0.267331 0.391226 0.334660
O O4 0.249956 0.375599 0.417693
O O5 0.767209 0.107751 0.755087
O O6 0.000000 0.076732 0.710113
O O7 0.750000 0.000000 0.710008
O O8 0.237237 0.750000 0.876200
O O9 0.251486 0.872790 0.837322
O O10 0.232528 0.870137 0.918546
O O11 0.000000 0.832150 0.874447
O O12 0.229769 0.250000 0.451140
O O13 0.250000 0.356295 0.500000
O O14 0.000000 0.336197 0.456424
O O15 0.000000 0.076120 0.802813
O O16 0.750000 0.000000 0.805039
O O17 0.500000 0.425575 0.957105
O O18 0.750000 0.500000 0.946486
O O19 0.750000 0.400779 0.000000
#
# Coordination Sequence:
#
# PCOD9501659 Si02
#       6
#    16  16  16  16  16  16
#     4  10  19  33  54  79 107 136 168 210 259 307
#     4   8  16  30  49  75 104 133 167 209 255 302
#     4  10  22  38  53  74 107 142 174 213 261 307
#     4  10  21  37  55  75 101 134 173 214 256 306
#     4  10  19  33  55  80 104 135 176 216 255 303
#     4  10  20  35  56  79 103 132 169 213 257 305
#
# _framework density 17.973714000000001
#
# number of rings (size 3 to 8) (size 9 to 14) (size 15 to 20)
#    0.000    2.333    0.000    3.000    0.000    6.000 
#    0.000    2.500    0.000    5.000    0.000    0.000 
#    0.000    0.000    0.000    0.000    0.000    0.000 
#
# Total GULP energy -267655.042680 kJ/mol
# GULP energy per Si atom -5576.146723 kJ/mol
# Density = 1.793280 g / cm^3
# Si number density = 17.973714 Si / 1000 Ang^3
#
#
#
# Elastic Constant Matrix: (Units=GPa)
#
#
# Indices 1 2 3 4 5 6 
#
# 1 32.0107 27.4436 47.7471 0.0000 0.0000 0.0000
# 2 27.4436 80.2538 104.4078 0.0000 0.0000 0.0000
# 3 47.7471 104.4078 225.3990 0.0000 0.0000 0.0000
# 4 0.0000 0.0000 0.0000 -19.3620 0.0000 0.0000
# 5 0.0000 0.0000 0.0000 0.0000 17.4852 0.0000
# 6 0.0000 0.0000 0.0000 0.0000 0.0000 20.6527
#
#
#
# Elastic Compliance Matrix: (Units=1/GPa)
#
#
# Indices 1 2 3 4 5 6 
#
# 1 0.047604 -0.007951 -0.006401 0.000000 0.000000 0.000000
# 2 -0.007951 0.032685 -0.013456 0.000000 0.000000 0.000000
# 3 -0.006401 -0.013456 0.012025 0.000000 0.000000 0.000000
# 4 0.000000 0.000000 0.000000 -0.051648 0.000000 0.000000
# 5 0.000000 0.000000 0.000000 0.000000 0.057191 0.000000
# 6 0.000000 0.000000 0.000000 0.000000 0.000000 0.048420
#
#
# Mechanical properties :
#
#
# Convention : Reuss Voigt Hill
#
# Bulk Modulus (GPa) = 27.24900 77.42895 52.33897
# Shear Modulus (GPa) = 23.35059 14.29283 18.82171
#
# Velocity S-wave (km/s) = 3.60829 2.82300 3.23953
# Velocity P-wave (km/s) = 5.70553 7.33473 6.57082
#
# Compressibility (1/GPa) = 0.03669860
#
# Stress axis : x y z
#
# Youngs Moduli (GPa) = 21.00660 30.59495 83.15670
#
# Poissons Ratio (x) = 0.24326 0.53230
# Poissons Ratio (y) = 0.16702 1.11895
# Poissons Ratio (z) = 0.13447 0.41168
#
# Static dielectric constant tensor:
#      x y z
#    x 1.615730 0.000000 0.000000 
#    y 0.000000 1.575670 0.000000 
#    z 0.000000 0.000000 1.642960 
# 
# From -- ./inp_files/43422.got.cif
#   From: 2010.05.17/outbox.cif.g08.bks.cpg/sg67_22_cif.got.tgz:43422.got - 2010.06.03 18:28:57.
