data_PCOD9501426
_publ_section_title
;
Structure prediction by ZEFSAII (Michael W. Deem and Ramdas Pophale) SiO2 
 PCOD9501426
Probable space group: C M M A
;
_chemical_formula_sum "Si O2"
_cell_formula_units_Z 112
_cell_length_a 18.507564
_cell_length_b 19.584284
_cell_length_c 18.451444
_cell_angle_alpha 90.000000
_cell_angle_beta 90.000000
_cell_angle_gamma 90.000000
_cell_volume 6687.862225
_symmetry_space_group_name_H-M "C M M A"
_symmetry_group_IT_number 67
_symmetry_cell_setting 'orthorhombic'
loop_
_space_group_symop_operation_xyz
x,y,z
-x,1/2-y,z
x,-y,-z
-x,1/2+y,-z
-x,-y,-z
x,1/2+y,-z
-x,y,z
x,1/2-y,z
1/2+x,1/2+y,z
1/2-x,-y,z
1/2+x,1/2-y,-z
1/2-x,y,-z
1/2-x,1/2-y,-z
1/2+x,y,-z
1/2-x,1/2+y,z
1/2+x,-y,z
loop_
_atom_site_type_symbol
_atom_site_label
_atom_site_fract_x
_atom_site_fract_y
_atom_site_fract_z
Si Si1 0.805824 0.061842 0.314587
Si Si2 0.290178 0.572901 0.146697
Si Si3 0.920001 0.670806 0.466182
Si Si4 0.769299 0.669519 0.416148
Si Si5 0.915130 0.078386 0.027045
Si Si6 0.689461 0.671181 0.936290
Si Si7 0.083042 0.044750 0.433910
O O1 0.814207 0.076898 0.230023
O O2 0.773589 0.125277 0.359064
O O3 0.876375 0.039877 0.358811
O O4 0.750000 0.000000 0.320606
O O5 0.250000 0.500000 0.133204
O O6 0.360275 0.581377 0.095394
O O7 0.230291 0.630111 0.127221
O O8 0.911894 0.750000 0.487889
O O9 0.855050 0.655609 0.411894
O O10 0.914913 0.621637 0.535151
O O11 0.000000 0.661212 0.434761
O O12 0.755902 0.750000 0.406740
O O13 0.750000 0.652384 0.500000
O O14 0.000000 0.095011 0.041008
O O15 0.878604 0.128685 0.967502
O O16 0.912477 0.000000 0.000000
O O17 0.672029 0.750000 0.918962
O O18 0.750000 0.671673 0.000000
O O19 0.000000 0.023298 0.425681
O O20 0.115476 0.000000 0.500000
#
# Coordination Sequence:
#
# PCOD9501426 Si02
#       7
#    16  16  16  16  16  16  16
#     4  11  23  33  51  76 106 141 177 224 278 322
#     4  10  20  36  53  79 113 146 182 220 271 334
#     4   9  17  30  49  70  92 122 168 222 268 313
#     4  10  19  32  51  74  98 131 182 233 267 312
#     4  10  19  33  61  88 110 143 181 224 268 319
#     4   9  18  33  57  84 110 145 181 217 260 316
#     4  10  20  33  49  70  99 136 176 223 279 329
#
# _framework density 16.746756999999999
#
# number of rings (size 3 to 8) (size 9 to 14) (size 15 to 20)
#    0.000    2.143    2.857    0.857    0.000    1.429 
#    0.000    0.000    0.000    1.714    0.000    6.000 
#    0.000    0.000    0.000    0.000    0.000    0.000 
#
# Total GULP energy -312040.059762 kJ/mol
# GULP energy per Si atom -5572.143924 kJ/mol
# Density = 1.670864 g / cm^3
# Si number density = 16.746757 Si / 1000 Ang^3
#
#
#
# Elastic Constant Matrix: (Units=GPa)
#
#
# Indices 1 2 3 4 5 6 
#
# 1 115.4812 36.2807 55.5065 0.0000 0.0000 0.0000
# 2 36.2807 86.1497 38.5139 0.0000 0.0000 0.0000
# 3 55.5065 38.5139 100.8049 0.0000 0.0000 0.0000
# 4 0.0000 0.0000 0.0000 13.5777 0.0000 0.0000
# 5 0.0000 0.0000 0.0000 0.0000 13.1683 0.0000
# 6 0.0000 0.0000 0.0000 0.0000 0.0000 18.4086
#
#
#
# Elastic Compliance Matrix: (Units=1/GPa)
#
#
# Indices 1 2 3 4 5 6 
#
# 1 0.012234 -0.002582 -0.005750 0.000000 0.000000 0.000000
# 2 -0.002582 0.014544 -0.004135 0.000000 0.000000 0.000000
# 3 -0.005750 -0.004135 0.014666 0.000000 0.000000 0.000000
# 4 0.000000 0.000000 0.000000 0.073650 0.000000 0.000000
# 5 0.000000 0.000000 0.000000 0.000000 0.075940 0.000000
# 6 0.000000 0.000000 0.000000 0.000000 0.000000 0.054322
#
#
# Mechanical properties :
#
#
# Convention : Reuss Voigt Hill
#
# Bulk Modulus (GPa) = 60.56827 62.55978 61.56403
# Shear Modulus (GPa) = 18.12949 20.50658 19.31803
#
# Velocity S-wave (km/s) = 3.29381 3.50310 3.40006
# Velocity P-wave (km/s) = 7.12118 7.33483 7.22879
#
# Compressibility (1/GPa) = 0.01651029
#
# Stress axis : x y z
#
# Youngs Moduli (GPa) = 81.73675 68.75922 68.18344
#
# Poissons Ratio (x) = 0.17751 0.39208
# Poissons Ratio (y) = 0.21101 0.28194
# Poissons Ratio (z) = 0.47001 0.28432
#
# Static dielectric constant tensor:
#      x y z
#    x 1.600050 0.000000 0.000000 
#    y 0.000000 1.590770 0.000000 
#    z 0.000000 0.000000 1.539110 
# 
# From -- ./inp_files/34460.got.cif
#   From: 2010.05.17/outbox.cif.g08.bks.cpg/sg67_18_cif.got.tgz:34460.got - 2010.06.03 18:28:57.
