data_PCOD9501798
_publ_section_title
;
Structure prediction by ZEFSAII (Michael W. Deem and Ramdas Pophale) SiO2 
 PCOD9501798
Probable space group: C M M A
;
_chemical_formula_sum "Si O2"
_cell_formula_units_Z 80
_cell_length_a 25.049166
_cell_length_b 35.661349
_cell_length_c 5.253736
_cell_angle_alpha 90.000000
_cell_angle_beta 90.000000
_cell_angle_gamma 90.000000
_cell_volume 4693.094338
_symmetry_space_group_name_H-M "C M M A"
_symmetry_group_IT_number 67
_symmetry_cell_setting 'orthorhombic'
loop_
_space_group_symop_operation_xyz
x,y,z
-x,1/2-y,z
x,-y,-z
-x,1/2+y,-z
-x,-y,-z
x,1/2+y,-z
-x,y,z
x,1/2-y,z
1/2+x,1/2+y,z
1/2-x,-y,z
1/2+x,1/2-y,-z
1/2-x,y,-z
1/2-x,1/2-y,-z
1/2+x,y,-z
1/2-x,1/2+y,z
1/2+x,-y,z
loop_
_atom_site_type_symbol
_atom_site_label
_atom_site_fract_x
_atom_site_fract_y
_atom_site_fract_z
Si Si1 0.898144 0.540313 0.379606
Si Si2 0.564959 0.162739 0.032155
Si Si3 0.562852 0.079301 0.881352
Si Si4 0.565066 0.293080 0.529351
Si Si5 0.273721 0.457530 0.253176
O O1 0.912351 0.500000 0.500000
O O2 0.907519 0.567461 0.621662
O O3 0.836837 0.539743 0.284986
O O4 0.929564 0.551902 0.124316
O O5 0.500000 0.162107 0.039178
O O6 0.581417 0.120125 0.977991
O O7 0.580949 0.189184 0.798037
O O8 0.582909 0.180578 0.297530
O O9 0.500000 0.081028 0.817512
O O10 0.500000 0.292888 0.525184
O O11 0.582155 0.250000 0.499690
O O12 0.250000 0.500000 0.251836
O O13 0.250000 0.438029 0.500000
O O14 0.250000 0.439693 0.000000
#
# Coordination Sequence:
#
# PCOD9501798 Si02
#       5
#    16  16  16  16  16
#     4  12  23  36  55  75  93 125 177 221 251 302
#     4   9  17  30  43  59  91 130 163 198 241 288
#     4  11  24  37  49  68 102 144 177 205 246 290
#     4   9  15  24  43  67  86 112 161 214 244 270
#     4  10  19  34  56  76  92 111 143 211 269 326
#
# _framework density 17.046323000000001
#
# number of rings (size 3 to 8) (size 9 to 14) (size 15 to 20)
#    0.000    1.800    2.000    4.200    2.800    8.000 
#    0.000    0.000    0.000    0.000    0.000    0.000 
#    0.000    0.000    0.000    0.000    0.000  252.000 
#
# Total GULP energy -222955.912127 kJ/mol
# GULP energy per Si atom -5573.897803 kJ/mol
# Density = 1.700753 g / cm^3
# Si number density = 17.046323 Si / 1000 Ang^3
#
#
#
# Elastic Constant Matrix: (Units=GPa)
#
#
# Indices 1 2 3 4 5 6 
#
# 1 32.5106 10.3841 6.2248 0.0000 0.0000 0.0000
# 2 10.3841 45.3377 1.3058 0.0000 0.0000 0.0000
# 3 6.2248 1.3058 107.8783 0.0000 0.0000 0.0000
# 4 0.0000 0.0000 0.0000 23.2969 0.0000 0.0000
# 5 0.0000 0.0000 0.0000 0.0000 26.0535 0.0000
# 6 0.0000 0.0000 0.0000 0.0000 0.0000 -4.6119
#
#
#
# Elastic Compliance Matrix: (Units=1/GPa)
#
#
# Indices 1 2 3 4 5 6 
#
# 1 0.033550 -0.007631 -0.001844 0.000000 0.000000 0.000000
# 2 -0.007631 0.023800 0.000152 0.000000 0.000000 0.000000
# 3 -0.001844 0.000152 0.009374 0.000000 0.000000 0.000000
# 4 0.000000 0.000000 0.000000 0.042924 0.000000 0.000000
# 5 0.000000 0.000000 0.000000 0.000000 0.038383 0.000000
# 6 0.000000 0.000000 0.000000 0.000000 0.000000 -0.216832
#
#
# Mechanical properties :
#
#
# Convention : Reuss Voigt Hill
#
# Bulk Modulus (GPa) = 20.79899 24.61735 22.70817
# Shear Modulus (GPa) = -146.49703 20.13516 -63.18093
#
# Velocity S-wave (km/s) = -9.28047 3.44059 -6.09465
# Velocity P-wave (km/s) = 10.12957 5.50058 6.01464
#
# Compressibility (1/GPa) = 0.04807927
#
# Stress axis : x y z
#
# Youngs Moduli (GPa) = 29.80659 42.01659 106.67538
#
# Poissons Ratio (x) = 0.32063 0.19666
# Poissons Ratio (y) = 0.22746 -0.01624
# Poissons Ratio (z) = 0.05495 -0.00640
#
# Static dielectric constant tensor:
#      x y z
#    x 1.573550 0.000000 0.000000 
#    y 0.000000 1.584140 0.000000 
#    z 0.000000 0.000000 1.588830 
# 
# From -- ./inp_files/3525.got.cif
#   From: 2010.05.17/outbox.cif.g08.bks.cpg/sg67_2_cif.got.tgz:3525.got - 2010.06.03 18:28:57.
