data_PCOD9501497
_publ_section_title
;
Structure prediction by ZEFSAII (Michael W. Deem and Ramdas Pophale) SiO2 
 PCOD9501497
Probable space group: C M M A
;
_chemical_formula_sum "Si O2"
_cell_formula_units_Z 112
_cell_length_a 27.144597
_cell_length_b 14.619848
_cell_length_c 17.225943
_cell_angle_alpha 90.000000
_cell_angle_beta 90.000000
_cell_angle_gamma 90.000000
_cell_volume 6836.113450
_symmetry_space_group_name_H-M "C M M A"
_symmetry_group_IT_number 67
_symmetry_cell_setting 'orthorhombic'
loop_
_space_group_symop_operation_xyz
x,y,z
-x,1/2-y,z
x,-y,-z
-x,1/2+y,-z
-x,-y,-z
x,1/2+y,-z
-x,y,z
x,1/2-y,z
1/2+x,1/2+y,z
1/2-x,-y,z
1/2+x,1/2-y,-z
1/2-x,y,-z
1/2-x,1/2-y,-z
1/2+x,y,-z
1/2-x,1/2+y,z
1/2+x,-y,z
loop_
_atom_site_type_symbol
_atom_site_label
_atom_site_fract_x
_atom_site_fract_y
_atom_site_fract_z
Si Si1 0.394058 0.358280 0.201694
Si Si2 0.627732 0.486307 0.586560
Si Si3 0.317148 0.858031 0.674847
Si Si4 0.559807 0.355317 0.871301
Si Si5 0.057678 0.975348 0.725163
Si Si6 0.443336 0.638657 0.956904
Si Si7 0.722736 0.641598 0.417983
O O1 0.403721 0.250000 0.209509
O O2 0.339938 0.375280 0.239297
O O3 0.430987 0.419902 0.251931
O O4 0.406310 0.383360 0.112773
O O5 0.608450 0.500000 0.500000
O O6 0.649372 0.582126 0.617884
O O7 0.587462 0.453370 0.647828
O O8 0.673739 0.417320 0.585771
O O9 0.322687 0.750000 0.659237
O O10 0.260967 0.880368 0.651809
O O11 0.500000 0.354423 0.871108
O O12 0.576354 0.250000 0.863306
O O13 0.575845 0.415649 0.798648
O O14 0.572529 0.392107 0.957146
O O15 0.000000 0.960151 0.715384
O O16 0.500000 0.607512 0.940174
O O17 0.445677 0.750000 0.961766
O O18 0.712147 0.750000 0.415927
O O19 0.750000 0.622491 0.500000
#
# Coordination Sequence:
#
# PCOD9501497 Si02
#       7
#    16  16  16  16  16  16  16
#     4   9  17  29  45  68  99 128 157 192 232 282
#     4  11  21  32  50  70  93 124 158 200 240 284
#     4   9  18  31  47  71  99 123 147 187 244 294
#     4   8  15  29  46  64  90 123 162 207 243 272
#     4  10  21  33  45  66  95 131 167 194 233 282
#     4   8  13  23  43  68  91 122 162 199 236 276
#     4  10  19  32  53  76  93 113 148 196 246 291
#
# _framework density 16.383578
#
# number of rings (size 3 to 8) (size 9 to 14) (size 15 to 20)
#    0.000    2.714    1.429    1.714    0.000    2.286 
#    0.000    2.143    0.000    0.000    0.000    5.000 
#    0.000   10.286    0.000    2.000    0.000    2.571 
#
# Total GULP energy -311869.443059 kJ/mol
# GULP energy per Si atom -5569.097197 kJ/mol
# Density = 1.634629 g / cm^3
# Si number density = 16.383578 Si / 1000 Ang^3
#
#
#
# Elastic Constant Matrix: (Units=GPa)
#
#
# Indices 1 2 3 4 5 6 
#
# 1 63.7724 24.3384 65.3982 0.0000 0.0000 0.0000
# 2 24.3384 41.9773 38.7065 0.0000 0.0000 0.0000
# 3 65.3982 38.7065 154.4510 0.0000 0.0000 0.0000
# 4 0.0000 0.0000 0.0000 21.7748 0.0000 0.0000
# 5 0.0000 0.0000 0.0000 0.0000 22.9214 0.0000
# 6 0.0000 0.0000 0.0000 0.0000 0.0000 12.9656
#
#
#
# Elastic Compliance Matrix: (Units=1/GPa)
#
#
# Indices 1 2 3 4 5 6 
#
# 1 0.029305 -0.007217 -0.010600 0.000000 0.000000 0.000000
# 2 -0.007217 0.032759 -0.005154 0.000000 0.000000 0.000000
# 3 -0.010600 -0.005154 0.012254 0.000000 0.000000 0.000000
# 4 0.000000 0.000000 0.000000 0.045925 0.000000 0.000000
# 5 0.000000 0.000000 0.000000 0.000000 0.043627 0.000000
# 6 0.000000 0.000000 0.000000 0.000000 0.000000 0.077127
#
#
# Mechanical properties :
#
#
# Convention : Reuss Voigt Hill
#
# Bulk Modulus (GPa) = 35.23974 57.45411 46.34693
# Shear Modulus (GPa) = 16.86920 20.31621 18.59270
#
# Velocity S-wave (km/s) = 3.21228 3.52523 3.37239
# Velocity P-wave (km/s) = 5.94258 7.19124 6.59652
#
# Compressibility (1/GPa) = 0.02837705
#
# Stress axis : x y z
#
# Youngs Moduli (GPa) = 34.12362 30.52590 81.60399
#
# Poissons Ratio (x) = 0.22031 0.86499
# Poissons Ratio (y) = 0.24628 0.42056
# Poissons Ratio (z) = 0.36170 0.15732
#
# Static dielectric constant tensor:
#      x y z
#    x 1.530430 0.000000 0.000000 
#    y 0.000000 1.588170 0.000000 
#    z 0.000000 0.000000 1.578550 
# 
# From -- ./inp_files/27883.got.cif
#   From: 2010.05.17/outbox.cif.g08.bks.cpg/sg67_14_cif.got.tgz:27883.got - 2010.06.03 18:28:57.
