data_PCOD9501899
_publ_section_title
;
Structure prediction by ZEFSAII (Michael W. Deem and Ramdas Pophale) SiO2 
 PCOD9501899
Probable space group: C M M A
;
_chemical_formula_sum "Si O2"
_cell_formula_units_Z 88
_cell_length_a 26.153971
_cell_length_b 8.799118
_cell_length_c 22.507637
_cell_angle_alpha 90.000000
_cell_angle_beta 90.000000
_cell_angle_gamma 90.000000
_cell_volume 5179.724750
_symmetry_space_group_name_H-M "C M M A"
_symmetry_group_IT_number 67
_symmetry_cell_setting 'orthorhombic'
loop_
_space_group_symop_operation_xyz
x,y,z
-x,1/2-y,z
x,-y,-z
-x,1/2+y,-z
-x,-y,-z
x,1/2+y,-z
-x,y,z
x,1/2-y,z
1/2+x,1/2+y,z
1/2-x,-y,z
1/2+x,1/2-y,-z
1/2-x,y,-z
1/2-x,1/2-y,-z
1/2+x,y,-z
1/2-x,1/2+y,z
1/2+x,-y,z
loop_
_atom_site_type_symbol
_atom_site_label
_atom_site_fract_x
_atom_site_fract_y
_atom_site_fract_z
Si Si1 0.806607 0.570068 0.059405
Si Si2 0.844408 0.926548 0.820717
Si Si3 0.590967 0.072652 0.357138
Si Si4 0.000000 0.568137 0.565862
Si Si5 0.694709 0.932921 0.310419
Si Si6 0.441208 0.076925 0.220594
O O1 0.804167 0.750000 0.053311
O O2 0.750000 0.500000 0.061682
O O3 0.830716 0.522762 0.121758
O O4 0.831861 0.500000 0.000000
O O5 0.832643 0.750000 0.831512
O O6 0.816459 0.973740 0.759144
O O7 0.903847 0.955104 0.807703
O O8 0.596114 0.250000 0.373871
O O9 0.565838 0.066747 0.291537
O O10 0.551088 0.990281 0.400437
O O11 0.647109 0.998438 0.348465
O O12 0.000000 0.500000 0.500000
O O13 0.000000 0.750000 0.564686
O O14 0.694881 0.750000 0.314450
O O15 0.750000 0.000000 0.327050
O O16 0.500000 0.055345 0.205084
O O17 0.425673 0.250000 0.203849
#
# Coordination Sequence:
#
# PCOD9501899 Si02
#       6
#    16  16  16   8  16  16
#     4  11  21  34  51  70  95 128 166 210 258 310
#     4  10  20  32  48  74 104 135 173 214 259 312
#     4  10  19  35  56  80 110 144 179 222 269 315
#     4  12  24  38  58  84 114 146 183 224 265 312
#     4  10  20  33  51  79 111 146 181 220 267 320
#     4   9  17  31  51  75 104 137 170 209 259 311
#
# _framework density 16.989319999999999
#
# number of rings (size 3 to 8) (size 9 to 14) (size 15 to 20)
#    0.000    1.818    0.909    5.182    0.000    4.727 
#    0.000    0.000    0.000    1.091    0.000    3.818 
#    0.000    0.000    0.000    0.000    0.000    0.000 
#
# Total GULP energy -245457.712136 kJ/mol
# GULP energy per Si atom -5578.584367 kJ/mol
# Density = 1.695065 g / cm^3
# Si number density = 16.989320 Si / 1000 Ang^3
#
#
#
# Elastic Constant Matrix: (Units=GPa)
#
#
# Indices 1 2 3 4 5 6 
#
# 1 109.0514 51.9759 47.5888 0.0000 0.0000 0.0000
# 2 51.9759 123.2442 58.4487 0.0000 0.0000 0.0000
# 3 47.5888 58.4487 86.4132 0.0000 0.0000 0.0000
# 4 0.0000 0.0000 0.0000 27.0731 0.0000 0.0000
# 5 0.0000 0.0000 0.0000 0.0000 18.5509 0.0000
# 6 0.0000 0.0000 0.0000 0.0000 0.0000 31.5176
#
#
#
# Elastic Compliance Matrix: (Units=1/GPa)
#
#
# Indices 1 2 3 4 5 6 
#
# 1 0.012793 -0.003024 -0.005000 0.000000 0.000000 0.000000
# 2 -0.003024 0.012661 -0.006898 0.000000 0.000000 0.000000
# 3 -0.005000 -0.006898 0.018992 0.000000 0.000000 0.000000
# 4 0.000000 0.000000 0.000000 0.036937 0.000000 0.000000
# 5 0.000000 0.000000 0.000000 0.000000 0.053906 0.000000
# 6 0.000000 0.000000 0.000000 0.000000 0.000000 0.031728
#
#
# Mechanical properties :
#
#
# Convention : Reuss Voigt Hill
#
# Bulk Modulus (GPa) = 68.48715 70.52618 69.50666
# Shear Modulus (GPa) = 24.78582 26.14136 25.46359
#
# Velocity S-wave (km/s) = 3.82371 3.92687 3.87563
# Velocity P-wave (km/s) = 7.73910 7.88433 7.81205
#
# Compressibility (1/GPa) = 0.01460128
#
# Stress axis : x y z
#
# Youngs Moduli (GPa) = 78.16627 78.98404 52.65462
#
# Poissons Ratio (x) = 0.23885 0.26327
# Poissons Ratio (y) = 0.23638 0.36322
# Poissons Ratio (z) = 0.39083 0.54485
#
# Static dielectric constant tensor:
#      x y z
#    x 1.574130 0.000000 0.000000 
#    y 0.000000 1.586060 0.000000 
#    z 0.000000 0.000000 1.579440 
# 
# From -- ./inp_files/36944.got.cif
#   From: 2010.05.17/outbox.cif.g08.bks.cpg/sg67_19_cif.got.tgz:36944.got - 2010.06.03 18:28:57.
