data_PCOD9501878
_publ_section_title
;
Structure prediction by ZEFSAII (Michael W. Deem and Ramdas Pophale) SiO2 
 PCOD9501878
Probable space group: C M M A
;
_chemical_formula_sum "Si O2"
_cell_formula_units_Z 68
_cell_length_a 25.762061
_cell_length_b 8.324581
_cell_length_c 14.345746
_cell_angle_alpha 90.000000
_cell_angle_beta 90.000000
_cell_angle_gamma 90.000000
_cell_volume 3076.565211
_symmetry_space_group_name_H-M "C M M A"
_symmetry_group_IT_number 67
_symmetry_cell_setting 'orthorhombic'
loop_
_space_group_symop_operation_xyz
x,y,z
-x,1/2-y,z
x,-y,-z
-x,1/2+y,-z
-x,-y,-z
x,1/2+y,-z
-x,y,z
x,1/2-y,z
1/2+x,1/2+y,z
1/2-x,-y,z
1/2+x,1/2-y,-z
1/2-x,y,-z
1/2-x,1/2-y,-z
1/2+x,y,-z
1/2-x,1/2+y,z
1/2+x,-y,z
loop_
_atom_site_type_symbol
_atom_site_label
_atom_site_fract_x
_atom_site_fract_y
_atom_site_fract_z
Si Si1 0.805304 0.943666 0.639556
Si Si2 0.082156 0.561322 0.400956
Si Si3 0.166996 0.064785 0.157293
Si Si4 0.250000 0.500000 0.000000
Si Si5 0.555975 0.942172 0.195546
O O1 0.809112 0.750000 0.631443
O O2 0.808377 0.001687 0.748068
O O3 0.750000 0.000000 0.602977
O O4 0.856233 0.024503 0.597619
O O5 0.061012 0.500000 0.500000
O O6 0.072500 0.750000 0.391985
O O7 0.062550 0.475917 0.306430
O O8 0.157433 0.250000 0.179635
O O9 0.207656 0.065939 0.073625
O O10 0.108811 0.994182 0.146085
O O11 0.500000 0.009993 0.165362
O O12 0.553538 0.750000 0.181756
#
# Coordination Sequence:
#
# PCOD9501878 Si02
#       5
#    16  16  16   4  16
#     4  10  19  35  54  78 113 155 198 240 291 346
#     4  11  22  36  55  83 115 150 193 241 290 341
#     4   9  19  33  53  82 114 149 191 235 286 347
#     4  12  18  32  54  90 122 152 186 234 290 344
#     4   9  19  39  62  81 109 153 199 244 292 342
#
# _framework density 22.102571000000001
#
# number of rings (size 3 to 8) (size 9 to 14) (size 15 to 20)
#    0.000    2.118    1.176    4.588    0.000    1.412 
#    0.000    4.118    0.000    0.000    0.000    0.000 
#    0.000    0.000    0.000    0.000    0.000    0.000 
#
# Total GULP energy -189328.567822 kJ/mol
# GULP energy per Si atom -5568.487289 kJ/mol
# Density = 2.205226 g / cm^3
# Si number density = 22.102571 Si / 1000 Ang^3
#
#
#
# Elastic Constant Matrix: (Units=GPa)
#
#
# Indices 1 2 3 4 5 6 
#
# 1 191.6199 -0.4246 20.7707 0.0000 0.0000 0.0000
# 2 -0.4246 27.0517 -4.3727 0.0000 0.0000 0.0000
# 3 20.7707 -4.3727 64.0688 0.0000 0.0000 0.0000
# 4 0.0000 0.0000 0.0000 102.2925 0.0000 0.0000
# 5 0.0000 0.0000 0.0000 0.0000 -79.3545 0.0000
# 6 0.0000 0.0000 0.0000 0.0000 0.0000 14.2301
#
#
#
# Elastic Compliance Matrix: (Units=1/GPa)
#
#
# Indices 1 2 3 4 5 6 
#
# 1 0.005410 -0.000201 -0.001768 0.000000 0.000000 0.000000
# 2 -0.000201 0.037386 0.002617 0.000000 0.000000 0.000000
# 3 -0.001768 0.002617 0.016360 0.000000 0.000000 0.000000
# 4 0.000000 0.000000 0.000000 0.009776 0.000000 0.000000
# 5 0.000000 0.000000 0.000000 0.000000 -0.012602 0.000000
# 6 0.000000 0.000000 0.000000 0.000000 0.000000 0.070274
#
#
# Mechanical properties :
#
#
# Convention : Reuss Voigt Hill
#
# Bulk Modulus (GPa) = 16.54192 34.96525 25.75359
# Shear Modulus (GPa) = 34.37424 25.21808 29.79616
#
# Velocity S-wave (km/s) = 3.94790 3.38147 3.67561
# Velocity P-wave (km/s) = 5.31805 5.57671 5.44891
#
# Compressibility (1/GPa) = 0.06045248
#
# Stress axis : x y z
#
# Youngs Moduli (GPa) = 184.84931 26.74790 61.12530
#
# Poissons Ratio (x) = 0.00537 0.10804
# Poissons Ratio (y) = 0.03712 -0.15995
# Poissons Ratio (z) = 0.32673 -0.06999
#
# Static dielectric constant tensor:
#      x y z
#    x 1.800520 0.000000 0.000000 
#    y 0.000000 1.788500 0.000000 
#    z 0.000000 0.000000 1.821740 
# 
# From -- ./inp_files/30477.got.cif
#   From: 2010.05.17/outbox.cif.g08.bks.cpg/sg67_16_cif.got.tgz:30477.got - 2010.06.03 18:28:57.
