data_PCOD9501642
_publ_section_title
;
Structure prediction by ZEFSAII (Michael W. Deem and Ramdas Pophale) SiO2 
 PCOD9501642
Probable space group: C M M A
;
_chemical_formula_sum "Si O2"
_cell_formula_units_Z 96
_cell_length_a 19.177954
_cell_length_b 8.626349
_cell_length_c 32.204312
_cell_angle_alpha 90.000000
_cell_angle_beta 90.000000
_cell_angle_gamma 90.000000
_cell_volume 5327.743682
_symmetry_space_group_name_H-M "C M M A"
_symmetry_group_IT_number 67
_symmetry_cell_setting 'orthorhombic'
loop_
_space_group_symop_operation_xyz
x,y,z
-x,1/2-y,z
x,-y,-z
-x,1/2+y,-z
-x,-y,-z
x,1/2+y,-z
-x,y,z
x,1/2-y,z
1/2+x,1/2+y,z
1/2-x,-y,z
1/2+x,1/2-y,-z
1/2-x,y,-z
1/2-x,1/2-y,-z
1/2+x,y,-z
1/2-x,1/2+y,z
1/2+x,-y,z
loop_
_atom_site_type_symbol
_atom_site_label
_atom_site_fract_x
_atom_site_fract_y
_atom_site_fract_z
Si Si1 0.171921 0.436423 0.790898
Si Si2 0.828646 0.062736 0.633800
Si Si3 0.672131 0.565317 0.119985
Si Si4 0.419986 0.939200 0.712044
Si Si5 0.917513 0.065149 0.955230
Si Si6 0.329108 0.064653 0.457785
O O1 0.174817 0.250000 0.792359
O O2 0.250000 0.500000 0.783780
O O3 0.147750 0.498768 0.835595
O O4 0.121577 0.484999 0.753463
O O5 0.824754 0.250000 0.635112
O O6 0.877652 0.009678 0.671273
O O7 0.857119 0.020667 0.587812
O O8 0.750000 0.000000 0.638491
O O9 0.674904 0.750000 0.122205
O O10 0.750000 0.500000 0.113528
O O11 0.624065 0.510744 0.082371
O O12 0.500000 0.991390 0.712066
O O13 0.420608 0.750000 0.711436
O O14 0.907977 0.250000 0.954466
O O15 0.000000 0.031550 0.950954
O O16 0.894800 0.000000 0.000000
O O17 0.326970 0.250000 0.460752
O O18 0.362773 0.000000 0.500000
O O19 0.250000 0.000000 0.457134
#
# Coordination Sequence:
#
# PCOD9501642 Si02
#       6
#    16  16  16  16  16  16
#     4  10  19  33  54  77 101 131 166 206 254 303
#     4   9  17  29  47  70  94 123 159 198 242 290
#     4  11  22  37  57  81 110 141 176 217 261 308
#     4   9  18  32  50  72  97 126 163 204 244 292
#     4  10  21  38  59  83 112 145 181 219 260 307
#     4   9  15  23  38  62  90 118 150 191 237 283
#
# _framework density 18.018884
#
# number of rings (size 3 to 8) (size 9 to 14) (size 15 to 20)
#    0.000    2.333    0.000    5.000    0.000    2.667 
#    0.000    4.167    0.000    4.500    0.000    0.000 
#    0.000    0.000    0.000    0.000    0.000    4.500 
#
# Total GULP energy -267733.566839 kJ/mol
# GULP energy per Si atom -5577.782642 kJ/mol
# Density = 1.797787 g / cm^3
# Si number density = 18.018884 Si / 1000 Ang^3
#
#
#
# Elastic Constant Matrix: (Units=GPa)
#
#
# Indices 1 2 3 4 5 6 
#
# 1 71.2261 31.3356 95.8089 0.0000 0.0000 0.0000
# 2 31.3356 58.8557 60.9902 0.0000 0.0000 0.0000
# 3 95.8089 60.9902 221.8856 0.0000 0.0000 0.0000
# 4 0.0000 0.0000 0.0000 50.1588 0.0000 0.0000
# 5 0.0000 0.0000 0.0000 0.0000 -23.0802 0.0000
# 6 0.0000 0.0000 0.0000 0.0000 0.0000 17.5977
#
#
#
# Elastic Compliance Matrix: (Units=1/GPa)
#
#
# Indices 1 2 3 4 5 6 
#
# 1 0.034174 -0.004060 -0.013640 0.000000 0.000000 0.000000
# 2 -0.004060 0.024240 -0.004910 0.000000 0.000000 0.000000
# 3 -0.013640 -0.004910 0.011746 0.000000 0.000000 0.000000
# 4 0.000000 0.000000 0.000000 0.019937 0.000000 0.000000
# 5 0.000000 0.000000 0.000000 0.000000 -0.043327 0.000000
# 6 0.000000 0.000000 0.000000 0.000000 0.000000 0.056826
#
#
# Mechanical properties :
#
#
# Convention : Reuss Voigt Hill
#
# Bulk Modulus (GPa) = 40.09560 80.91520 60.50540
# Shear Modulus (GPa) = 31.82115 19.85744 25.83929
#
# Velocity S-wave (km/s) = 4.20693 3.32329 3.79094
# Velocity P-wave (km/s) = 6.77480 7.72845 7.26729
#
# Compressibility (1/GPa) = 0.02494039
#
# Stress axis : x y z
#
# Youngs Moduli (GPa) = 29.26233 41.25368 85.13429
#
# Poissons Ratio (x) = 0.16748 1.16124
# Poissons Ratio (y) = 0.11880 0.41801
# Poissons Ratio (z) = 0.39914 0.20256
#
# Static dielectric constant tensor:
#      x y z
#    x 1.583950 0.000000 0.000000 
#    y 0.000000 1.611000 0.000000 
#    z 0.000000 0.000000 1.642970 
# 
# From -- ./inp_files/44612.got.cif
#   From: 2010.05.17/outbox.cif.g08.bks.cpg/sg67_23_cif.got.tgz:44612.got - 2010.06.03 18:28:57.
