data_PCOD9501776
_publ_section_title
;
Structure prediction by ZEFSAII (Michael W. Deem and Ramdas Pophale) SiO2 
 PCOD9501776
Probable space group: C M M A
;
_chemical_formula_sum "Si O2"
_cell_formula_units_Z 96
_cell_length_a 20.338440
_cell_length_b 20.022524
_cell_length_c 12.596762
_cell_angle_alpha 90.000000
_cell_angle_beta 90.000000
_cell_angle_gamma 90.000000
_cell_volume 5129.740377
_symmetry_space_group_name_H-M "C M M A"
_symmetry_group_IT_number 67
_symmetry_cell_setting 'orthorhombic'
loop_
_space_group_symop_operation_xyz
x,y,z
-x,1/2-y,z
x,-y,-z
-x,1/2+y,-z
-x,-y,-z
x,1/2+y,-z
-x,y,z
x,1/2-y,z
1/2+x,1/2+y,z
1/2-x,-y,z
1/2+x,1/2-y,-z
1/2-x,y,-z
1/2-x,1/2-y,-z
1/2+x,y,-z
1/2-x,1/2+y,z
1/2+x,-y,z
loop_
_atom_site_type_symbol
_atom_site_label
_atom_site_fract_x
_atom_site_fract_y
_atom_site_fract_z
Si Si1 0.926588 0.595288 0.640400
Si Si2 0.928737 0.670198 0.423205
Si Si3 0.924082 0.171696 0.137261
Si Si4 0.217714 0.934471 0.617461
Si Si5 0.321397 0.331018 0.039336
Si Si6 0.194291 0.330599 0.718162
O O1 0.925235 0.649361 0.545612
O O2 0.918911 0.630225 0.754440
O O3 0.860440 0.554512 0.617314
O O4 0.000000 0.563530 0.636218
O O5 0.928618 0.750000 0.414981
O O6 0.864803 0.647548 0.359567
O O7 0.000000 0.645843 0.381853
O O8 0.908878 0.250000 0.159556
O O9 0.000000 0.168626 0.102023
O O10 0.876702 0.146927 0.043649
O O11 0.250000 0.927592 0.500000
O O12 0.240228 0.869071 0.682009
O O13 0.250000 0.000000 0.667387
O O14 0.322945 0.250000 0.036531
O O15 0.327099 0.348747 0.162631
O O16 0.250000 0.353000 0.000000
O O17 0.203357 0.250000 0.712083
#
# Coordination Sequence:
#
# PCOD9501776 Si02
#       6
#    16  16  16  16  16  16
#     4  10  19  34  55  77 105 143 182 222 267 323
#     4   9  17  29  47  77 111 138 171 218 270 322
#     4   9  17  29  50  81 114 148 184 225 271 316
#     4  11  23  39  55  80 114 143 178 228 277 331
#     4   9  17  29  46  72 105 138 178 223 264 312
#     4  10  20  34  55  80 107 145 183 222 276 331
#
# _framework density 18.714397999999999
#
# number of rings (size 3 to 8) (size 9 to 14) (size 15 to 20)
#    0.000    2.333    1.667    1.500    0.000    5.667 
#    0.000    5.833    0.000    4.500    0.000    2.333 
#    0.000    0.000    0.000    0.000    0.000    0.000 
#
# Total GULP energy -267447.708723 kJ/mol
# GULP energy per Si atom -5571.827265 kJ/mol
# Density = 1.867180 g / cm^3
# Si number density = 18.714398 Si / 1000 Ang^3
#
#
#
# Elastic Constant Matrix: (Units=GPa)
#
#
# Indices 1 2 3 4 5 6 
#
# 1 139.3013 22.1338 42.5105 0.0000 0.0000 0.0000
# 2 22.1338 23.6798 7.6247 0.0000 0.0000 0.0000
# 3 42.5105 7.6247 98.9862 0.0000 0.0000 0.0000
# 4 0.0000 0.0000 0.0000 -2.2462 0.0000 0.0000
# 5 0.0000 0.0000 0.0000 0.0000 31.4084 0.0000
# 6 0.0000 0.0000 0.0000 0.0000 0.0000 6.8113
#
#
#
# Elastic Compliance Matrix: (Units=1/GPa)
#
#
# Indices 1 2 3 4 5 6 
#
# 1 0.009466 -0.007731 -0.003470 0.000000 0.000000 0.000000
# 2 -0.007731 0.049618 -0.000502 0.000000 0.000000 0.000000
# 3 -0.003470 -0.000502 0.011631 0.000000 0.000000 0.000000
# 4 0.000000 0.000000 0.000000 -0.445188 0.000000 0.000000
# 5 0.000000 0.000000 0.000000 0.000000 0.031839 0.000000
# 6 0.000000 0.000000 0.000000 0.000000 0.000000 0.146814
#
#
# Mechanical properties :
#
#
# Convention : Reuss Voigt Hill
#
# Bulk Modulus (GPa) = 21.13712 45.16725 33.15219
# Shear Modulus (GPa) = -31.91926 19.84124 -6.03901
#
# Velocity S-wave (km/s) = -4.13437 3.25962 -1.79832
# Velocity P-wave (km/s) = 3.38697 6.19308 3.66624
#
# Compressibility (1/GPa) = 0.04731013
#
# Stress axis : x y z
#
# Youngs Moduli (GPa) = 105.64261 20.15410 85.97573
#
# Poissons Ratio (x) = 0.15580 0.29831
# Poissons Ratio (y) = 0.81669 0.04315
# Poissons Ratio (z) = 0.36655 0.01012
#
# Static dielectric constant tensor:
#      x y z
#    x 1.707000 0.000000 0.000000 
#    y 0.000000 1.637500 0.000000 
#    z 0.000000 0.000000 1.632870 
# 
# From -- ./inp_files/19610.got.cif
#   From: 2010.05.17/outbox.cif.g08.bks.cpg/sg67_10_cif.got.tgz:19610.got - 2010.06.03 18:28:57.
