data_PCOD9501484
_publ_section_title
;
Structure prediction by ZEFSAII (Michael W. Deem and Ramdas Pophale) SiO2 
 PCOD9501484
Probable space group: C M M A
;
_chemical_formula_sum "Si O2"
_cell_formula_units_Z 80
_cell_length_a 17.920865
_cell_length_b 15.510134
_cell_length_c 15.304076
_cell_angle_alpha 90.000000
_cell_angle_beta 90.000000
_cell_angle_gamma 90.000000
_cell_volume 4253.844713
_symmetry_space_group_name_H-M "C M M A"
_symmetry_group_IT_number 67
_symmetry_cell_setting 'orthorhombic'
loop_
_space_group_symop_operation_xyz
x,y,z
-x,1/2-y,z
x,-y,-z
-x,1/2+y,-z
-x,-y,-z
x,1/2+y,-z
-x,y,z
x,1/2-y,z
1/2+x,1/2+y,z
1/2-x,-y,z
1/2+x,1/2-y,-z
1/2-x,y,-z
1/2-x,1/2-y,-z
1/2+x,y,-z
1/2-x,1/2+y,z
1/2+x,-y,z
loop_
_atom_site_type_symbol
_atom_site_label
_atom_site_fract_x
_atom_site_fract_y
_atom_site_fract_z
Si Si1 0.795195 0.910945 0.725594
Si Si2 0.915326 0.479354 0.646133
Si Si3 0.417689 0.851431 0.812433
Si Si4 0.307250 0.845107 0.579221
Si Si5 0.237353 0.853421 0.097550
O O1 0.743824 0.849479 0.666557
O O2 0.793845 0.883645 0.826503
O O3 0.750000 0.000000 0.722445
O O4 0.872989 0.934899 0.679537
O O5 0.916805 0.413555 0.729014
O O6 0.865209 0.423878 0.579487
O O7 0.000000 0.495015 0.618070
O O8 0.500000 0.860486 0.854349
O O9 0.410183 0.750000 0.787563
O O10 0.346566 0.874477 0.870817
O O11 0.342806 0.750000 0.574062
O O12 0.250000 0.855169 0.500000
O O13 0.242910 0.750000 0.094650
O O14 0.250000 0.887293 0.000000
#
# Coordination Sequence:
#
# PCOD9501484 Si02
#       5
#    16  16  16  16  16
#     4  10  19  33  51  76 109 141 173 222 273 326
#     4  10  20  34  54  81 110 142 177 220 277 329
#     4   9  16  29  50  76 104 133 174 229 274 307
#     4  10  20  35  57  82 105 136 181 228 271 317
#     4  10  19  32  52  77 105 145 191 228 267 324
#
# _framework density 18.806516999999999
#
# number of rings (size 3 to 8) (size 9 to 14) (size 15 to 20)
#    0.000    2.200    4.000    1.200    0.000    5.200 
#    0.000    3.000    0.000    7.200    0.000    0.000 
#    0.000    0.000    0.000    0.000    0.000    0.000 
#
# Total GULP energy -222968.286557 kJ/mol
# GULP energy per Si atom -5574.207164 kJ/mol
# Density = 1.876371 g / cm^3
# Si number density = 18.806517 Si / 1000 Ang^3
#
#
#
# Elastic Constant Matrix: (Units=GPa)
#
#
# Indices 1 2 3 4 5 6 
#
# 1 103.4426 24.7588 14.9787 0.0000 0.0000 0.0000
# 2 24.7588 37.4253 4.7368 0.0000 0.0000 0.0000
# 3 14.9787 4.7368 63.3206 0.0000 0.0000 0.0000
# 4 0.0000 0.0000 0.0000 22.6425 0.0000 0.0000
# 5 0.0000 0.0000 0.0000 0.0000 18.4101 0.0000
# 6 0.0000 0.0000 0.0000 0.0000 0.0000 26.8847
#
#
#
# Elastic Compliance Matrix: (Units=1/GPa)
#
#
# Indices 1 2 3 4 5 6 
#
# 1 0.011789 -0.007517 -0.002226 0.000000 0.000000 0.000000
# 2 -0.007517 0.031769 -0.000598 0.000000 0.000000 0.000000
# 3 -0.002226 -0.000598 0.016364 0.000000 0.000000 0.000000
# 4 0.000000 0.000000 0.000000 0.044165 0.000000 0.000000
# 5 0.000000 0.000000 0.000000 0.000000 0.054318 0.000000
# 6 0.000000 0.000000 0.000000 0.000000 0.000000 0.037196
#
#
# Mechanical properties :
#
#
# Convention : Reuss Voigt Hill
#
# Bulk Modulus (GPa) = 25.48554 32.57078 29.02816
# Shear Modulus (GPa) = 21.79951 24.23506 23.01728
#
# Velocity S-wave (km/s) = 3.40832 3.59367 3.50222
# Velocity P-wave (km/s) = 5.39163 5.88012 5.64117
#
# Compressibility (1/GPa) = 0.03923794
#
# Stress axis : x y z
#
# Youngs Moduli (GPa) = 84.82640 31.47763 61.10951
#
# Poissons Ratio (x) = 0.23662 0.13605
# Poissons Ratio (y) = 0.63765 0.03656
# Poissons Ratio (z) = 0.18885 0.01883
#
# Static dielectric constant tensor:
#      x y z
#    x 1.683740 0.000000 0.000000 
#    y 0.000000 1.677020 0.000000 
#    z 0.000000 0.000000 1.689970 
# 
# From -- ./inp_files/26955.got.cif
#   From: 2010.05.17/outbox.cif.g08.bks.cpg/sg67_14_cif.got.tgz:26955.got - 2010.06.03 18:28:57.
