data_PCOD9501967
_publ_section_title
;
Structure prediction by ZEFSAII (Michael W. Deem and Ramdas Pophale) SiO2 
 PCOD9501967
Probable space group: C M M A
;
_chemical_formula_sum "Si O2"
_cell_formula_units_Z 80
_cell_length_a 24.293472
_cell_length_b 8.807926
_cell_length_c 20.991011
_cell_angle_alpha 90.000000
_cell_angle_beta 90.000000
_cell_angle_gamma 90.000000
_cell_volume 4491.553755
_symmetry_space_group_name_H-M "C M M A"
_symmetry_group_IT_number 67
_symmetry_cell_setting 'orthorhombic'
loop_
_space_group_symop_operation_xyz
x,y,z
-x,1/2-y,z
x,-y,-z
-x,1/2+y,-z
-x,-y,-z
x,1/2+y,-z
-x,y,z
x,1/2-y,z
1/2+x,1/2+y,z
1/2-x,-y,z
1/2+x,1/2-y,-z
1/2-x,y,-z
1/2-x,1/2-y,-z
1/2+x,y,-z
1/2-x,1/2+y,z
1/2+x,-y,z
loop_
_atom_site_type_symbol
_atom_site_label
_atom_site_fract_x
_atom_site_fract_y
_atom_site_fract_z
Si Si1 0.381977 0.568211 0.934666
Si Si2 0.890688 0.066898 0.700287
Si Si3 0.935867 0.432809 0.568591
Si Si4 0.189364 0.933426 0.189323
Si Si5 0.500000 0.423484 0.756990
Si Si6 0.000000 0.576327 0.909456
O O1 0.382362 0.750000 0.938023
O O2 0.347980 0.522197 0.871599
O O3 0.444218 0.507342 0.929030
O O4 0.358032 0.500000 0.000000
O O5 0.890640 0.250000 0.700450
O O6 0.896756 0.017571 0.626724
O O7 0.840419 0.016477 0.745008
O O8 0.946125 0.009613 0.733515
O O9 0.921399 0.500000 0.500000
O O10 0.934400 0.250000 0.564927
O O11 0.000000 0.475418 0.582614
O O12 0.192031 0.750000 0.189605
O O13 0.250000 0.000000 0.183980
O O14 0.500000 0.250000 0.733227
O O15 0.500000 0.420035 0.833040
O O16 0.000000 0.750000 0.933695
#
# Coordination Sequence:
#
# PCOD9501967 Si02
#       6
#    16  16  16  16   8   8
#     4  11  23  39  59  82 110 146 180 220 272 329
#     4  10  19  36  57  78 108 148 184 217 268 329
#     4   9  17  29  49  77 112 147 176 214 258 316
#     4  10  23  40  60  80 103 139 185 231 275 321
#     4  11  21  30  51  86 113 139 175 226 273 314
#     4  11  22  36  55  84 117 145 176 220 270 326
#
# _framework density 17.811208000000001
#
# number of rings (size 3 to 8) (size 9 to 14) (size 15 to 20)
#    0.000    1.800    3.000    1.500    0.000    4.400 
#    0.000    2.000    0.000    0.600    0.000    4.200 
#    0.000    0.000    0.000    0.000    0.000    0.000 
#
# Total GULP energy -223228.850073 kJ/mol
# GULP energy per Si atom -5580.721252 kJ/mol
# Density = 1.777067 g / cm^3
# Si number density = 17.811208 Si / 1000 Ang^3
#
#
#
# Elastic Constant Matrix: (Units=GPa)
#
#
# Indices 1 2 3 4 5 6 
#
# 1 113.8010 23.8897 68.8580 0.0000 0.0000 0.0000
# 2 23.8897 18.7889 36.1234 0.0000 0.0000 0.0000
# 3 68.8580 36.1234 164.3172 0.0000 0.0000 0.0000
# 4 0.0000 0.0000 0.0000 29.2708 0.0000 0.0000
# 5 0.0000 0.0000 0.0000 0.0000 30.2131 0.0000
# 6 0.0000 0.0000 0.0000 0.0000 0.0000 22.3600
#
#
#
# Elastic Compliance Matrix: (Units=1/GPa)
#
#
# Indices 1 2 3 4 5 6 
#
# 1 0.012840 -0.010359 -0.003103 0.000000 0.000000 0.000000
# 2 -0.010359 0.100545 -0.017763 0.000000 0.000000 0.000000
# 3 -0.003103 -0.017763 0.011291 0.000000 0.000000 0.000000
# 4 0.000000 0.000000 0.000000 0.034164 0.000000 0.000000
# 5 0.000000 0.000000 0.000000 0.000000 0.033098 0.000000
# 6 0.000000 0.000000 0.000000 0.000000 0.000000 0.044723
#
#
# Mechanical properties :
#
#
# Convention : Reuss Voigt Hill
#
# Bulk Modulus (GPa) = 16.07053 61.62769 38.84911
# Shear Modulus (GPa) = 15.63220 27.57117 21.60169
#
# Velocity S-wave (km/s) = 2.96575 3.93869 3.48633
# Velocity P-wave (km/s) = 4.55739 7.44043 6.16968
#
# Compressibility (1/GPa) = 0.06222570
#
# Stress axis : x y z
#
# Youngs Moduli (GPa) = 77.88440 9.94578 88.56516
#
# Poissons Ratio (x) = 0.10303 0.27483
# Poissons Ratio (y) = 0.80682 1.57316
# Poissons Ratio (z) = 0.24168 0.17666
#
# Static dielectric constant tensor:
#      x y z
#    x 1.572780 0.000000 0.000000 
#    y 0.000000 1.609460 0.000000 
#    z 0.000000 0.000000 1.642890 
# 
# From -- ./inp_files/39504.got.cif
#   From: 2010.05.17/outbox.cif.g08.bks.cpg/sg67_20_cif.got.tgz:39504.got - 2010.06.03 18:28:57.
