data_PCOD9501200
_publ_section_title
;
Structure prediction by ZEFSAII (Michael W. Deem and Ramdas Pophale) SiO2 
 PCOD9501200
Probable space group: C M M A
;
_chemical_formula_sum "Si O2"
_cell_formula_units_Z 96
_cell_length_a 9.061307
_cell_length_b 27.746889
_cell_length_c 24.598624
_cell_angle_alpha 90.000000
_cell_angle_beta 90.000000
_cell_angle_gamma 90.000000
_cell_volume 6184.661798
_symmetry_space_group_name_H-M "C M M A"
_symmetry_group_IT_number 67
_symmetry_cell_setting 'orthorhombic'
loop_
_space_group_symop_operation_xyz
x,y,z
-x,1/2-y,z
x,-y,-z
-x,1/2+y,-z
-x,-y,-z
x,1/2+y,-z
-x,y,z
x,1/2-y,z
1/2+x,1/2+y,z
1/2-x,-y,z
1/2+x,1/2-y,-z
1/2-x,y,-z
1/2-x,1/2-y,-z
1/2+x,y,-z
1/2-x,1/2+y,z
1/2+x,-y,z
loop_
_atom_site_type_symbol
_atom_site_label
_atom_site_fract_x
_atom_site_fract_y
_atom_site_fract_z
Si Si1 0.324244 0.899772 0.056279
Si Si2 0.322446 0.355772 0.220173
Si Si3 0.823243 0.693676 0.333533
Si Si4 0.177266 0.304956 0.119230
Si Si5 0.829713 0.808662 0.555054
Si Si6 0.677441 0.948815 0.170125
O O1 0.500000 0.900882 0.049364
O O2 0.281812 0.845446 0.074935
O O3 0.287430 0.933380 0.107755
O O4 0.250000 0.913498 0.000000
O O5 0.500000 0.359094 0.215614
O O6 0.284521 0.336242 0.279933
O O7 0.260386 0.319277 0.174526
O O8 0.246821 0.406706 0.206857
O O9 0.782989 0.750000 0.324902
O O10 0.748003 0.676314 0.389038
O O11 0.000000 0.691848 0.340471
O O12 0.209172 0.250000 0.103434
O O13 0.000000 0.309475 0.128209
O O14 0.823310 0.750000 0.554673
O O15 0.750000 0.825165 0.500000
O O16 0.000000 0.822894 0.554588
O O17 0.500000 0.949812 0.175690
O O18 0.750000 0.000000 0.182113
#
# Coordination Sequence:
#
# PCOD9501200 Si02
#       6
#    16  16  16  16  16  16
#     4   9  19  33  48  68  92 117 147 183 222 268
#     4  10  19  31  48  70  94 119 151 190 230 273
#     4   9  17  28  42  63  93 126 158 191 224 261
#     4   9  18  32  47  64  91 125 156 187 224 265
#     4   9  16  25  38  57  84 121 162 198 230 263
#     4  10  21  37  54  71  91 115 144 181 229 280
#
# _framework density 15.522271
#
# number of rings (size 3 to 8) (size 9 to 14) (size 15 to 20)
#    0.000    2.667    0.000    3.000    0.000    8.333 
#    0.000    3.333    0.000    0.000    0.000    0.000 
#    0.000    0.667    0.000    7.000    0.000    3.333 
#
# Total GULP energy -267577.602896 kJ/mol
# GULP energy per Si atom -5574.533394 kJ/mol
# Density = 1.548694 g / cm^3
# Si number density = 15.522271 Si / 1000 Ang^3
#
#
#
# Elastic Constant Matrix: (Units=GPa)
#
#
# Indices 1 2 3 4 5 6 
#
# 1 42.3047 22.4008 45.1787 0.0000 0.0000 0.0000
# 2 22.4008 58.9878 20.8490 0.0000 0.0000 0.0000
# 3 45.1787 20.8490 114.2107 0.0000 0.0000 0.0000
# 4 0.0000 0.0000 0.0000 8.6995 0.0000 0.0000
# 5 0.0000 0.0000 0.0000 0.0000 30.3747 0.0000
# 6 0.0000 0.0000 0.0000 0.0000 0.0000 16.5083
#
#
#
# Elastic Compliance Matrix: (Units=1/GPa)
#
#
# Indices 1 2 3 4 5 6 
#
# 1 0.048070 -0.012329 -0.016765 0.000000 0.000000 0.000000
# 2 -0.012329 0.021284 0.000992 0.000000 0.000000 0.000000
# 3 -0.016765 0.000992 0.015206 0.000000 0.000000 0.000000
# 4 0.000000 0.000000 0.000000 0.114950 0.000000 0.000000
# 5 0.000000 0.000000 0.000000 0.000000 0.032922 0.000000
# 6 0.000000 0.000000 0.000000 0.000000 0.000000 0.060576
#
#
# Mechanical properties :
#
#
# Convention : Reuss Voigt Hill
#
# Bulk Modulus (GPa) = 35.26555 43.59559 39.43057
# Shear Modulus (GPa) = 13.94061 19.58813 16.76437
#
# Velocity S-wave (km/s) = 3.00009 3.55623 3.28993
# Velocity P-wave (km/s) = 5.89656 6.70889 6.31579
#
# Compressibility (1/GPa) = 0.02835628
#
# Stress axis : x y z
#
# Youngs Moduli (GPa) = 20.80301 46.98314 65.76221
#
# Poissons Ratio (x) = 0.57927 1.10247
# Poissons Ratio (y) = 0.25649 -0.06522
# Poissons Ratio (z) = 0.34875 -0.04660
#
# Static dielectric constant tensor:
#      x y z
#    x 1.522780 0.000000 0.000000 
#    y 0.000000 1.505160 0.000000 
#    z 0.000000 0.000000 1.501680 
# 
# From -- ./inp_files/37168.got.cif
#   From: 2010.05.17/outbox.cif.g08.bks.cpg/sg67_19_cif.got.tgz:37168.got - 2010.06.03 18:28:57.
