data_PCOD9501002
_publ_section_title
;
Structure prediction by ZEFSAII (Michael W. Deem and Ramdas Pophale) SiO2 
 PCOD9501002
Probable space group: C M M A
;
_chemical_formula_sum "Si O2"
_cell_formula_units_Z 92
_cell_length_a 23.187612
_cell_length_b 21.863975
_cell_length_c 10.130133
_cell_angle_alpha 90.000000
_cell_angle_beta 90.000000
_cell_angle_gamma 90.000000
_cell_volume 5135.707656
_symmetry_space_group_name_H-M "C M M A"
_symmetry_group_IT_number 67
_symmetry_cell_setting 'orthorhombic'
loop_
_space_group_symop_operation_xyz
x,y,z
-x,1/2-y,z
x,-y,-z
-x,1/2+y,-z
-x,-y,-z
x,1/2+y,-z
-x,y,z
x,1/2-y,z
1/2+x,1/2+y,z
1/2-x,-y,z
1/2+x,1/2-y,-z
1/2-x,y,-z
1/2-x,1/2-y,-z
1/2+x,y,-z
1/2-x,1/2+y,z
1/2+x,-y,z
loop_
_atom_site_type_symbol
_atom_site_label
_atom_site_fract_x
_atom_site_fract_y
_atom_site_fract_z
Si Si1 0.000000 0.250000 0.251002
Si Si2 0.566408 0.750000 0.510423
Si Si3 0.000000 0.560462 0.592294
Si Si4 0.884509 0.573350 0.010435
Si Si5 0.880096 0.874891 0.522671
Si Si6 0.500000 0.384812 0.876085
Si Si7 0.324072 0.062775 0.276632
Si Si8 0.309418 0.082068 0.761108
O O1 0.053912 0.250000 0.352241
O O2 0.000000 0.185111 0.176817
O O3 0.500000 0.750000 0.565172
O O4 0.603492 0.809662 0.538161
O O5 0.000000 0.500000 0.500000
O O6 0.058235 0.595418 0.554753
O O7 0.000000 0.566015 0.753188
O O8 0.865296 0.585824 0.159403
O O9 0.891553 0.500000 0.000000
O O10 0.943157 0.603707 0.961768
O O11 0.834253 0.591605 0.907437
O O12 0.846059 0.914591 0.416492
O O13 0.842559 0.875619 0.656247
O O14 0.259272 0.085661 0.249184
O O15 0.324046 0.988872 0.273777
#
# Coordination Sequence:
#
# PCOD9501002 Si02
#       8
#     4   8   8  16  16   8  16  16
#     4  10  18  40  60  78 108 162 212 232 270 362
#     4  10  20  40  56  80 112 156 197 243 293 349
#     4  12  22  32  59  90 117 139 183 246 307 347
#     4  10  21  36  57  86 122 154 189 239 297 358
#     4  12  21  37  60  85 114 150 201 243 290 348
#     4  12  21  39  59  88 115 157 210 239 290 363
#     4  10  22  35  57  88 124 154 186 240 304 347
#     4  10  19  38  59  85 118 160 196 229 287 368
#
# _framework density 17.913792999999998
#
# number of rings (size 3 to 8) (size 9 to 14) (size 15 to 20)
#    0.261    1.043    4.348    2.870    2.435    4.174 
#    0.000    2.609    0.000    0.000    0.000    4.870 
#    0.000    0.000    0.000    0.000    0.000    0.000 
#
# Total GULP energy -256608.170781 kJ/mol
# GULP energy per Si atom -5578.438495 kJ/mol
# Density = 1.787302 g / cm^3
# Si number density = 17.913793 Si / 1000 Ang^3
#
#
#
# Elastic Constant Matrix: (Units=GPa)
#
#
# Indices 1 2 3 4 5 6 
#
# 1 80.3208 3.4198 7.2283 0.0000 0.0000 0.0000
# 2 3.4198 23.7829 -2.6928 0.0000 0.0000 0.0000
# 3 7.2283 -2.6928 60.0041 0.0000 0.0000 0.0000
# 4 0.0000 0.0000 0.0000 12.8939 0.0000 0.0000
# 5 0.0000 0.0000 0.0000 0.0000 33.5502 0.0000
# 6 0.0000 0.0000 0.0000 0.0000 0.0000 -14.9217
#
#
#
# Elastic Compliance Matrix: (Units=1/GPa)
#
#
# Indices 1 2 3 4 5 6 
#
# 1 0.012681 -0.002007 -0.001618 0.000000 0.000000 0.000000
# 2 -0.002007 0.042579 0.002153 0.000000 0.000000 0.000000
# 3 -0.001618 0.002153 0.016957 0.000000 0.000000 0.000000
# 4 0.000000 0.000000 0.000000 0.077556 0.000000 0.000000
# 5 0.000000 0.000000 0.000000 0.000000 0.029806 0.000000
# 6 0.000000 0.000000 0.000000 0.000000 0.000000 -0.067016
#
#
# Mechanical properties :
#
#
# Convention : Reuss Voigt Hill
#
# Bulk Modulus (GPa) = 14.43544 20.00205 17.21875
# Shear Modulus (GPa) = 36.07553 16.71463 26.39508
#
# Velocity S-wave (km/s) = 4.49245 3.05792 3.84272
# Velocity P-wave (km/s) = 5.91484 4.86393 5.41494
#
# Compressibility (1/GPa) = 0.06927397
#
# Stress axis : x y z
#
# Youngs Moduli (GPa) = 78.85760 23.48557 58.97274
#
# Poissons Ratio (x) = 0.04713 0.09540
# Poissons Ratio (y) = 0.15824 -0.12694
# Poissons Ratio (z) = 0.12756 -0.05055
#
# Static dielectric constant tensor:
#      x y z
#    x 1.600630 0.000000 0.000000 
#    y 0.000000 1.641430 0.000000 
#    z 0.000000 0.000000 1.600860 
# 
# From -- ./inp_files/11342.got.cif
#   From: 2010.05.17/outbox.cif.g08.bks.cpg/sg67_6_cif.got.tgz:11342.got - 2010.06.03 18:28:57.
