data_PCOD9501314
_publ_section_title
;
Structure prediction by ZEFSAII (Michael W. Deem and Ramdas Pophale) SiO2 
 PCOD9501314
Probable space group: C M M A
;
_chemical_formula_sum "Si O2"
_cell_formula_units_Z 72
_cell_length_a 14.826149
_cell_length_b 22.647297
_cell_length_c 11.908766
_cell_angle_alpha 90.000000
_cell_angle_beta 90.000000
_cell_angle_gamma 90.000000
_cell_volume 3998.632556
_symmetry_space_group_name_H-M "C M M A"
_symmetry_group_IT_number 67
_symmetry_cell_setting 'orthorhombic'
loop_
_space_group_symop_operation_xyz
x,y,z
-x,1/2-y,z
x,-y,-z
-x,1/2+y,-z
-x,-y,-z
x,1/2+y,-z
-x,y,z
x,1/2-y,z
1/2+x,1/2+y,z
1/2-x,-y,z
1/2+x,1/2-y,-z
1/2-x,y,-z
1/2-x,1/2-y,-z
1/2+x,y,-z
1/2-x,1/2+y,z
1/2+x,-y,z
loop_
_atom_site_type_symbol
_atom_site_label
_atom_site_fract_x
_atom_site_fract_y
_atom_site_fract_z
Si Si1 0.097309 0.595414 0.690398
Si Si2 0.358455 0.999187 0.871494
Si Si3 0.636500 0.500000 0.500000
Si Si4 0.605487 0.086802 0.322335
Si Si5 0.241388 0.817684 0.365144
O O1 0.108320 0.555357 0.800764
O O2 0.097129 0.548464 0.586891
O O3 0.178061 0.641323 0.679958
O O4 0.000000 0.625588 0.689953
O O5 0.388374 0.942232 0.799933
O O6 0.250000 0.000000 0.870327
O O7 0.388933 0.000000 0.000000
O O8 0.669588 0.546412 0.595368
O O9 0.500000 0.082828 0.358572
O O10 0.647728 0.151183 0.330538
O O11 0.247109 0.750000 0.327324
O O12 0.250000 0.818407 0.500000
#
# Coordination Sequence:
#
# PCOD9501314 Si02
#       5
#    16  16   8  16  16
#     4  11  21  35  57  82 113 147 181 227 277 337
#     4  10  20  35  59  90 117 144 177 223 285 342
#     4  10  19  31  52  85 111 136 177 219 278 341
#     4  11  21  35  57  82 113 147 181 227 277 337
#     4  11  24  38  54  79 113 153 193 231 272 321
#
# _framework density 18.006156000000001
#
# number of rings (size 3 to 8) (size 9 to 14) (size 15 to 20)
#    0.000    1.333    4.444    4.000    0.000    3.556 
#    0.000    2.222    0.000    2.667    0.000    3.111 
#    0.000    0.000    0.000    0.000    0.000    0.000 
#
# Total GULP energy -200518.400595 kJ/mol
# GULP energy per Si atom -5569.955572 kJ/mol
# Density = 1.796517 g / cm^3
# Si number density = 18.006156 Si / 1000 Ang^3
#
#
#
# Elastic Constant Matrix: (Units=GPa)
#
#
# Indices 1 2 3 4 5 6 
#
# 1 93.9180 40.2489 17.3392 0.0000 0.0000 0.0000
# 2 40.2489 127.5441 40.8594 0.0000 0.0000 0.0000
# 3 17.3392 40.8594 134.3779 0.0000 0.0000 0.0000
# 4 0.0000 0.0000 0.0000 13.4023 0.0000 0.0000
# 5 0.0000 0.0000 0.0000 0.0000 8.9835 0.0000
# 6 0.0000 0.0000 0.0000 0.0000 0.0000 1.0562
#
#
#
# Elastic Compliance Matrix: (Units=1/GPa)
#
#
# Indices 1 2 3 4 5 6 
#
# 1 0.012337 -0.003748 -0.000452 0.000000 0.000000 0.000000
# 2 -0.003748 0.009825 -0.002504 0.000000 0.000000 0.000000
# 3 -0.000452 -0.002504 0.008261 0.000000 0.000000 0.000000
# 4 0.000000 0.000000 0.000000 0.074614 0.000000 0.000000
# 5 0.000000 0.000000 0.000000 0.000000 0.111315 0.000000
# 6 0.000000 0.000000 0.000000 0.000000 0.000000 0.946830
#
#
# Mechanical properties :
#
#
# Convention : Reuss Voigt Hill
#
# Bulk Modulus (GPa) = 58.77072 61.41501 60.09286
# Shear Modulus (GPa) = 4.22917 21.84790 13.03854
#
# Velocity S-wave (km/s) = 1.53422 3.48711 2.69386
# Velocity P-wave (km/s) = 5.98737 7.09895 6.56672
#
# Compressibility (1/GPa) = 0.01701527
#
# Stress axis : x y z
#
# Youngs Moduli (GPa) = 81.05382 101.77639 121.04505
#
# Poissons Ratio (x) = 0.38151 0.05473
# Poissons Ratio (y) = 0.30383 0.30308
# Poissons Ratio (z) = 0.03665 0.25484
#
# Static dielectric constant tensor:
#      x y z
#    x 1.719830 0.000000 0.000000 
#    y 0.000000 1.585720 0.000000 
#    z 0.000000 0.000000 1.614040 
# 
# From -- ./inp_files/19156.got.cif
#   From: 2010.05.17/outbox.cif.g08.bks.cpg/sg67_10_cif.got.tgz:19156.got - 2010.06.03 18:28:57.
