data_PCOD9501054
_publ_section_title
;
Structure prediction by ZEFSAII (Michael W. Deem and Ramdas Pophale) SiO2 
 PCOD9501054
Probable space group: C M M A
;
_chemical_formula_sum "Si O2"
_cell_formula_units_Z 100
_cell_length_a 7.671145
_cell_length_b 27.177065
_cell_length_c 21.805659
_cell_angle_alpha 90.000000
_cell_angle_beta 90.000000
_cell_angle_gamma 90.000000
_cell_volume 4546.026481
_symmetry_space_group_name_H-M "C M M A"
_symmetry_group_IT_number 67
_symmetry_cell_setting 'orthorhombic'
loop_
_space_group_symop_operation_xyz
x,y,z
-x,1/2-y,z
x,-y,-z
-x,1/2+y,-z
-x,-y,-z
x,1/2+y,-z
-x,y,z
x,1/2-y,z
1/2+x,1/2+y,z
1/2-x,-y,z
1/2+x,1/2-y,-z
1/2-x,y,-z
1/2-x,1/2-y,-z
1/2+x,y,-z
1/2-x,1/2+y,z
1/2+x,-y,z
loop_
_atom_site_type_symbol
_atom_site_label
_atom_site_fract_x
_atom_site_fract_y
_atom_site_fract_z
Si Si1 0.715888 0.587739 0.412077
Si Si2 0.250000 0.500000 0.500000
Si Si3 0.203928 0.696263 0.584019
Si Si4 0.691608 0.380082 0.826061
Si Si5 0.204475 0.694431 0.274034
Si Si6 0.294687 0.195533 0.070737
Si Si7 0.209062 0.943346 0.722925
O O1 0.500000 0.583236 0.417353
O O2 0.799993 0.542514 0.449566
O O3 0.772365 0.642256 0.434172
O O4 0.764354 0.582950 0.340275
O O5 0.281245 0.750000 0.565991
O O6 0.220410 0.694879 0.657728
O O7 0.000000 0.696977 0.567284
O O8 0.500000 0.397936 0.842773
O O9 0.692869 0.340055 0.771420
O O10 0.752645 0.349353 0.884353
O O11 0.783935 0.423515 0.787613
O O12 0.212162 0.750000 0.250175
O O13 0.000000 0.680381 0.275952
O O14 0.500000 0.200531 0.075068
O O15 0.217680 0.250000 0.086531
O O16 0.250000 0.185403 0.000000
O O17 0.000000 0.936740 0.725310
O O18 0.250000 0.000000 0.715325
#
# Coordination Sequence:
#
# PCOD9501054 Si02
#       7
#    16   4  16  16  16  16  16
#     4  10  20  37  56  81 112 144 192 241 291 357
#     4  12  22  36  58  82 112 152 192 242 298 348
#     4   9  17  33  56  77 104 143 182 228 288 351
#     4  11  21  34  54  80 111 152 196 239 288 343
#     4  10  19  29  45  76 113 143 177 223 275 334
#     4  10  21  37  57  85 123 163 201 240 282 337
#     4  10  21  38  57  81 113 146 187 243 300 355
#
# _framework density 21.997232
#
# number of rings (size 3 to 8) (size 9 to 14) (size 15 to 20)
#    0.000    1.920    2.400    2.160    0.000    5.120 
#    0.000    2.000    0.000    0.480    0.000    3.360 
#    0.000    0.000    0.000    0.000    0.000    0.000 
#
# Total GULP energy -278468.439431 kJ/mol
# GULP energy per Si atom -5569.368789 kJ/mol
# Density = 2.194717 g / cm^3
# Si number density = 21.997232 Si / 1000 Ang^3
#
#
#
# Elastic Constant Matrix: (Units=GPa)
#
#
# Indices 1 2 3 4 5 6 
#
# 1 49.8476 7.5318 -1.4730 0.0000 0.0000 0.0000
# 2 7.5318 177.8648 45.0705 0.0000 0.0000 0.0000
# 3 -1.4730 45.0705 123.2699 0.0000 0.0000 0.0000
# 4 0.0000 0.0000 0.0000 75.3238 0.0000 0.0000
# 5 0.0000 0.0000 0.0000 0.0000 -372.3431 0.0000
# 6 0.0000 0.0000 0.0000 0.0000 0.0000 12.1631
#
#
#
# Elastic Compliance Matrix: (Units=1/GPa)
#
#
# Indices 1 2 3 4 5 6 
#
# 1 0.020232 -0.001012 0.000612 0.000000 0.000000 0.000000
# 2 -0.001012 0.006247 -0.002296 0.000000 0.000000 0.000000
# 3 0.000612 -0.002296 0.008959 0.000000 0.000000 0.000000
# 4 0.000000 0.000000 0.000000 0.013276 0.000000 0.000000
# 5 0.000000 0.000000 0.000000 0.000000 -0.002686 0.000000
# 6 0.000000 0.000000 0.000000 0.000000 0.000000 0.082216
#
#
# Mechanical properties :
#
#
# Convention : Reuss Voigt Hill
#
# Bulk Modulus (GPa) = 33.28260 50.36012 41.82136
# Shear Modulus (GPa) = 34.80632 -36.98105 -1.08736
#
# Velocity S-wave (km/s) = 3.98213 -4.10465 -0.70384
# Velocity P-wave (km/s) = 6.02548 0.69232 4.28869
#
# Compressibility (1/GPa) = 0.03004573
#
# Stress axis : x y z
#
# Youngs Moduli (GPa) = 49.42646 160.07883 111.61825
#
# Poissons Ratio (x) = 0.16196 -0.06827
# Poissons Ratio (y) = 0.05001 0.25629
# Poissons Ratio (z) = -0.03023 0.36756
#
# Static dielectric constant tensor:
#      x y z
#    x 1.776430 0.000000 0.000000 
#    y 0.000000 1.868450 0.000000 
#    z 0.000000 0.000000 1.762200 
# 
# From -- ./inp_files/37343.got.cif
#   From: 2010.05.17/outbox.cif.g08.bks.cpg/sg67_19_cif.got.tgz:37343.got - 2010.06.03 18:28:57.
