data_PCOD9501073
_publ_section_title
;
Structure prediction by ZEFSAII (Michael W. Deem and Ramdas Pophale) SiO2 
 PCOD9501073
Probable space group: C M M A
;
_chemical_formula_sum "Si O2"
_cell_formula_units_Z 96
_cell_length_a 28.266917
_cell_length_b 8.620420
_cell_length_c 24.487837
_cell_angle_alpha 90.000000
_cell_angle_beta 90.000000
_cell_angle_gamma 90.000000
_cell_volume 5967.017277
_symmetry_space_group_name_H-M "C M M A"
_symmetry_group_IT_number 67
_symmetry_cell_setting 'orthorhombic'
loop_
_space_group_symop_operation_xyz
x,y,z
-x,1/2-y,z
x,-y,-z
-x,1/2+y,-z
-x,-y,-z
x,1/2+y,-z
-x,y,z
x,1/2-y,z
1/2+x,1/2+y,z
1/2-x,-y,z
1/2+x,1/2-y,-z
1/2-x,y,-z
1/2-x,1/2-y,-z
1/2+x,y,-z
1/2-x,1/2+y,z
1/2+x,-y,z
loop_
_atom_site_type_symbol
_atom_site_label
_atom_site_fract_x
_atom_site_fract_y
_atom_site_fract_z
Si Si1 0.945067 0.564146 0.059818
Si Si2 0.698031 0.934934 0.776463
Si Si3 0.303084 0.563786 0.441715
Si Si4 0.147389 0.562154 0.669722
Si Si5 0.446963 0.061577 0.727060
Si Si6 0.608136 0.563867 0.163745
O O1 0.942470 0.750000 0.059381
O O2 0.912019 0.497463 0.107023
O O3 0.000000 0.518885 0.070574
O O4 0.932648 0.500000 0.000000
O O5 0.698701 0.750000 0.776820
O O6 0.750000 0.000000 0.787891
O O7 0.680760 0.994191 0.717003
O O8 0.658874 0.996703 0.818932
O O9 0.320146 0.500000 0.500000
O O10 0.301084 0.750000 0.444173
O O11 0.250000 0.500000 0.433499
O O12 0.334872 0.517101 0.390110
O O13 0.149800 0.750000 0.673740
O O14 0.093833 0.513847 0.684633
O O15 0.500000 0.003903 0.717173
O O16 0.448476 0.250000 0.725735
O O17 0.427757 0.018328 0.787111
O O18 0.610884 0.750000 0.163033
#
# Coordination Sequence:
#
# PCOD9501073 Si02
#       6
#    16  16  16  16  16  16
#     4  10  20  33  50  74 103 134 168 205 245 288
#     4  11  21  33  50  72  98 128 160 196 240 288
#     4  10  19  30  45  65  90 119 153 193 237 286
#     4   9  18  31  47  70  96 123 157 195 236 284
#     4   8  14  26  46  70  94 121 154 191 230 274
#     4  10  19  32  50  73 100 129 163 201 242 288
#
# _framework density 16.088439999999999
#
# number of rings (size 3 to 8) (size 9 to 14) (size 15 to 20)
#    0.000    2.333    0.000    5.500    0.000    4.333 
#    0.000    0.000    0.000    5.500    0.000    3.500 
#    0.000    0.000    0.000    0.000    0.000    0.667 
#
# Total GULP energy -267766.068050 kJ/mol
# GULP energy per Si atom -5578.459751 kJ/mol
# Density = 1.605182 g / cm^3
# Si number density = 16.088440 Si / 1000 Ang^3
#
#
#
# Elastic Constant Matrix: (Units=GPa)
#
#
# Indices 1 2 3 4 5 6 
#
# 1 135.3168 39.9833 95.0110 0.0000 0.0000 0.0000
# 2 39.9833 53.4941 45.7384 0.0000 0.0000 0.0000
# 3 95.0110 45.7384 155.7676 0.0000 0.0000 0.0000
# 4 0.0000 0.0000 0.0000 22.0026 0.0000 0.0000
# 5 0.0000 0.0000 0.0000 0.0000 21.5918 0.0000
# 6 0.0000 0.0000 0.0000 0.0000 0.0000 19.4298
#
#
#
# Elastic Compliance Matrix: (Units=1/GPa)
#
#
# Indices 1 2 3 4 5 6 
#
# 1 0.013565 -0.004092 -0.007073 0.000000 0.000000 0.000000
# 2 -0.004092 0.026194 -0.005196 0.000000 0.000000 0.000000
# 3 -0.007073 -0.005196 0.012259 0.000000 0.000000 0.000000
# 4 0.000000 0.000000 0.000000 0.045449 0.000000 0.000000
# 5 0.000000 0.000000 0.000000 0.000000 0.046314 0.000000
# 6 0.000000 0.000000 0.000000 0.000000 0.000000 0.051467
#
#
# Mechanical properties :
#
#
# Convention : Reuss Voigt Hill
#
# Bulk Modulus (GPa) = 51.81701 78.44930 65.13315
# Shear Modulus (GPa) = 21.33089 23.52792 22.42940
#
# Velocity S-wave (km/s) = 3.64517 3.82830 3.73786
# Velocity P-wave (km/s) = 7.07064 8.27093 7.69423
#
# Compressibility (1/GPa) = 0.01929868
#
# Stress axis : x y z
#
# Youngs Moduli (GPa) = 73.71917 38.17609 81.57030
#
# Poissons Ratio (x) = 0.15621 0.57691
# Poissons Ratio (y) = 0.30164 0.42382
# Poissons Ratio (z) = 0.52138 0.19835
#
# Static dielectric constant tensor:
#      x y z
#    x 1.532890 0.000000 0.000000 
#    y 0.000000 1.539640 0.000000 
#    z 0.000000 0.000000 1.520860 
# 
# From -- ./inp_files/42694.got.cif
#   From: 2010.05.17/outbox.cif.g08.bks.cpg/sg67_22_cif.got.tgz:42694.got - 2010.06.03 18:28:57.
