data_PCOD9501085
_publ_section_title
;
Structure prediction by ZEFSAII (Michael W. Deem and Ramdas Pophale) SiO2 
 PCOD9501085
Probable space group: C M M A
;
_chemical_formula_sum "Si O2"
_cell_formula_units_Z 88
_cell_length_a 14.563388
_cell_length_b 11.044824
_cell_length_c 27.775426
_cell_angle_alpha 90.000000
_cell_angle_beta 90.000000
_cell_angle_gamma 90.000000
_cell_volume 4467.678864
_symmetry_space_group_name_H-M "C M M A"
_symmetry_group_IT_number 67
_symmetry_cell_setting 'orthorhombic'
loop_
_space_group_symop_operation_xyz
x,y,z
-x,1/2-y,z
x,-y,-z
-x,1/2+y,-z
-x,-y,-z
x,1/2+y,-z
-x,y,z
x,1/2-y,z
1/2+x,1/2+y,z
1/2-x,-y,z
1/2+x,1/2-y,-z
1/2-x,y,-z
1/2-x,1/2-y,-z
1/2+x,y,-z
1/2-x,1/2+y,z
1/2+x,-y,z
loop_
_atom_site_type_symbol
_atom_site_label
_atom_site_fract_x
_atom_site_fract_y
_atom_site_fract_z
Si Si1 0.500000 0.613682 0.535539
Si Si2 0.608496 0.118396 0.766125
Si Si3 0.356128 0.121660 0.980361
Si Si4 0.888843 0.114838 0.707066
Si Si5 0.812019 0.382222 0.129870
Si Si6 0.815165 0.613362 0.401341
O O1 0.500000 0.750000 0.513160
O O2 0.500000 0.500000 0.500000
O O3 0.591025 0.606070 0.568281
O O4 0.500000 0.121333 0.757103
O O5 0.646478 0.250000 0.749528
O O6 0.624485 0.111572 0.823283
O O7 0.642294 0.997248 0.739974
O O8 0.395364 0.250000 0.996264
O O9 0.357705 0.116292 0.922605
O O10 0.250000 0.122483 0.000000
O O11 0.398381 0.000000 0.000000
O O12 0.869414 0.250000 0.726920
O O13 0.843079 0.105037 0.654775
O O14 0.000000 0.108123 0.701211
O O15 0.236533 0.250000 0.132488
O O16 0.750000 0.500000 0.131790
O O17 0.775860 0.750000 0.409397
O O18 0.750000 0.500000 0.413470
#
# Coordination Sequence:
#
# PCOD9501085 Si02
#       6
#     8  16  16  16  16  16
#     4  10  22  42  64  88 124 166 206 250 301 354
#     4   9  19  34  50  71 102 138 172 211 262 322
#     4   9  15  25  42  64  85 112 153 199 247 301
#     4   9  17  34  58  78 102 143 189 228 274 333
#     4  10  19  30  46  69  95 123 158 204 256 307
#     4  10  21  38  61  89 121 158 201 249 298 350
#
# _framework density 19.697029000000001
#
# number of rings (size 3 to 8) (size 9 to 14) (size 15 to 20)
#    0.000    2.545    2.727    0.000    0.000    3.273 
#    0.000    5.455    0.000    0.545    0.000    0.000 
#    0.000    0.000    0.000    0.000    0.000    0.000 
#
# Total GULP energy -245135.151410 kJ/mol
# GULP energy per Si atom -5571.253441 kJ/mol
# Density = 1.965220 g / cm^3
# Si number density = 19.697029 Si / 1000 Ang^3
#
#
#
# Elastic Constant Matrix: (Units=GPa)
#
#
# Indices 1 2 3 4 5 6 
#
# 1 65.0017 48.6443 2.9478 0.0000 0.0000 0.0000
# 2 48.6443 251.1946 66.3182 0.0000 0.0000 0.0000
# 3 2.9478 66.3182 73.0690 0.0000 0.0000 0.0000
# 4 0.0000 0.0000 0.0000 37.9494 0.0000 0.0000
# 5 0.0000 0.0000 0.0000 0.0000 12.7169 0.0000
# 6 0.0000 0.0000 0.0000 0.0000 0.0000 9.0069
#
#
#
# Elastic Compliance Matrix: (Units=1/GPa)
#
#
# Indices 1 2 3 4 5 6 
#
# 1 0.018581 -0.004472 0.003309 0.000000 0.000000 0.000000
# 2 -0.004472 0.006312 -0.005548 0.000000 0.000000 0.000000
# 3 0.003309 -0.005548 0.018588 0.000000 0.000000 0.000000
# 4 0.000000 0.000000 0.000000 0.026351 0.000000 0.000000
# 5 0.000000 0.000000 0.000000 0.000000 0.078635 0.000000
# 6 0.000000 0.000000 0.000000 0.000000 0.000000 0.111026
#
#
# Mechanical properties :
#
#
# Convention : Reuss Voigt Hill
#
# Bulk Modulus (GPa) = 33.26866 69.45399 51.36132
# Shear Modulus (GPa) = 17.67200 30.02498 23.84849
#
# Velocity S-wave (km/s) = 2.99856 3.90852 3.48338
# Velocity P-wave (km/s) = 5.37730 7.46367 6.50468
#
# Compressibility (1/GPa) = 0.03005832
#
# Stress axis : x y z
#
# Youngs Moduli (GPa) = 53.81940 158.43495 53.79875
#
# Poissons Ratio (x) = 0.70849 -0.17802
# Poissons Ratio (y) = 0.24067 0.29849
# Poissons Ratio (z) = -0.17809 0.87903
#
# Static dielectric constant tensor:
#      x y z
#    x 1.672080 0.000000 0.000000 
#    y 0.000000 1.748110 0.000000 
#    z 0.000000 0.000000 1.686780 
# 
# From -- ./inp_files/41404.got.cif
#   From: 2010.05.17/outbox.cif.g08.bks.cpg/sg67_21_cif.got.tgz:41404.got - 2010.06.03 18:28:57.
