data_PCOD9501608
_publ_section_title
;
Structure prediction by ZEFSAII (Michael W. Deem and Ramdas Pophale) SiO2 
 PCOD9501608
Probable space group: C M M A
;
_chemical_formula_sum "Si O2"
_cell_formula_units_Z 80
_cell_length_a 8.212834
_cell_length_b 14.227731
_cell_length_c 29.816831
_cell_angle_alpha 90.000000
_cell_angle_beta 90.000000
_cell_angle_gamma 90.000000
_cell_volume 3484.096491
_symmetry_space_group_name_H-M "C M M A"
_symmetry_group_IT_number 67
_symmetry_cell_setting 'orthorhombic'
loop_
_space_group_symop_operation_xyz
x,y,z
-x,1/2-y,z
x,-y,-z
-x,1/2+y,-z
-x,-y,-z
x,1/2+y,-z
-x,y,z
x,1/2-y,z
1/2+x,1/2+y,z
1/2-x,-y,z
1/2+x,1/2-y,-z
1/2-x,y,-z
1/2-x,1/2-y,-z
1/2+x,y,-z
1/2-x,1/2+y,z
1/2+x,-y,z
loop_
_atom_site_type_symbol
_atom_site_label
_atom_site_fract_x
_atom_site_fract_y
_atom_site_fract_z
Si Si1 0.687538 0.864438 0.950158
Si Si2 0.307633 0.107329 0.452579
Si Si3 0.176377 0.635279 0.263691
Si Si4 0.000000 0.634958 0.892114
Si Si5 0.500000 0.634908 0.211080
Si Si6 0.678741 0.140852 0.645626
O O1 0.500000 0.896241 0.942453
O O2 0.682216 0.750000 0.948075
O O3 0.832479 0.894539 0.916729
O O4 0.750000 0.888794 0.000000
O O5 0.500000 0.114786 0.451219
O O6 0.250000 0.149081 0.500000
O O7 0.238659 0.140826 0.405301
O O8 0.250000 0.000000 0.453820
O O9 0.172353 0.750000 0.261158
O O10 0.335709 0.605359 0.236561
O O11 0.202227 0.605811 0.315634
O O12 0.000000 0.602503 0.247204
O O13 0.000000 0.604982 0.840493
O O14 0.000000 0.750000 0.893342
O O15 0.500000 0.750000 0.211754
O O16 0.500000 0.095529 0.647647
O O17 0.660165 0.250000 0.657451
#
# Coordination Sequence:
#
# PCOD9501608 Si02
#       6
#    16  16  16   8   8  16
#     4   9  14  20  29  39  54  80 117 161 207 257
#     4  11  22  37  54  73 100 131 160 193 240 291
#     4   9  16  27  43  61  82 109 140 179 228 276
#     4   9  16  22  30  44  62  88 121 161 215 266
#     4   9  16  26  36  52  78 101 129 175 224 275
#     4  10  19  33  53  75  97 124 160 199 239 286
#
# _framework density 22.961476999999999
#
# number of rings (size 3 to 8) (size 9 to 14) (size 15 to 20)
#    0.000    2.400    2.000    3.000    0.000    2.400 
#    0.000    4.000    0.000    0.000    0.000    0.000 
#    0.000    0.000    0.000    0.000    0.000    0.000 
#
# Total GULP energy -223382.809571 kJ/mol
# GULP energy per Si atom -5584.570239 kJ/mol
# Density = 2.290922 g / cm^3
# Si number density = 22.961477 Si / 1000 Ang^3
#
#
#
# Elastic Constant Matrix: (Units=GPa)
#
#
# Indices 1 2 3 4 5 6 
#
# 1 257.1212 13.3412 112.1182 0.0000 0.0000 0.0000
# 2 13.3412 63.5877 -3.1090 0.0000 0.0000 0.0000
# 3 112.1182 -3.1090 174.3490 0.0000 0.0000 0.0000
# 4 0.0000 0.0000 0.0000 23.8627 0.0000 0.0000
# 5 0.0000 0.0000 0.0000 0.0000 18.9123 0.0000
# 6 0.0000 0.0000 0.0000 0.0000 0.0000 14.5311
#
#
#
# Elastic Compliance Matrix: (Units=1/GPa)
#
#
# Indices 1 2 3 4 5 6 
#
# 1 0.005515 -0.001332 -0.003570 0.000000 0.000000 0.000000
# 2 -0.001332 0.016062 0.001143 0.000000 0.000000 0.000000
# 3 -0.003570 0.001143 0.008052 0.000000 0.000000 0.000000
# 4 0.000000 0.000000 0.000000 0.041906 0.000000 0.000000
# 5 0.000000 0.000000 0.000000 0.000000 0.052876 0.000000
# 6 0.000000 0.000000 0.000000 0.000000 0.000000 0.068818
#
#
# Mechanical properties :
#
#
# Convention : Reuss Voigt Hill
#
# Bulk Modulus (GPa) = 45.22804 82.19540 63.71172
# Shear Modulus (GPa) = 24.02490 36.30840 30.16665
#
# Velocity S-wave (km/s) = 3.23819 3.98084 3.62856
# Velocity P-wave (km/s) = 5.80700 7.55011 6.73519
#
# Compressibility (1/GPa) = 0.02211018
#
# Stress axis : x y z
#
# Youngs Moduli (GPa) = 181.31753 62.26036 124.19278
#
# Poissons Ratio (x) = 0.08291 0.44342
# Poissons Ratio (y) = 0.24146 -0.14193
# Poissons Ratio (z) = 0.64737 -0.07115
#
# Static dielectric constant tensor:
#      x y z
#    x 1.826890 0.000000 0.000000 
#    y 0.000000 1.932640 0.000000 
#    z 0.000000 0.000000 1.836020 
# 
# From -- ./inp_files/43403.got.cif
#   From: 2010.05.17/outbox.cif.g08.bks.cpg/sg67_22_cif.got.tgz:43403.got - 2010.06.03 18:28:57.
