data_PCOD9501480
_publ_section_title
;
Structure prediction by ZEFSAII (Michael W. Deem and Ramdas Pophale) SiO2 
 PCOD9501480
Probable space group: C M M A
;
_chemical_formula_sum "Si O2"
_cell_formula_units_Z 96
_cell_length_a 8.938923
_cell_length_b 19.002440
_cell_length_c 32.679626
_cell_angle_alpha 90.000000
_cell_angle_beta 90.000000
_cell_angle_gamma 90.000000
_cell_volume 5551.005324
_symmetry_space_group_name_H-M "C M M A"
_symmetry_group_IT_number 67
_symmetry_cell_setting 'orthorhombic'
loop_
_space_group_symop_operation_xyz
x,y,z
-x,1/2-y,z
x,-y,-z
-x,1/2+y,-z
-x,-y,-z
x,1/2+y,-z
-x,y,z
x,1/2-y,z
1/2+x,1/2+y,z
1/2-x,-y,z
1/2+x,1/2-y,-z
1/2-x,y,-z
1/2-x,1/2-y,-z
1/2+x,y,-z
1/2-x,1/2+y,z
1/2+x,-y,z
loop_
_atom_site_type_symbol
_atom_site_label
_atom_site_fract_x
_atom_site_fract_y
_atom_site_fract_z
Si Si1 0.679593 0.577650 0.206270
Si Si2 0.819932 0.667881 0.626504
Si Si3 0.173018 0.664274 0.458093
Si Si4 0.319077 0.422245 0.704542
Si Si5 0.322835 0.666025 0.956616
Si Si6 0.819867 0.578243 0.883530
O O1 0.500000 0.571511 0.206218
O O2 0.750000 0.500000 0.206476
O O3 0.721544 0.609173 0.250534
O O4 0.719857 0.608537 0.161863
O O5 0.778706 0.750000 0.631449
O O6 0.752201 0.641395 0.583760
O O7 0.770579 0.624336 0.666113
O O8 0.000000 0.664431 0.623754
O O9 0.181555 0.750000 0.458341
O O10 0.250000 0.639863 0.500000
O O11 0.000000 0.644357 0.457792
O O12 0.500000 0.427496 0.703092
O O13 0.250000 0.500000 0.701666
O O14 0.500000 0.651830 0.957354
O O15 0.301011 0.750000 0.951732
O O16 0.245993 0.625216 0.919553
O O17 0.250000 0.645517 0.000000
O O18 0.750000 0.500000 0.886173
O O19 0.000000 0.573974 0.886717
#
# Coordination Sequence:
#
# PCOD9501480 Si02
#       6
#    16  16  16  16  16  16
#     4   8  15  28  46  69  95 124 158 194 232 275
#     4   9  17  29  45  66  93 122 152 189 231 273
#     4   9  16  26  42  64  89 117 150 187 228 275
#     4   9  17  30  48  69  93 124 160 193 229 275
#     4  10  21  37  55  74  99 131 165 200 241 291
#     4  10  19  32  52  77 103 129 162 204 246 286
#
# _framework density 17.294163000000001
#
# number of rings (size 3 to 8) (size 9 to 14) (size 15 to 20)
#    0.000    2.833    0.000    1.500    0.000    4.667 
#    0.000    2.500    0.000    3.500    0.000    5.833 
#    0.000    0.000    0.000    0.000    0.000    0.000 
#
# Total GULP energy -267277.211812 kJ/mol
# GULP energy per Si atom -5568.275246 kJ/mol
# Density = 1.725480 g / cm^3
# Si number density = 17.294163 Si / 1000 Ang^3
#
#
#
# Elastic Constant Matrix: (Units=GPa)
#
#
# Indices 1 2 3 4 5 6 
#
# 1 46.2758 26.6363 67.1177 0.0000 0.0000 0.0000
# 2 26.6363 28.7079 61.5421 0.0000 0.0000 0.0000
# 3 67.1177 61.5421 234.9661 0.0000 0.0000 0.0000
# 4 0.0000 0.0000 0.0000 31.6039 0.0000 0.0000
# 5 0.0000 0.0000 0.0000 0.0000 26.1547 0.0000
# 6 0.0000 0.0000 0.0000 0.0000 0.0000 18.0469
#
#
#
# Elastic Compliance Matrix: (Units=1/GPa)
#
#
# Indices 1 2 3 4 5 6 
#
# 1 0.048572 -0.034945 -0.004722 0.000000 0.000000 0.000000
# 2 -0.034945 0.104576 -0.017409 0.000000 0.000000 0.000000
# 3 -0.004722 -0.017409 0.010164 0.000000 0.000000 0.000000
# 4 0.000000 0.000000 0.000000 0.031642 0.000000 0.000000
# 5 0.000000 0.000000 0.000000 0.000000 0.038234 0.000000
# 6 0.000000 0.000000 0.000000 0.000000 0.000000 0.055411
#
#
# Mechanical properties :
#
#
# Convention : Reuss Voigt Hill
#
# Bulk Modulus (GPa) = 20.34079 68.94910 44.64495
# Shear Modulus (GPa) = 11.92925 25.47136 18.70031
#
# Velocity S-wave (km/s) = 2.62922 3.84191 3.29189
# Velocity P-wave (km/s) = 4.58304 7.72239 6.34979
#
# Compressibility (1/GPa) = 0.04916230
#
# Stress axis : x y z
#
# Youngs Moduli (GPa) = 20.58781 9.56241 98.38295
#
# Poissons Ratio (x) = 0.33416 0.46456
# Poissons Ratio (y) = 0.71944 1.71270
# Poissons Ratio (z) = 0.09721 0.16647
#
# Static dielectric constant tensor:
#      x y z
#    x 1.582860 0.000000 0.000000 
#    y 0.000000 1.542050 0.000000 
#    z 0.000000 0.000000 1.622300 
# 
# From -- ./inp_files/43654.got.cif
#   From: 2010.05.17/outbox.cif.g08.bks.cpg/sg67_22_cif.got.tgz:43654.got - 2010.06.03 18:28:57.
