data_PCOD9501057
_publ_section_title
;
Structure prediction by ZEFSAII (Michael W. Deem and Ramdas Pophale) SiO2 
 PCOD9501057
Probable space group: C M M A
;
_chemical_formula_sum "Si O2"
_cell_formula_units_Z 128
_cell_length_a 17.262868
_cell_length_b 23.818929
_cell_length_c 17.666290
_cell_angle_alpha 90.000000
_cell_angle_beta 90.000000
_cell_angle_gamma 90.000000
_cell_volume 7264.078602
_symmetry_space_group_name_H-M "C M M A"
_symmetry_group_IT_number 67
_symmetry_cell_setting 'orthorhombic'
loop_
_space_group_symop_operation_xyz
x,y,z
-x,1/2-y,z
x,-y,-z
-x,1/2+y,-z
-x,-y,-z
x,1/2+y,-z
-x,y,z
x,1/2-y,z
1/2+x,1/2+y,z
1/2-x,-y,z
1/2+x,1/2-y,-z
1/2-x,y,-z
1/2-x,1/2-y,-z
1/2+x,y,-z
1/2-x,1/2+y,z
1/2+x,-y,z
loop_
_atom_site_type_symbol
_atom_site_label
_atom_site_fract_x
_atom_site_fract_y
_atom_site_fract_z
Si Si1 0.908827 0.563988 0.531672
Si Si2 0.129405 0.885367 0.119439
Si Si3 0.589638 0.687814 0.741701
Si Si4 0.774303 0.186369 0.088581
Si Si5 0.405927 0.026003 0.689661
Si Si6 0.405243 0.902221 0.625578
Si Si7 0.910231 0.388312 0.056715
Si Si8 0.158787 0.488305 0.149733
O O1 0.904849 0.500000 0.500000
O O2 0.878875 0.563088 0.617522
O O3 0.876518 0.599202 0.461228
O O4 0.000000 0.577427 0.538652
O O5 0.089500 0.844178 0.178621
O O6 0.217167 0.861054 0.121415
O O7 0.121409 0.949826 0.143794
O O8 0.099248 0.882117 0.033763
O O9 0.500000 0.693591 0.719754
O O10 0.623810 0.750000 0.747199
O O11 0.625253 0.647303 0.678420
O O12 0.765853 0.250000 0.118244
O O13 0.860748 0.162348 0.092518
O O14 0.750000 0.188762 0.000000
O O15 0.500000 0.030413 0.697494
O O16 0.387769 0.961878 0.664806
O O17 0.364981 0.037193 0.769094
O O18 0.500000 0.900867 0.622507
O O19 0.871717 0.446363 0.085166
O O20 0.000000 0.387742 0.077331
O O21 0.250000 0.500000 0.142861
#
# Coordination Sequence:
#
# PCOD9501057 Si02
#       8
#    16  16  16  16  16  16  16  16
#     4   7  11  21  41  68  93 124 163 197 241 306
#     4  11  21  36  54  70 104 146 183 222 274 332
#     4  10  19  29  46  78 113 141 178 226 269 318
#     4   9  19  37  57  74  95 130 177 226 275 328
#     4   9  16  28  48  72  99 131 170 213 255 311
#     4   8  13  24  43  68 100 135 167 202 254 310
#     4  11  24  37  54  79 103 137 185 231 280 337
#     4  12  23  35  52  74 106 141 177 222 275 329
#
# _framework density 17.620954999999999
#
# number of rings (size 3 to 8) (size 9 to 14) (size 15 to 20)
#    0.000    2.375    2.500    3.000    0.000    3.250 
#    0.000    0.000    0.000    3.375    0.000    0.875 
#    0.000    4.000    0.000    0.000    0.000    0.000 
#
# Total GULP energy -356317.863585 kJ/mol
# GULP energy per Si atom -5567.466619 kJ/mol
# Density = 1.758085 g / cm^3
# Si number density = 17.620955 Si / 1000 Ang^3
#
#
#
# Elastic Constant Matrix: (Units=GPa)
#
#
# Indices 1 2 3 4 5 6 
#
# 1 62.1981 8.9290 11.9660 0.0000 0.0000 0.0000
# 2 8.9290 83.7222 44.9059 0.0000 0.0000 0.0000
# 3 11.9660 44.9059 90.3600 0.0000 0.0000 0.0000
# 4 0.0000 0.0000 0.0000 5.9426 0.0000 0.0000
# 5 0.0000 0.0000 0.0000 0.0000 5.7475 0.0000
# 6 0.0000 0.0000 0.0000 0.0000 0.0000 12.4566
#
#
#
# Elastic Compliance Matrix: (Units=1/GPa)
#
#
# Indices 1 2 3 4 5 6 
#
# 1 0.016537 -0.000803 -0.001791 0.000000 0.000000 0.000000
# 2 -0.000803 0.016324 -0.008006 0.000000 0.000000 0.000000
# 3 -0.001791 -0.008006 0.015283 0.000000 0.000000 0.000000
# 4 0.000000 0.000000 0.000000 0.168277 0.000000 0.000000
# 5 0.000000 0.000000 0.000000 0.000000 0.173987 0.000000
# 6 0.000000 0.000000 0.000000 0.000000 0.000000 0.080279
#
#
# Mechanical properties :
#
#
# Convention : Reuss Voigt Hill
#
# Bulk Modulus (GPa) = 37.11395 40.87578 38.99487
# Shear Modulus (GPa) = 9.98263 16.19463 13.08863
#
# Velocity S-wave (km/s) = 2.38275 3.03488 2.72837
# Velocity P-wave (km/s) = 5.35520 5.96056 5.66597
#
# Compressibility (1/GPa) = 0.02694405
#
# Stress axis : x y z
#
# Youngs Moduli (GPa) = 60.46866 61.25872 65.43299
#
# Poissons Ratio (x) = 0.04920 0.11718
# Poissons Ratio (y) = 0.04857 0.52387
# Poissons Ratio (z) = 0.10829 0.49045
#
# Static dielectric constant tensor:
#      x y z
#    x 1.646990 0.000000 0.000000 
#    y 0.000000 1.613300 0.000000 
#    z 0.000000 0.000000 1.633380 
# 
# From -- ./inp_files/35279.got.cif
#   From: 2010.05.17/outbox.cif.g08.bks.cpg/sg67_18_cif.got.tgz:35279.got - 2010.06.03 18:28:57.
