data_PCOD9501940
_publ_section_title
;
Structure prediction by ZEFSAII (Michael W. Deem and Ramdas Pophale) SiO2 
 PCOD9501940
Probable space group: C M M A
;
_chemical_formula_sum "Si O2"
_cell_formula_units_Z 88
_cell_length_a 22.966245
_cell_length_b 27.287255
_cell_length_c 6.930259
_cell_angle_alpha 90.000000
_cell_angle_beta 90.000000
_cell_angle_gamma 90.000000
_cell_volume 4343.094793
_symmetry_space_group_name_H-M "C M M A"
_symmetry_group_IT_number 67
_symmetry_cell_setting 'orthorhombic'
loop_
_space_group_symop_operation_xyz
x,y,z
-x,1/2-y,z
x,-y,-z
-x,1/2+y,-z
-x,-y,-z
x,1/2+y,-z
-x,y,z
x,1/2-y,z
1/2+x,1/2+y,z
1/2-x,-y,z
1/2+x,1/2-y,-z
1/2-x,y,-z
1/2-x,1/2-y,-z
1/2+x,y,-z
1/2-x,1/2+y,z
1/2+x,-y,z
loop_
_atom_site_type_symbol
_atom_site_label
_atom_site_fract_x
_atom_site_fract_y
_atom_site_fract_z
Si Si1 0.117750 0.366221 0.302223
Si Si2 0.000000 0.953499 0.141354
Si Si3 0.866774 0.191934 0.638930
Si Si4 0.000000 0.305207 0.708102
Si Si5 0.814589 0.611872 0.083445
Si Si6 0.000000 0.649124 0.900181
Si Si7 0.619314 0.451296 0.382995
O O1 0.150534 0.323784 0.421993
O O2 0.113396 0.410126 0.453582
O O3 0.055632 0.347556 0.233276
O O4 0.146614 0.385347 0.107625
O O5 0.057701 0.956066 0.272707
O O6 0.000000 0.902738 0.018491
O O7 0.000000 0.000000 0.000000
O O8 0.863457 0.250000 0.671436
O O9 0.935405 0.175300 0.656454
O O10 0.829615 0.160525 0.791093
O O11 0.000000 0.250000 0.633215
O O12 0.000000 0.309263 0.938979
O O13 0.834273 0.567626 0.224248
O O14 0.750000 0.608896 0.000000
O O15 0.635044 0.500000 0.500000
#
# Coordination Sequence:
#
# PCOD9501940 Si02
#       7
#    16   8  16   8  16   8  16
#     4  11  22  39  65  92 127 168 211 257 331 386
#     4  12  22  38  68  97 130 159 201 260 330 409
#     4  10  22  40  63  96 133 169 217 270 322 385
#     4  10  19  35  59  95 133 165 207 260 321 392
#     4  11  25  45  66  89 127 173 224 270 316 377
#     4  12  18  35  64  93 126 171 197 254 333 390
#     4  11  24  42  65  96 128 162 208 267 330 394
#
# _framework density 20.262049999999999
#
# number of rings (size 3 to 8) (size 9 to 14) (size 15 to 20)
#    0.000    1.091    3.636    3.545    0.000    4.727 
#    0.000    3.636    0.000    0.000    0.000    0.000 
#    0.000    0.000    0.000    0.000    0.000    0.000 
#
# Total GULP energy -245653.850852 kJ/mol
# GULP energy per Si atom -5583.042065 kJ/mol
# Density = 2.021593 g / cm^3
# Si number density = 20.262050 Si / 1000 Ang^3
#
#
#
# Elastic Constant Matrix: (Units=GPa)
#
#
# Indices 1 2 3 4 5 6 
#
# 1 69.0287 34.6654 39.6831 0.0000 0.0000 0.0000
# 2 34.6654 115.0051 53.4959 0.0000 0.0000 0.0000
# 3 39.6831 53.4959 155.1561 0.0000 0.0000 0.0000
# 4 0.0000 0.0000 0.0000 14.0115 0.0000 0.0000
# 5 0.0000 0.0000 0.0000 0.0000 -57.8918 0.0000
# 6 0.0000 0.0000 0.0000 0.0000 0.0000 7.4055
#
#
#
# Elastic Compliance Matrix: (Units=1/GPa)
#
#
# Indices 1 2 3 4 5 6 
#
# 1 0.018410 -0.004001 -0.003329 0.000000 0.000000 0.000000
# 2 -0.004001 0.011226 -0.002847 0.000000 0.000000 0.000000
# 3 -0.003329 -0.002847 0.008278 0.000000 0.000000 0.000000
# 4 0.000000 0.000000 0.000000 0.071370 0.000000 0.000000
# 5 0.000000 0.000000 0.000000 0.000000 -0.017274 0.000000
# 6 0.000000 0.000000 0.000000 0.000000 0.000000 0.135035
#
#
# Mechanical properties :
#
#
# Convention : Reuss Voigt Hill
#
# Bulk Modulus (GPa) = 56.94891 66.09764 61.52327
# Shear Modulus (GPa) = 19.74317 6.79474 13.26895
#
# Velocity S-wave (km/s) = 3.12491 1.83322 2.56181
# Velocity P-wave (km/s) = 6.41773 6.09698 6.25941
#
# Compressibility (1/GPa) = 0.01755960
#
# Stress axis : x y z
#
# Youngs Moduli (GPa) = 54.31954 89.08250 120.79792
#
# Poissons Ratio (x) = 0.35638 0.40215
# Poissons Ratio (y) = 0.21731 0.34394
# Poissons Ratio (z) = 0.18084 0.25364
#
# Static dielectric constant tensor:
#      x y z
#    x 1.716370 0.000000 0.000000 
#    y 0.000000 1.771060 0.000000 
#    z 0.000000 0.000000 1.711960 
# 
# From -- ./inp_files/3647.got.cif
#   From: 2010.05.17/outbox.cif.g08.bks.cpg/sg67_2_cif.got.tgz:3647.got - 2010.06.03 18:28:57.
