data_PCOD9501106
_publ_section_title
;
Structure prediction by ZEFSAII (Michael W. Deem and Ramdas Pophale) SiO2 
 PCOD9501106
Probable space group: C M M A
;
_chemical_formula_sum "Si O2"
_cell_formula_units_Z 104
_cell_length_a 8.754472
_cell_length_b 25.244681
_cell_length_c 26.867981
_cell_angle_alpha 90.000000
_cell_angle_beta 90.000000
_cell_angle_gamma 90.000000
_cell_volume 5937.927322
_symmetry_space_group_name_H-M "C M M A"
_symmetry_group_IT_number 67
_symmetry_cell_setting 'orthorhombic'
loop_
_space_group_symop_operation_xyz
x,y,z
-x,1/2-y,z
x,-y,-z
-x,1/2+y,-z
-x,-y,-z
x,1/2+y,-z
-x,y,z
x,1/2-y,z
1/2+x,1/2+y,z
1/2-x,-y,z
1/2+x,1/2-y,-z
1/2-x,y,-z
1/2-x,1/2-y,-z
1/2+x,y,-z
1/2-x,1/2+y,z
1/2+x,-y,z
loop_
_atom_site_type_symbol
_atom_site_label
_atom_site_fract_x
_atom_site_fract_y
_atom_site_fract_z
Si Si1 0.816029 0.168856 0.131922
Si Si2 0.816395 0.864444 0.365033
Si Si3 0.318569 0.250000 0.054952
Si Si4 0.184356 0.750000 0.328612
Si Si5 0.817187 0.555486 0.832980
Si Si6 0.817466 0.056514 0.444751
Si Si7 0.683119 0.750000 0.217850
Si Si8 0.817877 0.055215 0.722862
O O1 0.739461 0.199725 0.086736
O O2 0.773974 0.107504 0.136177
O O3 0.775399 0.199509 0.183307
O O4 0.000000 0.173423 0.127006
O O5 0.767699 0.803859 0.356397
O O6 0.735316 0.896180 0.409073
O O7 0.784841 0.897050 0.314438
O O8 0.000000 0.865821 0.373233
O O9 0.500000 0.250000 0.052503
O O10 0.250000 0.250000 0.000000
O O11 0.241872 0.750000 0.271768
O O12 0.000000 0.750000 0.326994
O O13 0.750000 0.500000 0.851633
O O14 0.755502 0.563216 0.776921
O O15 0.000000 0.552059 0.831113
O O16 0.750000 0.064536 0.500000
O O17 0.000000 0.052861 0.446836
O O18 0.750000 0.000000 0.426722
O O19 0.500000 0.750000 0.224190
O O20 0.000000 0.049953 0.728145
O O21 0.750000 0.000000 0.702819
#
# Coordination Sequence:
#
# PCOD9501106 Si02
#       8
#    16  16   8   8  16  16   8  16
#     4   9  19  35  53  76 107 142 177 216 262 308
#     4  10  21  36  52  74 104 138 174 212 255 302
#     4  11  22  36  58  83 106 133 168 217 267 312
#     4  10  21  35  51  73 107 145 178 214 252 296
#     4  10  19  31  49  73 106 144 179 215 254 302
#     4  11  22  38  61  84 104 126 157 203 256 310
#     4   9  17  31  51  74 103 138 180 223 258 300
#     4  10  19  30  47  72 104 138 175 217 258 303
#
# _framework density 17.514529
#
# number of rings (size 3 to 8) (size 9 to 14) (size 15 to 20)
#    0.000    2.000    0.000    6.231    0.000    5.538 
#    0.000    0.385    0.000    0.462    0.000    3.231 
#    0.000    0.000    0.000    0.000    0.000    0.000 
#
# Total GULP energy -290361.767387 kJ/mol
# GULP energy per Si atom -5583.880142 kJ/mol
# Density = 1.747466 g / cm^3
# Si number density = 17.514529 Si / 1000 Ang^3
#
#
#
# Elastic Constant Matrix: (Units=GPa)
#
#
# Indices 1 2 3 4 5 6 
#
# 1 69.5476 67.4083 46.1393 0.0000 0.0000 0.0000
# 2 67.4083 188.1478 80.8175 0.0000 0.0000 0.0000
# 3 46.1393 80.8175 99.7355 0.0000 0.0000 0.0000
# 4 0.0000 0.0000 0.0000 11.7252 0.0000 0.0000
# 5 0.0000 0.0000 0.0000 0.0000 29.3591 0.0000
# 6 0.0000 0.0000 0.0000 0.0000 0.0000 22.8398
#
#
#
# Elastic Compliance Matrix: (Units=1/GPa)
#
#
# Indices 1 2 3 4 5 6 
#
# 1 0.024477 -0.005991 -0.006469 0.000000 0.000000 0.000000
# 2 -0.005991 0.009619 -0.005023 0.000000 0.000000 0.000000
# 3 -0.006469 -0.005023 0.017089 0.000000 0.000000 0.000000
# 4 0.000000 0.000000 0.000000 0.085286 0.000000 0.000000
# 5 0.000000 0.000000 0.000000 0.000000 0.034061 0.000000
# 6 0.000000 0.000000 0.000000 0.000000 0.000000 0.043783
#
#
# Mechanical properties :
#
#
# Convention : Reuss Voigt Hill
#
# Bulk Modulus (GPa) = 61.65334 82.90679 72.28006
# Shear Modulus (GPa) = 19.63195 23.65588 21.64392
#
# Velocity S-wave (km/s) = 3.35161 3.67910 3.51916
# Velocity P-wave (km/s) = 7.08910 8.09237 7.60729
#
# Compressibility (1/GPa) = 0.01621972
#
# Stress axis : x y z
#
# Youngs Moduli (GPa) = 40.85526 103.96286 58.51594
#
# Poissons Ratio (x) = 0.62280 0.37854
# Poissons Ratio (y) = 0.24475 0.29392
# Poissons Ratio (z) = 0.26429 0.52220
#
# Static dielectric constant tensor:
#      x y z
#    x 1.587640 0.000000 0.000000 
#    y 0.000000 1.601370 0.000000 
#    z 0.000000 0.000000 1.562320 
# 
# From -- ./inp_files/41058.got.cif
#   From: 2010.05.17/outbox.cif.g08.bks.cpg/sg67_21_cif.got.tgz:41058.got - 2010.06.03 18:28:57.
