data_PCOD9501617
_publ_section_title
;
Structure prediction by ZEFSAII (Michael W. Deem and Ramdas Pophale) SiO2 
 PCOD9501617
Probable space group: C M M A
;
_chemical_formula_sum "Si O2"
_cell_formula_units_Z 104
_cell_length_a 27.898503
_cell_length_b 8.385039
_cell_length_c 24.775507
_cell_angle_alpha 90.000000
_cell_angle_beta 90.000000
_cell_angle_gamma 90.000000
_cell_volume 5795.735237
_symmetry_space_group_name_H-M "C M M A"
_symmetry_group_IT_number 67
_symmetry_cell_setting 'orthorhombic'
loop_
_space_group_symop_operation_xyz
x,y,z
-x,1/2-y,z
x,-y,-z
-x,1/2+y,-z
-x,-y,-z
x,1/2+y,-z
-x,y,z
x,1/2-y,z
1/2+x,1/2+y,z
1/2-x,-y,z
1/2+x,1/2-y,-z
1/2-x,y,-z
1/2-x,1/2-y,-z
1/2+x,y,-z
1/2-x,1/2+y,z
1/2+x,-y,z
loop_
_atom_site_type_symbol
_atom_site_label
_atom_site_fract_x
_atom_site_fract_y
_atom_site_fract_z
Si Si1 0.054095 0.942041 0.725744
Si Si2 0.647726 0.060902 0.332596
Si Si3 0.105940 0.056418 0.561298
Si Si4 0.697713 0.059185 0.226900
Si Si5 0.605162 0.939503 0.164834
Si Si6 0.945083 0.059699 0.941198
Si Si7 0.000000 0.942031 0.438317
O O1 0.058584 0.750000 0.718122
O O2 0.066006 0.976277 0.788523
O O3 0.000000 0.989926 0.711821
O O4 0.095251 0.030257 0.692715
O O5 0.656219 0.250000 0.336146
O O6 0.643983 0.999323 0.393905
O O7 0.683814 0.995674 0.287187
O O8 0.105925 0.250000 0.560633
O O9 0.052415 0.002981 0.580914
O O10 0.113594 0.000000 0.500000
O O11 0.697568 0.250000 0.228756
O O12 0.750000 0.000000 0.211166
O O13 0.655490 0.005718 0.186904
O O14 0.609125 0.750000 0.161504
O O15 0.587921 0.004770 0.107809
O O16 0.946197 0.250000 0.942026
O O17 0.000000 0.000341 0.932875
O O18 0.929154 0.000000 0.000000
O O19 0.000000 0.750000 0.435062
O O20 0.000000 0.000000 0.500000
#
# Coordination Sequence:
#
# PCOD9501617 Si02
#       7
#    16  16  16  16  16  16   8
#     4   9  18  30  44  67  99 132 164 200 244 294
#     4   9  19  32  48  70  95 123 160 203 248 300
#     4   9  17  29  44  64  90 123 159 198 240 289
#     4  10  20  36  56  78 100 126 163 210 263 316
#     4  10  19  33  53  76 104 137 173 214 259 305
#     4  10  20  33  51  78 113 152 190 222 252 290
#     4   8  14  24  38  56  82 116 154 186 221 268
#
# _framework density 17.944227999999999
#
# number of rings (size 3 to 8) (size 9 to 14) (size 15 to 20)
#    0.000    2.615    0.000    1.846    1.077    3.692 
#    0.000    0.000    0.000    0.923    0.000    6.462 
#    0.000    0.000    0.000    0.000    0.000    0.000 
#
# Total GULP energy -289781.921884 kJ/mol
# GULP energy per Si atom -5572.729267 kJ/mol
# Density = 1.790339 g / cm^3
# Si number density = 17.944228 Si / 1000 Ang^3
#
#
#
# Elastic Constant Matrix: (Units=GPa)
#
#
# Indices 1 2 3 4 5 6 
#
# 1 54.5007 3.2393 23.3841 0.0000 0.0000 0.0000
# 2 3.2393 15.5356 13.7374 0.0000 0.0000 0.0000
# 3 23.3841 13.7374 113.9258 0.0000 0.0000 0.0000
# 4 0.0000 0.0000 0.0000 21.1039 0.0000 0.0000
# 5 0.0000 0.0000 0.0000 0.0000 17.4665 0.0000
# 6 0.0000 0.0000 0.0000 0.0000 0.0000 19.9105
#
#
#
# Elastic Compliance Matrix: (Units=1/GPa)
#
#
# Indices 1 2 3 4 5 6 
#
# 1 0.020125 -0.000608 -0.004058 0.000000 0.000000 0.000000
# 2 -0.000608 0.072069 -0.008565 0.000000 0.000000 0.000000
# 3 -0.004058 -0.008565 0.010643 0.000000 0.000000 0.000000
# 4 0.000000 0.000000 0.000000 0.047385 0.000000 0.000000
# 5 0.000000 0.000000 0.000000 0.000000 0.057252 0.000000
# 6 0.000000 0.000000 0.000000 0.000000 0.000000 0.050225
#
#
# Mechanical properties :
#
#
# Convention : Reuss Voigt Hill
#
# Bulk Modulus (GPa) = 13.09328 29.40929 21.25129
# Shear Modulus (GPa) = 16.14881 21.26960 18.70920
#
# Velocity S-wave (km/s) = 3.00316 3.44658 3.23248
# Velocity P-wave (km/s) = 4.39748 5.68009 5.07943
#
# Compressibility (1/GPa) = 0.07637503
#
# Stress axis : x y z
#
# Youngs Moduli (GPa) = 49.68832 13.87562 93.95581
#
# Poissons Ratio (x) = 0.00844 0.38123
# Poissons Ratio (y) = 0.03023 0.80476
# Poissons Ratio (z) = 0.20161 0.11885
#
# Static dielectric constant tensor:
#      x y z
#    x 1.625610 0.000000 0.000000 
#    y 0.000000 1.612880 0.000000 
#    z 0.000000 0.000000 1.633230 
# 
# From -- ./inp_files/42934.got.cif
#   From: 2010.05.17/outbox.cif.g08.bks.cpg/sg67_22_cif.got.tgz:42934.got - 2010.06.03 18:28:57.
