data_PCOD9501481
_publ_section_title
;
Structure prediction by ZEFSAII (Michael W. Deem and Ramdas Pophale) SiO2 
 PCOD9501481
Probable space group: C M M A
;
_chemical_formula_sum "Si O2"
_cell_formula_units_Z 80
_cell_length_a 8.392925
_cell_length_b 19.536627
_cell_length_c 27.226867
_cell_angle_alpha 90.000000
_cell_angle_beta 90.000000
_cell_angle_gamma 90.000000
_cell_volume 4464.374276
_symmetry_space_group_name_H-M "C M M A"
_symmetry_group_IT_number 67
_symmetry_cell_setting 'orthorhombic'
loop_
_space_group_symop_operation_xyz
x,y,z
-x,1/2-y,z
x,-y,-z
-x,1/2+y,-z
-x,-y,-z
x,1/2+y,-z
-x,y,z
x,1/2-y,z
1/2+x,1/2+y,z
1/2-x,-y,z
1/2+x,1/2-y,-z
1/2-x,y,-z
1/2-x,1/2-y,-z
1/2+x,y,-z
1/2-x,1/2+y,z
1/2+x,-y,z
loop_
_atom_site_type_symbol
_atom_site_label
_atom_site_fract_x
_atom_site_fract_y
_atom_site_fract_z
Si Si1 0.806967 0.421738 0.856301
Si Si2 0.809577 0.828652 0.553353
Si Si3 0.691126 0.421741 0.358122
Si Si4 0.692449 0.829013 0.946597
Si Si5 0.192138 0.078450 0.749117
O O1 0.750000 0.500000 0.861083
O O2 0.751016 0.375812 0.901674
O O3 0.755764 0.393818 0.802363
O O4 0.000000 0.422017 0.856980
O O5 0.752610 0.750000 0.559763
O O6 0.750000 0.852701 0.500000
O O7 0.751738 0.875828 0.597495
O O8 0.000000 0.828364 0.552806
O O9 0.500000 0.422422 0.358952
O O10 0.750000 0.500000 0.362909
O O11 0.744627 0.394079 0.304126
O O12 0.500000 0.829587 0.946462
O O13 0.744779 0.750000 0.940540
O O14 0.750000 0.853132 0.000000
O O15 0.000000 0.079995 0.749028
O O16 0.250000 0.000000 0.749282
#
# Coordination Sequence:
#
# PCOD9501481 Si02
#       5
#    16  16  16  16  16
#     4   9  17  30  48  70  94 121 155 193 234 278
#     4  10  21  37  55  74  99 131 165 202 245 291
#     4  10  19  32  52  77 103 130 163 201 241 287
#     4   9  18  32  48  65  89 122 157 193 234 280
#     4   8  15  28  46  69  96 125 155 189 232 280
#
# _framework density 17.919644000000002
#
# number of rings (size 3 to 8) (size 9 to 14) (size 15 to 20)
#    0.000    2.800    0.000    1.200    0.000    3.600 
#    0.000    5.000    0.000    3.600    0.000    2.800 
#    0.000    0.000    0.000    0.000    0.000    0.000 
#
# Total GULP energy -222775.709350 kJ/mol
# GULP energy per Si atom -5569.392734 kJ/mol
# Density = 1.787886 g / cm^3
# Si number density = 17.919644 Si / 1000 Ang^3
#
#
#
# Elastic Constant Matrix: (Units=GPa)
#
#
# Indices 1 2 3 4 5 6 
#
# 1 18.1642 11.5660 28.5739 0.0000 0.0000 0.0000
# 2 11.5660 52.3950 86.5218 0.0000 0.0000 0.0000
# 3 28.5739 86.5218 240.7989 0.0000 0.0000 0.0000
# 4 0.0000 0.0000 0.0000 -33.8863 0.0000 0.0000
# 5 0.0000 0.0000 0.0000 0.0000 21.2939 0.0000
# 6 0.0000 0.0000 0.0000 0.0000 0.0000 19.6218
#
#
#
# Elastic Compliance Matrix: (Units=1/GPa)
#
#
# Indices 1 2 3 4 5 6 
#
# 1 0.068054 -0.004149 -0.006585 0.000000 0.000000 0.000000
# 2 -0.004149 0.047187 -0.016462 0.000000 0.000000 0.000000
# 3 -0.006585 -0.016462 0.010849 0.000000 0.000000 0.000000
# 4 0.000000 0.000000 0.000000 -0.029510 0.000000 0.000000
# 5 0.000000 0.000000 0.000000 0.000000 0.046962 0.000000
# 6 0.000000 0.000000 0.000000 0.000000 0.000000 0.050964
#
#
# Mechanical properties :
#
#
# Convention : Reuss Voigt Hill
#
# Bulk Modulus (GPa) = 13.94754 62.74240 38.34497
# Shear Modulus (GPa) = 18.32875 13.71897 16.02386
#
# Velocity S-wave (km/s) = 3.20164 2.76992 2.99357
# Velocity P-wave (km/s) = 4.63332 6.73195 5.77870
#
# Compressibility (1/GPa) = 0.07169722
#
# Stress axis : x y z
#
# Youngs Moduli (GPa) = 14.69432 21.19250 92.17191
#
# Poissons Ratio (x) = 0.08793 0.60692
# Poissons Ratio (y) = 0.06097 1.51736
# Poissons Ratio (z) = 0.09676 0.34888
#
# Static dielectric constant tensor:
#      x y z
#    x 1.629270 0.000000 0.000000 
#    y 0.000000 1.577060 0.000000 
#    z 0.000000 0.000000 1.655470 
# 
# From -- ./inp_files/43200.got.cif
#   From: 2010.05.17/outbox.cif.g08.bks.cpg/sg67_22_cif.got.tgz:43200.got - 2010.06.03 18:28:57.
