data_PCOD9501651
_publ_section_title
;
Structure prediction by ZEFSAII (Michael W. Deem and Ramdas Pophale) SiO2 
 PCOD9501651
Probable space group: C M M A
;
_chemical_formula_sum "Si O2"
_cell_formula_units_Z 120
_cell_length_a 10.898224
_cell_length_b 25.659533
_cell_length_c 21.750711
_cell_angle_alpha 90.000000
_cell_angle_beta 90.000000
_cell_angle_gamma 90.000000
_cell_volume 6082.441436
_symmetry_space_group_name_H-M "C M M A"
_symmetry_group_IT_number 67
_symmetry_cell_setting 'orthorhombic'
loop_
_space_group_symop_operation_xyz
x,y,z
-x,1/2-y,z
x,-y,-z
-x,1/2+y,-z
-x,-y,-z
x,1/2+y,-z
-x,y,z
x,1/2-y,z
1/2+x,1/2+y,z
1/2-x,-y,z
1/2+x,1/2-y,-z
1/2-x,y,-z
1/2-x,1/2-y,-z
1/2+x,y,-z
1/2-x,1/2+y,z
1/2+x,-y,z
loop_
_atom_site_type_symbol
_atom_site_label
_atom_site_fract_x
_atom_site_fract_y
_atom_site_fract_z
Si Si1 0.863379 0.535306 0.751997
Si Si2 0.361088 0.189110 0.345772
Si Si3 0.130121 0.559036 0.526455
Si Si4 0.630653 0.750000 0.040333
Si Si5 0.137084 0.147933 0.123776
Si Si6 0.862202 0.811211 0.197287
Si Si7 0.637562 0.964314 0.099022
Si Si8 0.137556 0.114166 0.351710
O O1 0.750000 0.500000 0.731963
O O2 0.858113 0.538477 0.825904
O O3 0.850693 0.589401 0.715802
O O4 0.000000 0.514540 0.736404
O O5 0.500000 0.173112 0.364636
O O6 0.344435 0.250000 0.362656
O O7 0.358622 0.186606 0.271187
O O8 0.248404 0.153022 0.366228
O O9 0.128682 0.500000 0.500000
O O10 0.250000 0.585598 0.500000
O O11 0.139739 0.566051 0.599662
O O12 0.000000 0.582811 0.507755
O O13 0.500000 0.750000 0.005474
O O14 0.633668 0.699103 0.082480
O O15 0.750000 0.750000 0.000000
O O16 0.252617 0.155680 0.168341
O O17 0.152602 0.096263 0.082680
O O18 0.000000 0.143548 0.153470
O O19 0.846687 0.750000 0.180418
O O20 0.000000 0.827741 0.177847
O O21 0.500000 0.982430 0.081897
O O22 0.750000 0.000000 0.078314
O O23 0.000000 0.137631 0.356734
#
# Coordination Sequence:
#
# PCOD9501651 Si02
#       8
#    16  16  16   8  16  16  16  16
#     4   9  18  30  45  70 104 138 172 209 250 304
#     4   9  19  34  50  73 106 140 173 209 250 305
#     4   9  19  34  51  72  97 124 160 208 258 311
#     4  10  22  38  56  82 112 140 180 230 283 332
#     4  10  19  33  54  78 105 142 184 226 271 321
#     4   9  17  29  47  75 109 141 176 215 257 312
#     4   9  18  32  49  72 105 140 177 218 258 309
#     4  10  20  33  50  74 102 133 171 213 260 311
#
# _framework density 19.728919999999999
#
# number of rings (size 3 to 8) (size 9 to 14) (size 15 to 20)
#    0.000    2.667    0.667    1.600    1.867    4.000 
#    0.000    4.000    0.000    0.800    0.000    2.800 
#    0.000    0.000    0.000    0.000    0.000    0.000 
#
# Total GULP energy -334114.401522 kJ/mol
# GULP energy per Si atom -5568.573359 kJ/mol
# Density = 1.968402 g / cm^3
# Si number density = 19.728920 Si / 1000 Ang^3
#
#
#
# Elastic Constant Matrix: (Units=GPa)
#
#
# Indices 1 2 3 4 5 6 
#
# 1 184.3085 71.1032 23.4484 0.0000 0.0000 0.0000
# 2 71.1032 86.2086 7.4489 0.0000 0.0000 0.0000
# 3 23.4484 7.4489 20.9642 0.0000 0.0000 0.0000
# 4 0.0000 0.0000 0.0000 -31.1447 0.0000 0.0000
# 5 0.0000 0.0000 0.0000 0.0000 17.0466 0.0000
# 6 0.0000 0.0000 0.0000 0.0000 0.0000 33.1676
#
#
#
# Elastic Compliance Matrix: (Units=1/GPa)
#
#
# Indices 1 2 3 4 5 6 
#
# 1 0.009015 -0.006772 -0.007677 0.000000 0.000000 0.000000
# 2 -0.006772 0.017054 0.001515 0.000000 0.000000 0.000000
# 3 -0.007677 0.001515 0.055749 0.000000 0.000000 0.000000
# 4 0.000000 0.000000 0.000000 -0.032108 0.000000 0.000000
# 5 0.000000 0.000000 0.000000 0.000000 0.058663 0.000000
# 6 0.000000 0.000000 0.000000 0.000000 0.000000 0.030150
#
#
# Mechanical properties :
#
#
# Convention : Reuss Voigt Hill
#
# Bulk Modulus (GPa) = 17.87323 55.05358 36.46341
# Shear Modulus (GPa) = 27.31637 16.44595 21.88116
#
# Velocity S-wave (km/s) = 3.72504 2.89034 3.33391
# Velocity P-wave (km/s) = 5.25169 6.25335 5.77428
#
# Compressibility (1/GPa) = 0.05594959
#
# Stress axis : x y z
#
# Youngs Moduli (GPa) = 110.92759 58.63632 17.93765
#
# Poissons Ratio (x) = 0.39708 0.13771
# Poissons Ratio (y) = 0.75120 -0.02717
# Poissons Ratio (z) = 0.85158 -0.08882
#
# Static dielectric constant tensor:
#      x y z
#    x 1.748350 0.000000 0.000000 
#    y 0.000000 1.688350 0.000000 
#    z 0.000000 0.000000 1.707770 
# 
# From -- ./inp_files/38052.got.cif
#   From: 2010.05.17/outbox.cif.g08.bks.cpg/sg67_20_cif.got.tgz:38052.got - 2010.06.03 18:28:57.
