data_PCOD9501672
_publ_section_title
;
Structure prediction by ZEFSAII (Michael W. Deem and Ramdas Pophale) SiO2 
 PCOD9501672
Probable space group: C M M A
;
_chemical_formula_sum "Si O2"
_cell_formula_units_Z 80
_cell_length_a 22.176739
_cell_length_b 19.989507
_cell_length_c 8.718021
_cell_angle_alpha 90.000000
_cell_angle_beta 90.000000
_cell_angle_gamma 90.000000
_cell_volume 3864.716838
_symmetry_space_group_name_H-M "C M M A"
_symmetry_group_IT_number 67
_symmetry_cell_setting 'orthorhombic'
loop_
_space_group_symop_operation_xyz
x,y,z
-x,1/2-y,z
x,-y,-z
-x,1/2+y,-z
-x,-y,-z
x,1/2+y,-z
-x,y,z
x,1/2-y,z
1/2+x,1/2+y,z
1/2-x,-y,z
1/2+x,1/2-y,-z
1/2-x,y,-z
1/2-x,1/2-y,-z
1/2+x,y,-z
1/2-x,1/2+y,z
1/2+x,-y,z
loop_
_atom_site_type_symbol
_atom_site_label
_atom_site_fract_x
_atom_site_fract_y
_atom_site_fract_z
Si Si1 0.849901 0.066492 0.936933
Si Si2 0.931296 0.538623 0.348277
Si Si3 0.110538 0.674726 0.468191
Si Si4 0.862426 0.173512 0.189211
Si Si5 0.720493 0.325385 0.253134
O O1 0.895717 0.035705 0.811105
O O2 0.805301 0.116517 0.851519
O O3 0.876718 0.115305 0.068440
O O4 0.819378 0.000000 0.000000
O O5 0.905996 0.500000 0.500000
O O6 0.926509 0.617068 0.387590
O O7 0.000000 0.516256 0.329265
O O8 0.092120 0.750000 0.427281
O O9 0.103803 0.665882 0.649664
O O10 0.180833 0.668720 0.409617
O O11 0.872078 0.250000 0.132049
O O12 0.792240 0.168796 0.242473
O O13 0.706815 0.250000 0.195485
#
# Coordination Sequence:
#
# PCOD9501672 Si02
#       5
#    16  16  16  16  16
#     4  11  22  34  52  79 108 136 175 224 271 316
#     4  10  22  41  60  74  96 136 183 229 278 332
#     4   9  18  34  57  83 108 138 180 222 256 304
#     4  10  19  33  54  81 115 148 174 207 257 318
#     4   9  18  33  53  78 111 151 183 204 243 310
#
# _framework density 20.700092999999999
#
# number of rings (size 3 to 8) (size 9 to 14) (size 15 to 20)
#    0.000    2.200    0.000    3.000    0.000    7.200 
#    0.000    1.000    0.000    4.800    0.000    0.000 
#    0.000    0.000    0.000    0.000    0.000    0.000 
#
# Total GULP energy -222897.455276 kJ/mol
# GULP energy per Si atom -5572.436382 kJ/mol
# Density = 2.065298 g / cm^3
# Si number density = 20.700093 Si / 1000 Ang^3
#
#
#
# Elastic Constant Matrix: (Units=GPa)
#
#
# Indices 1 2 3 4 5 6 
#
# 1 32.1123 6.5147 10.9458 0.0000 0.0000 0.0000
# 2 6.5147 125.2539 56.9255 0.0000 0.0000 0.0000
# 3 10.9458 56.9255 94.7131 0.0000 0.0000 0.0000
# 4 0.0000 0.0000 0.0000 42.6425 0.0000 0.0000
# 5 0.0000 0.0000 0.0000 0.0000 8.0447 0.0000
# 6 0.0000 0.0000 0.0000 0.0000 0.0000 12.9852
#
#
#
# Elastic Compliance Matrix: (Units=1/GPa)
#
#
# Indices 1 2 3 4 5 6 
#
# 1 0.032418 0.000023 -0.003760 0.000000 0.000000 0.000000
# 2 0.000023 0.010984 -0.006604 0.000000 0.000000 0.000000
# 3 -0.003760 -0.006604 0.014962 0.000000 0.000000 0.000000
# 4 0.000000 0.000000 0.000000 0.023451 0.000000 0.000000
# 5 0.000000 0.000000 0.000000 0.000000 0.124305 0.000000
# 6 0.000000 0.000000 0.000000 0.000000 0.000000 0.077011
#
#
# Mechanical properties :
#
#
# Convention : Reuss Voigt Hill
#
# Bulk Modulus (GPa) = 26.53890 44.53904 35.53897
# Shear Modulus (GPa) = 15.80404 24.58070 20.19237
#
# Velocity S-wave (km/s) = 2.76611 3.44970 3.12664
# Velocity P-wave (km/s) = 4.80107 6.11803 5.49912
#
# Compressibility (1/GPa) = 0.03768053
#
# Stress axis : x y z
#
# Youngs Moduli (GPa) = 30.84731 91.03975 66.83484
#
# Poissons Ratio (x) = -0.00208 0.25131
# Poissons Ratio (y) = -0.00070 0.44141
# Poissons Ratio (z) = 0.11599 0.60127
#
# Static dielectric constant tensor:
#      x y z
#    x 1.749030 0.000000 0.000000 
#    y 0.000000 1.719700 0.000000 
#    z 0.000000 0.000000 1.794120 
# 
# From -- ./inp_files/9930.got.cif
#   From: 2010.05.17/outbox.cif.g08.bks.cpg/sg67_5_cif.got.tgz:9930.got - 2010.06.03 18:28:57.
