data_PCOD9501063
_publ_section_title
;
Structure prediction by ZEFSAII (Michael W. Deem and Ramdas Pophale) SiO2 
 PCOD9501063
Probable space group: C M M A
;
_chemical_formula_sum "Si O2"
_cell_formula_units_Z 112
_cell_length_a 22.107751
_cell_length_b 21.909874
_cell_length_c 11.969398
_cell_angle_alpha 90.000000
_cell_angle_beta 90.000000
_cell_angle_gamma 90.000000
_cell_volume 5797.713529
_symmetry_space_group_name_H-M "C M M A"
_symmetry_group_IT_number 67
_symmetry_cell_setting 'orthorhombic'
loop_
_space_group_symop_operation_xyz
x,y,z
-x,1/2-y,z
x,-y,-z
-x,1/2+y,-z
-x,-y,-z
x,1/2+y,-z
-x,y,z
x,1/2-y,z
1/2+x,1/2+y,z
1/2-x,-y,z
1/2+x,1/2-y,-z
1/2-x,y,-z
1/2-x,1/2-y,-z
1/2+x,y,-z
1/2-x,1/2+y,z
1/2+x,-y,z
loop_
_atom_site_type_symbol
_atom_site_label
_atom_site_fract_x
_atom_site_fract_y
_atom_site_fract_z
Si Si1 0.067158 0.678006 0.943998
Si Si2 0.070011 0.014425 0.878958
Si Si3 0.385181 0.602376 0.241694
Si Si4 0.928429 0.625897 0.280069
Si Si5 0.571981 0.428898 0.522629
Si Si6 0.756215 0.571937 0.865475
Si Si7 0.838749 0.819959 0.135789
O O1 0.063441 0.750000 0.956484
O O2 0.085310 0.660152 0.819044
O O3 0.000000 0.652337 0.971038
O O4 0.120891 0.659580 0.027941
O O5 0.076432 0.954289 0.805979
O O6 0.000000 0.027811 0.899870
O O7 0.090905 0.069285 0.800315
O O8 0.099553 0.000000 0.000000
O O9 0.391003 0.598657 0.374257
O O10 0.319087 0.592419 0.190064
O O11 0.918491 0.606763 0.407315
O O12 0.887052 0.679891 0.236310
O O13 0.000000 0.637133 0.264891
O O14 0.586919 0.500000 0.500000
O O15 0.500000 0.426575 0.549850
O O16 0.750000 0.500000 0.830033
O O17 0.710321 0.627876 0.837821
O O18 0.750000 0.570319 0.000000
O O19 0.815999 0.750000 0.117617
#
# Coordination Sequence:
#
# PCOD9501063 Si02
#       7
#    16  16  16  16  16  16  16
#     4  10  21  36  58  91 125 157 201 256 314 384
#     4  10  19  29  52  88 122 153 191 248 320 385
#     4  12  21  36  60  83 122 168 209 250 310 379
#     4  10  20  36  59  90 126 157 200 260 319 382
#     4  10  20  36  60  92 127 165 205 256 322 386
#     4  11  25  41  60  91 127 165 211 267 313 364
#     4  11  23  42  65  89 123 166 211 257 320 387
#
# _framework density 19.317959999999999
#
# number of rings (size 3 to 8) (size 9 to 14) (size 15 to 20)
#    0.000    1.429    2.857    3.429    2.000    2.857 
#    0.000    1.429    0.000    1.714    0.000    0.000 
#    0.000    0.000    0.000    0.000    0.000    0.000 
#
# Total GULP energy -312241.573151 kJ/mol
# GULP energy per Si atom -5575.742378 kJ/mol
# Density = 1.927399 g / cm^3
# Si number density = 19.317960 Si / 1000 Ang^3
#
#
#
# Elastic Constant Matrix: (Units=GPa)
#
#
# Indices 1 2 3 4 5 6 
#
# 1 76.0982 42.8664 46.9505 0.0000 0.0000 0.0000
# 2 42.8664 65.8128 30.4670 0.0000 0.0000 0.0000
# 3 46.9505 30.4670 116.9601 0.0000 0.0000 0.0000
# 4 0.0000 0.0000 0.0000 21.5495 0.0000 0.0000
# 5 0.0000 0.0000 0.0000 0.0000 58.4883 0.0000
# 6 0.0000 0.0000 0.0000 0.0000 0.0000 -14.3469
#
#
#
# Elastic Compliance Matrix: (Units=1/GPa)
#
#
# Indices 1 2 3 4 5 6 
#
# 1 0.024370 -0.012900 -0.006422 0.000000 0.000000 0.000000
# 2 -0.012900 0.024107 -0.001101 0.000000 0.000000 0.000000
# 3 -0.006422 -0.001101 0.011415 0.000000 0.000000 0.000000
# 4 0.000000 0.000000 0.000000 0.046405 0.000000 0.000000
# 5 0.000000 0.000000 0.000000 0.000000 0.017097 0.000000
# 6 0.000000 0.000000 0.000000 0.000000 0.000000 -0.069701
#
#
# Mechanical properties :
#
#
# Convention : Reuss Voigt Hill
#
# Bulk Modulus (GPa) = 52.50884 55.49321 54.00102
# Shear Modulus (GPa) = 49.56027 22.37733 35.96880
#
# Velocity S-wave (km/s) = 5.07057 3.40717 4.31970
# Velocity P-wave (km/s) = 7.84355 6.65335 7.27284
#
# Compressibility (1/GPa) = 0.01904441
#
# Stress axis : x y z
#
# Youngs Moduli (GPa) = 41.03421 41.48242 87.60511
#
# Poissons Ratio (x) = 0.53512 0.56263
# Poissons Ratio (y) = 0.52934 0.09647
# Poissons Ratio (z) = 0.26354 0.04568
#
# Static dielectric constant tensor:
#      x y z
#    x 1.727400 0.000000 0.000000 
#    y 0.000000 1.729400 0.000000 
#    z 0.000000 0.000000 1.681700 
# 
# From -- ./inp_files/21125.got.cif
#   From: 2010.05.17/outbox.cif.g08.bks.cpg/sg67_11_cif.got.tgz:21125.got - 2010.06.03 18:28:57.
