data_PCOD9501229
_publ_section_title
;
Structure prediction by ZEFSAII (Michael W. Deem and Ramdas Pophale) SiO2 
 PCOD9501229
Probable space group: C M M A
;
_chemical_formula_sum "Si O2"
_cell_formula_units_Z 112
_cell_length_a 7.454791
_cell_length_b 32.220576
_cell_length_c 21.016371
_cell_angle_alpha 90.000000
_cell_angle_beta 90.000000
_cell_angle_gamma 90.000000
_cell_volume 5048.083135
_symmetry_space_group_name_H-M "C M M A"
_symmetry_group_IT_number 67
_symmetry_cell_setting 'orthorhombic'
loop_
_space_group_symop_operation_xyz
x,y,z
-x,1/2-y,z
x,-y,-z
-x,1/2+y,-z
-x,-y,-z
x,1/2+y,-z
-x,y,z
x,1/2-y,z
1/2+x,1/2+y,z
1/2-x,-y,z
1/2+x,1/2-y,-z
1/2-x,y,-z
1/2-x,1/2-y,-z
1/2+x,y,-z
1/2-x,1/2+y,z
1/2+x,-y,z
loop_
_atom_site_type_symbol
_atom_site_label
_atom_site_fract_x
_atom_site_fract_y
_atom_site_fract_z
Si Si1 0.217390 0.064995 0.258111
Si Si2 0.214310 0.633778 0.927818
Si Si3 0.714432 0.135446 0.569530
Si Si4 0.780343 0.796259 0.829527
Si Si5 0.785510 0.454721 0.118624
Si Si6 0.714162 0.455213 0.603280
Si Si7 0.282748 0.159129 0.706305
O O1 0.283719 0.047043 0.191606
O O2 0.283053 0.044989 0.323721
O O3 0.259149 0.113794 0.264551
O O4 0.000000 0.061671 0.257804
O O5 0.281175 0.667695 0.877427
O O6 0.282701 0.586867 0.915631
O O7 0.000000 0.632268 0.918968
O O8 0.250000 0.646278 0.000000
O O9 0.500000 0.133775 0.575818
O O10 0.750000 0.153381 0.500000
O O11 0.782613 0.087521 0.572384
O O12 0.781088 0.158579 0.633160
O O13 0.724372 0.750000 0.847914
O O14 0.722466 0.807395 0.757667
O O15 0.000000 0.796898 0.830116
O O16 0.750000 0.500000 0.090196
O O17 0.000000 0.451144 0.121353
O O18 0.500000 0.451251 0.605534
O O19 0.750000 0.500000 0.573859
O O20 0.500000 0.161905 0.704136
#
# Coordination Sequence:
#
# PCOD9501229 Si02
#       7
#    16  16  16  16  16  16  16
#     4   8  13  25  44  64  89 121 158 201 249 291
#     4  10  21  36  53  75 106 139 167 204 253 299
#     4   9  18  30  45  65  91 127 164 197 241 294
#     4   9  16  29  54  84 105 125 163 210 252 299
#     4  10  19  31  49  71  97 132 171 210 250 291
#     4   9  17  27  40  60  86 118 157 202 247 289
#     4   8  13  26  48  71  95 124 160 203 246 287
#
# _framework density 22.186641000000002
#
# number of rings (size 3 to 8) (size 9 to 14) (size 15 to 20)
#    0.000    3.000    1.429    2.143    0.000    2.000 
#    0.000    2.857    0.000    2.143    0.000    0.000 
#    0.000    0.000    0.000    0.000    0.000    0.000 
#
# Total GULP energy -312393.247075 kJ/mol
# GULP energy per Si atom -5578.450841 kJ/mol
# Density = 2.213614 g / cm^3
# Si number density = 22.186641 Si / 1000 Ang^3
#
#
#
# Elastic Constant Matrix: (Units=GPa)
#
#
# Indices 1 2 3 4 5 6 
#
# 1 66.5765 5.0773 0.3126 0.0000 0.0000 0.0000
# 2 5.0773 119.7719 64.1523 0.0000 0.0000 0.0000
# 3 0.3126 64.1523 137.4057 0.0000 0.0000 0.0000
# 4 0.0000 0.0000 0.0000 -10.3384 0.0000 0.0000
# 5 0.0000 0.0000 0.0000 0.0000 10.3764 0.0000
# 6 0.0000 0.0000 0.0000 0.0000 0.0000 3.7464
#
#
#
# Elastic Compliance Matrix: (Units=1/GPa)
#
#
# Indices 1 2 3 4 5 6 
#
# 1 0.015082 -0.000828 0.000352 0.000000 0.000000 0.000000
# 2 -0.000828 0.011179 -0.005217 0.000000 0.000000 0.000000
# 3 0.000352 -0.005217 0.009713 0.000000 0.000000 0.000000
# 4 0.000000 0.000000 0.000000 -0.096727 0.000000 0.000000
# 5 0.000000 0.000000 0.000000 0.000000 0.096372 0.000000
# 6 0.000000 0.000000 0.000000 0.000000 0.000000 0.266923
#
#
# Mechanical properties :
#
#
# Convention : Reuss Voigt Hill
#
# Bulk Modulus (GPa) = 40.67141 51.42650 46.04895
# Shear Modulus (GPa) = 15.52202 17.70436 16.61319
#
# Velocity S-wave (km/s) = 2.64789 2.82791 2.73938
# Velocity P-wave (km/s) = 5.26495 5.82169 5.55031
#
# Compressibility (1/GPa) = 0.02458730
#
# Stress axis : x y z
#
# Youngs Moduli (GPa) = 66.30503 89.45512 102.95718
#
# Poissons Ratio (x) = 0.07407 -0.03627
# Poissons Ratio (y) = 0.05490 0.53716
# Poissons Ratio (z) = -0.02336 0.46671
#
# Static dielectric constant tensor:
#      x y z
#    x 2.120080 0.000000 0.000000 
#    y 0.000000 1.811510 0.000000 
#    z 0.000000 0.000000 1.821360 
# 
# From -- ./inp_files/38088.got.cif
#   From: 2010.05.17/outbox.cif.g08.bks.cpg/sg67_20_cif.got.tgz:38088.got - 2010.06.03 18:28:57.
