data_PCOD9501205
_publ_section_title
;
Structure prediction by ZEFSAII (Michael W. Deem and Ramdas Pophale) SiO2 
 PCOD9501205
Probable space group: C M M A
;
_chemical_formula_sum "Si O2"
_cell_formula_units_Z 96
_cell_length_a 8.729130
_cell_length_b 28.276345
_cell_length_c 24.588992
_cell_angle_alpha 90.000000
_cell_angle_beta 90.000000
_cell_angle_gamma 90.000000
_cell_volume 6069.249048
_symmetry_space_group_name_H-M "C M M A"
_symmetry_group_IT_number 67
_symmetry_cell_setting 'orthorhombic'
loop_
_space_group_symop_operation_xyz
x,y,z
-x,1/2-y,z
x,-y,-z
-x,1/2+y,-z
-x,-y,-z
x,1/2+y,-z
-x,y,z
x,1/2-y,z
1/2+x,1/2+y,z
1/2-x,-y,z
1/2+x,1/2-y,-z
1/2-x,y,-z
1/2-x,1/2-y,-z
1/2+x,y,-z
1/2-x,1/2+y,z
1/2+x,-y,z
loop_
_atom_site_type_symbol
_atom_site_label
_atom_site_fract_x
_atom_site_fract_y
_atom_site_fract_z
Si Si1 0.816097 0.948495 0.726507
Si Si2 0.315328 0.608085 0.165897
Si Si3 0.184542 0.305028 0.441950
Si Si4 0.315667 0.552481 0.058323
Si Si5 0.314555 0.853933 0.331265
Si Si6 0.683519 0.804063 0.774646
O O1 0.769631 0.928179 0.785803
O O2 0.770213 0.907661 0.683773
O O3 0.000000 0.951555 0.726070
O O4 0.750000 0.000000 0.716278
O O5 0.500000 0.612054 0.167922
O O6 0.271741 0.586822 0.107740
O O7 0.245125 0.658496 0.181455
O O8 0.229771 0.250000 0.433576
O O9 0.250000 0.320577 0.500000
O O10 0.234736 0.335789 0.390303
O O11 0.000000 0.306555 0.444402
O O12 0.500000 0.549752 0.055625
O O13 0.250000 0.500000 0.068855
O O14 0.250000 0.567868 0.000000
O O15 0.500000 0.851190 0.328575
O O16 0.249014 0.821080 0.283455
O O17 0.500000 0.806429 0.772962
O O18 0.729903 0.750000 0.785475
#
# Coordination Sequence:
#
# PCOD9501205 Si02
#       6
#    16  16  16  16  16  16
#     4   9  17  29  45  66  90 116 149 186 222 264
#     4   9  19  33  48  67  92 124 157 186 222 273
#     4   9  17  29  46  67  90 117 148 184 226 269
#     4  10  19  31  48  71  97 125 157 191 230 274
#     4   9  18  32  48  66  91 124 156 183 220 275
#     4  10  20  31  46  71  97 119 148 189 232 270
#
# _framework density 15.817443000000001
#
# number of rings (size 3 to 8) (size 9 to 14) (size 15 to 20)
#    0.000    2.667    0.000    3.500    0.000    6.667 
#    0.000    1.667    0.000    1.000    0.000    3.500 
#    0.000    0.000    0.000    0.000    0.000    0.000 
#
# Total GULP energy -267594.933351 kJ/mol
# GULP energy per Si atom -5574.894445 kJ/mol
# Density = 1.578144 g / cm^3
# Si number density = 15.817443 Si / 1000 Ang^3
#
#
#
# Elastic Constant Matrix: (Units=GPa)
#
#
# Indices 1 2 3 4 5 6 
#
# 1 18.4471 32.5381 35.2700 0.0000 0.0000 0.0000
# 2 32.5381 135.7003 95.9414 0.0000 0.0000 0.0000
# 3 35.2700 95.9414 156.5830 0.0000 0.0000 0.0000
# 4 0.0000 0.0000 0.0000 23.5834 0.0000 0.0000
# 5 0.0000 0.0000 0.0000 0.0000 23.2907 0.0000
# 6 0.0000 0.0000 0.0000 0.0000 0.0000 26.6951
#
#
#
# Elastic Compliance Matrix: (Units=1/GPa)
#
#
# Indices 1 2 3 4 5 6 
#
# 1 0.111731 -0.015874 -0.015441 0.000000 0.000000 0.000000
# 2 -0.015874 0.015257 -0.005772 0.000000 0.000000 0.000000
# 3 -0.015441 -0.005772 0.013401 0.000000 0.000000 0.000000
# 4 0.000000 0.000000 0.000000 0.042403 0.000000 0.000000
# 5 0.000000 0.000000 0.000000 0.000000 0.042936 0.000000
# 6 0.000000 0.000000 0.000000 0.000000 0.000000 0.037460
#
#
# Mechanical properties :
#
#
# Convention : Reuss Voigt Hill
#
# Bulk Modulus (GPa) = 15.10250 70.91438 43.00844
# Shear Modulus (GPa) = 13.91081 24.51257 19.21169
#
# Velocity S-wave (km/s) = 2.96879 3.94092 3.48888
# Velocity P-wave (km/s) = 4.61739 8.10174 6.59388
#
# Compressibility (1/GPa) = 0.06621418
#
# Stress axis : x y z
#
# Youngs Moduli (GPa) = 8.95010 65.54553 74.61965
#
# Poissons Ratio (x) = 1.04046 1.15219
# Poissons Ratio (y) = 0.14207 0.43074
# Poissons Ratio (z) = 0.13820 0.37836
#
# Static dielectric constant tensor:
#      x y z
#    x 1.537990 0.000000 0.000000 
#    y 0.000000 1.515500 0.000000 
#    z 0.000000 0.000000 1.519960 
# 
# From -- ./inp_files/40922.got.cif
#   From: 2010.05.17/outbox.cif.g08.bks.cpg/sg67_21_cif.got.tgz:40922.got - 2010.06.03 18:28:57.
