data_PCOD9501952
_publ_section_title
;
Structure prediction by ZEFSAII (Michael W. Deem and Ramdas Pophale) SiO2 
 PCOD9501952
Probable space group: C M M A
;
_chemical_formula_sum "Si O2"
_cell_formula_units_Z 64
_cell_length_a 9.904996
_cell_length_b 14.710097
_cell_length_c 23.955025
_cell_angle_alpha 90.000000
_cell_angle_beta 90.000000
_cell_angle_gamma 90.000000
_cell_volume 3490.329834
_symmetry_space_group_name_H-M "C M M A"
_symmetry_group_IT_number 67
_symmetry_cell_setting 'orthorhombic'
loop_
_space_group_symop_operation_xyz
x,y,z
-x,1/2-y,z
x,-y,-z
-x,1/2+y,-z
-x,-y,-z
x,1/2+y,-z
-x,y,z
x,1/2-y,z
1/2+x,1/2+y,z
1/2-x,-y,z
1/2+x,1/2-y,-z
1/2-x,y,-z
1/2-x,1/2-y,-z
1/2+x,y,-z
1/2-x,1/2+y,z
1/2+x,-y,z
loop_
_atom_site_type_symbol
_atom_site_label
_atom_site_fract_x
_atom_site_fract_y
_atom_site_fract_z
Si Si1 0.244050 0.609228 0.860374
Si Si2 0.500000 0.108441 0.940337
Si Si3 0.500000 0.888143 0.932756
Si Si4 0.164243 0.750000 0.769775
Si Si5 0.832263 0.906262 0.554642
Si Si6 0.838724 0.750000 0.642626
O O1 0.250000 0.500000 0.851278
O O2 0.126904 0.634129 0.903596
O O3 0.374773 0.636878 0.894796
O O4 0.218133 0.662817 0.803608
O O5 0.500000 0.998030 0.940190
O O6 0.500000 0.143910 0.003363
O O7 0.213077 0.750000 0.705796
O O8 0.000000 0.750000 0.771815
O O9 0.750000 0.870621 0.500000
O O10 0.807099 0.838213 0.605645
O O11 0.000000 0.915103 0.546986
O O12 0.750000 0.000000 0.565480
O O13 0.000000 0.750000 0.648214
#
# Coordination Sequence:
#
# PCOD9501952 Si02
#       6
#    16   8   8   8  16   8
#     4  10  20  35  58  80 108 146 183 231 287 337
#     4   9  16  33  55  85 102 149 175 222 288 362
#     4   9  18  31  55  81 118 129 179 232 294 342
#     4  11  22  40  59  78 110 153 200 229 269 338
#     4  10  19  35  61  91 122 151 185 229 280 328
#     4   9  21  37  57  82 113 157 197 232 268 323
#
# _framework density 18.336375
#
# number of rings (size 3 to 8) (size 9 to 14) (size 15 to 20)
#    0.000    2.250    1.250    2.625    0.000    4.500 
#    0.000    5.625   11.000    0.000    0.000    0.000 
#    0.000    0.000    0.000    0.000    0.000    0.000 
#
# Total GULP energy -178214.519287 kJ/mol
# GULP energy per Si atom -5569.203728 kJ/mol
# Density = 1.829464 g / cm^3
# Si number density = 18.336375 Si / 1000 Ang^3
#
#
#
# Elastic Constant Matrix: (Units=GPa)
#
#
# Indices 1 2 3 4 5 6 
#
# 1 146.1824 35.7941 73.8602 0.0000 0.0000 0.0000
# 2 35.7941 95.1927 77.3431 0.0000 0.0000 0.0000
# 3 73.8602 77.3431 212.8343 0.0000 0.0000 0.0000
# 4 0.0000 0.0000 0.0000 9.4258 0.0000 0.0000
# 5 0.0000 0.0000 0.0000 0.0000 31.8956 0.0000
# 6 0.0000 0.0000 0.0000 0.0000 0.0000 18.9093
#
#
#
# Elastic Compliance Matrix: (Units=1/GPa)
#
#
# Indices 1 2 3 4 5 6 
#
# 1 0.008378 -0.001118 -0.002501 0.000000 0.000000 0.000000
# 2 -0.001118 0.015055 -0.005083 0.000000 0.000000 0.000000
# 3 -0.002501 -0.005083 0.007414 0.000000 0.000000 0.000000
# 4 0.000000 0.000000 0.000000 0.106092 0.000000 0.000000
# 5 0.000000 0.000000 0.000000 0.000000 0.031352 0.000000
# 6 0.000000 0.000000 0.000000 0.000000 0.000000 0.052884
#
#
# Mechanical properties :
#
#
# Convention : Reuss Voigt Hill
#
# Bulk Modulus (GPa) = 74.39084 92.02267 83.20676
# Shear Modulus (GPa) = 20.57099 29.86029 25.21564
#
# Velocity S-wave (km/s) = 3.35306 4.03981 3.71235
# Velocity P-wave (km/s) = 7.45982 8.48852 7.99074
#
# Compressibility (1/GPa) = 0.01344251
#
# Stress axis : x y z
#
# Youngs Moduli (GPa) = 119.35567 66.42157 134.88679
#
# Poissons Ratio (x) = 0.07427 0.33738
# Poissons Ratio (y) = 0.13346 0.68563
# Poissons Ratio (z) = 0.29853 0.33762
#
# Static dielectric constant tensor:
#      x y z
#    x 1.621090 0.000000 0.000000 
#    y 0.000000 1.673780 0.000000 
#    z 0.000000 0.000000 1.611760 
# 
# From -- ./inp_files/40446.got.cif
#   From: 2010.05.17/outbox.cif.g08.bks.cpg/sg67_21_cif.got.tgz:40446.got - 2010.06.03 18:28:57.
