data_PCOD9501873
_publ_section_title
;
Structure prediction by ZEFSAII (Michael W. Deem and Ramdas Pophale) SiO2 
 PCOD9501873
Probable space group: C M M A
;
_chemical_formula_sum "Si O2"
_cell_formula_units_Z 128
_cell_length_a 22.934463
_cell_length_b 26.168168
_cell_length_c 10.085609
_cell_angle_alpha 90.000000
_cell_angle_beta 90.000000
_cell_angle_gamma 90.000000
_cell_volume 6052.907296
_symmetry_space_group_name_H-M "C M M A"
_symmetry_group_IT_number 67
_symmetry_cell_setting 'orthorhombic'
loop_
_space_group_symop_operation_xyz
x,y,z
-x,1/2-y,z
x,-y,-z
-x,1/2+y,-z
-x,-y,-z
x,1/2+y,-z
-x,y,z
x,1/2-y,z
1/2+x,1/2+y,z
1/2-x,-y,z
1/2+x,1/2-y,-z
1/2-x,y,-z
1/2-x,1/2-y,-z
1/2+x,y,-z
1/2-x,1/2+y,z
1/2+x,-y,z
loop_
_atom_site_type_symbol
_atom_site_label
_atom_site_fract_x
_atom_site_fract_y
_atom_site_fract_z
Si Si1 0.329878 0.192709 0.231932
Si Si2 0.070299 0.445874 0.442310
Si Si3 0.313364 0.515175 0.155277
Si Si4 0.569025 0.045333 0.135855
Si Si5 0.068531 0.591650 0.850331
Si Si6 0.067023 0.136833 0.661207
Si Si7 0.729649 0.872152 0.151900
Si Si8 0.631524 0.193905 0.924020
O O1 0.306787 0.250000 0.258822
O O2 0.386338 0.180881 0.319253
O O3 0.284994 0.144776 0.238888
O O4 0.351701 0.192774 0.079012
O O5 0.092826 0.500000 0.500000
O O6 0.085853 0.429289 0.294096
O O7 0.084921 0.400095 0.541233
O O8 0.000000 0.450278 0.445670
O O9 0.250000 0.500000 0.216720
O O10 0.372664 0.483518 0.191802
O O11 0.308582 0.576837 0.174353
O O12 0.308457 0.500000 0.000000
O O13 0.500000 0.026274 0.156205
O O14 0.568599 0.099786 0.209901
O O15 0.579126 0.944656 0.020942
O O16 0.090367 0.647488 0.887611
O O17 0.000000 0.595303 0.842737
O O18 0.000000 0.153706 0.643508
O O19 0.690315 0.821508 0.152160
O O20 0.750000 0.879646 0.000000
O O21 0.609656 0.250000 0.890532
#
# Coordination Sequence:
#
# PCOD9501873 Si02
#       8
#    16  16  16  16  16  16  16  16
#     4  10  20  35  59  88 120 157 200 256 316 365
#     4   9  20  39  58  80 117 169 209 239 293 370
#     4  11  20  30  49  80 120 160 200 247 302 363
#     4  10  21  36  56  89 127 159 202 258 311 367
#     4  10  20  37  59  86 123 161 200 245 302 371
#     4  10  20  36  59  88 123 159 201 251 303 364
#     4  10  19  35  51  78 121 155 194 243 304 367
#     4  10  20  34  56  84 116 153 197 250 305 355
#
# _framework density 21.146864000000001
#
# number of rings (size 3 to 8) (size 9 to 14) (size 15 to 20)
#    0.000    2.000    2.500    1.875    0.000    4.250 
#    0.000    6.250    0.000    3.000    0.000    5.250 
#    0.000    0.000    0.000    0.000    0.000    0.000 
#
# Total GULP energy -356568.158728 kJ/mol
# GULP energy per Si atom -5571.377480 kJ/mol
# Density = 2.109873 g / cm^3
# Si number density = 21.146864 Si / 1000 Ang^3
#
#
#
# Elastic Constant Matrix: (Units=GPa)
#
#
# Indices 1 2 3 4 5 6 
#
# 1 103.2323 60.5037 24.6012 0.0000 0.0000 0.0000
# 2 60.5037 134.0297 18.6577 0.0000 0.0000 0.0000
# 3 24.6012 18.6577 51.9984 0.0000 0.0000 0.0000
# 4 0.0000 0.0000 0.0000 9.5289 0.0000 0.0000
# 5 0.0000 0.0000 0.0000 0.0000 13.0726 0.0000
# 6 0.0000 0.0000 0.0000 0.0000 0.0000 34.7303
#
#
#
# Elastic Compliance Matrix: (Units=1/GPa)
#
#
# Indices 1 2 3 4 5 6 
#
# 1 0.014160 -0.005747 -0.004637 0.000000 0.000000 0.000000
# 2 -0.005747 0.010185 -0.000936 0.000000 0.000000 0.000000
# 3 -0.004637 -0.000936 0.021761 0.000000 0.000000 0.000000
# 4 0.000000 0.000000 0.000000 0.104943 0.000000 0.000000
# 5 0.000000 0.000000 0.000000 0.000000 0.076496 0.000000
# 6 0.000000 0.000000 0.000000 0.000000 0.000000 0.028793
#
#
# Mechanical properties :
#
#
# Convention : Reuss Voigt Hill
#
# Bulk Modulus (GPa) = 42.61301 55.19839 48.90570
# Shear Modulus (GPa) = 17.43366 23.83288 20.63327
#
# Velocity S-wave (km/s) = 2.87437 3.36075 3.12703
# Velocity P-wave (km/s) = 5.58665 6.42017 6.01786
#
# Compressibility (1/GPa) = 0.02346701
#
# Stress axis : x y z
#
# Youngs Moduli (GPa) = 70.62116 98.17934 45.95336
#
# Poissons Ratio (x) = 0.56420 0.21310
# Poissons Ratio (y) = 0.40583 0.04301
# Poissons Ratio (z) = 0.32750 0.09188
#
# Static dielectric constant tensor:
#      x y z
#    x 1.876860 0.000000 0.000000 
#    y 0.000000 1.792790 0.000000 
#    z 0.000000 0.000000 1.764970 
# 
# From -- ./inp_files/22323.got.cif
#   From: 2010.05.17/outbox.cif.g08.bks.cpg/sg67_12_cif.got.tgz:22323.got - 2010.06.03 18:28:57.
