data_PCOD9501343
_publ_section_title
;
Structure prediction by ZEFSAII (Michael W. Deem and Ramdas Pophale) SiO2 
 PCOD9501343
Probable space group: C M M A
;
_chemical_formula_sum "Si O2"
_cell_formula_units_Z 88
_cell_length_a 8.214763
_cell_length_b 31.853648
_cell_length_c 18.145927
_cell_angle_alpha 90.000000
_cell_angle_beta 90.000000
_cell_angle_gamma 90.000000
_cell_volume 4748.247785
_symmetry_space_group_name_H-M "C M M A"
_symmetry_group_IT_number 67
_symmetry_cell_setting 'orthorhombic'
loop_
_space_group_symop_operation_xyz
x,y,z
-x,1/2-y,z
x,-y,-z
-x,1/2+y,-z
-x,-y,-z
x,1/2+y,-z
-x,y,z
x,1/2-y,z
1/2+x,1/2+y,z
1/2-x,-y,z
1/2+x,1/2-y,-z
1/2-x,y,-z
1/2-x,1/2-y,-z
1/2+x,y,-z
1/2-x,1/2+y,z
1/2+x,-y,z
loop_
_atom_site_type_symbol
_atom_site_label
_atom_site_fract_x
_atom_site_fract_y
_atom_site_fract_z
Si Si1 0.197028 0.702874 0.084600
Si Si2 0.693397 0.131543 0.195009
Si Si3 0.804055 0.750000 0.583403
Si Si4 0.305894 0.454273 0.259793
Si Si5 0.193632 0.075140 0.419608
Si Si6 0.197569 0.662057 0.647603
O O1 0.250396 0.750000 0.109370
O O2 0.258716 0.663835 0.133633
O O3 0.000000 0.702699 0.087922
O O4 0.250000 0.698102 0.000000
O O5 0.500000 0.127780 0.181643
O O6 0.758688 0.084203 0.209112
O O7 0.725196 0.152681 0.273767
O O8 0.750000 0.750000 0.500000
O O9 0.746717 0.792835 0.620304
O O10 0.000000 0.750000 0.587138
O O11 0.500000 0.452352 0.258001
O O12 0.250000 0.500000 0.235306
O O13 0.255479 0.447377 0.345373
O O14 0.250000 0.060169 0.500000
O O15 0.242911 0.123962 0.407068
O O16 0.000000 0.072378 0.418323
O O17 0.000000 0.661549 0.654208
#
# Coordination Sequence:
#
# PCOD9501343 Si02
#       6
#    16  16   8  16  16  16
#     4   9  18  33  53  80 111 139 167 199 239 289
#     4   9  19  34  53  76 102 132 166 205 247 295
#     4  10  20  32  44  64  93 128 169 212 251 292
#     4  10  20  35  53  74  99 128 166 210 257 304
#     4  10  19  32  49  69  95 128 166 211 260 307
#     4   9  19  32  46  67  96 129 168 210 251 296
#
# _framework density 18.533152000000001
#
# number of rings (size 3 to 8) (size 9 to 14) (size 15 to 20)
#    0.000    2.545    0.000    1.636    1.273    3.273 
#    0.000    1.818    0.000    0.545    0.000    3.818 
#    0.000    0.000    0.000    0.000    0.000    0.000 
#
# Total GULP energy -245263.728633 kJ/mol
# GULP energy per Si atom -5574.175651 kJ/mol
# Density = 1.849097 g / cm^3
# Si number density = 18.533152 Si / 1000 Ang^3
#
#
#
# Elastic Constant Matrix: (Units=GPa)
#
#
# Indices 1 2 3 4 5 6 
#
# 1 11.2729 14.5663 4.1826 0.0000 0.0000 0.0000
# 2 14.5663 170.1318 64.0904 0.0000 0.0000 0.0000
# 3 4.1826 64.0904 76.2245 0.0000 0.0000 0.0000
# 4 0.0000 0.0000 0.0000 13.5638 0.0000 0.0000
# 5 0.0000 0.0000 0.0000 0.0000 22.3074 0.0000
# 6 0.0000 0.0000 0.0000 0.0000 0.0000 17.0298
#
#
#
# Elastic Compliance Matrix: (Units=1/GPa)
#
#
# Indices 1 2 3 4 5 6 
#
# 1 0.100069 -0.009512 0.002507 0.000000 0.000000 0.000000
# 2 -0.009512 0.009507 -0.007471 0.000000 0.000000 0.000000
# 3 0.002507 -0.007471 0.019264 0.000000 0.000000 0.000000
# 4 0.000000 0.000000 0.000000 0.073726 0.000000 0.000000
# 5 0.000000 0.000000 0.000000 0.000000 0.044828 0.000000
# 6 0.000000 0.000000 0.000000 0.000000 0.000000 0.058721
#
#
# Mechanical properties :
#
#
# Convention : Reuss Voigt Hill
#
# Bulk Modulus (GPa) = 10.01143 47.03421 28.52282
# Shear Modulus (GPa) = 13.57360 22.23286 17.90323
#
# Velocity S-wave (km/s) = 2.70922 3.46732 3.11144
# Velocity P-wave (km/s) = 3.89873 6.43920 5.32275
#
# Compressibility (1/GPa) = 0.09988582
#
# Stress axis : x y z
#
# Youngs Moduli (GPa) = 9.99313 105.18844 51.91124
#
# Poissons Ratio (x) = 1.00055 -0.13013
# Poissons Ratio (y) = 0.09505 0.38785
# Poissons Ratio (z) = -0.02505 0.78591
#
# Static dielectric constant tensor:
#      x y z
#    x 1.638380 0.000000 0.000000 
#    y 0.000000 1.693960 0.000000 
#    z 0.000000 0.000000 1.601890 
# 
# From -- ./inp_files/32438.got.cif
#   From: 2010.05.17/outbox.cif.g08.bks.cpg/sg67_17_cif.got.tgz:32438.got - 2010.06.03 18:28:57.
