data_PCOD9501246
_publ_section_title
;
Structure prediction by ZEFSAII (Michael W. Deem and Ramdas Pophale) SiO2 
 PCOD9501246
Probable space group: C M M A
;
_chemical_formula_sum "Si O2"
_cell_formula_units_Z 104
_cell_length_a 27.540876
_cell_length_b 8.643973
_cell_length_c 24.739204
_cell_angle_alpha 90.000000
_cell_angle_beta 90.000000
_cell_angle_gamma 90.000000
_cell_volume 5889.478943
_symmetry_space_group_name_H-M "C M M A"
_symmetry_group_IT_number 67
_symmetry_cell_setting 'orthorhombic'
loop_
_space_group_symop_operation_xyz
x,y,z
-x,1/2-y,z
x,-y,-z
-x,1/2+y,-z
-x,-y,-z
x,1/2+y,-z
-x,y,z
x,1/2-y,z
1/2+x,1/2+y,z
1/2-x,-y,z
1/2+x,1/2-y,-z
1/2-x,y,-z
1/2-x,1/2-y,-z
1/2+x,y,-z
1/2-x,1/2+y,z
1/2+x,-y,z
loop_
_atom_site_type_symbol
_atom_site_label
_atom_site_fract_x
_atom_site_fract_y
_atom_site_fract_z
Si Si1 0.056719 0.428815 0.241040
Si Si2 0.388817 0.067717 0.335129
Si Si3 0.302337 0.065533 0.146542
Si Si4 0.944003 0.436832 0.558900
Si Si5 0.402647 0.936507 0.124747
Si Si6 0.500000 0.562643 0.060466
Si Si7 0.698914 0.566366 0.268209
O O1 0.070144 0.250000 0.253981
O O2 0.069240 0.535563 0.291269
O O3 0.084457 0.475230 0.186879
O O4 0.000000 0.431189 0.228587
O O5 0.378401 0.250000 0.338203
O O6 0.408447 0.012610 0.393056
O O7 0.343051 0.981302 0.309438
O O8 0.300506 0.250000 0.146686
O O9 0.250000 0.000000 0.127911
O O10 0.349759 0.008075 0.113910
O O11 0.308482 0.006129 0.208516
O O12 0.930620 0.500000 0.500000
O O13 0.943412 0.250000 0.557720
O O14 0.000000 0.485124 0.569980
O O15 0.399121 0.750000 0.120923
O O16 0.449712 0.986150 0.089964
O O17 0.500000 0.750000 0.061234
O O18 0.500000 0.500000 0.000000
O O19 0.701054 0.750000 0.261826
O O20 0.750000 0.500000 0.288224
#
# Coordination Sequence:
#
# PCOD9501246 Si02
#       7
#    16  16  16  16  16   8  16
#     4  10  19  31  49  75 107 144 180 216 269 328
#     4  11  21  33  50  76 107 139 175 221 274 322
#     4  11  21  34  54  82 113 149 187 229 279 336
#     4   9  19  35  53  73 101 136 176 220 264 315
#     4  10  19  35  56  80 113 151 187 230 276 324
#     4  10  22  40  62  86 118 158 197 236 277 326
#     4  11  21  34  51  74 106 142 178 218 266 326
#
# _framework density 17.658608000000001
#
# number of rings (size 3 to 8) (size 9 to 14) (size 15 to 20)
#    0.000    1.692    2.308    4.615    0.000    2.769 
#    0.000    1.538    0.000    0.923    0.000    6.462 
#    0.000    0.000    0.000    0.000    0.000    0.000 
#
# Total GULP energy -290177.291156 kJ/mol
# GULP energy per Si atom -5580.332522 kJ/mol
# Density = 1.761842 g / cm^3
# Si number density = 17.658608 Si / 1000 Ang^3
#
#
#
# Elastic Constant Matrix: (Units=GPa)
#
#
# Indices 1 2 3 4 5 6 
#
# 1 141.7073 35.3690 41.8644 0.0000 0.0000 0.0000
# 2 35.3690 60.0535 21.0949 0.0000 0.0000 0.0000
# 3 41.8644 21.0949 54.0729 0.0000 0.0000 0.0000
# 4 0.0000 0.0000 0.0000 22.2072 0.0000 0.0000
# 5 0.0000 0.0000 0.0000 0.0000 -8.7500 0.0000
# 6 0.0000 0.0000 0.0000 0.0000 0.0000 27.2321
#
#
#
# Elastic Compliance Matrix: (Units=1/GPa)
#
#
# Indices 1 2 3 4 5 6 
#
# 1 0.009775 -0.003591 -0.006167 0.000000 0.000000 0.000000
# 2 -0.003591 0.020615 -0.005262 0.000000 0.000000 0.000000
# 3 -0.006167 -0.005262 0.025321 0.000000 0.000000 0.000000
# 4 0.000000 0.000000 0.000000 0.045030 0.000000 0.000000
# 5 0.000000 0.000000 0.000000 0.000000 -0.114286 0.000000
# 6 0.000000 0.000000 0.000000 0.000000 0.000000 0.036721
#
#
# Mechanical properties :
#
#
# Convention : Reuss Voigt Hill
#
# Bulk Modulus (GPa) = 38.95471 50.27669 44.61570
# Shear Modulus (GPa) = 80.93964 18.63823 49.78893
#
# Velocity S-wave (km/s) = 6.77756 3.25233 5.31568
# Velocity P-wave (km/s) = 9.12989 6.52969 7.93699
#
# Compressibility (1/GPa) = 0.02567084
#
# Stress axis : x y z
#
# Youngs Moduli (GPa) = 102.30199 48.50812 39.49250
#
# Poissons Ratio (x) = 0.17418 0.24356
# Poissons Ratio (y) = 0.36734 0.20782
# Poissons Ratio (z) = 0.63092 0.25527
#
# Static dielectric constant tensor:
#      x y z
#    x 1.776140 0.000000 0.000000 
#    y 0.000000 1.599340 0.000000 
#    z 0.000000 0.000000 1.571290 
# 
# From -- ./inp_files/42746.got.cif
#   From: 2010.05.17/outbox.cif.g08.bks.cpg/sg67_22_cif.got.tgz:42746.got - 2010.06.03 18:28:57.
