data_PCOD9501375
_publ_section_title
;
Structure prediction by ZEFSAII (Michael W. Deem and Ramdas Pophale) SiO2 
 PCOD9501375
Probable space group: C M M A
;
_chemical_formula_sum "Si O2"
_cell_formula_units_Z 64
_cell_length_a 15.190930
_cell_length_b 8.878817
_cell_length_c 22.307188
_cell_angle_alpha 90.000000
_cell_angle_beta 90.000000
_cell_angle_gamma 90.000000
_cell_volume 3008.737471
_symmetry_space_group_name_H-M "C M M A"
_symmetry_group_IT_number 67
_symmetry_cell_setting 'orthorhombic'
loop_
_space_group_symop_operation_xyz
x,y,z
-x,1/2-y,z
x,-y,-z
-x,1/2+y,-z
-x,-y,-z
x,1/2+y,-z
-x,y,z
x,1/2-y,z
1/2+x,1/2+y,z
1/2-x,-y,z
1/2+x,1/2-y,-z
1/2-x,y,-z
1/2-x,1/2-y,-z
1/2+x,y,-z
1/2-x,1/2+y,z
1/2+x,-y,z
loop_
_atom_site_type_symbol
_atom_site_label
_atom_site_fract_x
_atom_site_fract_y
_atom_site_fract_z
Si Si1 0.896065 0.083400 0.558311
Si Si2 0.150755 0.431334 0.060095
Si Si3 0.848284 0.431417 0.190074
Si Si4 0.347383 0.930371 0.319523
O O1 0.856581 0.250000 0.565260
O O2 0.000000 0.099843 0.547222
O O3 0.858474 0.000000 0.500000
O O4 0.888351 0.993682 0.620033
O O5 0.154675 0.250000 0.054608
O O6 0.250000 0.500000 0.062007
O O7 0.110793 0.470954 0.125401
O O8 0.109221 0.500000 0.000000
O O9 0.840932 0.250000 0.190021
O O10 0.750000 0.500000 0.190125
O O11 0.889043 0.472976 0.254629
O O12 0.344827 0.750000 0.322802
O O13 0.250000 0.000000 0.318486
#
# Coordination Sequence:
#
# PCOD9501375 Si02
#       4
#    16  16  16  16
#     4  10  21  37  55  74  96 122 153 190 232 278
#     4   9  14  20  30  47  73 107 146 182 218 260
#     4   8  15  25  37  55  82 115 148 184 224 267
#     4  10  19  32  50  72  98 127 159 194 234 278
#
# _framework density 21.271381000000002
#
# number of rings (size 3 to 8) (size 9 to 14) (size 15 to 20)
#    0.000    2.750    0.000    3.000    0.000    4.000 
#    0.000    2.500    0.000    0.000    0.000    0.000 
#    0.000    1.000    0.000    2.250    0.000   12.250 
#
# Total GULP energy -178196.390955 kJ/mol
# GULP energy per Si atom -5568.637217 kJ/mol
# Density = 2.122297 g / cm^3
# Si number density = 21.271381 Si / 1000 Ang^3
#
#
#
# Elastic Constant Matrix: (Units=GPa)
#
#
# Indices 1 2 3 4 5 6 
#
# 1 32.2539 3.9124 11.9563 0.0000 0.0000 0.0000
# 2 3.9124 89.7458 84.0405 0.0000 0.0000 0.0000
# 3 11.9563 84.0405 266.3407 0.0000 0.0000 0.0000
# 4 0.0000 0.0000 0.0000 15.7236 0.0000 0.0000
# 5 0.0000 0.0000 0.0000 0.0000 -8.1322 0.0000
# 6 0.0000 0.0000 0.0000 0.0000 0.0000 6.6650
#
#
#
# Elastic Compliance Matrix: (Units=1/GPa)
#
#
# Indices 1 2 3 4 5 6 
#
# 1 0.031529 -0.000070 -0.001393 0.000000 0.000000 0.000000
# 2 -0.000070 0.015816 -0.004987 0.000000 0.000000 0.000000
# 3 -0.001393 -0.004987 0.005391 0.000000 0.000000 0.000000
# 4 0.000000 0.000000 0.000000 0.063599 0.000000 0.000000
# 5 0.000000 0.000000 0.000000 0.000000 -0.122968 0.000000
# 6 0.000000 0.000000 0.000000 0.000000 0.000000 0.150038
#
#
# Mechanical properties :
#
#
# Convention : Reuss Voigt Hill
#
# Bulk Modulus (GPa) = 25.10362 65.35098 45.22730
# Shear Modulus (GPa) = 29.48394 22.08003 25.78199
#
# Velocity S-wave (km/s) = 3.72706 3.22532 3.48523
# Velocity P-wave (km/s) = 5.50894 6.68277 6.12405
#
# Compressibility (1/GPa) = 0.03983490
#
# Stress axis : x y z
#
# Youngs Moduli (GPa) = 31.71685 63.22728 185.49940
#
# Poissons Ratio (x) = 0.00440 0.25847
# Poissons Ratio (y) = 0.00221 0.92516
# Poissons Ratio (z) = 0.04419 0.31534
#
# Static dielectric constant tensor:
#      x y z
#    x 1.819220 0.000000 0.000000 
#    y 0.000000 1.744050 0.000000 
#    z 0.000000 0.000000 1.864360 
# 
# From -- ./inp_files/31738.got.cif
#   From: 2010.05.17/outbox.cif.g08.bks.cpg/sg67_16_cif.got.tgz:31738.got - 2010.06.03 18:28:57.
