data_PCOD9501377
_publ_section_title
;
Structure prediction by ZEFSAII (Michael W. Deem and Ramdas Pophale) SiO2 
 PCOD9501377
Probable space group: C M M A
;
_chemical_formula_sum "Si O2"
_cell_formula_units_Z 96
_cell_length_a 28.026211
_cell_length_b 8.742924
_cell_length_c 24.350855
_cell_angle_alpha 90.000000
_cell_angle_beta 90.000000
_cell_angle_gamma 90.000000
_cell_volume 5966.715150
_symmetry_space_group_name_H-M "C M M A"
_symmetry_group_IT_number 67
_symmetry_cell_setting 'orthorhombic'
loop_
_space_group_symop_operation_xyz
x,y,z
-x,1/2-y,z
x,-y,-z
-x,1/2+y,-z
-x,-y,-z
x,1/2+y,-z
-x,y,z
x,1/2-y,z
1/2+x,1/2+y,z
1/2-x,-y,z
1/2+x,1/2-y,-z
1/2-x,y,-z
1/2-x,1/2-y,-z
1/2+x,y,-z
1/2-x,1/2+y,z
1/2+x,-y,z
loop_
_atom_site_type_symbol
_atom_site_label
_atom_site_fract_x
_atom_site_fract_y
_atom_site_fract_z
Si Si1 0.648109 0.066438 0.664381
Si Si2 0.555496 0.067104 0.940702
Si Si3 0.896549 0.432380 0.834552
Si Si4 0.198808 0.066543 0.770897
Si Si5 0.053835 0.433900 0.271575
Si Si6 0.802931 0.066928 0.559081
O O1 0.652322 0.250000 0.660147
O O2 0.594495 0.026736 0.684145
O O3 0.682280 0.006194 0.713079
O O4 0.663188 0.989047 0.607798
O O5 0.500000 0.022522 0.930225
O O6 0.557702 0.250000 0.942620
O O7 0.587845 0.005733 0.891618
O O8 0.568897 0.000000 0.000000
O O9 0.900278 0.250000 0.838362
O O10 0.842987 0.471061 0.814374
O O11 0.930823 0.491793 0.785939
O O12 0.201074 0.250000 0.765150
O O13 0.250000 0.000000 0.786498
O O14 0.055351 0.250000 0.264670
O O15 0.000000 0.477846 0.286712
O O16 0.800501 0.250000 0.556727
O O17 0.817836 0.000000 0.500000
O O18 0.750000 0.000000 0.570047
#
# Coordination Sequence:
#
# PCOD9501377 Si02
#       6
#    16  16  16  16  16  16
#     4  10  19  32  50  72  99 129 160 196 239 283
#     4  10  20  33  50  72  98 128 161 196 236 283
#     4  10  20  32  48  72 100 128 159 197 240 285
#     4  10  20  33  49  71  98 128 162 198 238 283
#     4   9  18  32  50  72  98 129 163 197 235 281
#     4  11  21  34  51  72  98 126 159 196 238 286
#
# _framework density 16.089255000000001
#
# number of rings (size 3 to 8) (size 9 to 14) (size 15 to 20)
#    0.000    2.000    0.000    5.000    0.000    6.000 
#    0.000    0.000    0.000    1.000    0.000    3.500 
#    0.000    0.000    0.000    0.000    0.000    0.000 
#
# Total GULP energy -267957.628769 kJ/mol
# GULP energy per Si atom -5582.450599 kJ/mol
# Density = 1.605264 g / cm^3
# Si number density = 16.089255 Si / 1000 Ang^3
#
#
#
# Elastic Constant Matrix: (Units=GPa)
#
#
# Indices 1 2 3 4 5 6 
#
# 1 107.4008 47.6433 78.2260 0.0000 0.0000 0.0000
# 2 47.6433 76.2715 61.4521 0.0000 0.0000 0.0000
# 3 78.2260 61.4521 146.1716 0.0000 0.0000 0.0000
# 4 0.0000 0.0000 0.0000 30.5902 0.0000 0.0000
# 5 0.0000 0.0000 0.0000 0.0000 17.5576 0.0000
# 6 0.0000 0.0000 0.0000 0.0000 0.0000 20.4520
#
#
#
# Elastic Compliance Matrix: (Units=1/GPa)
#
#
# Indices 1 2 3 4 5 6 
#
# 1 0.016335 -0.004779 -0.006733 0.000000 0.000000 0.000000
# 2 -0.004779 0.021225 -0.006366 0.000000 0.000000 0.000000
# 3 -0.006733 -0.006366 0.013121 0.000000 0.000000 0.000000
# 4 0.000000 0.000000 0.000000 0.032690 0.000000 0.000000
# 5 0.000000 0.000000 0.000000 0.000000 0.056955 0.000000
# 6 0.000000 0.000000 0.000000 0.000000 0.000000 0.048895
#
#
# Mechanical properties :
#
#
# Convention : Reuss Voigt Hill
#
# Bulk Modulus (GPa) = 66.99862 78.27628 72.63745
# Shear Modulus (GPa) = 21.74379 23.22146 22.48263
#
# Velocity S-wave (km/s) = 3.68019 3.80319 3.74220
# Velocity P-wave (km/s) = 7.73244 8.24879 7.99479
#
# Compressibility (1/GPa) = 0.01492568
#
# Stress axis : x y z
#
# Youngs Moduli (GPa) = 61.21967 47.11385 76.21652
#
# Poissons Ratio (x) = 0.22516 0.51313
# Poissons Ratio (y) = 0.29257 0.48517
# Poissons Ratio (z) = 0.41216 0.29991
#
# Static dielectric constant tensor:
#      x y z
#    x 1.540210 0.000000 0.000000 
#    y 0.000000 1.536640 0.000000 
#    z 0.000000 0.000000 1.509500 
# 
# From -- ./inp_files/39865.got.cif
#   From: 2010.05.17/outbox.cif.g08.bks.cpg/sg67_20_cif.got.tgz:39865.got - 2010.06.03 18:28:57.
