data_PCOD9501884
_publ_section_title
;
Structure prediction by ZEFSAII (Michael W. Deem and Ramdas Pophale) SiO2 
 PCOD9501884
Probable space group: C M M A
;
_chemical_formula_sum "Si O2"
_cell_formula_units_Z 88
_cell_length_a 25.326605
_cell_length_b 11.423012
_cell_length_c 14.715289
_cell_angle_alpha 90.000000
_cell_angle_beta 90.000000
_cell_angle_gamma 90.000000
_cell_volume 4257.223060
_symmetry_space_group_name_H-M "C M M A"
_symmetry_group_IT_number 67
_symmetry_cell_setting 'orthorhombic'
loop_
_space_group_symop_operation_xyz
x,y,z
-x,1/2-y,z
x,-y,-z
-x,1/2+y,-z
-x,-y,-z
x,1/2+y,-z
-x,y,z
x,1/2-y,z
1/2+x,1/2+y,z
1/2-x,-y,z
1/2+x,1/2-y,-z
1/2-x,y,-z
1/2-x,1/2-y,-z
1/2+x,y,-z
1/2-x,1/2+y,z
1/2+x,-y,z
loop_
_atom_site_type_symbol
_atom_site_label
_atom_site_fract_x
_atom_site_fract_y
_atom_site_fract_z
Si Si1 0.388864 0.441252 0.400762
Si Si2 0.273334 0.624972 0.638653
Si Si3 0.233620 0.120902 0.156645
Si Si4 0.500000 0.374020 0.450090
Si Si5 0.562627 0.117578 0.951388
Si Si6 0.115496 0.381157 0.235430
O O1 0.386099 0.500000 0.500000
O O2 0.334342 0.373624 0.387653
O O3 0.444919 0.376383 0.396463
O O4 0.388803 0.533586 0.319237
O O5 0.248057 0.750000 0.609204
O O6 0.250000 0.500000 0.606155
O O7 0.265986 0.622375 0.747930
O O8 0.241154 0.250000 0.113875
O O9 0.172596 0.110668 0.186984
O O10 0.250000 0.000000 0.108683
O O11 0.500000 0.250000 0.504209
O O12 0.500000 0.500000 0.500000
O O13 0.500000 0.121009 0.969223
O O14 0.583466 0.250000 0.975049
O O15 0.573537 0.101147 0.844581
O O16 0.584319 0.000000 0.000000
O O17 0.110154 0.250000 0.271236
#
# Coordination Sequence:
#
# PCOD9501884 Si02
#       6
#    16  16  16   8  16  16
#     4  11  23  38  58  86 122 163 212 262 303 352
#     4  10  19  35  55  79 113 154 201 254 307 351
#     4   9  16  31  52  78 113 151 195 243 293 352
#     4  10  24  44  60  78 111 158 209 264 313 360
#     4   9  19  38  65  94 122 149 192 249 309 368
#     4  10  20  36  59  88 121 162 202 242 301 374
#
# _framework density 20.670750999999999
#
# number of rings (size 3 to 8) (size 9 to 14) (size 15 to 20)
#    0.000    2.182    3.636    0.545    1.273    4.000 
#    0.000    3.636    0.000    0.545    0.000    3.818 
#    0.000    0.000    0.000    0.000    0.000    0.000 
#
# Total GULP energy -244965.644584 kJ/mol
# GULP energy per Si atom -5567.401013 kJ/mol
# Density = 2.062370 g / cm^3
# Si number density = 20.670751 Si / 1000 Ang^3
#
#
#
# Elastic Constant Matrix: (Units=GPa)
#
#
# Indices 1 2 3 4 5 6 
#
# 1 76.8294 23.6407 -2.7626 0.0000 0.0000 0.0000
# 2 23.6407 242.8886 46.5562 0.0000 0.0000 0.0000
# 3 -2.7626 46.5562 45.9197 0.0000 0.0000 0.0000
# 4 0.0000 0.0000 0.0000 38.7681 0.0000 0.0000
# 5 0.0000 0.0000 0.0000 0.0000 117.6398 0.0000
# 6 0.0000 0.0000 0.0000 0.0000 0.0000 13.6302
#
#
#
# Elastic Compliance Matrix: (Units=1/GPa)
#
#
# Indices 1 2 3 4 5 6 
#
# 1 0.013682 -0.001849 0.002697 0.000000 0.000000 0.000000
# 2 -0.001849 0.005360 -0.005546 0.000000 0.000000 0.000000
# 3 0.002697 -0.005546 0.027562 0.000000 0.000000 0.000000
# 4 0.000000 0.000000 0.000000 0.025794 0.000000 0.000000
# 5 0.000000 0.000000 0.000000 0.000000 0.008501 0.000000
# 6 0.000000 0.000000 0.000000 0.000000 0.000000 0.073366
#
#
# Mechanical properties :
#
#
# Convention : Reuss Voigt Hill
#
# Bulk Modulus (GPa) = 26.87450 55.61181 41.24315
# Shear Modulus (GPa) = 28.39912 53.88784 41.14348
#
# Velocity S-wave (km/s) = 3.71061 5.11138 4.46625
# Velocity P-wave (km/s) = 5.60246 7.86110 6.82585
#
# Compressibility (1/GPa) = 0.03720999
#
# Stress axis : x y z
#
# Youngs Moduli (GPa) = 73.09030 186.56715 36.28206
#
# Poissons Ratio (x) = 0.34491 -0.09787
# Poissons Ratio (y) = 0.13512 0.20120
# Poissons Ratio (z) = -0.19716 1.03461
#
# Static dielectric constant tensor:
#      x y z
#    x 1.755200 0.000000 0.000000 
#    y 0.000000 1.905600 0.000000 
#    z 0.000000 0.000000 1.681030 
# 
# From -- ./inp_files/29955.got.cif
#   From: 2010.05.17/outbox.cif.g08.bks.cpg/sg67_15_cif.got.tgz:29955.got - 2010.06.03 18:28:57.
