data_PCOD9501709
_publ_section_title
;
Structure prediction by ZEFSAII (Michael W. Deem and Ramdas Pophale) SiO2 
 PCOD9501709
Probable space group: C M M A
;
_chemical_formula_sum "Si O2"
_cell_formula_units_Z 72
_cell_length_a 18.974685
_cell_length_b 14.765444
_cell_length_c 15.029675
_cell_angle_alpha 90.000000
_cell_angle_beta 90.000000
_cell_angle_gamma 90.000000
_cell_volume 4210.858766
_symmetry_space_group_name_H-M "C M M A"
_symmetry_group_IT_number 67
_symmetry_cell_setting 'orthorhombic'
loop_
_space_group_symop_operation_xyz
x,y,z
-x,1/2-y,z
x,-y,-z
-x,1/2+y,-z
-x,-y,-z
x,1/2+y,-z
-x,y,z
x,1/2-y,z
1/2+x,1/2+y,z
1/2-x,-y,z
1/2+x,1/2-y,-z
1/2-x,y,-z
1/2-x,1/2-y,-z
1/2+x,y,-z
1/2-x,1/2+y,z
1/2+x,-y,z
loop_
_atom_site_type_symbol
_atom_site_label
_atom_site_fract_x
_atom_site_fract_y
_atom_site_fract_z
Si Si1 0.914940 0.945911 0.910013
Si Si2 0.142560 0.750000 0.697277
Si Si3 0.080770 0.440208 0.588869
Si Si4 0.919139 0.250000 0.113417
Si Si5 0.173450 0.042946 0.265772
Si Si6 0.914926 0.250000 0.504409
O O1 0.889250 0.842708 0.923020
O O2 0.872492 0.974997 0.822926
O O3 0.000000 0.947195 0.892461
O O4 0.902231 0.000000 0.000000
O O5 0.086320 0.750000 0.778956
O O6 0.178622 0.848567 0.713268
O O7 0.114039 0.750000 0.596414
O O8 0.078156 0.500000 0.500000
O O9 0.131341 0.491898 0.656189
O O10 0.105108 0.340331 0.558482
O O11 0.000000 0.434113 0.623736
O O12 0.000000 0.250000 0.086928
O O13 0.250000 0.000000 0.256557
O O14 0.000000 0.250000 0.496871
#
# Coordination Sequence:
#
# PCOD9501709 Si02
#       6
#    16   8  16   8  16   8
#     4   9  18  35  59  84 108 137 178 227 273 320
#     4  10  19  35  53  77 103 145 189 230 262 310
#     4  10  20  35  55  80 109 142 182 227 273 318
#     4   8  15  28  53  84 107 128 173 227 268 313
#     4  11  23  37  55  80 112 148 183 223 275 330
#     4  10  19  33  56  83 109 142 186 232 272 315
#
# _framework density 17.098649999999999
#
# number of rings (size 3 to 8) (size 9 to 14) (size 15 to 20)
#    0.000    2.222    2.222    1.000    0.000    3.556 
#    0.000    3.333    0.000    8.000    0.000    0.000 
#    0.000    0.000    0.000    0.000    0.000    0.000 
#
# Total GULP energy -200412.897742 kJ/mol
# GULP energy per Si atom -5567.024937 kJ/mol
# Density = 1.705973 g / cm^3
# Si number density = 17.098650 Si / 1000 Ang^3
#
#
#
# Elastic Constant Matrix: (Units=GPa)
#
#
# Indices 1 2 3 4 5 6 
#
# 1 72.1417 53.0957 57.6662 0.0000 0.0000 0.0000
# 2 53.0957 145.5607 71.1977 0.0000 0.0000 0.0000
# 3 57.6662 71.1977 114.4477 0.0000 0.0000 0.0000
# 4 0.0000 0.0000 0.0000 29.6685 0.0000 0.0000
# 5 0.0000 0.0000 0.0000 0.0000 -4.0969 0.0000
# 6 0.0000 0.0000 0.0000 0.0000 0.0000 -35.1526
#
#
#
# Elastic Compliance Matrix: (Units=1/GPa)
#
#
# Indices 1 2 3 4 5 6 
#
# 1 0.024902 -0.004235 -0.009913 0.000000 0.000000 0.000000
# 2 -0.004235 0.010595 -0.004457 0.000000 0.000000 0.000000
# 3 -0.009913 -0.004457 0.016505 0.000000 0.000000 0.000000
# 4 0.000000 0.000000 0.000000 0.033706 0.000000 0.000000
# 5 0.000000 0.000000 0.000000 0.000000 -0.244089 0.000000
# 6 0.000000 0.000000 0.000000 0.000000 0.000000 -0.028447
#
#
# Mechanical properties :
#
#
# Convention : Reuss Voigt Hill
#
# Bulk Modulus (GPa) = 67.60244 77.34106 72.47175
# Shear Modulus (GPa) = -34.55728 8.09649 -13.23039
#
# Velocity S-wave (km/s) = -4.50049 2.17840 -2.78469
# Velocity P-wave (km/s) = 3.55200 7.18733 5.66897
#
# Compressibility (1/GPa) = 0.01479237
#
# Stress axis : x y z
#
# Youngs Moduli (GPa) = 40.15697 94.38511 60.58683
#
# Poissons Ratio (x) = 0.39971 0.60059
# Poissons Ratio (y) = 0.17006 0.27005
# Poissons Ratio (z) = 0.39807 0.42070
#
# Static dielectric constant tensor:
#      x y z
#    x 1.571830 0.000000 0.000000 
#    y 0.000000 1.623720 0.000000 
#    z 0.000000 0.000000 1.549600 
# 
# From -- ./inp_files/28300.got.cif
#   From: 2010.05.17/outbox.cif.g08.bks.cpg/sg67_15_cif.got.tgz:28300.got - 2010.06.03 18:28:57.
