data_PCOD9501582
_publ_section_title
;
Structure prediction by ZEFSAII (Michael W. Deem and Ramdas Pophale) SiO2 
 PCOD9501582
Probable space group: C M M A
;
_chemical_formula_sum "Si O2"
_cell_formula_units_Z 96
_cell_length_a 8.278903
_cell_length_b 29.838618
_cell_length_c 21.240336
_cell_angle_alpha 90.000000
_cell_angle_beta 90.000000
_cell_angle_gamma 90.000000
_cell_volume 5247.021954
_symmetry_space_group_name_H-M "C M M A"
_symmetry_group_IT_number 67
_symmetry_cell_setting 'orthorhombic'
loop_
_space_group_symop_operation_xyz
x,y,z
-x,1/2-y,z
x,-y,-z
-x,1/2+y,-z
-x,-y,-z
x,1/2+y,-z
-x,y,z
x,1/2-y,z
1/2+x,1/2+y,z
1/2-x,-y,z
1/2+x,1/2-y,-z
1/2-x,y,-z
1/2-x,1/2-y,-z
1/2+x,y,-z
1/2-x,1/2+y,z
1/2+x,-y,z
loop_
_atom_site_type_symbol
_atom_site_label
_atom_site_fract_x
_atom_site_fract_y
_atom_site_fract_z
Si Si1 0.306835 0.551063 0.688713
Si Si2 0.307066 0.394373 0.567355
Si Si3 0.804552 0.799714 0.242923
Si Si4 0.194438 0.200665 0.387343
Si Si5 0.306589 0.449225 0.070062
Si Si6 0.697366 0.607194 0.810934
O O1 0.500000 0.551909 0.689253
O O2 0.250000 0.500000 0.690453
O O3 0.249117 0.575959 0.625885
O O4 0.250013 0.578003 0.750608
O O5 0.500000 0.393144 0.567995
O O6 0.250000 0.411855 0.500000
O O7 0.243924 0.343309 0.576999
O O8 0.756853 0.750000 0.220445
O O9 0.739372 0.804931 0.313883
O O10 0.751393 0.841625 0.200947
O O11 0.000000 0.800963 0.246624
O O12 0.255222 0.250000 0.407769
O O13 0.000000 0.201218 0.392476
O O14 0.500000 0.449308 0.070437
O O15 0.250000 0.500000 0.083088
O O16 0.247643 0.415970 0.124679
O O17 0.250000 0.436942 0.000000
O O18 0.500000 0.606796 0.811691
#
# Coordination Sequence:
#
# PCOD9501582 Si02
#       6
#    16  16  16  16  16  16
#     4  11  22  38  57  78 104 132 171 218 264 313
#     4  11  23  38  55  76 103 138 175 214 262 313
#     4   9  16  29  52  79 104 133 170 209 254 306
#     4   9  18  33  52  76 106 135 166 210 261 310
#     4  10  19  33  51  75 108 141 175 212 254 304
#     4   9  18  32  53  80 108 136 169 213 257 302
#
# _framework density 18.296092999999999
#
# number of rings (size 3 to 8) (size 9 to 14) (size 15 to 20)
#    0.000    2.167    1.667    2.500    0.000    1.333 
#    0.000    5.833    0.000    0.500    0.000    0.000 
#    0.000    0.000    0.000    0.000    0.000    0.667 
#
# Total GULP energy -267872.742691 kJ/mol
# GULP energy per Si atom -5580.682139 kJ/mol
# Density = 1.825445 g / cm^3
# Si number density = 18.296093 Si / 1000 Ang^3
#
#
#
# Elastic Constant Matrix: (Units=GPa)
#
#
# Indices 1 2 3 4 5 6 
#
# 1 25.2464 13.1517 10.2561 0.0000 0.0000 0.0000
# 2 13.1517 135.6582 78.0290 0.0000 0.0000 0.0000
# 3 10.2561 78.0290 121.4310 0.0000 0.0000 0.0000
# 4 0.0000 0.0000 0.0000 24.7968 0.0000 0.0000
# 5 0.0000 0.0000 0.0000 0.0000 16.5731 0.0000
# 6 0.0000 0.0000 0.0000 0.0000 0.0000 3.1124
#
#
#
# Elastic Compliance Matrix: (Units=1/GPa)
#
#
# Indices 1 2 3 4 5 6 
#
# 1 0.041882 -0.003213 -0.001473 0.000000 0.000000 0.000000
# 2 -0.003213 0.011940 -0.007401 0.000000 0.000000 0.000000
# 3 -0.001473 -0.007401 0.013115 0.000000 0.000000 0.000000
# 4 0.000000 0.000000 0.000000 0.040328 0.000000 0.000000
# 5 0.000000 0.000000 0.000000 0.000000 0.060339 0.000000
# 6 0.000000 0.000000 0.000000 0.000000 0.000000 0.321300
#
#
# Mechanical properties :
#
#
# Convention : Reuss Voigt Hill
#
# Bulk Modulus (GPa) = 23.38456 53.91214 38.64835
# Shear Modulus (GPa) = 9.48170 20.95636 15.21903
#
# Velocity S-wave (km/s) = 2.27895 3.38805 2.88726
# Velocity P-wave (km/s) = 4.44227 6.69594 5.68196
#
# Compressibility (1/GPa) = 0.04276326
#
# Stress axis : x y z
#
# Youngs Moduli (GPa) = 23.87674 83.75256 76.24738
#
# Poissons Ratio (x) = 0.26912 0.11228
# Poissons Ratio (y) = 0.07672 0.56430
# Poissons Ratio (z) = 0.03516 0.61985
#
# Static dielectric constant tensor:
#      x y z
#    x 1.628340 0.000000 0.000000 
#    y 0.000000 1.653560 0.000000 
#    z 0.000000 0.000000 1.608010 
# 
# From -- ./inp_files/37145.got.cif
#   From: 2010.05.17/outbox.cif.g08.bks.cpg/sg67_19_cif.got.tgz:37145.got - 2010.06.03 18:28:57.
