data_PCOD9501122
_publ_section_title
;
Structure prediction by ZEFSAII (Michael W. Deem and Ramdas Pophale) SiO2 
 PCOD9501122
Probable space group: C M M A
;
_chemical_formula_sum "Si O2"
_cell_formula_units_Z 80
_cell_length_a 33.759437
_cell_length_b 26.368416
_cell_length_c 5.054476
_cell_angle_alpha 90.000000
_cell_angle_beta 90.000000
_cell_angle_gamma 90.000000
_cell_volume 4499.407996
_symmetry_space_group_name_H-M "C M M A"
_symmetry_group_IT_number 67
_symmetry_cell_setting 'orthorhombic'
loop_
_space_group_symop_operation_xyz
x,y,z
-x,1/2-y,z
x,-y,-z
-x,1/2+y,-z
-x,-y,-z
x,1/2+y,-z
-x,y,z
x,1/2-y,z
1/2+x,1/2+y,z
1/2-x,-y,z
1/2+x,1/2-y,-z
1/2-x,y,-z
1/2-x,1/2-y,-z
1/2+x,y,-z
1/2-x,1/2+y,z
1/2+x,-y,z
loop_
_atom_site_type_symbol
_atom_site_label
_atom_site_fract_x
_atom_site_fract_y
_atom_site_fract_z
Si Si1 0.090491 0.055131 0.406100
Si Si2 0.277129 0.691821 0.241540
Si Si3 0.095585 0.807638 0.070093
Si Si4 0.360209 0.655064 0.432799
Si Si5 0.953912 0.908006 0.100383
O O1 0.124694 0.097247 0.434553
O O2 0.055933 0.070389 0.611367
O O3 0.104056 0.000000 0.500000
O O4 0.072298 0.061469 0.114216
O O5 0.289303 0.750000 0.172873
O O6 0.250000 0.693806 0.500000
O O7 0.316080 0.661388 0.324524
O O8 0.250000 0.672558 0.000000
O O9 0.082851 0.750000 0.113931
O O10 0.130421 0.821797 0.279109
O O11 0.061669 0.849974 0.102664
O O12 0.112291 0.815149 0.775937
O O13 0.000000 0.911346 0.037556
#
# Coordination Sequence:
#
# PCOD9501122 Si02
#       5
#    16  16  16  16  16
#     4  10  21  36  54  74  96 131 172 211 257 298
#     4  10  19  30  48  75 104 131 157 192 242 292
#     4  10  19  32  51  72 100 138 170 201 246 300
#     4  10  20  34  51  74 102 131 170 209 243 298
#     4  10  21  34  50  76 103 128 167 213 256 303
#
# _framework density 17.780114999999999
#
# number of rings (size 3 to 8) (size 9 to 14) (size 15 to 20)
#    0.000    2.000    0.000    4.200    0.000    4.400 
#    0.000    0.000    0.000    7.800    0.000    1.400 
#    0.000    0.000    0.000    0.000    0.000    0.000 
#
# Total GULP energy -223198.013214 kJ/mol
# GULP energy per Si atom -5579.950330 kJ/mol
# Density = 1.773965 g / cm^3
# Si number density = 17.780115 Si / 1000 Ang^3
#
#
#
# Elastic Constant Matrix: (Units=GPa)
#
#
# Indices 1 2 3 4 5 6 
#
# 1 61.3453 31.7202 0.9778 0.0000 0.0000 0.0000
# 2 31.7202 106.9688 17.1030 0.0000 0.0000 0.0000
# 3 0.9778 17.1030 72.4620 0.0000 0.0000 0.0000
# 4 0.0000 0.0000 0.0000 -31.2807 0.0000 0.0000
# 5 0.0000 0.0000 0.0000 0.0000 21.7624 0.0000
# 6 0.0000 0.0000 0.0000 0.0000 0.0000 6.9586
#
#
#
# Elastic Compliance Matrix: (Units=1/GPa)
#
#
# Indices 1 2 3 4 5 6 
#
# 1 0.019343 -0.005917 0.001136 0.000000 0.000000 0.000000
# 2 -0.005917 0.011525 -0.002640 0.000000 0.000000 0.000000
# 3 0.001136 -0.002640 0.014408 0.000000 0.000000 0.000000
# 4 0.000000 0.000000 0.000000 -0.031969 0.000000 0.000000
# 5 0.000000 0.000000 0.000000 0.000000 0.045951 0.000000
# 6 0.000000 0.000000 0.000000 0.000000 0.000000 0.143707
#
#
# Mechanical properties :
#
#
# Convention : Reuss Voigt Hill
#
# Bulk Modulus (GPa) = 32.86015 37.81979 35.33997
# Shear Modulus (GPa) = 21.93421 12.21974 17.07697
#
# Velocity S-wave (km/s) = 3.51613 2.62443 3.10248
# Velocity P-wave (km/s) = 5.91656 5.52273 5.72303
#
# Compressibility (1/GPa) = 0.03043200
#
# Stress axis : x y z
#
# Youngs Moduli (GPa) = 51.69878 86.76461 69.40479
#
# Poissons Ratio (x) = 0.51342 -0.07882
# Poissons Ratio (y) = 0.30592 0.18326
# Poissons Ratio (z) = -0.05871 0.22910
#
# Static dielectric constant tensor:
#      x y z
#    x 1.583730 0.000000 0.000000 
#    y 0.000000 1.620270 0.000000 
#    z 0.000000 0.000000 1.611360 
# 
# From -- ./inp_files/3549.got.cif
#   From: 2010.05.17/outbox.cif.g08.bks.cpg/sg67_2_cif.got.tgz:3549.got - 2010.06.03 18:28:57.
