data_PCOD9501091
_publ_section_title
;
Structure prediction by ZEFSAII (Michael W. Deem and Ramdas Pophale) SiO2 
 PCOD9501091
Probable space group: C M M A
;
_chemical_formula_sum "Si O2"
_cell_formula_units_Z 88
_cell_length_a 25.548503
_cell_length_b 39.719854
_cell_length_c 5.009211
_cell_angle_alpha 90.000000
_cell_angle_beta 90.000000
_cell_angle_gamma 90.000000
_cell_volume 5083.261210
_symmetry_space_group_name_H-M "C M M A"
_symmetry_group_IT_number 67
_symmetry_cell_setting 'orthorhombic'
loop_
_space_group_symop_operation_xyz
x,y,z
-x,1/2-y,z
x,-y,-z
-x,1/2+y,-z
-x,-y,-z
x,1/2+y,-z
-x,y,z
x,1/2-y,z
1/2+x,1/2+y,z
1/2-x,-y,z
1/2+x,1/2-y,-z
1/2-x,y,-z
1/2-x,1/2-y,-z
1/2+x,y,-z
1/2-x,1/2+y,z
1/2+x,-y,z
loop_
_atom_site_type_symbol
_atom_site_label
_atom_site_fract_x
_atom_site_fract_y
_atom_site_fract_z
Si Si1 0.842937 0.678678 0.173783
Si Si2 0.196575 0.139488 0.332901
Si Si3 0.289404 0.250000 0.242529
Si Si4 0.439685 0.864708 0.882613
Si Si5 0.439805 0.976838 0.240124
Si Si6 0.898979 0.595804 0.625742
O O1 0.833857 0.664036 0.467293
O O2 0.824942 0.716936 0.203453
O O3 0.902467 0.668181 0.109506
O O4 0.807566 0.658301 0.954000
O O5 0.250000 0.133864 0.500000
O O6 0.161215 0.106128 0.319316
O O7 0.250000 0.250000 0.500000
O O8 0.250000 0.250000 0.000000
O O9 0.500000 0.857705 0.822116
O O10 0.416057 0.891234 0.666670
O O11 0.433196 0.882500 0.167323
O O12 0.500000 0.967303 0.168052
O O13 0.409579 0.942960 0.313011
O O14 0.441343 0.000000 0.500000
O O15 0.418834 0.000000 0.000000
#
# Coordination Sequence:
#
# PCOD9501091 Si02
#       6
#    16  16   8  16  16  16
#     4  10  21  33  50  77 101 129 167 204 249 304
#     4  10  19  34  53  74 100 127 165 212 252 290
#     4  12  22  34  53  74 103 134 162 204 255 298
#     4  10  19  33  52  73 101 132 167 209 250 296
#     4  10  19  30  46  70 101 131 159 197 246 297
#     4  10  20  32  51  76  99 131 170 207 250 302
#
# _framework density 17.311720999999999
#
# number of rings (size 3 to 8) (size 9 to 14) (size 15 to 20)
#    0.000    1.818    0.000    6.000    0.000    1.455 
#    0.000    0.455    0.000    0.545    0.000   10.182 
#    0.000    0.000    0.000    0.000    0.000    0.000 
#
# Total GULP energy -245107.207348 kJ/mol
# GULP energy per Si atom -5570.618349 kJ/mol
# Density = 1.727232 g / cm^3
# Si number density = 17.311721 Si / 1000 Ang^3
#
#
#
# Elastic Constant Matrix: (Units=GPa)
#
#
# Indices 1 2 3 4 5 6 
#
# 1 88.0625 49.5623 -6.1864 0.0000 0.0000 0.0000
# 2 49.5623 129.3135 5.8310 0.0000 0.0000 0.0000
# 3 -6.1864 5.8310 80.4991 0.0000 0.0000 0.0000
# 4 0.0000 0.0000 0.0000 18.6810 0.0000 0.0000
# 5 0.0000 0.0000 0.0000 0.0000 36.3385 0.0000
# 6 0.0000 0.0000 0.0000 0.0000 0.0000 24.0632
#
#
#
# Elastic Compliance Matrix: (Units=1/GPa)
#
#
# Indices 1 2 3 4 5 6 
#
# 1 0.014666 -0.005691 0.001539 0.000000 0.000000 0.000000
# 2 -0.005691 0.009966 -0.001159 0.000000 0.000000 0.000000
# 3 0.001539 -0.001159 0.012625 0.000000 0.000000 0.000000
# 4 0.000000 0.000000 0.000000 0.053530 0.000000 0.000000
# 5 0.000000 0.000000 0.000000 0.000000 0.027519 0.000000
# 6 0.000000 0.000000 0.000000 0.000000 0.000000 0.041557
#
#
# Mechanical properties :
#
#
# Convention : Reuss Voigt Hill
#
# Bulk Modulus (GPa) = 37.54242 44.03211 40.78727
# Shear Modulus (GPa) = 27.87622 32.39443 30.13532
#
# Velocity S-wave (km/s) = 4.01715 4.33048 4.17675
# Velocity P-wave (km/s) = 6.57646 7.10592 6.84631
#
# Compressibility (1/GPa) = 0.02663654
#
# Stress axis : x y z
#
# Youngs Moduli (GPa) = 68.18279 100.33620 79.20940
#
# Poissons Ratio (x) = 0.57098 -0.12193
# Poissons Ratio (y) = 0.38801 0.09182
# Poissons Ratio (z) = -0.10496 0.11632
#
# Static dielectric constant tensor:
#      x y z
#    x 1.637670 0.000000 0.000000 
#    y 0.000000 1.762210 0.000000 
#    z 0.000000 0.000000 1.559750 
# 
# From -- ./inp_files/4294.got.cif
#   From: 2010.05.17/outbox.cif.g08.bks.cpg/sg67_3_cif.got.tgz:4294.got - 2010.06.03 18:28:57.
