data_PCOD9501400
_publ_section_title
;
Structure prediction by ZEFSAII (Michael W. Deem and Ramdas Pophale) SiO2 
 PCOD9501400
Probable space group: C M M A
;
_chemical_formula_sum "Si O2"
_cell_formula_units_Z 72
_cell_length_a 16.562179
_cell_length_b 8.173134
_cell_length_c 26.399302
_cell_angle_alpha 90.000000
_cell_angle_beta 90.000000
_cell_angle_gamma 90.000000
_cell_volume 3573.539094
_symmetry_space_group_name_H-M "C M M A"
_symmetry_group_IT_number 67
_symmetry_cell_setting 'orthorhombic'
loop_
_space_group_symop_operation_xyz
x,y,z
-x,1/2-y,z
x,-y,-z
-x,1/2+y,-z
-x,-y,-z
x,1/2+y,-z
-x,y,z
x,1/2-y,z
1/2+x,1/2+y,z
1/2-x,-y,z
1/2+x,1/2-y,-z
1/2-x,y,-z
1/2-x,1/2-y,-z
1/2+x,y,-z
1/2-x,1/2+y,z
1/2+x,-y,z
loop_
_atom_site_type_symbol
_atom_site_label
_atom_site_fract_x
_atom_site_fract_y
_atom_site_fract_z
Si Si1 0.095288 0.437973 0.659582
Si Si2 0.343498 0.946011 0.878762
Si Si3 0.500000 0.055967 0.941927
Si Si4 0.157241 0.054307 0.553454
Si Si5 0.842308 0.052263 0.765564
O O1 0.127947 0.250000 0.660456
O O2 0.124403 0.513626 0.606755
O O3 0.117105 0.511857 0.714132
O O4 0.000000 0.429211 0.656711
O O5 0.340965 0.750000 0.878355
O O6 0.366948 0.005217 0.821741
O O7 0.250000 0.000000 0.889789
O O8 0.416556 0.997239 0.915403
O O9 0.500000 0.250000 0.939633
O O10 0.500000 0.000000 0.000000
O O11 0.150947 0.250000 0.554405
O O12 0.118975 0.000000 0.500000
O O13 0.250000 0.000000 0.552090
O O14 0.851843 0.250000 0.766205
O O15 0.750000 0.000000 0.761109
#
# Coordination Sequence:
#
# PCOD9501400 Si02
#       5
#    16  16   8  16  16
#     4   9  18  31  49  75 104 137 177 219 271 332
#     4  10  21  39  64  95 127 165 207 252 306 363
#     4  12  26  44  66  94 128 166 209 256 301 356
#     4  10  19  32  51  71  94 130 173 222 270 326
#     4   9  18  33  57  82 110 145 184 230 278 337
#
# _framework density 20.148094
#
# number of rings (size 3 to 8) (size 9 to 14) (size 15 to 20)
#    0.000    2.222    0.000    3.667    1.556    1.778 
#    0.000    3.333    0.000    4.667    0.000    0.000 
#    0.000    0.000    0.000    0.000    0.000    0.000 
#
# Total GULP energy -200506.789356 kJ/mol
# GULP energy per Si atom -5569.633038 kJ/mol
# Density = 2.010224 g / cm^3
# Si number density = 20.148094 Si / 1000 Ang^3
#
#
#
# Elastic Constant Matrix: (Units=GPa)
#
#
# Indices 1 2 3 4 5 6 
#
# 1 82.5386 15.6400 106.0229 0.0000 0.0000 0.0000
# 2 15.6400 45.6435 26.8106 0.0000 0.0000 0.0000
# 3 106.0229 26.8106 224.9070 0.0000 0.0000 0.0000
# 4 0.0000 0.0000 0.0000 16.6711 0.0000 0.0000
# 5 0.0000 0.0000 0.0000 0.0000 102.5366 0.0000
# 6 0.0000 0.0000 0.0000 0.0000 0.0000 25.0651
#
#
#
# Elastic Compliance Matrix: (Units=1/GPa)
#
#
# Indices 1 2 3 4 5 6 
#
# 1 0.030915 -0.002186 -0.014313 0.000000 0.000000 0.000000
# 2 -0.002186 0.023713 -0.001796 0.000000 0.000000 0.000000
# 3 -0.014313 -0.001796 0.011408 0.000000 0.000000 0.000000
# 4 0.000000 0.000000 0.000000 0.059984 0.000000 0.000000
# 5 0.000000 0.000000 0.000000 0.000000 0.009753 0.000000
# 6 0.000000 0.000000 0.000000 0.000000 0.000000 0.039896
#
#
# Mechanical properties :
#
#
# Convention : Reuss Voigt Hill
#
# Bulk Modulus (GPa) = 33.96119 72.22623 53.09371
# Shear Modulus (GPa) = 22.51492 42.49559 32.50525
#
# Velocity S-wave (km/s) = 3.34649 4.59754 4.02097
# Velocity P-wave (km/s) = 5.64131 8.00679 6.92579
#
# Compressibility (1/GPa) = 0.02944538
#
# Stress axis : x y z
#
# Youngs Moduli (GPa) = 32.34636 42.17085 87.65971
#
# Poissons Ratio (x) = 0.09218 1.25469
# Poissons Ratio (y) = 0.07071 0.15746
# Poissons Ratio (z) = 0.46298 0.07575
#
# Static dielectric constant tensor:
#      x y z
#    x 1.674380 0.000000 0.000000 
#    y 0.000000 1.743590 0.000000 
#    z 0.000000 0.000000 1.745330 
# 
# From -- ./inp_files/40481.got.cif
#   From: 2010.05.17/outbox.cif.g08.bks.cpg/sg67_21_cif.got.tgz:40481.got - 2010.06.03 18:28:57.
