data_PCOD9501452
_publ_section_title
;
Structure prediction by ZEFSAII (Michael W. Deem and Ramdas Pophale) SiO2 
 PCOD9501452
Probable space group: C M M A
;
_chemical_formula_sum "Si O2"
_cell_formula_units_Z 128
_cell_length_a 19.662210
_cell_length_b 17.749786
_cell_length_c 21.255209
_cell_angle_alpha 90.000000
_cell_angle_beta 90.000000
_cell_angle_gamma 90.000000
_cell_volume 7418.068362
_symmetry_space_group_name_H-M "C M M A"
_symmetry_group_IT_number 67
_symmetry_cell_setting 'orthorhombic'
loop_
_space_group_symop_operation_xyz
x,y,z
-x,1/2-y,z
x,-y,-z
-x,1/2+y,-z
-x,-y,-z
x,1/2+y,-z
-x,y,z
x,1/2-y,z
1/2+x,1/2+y,z
1/2-x,-y,z
1/2+x,1/2-y,-z
1/2-x,y,-z
1/2-x,1/2-y,-z
1/2+x,y,-z
1/2-x,1/2+y,z
1/2+x,-y,z
loop_
_atom_site_type_symbol
_atom_site_label
_atom_site_fract_x
_atom_site_fract_y
_atom_site_fract_z
Si Si1 0.282502 0.082487 0.314270
Si Si2 0.423302 0.889867 0.236060
Si Si3 0.718380 0.659030 0.434135
Si Si4 0.922906 0.659627 0.123696
Si Si5 0.716608 0.661785 0.193200
Si Si6 0.785528 0.341669 0.936564
Si Si7 0.077724 0.066855 0.748577
Si Si8 0.075980 0.158948 0.380955
O O1 0.261293 0.129769 0.375035
O O2 0.249615 0.118106 0.251490
O O3 0.363185 0.079762 0.301964
O O4 0.250000 0.000000 0.321445
O O5 0.500000 0.866807 0.218899
O O6 0.364044 0.850278 0.197685
O O7 0.413720 0.870088 0.309847
O O8 0.417192 0.979854 0.230115
O O9 0.719412 0.750000 0.433757
O O10 0.750000 0.632900 0.500000
O O11 0.639976 0.634863 0.422850
O O12 0.918454 0.750000 0.132649
O O13 0.864089 0.637223 0.075004
O O14 0.911024 0.619612 0.190707
O O15 0.000000 0.641587 0.103532
O O16 0.732843 0.750000 0.200121
O O17 0.745702 0.635166 0.126515
O O18 0.783122 0.250000 0.938717
O O19 0.750000 0.369733 0.000000
O O20 0.000000 0.078951 0.726033
O O21 0.076652 0.250000 0.378295
O O22 0.000000 0.135417 0.401626
#
# Coordination Sequence:
#
# PCOD9501452 Si02
#       8
#    16  16  16  16  16  16  16  16
#     4  12  21  34  55  80 106 139 178 220 264 319
#     4  10  19  32  51  78 109 138 170 218 273 322
#     4  10  21  36  53  77 108 140 177 223 269 315
#     4   9  17  30  50  74 100 136 179 216 258 318
#     4  11  20  32  54  81 107 135 174 225 270 314
#     4   9  18  32  50  75 106 137 173 219 267 312
#     4  10  20  33  51  77 109 140 174 219 268 314
#     4   9  16  29  51  76 103 136 172 208 258 324
#
# _framework density 17.255165999999999
#
# number of rings (size 3 to 8) (size 9 to 14) (size 15 to 20)
#    0.000    2.000    3.750    0.750    0.000    1.500 
#    0.000    1.250    0.000    6.375    0.000    7.000 
#    0.000    0.000    0.000    0.000    0.000    0.000 
#
# Total GULP energy -356876.724174 kJ/mol
# GULP energy per Si atom -5576.198815 kJ/mol
# Density = 1.721589 g / cm^3
# Si number density = 17.255166 Si / 1000 Ang^3
#
#
#
# Elastic Constant Matrix: (Units=GPa)
#
#
# Indices 1 2 3 4 5 6 
#
# 1 145.7419 12.8406 65.9528 0.0000 0.0000 0.0000
# 2 12.8406 14.6827 12.7581 0.0000 0.0000 0.0000
# 3 65.9528 12.7581 102.2160 0.0000 0.0000 0.0000
# 4 0.0000 0.0000 0.0000 -17.6983 0.0000 0.0000
# 5 0.0000 0.0000 0.0000 0.0000 25.3923 0.0000
# 6 0.0000 0.0000 0.0000 0.0000 0.0000 14.7481
#
#
#
# Elastic Compliance Matrix: (Units=1/GPa)
#
#
# Indices 1 2 3 4 5 6 
#
# 1 0.009846 -0.003466 -0.005920 0.000000 0.000000 0.000000
# 2 -0.003466 0.077613 -0.007451 0.000000 0.000000 0.000000
# 3 -0.005920 -0.007451 0.014533 0.000000 0.000000 0.000000
# 4 0.000000 0.000000 0.000000 -0.056503 0.000000 0.000000
# 5 0.000000 0.000000 0.000000 0.000000 0.039382 0.000000
# 6 0.000000 0.000000 0.000000 0.000000 0.000000 0.067806
#
#
# Mechanical properties :
#
#
# Convention : Reuss Voigt Hill
#
# Bulk Modulus (GPa) = 14.63759 49.52707 32.08233
# Shear Modulus (GPa) = 23.90927 15.89434 19.90180
#
# Velocity S-wave (km/s) = 3.72644 3.03831 3.39983
# Velocity P-wave (km/s) = 5.19775 6.40886 5.83481
#
# Compressibility (1/GPa) = 0.06831726
#
# Stress axis : x y z
#
# Youngs Moduli (GPa) = 101.56454 12.88447 68.80863
#
# Poissons Ratio (x) = 0.04466 0.40736
# Poissons Ratio (y) = 0.35207 0.51266
# Poissons Ratio (z) = 0.60129 0.09600
#
# Static dielectric constant tensor:
#      x y z
#    x 1.630790 0.000000 0.000000 
#    y 0.000000 1.578760 0.000000 
#    z 0.000000 0.000000 1.546300 
# 
# From -- ./inp_files/39406.got.cif
#   From: 2010.05.17/outbox.cif.g08.bks.cpg/sg67_20_cif.got.tgz:39406.got - 2010.06.03 18:28:57.
