data_PCOD9501264
_publ_section_title
;
Structure prediction by ZEFSAII (Michael W. Deem and Ramdas Pophale) SiO2 
 PCOD9501264
Probable space group: C M M A
;
_chemical_formula_sum "Si O2"
_cell_formula_units_Z 72
_cell_length_a 25.914418
_cell_length_b 8.557441
_cell_length_c 17.259062
_cell_angle_alpha 90.000000
_cell_angle_beta 90.000000
_cell_angle_gamma 90.000000
_cell_volume 3827.388627
_symmetry_space_group_name_H-M "C M M A"
_symmetry_group_IT_number 67
_symmetry_cell_setting 'orthorhombic'
loop_
_space_group_symop_operation_xyz
x,y,z
-x,1/2-y,z
x,-y,-z
-x,1/2+y,-z
-x,-y,-z
x,1/2+y,-z
-x,y,z
x,1/2-y,z
1/2+x,1/2+y,z
1/2-x,-y,z
1/2+x,1/2-y,-z
1/2-x,y,-z
1/2-x,1/2-y,-z
1/2+x,y,-z
1/2-x,1/2+y,z
1/2+x,-y,z
loop_
_atom_site_type_symbol
_atom_site_label
_atom_site_fract_x
_atom_site_fract_y
_atom_site_fract_z
Si Si1 0.803754 0.562406 0.250292
Si Si2 0.942846 0.936799 0.873991
Si Si3 0.417079 0.061624 0.295009
Si Si4 0.000000 0.436986 0.412971
Si Si5 0.334523 0.935089 0.919649
O O1 0.801682 0.750000 0.247637
O O2 0.750000 0.500000 0.282077
O O3 0.856179 0.520831 0.295550
O O4 0.810798 0.503841 0.161203
O O5 0.936801 0.750000 0.881150
O O6 0.000000 0.980922 0.902163
O O7 0.938804 0.985688 0.783786
O O8 0.895044 0.021365 0.914130
O O9 0.421727 0.250000 0.289203
O O10 0.450239 0.000249 0.366351
O O11 0.000000 0.500000 0.500000
O O12 0.000000 0.250000 0.412055
O O13 0.329044 0.750000 0.920171
O O14 0.313233 0.000000 0.000000
#
# Coordination Sequence:
#
# PCOD9501264 Si02
#       5
#    16  16  16   8  16
#     4   9  20  36  56  81 107 143 188 232 280 328
#     4  10  19  31  50  75 102 138 184 226 274 333
#     4  10  20  36  57  83 116 149 183 226 271 322
#     4  12  24  38  60  92 123 154 183 216 268 322
#     4  10  21  35  49  70 101 139 184 234 290 339
#
# _framework density 18.811782999999998
#
# number of rings (size 3 to 8) (size 9 to 14) (size 15 to 20)
#    0.000    2.000    1.111    4.333    0.000    7.556 
#    0.000    2.222    0.000    0.667    0.000    4.667 
#    0.000    0.000    0.000    0.000    0.000    0.000 
#
# Total GULP energy -201010.861667 kJ/mol
# GULP energy per Si atom -5583.635046 kJ/mol
# Density = 1.876897 g / cm^3
# Si number density = 18.811783 Si / 1000 Ang^3
#
#
#
# Elastic Constant Matrix: (Units=GPa)
#
#
# Indices 1 2 3 4 5 6 
#
# 1 139.2113 18.4953 34.2231 0.0000 0.0000 0.0000
# 2 18.4953 39.5836 10.0922 0.0000 0.0000 0.0000
# 3 34.2231 10.0922 95.6807 0.0000 0.0000 0.0000
# 4 0.0000 0.0000 0.0000 27.4534 0.0000 0.0000
# 5 0.0000 0.0000 0.0000 0.0000 60.4900 0.0000
# 6 0.0000 0.0000 0.0000 0.0000 0.0000 23.9340
#
#
#
# Elastic Compliance Matrix: (Units=1/GPa)
#
#
# Indices 1 2 3 4 5 6 
#
# 1 0.008250 -0.003188 -0.002614 0.000000 0.000000 0.000000
# 2 -0.003188 0.027193 -0.001728 0.000000 0.000000 0.000000
# 3 -0.002614 -0.001728 0.011569 0.000000 0.000000 0.000000
# 4 0.000000 0.000000 0.000000 0.036425 0.000000 0.000000
# 5 0.000000 0.000000 0.000000 0.000000 0.016532 0.000000
# 6 0.000000 0.000000 0.000000 0.000000 0.000000 0.041782
#
#
# Mechanical properties :
#
#
# Convention : Reuss Voigt Hill
#
# Bulk Modulus (GPa) = 31.29825 44.45520 37.87672
# Shear Modulus (GPa) = 29.85765 36.48648 33.17206
#
# Velocity S-wave (km/s) = 3.98826 4.40882 4.20380
# Velocity P-wave (km/s) = 6.15484 7.04271 6.61369
#
# Compressibility (1/GPa) = 0.03195067
#
# Stress axis : x y z
#
# Youngs Moduli (GPa) = 121.21794 36.77399 86.43913
#
# Poissons Ratio (x) = 0.11724 0.22599
# Poissons Ratio (y) = 0.38645 0.14936
# Poissons Ratio (z) = 0.31692 0.06354
#
# Static dielectric constant tensor:
#      x y z
#    x 1.678290 0.000000 0.000000 
#    y 0.000000 1.633180 0.000000 
#    z 0.000000 0.000000 1.646460 
# 
# From -- ./inp_files/25082.got.cif
#   From: 2010.05.17/outbox.cif.g08.bks.cpg/sg67_13_cif.got.tgz:25082.got - 2010.06.03 18:28:57.
