data_PCOD9501317
_publ_section_title
;
Structure prediction by ZEFSAII (Michael W. Deem and Ramdas Pophale) SiO2 
 PCOD9501317
Probable space group: C M M A
;
_chemical_formula_sum "Si O2"
_cell_formula_units_Z 96
_cell_length_a 15.175155
_cell_length_b 14.485102
_cell_length_c 22.273698
_cell_angle_alpha 90.000000
_cell_angle_beta 90.000000
_cell_angle_gamma 90.000000
_cell_volume 4896.063258
_symmetry_space_group_name_H-M "C M M A"
_symmetry_group_IT_number 67
_symmetry_cell_setting 'orthorhombic'
loop_
_space_group_symop_operation_xyz
x,y,z
-x,1/2-y,z
x,-y,-z
-x,1/2+y,-z
-x,-y,-z
x,1/2+y,-z
-x,y,z
x,1/2-y,z
1/2+x,1/2+y,z
1/2-x,-y,z
1/2+x,1/2-y,-z
1/2-x,y,-z
1/2-x,1/2-y,-z
1/2+x,y,-z
1/2-x,1/2+y,z
1/2+x,-y,z
loop_
_atom_site_type_symbol
_atom_site_label
_atom_site_fract_x
_atom_site_fract_y
_atom_site_fract_z
Si Si1 0.149615 0.854401 0.479512
Si Si2 0.101152 0.525726 0.592627
Si Si3 0.794677 0.356730 0.938203
Si Si4 0.000000 0.384889 0.953313
Si Si5 0.172898 0.360213 0.164564
Si Si6 0.500000 0.402768 0.912251
Si Si7 0.606729 0.640197 0.292013
O O1 0.117248 0.750000 0.466965
O O2 0.250000 0.847438 0.500000
O O3 0.103154 0.904477 0.535849
O O4 0.145964 0.929739 0.426387
O O5 0.134630 0.580892 0.650377
O O6 0.000000 0.501452 0.604519
O O7 0.766541 0.250000 0.938701
O O8 0.900535 0.357523 0.934454
O O9 0.752199 0.395669 0.877179
O O10 0.750000 0.395620 0.000000
O O11 0.000000 0.491407 0.933204
O O12 0.000000 0.355948 0.023020
O O13 0.182649 0.250000 0.172418
O O14 0.085423 0.378371 0.125720
O O15 0.155262 0.394380 0.231892
O O16 0.500000 0.631914 0.283790
O O17 0.623267 0.750000 0.301849
#
# Coordination Sequence:
#
# PCOD9501317 Si02
#       7
#    16  16  16   8  16   8  16
#     4  10  20  34  54  79 117 159 192 234 279 333
#     4  10  19  31  53  86 118 148 189 238 287 344
#     4  10  20  34  56  81 107 142 188 237 288 350
#     4  11  23  35  49  79 117 149 181 233 299 357
#     4  10  19  34  57  83 108 143 193 239 290 353
#     4  11  21  33  53  79 111 152 175 236 295 348
#     4   9  17  30  53  83 116 148 183 242 301 351
#
# _framework density 19.607589999999998
#
# number of rings (size 3 to 8) (size 9 to 14) (size 15 to 20)
#    0.000    2.000    2.500    3.000    0.000    3.333 
#    0.000    0.000    7.333    0.000    0.000    1.167 
#    0.000    0.000    0.000    0.000    0.000    0.167 
#
# Total GULP energy -267399.435750 kJ/mol
# GULP energy per Si atom -5570.821578 kJ/mol
# Density = 1.956296 g / cm^3
# Si number density = 19.607590 Si / 1000 Ang^3
#
#
#
# Elastic Constant Matrix: (Units=GPa)
#
#
# Indices 1 2 3 4 5 6 
#
# 1 82.1014 14.5993 49.4655 0.0000 0.0000 0.0000
# 2 14.5993 113.5628 54.7312 0.0000 0.0000 0.0000
# 3 49.4655 54.7312 161.6857 0.0000 0.0000 0.0000
# 4 0.0000 0.0000 0.0000 18.8721 0.0000 0.0000
# 5 0.0000 0.0000 0.0000 0.0000 30.6520 0.0000
# 6 0.0000 0.0000 0.0000 0.0000 0.0000 30.0603
#
#
#
# Elastic Compliance Matrix: (Units=1/GPa)
#
#
# Indices 1 2 3 4 5 6 
#
# 1 0.014943 0.000337 -0.004686 0.000000 0.000000 0.000000
# 2 0.000337 0.010530 -0.003668 0.000000 0.000000 0.000000
# 3 -0.004686 -0.003668 0.008860 0.000000 0.000000 0.000000
# 4 0.000000 0.000000 0.000000 0.052988 0.000000 0.000000
# 5 0.000000 0.000000 0.000000 0.000000 0.032624 0.000000
# 6 0.000000 0.000000 0.000000 0.000000 0.000000 0.033266
#
#
# Mechanical properties :
#
#
# Convention : Reuss Voigt Hill
#
# Bulk Modulus (GPa) = 54.64261 66.10468 60.37364
# Shear Modulus (GPa) = 28.51524 31.82047 30.16785
#
# Velocity S-wave (km/s) = 3.81766 4.03285 3.92673
# Velocity P-wave (km/s) = 6.88195 7.44796 7.17055
#
# Compressibility (1/GPa) = 0.01830074
#
# Stress axis : x y z
#
# Youngs Moduli (GPa) = 66.91968 94.96735 112.86788
#
# Poissons Ratio (x) = -0.03203 0.52888
# Poissons Ratio (y) = -0.02257 0.41396
# Poissons Ratio (z) = 0.31358 0.34830
#
# Static dielectric constant tensor:
#      x y z
#    x 1.717170 0.000000 0.000000 
#    y 0.000000 1.718870 0.000000 
#    z 0.000000 0.000000 1.712510 
# 
# From -- ./inp_files/38528.got.cif
#   From: 2010.05.17/outbox.cif.g08.bks.cpg/sg67_20_cif.got.tgz:38528.got - 2010.06.03 18:28:57.
