data_PCOD9501925
_publ_section_title
;
Structure prediction by ZEFSAII (Michael W. Deem and Ramdas Pophale) SiO2 
 PCOD9501925
Probable space group: C M M A
;
_chemical_formula_sum "Si O2"
_cell_formula_units_Z 128
_cell_length_a 22.086813
_cell_length_b 25.082928
_cell_length_c 10.873667
_cell_angle_alpha 90.000000
_cell_angle_beta 90.000000
_cell_angle_gamma 90.000000
_cell_volume 6024.032615
_symmetry_space_group_name_H-M "C M M A"
_symmetry_group_IT_number 67
_symmetry_cell_setting 'orthorhombic'
loop_
_space_group_symop_operation_xyz
x,y,z
-x,1/2-y,z
x,-y,-z
-x,1/2+y,-z
-x,-y,-z
x,1/2+y,-z
-x,y,z
x,1/2-y,z
1/2+x,1/2+y,z
1/2-x,-y,z
1/2+x,1/2-y,-z
1/2-x,y,-z
1/2-x,1/2-y,-z
1/2+x,y,-z
1/2-x,1/2+y,z
1/2+x,-y,z
loop_
_atom_site_type_symbol
_atom_site_label
_atom_site_fract_x
_atom_site_fract_y
_atom_site_fract_z
Si Si1 0.568593 0.090147 0.139364
Si Si2 0.066615 0.459392 0.387192
Si Si3 0.155646 0.507343 0.187403
Si Si4 0.682826 0.810149 0.512176
Si Si5 0.931447 0.130137 0.585926
Si Si6 0.928222 0.188758 0.027334
Si Si7 0.326324 0.190131 0.770840
Si Si8 0.758967 0.088085 0.140952
O O1 0.500000 0.082045 0.101451
O O2 0.607071 0.038927 0.107960
O O3 0.569926 0.096218 0.287813
O O4 0.588980 0.144788 0.074351
O O5 0.063525 0.500000 0.500000
O O6 0.120037 0.479730 0.300440
O O7 0.074788 0.404177 0.460707
O O8 0.000000 0.459167 0.324739
O O9 0.190917 0.458201 0.130357
O O10 0.204350 0.555735 0.207723
O O11 0.693436 0.750000 0.558223
O O12 0.750000 0.835777 0.500000
O O13 0.628912 0.834865 0.590607
O O14 0.658570 0.808628 0.372768
O O15 0.000000 0.154488 0.584154
O O16 0.919725 0.250000 0.984320
O O17 0.000000 0.183000 0.055884
O O18 0.885363 0.180740 0.145016
O O19 0.302803 0.250000 0.802280
O O20 0.280667 0.141264 0.791570
O O21 0.750000 0.104502 0.000000
#
# Coordination Sequence:
#
# PCOD9501925 Si02
#       8
#    16  16  16  16  16  16  16  16
#     4  10  20  36  62  94 126 165 210 259 319 374
#     4  10  19  35  58  87 120 153 200 254 304 364
#     4  11  21  37  60  85 121 168 198 250 316 370
#     4  10  23  41  61  89 130 167 204 263 326 384
#     4  10  21  37  61  92 126 168 214 263 316 376
#     4   9  19  37  62  93 127 162 208 266 318 373
#     4  10  22  43  67  91 119 160 210 258 314 376
#     4  11  25  42  60  87 124 161 209 260 309 373
#
# _framework density 21.248225000000001
#
# number of rings (size 3 to 8) (size 9 to 14) (size 15 to 20)
#    0.000    1.875    1.250    2.625    1.750    1.500 
#    0.000    5.625    0.000    7.500    0.000    0.000 
#    0.000    0.000    0.000    0.000    0.000    0.000 
#
# Total GULP energy -356765.704703 kJ/mol
# GULP energy per Si atom -5574.464136 kJ/mol
# Density = 2.119986 g / cm^3
# Si number density = 21.248225 Si / 1000 Ang^3
#
#
#
# Elastic Constant Matrix: (Units=GPa)
#
#
# Indices 1 2 3 4 5 6 
#
# 1 90.9003 37.6012 20.8191 0.0000 0.0000 0.0000
# 2 37.6012 80.0372 8.4819 0.0000 0.0000 0.0000
# 3 20.8191 8.4819 53.8525 0.0000 0.0000 0.0000
# 4 0.0000 0.0000 0.0000 26.3612 0.0000 0.0000
# 5 0.0000 0.0000 0.0000 0.0000 32.0722 0.0000
# 6 0.0000 0.0000 0.0000 0.0000 0.0000 34.0694
#
#
#
# Elastic Compliance Matrix: (Units=1/GPa)
#
#
# Indices 1 2 3 4 5 6 
#
# 1 0.014731 -0.006424 -0.004683 0.000000 0.000000 0.000000
# 2 -0.006424 0.015508 0.000041 0.000000 0.000000 0.000000
# 3 -0.004683 0.000041 0.020373 0.000000 0.000000 0.000000
# 4 0.000000 0.000000 0.000000 0.037935 0.000000 0.000000
# 5 0.000000 0.000000 0.000000 0.000000 0.031180 0.000000
# 6 0.000000 0.000000 0.000000 0.000000 0.000000 0.029352
#
#
# Mechanical properties :
#
#
# Convention : Reuss Voigt Hill
#
# Bulk Modulus (GPa) = 35.11293 39.84384 37.47839
# Shear Modulus (GPa) = 27.66951 29.02641 28.34796
#
# Velocity S-wave (km/s) = 3.61252 3.70004 3.65654
# Velocity P-wave (km/s) = 5.82764 6.08655 5.95850
#
# Compressibility (1/GPa) = 0.02847954
#
# Stress axis : x y z
#
# Youngs Moduli (GPa) = 67.88360 64.48301 49.08396
#
# Poissons Ratio (x) = 0.41426 0.22987
# Poissons Ratio (y) = 0.43611 -0.00202
# Poissons Ratio (z) = 0.31791 -0.00265
#
# Static dielectric constant tensor:
#      x y z
#    x 1.830960 0.000000 0.000000 
#    y 0.000000 1.807200 0.000000 
#    z 0.000000 0.000000 1.752450 
# 
# From -- ./inp_files/22345.got.cif
#   From: 2010.05.17/outbox.cif.g08.bks.cpg/sg67_12_cif.got.tgz:22345.got - 2010.06.03 18:28:57.
