data_PCOD9501268
_publ_section_title
;
Structure prediction by ZEFSAII (Michael W. Deem and Ramdas Pophale) SiO2 
 PCOD9501268
Probable space group: C M M A
;
_chemical_formula_sum "Si O2"
_cell_formula_units_Z 80
_cell_length_a 29.700199
_cell_length_b 17.117091
_cell_length_c 8.592822
_cell_angle_alpha 90.000000
_cell_angle_beta 90.000000
_cell_angle_gamma 90.000000
_cell_volume 4368.427519
_symmetry_space_group_name_H-M "C M M A"
_symmetry_group_IT_number 67
_symmetry_cell_setting 'orthorhombic'
loop_
_space_group_symop_operation_xyz
x,y,z
-x,1/2-y,z
x,-y,-z
-x,1/2+y,-z
-x,-y,-z
x,1/2+y,-z
-x,y,z
x,1/2-y,z
1/2+x,1/2+y,z
1/2-x,-y,z
1/2+x,1/2-y,-z
1/2-x,y,-z
1/2-x,1/2-y,-z
1/2+x,y,-z
1/2-x,1/2+y,z
1/2+x,-y,z
loop_
_atom_site_type_symbol
_atom_site_label
_atom_site_fract_x
_atom_site_fract_y
_atom_site_fract_z
Si Si1 0.197384 0.983992 0.681997
Si Si2 0.856196 0.342126 0.179610
Si Si3 0.049050 0.341150 0.319346
Si Si4 0.625551 0.928859 0.882878
Si Si5 0.448269 0.571629 0.619183
O O1 0.180624 0.898367 0.739386
O O2 0.188024 0.000000 0.500000
O O3 0.250000 0.000000 0.708506
O O4 0.168045 0.043620 0.782663
O O5 0.849844 0.250000 0.212580
O O6 0.905110 0.370400 0.243335
O O7 0.860165 0.358246 0.995356
O O8 0.047560 0.250000 0.282198
O O9 0.053240 0.354835 0.503315
O O10 0.000000 0.375443 0.272620
O O11 0.584798 0.918375 0.762943
O O12 0.614566 0.000000 0.000000
O O13 0.436670 0.500000 0.500000
O O14 0.500000 0.560122 0.669092
#
# Coordination Sequence:
#
# PCOD9501268 Si02
#       5
#    16  16  16  16  16
#     4  10  21  40  62  80 102 140 183 224 277 333
#     4  10  21  36  56  84 115 144 180 226 274 329
#     4   9  18  33  52  74 105 145 181 216 262 311
#     4  10  20  33  51  76 107 142 177 217 276 333
#     4  10  19  31  50  76 105 142 190 233 264 307
#
# _framework density 18.313226
#
# number of rings (size 3 to 8) (size 9 to 14) (size 15 to 20)
#    0.000    2.200    0.000    4.200    0.000    5.600 
#    0.000    5.000    0.000    0.000    0.000    0.000 
#    0.000    0.000    0.000    0.000    0.000    0.000 
#
# Total GULP energy -222886.306678 kJ/mol
# GULP energy per Si atom -5572.157667 kJ/mol
# Density = 1.827154 g / cm^3
# Si number density = 18.313226 Si / 1000 Ang^3
#
#
#
# Elastic Constant Matrix: (Units=GPa)
#
#
# Indices 1 2 3 4 5 6 
#
# 1 136.3662 50.6631 79.2145 0.0000 0.0000 0.0000
# 2 50.6631 61.9485 29.5398 0.0000 0.0000 0.0000
# 3 79.2145 29.5398 109.2047 0.0000 0.0000 0.0000
# 4 0.0000 0.0000 0.0000 18.1215 0.0000 0.0000
# 5 0.0000 0.0000 0.0000 0.0000 -30.1830 0.0000
# 6 0.0000 0.0000 0.0000 0.0000 0.0000 18.6179
#
#
#
# Elastic Compliance Matrix: (Units=1/GPa)
#
#
# Indices 1 2 3 4 5 6 
#
# 1 0.015857 -0.008591 -0.009178 0.000000 0.000000 0.000000
# 2 -0.008591 0.023188 -0.000040 0.000000 0.000000 0.000000
# 3 -0.009178 -0.000040 0.015826 0.000000 0.000000 0.000000
# 4 0.000000 0.000000 0.000000 0.055183 0.000000 0.000000
# 5 0.000000 0.000000 0.000000 0.000000 -0.033131 0.000000
# 6 0.000000 0.000000 0.000000 0.000000 0.000000 0.053712
#
#
# Mechanical properties :
#
#
# Convention : Reuss Voigt Hill
#
# Bulk Modulus (GPa) = 51.94653 69.59490 60.77071
# Shear Modulus (GPa) = 28.95695 11.18474 20.07084
#
# Velocity S-wave (km/s) = 3.98075 2.47401 3.31414
# Velocity P-wave (km/s) = 7.03958 6.80044 6.92104
#
# Compressibility (1/GPa) = 0.01925057
#
# Stress axis : x y z
#
# Youngs Moduli (GPa) = 63.06533 43.12589 63.18901
#
# Poissons Ratio (x) = 0.37051 0.57995
# Poissons Ratio (y) = 0.54182 0.00255
# Poissons Ratio (z) = 0.57881 0.00174
#
# Static dielectric constant tensor:
#      x y z
#    x 1.647810 0.000000 0.000000 
#    y 0.000000 1.675650 0.000000 
#    z 0.000000 0.000000 1.638130 
# 
# From -- ./inp_files/10124.got.cif
#   From: 2010.05.17/outbox.cif.g08.bks.cpg/sg67_6_cif.got.tgz:10124.got - 2010.06.03 18:28:57.
