data_PCOD9501419
_publ_section_title
;
Structure prediction by ZEFSAII (Michael W. Deem and Ramdas Pophale) SiO2 
 PCOD9501419
Probable space group: C M M A
;
_chemical_formula_sum "Si O2"
_cell_formula_units_Z 112
_cell_length_a 23.935329
_cell_length_b 28.012753
_cell_length_c 9.952831
_cell_angle_alpha 90.000000
_cell_angle_beta 90.000000
_cell_angle_gamma 90.000000
_cell_volume 6673.318039
_symmetry_space_group_name_H-M "C M M A"
_symmetry_group_IT_number 67
_symmetry_cell_setting 'orthorhombic'
loop_
_space_group_symop_operation_xyz
x,y,z
-x,1/2-y,z
x,-y,-z
-x,1/2+y,-z
-x,-y,-z
x,1/2+y,-z
-x,y,z
x,1/2-y,z
1/2+x,1/2+y,z
1/2-x,-y,z
1/2+x,1/2-y,-z
1/2-x,y,-z
1/2-x,1/2-y,-z
1/2+x,y,-z
1/2-x,1/2+y,z
1/2+x,-y,z
loop_
_atom_site_type_symbol
_atom_site_label
_atom_site_fract_x
_atom_site_fract_y
_atom_site_fract_z
Si Si1 0.564132 0.452749 0.925644
Si Si2 0.842424 0.195059 0.943494
Si Si3 0.776890 0.194805 0.208779
Si Si4 0.140086 0.453487 0.323303
Si Si5 0.751958 0.098765 0.342473
Si Si6 0.631218 0.566959 0.633045
Si Si7 0.063335 0.624682 0.161394
O O1 0.500000 0.463637 0.886234
O O2 0.598555 0.438821 0.794637
O O3 0.587259 0.500000 0.000000
O O4 0.564021 0.411628 0.036115
O O5 0.860673 0.250000 0.945583
O O6 0.783949 0.193181 0.862300
O O7 0.890140 0.163725 0.875718
O O8 0.823402 0.182630 0.095848
O O9 0.785528 0.250000 0.253725
O O10 0.773457 0.152278 0.315417
O O11 0.202774 0.437757 0.283551
O O12 0.133753 0.510452 0.338209
O O13 0.128744 0.430073 0.470219
O O14 0.750000 0.088652 0.500000
O O15 0.687990 0.089382 0.303595
O O16 0.581585 0.594297 0.707928
O O17 0.000000 0.643210 0.176472
#
# Coordination Sequence:
#
# PCOD9501419 Si02
#       7
#    16  16  16  16  16  16  16
#     4  10  20  34  50  72 102 133 171 218 259 299
#     4   9  18  33  53  76 103 134 170 215 267 315
#     4   9  17  31  53  77 102 133 166 212 267 312
#     4  10  20  34  53  71 101 143 174 208 264 310
#     4  10  19  32  51  74 104 137 171 213 262 313
#     4  10  20  34  50  74 104 136 176 215 252 316
#     4  11  21  34  54  77 104 138 175 219 262 307
#
# _framework density 16.783255
#
# number of rings (size 3 to 8) (size 9 to 14) (size 15 to 20)
#    0.000    2.143    2.857    2.143    0.000    2.857 
#    0.000    1.429    0.000    0.000    0.000    0.000 
#    0.000    2.286    0.000    0.000    0.000    0.000 
#
# Total GULP energy -311853.388276 kJ/mol
# GULP energy per Si atom -5568.810505 kJ/mol
# Density = 1.674506 g / cm^3
# Si number density = 16.783255 Si / 1000 Ang^3
#
#
#
# Elastic Constant Matrix: (Units=GPa)
#
#
# Indices 1 2 3 4 5 6 
#
# 1 92.1206 29.6369 38.8968 0.0000 0.0000 0.0000
# 2 29.6369 48.6275 7.9033 0.0000 0.0000 0.0000
# 3 38.8968 7.9033 53.2346 0.0000 0.0000 0.0000
# 4 0.0000 0.0000 0.0000 24.7797 0.0000 0.0000
# 5 0.0000 0.0000 0.0000 0.0000 3.9393 0.0000
# 6 0.0000 0.0000 0.0000 0.0000 0.0000 29.9279
#
#
#
# Elastic Compliance Matrix: (Units=1/GPa)
#
#
# Indices 1 2 3 4 5 6 
#
# 1 0.019342 -0.009726 -0.012689 0.000000 0.000000 0.000000
# 2 -0.009726 0.025964 0.003252 0.000000 0.000000 0.000000
# 3 -0.012689 0.003252 0.027573 0.000000 0.000000 0.000000
# 4 0.000000 0.000000 0.000000 0.040356 0.000000 0.000000
# 5 0.000000 0.000000 0.000000 0.000000 0.253854 0.000000
# 6 0.000000 0.000000 0.000000 0.000000 0.000000 0.033414
#
#
# Mechanical properties :
#
#
# Convention : Reuss Voigt Hill
#
# Bulk Modulus (GPa) = 28.94080 38.53963 33.74022
# Shear Modulus (GPa) = 11.10258 19.56575 15.33417
#
# Velocity S-wave (km/s) = 2.57481 3.41807 3.02596
# Velocity P-wave (km/s) = 5.11085 6.21213 5.68821
#
# Compressibility (1/GPa) = 0.03455329
#
# Stress axis : x y z
#
# Youngs Moduli (GPa) = 51.70094 38.51527 36.26719
#
# Poissons Ratio (x) = 0.37460 0.46018
# Poissons Ratio (y) = 0.50285 -0.11794
# Poissons Ratio (z) = 0.65601 -0.12525
#
# Static dielectric constant tensor:
#      x y z
#    x 1.602100 0.000000 0.000000 
#    y 0.000000 1.565390 0.000000 
#    z 0.000000 0.000000 1.567170 
# 
# From -- ./inp_files/22389.got.cif
#   From: 2010.05.17/outbox.cif.g08.bks.cpg/sg67_12_cif.got.tgz:22389.got - 2010.06.03 18:28:57.
