data_PCOD9501094
_publ_section_title
;
Structure prediction by ZEFSAII (Michael W. Deem and Ramdas Pophale) SiO2 
 PCOD9501094
Probable space group: C M M A
;
_chemical_formula_sum "Si O2"
_cell_formula_units_Z 112
_cell_length_a 16.431997
_cell_length_b 18.913043
_cell_length_c 17.866462
_cell_angle_alpha 90.000000
_cell_angle_beta 90.000000
_cell_angle_gamma 90.000000
_cell_volume 5552.522370
_symmetry_space_group_name_H-M "C M M A"
_symmetry_group_IT_number 67
_symmetry_cell_setting 'orthorhombic'
loop_
_space_group_symop_operation_xyz
x,y,z
-x,1/2-y,z
x,-y,-z
-x,1/2+y,-z
-x,-y,-z
x,1/2+y,-z
-x,y,z
x,1/2-y,z
1/2+x,1/2+y,z
1/2-x,-y,z
1/2+x,1/2-y,-z
1/2-x,y,-z
1/2-x,1/2-y,-z
1/2+x,y,-z
1/2-x,1/2+y,z
1/2+x,-y,z
loop_
_atom_site_type_symbol
_atom_site_label
_atom_site_fract_x
_atom_site_fract_y
_atom_site_fract_z
Si Si1 0.327909 0.667573 0.053910
Si Si2 0.854320 0.831585 0.356784
Si Si3 0.906960 0.672041 0.094705
Si Si4 0.658046 0.585403 0.208384
Si Si5 0.650718 0.581385 0.496359
Si Si6 0.649881 0.072643 0.219482
Si Si7 0.844875 0.830426 0.648431
O O1 0.320480 0.750000 0.077291
O O2 0.341528 0.618845 0.125629
O O3 0.250000 0.651134 0.000000
O O4 0.399941 0.661573 0.993818
O O5 0.881775 0.750000 0.353571
O O6 0.876793 0.871567 0.433280
O O7 0.883105 0.878774 0.286653
O O8 0.754769 0.829486 0.353745
O O9 0.870683 0.750000 0.111163
O O10 0.864599 0.611876 0.141556
O O11 0.000000 0.672805 0.117791
O O12 0.619197 0.507672 0.215442
O O13 0.752832 0.573077 0.228607
O O14 0.627487 0.638954 0.271753
O O15 0.623433 0.500000 0.500000
O O16 0.750000 0.580259 0.500000
O O17 0.628207 0.618811 0.418786
O O18 0.871753 0.750000 0.637095
#
# Coordination Sequence:
#
# PCOD9501094 Si02
#       7
#    16  16  16  16  16  16  16
#     4  10  19  33  53  73  96 128 170 212 254 306
#     4   9  16  25  40  60  88 128 170 202 240 299
#     4  10  21  37  55  75 101 133 170 214 262 310
#     4  10  19  30  46  71  98 129 165 210 255 307
#     4   9  15  23  35  56  89 129 164 200 245 298
#     4  10  19  31  46  70  99 129 164 208 255 306
#     4   9  16  25  39  60  91 127 165 204 246 295
#
# _framework density 20.171014
#
# number of rings (size 3 to 8) (size 9 to 14) (size 15 to 20)
#    0.000    2.429    1.429    2.143    0.000    6.857 
#    0.000    1.429    0.000    0.000    0.000    0.000 
#    0.000    6.286    0.000    6.857    0.000    0.857 
#
# Total GULP energy -312240.367481 kJ/mol
# GULP energy per Si atom -5575.720848 kJ/mol
# Density = 2.012510 g / cm^3
# Si number density = 20.171014 Si / 1000 Ang^3
#
#
#
# Elastic Constant Matrix: (Units=GPa)
#
#
# Indices 1 2 3 4 5 6 
#
# 1 7.5442 5.4961 -5.6814 0.0000 0.0000 0.0000
# 2 5.4961 199.8478 106.3366 0.0000 0.0000 0.0000
# 3 -5.6814 106.3366 142.2969 0.0000 0.0000 0.0000
# 4 0.0000 0.0000 0.0000 -31.2098 0.0000 0.0000
# 5 0.0000 0.0000 0.0000 0.0000 -2.3384 0.0000
# 6 0.0000 0.0000 0.0000 0.0000 0.0000 -1.7056
#
#
#
# Elastic Compliance Matrix: (Units=1/GPa)
#
#
# Indices 1 2 3 4 5 6 
#
# 1 0.153161 -0.012394 0.015377 0.000000 0.000000 0.000000
# 2 -0.012394 0.009310 -0.007452 0.000000 0.000000 0.000000
# 3 0.015377 -0.007452 0.013210 0.000000 0.000000 0.000000
# 4 0.000000 0.000000 0.000000 -0.032041 0.000000 0.000000
# 5 0.000000 0.000000 0.000000 0.000000 -0.427646 0.000000
# 6 0.000000 0.000000 0.000000 0.000000 0.000000 -0.586298
#
#
# Mechanical properties :
#
#
# Convention : Reuss Voigt Hill
#
# Bulk Modulus (GPa) = 5.99726 62.44351 34.22038
# Shear Modulus (GPa) = -6.20512 9.18508 1.48998
#
# Velocity S-wave (km/s) = -1.75583 2.13623 0.86039
# Velocity P-wave (km/s) = 1.06345 6.09171 4.24134
#
# Compressibility (1/GPa) = 0.16674294
#
# Stress axis : x y z
#
# Youngs Moduli (GPa) = 6.52908 107.41456 75.69906
#
# Poissons Ratio (x) = 1.33131 -1.16403
# Poissons Ratio (y) = 0.08092 0.56410
# Poissons Ratio (z) = -0.10040 0.80044
#
# Static dielectric constant tensor:
#      x y z
#    x 1.736910 0.000000 0.000000 
#    y 0.000000 1.719830 0.000000 
#    z 0.000000 0.000000 1.692240 
# 
# From -- ./inp_files/35118.got.cif
#   From: 2010.05.17/outbox.cif.g08.bks.cpg/sg67_18_cif.got.tgz:35118.got - 2010.06.03 18:28:57.
