data_PCOD9501455
_publ_section_title
;
Structure prediction by ZEFSAII (Michael W. Deem and Ramdas Pophale) SiO2 
 PCOD9501455
Probable space group: C M M A
;
_chemical_formula_sum "Si O2"
_cell_formula_units_Z 96
_cell_length_a 14.904908
_cell_length_b 21.883912
_cell_length_c 14.586188
_cell_angle_alpha 90.000000
_cell_angle_beta 90.000000
_cell_angle_gamma 90.000000
_cell_volume 4757.689181
_symmetry_space_group_name_H-M "C M M A"
_symmetry_group_IT_number 67
_symmetry_cell_setting 'orthorhombic'
loop_
_space_group_symop_operation_xyz
x,y,z
-x,1/2-y,z
x,-y,-z
-x,1/2+y,-z
-x,-y,-z
x,1/2+y,-z
-x,y,z
x,1/2-y,z
1/2+x,1/2+y,z
1/2-x,-y,z
1/2+x,1/2-y,-z
1/2-x,y,-z
1/2-x,1/2-y,-z
1/2+x,y,-z
1/2-x,1/2+y,z
1/2+x,-y,z
loop_
_atom_site_type_symbol
_atom_site_label
_atom_site_fract_x
_atom_site_fract_y
_atom_site_fract_z
Si Si1 0.900767 0.915257 0.419213
Si Si2 0.606889 0.318012 0.266931
Si Si3 0.394661 0.091116 0.793638
Si Si4 0.100794 0.532513 0.097999
Si Si5 0.661005 0.458562 0.610808
Si Si6 0.767035 0.145963 0.896883
O O1 0.865364 0.870984 0.339123
O O2 0.847876 0.924037 0.514172
O O3 0.000000 0.891861 0.442031
O O4 0.908196 0.985121 0.384972
O O5 0.500000 0.326745 0.246623
O O6 0.616058 0.250000 0.307646
O O7 0.668469 0.320387 0.176060
O O8 0.500000 0.106475 0.799366
O O9 0.357885 0.088350 0.690969
O O10 0.330242 0.133542 0.853342
O O11 0.384249 0.021494 0.829915
O O12 0.179111 0.581693 0.096132
O O13 0.000000 0.558684 0.113425
O O14 0.099446 0.500000 0.000000
O O15 0.750000 0.500000 0.620465
O O16 0.750000 0.170065 0.000000
#
# Coordination Sequence:
#
# PCOD9501455 Si02
#       6
#    16  16  16  16  16  16
#     4  10  19  34  56  83 115 148 187 237 298 367
#     4  10  23  43  65  88 114 151 204 260 309 360
#     4  11  22  34  51  82 125 168 203 241 296 368
#     4  10  19  32  51  81 123 163 198 237 296 369
#     4  11  20  32  56  88 122 157 189 231 297 371
#     4  12  23  35  58  83 117 159 207 255 305 355
#
# _framework density 20.177862999999999
#
# number of rings (size 3 to 8) (size 9 to 14) (size 15 to 20)
#    0.000    1.333    1.667    7.000    0.000    3.667 
#    0.000    0.000    0.000    8.500    0.000    0.000 
#    0.000    0.000    0.000    0.000    0.000    0.000 
#
# Total GULP energy -267738.259624 kJ/mol
# GULP energy per Si atom -5577.880409 kJ/mol
# Density = 2.013194 g / cm^3
# Si number density = 20.177863 Si / 1000 Ang^3
#
#
#
# Elastic Constant Matrix: (Units=GPa)
#
#
# Indices 1 2 3 4 5 6 
#
# 1 131.3091 21.0994 39.2289 0.0000 0.0000 0.0000
# 2 21.0994 58.7695 39.6624 0.0000 0.0000 0.0000
# 3 39.2289 39.6624 139.5820 0.0000 0.0000 0.0000
# 4 0.0000 0.0000 0.0000 12.3645 0.0000 0.0000
# 5 0.0000 0.0000 0.0000 0.0000 28.7253 0.0000
# 6 0.0000 0.0000 0.0000 0.0000 0.0000 2.9356
#
#
#
# Elastic Compliance Matrix: (Units=1/GPa)
#
#
# Indices 1 2 3 4 5 6 
#
# 1 0.008460 -0.001773 -0.001874 0.000000 0.000000 0.000000
# 2 -0.001773 0.021424 -0.005590 0.000000 0.000000 0.000000
# 3 -0.001874 -0.005590 0.009279 0.000000 0.000000 0.000000
# 4 0.000000 0.000000 0.000000 0.080877 0.000000 0.000000
# 5 0.000000 0.000000 0.000000 0.000000 0.034813 0.000000
# 6 0.000000 0.000000 0.000000 0.000000 0.000000 0.340643
#
#
# Mechanical properties :
#
#
# Convention : Reuss Voigt Hill
#
# Bulk Modulus (GPa) = 48.32935 58.84911 53.58923
# Shear Modulus (GPa) = 9.59941 24.11643 16.85792
#
# Velocity S-wave (km/s) = 2.18351 3.46091 2.89358
# Velocity P-wave (km/s) = 5.51005 6.72302 6.14653
#
# Compressibility (1/GPa) = 0.02069136
#
# Stress axis : x y z
#
# Youngs Moduli (GPa) = 118.19872 46.67597 107.76783
#
# Poissons Ratio (x) = 0.08274 0.20196
# Poissons Ratio (y) = 0.20953 0.60237
# Poissons Ratio (z) = 0.22151 0.26090
#
# Static dielectric constant tensor:
#      x y z
#    x 1.822010 0.000000 0.000000 
#    y 0.000000 1.712520 0.000000 
#    z 0.000000 0.000000 1.840800 
# 
# From -- ./inp_files/27184.got.cif
#   From: 2010.05.17/outbox.cif.g08.bks.cpg/sg67_14_cif.got.tgz:27184.got - 2010.06.03 18:28:57.
