data_PCOD9501803
_publ_section_title
;
Structure prediction by ZEFSAII (Michael W. Deem and Ramdas Pophale) SiO2 
 PCOD9501803
Probable space group: C M M A
;
_chemical_formula_sum "Si O2"
_cell_formula_units_Z 96
_cell_length_a 15.283154
_cell_length_b 24.570672
_cell_length_c 12.842272
_cell_angle_alpha 90.000000
_cell_angle_beta 90.000000
_cell_angle_gamma 90.000000
_cell_volume 4822.496130
_symmetry_space_group_name_H-M "C M M A"
_symmetry_group_IT_number 67
_symmetry_cell_setting 'orthorhombic'
loop_
_space_group_symop_operation_xyz
x,y,z
-x,1/2-y,z
x,-y,-z
-x,1/2+y,-z
-x,-y,-z
x,1/2+y,-z
-x,y,z
x,1/2-y,z
1/2+x,1/2+y,z
1/2-x,-y,z
1/2+x,1/2-y,-z
1/2-x,y,-z
1/2-x,1/2-y,-z
1/2+x,y,-z
1/2-x,1/2+y,z
1/2+x,-y,z
loop_
_atom_site_type_symbol
_atom_site_label
_atom_site_fract_x
_atom_site_fract_y
_atom_site_fract_z
Si Si1 0.601808 0.363127 0.121899
Si Si2 0.393721 0.942584 0.051685
Si Si3 0.651767 0.059140 0.707326
Si Si4 0.862319 0.063012 0.680283
Si Si5 0.853638 0.369393 0.481843
Si Si6 0.607778 0.750000 0.785356
Si Si7 0.603726 0.250000 0.453412
O O1 0.500000 0.352616 0.098556
O O2 0.605805 0.405477 0.217589
O O3 0.638674 0.305269 0.158976
O O4 0.639203 0.393942 0.022031
O O5 0.500000 0.943120 0.049964
O O6 0.365266 0.934868 0.170329
O O7 0.365289 0.000000 0.000000
O O8 0.756613 0.060612 0.690340
O O9 0.618006 0.104704 0.627497
O O10 0.613045 0.000257 0.676460
O O11 0.891827 0.096921 0.579548
O O12 0.750000 0.376515 0.500000
O O13 0.870760 0.305602 0.490741
O O14 0.500000 0.750000 0.783927
O O15 0.638352 0.750000 0.665427
O O16 0.500000 0.250000 0.444768
#
# Coordination Sequence:
#
# PCOD9501803 Si02
#       7
#    16  16  16  16  16   8   8
#     4  10  19  34  56  81 107 140 184 230 275 319
#     4  10  20  35  55  78 109 147 185 224 273 332
#     4  10  21  35  53  82 113 147 178 221 273 334
#     4  10  19  34  56  82 110 143 182 225 268 328
#     4  10  21  37  56  80 112 148 182 222 280 333
#     4   9  18  33  56  80 104 136 183 233 271 313
#     4  11  21  35  58  83 105 138 189 237 273 328
#
# _framework density 19.906703
#
# number of rings (size 3 to 8) (size 9 to 14) (size 15 to 20)
#    0.000    2.000    3.333    0.750    0.000    3.333 
#    0.000    0.833    0.000    5.000    0.000    0.000 
#    0.000    0.000    0.000    0.000    0.000    0.000 
#
# Total GULP energy -267886.662733 kJ/mol
# GULP energy per Si atom -5580.972140 kJ/mol
# Density = 1.986139 g / cm^3
# Si number density = 19.906703 Si / 1000 Ang^3
#
#
#
# Elastic Constant Matrix: (Units=GPa)
#
#
# Indices 1 2 3 4 5 6 
#
# 1 27.6202 1.9404 4.1220 0.0000 0.0000 0.0000
# 2 1.9404 189.9662 114.1589 0.0000 0.0000 0.0000
# 3 4.1220 114.1589 183.3307 0.0000 0.0000 0.0000
# 4 0.0000 0.0000 0.0000 37.9575 0.0000 0.0000
# 5 0.0000 0.0000 0.0000 0.0000 62.4735 0.0000
# 6 0.0000 0.0000 0.0000 0.0000 0.0000 -4.4194
#
#
#
# Elastic Compliance Matrix: (Units=1/GPa)
#
#
# Indices 1 2 3 4 5 6 
#
# 1 0.036332 0.000191 -0.000936 0.000000 0.000000 0.000000
# 2 0.000191 0.008413 -0.005243 0.000000 0.000000 0.000000
# 3 -0.000936 -0.005243 0.008740 0.000000 0.000000 0.000000
# 4 0.000000 0.000000 0.000000 0.026345 0.000000 0.000000
# 5 0.000000 0.000000 0.000000 0.000000 0.016007 0.000000
# 6 0.000000 0.000000 0.000000 0.000000 0.000000 -0.226276
#
#
# Mechanical properties :
#
#
# Convention : Reuss Voigt Hill
#
# Bulk Modulus (GPa) = 24.09074 71.26219 47.67647
# Shear Modulus (GPa) = -47.78873 37.91538 -4.93667
#
# Velocity S-wave (km/s) = -4.90494 4.36897 -1.57648
# Velocity P-wave (km/s) = 4.46653 7.83111 4.54843
#
# Compressibility (1/GPa) = 0.04150973
#
# Stress axis : x y z
#
# Youngs Moduli (GPa) = 27.52422 118.86584 114.41108
#
# Poissons Ratio (x) = -0.02275 0.10710
# Poissons Ratio (y) = -0.00527 0.59985
# Poissons Ratio (z) = 0.02576 0.62321
#
# Static dielectric constant tensor:
#      x y z
#    x 1.748790 0.000000 0.000000 
#    y 0.000000 1.653780 0.000000 
#    z 0.000000 0.000000 1.689930 
# 
# From -- ./inp_files/19702.got.cif
#   From: 2010.05.17/outbox.cif.g08.bks.cpg/sg67_10_cif.got.tgz:19702.got - 2010.06.03 18:28:57.
