data_PCOD9501614
_publ_section_title
;
Structure prediction by ZEFSAII (Michael W. Deem and Ramdas Pophale) SiO2 
 PCOD9501614
Probable space group: C M M A
;
_chemical_formula_sum "Si O2"
_cell_formula_units_Z 80
_cell_length_a 27.973270
_cell_length_b 8.701479
_cell_length_c 19.159218
_cell_angle_alpha 90.000000
_cell_angle_beta 90.000000
_cell_angle_gamma 90.000000
_cell_volume 4663.522674
_symmetry_space_group_name_H-M "C M M A"
_symmetry_group_IT_number 67
_symmetry_cell_setting 'orthorhombic'
loop_
_space_group_symop_operation_xyz
x,y,z
-x,1/2-y,z
x,-y,-z
-x,1/2+y,-z
-x,-y,-z
x,1/2+y,-z
-x,y,z
x,1/2-y,z
1/2+x,1/2+y,z
1/2-x,-y,z
1/2+x,1/2-y,-z
1/2-x,y,-z
1/2-x,1/2-y,-z
1/2+x,y,-z
1/2-x,1/2+y,z
1/2+x,-y,z
loop_
_atom_site_type_symbol
_atom_site_label
_atom_site_fract_x
_atom_site_fract_y
_atom_site_fract_z
Si Si1 0.801015 0.565829 0.846521
Si Si2 0.446563 0.564883 0.788829
Si Si3 0.196654 0.566168 0.574794
Si Si4 0.149125 0.565225 0.289284
Si Si5 0.898157 0.566667 0.924128
O O1 0.798686 0.750000 0.840147
O O2 0.750000 0.500000 0.868623
O O3 0.815899 0.494082 0.772000
O O4 0.844146 0.526225 0.899269
O O5 0.500000 0.516479 0.768589
O O6 0.445612 0.750000 0.793336
O O7 0.404236 0.520496 0.735838
O O8 0.432514 0.498864 0.864243
O O9 0.180617 0.500000 0.500000
O O10 0.198804 0.750000 0.572127
O O11 0.250000 0.500000 0.586813
O O12 0.164005 0.509235 0.638016
O O13 0.152293 0.750000 0.293675
O O14 0.901995 0.750000 0.925463
O O15 0.908203 0.500000 0.000000
#
# Coordination Sequence:
#
# PCOD9501614 Si02
#       5
#    16  16  16  16  16
#     4  10  20  33  49  71  98 131 170 207 247 295
#     4   9  19  36  57  78  99 127 165 208 254 302
#     4  11  21  34  52  77 109 141 173 205 242 288
#     4  10  19  33  53  76 103 133 166 206 250 295
#     4  10  21  35  51  72  99 130 165 207 253 303
#
# _framework density 17.154413000000002
#
# number of rings (size 3 to 8) (size 9 to 14) (size 15 to 20)
#    0.000    2.000    0.000    4.800    0.000    4.400 
#    0.000    2.000    0.000    0.600    0.000    0.000 
#    0.000    0.000    0.000    0.000    0.000    0.000 
#
# Total GULP energy -223357.513008 kJ/mol
# GULP energy per Si atom -5583.937825 kJ/mol
# Density = 1.711537 g / cm^3
# Si number density = 17.154413 Si / 1000 Ang^3
#
#
#
# Elastic Constant Matrix: (Units=GPa)
#
#
# Indices 1 2 3 4 5 6 
#
# 1 68.3983 19.0865 27.4228 0.0000 0.0000 0.0000
# 2 19.0865 64.0989 32.6250 0.0000 0.0000 0.0000
# 3 27.4228 32.6250 116.2298 0.0000 0.0000 0.0000
# 4 0.0000 0.0000 0.0000 23.1146 0.0000 0.0000
# 5 0.0000 0.0000 0.0000 0.0000 8.3608 0.0000
# 6 0.0000 0.0000 0.0000 0.0000 0.0000 15.9649
#
#
#
# Elastic Compliance Matrix: (Units=1/GPa)
#
#
# Indices 1 2 3 4 5 6 
#
# 1 0.016788 -0.003480 -0.002984 0.000000 0.000000 0.000000
# 2 -0.003480 0.018923 -0.004490 0.000000 0.000000 0.000000
# 3 -0.002984 -0.004490 0.010568 0.000000 0.000000 0.000000
# 4 0.000000 0.000000 0.000000 0.043263 0.000000 0.000000
# 5 0.000000 0.000000 0.000000 0.000000 0.119606 0.000000
# 6 0.000000 0.000000 0.000000 0.000000 0.000000 0.062638
#
#
# Mechanical properties :
#
#
# Convention : Reuss Voigt Hill
#
# Bulk Modulus (GPa) = 41.03473 45.22173 43.12823
# Shear Modulus (GPa) = 16.56632 20.79423 18.68028
#
# Velocity S-wave (km/s) = 3.11097 3.48541 3.30350
# Velocity P-wave (km/s) = 6.07264 6.52811 6.30449
#
# Compressibility (1/GPa) = 0.02436960
#
# Stress axis : x y z
#
# Youngs Moduli (GPa) = 59.56737 52.84672 94.62437
#
# Poissons Ratio (x) = 0.18391 0.28236
# Poissons Ratio (y) = 0.20730 0.42490
# Poissons Ratio (z) = 0.17775 0.23730
#
# Static dielectric constant tensor:
#      x y z
#    x 1.587340 0.000000 0.000000 
#    y 0.000000 1.569260 0.000000 
#    z 0.000000 0.000000 1.552460 
# 
# From -- ./inp_files/32114.got.cif
#   From: 2010.05.17/outbox.cif.g08.bks.cpg/sg67_17_cif.got.tgz:32114.got - 2010.06.03 18:28:57.
