data_PCOD9501463
_publ_section_title
;
Structure prediction by ZEFSAII (Michael W. Deem and Ramdas Pophale) SiO2 
 PCOD9501463
Probable space group: C M M A
;
_chemical_formula_sum "Si O2"
_cell_formula_units_Z 96
_cell_length_a 19.080213
_cell_length_b 8.269940
_cell_length_c 32.053411
_cell_angle_alpha 90.000000
_cell_angle_beta 90.000000
_cell_angle_gamma 90.000000
_cell_volume 5057.778774
_symmetry_space_group_name_H-M "C M M A"
_symmetry_group_IT_number 67
_symmetry_cell_setting 'orthorhombic'
loop_
_space_group_symop_operation_xyz
x,y,z
-x,1/2-y,z
x,-y,-z
-x,1/2+y,-z
-x,-y,-z
x,1/2+y,-z
-x,y,z
x,1/2-y,z
1/2+x,1/2+y,z
1/2-x,-y,z
1/2+x,1/2-y,-z
1/2-x,y,-z
1/2-x,1/2-y,-z
1/2+x,y,-z
1/2-x,1/2+y,z
1/2+x,-y,z
loop_
_atom_site_type_symbol
_atom_site_label
_atom_site_fract_x
_atom_site_fract_y
_atom_site_fract_z
Si Si1 0.669850 0.443469 0.454950
Si Si2 0.830149 0.445551 0.205648
Si Si3 0.080696 0.052223 0.125199
Si Si4 0.919054 0.054982 0.285080
Si Si5 0.919297 0.554728 0.376189
Si Si6 0.670393 0.556574 0.046271
O O1 0.642295 0.500000 0.500000
O O2 0.668842 0.250000 0.454746
O O3 0.750000 0.500000 0.451499
O O4 0.625936 0.503492 0.415323
O O5 0.831189 0.250000 0.205783
O O6 0.750000 0.500000 0.204004
O O7 0.873934 0.499540 0.165122
O O8 0.869778 0.501915 0.247541
O O9 0.080376 0.250000 0.125222
O O10 0.118837 0.999030 0.082733
O O11 0.000000 0.999807 0.127722
O O12 0.920146 0.250000 0.284000
O O13 0.000000 0.999272 0.279703
O O14 0.894087 0.001589 0.330792
O O15 0.918556 0.750000 0.376524
O O16 0.000000 0.500721 0.380452
O O17 0.670486 0.750000 0.046461
O O18 0.750000 0.500000 0.054230
O O19 0.649961 0.500000 0.000000
#
# Coordination Sequence:
#
# PCOD9501463 Si02
#       6
#    16  16  16  16  16  16
#     4  10  20  34  52  73  99 131 166 204 246 292
#     4  10  20  34  53  76 102 130 164 206 247 293
#     4   9  18  33  53  75  99 131 169 207 249 295
#     4   9  18  33  53  75  98 128 166 204 242 287
#     4   9  19  35  53  74 101 132 164 201 247 295
#     4  10  19  32  52  75 101 133 167 205 249 297
#
# _framework density 18.980664999999998
#
# number of rings (size 3 to 8) (size 9 to 14) (size 15 to 20)
#    0.000    2.500    0.000    3.000    0.000    5.333 
#    0.000    4.167    0.000    5.000    0.000    0.000 
#    0.000    0.000    0.000    0.000    0.000    0.000 
#
# Total GULP energy -267865.581734 kJ/mol
# GULP energy per Si atom -5580.532953 kJ/mol
# Density = 1.893746 g / cm^3
# Si number density = 18.980665 Si / 1000 Ang^3
#
#
#
# Elastic Constant Matrix: (Units=GPa)
#
#
# Indices 1 2 3 4 5 6 
#
# 1 125.4951 12.3334 129.8255 0.0000 0.0000 0.0000
# 2 12.3334 17.6898 20.2093 0.0000 0.0000 0.0000
# 3 129.8255 20.2093 221.6106 0.0000 0.0000 0.0000
# 4 0.0000 0.0000 0.0000 15.1600 0.0000 0.0000
# 5 0.0000 0.0000 0.0000 0.0000 43.4251 0.0000
# 6 0.0000 0.0000 0.0000 0.0000 0.0000 20.1271
#
#
#
# Elastic Compliance Matrix: (Units=1/GPa)
#
#
# Indices 1 2 3 4 5 6 
#
# 1 0.020233 -0.000631 -0.011795 0.000000 0.000000 0.000000
# 2 -0.000631 0.063124 -0.005387 0.000000 0.000000 0.000000
# 3 -0.011795 -0.005387 0.011914 0.000000 0.000000 0.000000
# 4 0.000000 0.000000 0.000000 0.065963 0.000000 0.000000
# 5 0.000000 0.000000 0.000000 0.000000 0.023028 0.000000
# 6 0.000000 0.000000 0.000000 0.000000 0.000000 0.049684
#
#
# Mechanical properties :
#
#
# Convention : Reuss Voigt Hill
#
# Bulk Modulus (GPa) = 16.76622 76.61467 46.69045
# Shear Modulus (GPa) = 17.27393 29.23760 23.25577
#
# Velocity S-wave (km/s) = 3.02003 3.92904 3.50413
# Velocity P-wave (km/s) = 4.58402 7.81251 6.40502
#
# Compressibility (1/GPa) = 0.05964374
#
# Stress axis : x y z
#
# Youngs Moduli (GPa) = 49.42438 15.84195 83.93665
#
# Poissons Ratio (x) = 0.01000 0.99007
# Poissons Ratio (y) = 0.03119 0.45214
# Poissons Ratio (z) = 0.58298 0.08534
#
# Static dielectric constant tensor:
#      x y z
#    x 1.634530 0.000000 0.000000 
#    y 0.000000 1.668610 0.000000 
#    z 0.000000 0.000000 1.657820 
# 
# From -- ./inp_files/43420.got.cif
#   From: 2010.05.17/outbox.cif.g08.bks.cpg/sg67_22_cif.got.tgz:43420.got - 2010.06.03 18:28:57.
