data_PCOD9501112
_publ_section_title
;
Structure prediction by ZEFSAII (Michael W. Deem and Ramdas Pophale) SiO2 
 PCOD9501112
Probable space group: C M M A
;
_chemical_formula_sum "Si O2"
_cell_formula_units_Z 88
_cell_length_a 14.089950
_cell_length_b 21.426229
_cell_length_c 15.996323
_cell_angle_alpha 90.000000
_cell_angle_beta 90.000000
_cell_angle_gamma 90.000000
_cell_volume 4829.201859
_symmetry_space_group_name_H-M "C M M A"
_symmetry_group_IT_number 67
_symmetry_cell_setting 'orthorhombic'
loop_
_space_group_symop_operation_xyz
x,y,z
-x,1/2-y,z
x,-y,-z
-x,1/2+y,-z
-x,-y,-z
x,1/2+y,-z
-x,y,z
x,1/2-y,z
1/2+x,1/2+y,z
1/2-x,-y,z
1/2+x,1/2-y,-z
1/2-x,y,-z
1/2-x,1/2-y,-z
1/2+x,y,-z
1/2-x,1/2+y,z
1/2+x,-y,z
loop_
_atom_site_type_symbol
_atom_site_label
_atom_site_fract_x
_atom_site_fract_y
_atom_site_fract_z
Si Si1 0.607614 0.376493 0.375388
Si Si2 0.769741 0.911687 0.097324
Si Si3 0.891160 0.526091 0.619767
Si Si4 0.887395 0.474525 0.182340
Si Si5 0.750000 0.895517 0.500000
Si Si6 0.389250 0.176465 0.194474
O O1 0.500000 0.354307 0.387658
O O2 0.609486 0.451245 0.391148
O O3 0.682629 0.353651 0.442240
O O4 0.633957 0.359953 0.280530
O O5 0.667453 0.917305 0.140650
O O6 0.822998 0.848550 0.121115
O O7 0.837102 0.965275 0.139457
O O8 0.750000 0.921687 0.000000
O O9 0.870417 0.531671 0.718484
O O10 0.816271 0.562471 0.562155
O O11 0.000000 0.547099 0.602466
O O12 0.000000 0.477448 0.168916
O O13 0.500000 0.163127 0.175934
O O14 0.379204 0.250000 0.208418
#
# Coordination Sequence:
#
# PCOD9501112 Si02
#       6
#    16  16  16  16   8  16
#     4  10  19  32  49  73 104 137 179 223 260 313
#     4  11  22  34  56  85 110 138 177 227 277 330
#     4  10  19  30  47  73 107 143 175 210 257 321
#     4  10  20  35  54  80 117 151 177 209 270 344
#     4  12  21  28  49  80 113 144 172 221 278 315
#     4  10  21  39  61  79 102 144 191 234 278 321
#
# _framework density 18.222473000000001
#
# number of rings (size 3 to 8) (size 9 to 14) (size 15 to 20)
#    0.000    1.636    1.818    4.909    2.545    4.000 
#    0.000    0.455    0.000    0.545    0.000    0.000 
#    0.000    0.000    0.000    0.000    0.000    0.000 
#
# Total GULP energy -245463.263680 kJ/mol
# GULP energy per Si atom -5578.710538 kJ/mol
# Density = 1.818100 g / cm^3
# Si number density = 18.222473 Si / 1000 Ang^3
#
#
#
# Elastic Constant Matrix: (Units=GPa)
#
#
# Indices 1 2 3 4 5 6 
#
# 1 110.9072 18.9803 80.2156 0.0000 0.0000 0.0000
# 2 18.9803 27.5303 18.3863 0.0000 0.0000 0.0000
# 3 80.2156 18.3863 134.7312 0.0000 0.0000 0.0000
# 4 0.0000 0.0000 0.0000 6.1014 0.0000 0.0000
# 5 0.0000 0.0000 0.0000 0.0000 0.9018 0.0000
# 6 0.0000 0.0000 0.0000 0.0000 0.0000 20.0895
#
#
#
# Elastic Compliance Matrix: (Units=1/GPa)
#
#
# Indices 1 2 3 4 5 6 
#
# 1 0.016510 -0.005301 -0.009106 0.000000 0.000000 0.000000
# 2 -0.005301 0.041668 -0.002530 0.000000 0.000000 0.000000
# 3 -0.009106 -0.002530 0.013189 0.000000 0.000000 0.000000
# 4 0.000000 0.000000 0.000000 0.163898 0.000000 0.000000
# 5 0.000000 0.000000 0.000000 0.000000 1.108890 0.000000
# 6 0.000000 0.000000 0.000000 0.000000 0.000000 0.049777
#
#
# Mechanical properties :
#
#
# Convention : Reuss Voigt Hill
#
# Bulk Modulus (GPa) = 26.67210 56.48147 41.57679
# Shear Modulus (GPa) = 3.47149 15.79097 9.63123
#
# Velocity S-wave (km/s) = 1.38174 2.94694 2.30148
# Velocity P-wave (km/s) = 4.14901 6.53009 5.47067
#
# Compressibility (1/GPa) = 0.03749236
#
# Stress axis : x y z
#
# Youngs Moduli (GPa) = 60.56944 23.99919 75.82012
#
# Poissons Ratio (x) = 0.12722 0.69044
# Poissons Ratio (y) = 0.32107 0.19184
# Poissons Ratio (z) = 0.55156 0.06072
#
# Static dielectric constant tensor:
#      x y z
#    x 1.676500 0.000000 0.000000 
#    y 0.000000 1.641020 0.000000 
#    z 0.000000 0.000000 1.662790 
# 
# From -- ./inp_files/27036.got.cif
#   From: 2010.05.17/outbox.cif.g08.bks.cpg/sg67_14_cif.got.tgz:27036.got - 2010.06.03 18:28:57.
