data_PCOD9501872
_publ_section_title
;
Structure prediction by ZEFSAII (Michael W. Deem and Ramdas Pophale) SiO2 
 PCOD9501872
Probable space group: C M M A
;
_chemical_formula_sum "Si O2"
_cell_formula_units_Z 104
_cell_length_a 14.465830
_cell_length_b 18.987055
_cell_length_c 17.437013
_cell_angle_alpha 90.000000
_cell_angle_beta 90.000000
_cell_angle_gamma 90.000000
_cell_volume 4789.311192
_symmetry_space_group_name_H-M "C M M A"
_symmetry_group_IT_number 67
_symmetry_cell_setting 'orthorhombic'
loop_
_space_group_symop_operation_xyz
x,y,z
-x,1/2-y,z
x,-y,-z
-x,1/2+y,-z
-x,-y,-z
x,1/2+y,-z
-x,y,z
x,1/2-y,z
1/2+x,1/2+y,z
1/2-x,-y,z
1/2+x,1/2-y,-z
1/2-x,y,-z
1/2-x,1/2-y,-z
1/2+x,y,-z
1/2-x,1/2+y,z
1/2+x,-y,z
loop_
_atom_site_type_symbol
_atom_site_label
_atom_site_fract_x
_atom_site_fract_y
_atom_site_fract_z
Si Si1 0.183423 0.564625 0.679872
Si Si2 0.858511 0.918009 0.516195
Si Si3 0.110369 0.962543 0.845672
Si Si4 0.613405 0.171296 0.941417
Si Si5 0.500000 0.129055 0.390771
Si Si6 0.388001 0.115982 0.107104
Si Si7 0.840384 0.667789 0.273173
O O1 0.250000 0.500000 0.653829
O O2 0.124390 0.588458 0.607011
O O3 0.132170 0.537506 0.755514
O O4 0.246141 0.629401 0.705424
O O5 0.750000 0.904797 0.500000
O O6 0.919897 0.874015 0.458263
O O7 0.879582 0.000000 0.500000
O O8 0.145481 0.891319 0.885731
O O9 0.000000 0.962293 0.855348
O O10 0.144551 0.035013 0.883593
O O11 0.500000 0.171748 0.939514
O O12 0.644134 0.250000 0.920181
O O13 0.641370 0.151750 0.028024
O O14 0.419974 0.132207 0.323867
O O15 0.500000 0.114645 0.105443
O O16 0.359347 0.156534 0.183441
O O17 0.840676 0.750000 0.291920
#
# Coordination Sequence:
#
# PCOD9501872 Si02
#       7
#    16  16  16  16   8  16  16
#     4  12  23  43  64  95 134 174 219 274 337 404
#     4  11  22  39  66  99 133 168 224 278 335 400
#     4  10  22  37  64  97 131 173 226 281 334 403
#     4   9  18  35  59  92 133 175 222 276 337 400
#     4  12  24  42  66  98 135 176 216 278 343 400
#     4  10  19  34  64  96 129 168 224 277 332 394
#     4  12  25  41  65  96 132 172 222 276 333 403
#
# _framework density 21.715022999999999
#
# number of rings (size 3 to 8) (size 9 to 14) (size 15 to 20)
#    0.000    1.231    5.385    1.385    1.077    3.077 
#    0.000    3.077    0.000    1.846    0.000    0.000 
#    0.000    0.000    0.000    0.000    0.000    0.000 
#
# Total GULP energy -289862.443980 kJ/mol
# GULP energy per Si atom -5574.277769 kJ/mol
# Density = 2.166560 g / cm^3
# Si number density = 21.715023 Si / 1000 Ang^3
#
#
#
# Elastic Constant Matrix: (Units=GPa)
#
#
# Indices 1 2 3 4 5 6 
#
# 1 54.2731 15.6409 5.9765 0.0000 0.0000 0.0000
# 2 15.6409 52.8809 23.7432 0.0000 0.0000 0.0000
# 3 5.9765 23.7432 93.8905 0.0000 0.0000 0.0000
# 4 0.0000 0.0000 0.0000 -8.6925 0.0000 0.0000
# 5 0.0000 0.0000 0.0000 0.0000 128.3711 0.0000
# 6 0.0000 0.0000 0.0000 0.0000 0.0000 2.9069
#
#
#
# Elastic Compliance Matrix: (Units=1/GPa)
#
#
# Indices 1 2 3 4 5 6 
#
# 1 0.020148 -0.006073 0.000253 0.000000 0.000000 0.000000
# 2 -0.006073 0.023163 -0.005471 0.000000 0.000000 0.000000
# 3 0.000253 -0.005471 0.012018 0.000000 0.000000 0.000000
# 4 0.000000 0.000000 0.000000 -0.115041 0.000000 0.000000
# 5 0.000000 0.000000 0.000000 0.000000 0.007790 0.000000
# 6 0.000000 0.000000 0.000000 0.000000 0.000000 0.344004
#
#
# Mechanical properties :
#
#
# Convention : Reuss Voigt Hill
#
# Bulk Modulus (GPa) = 30.53662 32.41841 31.47752
# Shear Modulus (GPa) = 15.35726 34.89602 25.12664
#
# Velocity S-wave (km/s) = 2.66224 4.01309 3.40532
# Velocity P-wave (km/s) = 4.85211 6.03611 5.47620
#
# Compressibility (1/GPa) = 0.03274757
#
# Stress axis : x y z
#
# Youngs Moduli (GPa) = 49.63374 43.17218 83.20792
#
# Poissons Ratio (x) = 0.26218 -0.02107
# Poissons Ratio (y) = 0.30142 0.45523
# Poissons Ratio (z) = -0.01257 0.23619
#
# Static dielectric constant tensor:
#      x y z
#    x 1.775350 0.000000 0.000000 
#    y 0.000000 1.795530 0.000000 
#    z 0.000000 0.000000 1.768170 
# 
# From -- ./inp_files/28647.got.cif
#   From: 2010.05.17/outbox.cif.g08.bks.cpg/sg67_15_cif.got.tgz:28647.got - 2010.06.03 18:28:57.
