data_PCOD9501279
_publ_section_title
;
Structure prediction by ZEFSAII (Michael W. Deem and Ramdas Pophale) SiO2 
 PCOD9501279
Probable space group: C M M A
;
_chemical_formula_sum "Si O2"
_cell_formula_units_Z 72
_cell_length_a 24.511886
_cell_length_b 19.664707
_cell_length_c 7.414210
_cell_angle_alpha 90.000000
_cell_angle_beta 90.000000
_cell_angle_gamma 90.000000
_cell_volume 3573.790507
_symmetry_space_group_name_H-M "C M M A"
_symmetry_group_IT_number 67
_symmetry_cell_setting 'orthorhombic'
loop_
_space_group_symop_operation_xyz
x,y,z
-x,1/2-y,z
x,-y,-z
-x,1/2+y,-z
-x,-y,-z
x,1/2+y,-z
-x,y,z
x,1/2-y,z
1/2+x,1/2+y,z
1/2-x,-y,z
1/2+x,1/2-y,-z
1/2-x,y,-z
1/2-x,1/2-y,-z
1/2+x,y,-z
1/2-x,1/2+y,z
1/2+x,-y,z
loop_
_atom_site_type_symbol
_atom_site_label
_atom_site_fract_x
_atom_site_fract_y
_atom_site_fract_z
Si Si1 0.940416 0.671142 0.589757
Si Si2 0.061036 0.148014 0.989405
Si Si3 0.351049 0.172123 0.313395
Si Si4 0.103154 0.500000 0.000000
Si Si5 0.192268 0.028410 0.702790
O O1 0.943492 0.750000 0.533920
O O2 0.889584 0.645267 0.476641
O O3 0.000000 0.639176 0.552137
O O4 0.931735 0.669843 0.803609
O O5 0.108345 0.173665 0.858341
O O6 0.000000 0.168145 0.930190
O O7 0.067059 0.066955 0.992660
O O8 0.331439 0.250000 0.345300
O O9 0.308276 0.111016 0.289496
O O10 0.143009 0.502244 0.172891
O O11 0.185842 0.000000 0.500000
O O12 0.250000 0.000000 0.769916
#
# Coordination Sequence:
#
# PCOD9501279 Si02
#       5
#    16  16  16   8  16
#     4   9  17  29  47  74 108 141 169 201 247 303
#     4  10  19  31  50  78 111 144 176 209 251 307
#     4  10  20  34  54  80 107 137 176 220 263 311
#     4  10  20  34  54  76 104 140 178 218 258 308
#     4  10  21  38  58  77 101 137 179 223 274 322
#
# _framework density 20.146674999999998
#
# number of rings (size 3 to 8) (size 9 to 14) (size 15 to 20)
#    0.000    2.222    0.000    3.333    0.000    2.222 
#    0.000    2.222    0.000   22.667    0.000    0.000 
#    0.000    0.000    0.000    0.000    0.000    0.000 
#
# Total GULP energy -200809.633970 kJ/mol
# GULP energy per Si atom -5578.045388 kJ/mol
# Density = 2.010082 g / cm^3
# Si number density = 20.146675 Si / 1000 Ang^3
#
#
#
# Elastic Constant Matrix: (Units=GPa)
#
#
# Indices 1 2 3 4 5 6 
#
# 1 77.5514 40.3550 15.3382 0.0000 0.0000 0.0000
# 2 40.3550 126.6825 4.3448 0.0000 0.0000 0.0000
# 3 15.3382 4.3448 60.0588 0.0000 0.0000 0.0000
# 4 0.0000 0.0000 0.0000 19.9678 0.0000 0.0000
# 5 0.0000 0.0000 0.0000 0.0000 8.1149 0.0000
# 6 0.0000 0.0000 0.0000 0.0000 0.0000 96.4271
#
#
#
# Elastic Compliance Matrix: (Units=1/GPa)
#
#
# Indices 1 2 3 4 5 6 
#
# 1 0.016274 -0.005054 -0.003791 0.000000 0.000000 0.000000
# 2 -0.005054 0.009483 0.000605 0.000000 0.000000 0.000000
# 3 -0.003791 0.000605 0.017575 0.000000 0.000000 0.000000
# 4 0.000000 0.000000 0.000000 0.050081 0.000000 0.000000
# 5 0.000000 0.000000 0.000000 0.000000 0.123230 0.000000
# 6 0.000000 0.000000 0.000000 0.000000 0.000000 0.010371
#
#
# Mechanical properties :
#
#
# Convention : Reuss Voigt Hill
#
# Bulk Modulus (GPa) = 37.24129 42.70762 39.97446
# Shear Modulus (GPa) = 19.80632 38.51892 29.16262
#
# Velocity S-wave (km/s) = 3.13885 4.37730 3.80875
# Velocity P-wave (km/s) = 5.62688 6.84047 6.26314
#
# Compressibility (1/GPa) = 0.02685192
#
# Stress axis : x y z
#
# Youngs Moduli (GPa) = 61.44600 105.45122 56.90009
#
# Poissons Ratio (x) = 0.53298 0.21569
# Poissons Ratio (y) = 0.31056 -0.03441
# Poissons Ratio (z) = 0.23292 -0.06377
#
# Static dielectric constant tensor:
#      x y z
#    x 1.813480 0.000000 0.000000 
#    y 0.000000 1.750830 0.000000 
#    z 0.000000 0.000000 1.711100 
# 
# From -- ./inp_files/12228.got.cif
#   From: 2010.05.17/outbox.cif.g08.bks.cpg/sg67_7_cif.got.tgz:12228.got - 2010.06.03 18:28:57.
