data_PCOD9501488
_publ_section_title
;
Structure prediction by ZEFSAII (Michael W. Deem and Ramdas Pophale) SiO2 
 PCOD9501488
Probable space group: C M M A
;
_chemical_formula_sum "Si O2"
_cell_formula_units_Z 48
_cell_length_a 15.550130
_cell_length_b 16.961176
_cell_length_c 8.447199
_cell_angle_alpha 90.000000
_cell_angle_beta 90.000000
_cell_angle_gamma 90.000000
_cell_volume 2227.935996
_symmetry_space_group_name_H-M "C M M A"
_symmetry_group_IT_number 67
_symmetry_cell_setting 'orthorhombic'
loop_
_space_group_symop_operation_xyz
x,y,z
-x,1/2-y,z
x,-y,-z
-x,1/2+y,-z
-x,-y,-z
x,1/2+y,-z
-x,y,z
x,1/2-y,z
1/2+x,1/2+y,z
1/2-x,-y,z
1/2+x,1/2-y,-z
1/2-x,y,-z
1/2-x,1/2-y,-z
1/2+x,y,-z
1/2-x,1/2+y,z
1/2+x,-y,z
loop_
_atom_site_type_symbol
_atom_site_label
_atom_site_fract_x
_atom_site_fract_y
_atom_site_fract_z
Si Si1 0.651918 0.582538 0.940927
Si Si2 0.347649 0.250000 0.440631
Si Si3 0.402718 0.750000 0.908331
Si Si4 0.349164 0.918783 0.561317
O O1 0.612690 0.666602 0.993523
O O2 0.649913 0.579034 0.750987
O O3 0.612515 0.500000 0.000000
O O4 0.750000 0.583975 0.000000
O O5 0.250000 0.250000 0.500000
O O6 0.344234 0.250000 0.248857
O O7 0.387418 0.165978 0.488788
O O8 0.500000 0.750000 0.848313
O O9 0.250000 0.918225 0.500000
O O10 0.389003 0.000000 0.500000
#
# Coordination Sequence:
#
# PCOD9501488 Si02
#       4
#    16   8   8  16
#     4  10  19  32  52  80 107 137 183 228 262 309
#     4   8  16  29  48  71  94 130 176 214 248 301
#     4  10  21  35  52  77 111 146 176 216 275 329
#     4   9  15  26  45  73  99 124 162 214 267 303
#
# _framework density 21.544604
#
# number of rings (size 3 to 8) (size 9 to 14) (size 15 to 20)
#    0.000    2.667    0.000    4.500    0.000    0.667 
#    0.000    5.000    0.000   16.000    0.000  140.000 
#    0.000    1.333    0.000    0.000    0.000    0.000 
#
# Total GULP energy -133637.022588 kJ/mol
# GULP energy per Si atom -5568.209275 kJ/mol
# Density = 2.149557 g / cm^3
# Si number density = 21.544604 Si / 1000 Ang^3
#
#
#
# Elastic Constant Matrix: (Units=GPa)
#
#
# Indices 1 2 3 4 5 6 
#
# 1 41.1431 18.8868 12.1234 0.0000 0.0000 0.0000
# 2 18.8868 314.5674 47.3975 0.0000 0.0000 0.0000
# 3 12.1234 47.3975 45.4272 0.0000 0.0000 0.0000
# 4 0.0000 0.0000 0.0000 30.4506 0.0000 0.0000
# 5 0.0000 0.0000 0.0000 0.0000 -2.6542 0.0000
# 6 0.0000 0.0000 0.0000 0.0000 0.0000 -48.3827
#
#
#
# Elastic Compliance Matrix: (Units=1/GPa)
#
#
# Indices 1 2 3 4 5 6 
#
# 1 0.026482 -0.000623 -0.006417 0.000000 0.000000 0.000000
# 2 -0.000623 0.003787 -0.003785 0.000000 0.000000 0.000000
# 3 -0.006417 -0.003785 0.027675 0.000000 0.000000 0.000000
# 4 0.000000 0.000000 0.000000 0.032840 0.000000 0.000000
# 5 0.000000 0.000000 0.000000 0.000000 -0.376755 0.000000
# 6 0.000000 0.000000 0.000000 0.000000 0.000000 -0.020669
#
#
# Mechanical properties :
#
#
# Convention : Reuss Voigt Hill
#
# Bulk Modulus (GPa) = 27.55309 61.99478 44.77394
# Shear Modulus (GPa) = -18.32230 17.39805 -0.46212
#
# Velocity S-wave (km/s) = -2.91939 2.84480 -0.46364
# Velocity P-wave (km/s) = 1.20535 6.29508 4.53216
#
# Compressibility (1/GPa) = 0.03629357
#
# Stress axis : x y z
#
# Youngs Moduli (GPa) = 37.76088 264.08763 36.13417
#
# Poissons Ratio (x) = 0.16455 0.23189
# Poissons Ratio (y) = 0.02353 0.13675
# Poissons Ratio (z) = 0.24233 0.99946
#
# Static dielectric constant tensor:
#      x y z
#    x 1.737300 0.000000 0.000000 
#    y 0.000000 1.933160 0.000000 
#    z 0.000000 0.000000 1.763780 
# 
# From -- ./inp_files/7390.got.cif
#   From: 2010.05.17/outbox.cif.g08.bks.cpg/sg67_4_cif.got.tgz:7390.got - 2010.06.03 18:28:57.
