data_PCOD9501366
_publ_section_title
;
Structure prediction by ZEFSAII (Michael W. Deem and Ramdas Pophale) SiO2 
 PCOD9501366
Probable space group: C M M A
;
_chemical_formula_sum "Si O2"
_cell_formula_units_Z 112
_cell_length_a 18.015227
_cell_length_b 17.150184
_cell_length_c 21.099668
_cell_angle_alpha 90.000000
_cell_angle_beta 90.000000
_cell_angle_gamma 90.000000
_cell_volume 6519.047484
_symmetry_space_group_name_H-M "C M M A"
_symmetry_group_IT_number 67
_symmetry_cell_setting 'orthorhombic'
loop_
_space_group_symop_operation_xyz
x,y,z
-x,1/2-y,z
x,-y,-z
-x,1/2+y,-z
-x,-y,-z
x,1/2+y,-z
-x,y,z
x,1/2-y,z
1/2+x,1/2+y,z
1/2-x,-y,z
1/2+x,1/2-y,-z
1/2-x,y,-z
1/2-x,1/2-y,-z
1/2+x,y,-z
1/2-x,1/2+y,z
1/2+x,-y,z
loop_
_atom_site_type_symbol
_atom_site_label
_atom_site_fract_x
_atom_site_fract_y
_atom_site_fract_z
Si Si1 0.211138 0.842449 0.933020
Si Si2 0.084044 0.343965 0.461045
Si Si3 0.119265 0.841086 0.397174
Si Si4 0.416266 0.343881 0.258130
Si Si5 0.690006 0.063983 0.165347
Si Si6 0.586629 0.034785 0.929036
Si Si7 0.267617 0.412710 0.575323
O O1 0.204791 0.750000 0.928666
O O2 0.263145 0.876666 0.878032
O O3 0.131837 0.884521 0.929454
O O4 0.250000 0.862816 0.000000
O O5 0.097630 0.250000 0.460373
O O6 0.091760 0.371941 0.534658
O O7 0.147584 0.385896 0.420481
O O8 0.000000 0.358064 0.440020
O O9 0.100971 0.750000 0.399205
O O10 0.086520 0.870762 0.331548
O O11 0.207635 0.854897 0.394791
O O12 0.500000 0.356485 0.233536
O O13 0.402335 0.250000 0.256500
O O14 0.355391 0.390219 0.218510
O O15 0.750000 0.000000 0.189181
O O16 0.631203 0.020317 0.119581
O O17 0.500000 0.042260 0.912398
O O18 0.591384 0.000000 0.000000
O O19 0.250000 0.500000 0.597835
O O20 0.250000 0.410764 0.500000
#
# Coordination Sequence:
#
# PCOD9501366 Si02
#       7
#    16  16  16  16  16  16  16
#     4  10  19  32  50  71  98 128 159 194 232 281
#     4   9  16  28  48  72  96 125 163 204 248 294
#     4   9  17  30  48  68  94 131 167 199 242 296
#     4  10  20  34  51  73 100 126 161 208 249 288
#     4  10  20  33  53  72  96 129 163 196 240 291
#     4  10  19  32  50  71  98 128 158 193 234 283
#     4   9  17  29  44  67  97 128 162 201 244 292
#
# _framework density 17.180423999999999
#
# number of rings (size 3 to 8) (size 9 to 14) (size 15 to 20)
#    0.000    2.429    1.429    1.714    0.000    4.286 
#    0.000    6.429    0.000    0.000    0.000    1.000 
#    0.000    4.571    0.000    0.000    0.000    0.000 
#
# Total GULP energy -312065.502269 kJ/mol
# GULP energy per Si atom -5572.598255 kJ/mol
# Density = 1.714132 g / cm^3
# Si number density = 17.180424 Si / 1000 Ang^3
#
#
#
# Elastic Constant Matrix: (Units=GPa)
#
#
# Indices 1 2 3 4 5 6 
#
# 1 149.2281 43.7278 28.5203 0.0000 0.0000 0.0000
# 2 43.7278 43.8115 17.3625 0.0000 0.0000 0.0000
# 3 28.5203 17.3625 33.9457 0.0000 0.0000 0.0000
# 4 0.0000 0.0000 0.0000 -5.5724 0.0000 0.0000
# 5 0.0000 0.0000 0.0000 0.0000 27.7027 0.0000
# 6 0.0000 0.0000 0.0000 0.0000 0.0000 22.8677
#
#
#
# Elastic Compliance Matrix: (Units=1/GPa)
#
#
# Indices 1 2 3 4 5 6 
#
# 1 0.009905 -0.008263 -0.004096 0.000000 0.000000 0.000000
# 2 -0.008263 0.035521 -0.011226 0.000000 0.000000 0.000000
# 3 -0.004096 -0.011226 0.038642 0.000000 0.000000 0.000000
# 4 0.000000 0.000000 0.000000 -0.179456 0.000000 0.000000
# 5 0.000000 0.000000 0.000000 0.000000 0.036098 0.000000
# 6 0.000000 0.000000 0.000000 0.000000 0.000000 0.043730
#
#
# Mechanical properties :
#
#
# Convention : Reuss Voigt Hill
#
# Bulk Modulus (GPa) = 27.10115 45.13405 36.11760
# Shear Modulus (GPa) = 113.87243 18.15790 66.01517
#
# Velocity S-wave (km/s) = 8.15011 3.25452 6.20549
# Velocity P-wave (km/s) = 10.21637 6.36005 8.50954
#
# Compressibility (1/GPa) = 0.03689880
#
# Stress axis : x y z
#
# Youngs Moduli (GPa) = 100.95638 28.15212 25.87877
#
# Poissons Ratio (x) = 0.23263 0.10599
# Poissons Ratio (y) = 0.83423 0.29051
# Poissons Ratio (z) = 0.41349 0.31603
#
# Static dielectric constant tensor:
#      x y z
#    x 1.586010 0.000000 0.000000 
#    y 0.000000 1.585530 0.000000 
#    z 0.000000 0.000000 1.577380 
# 
# From -- ./inp_files/34403.got.cif
#   From: 2010.05.17/outbox.cif.g08.bks.cpg/sg67_18_cif.got.tgz:34403.got - 2010.06.03 18:28:57.
