data_PCOD9501681
_publ_section_title
;
Structure prediction by ZEFSAII (Michael W. Deem and Ramdas Pophale) SiO2 
 PCOD9501681
Probable space group: C M M A
;
_chemical_formula_sum "Si O2"
_cell_formula_units_Z 80
_cell_length_a 14.484652
_cell_length_b 21.434181
_cell_length_c 11.891602
_cell_angle_alpha 90.000000
_cell_angle_beta 90.000000
_cell_angle_gamma 90.000000
_cell_volume 3691.945868
_symmetry_space_group_name_H-M "C M M A"
_symmetry_group_IT_number 67
_symmetry_cell_setting 'orthorhombic'
loop_
_space_group_symop_operation_xyz
x,y,z
-x,1/2-y,z
x,-y,-z
-x,1/2+y,-z
-x,-y,-z
x,1/2+y,-z
-x,y,z
x,1/2-y,z
1/2+x,1/2+y,z
1/2-x,-y,z
1/2+x,1/2-y,-z
1/2-x,y,-z
1/2-x,1/2-y,-z
1/2+x,y,-z
1/2-x,1/2+y,z
1/2+x,-y,z
loop_
_atom_site_type_symbol
_atom_site_label
_atom_site_fract_x
_atom_site_fract_y
_atom_site_fract_z
Si Si1 0.603903 0.030319 0.377018
Si Si2 0.270395 0.349650 0.375178
Si Si3 0.889867 0.571087 0.009708
Si Si4 0.607156 0.595077 0.246452
Si Si5 0.111126 0.317515 0.830729
O O1 0.500000 0.054935 0.351839
O O2 0.680415 0.082844 0.384134
O O3 0.600407 0.000000 0.500000
O O4 0.624352 0.976262 0.286981
O O5 0.250000 0.325348 0.500000
O O6 0.173498 0.359775 0.313714
O O7 0.339684 0.316382 0.289861
O O8 0.855277 0.620751 0.101862
O O9 0.000000 0.565254 0.031797
O O10 0.854355 0.500000 0.000000
O O11 0.878329 0.599764 0.886200
O O12 0.500000 0.607043 0.272511
O O13 0.130489 0.250000 0.887150
O O14 0.000000 0.321860 0.820165
#
# Coordination Sequence:
#
# PCOD9501681 Si02
#       5
#    16  16  16  16  16
#     4  10  19  33  54  86 128 168 207 261 326 385
#     4  12  23  35  58  87 125 165 216 261 313 385
#     4   9  18  37  63  90 122 159 206 265 324 385
#     4  10  21  35  54  85 125 163 205 259 326 386
#     4  10  23  44  68  92 121 163 214 268 330 398
#
# _framework density 21.668789
#
# number of rings (size 3 to 8) (size 9 to 14) (size 15 to 20)
#    0.000    1.800    2.000    2.400    0.000    5.200 
#    0.000    3.000    0.000    1.800    0.000    0.000 
#    0.000    0.000    0.000    0.000    0.000    0.000 
#
# Total GULP energy -223431.591770 kJ/mol
# GULP energy per Si atom -5585.789794 kJ/mol
# Density = 2.161947 g / cm^3
# Si number density = 21.668789 Si / 1000 Ang^3
#
#
#
# Elastic Constant Matrix: (Units=GPa)
#
#
# Indices 1 2 3 4 5 6 
#
# 1 78.5947 35.0137 15.2819 0.0000 0.0000 0.0000
# 2 35.0137 92.2327 51.9565 0.0000 0.0000 0.0000
# 3 15.2819 51.9565 76.5366 0.0000 0.0000 0.0000
# 4 0.0000 0.0000 0.0000 11.1380 0.0000 0.0000
# 5 0.0000 0.0000 0.0000 0.0000 23.1603 0.0000
# 6 0.0000 0.0000 0.0000 0.0000 0.0000 -9.3880
#
#
#
# Elastic Compliance Matrix: (Units=1/GPa)
#
#
# Indices 1 2 3 4 5 6 
#
# 1 0.015412 -0.006667 0.001448 0.000000 0.000000 0.000000
# 2 -0.006667 0.020439 -0.012544 0.000000 0.000000 0.000000
# 3 0.001448 -0.012544 0.021292 0.000000 0.000000 0.000000
# 4 0.000000 0.000000 0.000000 0.089782 0.000000 0.000000
# 5 0.000000 0.000000 0.000000 0.000000 0.043177 0.000000
# 6 0.000000 0.000000 0.000000 0.000000 0.000000 -0.106519
#
#
# Mechanical properties :
#
#
# Convention : Reuss Voigt Hill
#
# Bulk Modulus (GPa) = 46.25672 50.20760 48.23216
# Shear Modulus (GPa) = 39.58372 14.65618 27.11995
#
# Velocity S-wave (km/s) = 4.27870 2.60354 3.54159
# Velocity P-wave (km/s) = 6.76781 5.67967 6.24747
#
# Compressibility (1/GPa) = 0.02161848
#
# Stress axis : x y z
#
# Youngs Moduli (GPa) = 64.88523 48.92566 46.96629
#
# Poissons Ratio (x) = 0.32617 -0.06802
# Poissons Ratio (y) = 0.43256 0.58914
# Poissons Ratio (z) = -0.09397 0.61372
#
# Static dielectric constant tensor:
#      x y z
#    x 1.789360 0.000000 0.000000 
#    y 0.000000 1.840440 0.000000 
#    z 0.000000 0.000000 1.778590 
# 
# From -- ./inp_files/17945.got.cif
#   From: 2010.05.17/outbox.cif.g08.bks.cpg/sg67_9_cif.got.tgz:17945.got - 2010.06.03 18:28:57.
