data_PCOD9501051
_publ_section_title
;
Structure prediction by ZEFSAII (Michael W. Deem and Ramdas Pophale) SiO2 
 PCOD9501051
Probable space group: C M M A
;
_chemical_formula_sum "Si O2"
_cell_formula_units_Z 96
_cell_length_a 23.969412
_cell_length_b 8.931911
_cell_length_c 26.223011
_cell_angle_alpha 90.000000
_cell_angle_beta 90.000000
_cell_angle_gamma 90.000000
_cell_volume 5614.154039
_symmetry_space_group_name_H-M "C M M A"
_symmetry_group_IT_number 67
_symmetry_cell_setting 'orthorhombic'
loop_
_space_group_symop_operation_xyz
x,y,z
-x,1/2-y,z
x,-y,-z
-x,1/2+y,-z
-x,-y,-z
x,1/2+y,-z
-x,y,z
x,1/2-y,z
1/2+x,1/2+y,z
1/2-x,-y,z
1/2+x,1/2-y,-z
1/2-x,y,-z
1/2-x,1/2-y,-z
1/2+x,y,-z
1/2-x,1/2+y,z
1/2+x,-y,z
loop_
_atom_site_type_symbol
_atom_site_label
_atom_site_fract_x
_atom_site_fract_y
_atom_site_fract_z
Si Si1 0.688866 0.929909 0.655381
Si Si2 0.885401 0.424235 0.257591
Si Si3 0.065797 0.929143 0.159158
Si Si4 0.000000 0.573079 0.423403
Si Si5 0.500000 0.582725 0.319896
Si Si6 0.876974 0.930851 0.448317
Si Si7 0.932198 0.577854 0.947877
O O1 0.691448 0.750000 0.657794
O O2 0.654789 0.971158 0.603854
O O3 0.750000 0.000000 0.652397
O O4 0.657391 0.992545 0.705127
O O5 0.869795 0.250000 0.251844
O O6 0.896363 0.500083 0.203180
O O7 0.945137 0.430537 0.285990
O O8 0.068977 0.750000 0.160566
O O9 0.000000 0.970707 0.167378
O O10 0.082444 0.989775 0.103524
O O11 0.941136 0.513214 0.443623
O O12 0.000000 0.750000 0.433020
O O13 0.000000 0.540871 0.363343
O O14 0.500000 0.750000 0.343684
O O15 0.876801 0.750000 0.451876
O O16 0.852455 0.000000 0.500000
O O17 0.913961 0.750000 0.945223
O O18 0.000000 0.577918 0.949730
O O19 0.912753 0.500000 0.000000
#
# Coordination Sequence:
#
# PCOD9501051 Si02
#       7
#    16  16  16   8   8  16  16
#     4  11  24  42  60  79 102 135 174 217 265 315
#     4  11  21  35  54  79 107 136 173 217 264 317
#     4  10  19  29  45  71 103 140 179 218 262 313
#     4  10  19  35  55  80 110 137 167 205 252 311
#     4  10  20  31  51  80 106 135 168 207 258 313
#     4  10  22  37  57  81 107 136 169 208 255 309
#     4   9  16  26  40  60  93 137 182 223 261 307
#
# _framework density 17.099637999999999
#
# number of rings (size 3 to 8) (size 9 to 14) (size 15 to 20)
#    0.000    1.833    2.500    2.250    0.000    5.667 
#    0.000    1.667    0.000    0.000    0.000    0.000 
#    0.000    0.667    0.000    6.667    0.000    4.333 
#
# Total GULP energy -267823.402014 kJ/mol
# GULP energy per Si atom -5579.654209 kJ/mol
# Density = 1.706072 g / cm^3
# Si number density = 17.099638 Si / 1000 Ang^3
#
#
#
# Elastic Constant Matrix: (Units=GPa)
#
#
# Indices 1 2 3 4 5 6 
#
# 1 81.1187 37.2694 51.2688 0.0000 0.0000 0.0000
# 2 37.2694 69.1493 63.3828 0.0000 0.0000 0.0000
# 3 51.2688 63.3828 166.3047 0.0000 0.0000 0.0000
# 4 0.0000 0.0000 0.0000 35.7220 0.0000 0.0000
# 5 0.0000 0.0000 0.0000 0.0000 -10.0441 0.0000
# 6 0.0000 0.0000 0.0000 0.0000 0.0000 18.7217
#
#
#
# Elastic Compliance Matrix: (Units=1/GPa)
#
#
# Indices 1 2 3 4 5 6 
#
# 1 0.017145 -0.006756 -0.002711 0.000000 0.000000 0.000000
# 2 -0.006756 0.024888 -0.007403 0.000000 0.000000 0.000000
# 3 -0.002711 -0.007403 0.009670 0.000000 0.000000 0.000000
# 4 0.000000 0.000000 0.000000 0.027994 0.000000 0.000000
# 5 0.000000 0.000000 0.000000 0.000000 -0.099561 0.000000
# 6 0.000000 0.000000 0.000000 0.000000 0.000000 0.053414
#
#
# Mechanical properties :
#
#
# Convention : Reuss Voigt Hill
#
# Bulk Modulus (GPa) = 55.66572 68.93495 62.30034
# Shear Modulus (GPa) = 68.23515 19.85672 44.04594
#
# Velocity S-wave (km/s) = 6.32385 3.41139 5.08078
# Velocity P-wave (km/s) = 9.27070 7.47783 8.42211
#
# Compressibility (1/GPa) = 0.01796438
#
# Stress axis : x y z
#
# Youngs Moduli (GPa) = 58.32701 40.17984 103.41232
#
# Poissons Ratio (x) = 0.27145 0.28030
# Poissons Ratio (y) = 0.39406 0.76553
# Poissons Ratio (z) = 0.15810 0.29744
#
# Static dielectric constant tensor:
#      x y z
#    x 1.565860 0.000000 0.000000 
#    y 0.000000 1.585870 0.000000 
#    z 0.000000 0.000000 1.570690 
# 
# From -- ./inp_files/42602.got.cif
#   From: 2010.05.17/outbox.cif.g08.bks.cpg/sg67_22_cif.got.tgz:42602.got - 2010.06.03 18:28:57.
