data_PCOD9501535
_publ_section_title
;
Structure prediction by ZEFSAII (Michael W. Deem and Ramdas Pophale) SiO2 
 PCOD9501535
Probable space group: C M M A
;
_chemical_formula_sum "Si O2"
_cell_formula_units_Z 104
_cell_length_a 9.830755
_cell_length_b 28.684953
_cell_length_c 20.413675
_cell_angle_alpha 90.000000
_cell_angle_beta 90.000000
_cell_angle_gamma 90.000000
_cell_volume 5756.549079
_symmetry_space_group_name_H-M "C M M A"
_symmetry_group_IT_number 67
_symmetry_cell_setting 'orthorhombic'
loop_
_space_group_symop_operation_xyz
x,y,z
-x,1/2-y,z
x,-y,-z
-x,1/2+y,-z
-x,-y,-z
x,1/2+y,-z
-x,y,z
x,1/2-y,z
1/2+x,1/2+y,z
1/2-x,-y,z
1/2+x,1/2-y,-z
1/2-x,y,-z
1/2-x,1/2-y,-z
1/2+x,y,-z
1/2-x,1/2+y,z
1/2+x,-y,z
loop_
_atom_site_type_symbol
_atom_site_label
_atom_site_fract_x
_atom_site_fract_y
_atom_site_fract_z
Si Si1 0.161309 0.953094 0.237902
Si Si2 0.837385 0.452798 0.607103
Si Si3 0.840224 0.303526 0.310252
Si Si4 0.161671 0.370387 0.187174
Si Si5 0.750000 0.379928 0.500000
Si Si6 0.857697 0.303945 0.574203
Si Si7 0.339581 0.303830 0.935950
O O1 0.169810 0.940945 0.315705
O O2 0.237131 0.913533 0.196141
O O3 0.000000 0.958760 0.222834
O O4 0.250000 0.000000 0.229574
O O5 0.750000 0.500000 0.597418
O O6 0.766509 0.414201 0.561534
O O7 0.000000 0.457647 0.590579
O O8 0.803582 0.250000 0.293673
O O9 0.814548 0.337047 0.249575
O O10 0.759388 0.316290 0.375276
O O11 0.000000 0.304992 0.324159
O O12 0.187311 0.339958 0.122313
O O13 0.000000 0.383796 0.187795
O O14 0.862294 0.340555 0.515406
O O15 0.844810 0.250000 0.553638
O O16 0.000000 0.307762 0.611614
O O17 0.500000 0.306951 0.952033
O O18 0.314005 0.250000 0.914776
O O19 0.250000 0.312977 0.000000
#
# Coordination Sequence:
#
# PCOD9501535 Si02
#       7
#    16  16  16  16   8  16  16
#     4  10  21  39  60  81 107 137 173 220 273 326
#     4  10  23  40  57  78 103 131 167 215 270 327
#     4   9  18  33  53  77 105 138 176 217 263 316
#     4  10  19  32  54  83 112 144 182 222 265 313
#     4  12  22  34  54  74  98 132 172 212 260 318
#     4  10  22  38  53  72 101 136 175 220 267 315
#     4   9  18  33  53  80 118 159 193 224 258 301
#
# _framework density 18.066378
#
# number of rings (size 3 to 8) (size 9 to 14) (size 15 to 20)
#    0.000    2.154    0.000    2.769    0.000    8.000 
#    0.000    1.538    0.000    5.077    0.000    3.231 
#    0.000    0.000    0.000    0.000    0.000    0.000 
#
# Total GULP energy -289638.699808 kJ/mol
# GULP energy per Si atom -5569.974996 kJ/mol
# Density = 1.802526 g / cm^3
# Si number density = 18.066378 Si / 1000 Ang^3
#
#
#
# Elastic Constant Matrix: (Units=GPa)
#
#
# Indices 1 2 3 4 5 6 
#
# 1 97.0039 77.7056 72.3980 0.0000 0.0000 0.0000
# 2 77.7056 125.1738 72.2350 0.0000 0.0000 0.0000
# 3 72.3980 72.2350 85.2433 0.0000 0.0000 0.0000
# 4 0.0000 0.0000 0.0000 28.8229 0.0000 0.0000
# 5 0.0000 0.0000 0.0000 0.0000 15.7069 0.0000
# 6 0.0000 0.0000 0.0000 0.0000 0.0000 35.9953
#
#
#
# Elastic Compliance Matrix: (Units=1/GPa)
#
#
# Indices 1 2 3 4 5 6 
#
# 1 0.031915 -0.008161 -0.020190 0.000000 0.000000 0.000000
# 2 -0.008161 0.017721 -0.008086 0.000000 0.000000 0.000000
# 3 -0.020190 -0.008086 0.035731 0.000000 0.000000 0.000000
# 4 0.000000 0.000000 0.000000 0.034695 0.000000 0.000000
# 5 0.000000 0.000000 0.000000 0.000000 0.063666 0.000000
# 6 0.000000 0.000000 0.000000 0.000000 0.000000 0.027781
#
#
# Mechanical properties :
#
#
# Convention : Reuss Voigt Hill
#
# Bulk Modulus (GPa) = 80.04363 83.56645 81.80504
# Shear Modulus (GPa) = 17.32821 21.77718 19.55270
#
# Velocity S-wave (km/s) = 3.10036 3.47565 3.29336
# Velocity P-wave (km/s) = 7.56424 7.90332 7.73564
#
# Compressibility (1/GPa) = 0.01249319
#
# Stress axis : x y z
#
# Youngs Moduli (GPa) = 31.33331 56.42990 27.98724
#
# Poissons Ratio (x) = 0.46052 0.56507
# Poissons Ratio (y) = 0.25571 0.22630
# Poissons Ratio (z) = 0.63262 0.45627
#
# Static dielectric constant tensor:
#      x y z
#    x 1.649150 0.000000 0.000000 
#    y 0.000000 1.641720 0.000000 
#    z 0.000000 0.000000 1.599710 
# 
# From -- ./inp_files/37303.got.cif
#   From: 2010.05.17/outbox.cif.g08.bks.cpg/sg67_19_cif.got.tgz:37303.got - 2010.06.03 18:28:57.
