data_PCOD9501706
_publ_section_title
;
Structure prediction by ZEFSAII (Michael W. Deem and Ramdas Pophale) SiO2 
 PCOD9501706
Probable space group: C M M A
;
_chemical_formula_sum "Si O2"
_cell_formula_units_Z 96
_cell_length_a 17.827211
_cell_length_b 27.434225
_cell_length_c 10.283692
_cell_angle_alpha 90.000000
_cell_angle_beta 90.000000
_cell_angle_gamma 90.000000
_cell_volume 5029.504045
_symmetry_space_group_name_H-M "C M M A"
_symmetry_group_IT_number 67
_symmetry_cell_setting 'orthorhombic'
loop_
_space_group_symop_operation_xyz
x,y,z
-x,1/2-y,z
x,-y,-z
-x,1/2+y,-z
-x,-y,-z
x,1/2+y,-z
-x,y,z
x,1/2-y,z
1/2+x,1/2+y,z
1/2-x,-y,z
1/2+x,1/2-y,-z
1/2-x,y,-z
1/2-x,1/2-y,-z
1/2+x,y,-z
1/2-x,1/2+y,z
1/2+x,-y,z
loop_
_atom_site_type_symbol
_atom_site_label
_atom_site_fract_x
_atom_site_fract_y
_atom_site_fract_z
Si Si1 0.798687 0.634020 0.380322
Si Si2 0.835623 0.057475 0.028877
Si Si3 0.415595 0.394444 0.206479
Si Si4 0.912162 0.693832 0.031380
Si Si5 0.844410 0.359412 0.212054
Si Si6 0.085850 0.192605 0.453739
O O1 0.750000 0.614214 0.500000
O O2 0.855293 0.595781 0.316800
O O3 0.738519 0.648828 0.270835
O O4 0.851430 0.675721 0.442983
O O5 0.894035 0.077987 0.924547
O O6 0.750000 0.074047 0.000000
O O7 0.853300 0.084093 0.166075
O O8 0.836460 0.000000 0.000000
O O9 0.500000 0.403980 0.246574
O O10 0.406459 0.338148 0.161568
O O11 0.894764 0.750000 0.053657
O O12 0.861463 0.671340 0.917682
O O13 0.000000 0.689770 0.989964
O O14 0.898972 0.339795 0.325199
O O15 0.094740 0.250000 0.423185
O O16 0.000000 0.185130 0.499609
#
# Coordination Sequence:
#
# PCOD9501706 Si02
#       6
#    16  16  16  16  16  16
#     4  10  21  35  53  76 109 146 194 238 274 321
#     4  10  20  37  63  89 114 145 181 231 298 365
#     4  10  20  36  57  82 114 148 184 235 287 340
#     4   9  18  31  50  78 111 148 183 222 283 349
#     4  10  19  33  56  81 112 142 187 236 285 338
#     4  10  21  36  55  79 113 160 202 236 279 331
#
# _framework density 19.087368999999999
#
# number of rings (size 3 to 8) (size 9 to 14) (size 15 to 20)
#    0.000    2.167    1.667    1.500    0.000    6.667 
#    0.000    2.500    0.000    7.000    0.000    5.833 
#    0.000    0.000    0.000    0.000    0.000    0.000 
#
# Total GULP energy -267405.607456 kJ/mol
# GULP energy per Si atom -5570.950155 kJ/mol
# Density = 1.904392 g / cm^3
# Si number density = 19.087369 Si / 1000 Ang^3
#
#
#
# Elastic Constant Matrix: (Units=GPa)
#
#
# Indices 1 2 3 4 5 6 
#
# 1 107.9326 14.9170 45.5648 0.0000 0.0000 0.0000
# 2 14.9170 72.4085 26.1551 0.0000 0.0000 0.0000
# 3 45.5648 26.1551 79.3294 0.0000 0.0000 0.0000
# 4 0.0000 0.0000 0.0000 10.9111 0.0000 0.0000
# 5 0.0000 0.0000 0.0000 0.0000 21.1716 0.0000
# 6 0.0000 0.0000 0.0000 0.0000 0.0000 19.0455
#
#
#
# Elastic Compliance Matrix: (Units=1/GPa)
#
#
# Indices 1 2 3 4 5 6 
#
# 1 0.012231 0.000020 -0.007032 0.000000 0.000000 0.000000
# 2 0.000020 0.015678 -0.005181 0.000000 0.000000 0.000000
# 3 -0.007032 -0.005181 0.018353 0.000000 0.000000 0.000000
# 4 0.000000 0.000000 0.000000 0.091650 0.000000 0.000000
# 5 0.000000 0.000000 0.000000 0.000000 0.047233 0.000000
# 6 0.000000 0.000000 0.000000 0.000000 0.000000 0.052506
#
#
# Mechanical properties :
#
#
# Convention : Reuss Voigt Hill
#
# Bulk Modulus (GPa) = 45.71034 48.10493 46.90764
# Shear Modulus (GPa) = 18.56484 21.76122 20.16303
#
# Velocity S-wave (km/s) = 3.12208 3.38018 3.25369
# Velocity P-wave (km/s) = 6.08247 6.36328 6.22446
#
# Compressibility (1/GPa) = 0.02187689
#
# Stress axis : x y z
#
# Youngs Moduli (GPa) = 81.76110 63.78501 54.48826
#
# Poissons Ratio (x) = -0.00129 0.38315
# Poissons Ratio (y) = -0.00166 0.28228
# Poissons Ratio (z) = 0.57492 0.33045
#
# Static dielectric constant tensor:
#      x y z
#    x 1.694820 0.000000 0.000000 
#    y 0.000000 1.674980 0.000000 
#    z 0.000000 0.000000 1.688390 
# 
# From -- ./inp_files/19834.got.cif
#   From: 2010.05.17/outbox.cif.g08.bks.cpg/sg67_10_cif.got.tgz:19834.got - 2010.06.03 18:28:57.
