data_PCOD9502856
_publ_section_title
;
Structure prediction by ZEFSAII (Michael W. Deem and Ramdas Pophale) SiO2 
 PCOD9502856
Probable space group: C M M A
;
_chemical_formula_sum "Si O2"
_cell_formula_units_Z 80
_cell_length_a 10.213024
_cell_length_b 14.664953
_cell_length_c 23.904619
_cell_angle_alpha 90.000000
_cell_angle_beta 90.000000
_cell_angle_gamma 90.000000
_cell_volume 3580.278859
_symmetry_space_group_name_H-M "C M M A"
_symmetry_group_IT_number 67
_symmetry_cell_setting 'orthorhombic'
loop_
_space_group_symop_operation_xyz
x,y,z
-x,1/2-y,z
x,-y,-z
-x,1/2+y,-z
-x,-y,-z
x,1/2+y,-z
-x,y,z
x,1/2-y,z
1/2+x,1/2+y,z
1/2-x,-y,z
1/2+x,1/2-y,-z
1/2-x,y,-z
1/2-x,1/2-y,-z
1/2+x,y,-z
1/2-x,1/2+y,z
1/2+x,-y,z
loop_
_atom_site_type_symbol
_atom_site_label
_atom_site_fract_x
_atom_site_fract_y
_atom_site_fract_z
Si Si1 0.500000 0.362038 0.224240
Si Si2 0.661230 0.907406 0.048798
Si Si3 0.500000 0.137933 0.751037
Si Si4 0.500000 0.638643 0.644260
Si Si5 0.500000 0.361013 0.624792
Si Si6 0.768266 0.357305 0.172972
Si Si7 0.261424 0.861223 0.564323
O O1 0.500000 0.250000 0.224679
O O2 0.500000 0.389107 0.290079
O O3 0.626097 0.393633 0.189024
O O4 0.500000 0.914585 0.037767
O O5 0.680486 0.866315 0.109979
O O6 0.750000 0.000000 0.054387
O O7 0.750000 0.859586 0.000000
O O8 0.500000 0.250000 0.751213
O O9 0.500000 0.107384 0.687920
O O10 0.373932 0.105361 0.784127
O O11 0.500000 0.750000 0.646386
O O12 0.623230 0.610439 0.606186
O O13 0.500000 0.250000 0.625513
O O14 0.628006 0.389814 0.592973
O O15 0.760589 0.250000 0.184009
O O16 0.269330 0.750000 0.562534
O O17 0.250000 0.891087 0.500000
#
# Coordination Sequence:
#
# PCOD9502856 Si02
#       7
#     8  16   8   8   8  16  16
#     4   9  18  29  46  71  99 134 172 219 268 312
#     4  11  24  41  62  83 109 141 174 211 254 312
#     4   9  16  29  46  67  95 126 168 215 260 308
#     4   9  15  24  35  52  82 119 164 213 260 302
#     4   9  15  22  35  52  76 115 158 205 252 294
#     4  10  20  35  55  80 108 137 176 222 263 306
#     4   9  15  21  30  47  74 113 164 214 251 292
#
# _framework density 22.344628
#
# number of rings (size 3 to 8) (size 9 to 14) (size 15 to 20)
#    0.000    2.400    1.000    3.000    2.800    7.600 
#    0.000    0.000    0.000    0.000    0.000    0.000 
#    0.000    0.000    0.000    0.000    0.000   70.000 
#
# Total GULP energy -222945.372813 kJ/mol
# GULP energy per Si atom -5573.634320 kJ/mol
# Density = 2.229377 g / cm^3
# Si number density = 22.344628 Si / 1000 Ang^3
#
#
#
# Elastic Constant Matrix: (Units=GPa)
#
#
# Indices 1 2 3 4 5 6 
#
# 1 254.9617 -0.8484 116.8462 0.0000 0.0000 0.0000
# 2 -0.8484 61.9268 -13.3017 0.0000 0.0000 0.0000
# 3 116.8462 -13.3017 206.0663 0.0000 0.0000 0.0000
# 4 0.0000 0.0000 0.0000 1112.6938 0.0000 0.0000
# 5 0.0000 0.0000 0.0000 0.0000 49.0788 0.0000
# 6 0.0000 0.0000 0.0000 0.0000 0.0000 -4.6960
#
#
#
# Elastic Compliance Matrix: (Units=1/GPa)
#
#
# Indices 1 2 3 4 5 6 
#
# 1 0.005320 -0.000583 -0.003054 0.000000 0.000000 0.000000
# 2 -0.000583 0.016439 0.001392 0.000000 0.000000 0.000000
# 3 -0.003054 0.001392 0.006674 0.000000 0.000000 0.000000
# 4 0.000000 0.000000 0.000000 0.000899 0.000000 0.000000
# 5 0.000000 0.000000 0.000000 0.000000 0.020375 0.000000
# 6 0.000000 0.000000 0.000000 0.000000 0.000000 -0.212945
#
#
# Mechanical properties :
#
#
# Convention : Reuss Voigt Hill
#
# Bulk Modulus (GPa) = 41.76690 80.92744 61.34717
# Shear Modulus (GPa) = -33.16410 259.43257 113.13424
#
# Velocity S-wave (km/s) = -3.85672 10.78690 7.12330
# Velocity P-wave (km/s) = 1.04866 13.83616 9.75550
#
# Compressibility (1/GPa) = 0.02394240
#
# Stress axis : x y z
#
# Youngs Moduli (GPa) = 187.97242 60.83065 149.82427
#
# Poissons Ratio (x) = 0.03547 0.45760
# Poissons Ratio (y) = 0.10962 -0.20853
# Poissons Ratio (z) = 0.57411 -0.08467
#
# Static dielectric constant tensor:
#      x y z
#    x 1.872590 0.000000 0.000000 
#    y 0.000000 1.950380 0.000000 
#    z 0.000000 0.000000 1.899240 
# 
# From -- ./inp_files/40615.got.cif
#   From: 2010.05.17/outbox.cif.g08.bks.cpg/sg67_21_cif.got.tgz:40615.got - 2010.06.03 18:28:57.
