data_PCOD9502893
_publ_section_title
;
Structure prediction by ZEFSAII (Michael W. Deem and Ramdas Pophale) SiO2 
 PCOD9502893
Probable space group: C M M A
;
_chemical_formula_sum "Si O2"
_cell_formula_units_Z 96
_cell_length_a 29.269298
_cell_length_b 15.827615
_cell_length_c 10.574295
_cell_angle_alpha 90.000000
_cell_angle_beta 90.000000
_cell_angle_gamma 90.000000
_cell_volume 4898.681529
_symmetry_space_group_name_H-M "C M M A"
_symmetry_group_IT_number 67
_symmetry_cell_setting 'orthorhombic'
loop_
_space_group_symop_operation_xyz
x,y,z
-x,1/2-y,z
x,-y,-z
-x,1/2+y,-z
-x,-y,-z
x,1/2+y,-z
-x,y,z
x,1/2-y,z
1/2+x,1/2+y,z
1/2-x,-y,z
1/2+x,1/2-y,-z
1/2-x,y,-z
1/2-x,1/2-y,-z
1/2+x,y,-z
1/2-x,1/2+y,z
1/2+x,-y,z
loop_
_atom_site_type_symbol
_atom_site_label
_atom_site_fract_x
_atom_site_fract_y
_atom_site_fract_z
Si Si1 0.199983 0.890605 0.240943
Si Si2 0.853422 0.101023 0.006892
Si Si3 0.449250 0.351796 0.095334
Si Si4 0.695810 0.094154 0.741538
Si Si5 0.854906 0.848974 0.493521
Si Si6 0.948997 0.353126 0.611012
O O1 0.175523 0.862634 0.111212
O O2 0.253271 0.867967 0.251049
O O3 0.172066 0.859185 0.361924
O O4 0.198988 0.992833 0.243176
O O5 0.906634 0.119461 0.986724
O O6 0.833899 0.128740 0.141730
O O7 0.847673 0.000000 0.000000
O O8 0.500000 0.380281 0.054972
O O9 0.449443 0.250000 0.095087
O O10 0.442384 0.378267 0.242005
O O11 0.672274 0.109280 0.607446
O O12 0.858156 0.750000 0.523152
O O13 0.906218 0.882888 0.471031
O O14 0.948120 0.250000 0.609786
O O15 0.000000 0.379110 0.570743
#
# Coordination Sequence:
#
# PCOD9502893 Si02
#       6
#    16  16  16  16  16  16
#     4  10  20  38  57  73 102 148 185 210 255 326
#     4  10  20  35  56  81 105 138 180 226 263 307
#     4   9  17  32  55  79 104 140 182 216 257 320
#     4  10  22  36  53  78 109 140 175 220 271 317
#     4  11  21  34  55  82 107 135 177 224 266 312
#     4   8  15  30  53  77 100 134 177 213 250 309
#
# _framework density 19.597110000000001
#
# number of rings (size 3 to 8) (size 9 to 14) (size 15 to 20)
#    0.000    2.333    1.667    2.500    0.000    5.667 
#    0.000    0.833    0.000    8.000    0.000    0.000 
#    0.000    0.000    0.000    0.000    0.000    0.000 
#
# Total GULP energy -267857.940016 kJ/mol
# GULP energy per Si atom -5580.373750 kJ/mol
# Density = 1.955251 g / cm^3
# Si number density = 19.597110 Si / 1000 Ang^3
#
#
#
# Elastic Constant Matrix: (Units=GPa)
#
#
# Indices 1 2 3 4 5 6 
#
# 1 176.6343 1.9368 68.6220 0.0000 0.0000 0.0000
# 2 1.9368 14.1402 -0.5547 0.0000 0.0000 0.0000
# 3 68.6220 -0.5547 106.8643 0.0000 0.0000 0.0000
# 4 0.0000 0.0000 0.0000 -7.8281 0.0000 0.0000
# 5 0.0000 0.0000 0.0000 0.0000 19.9294 0.0000
# 6 0.0000 0.0000 0.0000 0.0000 0.0000 19.5226
#
#
#
# Elastic Compliance Matrix: (Units=1/GPa)
#
#
# Indices 1 2 3 4 5 6 
#
# 1 0.007564 -0.001227 -0.004864 0.000000 0.000000 0.000000
# 2 -0.001227 0.070934 0.001156 0.000000 0.000000 0.000000
# 3 -0.004864 0.001156 0.012487 0.000000 0.000000 0.000000
# 4 0.000000 0.000000 0.000000 -0.127746 0.000000 0.000000
# 5 0.000000 0.000000 0.000000 0.000000 0.050177 0.000000
# 6 0.000000 0.000000 0.000000 0.000000 0.000000 0.051223
#
#
# Mechanical properties :
#
#
# Convention : Reuss Voigt Hill
#
# Bulk Modulus (GPa) = 12.32804 48.62746 30.47775
# Shear Modulus (GPa) = 49.23788 21.50041 35.36915
#
# Velocity S-wave (km/s) = 5.01793 3.31588 4.25292
# Velocity P-wave (km/s) = 6.31484 6.28709 6.30098
#
# Compressibility (1/GPa) = 0.08111591
#
# Stress axis : x y z
#
# Youngs Moduli (GPa) = 132.19730 14.09762 80.08376
#
# Poissons Ratio (x) = 0.01730 0.38951
# Poissons Ratio (y) = 0.16220 -0.09258
# Poissons Ratio (z) = 0.64298 -0.01630
#
# Static dielectric constant tensor:
#      x y z
#    x 1.700040 0.000000 0.000000 
#    y 0.000000 1.708480 0.000000 
#    z 0.000000 0.000000 1.654920 
# 
# From -- ./inp_files/13702.got.cif
#   From: 2010.05.17/outbox.cif.g08.bks.cpg/sg67_7_cif.got.tgz:13702.got - 2010.06.03 18:28:57.
