data_PCOD9502318
_publ_section_title
;
Structure prediction by ZEFSAII (Michael W. Deem and Ramdas Pophale) SiO2 
 PCOD9502318
Probable space group: C M M A
;
_chemical_formula_sum "Si O2"
_cell_formula_units_Z 96
_cell_length_a 9.185640
_cell_length_b 28.212186
_cell_length_c 21.207969
_cell_angle_alpha 90.000000
_cell_angle_beta 90.000000
_cell_angle_gamma 90.000000
_cell_volume 5495.981208
_symmetry_space_group_name_H-M "C M M A"
_symmetry_group_IT_number 67
_symmetry_cell_setting 'orthorhombic'
loop_
_space_group_symop_operation_xyz
x,y,z
-x,1/2-y,z
x,-y,-z
-x,1/2+y,-z
-x,-y,-z
x,1/2+y,-z
-x,y,z
x,1/2-y,z
1/2+x,1/2+y,z
1/2-x,-y,z
1/2+x,1/2-y,-z
1/2-x,y,-z
1/2-x,1/2-y,-z
1/2+x,y,-z
1/2-x,1/2+y,z
1/2+x,-y,z
loop_
_atom_site_type_symbol
_atom_site_label
_atom_site_fract_x
_atom_site_fract_y
_atom_site_fract_z
Si Si1 0.665301 0.306560 0.689178
Si Si2 0.665890 0.950000 0.054657
Si Si3 0.826645 0.194109 0.932908
Si Si4 0.331682 0.807808 0.563897
Si Si5 0.169168 0.050722 0.201290
Si Si6 0.674837 0.354276 0.199382
O O1 0.500000 0.325214 0.694766
O O2 0.655851 0.250000 0.682826
O O3 0.746024 0.324135 0.626117
O O4 0.758554 0.317779 0.750848
O O5 0.500000 0.954427 0.034180
O O6 0.665232 0.935988 0.126805
O O7 0.750000 0.000000 0.058749
O O8 0.750000 0.922052 0.000000
O O9 0.800131 0.250000 0.917936
O O10 0.783407 0.162701 0.871885
O O11 0.000000 0.187818 0.941572
O O12 0.750000 0.184661 0.000000
O O13 0.500000 0.822818 0.564573
O O14 0.331618 0.750000 0.564403
O O15 0.250000 0.822447 0.500000
O O16 0.262259 0.095365 0.224124
O O17 0.000000 0.048177 0.222290
O O18 0.250000 0.000000 0.209532
O O19 0.500000 0.355381 0.200696
#
# Coordination Sequence:
#
# PCOD9502318 Si02
#       6
#    16  16  16  16  16  16
#     4  10  20  33  50  74 104 137 172 209 248 292
#     4   9  16  26  42  61  81 105 135 175 225 283
#     4   9  19  35  53  72  95 125 163 207 254 304
#     4   9  16  27  45  70 102 139 174 205 239 284
#     4  10  21  36  51  68  91 120 156 199 249 303
#     4  11  22  35  52  73  98 129 166 209 257 307
#
# _framework density 17.467309
#
# number of rings (size 3 to 8) (size 9 to 14) (size 15 to 20)
#    0.000    2.333    0.000    3.500    0.000    7.667 
#    0.000    5.000    0.000    0.000    0.000    0.000 
#    0.000    0.667    0.000    6.667    0.000    4.333 
#
# Total GULP energy -267238.866775 kJ/mol
# GULP energy per Si atom -5567.476391 kJ/mol
# Density = 1.742755 g / cm^3
# Si number density = 17.467309 Si / 1000 Ang^3
#
#
#
# Elastic Constant Matrix: (Units=GPa)
#
#
# Indices 1 2 3 4 5 6 
#
# 1 116.3399 36.1948 38.8066 0.0000 0.0000 0.0000
# 2 36.1948 62.4504 13.6528 0.0000 0.0000 0.0000
# 3 38.8066 13.6528 83.0832 0.0000 0.0000 0.0000
# 4 0.0000 0.0000 0.0000 -1.3118 0.0000 0.0000
# 5 0.0000 0.0000 0.0000 0.0000 22.8649 0.0000
# 6 0.0000 0.0000 0.0000 0.0000 0.0000 11.4543
#
#
#
# Elastic Compliance Matrix: (Units=1/GPa)
#
#
# Indices 1 2 3 4 5 6 
#
# 1 0.011984 -0.005935 -0.004622 0.000000 0.000000 0.000000
# 2 -0.005935 0.019549 -0.000440 0.000000 0.000000 0.000000
# 3 -0.004622 -0.000440 0.014267 0.000000 0.000000 0.000000
# 4 0.000000 0.000000 0.000000 -0.762290 0.000000 0.000000
# 5 0.000000 0.000000 0.000000 0.000000 0.043735 0.000000
# 6 0.000000 0.000000 0.000000 0.000000 0.000000 0.087303
#
#
# Mechanical properties :
#
#
# Convention : Reuss Voigt Hill
#
# Bulk Modulus (GPa) = 42.00778 48.79799 45.40288
# Shear Modulus (GPa) = -9.00055 18.14943 4.57444
#
# Velocity S-wave (km/s) = -2.27244 3.22693 1.62004
# Velocity P-wave (km/s) = 4.14925 6.47159 5.43589
#
# Compressibility (1/GPa) = 0.02380511
#
# Stress axis : x y z
#
# Youngs Moduli (GPa) = 83.44666 51.15420 70.09009
#
# Poissons Ratio (x) = 0.30360 0.32396
# Poissons Ratio (y) = 0.49526 0.03086
# Poissons Ratio (z) = 0.38570 0.02252
#
# Static dielectric constant tensor:
#      x y z
#    x 1.609060 0.000000 0.000000 
#    y 0.000000 1.644190 0.000000 
#    z 0.000000 0.000000 1.619680 
# 
# From -- ./inp_files/37220.got.cif
#   From: 2010.05.17/outbox.cif.g08.bks.cpg/sg67_19_cif.got.tgz:37220.got - 2010.06.03 18:28:57.
