data_PCOD9502965
_publ_section_title
;
Structure prediction by ZEFSAII (Michael W. Deem and Ramdas Pophale) SiO2 
 PCOD9502965
Probable space group: C M M A
;
_chemical_formula_sum "Si O2"
_cell_formula_units_Z 100
_cell_length_a 13.995159
_cell_length_b 18.967306
_cell_length_c 19.411721
_cell_angle_alpha 90.000000
_cell_angle_beta 90.000000
_cell_angle_gamma 90.000000
_cell_volume 5152.850332
_symmetry_space_group_name_H-M "C M M A"
_symmetry_group_IT_number 67
_symmetry_cell_setting 'orthorhombic'
loop_
_space_group_symop_operation_xyz
x,y,z
-x,1/2-y,z
x,-y,-z
-x,1/2+y,-z
-x,-y,-z
x,1/2+y,-z
-x,y,z
x,1/2-y,z
1/2+x,1/2+y,z
1/2-x,-y,z
1/2+x,1/2-y,-z
1/2-x,y,-z
1/2-x,1/2-y,-z
1/2+x,y,-z
1/2-x,1/2+y,z
1/2+x,-y,z
loop_
_atom_site_type_symbol
_atom_site_label
_atom_site_fract_x
_atom_site_fract_y
_atom_site_fract_z
Si Si1 0.385650 0.567113 0.827005
Si Si2 0.728247 0.422493 0.316040
Si Si3 0.000000 0.250000 0.519492
Si Si4 0.315641 0.671449 0.558836
Si Si5 0.262816 0.830508 0.108390
Si Si6 0.111416 0.447721 0.063783
Si Si7 0.888383 0.830948 0.751670
O O1 0.500000 0.576102 0.823977
O O2 0.336876 0.568227 0.752213
O O3 0.333782 0.629473 0.869443
O O4 0.366676 0.493743 0.867623
O O5 0.750000 0.500000 0.343210
O O6 0.678551 0.374175 0.372865
O O7 0.826578 0.383381 0.294754
O O8 0.916579 0.189769 0.525981
O O9 0.274120 0.750000 0.577019
O O10 0.250000 0.638564 0.500000
O O11 0.247018 0.750000 0.087337
O O12 0.321949 0.880357 0.057679
O O13 0.333169 0.830052 0.175372
O O14 0.000000 0.427477 0.065874
O O15 0.125059 0.500000 0.000000
O O16 0.885344 0.750000 0.725349
O O17 0.000000 0.850900 0.758965
#
# Coordination Sequence:
#
# PCOD9502965 Si02
#       7
#    16  16   4  16  16  16  16
#     4  10  22  38  59  82 118 163 201 243 293 364
#     4  11  22  35  56  88 124 156 191 241 299 361
#     4   8  18  40  68  88 108 152 202 254 292 364
#     4   9  20  40  62  88 112 151 203 245 299 363
#     4  10  20  35  57  85 111 144 192 248 305 348
#     4  10  21  39  61  84 113 156 204 245 295 362
#     4   9  18  35  54  79 112 148 191 236 288 346
#
# _framework density 19.406735999999999
#
# number of rings (size 3 to 8) (size 9 to 14) (size 15 to 20)
#    0.480    1.760    0.000    3.360    1.120    5.440 
#    1.440    1.600    0.000    3.840    0.000    0.000 
#    0.000    0.000    0.000    0.000    0.000    0.000 
#
# Total GULP energy -278518.443970 kJ/mol
# GULP energy per Si atom -5570.368879 kJ/mol
# Density = 1.936256 g / cm^3
# Si number density = 19.406736 Si / 1000 Ang^3
#
#
#
# Elastic Constant Matrix: (Units=GPa)
#
#
# Indices 1 2 3 4 5 6 
#
# 1 118.6551 30.2892 5.2668 0.0000 0.0000 0.0000
# 2 30.2892 105.2377 8.4228 0.0000 0.0000 0.0000
# 3 5.2668 8.4228 38.8300 0.0000 0.0000 0.0000
# 4 0.0000 0.0000 0.0000 13.5454 0.0000 0.0000
# 5 0.0000 0.0000 0.0000 0.0000 -17.9121 0.0000
# 6 0.0000 0.0000 0.0000 0.0000 0.0000 18.6874
#
#
#
# Elastic Compliance Matrix: (Units=1/GPa)
#
#
# Indices 1 2 3 4 5 6 
#
# 1 0.009114 -0.002569 -0.000679 0.000000 0.000000 0.000000
# 2 -0.002569 0.010394 -0.001906 0.000000 0.000000 0.000000
# 3 -0.000679 -0.001906 0.026259 0.000000 0.000000 0.000000
# 4 0.000000 0.000000 0.000000 0.073826 0.000000 0.000000
# 5 0.000000 0.000000 0.000000 0.000000 -0.055828 0.000000
# 6 0.000000 0.000000 0.000000 0.000000 0.000000 0.053512
#
#
# Mechanical properties :
#
#
# Convention : Reuss Voigt Hill
#
# Bulk Modulus (GPa) = 28.20169 38.96450 33.58310
# Shear Modulus (GPa) = 35.86695 17.44706 26.65700
#
# Velocity S-wave (km/s) = 4.30370 3.00162 3.71023
# Velocity P-wave (km/s) = 6.26572 5.66872 5.97468
#
# Compressibility (1/GPa) = 0.03545886
#
# Stress axis : x y z
#
# Youngs Moduli (GPa) = 109.72562 96.20756 38.08236
#
# Poissons Ratio (x) = 0.24713 0.02586
# Poissons Ratio (y) = 0.28185 0.07259
# Poissons Ratio (z) = 0.07450 0.18340
#
# Static dielectric constant tensor:
#      x y z
#    x 1.660510 0.000000 0.000000 
#    y 0.000000 1.684690 0.000000 
#    z 0.000000 0.000000 1.724410 
# 
# From -- ./inp_files/38623.got.cif
#   From: 2010.05.17/outbox.cif.g08.bks.cpg/sg67_20_cif.got.tgz:38623.got - 2010.06.03 18:28:57.
