data_PCOD9502884
_publ_section_title
;
Structure prediction by ZEFSAII (Michael W. Deem and Ramdas Pophale) SiO2 
 PCOD9502884
Probable space group: C M M A
;
_chemical_formula_sum "Si O2"
_cell_formula_units_Z 104
_cell_length_a 8.848215
_cell_length_b 26.876095
_cell_length_c 22.926099
_cell_angle_alpha 90.000000
_cell_angle_beta 90.000000
_cell_angle_gamma 90.000000
_cell_volume 5451.951677
_symmetry_space_group_name_H-M "C M M A"
_symmetry_group_IT_number 67
_symmetry_cell_setting 'orthorhombic'
loop_
_space_group_symop_operation_xyz
x,y,z
-x,1/2-y,z
x,-y,-z
-x,1/2+y,-z
-x,-y,-z
x,1/2+y,-z
-x,y,z
x,1/2-y,z
1/2+x,1/2+y,z
1/2-x,-y,z
1/2+x,1/2-y,-z
1/2-x,y,-z
1/2-x,1/2-y,-z
1/2+x,y,-z
1/2-x,1/2+y,z
1/2+x,-y,z
loop_
_atom_site_type_symbol
_atom_site_label
_atom_site_fract_x
_atom_site_fract_y
_atom_site_fract_z
Si Si1 0.179445 0.903505 0.560292
Si Si2 0.182047 0.750000 0.936370
Si Si3 0.681941 0.694349 0.614117
Si Si4 0.816937 0.946334 0.935032
Si Si5 0.180452 0.850074 0.262261
Si Si6 0.681956 0.153014 0.863564
Si Si7 0.180424 0.052009 0.315694
O O1 0.250000 0.921256 0.500000
O O2 0.242810 0.848928 0.576475
O O3 0.216202 0.937389 0.616201
O O4 0.000000 0.900919 0.554592
O O5 0.228377 0.699550 0.903482
O O6 0.000000 0.750000 0.939221
O O7 0.250000 0.750000 0.000000
O O8 0.500000 0.689941 0.609009
O O9 0.727025 0.750000 0.596982
O O10 0.720549 0.684732 0.682356
O O11 0.775530 0.900030 0.892963
O O12 0.000000 0.949416 0.938252
O O13 0.750000 0.000000 0.915894
O O14 0.750000 0.937202 0.000000
O O15 0.250421 0.837802 0.200134
O O16 0.244046 0.903788 0.280030
O O17 0.000000 0.850791 0.258036
O O18 0.500000 0.152805 0.859153
O O19 0.000000 0.053035 0.308591
O O20 0.250000 0.000000 0.297695
#
# Coordination Sequence:
#
# PCOD9502884 Si02
#       7
#    16   8  16  16  16  16  16
#     4  10  21  36  55  81 111 144 184 229 276 332
#     4  10  22  40  60  84 116 154 193 238 293 346
#     4   9  19  36  56  78 107 142 181 228 278 329
#     4  10  20  35  56  80 108 141 180 225 275 330
#     4  10  21  36  57  83 111 144 184 230 278 328
#     4  10  22  38  56  82 115 150 188 233 284 342
#     4  10  21  38  59  82 112 148 187 229 280 336
#
# _framework density 19.075737
#
# number of rings (size 3 to 8) (size 9 to 14) (size 15 to 20)
#    0.000    2.154    0.000    2.769    1.077    5.846 
#    0.000    3.077    0.000    0.000    0.000    0.000 
#    0.000    0.000    0.000    0.000    0.000    0.000 
#
# Total GULP energy -290374.545297 kJ/mol
# GULP energy per Si atom -5584.125871 kJ/mol
# Density = 1.903232 g / cm^3
# Si number density = 19.075737 Si / 1000 Ang^3
#
#
#
# Elastic Constant Matrix: (Units=GPa)
#
#
# Indices 1 2 3 4 5 6 
#
# 1 17.4858 7.4624 15.3650 0.0000 0.0000 0.0000
# 2 7.4624 55.9970 -6.8930 0.0000 0.0000 0.0000
# 3 15.3650 -6.8930 74.4353 0.0000 0.0000 0.0000
# 4 0.0000 0.0000 0.0000 -4.2892 0.0000 0.0000
# 5 0.0000 0.0000 0.0000 0.0000 37.5398 0.0000
# 6 0.0000 0.0000 0.0000 0.0000 0.0000 23.4609
#
#
#
# Elastic Compliance Matrix: (Units=1/GPa)
#
#
# Indices 1 2 3 4 5 6 
#
# 1 0.077591 -0.012454 -0.017170 0.000000 0.000000 0.000000
# 2 -0.012454 0.020063 0.004429 0.000000 0.000000 0.000000
# 3 -0.017170 0.004429 0.017389 0.000000 0.000000 0.000000
# 4 0.000000 0.000000 0.000000 -0.233146 0.000000 0.000000
# 5 0.000000 0.000000 0.000000 0.000000 0.026638 0.000000
# 6 0.000000 0.000000 0.000000 0.000000 0.000000 0.042624
#
#
# Mechanical properties :
#
#
# Convention : Reuss Voigt Hill
#
# Bulk Modulus (GPa) = 15.46710 19.97633 17.72172
# Shear Modulus (GPa) = 216.45193 20.14122 118.29657
#
# Velocity S-wave (km/s) = 10.66377 3.25292 7.88345
# Velocity P-wave (km/s) = 12.63912 4.96019 9.60080
#
# Compressibility (1/GPa) = 0.06465337
#
# Stress axis : x y z
#
# Youngs Moduli (GPa) = 12.88805 49.84338 57.50845
#
# Poissons Ratio (x) = 0.62073 0.98740
# Poissons Ratio (y) = 0.16050 -0.25468
# Poissons Ratio (z) = 0.22128 -0.22073
#
# Static dielectric constant tensor:
#      x y z
#    x 1.636770 0.000000 0.000000 
#    y 0.000000 1.638610 0.000000 
#    z 0.000000 0.000000 1.664780 
# 
# From -- ./inp_files/40984.got.cif
#   From: 2010.05.17/outbox.cif.g08.bks.cpg/sg67_21_cif.got.tgz:40984.got - 2010.06.03 18:28:57.
