data_PCOD9502161
_publ_section_title
;
Structure prediction by ZEFSAII (Michael W. Deem and Ramdas Pophale) SiO2 
 PCOD9502161
Probable space group: C M M A
;
_chemical_formula_sum "Si O2"
_cell_formula_units_Z 88
_cell_length_a 26.308375
_cell_length_b 8.829476
_cell_length_c 22.700715
_cell_angle_alpha 90.000000
_cell_angle_beta 90.000000
_cell_angle_gamma 90.000000
_cell_volume 5273.130147
_symmetry_space_group_name_H-M "C M M A"
_symmetry_group_IT_number 67
_symmetry_cell_setting 'orthorhombic'
loop_
_space_group_symop_operation_xyz
x,y,z
-x,1/2-y,z
x,-y,-z
-x,1/2+y,-z
-x,-y,-z
x,1/2+y,-z
-x,y,z
x,1/2-y,z
1/2+x,1/2+y,z
1/2-x,-y,z
1/2+x,1/2-y,-z
1/2-x,y,-z
1/2-x,1/2-y,-z
1/2+x,y,-z
1/2-x,1/2+y,z
1/2+x,-y,z
loop_
_atom_site_type_symbol
_atom_site_label
_atom_site_fract_x
_atom_site_fract_y
_atom_site_fract_z
Si Si1 0.500000 0.065758 0.434751
Si Si2 0.941432 0.576415 0.219722
Si Si3 0.806263 0.070229 0.940982
Si Si4 0.195381 0.068532 0.306590
Si Si5 0.654864 0.926873 0.177485
Si Si6 0.906279 0.927269 0.353623
O O1 0.500000 0.250000 0.434897
O O2 0.551646 0.018099 0.400425
O O3 0.500000 0.000000 0.500000
O O4 0.926744 0.750000 0.203852
O O5 0.904115 0.457546 0.190330
O O6 0.933476 0.563824 0.289921
O O7 0.000000 0.554205 0.205070
O O8 0.803851 0.250000 0.946637
O O9 0.750000 0.000000 0.938485
O O10 0.830826 0.021599 0.879647
O O11 0.831048 0.000000 0.000000
O O12 0.197308 0.250000 0.308984
O O13 0.183072 0.024795 0.238188
O O14 0.250000 0.000000 0.323200
O O15 0.147622 0.011203 0.345482
O O16 0.665816 0.750000 0.167516
O O17 0.895679 0.750000 0.365464
#
# Coordination Sequence:
#
# PCOD9502161 Si02
#       6
#     8  16  16  16  16  16
#     4  10  20  34  54  80 108 140 173 210 253 296
#     4   9  16  29  50  73  98 130 166 204 248 298
#     4  11  21  34  51  70  94 126 163 204 249 297
#     4  10  20  32  49  75 105 137 170 208 256 306
#     4  10  20  32  47  72 102 131 166 205 249 301
#     4   9  17  32  52  74 103 137 172 209 251 300
#
# _framework density 16.688381
#
# number of rings (size 3 to 8) (size 9 to 14) (size 15 to 20)
#    0.000    2.182    0.909    3.818    0.000    4.727 
#    0.000    0.000    0.000    1.091    0.000    3.818 
#    0.000    0.000    0.000    0.000    0.000    0.000 
#
# Total GULP energy -245291.091305 kJ/mol
# GULP energy per Si atom -5574.797530 kJ/mol
# Density = 1.665040 g / cm^3
# Si number density = 16.688381 Si / 1000 Ang^3
#
#
#
# Elastic Constant Matrix: (Units=GPa)
#
#
# Indices 1 2 3 4 5 6 
#
# 1 106.0350 37.8333 48.1711 0.0000 0.0000 0.0000
# 2 37.8333 69.2958 40.5081 0.0000 0.0000 0.0000
# 3 48.1711 40.5081 90.1721 0.0000 0.0000 0.0000
# 4 0.0000 0.0000 0.0000 26.2621 0.0000 0.0000
# 5 0.0000 0.0000 0.0000 0.0000 20.5806 0.0000
# 6 0.0000 0.0000 0.0000 0.0000 0.0000 26.4181
#
#
#
# Elastic Compliance Matrix: (Units=1/GPa)
#
#
# Indices 1 2 3 4 5 6 
#
# 1 0.013303 -0.004216 -0.005213 0.000000 0.000000 0.000000
# 2 -0.004216 0.020906 -0.007140 0.000000 0.000000 0.000000
# 3 -0.005213 -0.007140 0.017082 0.000000 0.000000 0.000000
# 4 0.000000 0.000000 0.000000 0.038078 0.000000 0.000000
# 5 0.000000 0.000000 0.000000 0.000000 0.048589 0.000000
# 6 0.000000 0.000000 0.000000 0.000000 0.000000 0.037853
#
#
# Mechanical properties :
#
#
# Convention : Reuss Voigt Hill
#
# Bulk Modulus (GPa) = 55.08167 57.61422 56.34794
# Shear Modulus (GPa) = 23.25587 23.91819 23.58703
#
# Velocity S-wave (km/s) = 3.73706 3.78990 3.76357
# Velocity P-wave (km/s) = 7.19017 7.33141 7.26113
#
# Compressibility (1/GPa) = 0.01815486
#
# Stress axis : x y z
#
# Youngs Moduli (GPa) = 75.16962 47.83276 58.54119
#
# Poissons Ratio (x) = 0.20166 0.30517
# Poissons Ratio (y) = 0.31691 0.41796
# Poissons Ratio (z) = 0.39185 0.34150
#
# Static dielectric constant tensor:
#      x y z
#    x 1.565200 0.000000 0.000000 
#    y 0.000000 1.572720 0.000000 
#    z 0.000000 0.000000 1.568170 
# 
# From -- ./inp_files/36949.got.cif
#   From: 2010.05.17/outbox.cif.g08.bks.cpg/sg67_19_cif.got.tgz:36949.got - 2010.06.03 18:28:57.
