data_PCOD9502934
_publ_section_title
;
Structure prediction by ZEFSAII (Michael W. Deem and Ramdas Pophale) SiO2 
 PCOD9502934
Probable space group: C M M A
;
_chemical_formula_sum "Si O2"
_cell_formula_units_Z 96
_cell_length_a 15.259422
_cell_length_b 15.140747
_cell_length_c 21.375674
_cell_angle_alpha 90.000000
_cell_angle_beta 90.000000
_cell_angle_gamma 90.000000
_cell_volume 4938.615369
_symmetry_space_group_name_H-M "C M M A"
_symmetry_group_IT_number 67
_symmetry_cell_setting 'orthorhombic'
loop_
_space_group_symop_operation_xyz
x,y,z
-x,1/2-y,z
x,-y,-z
-x,1/2+y,-z
-x,-y,-z
x,1/2+y,-z
-x,y,z
x,1/2-y,z
1/2+x,1/2+y,z
1/2-x,-y,z
1/2+x,1/2-y,-z
1/2-x,y,-z
1/2-x,1/2-y,-z
1/2+x,y,-z
1/2-x,1/2+y,z
1/2+x,-y,z
loop_
_atom_site_type_symbol
_atom_site_label
_atom_site_fract_x
_atom_site_fract_y
_atom_site_fract_z
Si Si1 0.859352 0.153042 0.326065
Si Si2 0.705368 0.646868 0.766060
Si Si3 0.263427 0.647107 0.903643
Si Si4 0.402688 0.046345 0.339706
Si Si5 0.711140 0.850659 0.567232
Si Si6 0.399031 0.396925 0.987299
O O1 0.903044 0.250000 0.327251
O O2 0.803057 0.147730 0.262339
O O3 0.789405 0.153916 0.382641
O O4 0.905470 0.059418 0.334069
O O5 0.674611 0.750000 0.764269
O O6 0.706913 0.611170 0.836538
O O7 0.649851 0.587464 0.718662
O O8 0.246728 0.750000 0.892995
O O9 0.171194 0.611819 0.930692
O O10 0.341963 0.639739 0.954198
O O11 0.500000 0.082753 0.338776
O O12 0.355275 0.079589 0.402756
O O13 0.674162 0.750000 0.563035
O O14 0.750000 0.874607 0.500000
O O15 0.500000 0.362190 0.979991
O O16 0.407672 0.500000 0.000000
#
# Coordination Sequence:
#
# PCOD9502934 Si02
#       6
#    16  16  16  16  16  16
#     4   9  19  36  55  76 107 148 190 225 262 321
#     4   9  19  36  57  80 106 141 186 230 275 335
#     4  10  20  35  57  81 107 144 185 228 284 342
#     4  11  22  34  55  86 115 143 177 228 287 333
#     4   9  18  35  59  82 107 145 187 223 265 323
#     4  10  21  35  52  78 111 146 187 233 276 326
#
# _framework density 19.438645999999999
#
# number of rings (size 3 to 8) (size 9 to 14) (size 15 to 20)
#    0.000    2.333    0.000    5.500    0.000    7.667 
#    0.000    5.833    0.000    6.000    0.000    0.000 
#    0.000    0.000    0.000    0.000    0.000    0.000 
#
# Total GULP energy -267356.873879 kJ/mol
# GULP energy per Si atom -5569.934872 kJ/mol
# Density = 1.939440 g / cm^3
# Si number density = 19.438646 Si / 1000 Ang^3
#
#
#
# Elastic Constant Matrix: (Units=GPa)
#
#
# Indices 1 2 3 4 5 6 
#
# 1 114.0211 37.3012 32.9091 0.0000 0.0000 0.0000
# 2 37.3012 107.9298 28.3695 0.0000 0.0000 0.0000
# 3 32.9091 28.3695 114.9682 0.0000 0.0000 0.0000
# 4 0.0000 0.0000 0.0000 21.9704 0.0000 0.0000
# 5 0.0000 0.0000 0.0000 0.0000 4.6643 0.0000
# 6 0.0000 0.0000 0.0000 0.0000 0.0000 168.1152
#
#
#
# Elastic Compliance Matrix: (Units=1/GPa)
#
#
# Indices 1 2 3 4 5 6 
#
# 1 0.010399 -0.003006 -0.002235 0.000000 0.000000 0.000000
# 2 -0.003006 0.010777 -0.001799 0.000000 0.000000 0.000000
# 3 -0.002235 -0.001799 0.009782 0.000000 0.000000 0.000000
# 4 0.000000 0.000000 0.000000 0.045516 0.000000 0.000000
# 5 0.000000 0.000000 0.000000 0.000000 0.214396 0.000000
# 6 0.000000 0.000000 0.000000 0.000000 0.000000 0.005948
#
#
# Mechanical properties :
#
#
# Convention : Reuss Voigt Hill
#
# Bulk Modulus (GPa) = 59.25016 59.34208 59.29612
# Shear Modulus (GPa) = 15.79662 54.83926 35.31794
#
# Velocity S-wave (km/s) = 2.85378 5.31721 4.26713
# Velocity P-wave (km/s) = 6.43471 8.26384 7.40596
#
# Compressibility (1/GPa) = 0.01687759
#
# Stress axis : x y z
#
# Youngs Moduli (GPa) = 96.16440 92.78887 102.23274
#
# Poissons Ratio (x) = 0.27897 0.22846
# Poissons Ratio (y) = 0.28912 0.18389
# Poissons Ratio (z) = 0.21490 0.16691
#
# Static dielectric constant tensor:
#      x y z
#    x 1.663720 0.000000 0.000000 
#    y 0.000000 1.725200 0.000000 
#    z 0.000000 0.000000 1.703390 
# 
# From -- ./inp_files/38423.got.cif
#   From: 2010.05.17/outbox.cif.g08.bks.cpg/sg67_20_cif.got.tgz:38423.got - 2010.06.03 18:28:57.
