data_PCOD9502211
_publ_section_title
;
Structure prediction by ZEFSAII (Michael W. Deem and Ramdas Pophale) SiO2 
 PCOD9502211
Probable space group: C M M A
;
_chemical_formula_sum "Si O2"
_cell_formula_units_Z 72
_cell_length_a 8.737756
_cell_length_b 15.902794
_cell_length_c 25.688410
_cell_angle_alpha 90.000000
_cell_angle_beta 90.000000
_cell_angle_gamma 90.000000
_cell_volume 3569.526170
_symmetry_space_group_name_H-M "C M M A"
_symmetry_group_IT_number 67
_symmetry_cell_setting 'orthorhombic'
loop_
_space_group_symop_operation_xyz
x,y,z
-x,1/2-y,z
x,-y,-z
-x,1/2+y,-z
-x,-y,-z
x,1/2+y,-z
-x,y,z
x,1/2-y,z
1/2+x,1/2+y,z
1/2-x,-y,z
1/2+x,1/2-y,-z
1/2-x,y,-z
1/2-x,1/2-y,-z
1/2+x,y,-z
1/2-x,1/2+y,z
1/2+x,-y,z
loop_
_atom_site_type_symbol
_atom_site_label
_atom_site_fract_x
_atom_site_fract_y
_atom_site_fract_z
Si Si1 0.314854 0.088862 0.381339
Si Si2 0.183631 0.404641 0.052598
Si Si3 0.184148 0.250000 0.441817
Si Si4 0.676722 0.152513 0.271021
Si Si5 0.182104 0.593681 0.834058
O O1 0.500000 0.091059 0.383636
O O2 0.246728 0.167089 0.412788
O O3 0.267337 0.100503 0.320671
O O4 0.250000 0.000000 0.400473
O O5 0.250000 0.500000 0.053975
O O6 0.226039 0.368271 0.109379
O O7 0.000000 0.407834 0.048378
O O8 0.250000 0.364540 0.000000
O O9 0.250000 0.250000 0.500000
O O10 0.000000 0.250000 0.441942
O O11 0.500000 0.129134 0.261230
O O12 0.681619 0.250000 0.286837
O O13 0.764290 0.140847 0.217288
O O14 0.250000 0.500000 0.830971
O O15 0.000000 0.587770 0.833867
#
# Coordination Sequence:
#
# PCOD9502211 Si02
#       5
#    16  16   8  16  16
#     4  11  23  43  68  99 135 172 217 267 316 376
#     4   9  16  26  42  66  97 133 177 229 289 351
#     4  12  26  46  72 102 136 178 219 264 317 368
#     4  10  21  38  59  84 117 156 197 248 306 364
#     4  10  20  32  49  77 109 143 186 239 294 360
#
# _framework density 20.170745
#
# number of rings (size 3 to 8) (size 9 to 14) (size 15 to 20)
#    0.000    1.778    1.111    4.333    0.000    7.111 
#    0.000    2.222    0.000    0.667    0.000    0.000 
#    0.000    0.000    0.000    0.000    0.000    0.000 
#
# Total GULP energy -200982.003268 kJ/mol
# GULP energy per Si atom -5582.833424 kJ/mol
# Density = 2.012484 g / cm^3
# Si number density = 20.170745 Si / 1000 Ang^3
#
#
#
# Elastic Constant Matrix: (Units=GPa)
#
#
# Indices 1 2 3 4 5 6 
#
# 1 82.0837 32.0697 58.8911 0.0000 0.0000 0.0000
# 2 32.0697 91.6645 56.1836 0.0000 0.0000 0.0000
# 3 58.8911 56.1836 155.3825 0.0000 0.0000 0.0000
# 4 0.0000 0.0000 0.0000 3.5154 0.0000 0.0000
# 5 0.0000 0.0000 0.0000 0.0000 38.5421 0.0000
# 6 0.0000 0.0000 0.0000 0.0000 0.0000 24.3991
#
#
#
# Elastic Compliance Matrix: (Units=1/GPa)
#
#
# Indices 1 2 3 4 5 6 
#
# 1 0.017201 -0.002598 -0.005580 0.000000 0.000000 0.000000
# 2 -0.002598 0.014408 -0.004225 0.000000 0.000000 0.000000
# 3 -0.005580 -0.004225 0.010078 0.000000 0.000000 0.000000
# 4 0.000000 0.000000 0.000000 0.284461 0.000000 0.000000
# 5 0.000000 0.000000 0.000000 0.000000 0.025946 0.000000
# 6 0.000000 0.000000 0.000000 0.000000 0.000000 0.040985
#
#
# Mechanical properties :
#
#
# Convention : Reuss Voigt Hill
#
# Bulk Modulus (GPa) = 59.23655 69.26885 64.25270
# Shear Modulus (GPa) = 11.80606 25.42373 18.61490
#
# Velocity S-wave (km/s) = 2.42193 3.55410 3.04117
# Velocity P-wave (km/s) = 6.10347 7.15947 6.65245
#
# Compressibility (1/GPa) = 0.01688147
#
# Stress axis : x y z
#
# Youngs Moduli (GPa) = 58.13613 69.40657 99.22325
#
# Poissons Ratio (x) = 0.18031 0.55366
# Poissons Ratio (y) = 0.15103 0.41922
# Poissons Ratio (z) = 0.32440 0.29325
#
# Static dielectric constant tensor:
#      x y z
#    x 1.686120 0.000000 0.000000 
#    y 0.000000 1.713490 0.000000 
#    z 0.000000 0.000000 1.757270 
# 
# From -- ./inp_files/42131.got.cif
#   From: 2010.05.17/outbox.cif.g08.bks.cpg/sg67_22_cif.got.tgz:42131.got - 2010.06.03 18:28:57.
