data_PCOD9502492
_publ_section_title
;
Structure prediction by ZEFSAII (Michael W. Deem and Ramdas Pophale) SiO2 
 PCOD9502492
Probable space group: C M M A
;
_chemical_formula_sum "Si O2"
_cell_formula_units_Z 112
_cell_length_a 21.500879
_cell_length_b 19.125049
_cell_length_c 14.744984
_cell_angle_alpha 90.000000
_cell_angle_beta 90.000000
_cell_angle_gamma 90.000000
_cell_volume 6063.216519
_symmetry_space_group_name_H-M "C M M A"
_symmetry_group_IT_number 67
_symmetry_cell_setting 'orthorhombic'
loop_
_space_group_symop_operation_xyz
x,y,z
-x,1/2-y,z
x,-y,-z
-x,1/2+y,-z
-x,-y,-z
x,1/2+y,-z
-x,y,z
x,1/2-y,z
1/2+x,1/2+y,z
1/2-x,-y,z
1/2+x,1/2-y,-z
1/2-x,y,-z
1/2-x,1/2-y,-z
1/2+x,y,-z
1/2-x,1/2+y,z
1/2+x,-y,z
loop_
_atom_site_type_symbol
_atom_site_label
_atom_site_fract_x
_atom_site_fract_y
_atom_site_fract_z
Si Si1 0.570120 0.952045 0.579411
Si Si2 0.192875 0.056059 0.195638
Si Si3 0.157287 0.672164 0.444909
Si Si4 0.069005 0.971421 0.212726
Si Si5 0.292476 0.830728 0.354462
Si Si6 0.318558 0.672220 0.042435
Si Si7 0.572070 0.169330 0.105138
O O1 0.500000 0.934685 0.550708
O O2 0.609878 0.883685 0.589110
O O3 0.567970 0.983647 0.679211
O O4 0.597477 0.000000 0.500000
O O5 0.195215 0.106279 0.284856
O O6 0.190647 0.111520 0.114649
O O7 0.250000 0.000000 0.195956
O O8 0.129204 0.013305 0.182874
O O9 0.133870 0.750000 0.430779
O O10 0.221757 0.664971 0.390790
O O11 0.168717 0.662276 0.552438
O O12 0.077190 0.890447 0.181967
O O13 0.000000 0.992601 0.177816
O O14 0.301635 0.750000 0.320098
O O15 0.333173 0.750000 0.080811
O O16 0.250000 0.677289 0.000000
O O17 0.373975 0.657215 0.970010
O O18 0.500000 0.164533 0.070402
O O19 0.580328 0.250000 0.137274
#
# Coordination Sequence:
#
# PCOD9502492 Si02
#       7
#    16  16  16  16  16  16  16
#     4  10  20  34  51  74 110 148 176 210 264 326
#     4  12  23  35  56  83 109 142 182 220 265 330
#     4   9  18  33  54  78 102 134 180 229 270 310
#     4  10  22  37  54  81 113 144 179 223 270 312
#     4   9  19  36  55  76 105 139 178 226 272 316
#     4  10  22  39  57  79 109 141 173 219 278 329
#     4   9  19  38  61  81 105 141 184 225 267 321
#
# _framework density 18.472042999999999
#
# number of rings (size 3 to 8) (size 9 to 14) (size 15 to 20)
#    0.000    2.143    0.000    3.857    0.000    3.429 
#    0.000    7.857    0.000    2.143    0.000    0.000 
#    0.000    0.000    0.000    0.000    0.000    0.000 
#
# Total GULP energy -311849.504942 kJ/mol
# GULP energy per Si atom -5568.741160 kJ/mol
# Density = 1.843000 g / cm^3
# Si number density = 18.472043 Si / 1000 Ang^3
#
#
#
# Elastic Constant Matrix: (Units=GPa)
#
#
# Indices 1 2 3 4 5 6 
#
# 1 80.0254 38.9953 13.3759 0.0000 0.0000 0.0000
# 2 38.9953 84.4842 24.1624 0.0000 0.0000 0.0000
# 3 13.3759 24.1624 39.6881 0.0000 0.0000 0.0000
# 4 0.0000 0.0000 0.0000 27.0782 0.0000 0.0000
# 5 0.0000 0.0000 0.0000 0.0000 16.4868 0.0000
# 6 0.0000 0.0000 0.0000 0.0000 0.0000 29.1418
#
#
#
# Elastic Compliance Matrix: (Units=1/GPa)
#
#
# Indices 1 2 3 4 5 6 
#
# 1 0.016161 -0.007146 -0.001096 0.000000 0.000000 0.000000
# 2 -0.007146 0.017492 -0.008241 0.000000 0.000000 0.000000
# 3 -0.001096 -0.008241 0.030583 0.000000 0.000000 0.000000
# 4 0.000000 0.000000 0.000000 0.036930 0.000000 0.000000
# 5 0.000000 0.000000 0.000000 0.000000 0.060655 0.000000
# 6 0.000000 0.000000 0.000000 0.000000 0.000000 0.034315
#
#
# Mechanical properties :
#
#
# Convention : Reuss Voigt Hill
#
# Bulk Modulus (GPa) = 31.97943 39.69611 35.83777
# Shear Modulus (GPa) = 20.87461 23.05229 21.96345
#
# Velocity S-wave (km/s) = 3.36529 3.53647 3.45194
# Velocity P-wave (km/s) = 5.69650 6.18159 5.94400
#
# Compressibility (1/GPa) = 0.03127010
#
# Stress axis : x y z
#
# Youngs Moduli (GPa) = 61.87552 57.16959 32.69795
#
# Poissons Ratio (x) = 0.40854 0.03584
# Poissons Ratio (y) = 0.44217 0.26946
# Poissons Ratio (z) = 0.06783 0.47112
#
# Static dielectric constant tensor:
#      x y z
#    x 1.655710 0.000000 0.000000 
#    y 0.000000 1.643360 0.000000 
#    z 0.000000 0.000000 1.659700 
# 
# From -- ./inp_files/30187.got.cif
#   From: 2010.05.17/outbox.cif.g08.bks.cpg/sg67_16_cif.got.tgz:30187.got - 2010.06.03 18:28:57.
