data_PCOD9502515
_publ_section_title
;
Structure prediction by ZEFSAII (Michael W. Deem and Ramdas Pophale) SiO2 
 PCOD9502515
Probable space group: C M M A
;
_chemical_formula_sum "Si O2"
_cell_formula_units_Z 88
_cell_length_a 9.059288
_cell_length_b 30.874082
_cell_length_c 18.144043
_cell_angle_alpha 90.000000
_cell_angle_beta 90.000000
_cell_angle_gamma 90.000000
_cell_volume 5074.838034
_symmetry_space_group_name_H-M "C M M A"
_symmetry_group_IT_number 67
_symmetry_cell_setting 'orthorhombic'
loop_
_space_group_symop_operation_xyz
x,y,z
-x,1/2-y,z
x,-y,-z
-x,1/2+y,-z
-x,-y,-z
x,1/2+y,-z
-x,y,z
x,1/2-y,z
1/2+x,1/2+y,z
1/2-x,-y,z
1/2+x,1/2-y,-z
1/2-x,y,-z
1/2-x,1/2-y,-z
1/2+x,y,-z
1/2-x,1/2+y,z
1/2+x,-y,z
loop_
_atom_site_type_symbol
_atom_site_label
_atom_site_fract_x
_atom_site_fract_y
_atom_site_fract_z
Si Si1 0.176942 0.700744 0.079409
Si Si2 0.675967 0.136415 0.210714
Si Si3 0.673524 0.750000 0.578352
Si Si4 0.325022 0.456468 0.270400
Si Si5 0.174501 0.073789 0.422608
Si Si6 0.171676 0.667689 0.642453
O O1 0.216687 0.750000 0.104868
O O2 0.215394 0.663157 0.137521
O O3 0.000000 0.699907 0.071014
O O4 0.250000 0.694001 0.000000
O O5 0.500000 0.143967 0.224873
O O6 0.697426 0.084602 0.216267
O O7 0.774834 0.154058 0.276963
O O8 0.500000 0.750000 0.570490
O O9 0.750000 0.750000 0.500000
O O10 0.727982 0.792845 0.618577
O O11 0.500000 0.462163 0.280450
O O12 0.250000 0.500000 0.241795
O O13 0.252402 0.446305 0.350413
O O14 0.250000 0.061575 0.500000
O O15 0.189120 0.125658 0.409761
O O16 0.000000 0.063216 0.423103
O O17 0.000000 0.680088 0.641581
#
# Coordination Sequence:
#
# PCOD9502515 Si02
#       6
#    16  16   8  16  16  16
#     4   9  18  33  54  82 114 144 175 208 253 308
#     4   9  19  35  55  79 107 141 175 214 262 314
#     4  12  24  36  50  68  97 136 179 224 268 312
#     4  10  20  35  54  76 103 134 175 220 268 318
#     4  10  20  34  52  73 100 132 170 218 271 321
#     4  10  21  35  51  74 101 133 176 221 264 315
#
# _framework density 17.340454999999999
#
# number of rings (size 3 to 8) (size 9 to 14) (size 15 to 20)
#    0.000    2.182    0.000    3.000    1.273    5.455 
#    0.000    1.818    0.000    0.545    0.000    3.818 
#    0.000    0.000    0.000    0.000    0.000    0.000 
#
# Total GULP energy -245484.705636 kJ/mol
# GULP energy per Si atom -5579.197855 kJ/mol
# Density = 1.730099 g / cm^3
# Si number density = 17.340455 Si / 1000 Ang^3
#
#
#
# Elastic Constant Matrix: (Units=GPa)
#
#
# Indices 1 2 3 4 5 6 
#
# 1 92.1242 64.1692 34.5591 0.0000 0.0000 0.0000
# 2 64.1692 110.8552 51.8886 0.0000 0.0000 0.0000
# 3 34.5591 51.8886 81.3711 0.0000 0.0000 0.0000
# 4 0.0000 0.0000 0.0000 5.3441 0.0000 0.0000
# 5 0.0000 0.0000 0.0000 0.0000 27.4206 0.0000
# 6 0.0000 0.0000 0.0000 0.0000 0.0000 28.8737
#
#
#
# Elastic Compliance Matrix: (Units=1/GPa)
#
#
# Indices 1 2 3 4 5 6 
#
# 1 0.018308 -0.009919 -0.001451 0.000000 0.000000 0.000000
# 2 -0.009919 0.018233 -0.007414 0.000000 0.000000 0.000000
# 3 -0.001451 -0.007414 0.017633 0.000000 0.000000 0.000000
# 4 0.000000 0.000000 0.000000 0.187121 0.000000 0.000000
# 5 0.000000 0.000000 0.000000 0.000000 0.036469 0.000000
# 6 0.000000 0.000000 0.000000 0.000000 0.000000 0.034634
#
#
# Mechanical properties :
#
#
# Convention : Reuss Voigt Hill
#
# Bulk Modulus (GPa) = 60.21494 65.06491 62.63993
# Shear Modulus (GPa) = 14.06470 21.24324 17.65397
#
# Velocity S-wave (km/s) = 2.85106 3.50389 3.19420
# Velocity P-wave (km/s) = 6.75563 7.34664 7.05733
#
# Compressibility (1/GPa) = 0.01660717
#
# Stress axis : x y z
#
# Youngs Moduli (GPa) = 54.62113 54.84705 56.71119
#
# Poissons Ratio (x) = 0.54401 0.08227
# Poissons Ratio (y) = 0.54177 0.42045
# Poissons Ratio (z) = 0.07924 0.40663
#
# Static dielectric constant tensor:
#      x y z
#    x 1.574840 0.000000 0.000000 
#    y 0.000000 1.612530 0.000000 
#    z 0.000000 0.000000 1.481030 
# 
# From -- ./inp_files/32378.got.cif
#   From: 2010.05.17/outbox.cif.g08.bks.cpg/sg67_17_cif.got.tgz:32378.got - 2010.06.03 18:28:57.
