data_PCOD9502784
_publ_section_title
;
Structure prediction by ZEFSAII (Michael W. Deem and Ramdas Pophale) SiO2 
 PCOD9502784
Probable space group: C M M A
;
_chemical_formula_sum "Si O2"
_cell_formula_units_Z 80
_cell_length_a 8.218197
_cell_length_b 14.150787
_cell_length_c 29.422175
_cell_angle_alpha 90.000000
_cell_angle_beta 90.000000
_cell_angle_gamma 90.000000
_cell_volume 3421.621103
_symmetry_space_group_name_H-M "C M M A"
_symmetry_group_IT_number 67
_symmetry_cell_setting 'orthorhombic'
loop_
_space_group_symop_operation_xyz
x,y,z
-x,1/2-y,z
x,-y,-z
-x,1/2+y,-z
-x,-y,-z
x,1/2+y,-z
-x,y,z
x,1/2-y,z
1/2+x,1/2+y,z
1/2-x,-y,z
1/2+x,1/2-y,-z
1/2-x,y,-z
1/2-x,1/2-y,-z
1/2+x,y,-z
1/2-x,1/2+y,z
1/2+x,-y,z
loop_
_atom_site_type_symbol
_atom_site_label
_atom_site_fract_x
_atom_site_fract_y
_atom_site_fract_z
Si Si1 0.821784 0.634718 0.355338
Si Si2 0.685795 0.365059 0.549160
Si Si3 0.194437 0.891166 0.951180
Si Si4 0.178416 0.357824 0.852854
Si Si5 0.500000 0.865625 0.301598
Si Si6 0.500000 0.866259 0.196518
O O1 0.821051 0.750000 0.353934
O O2 0.794155 0.607272 0.407872
O O3 0.664837 0.603787 0.326903
O O4 0.000000 0.603960 0.339104
O O5 0.500000 0.395680 0.556002
O O6 0.685022 0.250000 0.548983
O O7 0.750000 0.394390 0.500000
O O8 0.280817 0.853068 0.906342
O O9 0.000000 0.882055 0.946862
O O10 0.250000 0.000000 0.951482
O O11 0.250000 0.852610 0.000000
O O12 0.167764 0.250000 0.835950
O O13 0.335976 0.399610 0.828348
O O14 0.000000 0.401454 0.846240
O O15 0.500000 0.750000 0.303076
O O16 0.500000 0.893462 0.249089
O O17 0.500000 0.750000 0.193647
#
# Coordination Sequence:
#
# PCOD9502784 Si02
#       6
#    16  16  16  16   8   8
#     4   9  15  22  31  44  63  86 117 161 210 263
#     4   9  14  19  26  37  55  80 111 150 200 259
#     4  11  21  35  54  78 107 135 167 201 240 291
#     4  10  20  35  53  74 101 131 166 204 244 293
#     4   9  16  26  38  52  71  95 131 174 221 271
#     4   9  18  32  48  65  87 119 152 193 243 283
#
# _framework density 23.38073
#
# number of rings (size 3 to 8) (size 9 to 14) (size 15 to 20)
#    0.000    2.400    2.000    3.000    0.000    3.600 
#    0.000    4.000    0.000    0.000    0.000    0.000 
#    0.000    0.000    0.000    0.000    0.000    0.000 
#
# Total GULP energy -223634.534489 kJ/mol
# GULP energy per Si atom -5590.863362 kJ/mol
# Density = 2.332751 g / cm^3
# Si number density = 23.380730 Si / 1000 Ang^3
#
#
#
# Elastic Constant Matrix: (Units=GPa)
#
#
# Indices 1 2 3 4 5 6 
#
# 1 260.6741 21.7542 102.6947 0.0000 0.0000 0.0000
# 2 21.7542 78.7664 -1.1648 0.0000 0.0000 0.0000
# 3 102.6947 -1.1648 154.9862 0.0000 0.0000 0.0000
# 4 0.0000 0.0000 0.0000 -17.2028 0.0000 0.0000
# 5 0.0000 0.0000 0.0000 0.0000 28.2110 0.0000
# 6 0.0000 0.0000 0.0000 0.0000 0.0000 17.7072
#
#
#
# Elastic Compliance Matrix: (Units=1/GPa)
#
#
# Indices 1 2 3 4 5 6 
#
# 1 0.005371 -0.001536 -0.003570 0.000000 0.000000 0.000000
# 2 -0.001536 0.013137 0.001117 0.000000 0.000000 0.000000
# 3 -0.003570 0.001117 0.008826 0.000000 0.000000 0.000000
# 4 0.000000 0.000000 0.000000 -0.058130 0.000000 0.000000
# 5 0.000000 0.000000 0.000000 0.000000 0.035447 0.000000
# 6 0.000000 0.000000 0.000000 0.000000 0.000000 0.056474
#
#
# Mechanical properties :
#
#
# Convention : Reuss Voigt Hill
#
# Bulk Modulus (GPa) = 51.66903 82.33279 67.00091
# Shear Modulus (GPa) = 66.17547 30.48590 48.33069
#
# Velocity S-wave (km/s) = 5.32587 3.61486 4.55149
# Velocity P-wave (km/s) = 7.74382 7.26040 7.50600
#
# Compressibility (1/GPa) = 0.01935395
#
# Stress axis : x y z
#
# Youngs Moduli (GPa) = 186.18522 76.12341 113.29720
#
# Poissons Ratio (x) = 0.11694 0.40452
# Poissons Ratio (y) = 0.28602 -0.12651
# Poissons Ratio (z) = 0.66476 -0.08500
#
# Static dielectric constant tensor:
#      x y z
#    x 1.837030 0.000000 0.000000 
#    y 0.000000 1.976050 0.000000 
#    z 0.000000 0.000000 1.815000 
# 
# From -- ./inp_files/43385.got.cif
#   From: 2010.05.17/outbox.cif.g08.bks.cpg/sg67_22_cif.got.tgz:43385.got - 2010.06.03 18:28:57.
