data_PCOD9502557
_publ_section_title
;
Structure prediction by ZEFSAII (Michael W. Deem and Ramdas Pophale) SiO2 
 PCOD9502557
Probable space group: C M M A
;
_chemical_formula_sum "Si O2"
_cell_formula_units_Z 116
_cell_length_a 26.555791
_cell_length_b 9.131299
_cell_length_c 26.100652
_cell_angle_alpha 90.000000
_cell_angle_beta 90.000000
_cell_angle_gamma 90.000000
_cell_volume 6329.117552
_symmetry_space_group_name_H-M "C M M A"
_symmetry_group_IT_number 67
_symmetry_cell_setting 'orthorhombic'
loop_
_space_group_symop_operation_xyz
x,y,z
-x,1/2-y,z
x,-y,-z
-x,1/2+y,-z
-x,-y,-z
x,1/2+y,-z
-x,y,z
x,1/2-y,z
1/2+x,1/2+y,z
1/2-x,-y,z
1/2+x,1/2-y,-z
1/2-x,y,-z
1/2-x,1/2-y,-z
1/2+x,y,-z
1/2-x,1/2+y,z
1/2+x,-y,z
loop_
_atom_site_type_symbol
_atom_site_label
_atom_site_fract_x
_atom_site_fract_y
_atom_site_fract_z
Si Si1 0.941868 0.084066 0.339510
Si Si2 0.696953 0.575385 0.603519
Si Si3 0.444536 0.072747 0.944332
Si Si4 0.166996 0.423070 0.087199
Si Si5 0.855192 0.079114 0.711744
Si Si6 0.801584 0.574504 0.800628
Si Si7 0.102610 0.577683 0.551062
Si Si8 0.250000 0.000000 0.000000
O O1 0.922903 0.250000 0.328359
O O2 0.933977 0.062548 0.400215
O O3 0.000000 0.076544 0.326313
O O4 0.909410 0.966112 0.309658
O O5 0.698401 0.750000 0.595071
O O6 0.750000 0.500000 0.593266
O O7 0.681470 0.550477 0.663112
O O8 0.654049 0.501017 0.568962
O O9 0.500000 0.038603 0.919831
O O10 0.442372 0.250000 0.948351
O O11 0.390291 0.021684 0.922163
O O12 0.445999 0.000000 0.000000
O O13 0.161460 0.250000 0.093611
O O14 0.187105 0.479794 0.141581
O O15 0.208146 0.440968 0.041564
O O16 0.851756 0.250000 0.724809
O O17 0.842408 0.980328 0.760286
O O18 0.797364 0.750000 0.800246
O O19 0.750000 0.500000 0.783500
O O20 0.083615 0.500000 0.500000
O O21 0.111076 0.750000 0.542076
#
# Coordination Sequence:
#
# PCOD9502557 Si02
#       8
#    16  16  16  16  16  16  16   4
#     4   9  19  37  60  84 110 145 187 230 280 335
#     4  10  20  34  53  76 103 137 180 224 273 330
#     4   9  17  32  53  75 100 133 175 221 265 314
#     4  10  21  34  52  80 112 148 187 228 280 338
#     4  10  21  37  57  82 109 141 180 227 281 332
#     4  11  22  37  55  80 113 146 184 226 275 336
#     4  10  20  34  52  77 111 146 183 226 272 326
#     4  12  18  36  54  78 116 152 190 234 280 340
#
# _framework density 18.327988999999999
#
# number of rings (size 3 to 8) (size 9 to 14) (size 15 to 20)
#    0.000    2.069    1.379    2.276    0.000    4.138 
#    0.000    3.448    0.000    2.483    0.000    0.000 
#    0.000    0.000    0.000    0.000    0.000    0.000 
#
# Total GULP energy -323034.386432 kJ/mol
# GULP energy per Si atom -5569.558387 kJ/mol
# Density = 1.828627 g / cm^3
# Si number density = 18.327989 Si / 1000 Ang^3
#
#
#
# Elastic Constant Matrix: (Units=GPa)
#
#
# Indices 1 2 3 4 5 6 
#
# 1 78.9516 13.5484 4.1698 0.0000 0.0000 0.0000
# 2 13.5484 49.3506 25.8399 0.0000 0.0000 0.0000
# 3 4.1698 25.8399 66.2435 0.0000 0.0000 0.0000
# 4 0.0000 0.0000 0.0000 25.9837 0.0000 0.0000
# 5 0.0000 0.0000 0.0000 0.0000 -0.8805 0.0000
# 6 0.0000 0.0000 0.0000 0.0000 0.0000 22.8072
#
#
#
# Elastic Compliance Matrix: (Units=1/GPa)
#
#
# Indices 1 2 3 4 5 6 
#
# 1 0.013321 -0.004044 0.000739 0.000000 0.000000 0.000000
# 2 -0.004044 0.026692 -0.010157 0.000000 0.000000 0.000000
# 3 0.000739 -0.010157 0.019011 0.000000 0.000000 0.000000
# 4 0.000000 0.000000 0.000000 0.038486 0.000000 0.000000
# 5 0.000000 0.000000 0.000000 0.000000 -1.135724 0.000000
# 6 0.000000 0.000000 0.000000 0.000000 0.000000 0.043846
#
#
# Mechanical properties :
#
#
# Convention : Reuss Voigt Hill
#
# Bulk Modulus (GPa) = 31.15308 31.29577 31.22442
# Shear Modulus (GPa) = -5.22606 19.64791 7.21092
#
# Velocity S-wave (km/s) = -1.69044 3.27772 1.98568
# Velocity P-wave (km/s) = 3.63652 5.60688 4.72554
#
# Compressibility (1/GPa) = 0.03209955
#
# Stress axis : x y z
#
# Youngs Moduli (GPa) = 75.06994 37.46480 52.60003
#
# Poissons Ratio (x) = 0.15151 -0.03887
# Poissons Ratio (y) = 0.30358 0.53427
# Poissons Ratio (z) = -0.05547 0.38054
#
# Static dielectric constant tensor:
#      x y z
#    x 1.663440 0.000000 0.000000 
#    y 0.000000 1.621840 0.000000 
#    z 0.000000 0.000000 1.629680 
# 
# From -- ./inp_files/42853.got.cif
#   From: 2010.05.17/outbox.cif.g08.bks.cpg/sg67_22_cif.got.tgz:42853.got - 2010.06.03 18:28:57.
