data_PCOD9502716
_publ_section_title
;
Structure prediction by ZEFSAII (Michael W. Deem and Ramdas Pophale) SiO2 
 PCOD9502716
Probable space group: C M M A
;
_chemical_formula_sum "Si O2"
_cell_formula_units_Z 72
_cell_length_a 29.704797
_cell_length_b 9.312587
_cell_length_c 13.908088
_cell_angle_alpha 90.000000
_cell_angle_beta 90.000000
_cell_angle_gamma 90.000000
_cell_volume 3847.373610
_symmetry_space_group_name_H-M "C M M A"
_symmetry_group_IT_number 67
_symmetry_cell_setting 'orthorhombic'
loop_
_space_group_symop_operation_xyz
x,y,z
-x,1/2-y,z
x,-y,-z
-x,1/2+y,-z
-x,-y,-z
x,1/2+y,-z
-x,y,z
x,1/2-y,z
1/2+x,1/2+y,z
1/2-x,-y,z
1/2+x,1/2-y,-z
1/2-x,y,-z
1/2-x,1/2-y,-z
1/2+x,y,-z
1/2-x,1/2+y,z
1/2+x,-y,z
loop_
_atom_site_type_symbol
_atom_site_label
_atom_site_fract_x
_atom_site_fract_y
_atom_site_fract_z
Si Si1 0.000000 0.075745 0.395542
Si Si2 0.445793 0.250000 0.085977
Si Si3 0.088642 0.418038 0.599436
Si Si4 0.205630 0.075846 0.104127
Si Si5 0.947244 0.750000 0.853650
Si Si6 0.112018 0.485624 0.801545
O O1 0.000000 0.250000 0.396737
O O2 0.000000 0.000000 0.500000
O O3 0.045012 0.001467 0.358757
O O4 0.500000 0.250000 0.111328
O O5 0.416801 0.378483 0.131173
O O6 0.443924 0.250000 0.970091
O O7 0.101708 0.500000 0.500000
O O8 0.079386 0.250000 0.577535
O O9 0.119836 0.427936 0.693208
O O10 0.210028 0.250000 0.097450
O O11 0.160091 0.032324 0.157426
O O12 0.250000 0.000000 0.148512
O O13 0.201845 0.000000 0.000000
O O14 0.920407 0.879621 0.809069
O O15 0.000000 0.750000 0.828798
#
# Coordination Sequence:
#
# PCOD9502716 Si02
#       6
#     8   8  16  16   8  16
#     4  10  20  34  56  80 113 154 205 265 313 362
#     4  11  24  42  60  90 130 175 216 256 308 378
#     4  11  24  39  59  85 120 162 211 266 315 371
#     4  11  24  41  67  97 128 165 209 266 322 377
#     4  11  24  40  60  90 130 169 214 258 306 380
#     4  12  25  39  65  92 125 171 213 261 316 379
#
# _framework density 18.714065000000002
#
# number of rings (size 3 to 8) (size 9 to 14) (size 15 to 20)
#    0.000    0.889    2.222    7.000    9.333    1.778 
#    0.000    0.000    0.000    0.667    0.000    3.111 
#    0.000    0.000    0.000    0.000    0.000    0.000 
#
# Total GULP energy -200519.043518 kJ/mol
# GULP energy per Si atom -5569.973431 kJ/mol
# Density = 1.867147 g / cm^3
# Si number density = 18.714065 Si / 1000 Ang^3
#
#
#
# Elastic Constant Matrix: (Units=GPa)
#
#
# Indices 1 2 3 4 5 6 
#
# 1 139.3051 61.2367 53.1726 0.0000 0.0000 0.0000
# 2 61.2367 193.5588 47.7866 0.0000 0.0000 0.0000
# 3 53.1726 47.7866 111.0274 0.0000 0.0000 0.0000
# 4 0.0000 0.0000 0.0000 31.4353 0.0000 0.0000
# 5 0.0000 0.0000 0.0000 0.0000 17.2625 0.0000
# 6 0.0000 0.0000 0.0000 0.0000 0.0000 223.2476
#
#
#
# Elastic Compliance Matrix: (Units=1/GPa)
#
#
# Indices 1 2 3 4 5 6 
#
# 1 0.009493 -0.002105 -0.003641 0.000000 0.000000 0.000000
# 2 -0.002105 0.006247 -0.001681 0.000000 0.000000 0.000000
# 3 -0.003641 -0.001681 0.011474 0.000000 0.000000 0.000000
# 4 0.000000 0.000000 0.000000 0.031811 0.000000 0.000000
# 5 0.000000 0.000000 0.000000 0.000000 0.057929 0.000000
# 6 0.000000 0.000000 0.000000 0.000000 0.000000 0.004479
#
#
# Mechanical properties :
#
#
# Convention : Reuss Voigt Hill
#
# Bulk Modulus (GPa) = 80.89294 85.36479 83.12886
# Shear Modulus (GPa) = 35.61074 73.16877 54.38976
#
# Velocity S-wave (km/s) = 4.36694 6.25965 5.39691
# Velocity P-wave (km/s) = 8.29135 9.89740 9.12976
#
# Compressibility (1/GPa) = 0.01236202
#
# Stress axis : x y z
#
# Youngs Moduli (GPa) = 105.33785 160.07137 87.15506
#
# Poissons Ratio (x) = 0.33689 0.31730
# Poissons Ratio (y) = 0.22169 0.14650
# Poissons Ratio (z) = 0.38350 0.26906
#
# Static dielectric constant tensor:
#      x y z
#    x 2.093980 0.000000 0.000000 
#    y 0.000000 1.576210 0.000000 
#    z 0.000000 0.000000 1.749780 
# 
# From -- ./inp_files/25106.got.cif
#   From: 2010.05.17/outbox.cif.g08.bks.cpg/sg67_13_cif.got.tgz:25106.got - 2010.06.03 18:28:57.
