data_PCOD9502393
_publ_section_title
;
Structure prediction by ZEFSAII (Michael W. Deem and Ramdas Pophale) SiO2 
 PCOD9502393
Probable space group: C M M A
;
_chemical_formula_sum "Si O2"
_cell_formula_units_Z 96
_cell_length_a 14.287284
_cell_length_b 14.323827
_cell_length_c 22.480403
_cell_angle_alpha 90.000000
_cell_angle_beta 90.000000
_cell_angle_gamma 90.000000
_cell_volume 4600.582649
_symmetry_space_group_name_H-M "C M M A"
_symmetry_group_IT_number 67
_symmetry_cell_setting 'orthorhombic'
loop_
_space_group_symop_operation_xyz
x,y,z
-x,1/2-y,z
x,-y,-z
-x,1/2+y,-z
-x,-y,-z
x,1/2+y,-z
-x,y,z
x,1/2-y,z
1/2+x,1/2+y,z
1/2-x,-y,z
1/2+x,1/2-y,-z
1/2-x,y,-z
1/2-x,1/2-y,-z
1/2+x,y,-z
1/2-x,1/2+y,z
1/2+x,-y,z
loop_
_atom_site_type_symbol
_atom_site_label
_atom_site_fract_x
_atom_site_fract_y
_atom_site_fract_z
Si Si1 0.105014 0.635999 0.971265
Si Si2 0.606933 0.138696 0.208263
Si Si3 0.111747 0.445128 0.669687
Si Si4 0.231745 0.357039 0.566673
Si Si5 0.790173 0.364192 0.908069
Si Si6 0.110784 0.349326 0.339094
O O1 0.103386 0.750000 0.969657
O O2 0.185786 0.605200 0.925791
O O3 0.000000 0.603009 0.959575
O O4 0.141190 0.610664 0.037271
O O5 0.500000 0.102010 0.203189
O O6 0.601982 0.250000 0.201559
O O7 0.640762 0.118093 0.274859
O O8 0.671093 0.102897 0.154943
O O9 0.165079 0.417210 0.609499
O O10 0.131935 0.551357 0.689839
O O11 0.000000 0.434807 0.660250
O O12 0.194729 0.250000 0.563555
O O13 0.250000 0.390443 0.500000
O O14 0.330718 0.352182 0.600390
O O15 0.788312 0.250000 0.907259
O O16 0.134260 0.250000 0.308597
O O17 0.000000 0.349263 0.350268
#
# Coordination Sequence:
#
# PCOD9502393 Si02
#       6
#    16  16  16  16  16  16
#     4   8  12  18  30  51  82 124 177 227 264 308
#     4   9  16  26  41  63  94 131 171 218 273 328
#     4  10  20  33  52  78 106 138 179 229 279 326
#     4  10  21  36  55  80 110 143 178 219 267 320
#     4   8  13  20  32  53  84 127 176 223 269 314
#     4   9  19  36  55  75 102 138 178 218 267 328
#
# _framework density 20.866921999999999
#
# number of rings (size 3 to 8) (size 9 to 14) (size 15 to 20)
#    0.000    3.000    0.000    2.500    0.000    5.000 
#    0.000    3.333    0.000    1.000    0.000    4.667 
#    0.000    0.000    0.000   15.000    0.000  181.333 
#
# Total GULP energy -267697.219624 kJ/mol
# GULP energy per Si atom -5577.025409 kJ/mol
# Density = 2.081943 g / cm^3
# Si number density = 20.866922 Si / 1000 Ang^3
#
#
#
# Elastic Constant Matrix: (Units=GPa)
#
#
# Indices 1 2 3 4 5 6 
#
# 1 103.0511 22.0086 51.5953 0.0000 0.0000 0.0000
# 2 22.0086 72.5062 18.8585 0.0000 0.0000 0.0000
# 3 51.5953 18.8585 108.8391 0.0000 0.0000 0.0000
# 4 0.0000 0.0000 0.0000 1.7464 0.0000 0.0000
# 5 0.0000 0.0000 0.0000 0.0000 18.1708 0.0000
# 6 0.0000 0.0000 0.0000 0.0000 0.0000 18.6253
#
#
#
# Elastic Compliance Matrix: (Units=1/GPa)
#
#
# Indices 1 2 3 4 5 6 
#
# 1 0.013136 -0.002479 -0.005798 0.000000 0.000000 0.000000
# 2 -0.002479 0.014911 -0.001408 0.000000 0.000000 0.000000
# 3 -0.005798 -0.001408 0.012180 0.000000 0.000000 0.000000
# 4 0.000000 0.000000 0.000000 0.572598 0.000000 0.000000
# 5 0.000000 0.000000 0.000000 0.000000 0.055033 0.000000
# 6 0.000000 0.000000 0.000000 0.000000 0.000000 0.053691
#
#
# Mechanical properties :
#
#
# Convention : Reuss Voigt Hill
#
# Bulk Modulus (GPa) = 47.94620 52.14679 50.04650
# Shear Modulus (GPa) = 6.68563 20.50410 13.59487
#
# Velocity S-wave (km/s) = 1.79190 3.13807 2.55523
# Velocity P-wave (km/s) = 5.22573 6.17854 5.72200
#
# Compressibility (1/GPa) = 0.02085671
#
# Stress axis : x y z
#
# Youngs Moduli (GPa) = 76.12561 67.06548 82.10018
#
# Poissons Ratio (x) = 0.16628 0.47598
# Poissons Ratio (y) = 0.18875 0.11561
# Poissons Ratio (z) = 0.44135 0.09444
#
# Static dielectric constant tensor:
#      x y z
#    x 1.758240 0.000000 0.000000 
#    y 0.000000 1.836430 0.000000 
#    z 0.000000 0.000000 1.687400 
# 
# From -- ./inp_files/38471.got.cif
#   From: 2010.05.17/outbox.cif.g08.bks.cpg/sg67_20_cif.got.tgz:38471.got - 2010.06.03 18:28:57.
