data_PCOD9502232
_publ_section_title
;
Structure prediction by ZEFSAII (Michael W. Deem and Ramdas Pophale) SiO2 
 PCOD9502232
Probable space group: C M M A
;
_chemical_formula_sum "Si O2"
_cell_formula_units_Z 96
_cell_length_a 8.238666
_cell_length_b 29.683651
_cell_length_c 21.262733
_cell_angle_alpha 90.000000
_cell_angle_beta 90.000000
_cell_angle_gamma 90.000000
_cell_volume 5199.879735
_symmetry_space_group_name_H-M "C M M A"
_symmetry_group_IT_number 67
_symmetry_cell_setting 'orthorhombic'
loop_
_space_group_symop_operation_xyz
x,y,z
-x,1/2-y,z
x,-y,-z
-x,1/2+y,-z
-x,-y,-z
x,1/2+y,-z
-x,y,z
x,1/2-y,z
1/2+x,1/2+y,z
1/2-x,-y,z
1/2+x,1/2-y,-z
1/2-x,y,-z
1/2-x,1/2-y,-z
1/2+x,y,-z
1/2-x,1/2+y,z
1/2+x,-y,z
loop_
_atom_site_type_symbol
_atom_site_label
_atom_site_fract_x
_atom_site_fract_y
_atom_site_fract_z
Si Si1 0.806489 0.300539 0.244589
Si Si2 0.804028 0.051428 0.690982
Si Si3 0.303729 0.108927 0.188032
Si Si4 0.303968 0.104916 0.432477
Si Si5 0.305857 0.551030 0.929693
Si Si6 0.694092 0.299726 0.387488
O O1 0.762225 0.250000 0.223144
O O2 0.752801 0.340235 0.198864
O O3 0.727373 0.307065 0.313374
O O4 0.000000 0.302306 0.252833
O O5 0.748356 0.079709 0.751665
O O6 0.747686 0.075284 0.626661
O O7 0.000000 0.052676 0.691044
O O8 0.750000 0.000000 0.694553
O O9 0.500000 0.108639 0.187964
O O10 0.246752 0.084977 0.124195
O O11 0.500000 0.105833 0.430543
O O12 0.250000 0.087311 0.500000
O O13 0.242616 0.156352 0.423303
O O14 0.500000 0.551083 0.929011
O O15 0.250000 0.500000 0.916009
O O16 0.250000 0.562780 0.000000
O O17 0.500000 0.298434 0.396301
O O18 0.760101 0.250000 0.404656
#
# Coordination Sequence:
#
# PCOD9502232 Si02
#       6
#    16  16  16  16  16  16
#     4  10  20  32  51  82 112 136 169 217 266 310
#     4  10  21  37  54  75 101 131 174 220 262 310
#     4  10  20  36  57  80 107 142 180 215 257 313
#     4  10  21  36  52  72 101 134 173 217 262 316
#     4  10  20  34  55  82 115 149 182 218 260 312
#     4   9  17  33  55  74  99 136 171 209 262 320
#
# _framework density 18.461964999999999
#
# number of rings (size 3 to 8) (size 9 to 14) (size 15 to 20)
#    0.000    2.167    1.667    2.000    0.000    5.000 
#    0.000    1.667    0.000    0.500    0.000    0.000 
#    0.000    0.000    0.000    0.000    0.000    0.000 
#
# Total GULP energy -267907.759802 kJ/mol
# GULP energy per Si atom -5581.411663 kJ/mol
# Density = 1.841994 g / cm^3
# Si number density = 18.461965 Si / 1000 Ang^3
#
#
#
# Elastic Constant Matrix: (Units=GPa)
#
#
# Indices 1 2 3 4 5 6 
#
# 1 9.0291 6.7624 7.3440 0.0000 0.0000 0.0000
# 2 6.7624 122.0981 69.6768 0.0000 0.0000 0.0000
# 3 7.3440 69.6768 109.0455 0.0000 0.0000 0.0000
# 4 0.0000 0.0000 0.0000 25.2897 0.0000 0.0000
# 5 0.0000 0.0000 0.0000 0.0000 2.3749 0.0000
# 6 0.0000 0.0000 0.0000 0.0000 0.0000 24.5094
#
#
#
# Elastic Compliance Matrix: (Units=1/GPa)
#
#
# Indices 1 2 3 4 5 6 
#
# 1 0.117935 -0.003147 -0.005932 0.000000 0.000000 0.000000
# 2 -0.003147 0.012974 -0.008078 0.000000 0.000000 0.000000
# 3 -0.005932 -0.008078 0.014732 0.000000 0.000000 0.000000
# 4 0.000000 0.000000 0.000000 0.039542 0.000000 0.000000
# 5 0.000000 0.000000 0.000000 0.000000 0.421072 0.000000
# 6 0.000000 0.000000 0.000000 0.000000 0.000000 0.040801
#
#
# Mechanical properties :
#
#
# Convention : Reuss Voigt Hill
#
# Bulk Modulus (GPa) = 8.98252 45.30431 27.14342
# Shear Modulus (GPa) = 6.95914 20.86076 13.90995
#
# Velocity S-wave (km/s) = 1.94361 3.36509 2.74786
# Velocity P-wave (km/s) = 3.14846 6.30008 4.98015
#
# Compressibility (1/GPa) = 0.11132733
#
# Stress axis : x y z
#
# Youngs Moduli (GPa) = 8.47924 77.07471 67.88023
#
# Poissons Ratio (x) = 0.24252 0.40267
# Poissons Ratio (y) = 0.02668 0.54836
# Poissons Ratio (z) = 0.05030 0.62264
#
# Static dielectric constant tensor:
#      x y z
#    x 1.651970 0.000000 0.000000 
#    y 0.000000 1.642160 0.000000 
#    z 0.000000 0.000000 1.624290 
# 
# From -- ./inp_files/37186.got.cif
#   From: 2010.05.17/outbox.cif.g08.bks.cpg/sg67_19_cif.got.tgz:37186.got - 2010.06.03 18:28:57.
