data_PCOD9502992
_publ_section_title
;
Structure prediction by ZEFSAII (Michael W. Deem and Ramdas Pophale) SiO2 
 PCOD9502992
Probable space group: C M M A
;
_chemical_formula_sum "Si O2"
_cell_formula_units_Z 96
_cell_length_a 14.334654
_cell_length_b 13.770700
_cell_length_c 23.795702
_cell_angle_alpha 90.000000
_cell_angle_beta 90.000000
_cell_angle_gamma 90.000000
_cell_volume 4697.229215
_symmetry_space_group_name_H-M "C M M A"
_symmetry_group_IT_number 67
_symmetry_cell_setting 'orthorhombic'
loop_
_space_group_symop_operation_xyz
x,y,z
-x,1/2-y,z
x,-y,-z
-x,1/2+y,-z
-x,-y,-z
x,1/2+y,-z
-x,y,z
x,1/2-y,z
1/2+x,1/2+y,z
1/2-x,-y,z
1/2+x,1/2-y,-z
1/2-x,y,-z
1/2-x,1/2-y,-z
1/2+x,y,-z
1/2-x,1/2+y,z
1/2+x,-y,z
loop_
_atom_site_type_symbol
_atom_site_label
_atom_site_fract_x
_atom_site_fract_y
_atom_site_fract_z
Si Si1 0.739642 0.863595 0.066416
Si Si2 0.392785 0.011308 0.563462
Si Si3 0.099169 0.865810 0.341732
Si Si4 0.697543 0.135036 0.660527
Si Si5 0.109917 0.359982 0.222677
Si Si6 0.610626 0.997745 0.124187
O O1 0.742663 0.750000 0.077405
O O2 0.640401 0.909173 0.083548
O O3 0.821976 0.916634 0.101847
O O4 0.750000 0.880699 0.000000
O O5 0.500000 0.048313 0.561487
O O6 0.333352 0.079070 0.604743
O O7 0.359508 0.000000 0.500000
O O8 0.396282 0.908072 0.595287
O O9 0.096222 0.750000 0.340974
O O10 0.199304 0.894493 0.317650
O O11 0.000000 0.901605 0.317020
O O12 0.699484 0.250000 0.648111
O O13 0.628200 0.119600 0.712038
O O14 0.149717 0.250000 0.211056
O O15 0.139700 0.450283 0.184027
O O16 0.000000 0.352877 0.212412
O O17 0.500000 0.020342 0.123157
#
# Coordination Sequence:
#
# PCOD9502992 Si02
#       6
#    16  16  16  16  16  16
#     4  10  22  39  59  90 131 167 203 251 301 354
#     4  10  21  36  54  78 110 144 181 234 298 361
#     4   9  19  36  54  74 104 141 182 226 279 348
#     4  10  20  35  58  84 109 143 189 242 296 353
#     4   9  18  34  58  87 115 144 189 250 305 354
#     4  10  20  37  62  89 120 162 210 256 304 358
#
# _framework density 20.437580000000001
#
# number of rings (size 3 to 8) (size 9 to 14) (size 15 to 20)
#    0.000    2.333    0.000    2.500    0.000    5.667 
#    6.000    5.000    0.000    0.000    0.000    0.000 
#    0.000    0.000    0.000    0.000    0.000    0.000 
#
# Total GULP energy -267440.462044 kJ/mol
# GULP energy per Si atom -5571.676293 kJ/mol
# Density = 2.039106 g / cm^3
# Si number density = 20.437580 Si / 1000 Ang^3
#
#
#
# Elastic Constant Matrix: (Units=GPa)
#
#
# Indices 1 2 3 4 5 6 
#
# 1 80.7806 17.0336 -4.6151 0.0000 0.0000 0.0000
# 2 17.0336 82.5451 9.3068 0.0000 0.0000 0.0000
# 3 -4.6151 9.3068 49.9863 0.0000 0.0000 0.0000
# 4 0.0000 0.0000 0.0000 23.9150 0.0000 0.0000
# 5 0.0000 0.0000 0.0000 0.0000 20.7209 0.0000
# 6 0.0000 0.0000 0.0000 0.0000 0.0000 18.0524
#
#
#
# Elastic Compliance Matrix: (Units=1/GPa)
#
#
# Indices 1 2 3 4 5 6 
#
# 1 0.013090 -0.002898 0.001748 0.000000 0.000000 0.000000
# 2 -0.002898 0.013016 -0.002691 0.000000 0.000000 0.000000
# 3 0.001748 -0.002691 0.020668 0.000000 0.000000 0.000000
# 4 0.000000 0.000000 0.000000 0.041815 0.000000 0.000000
# 5 0.000000 0.000000 0.000000 0.000000 0.048260 0.000000
# 6 0.000000 0.000000 0.000000 0.000000 0.000000 0.055394
#
#
# Mechanical properties :
#
#
# Convention : Reuss Voigt Hill
#
# Bulk Modulus (GPa) = 25.58074 28.52920 27.05497
# Shear Modulus (GPa) = 23.47897 25.31012 24.39455
#
# Velocity S-wave (km/s) = 3.39309 3.52292 3.45862
# Velocity P-wave (km/s) = 5.28152 5.52607 5.40518
#
# Compressibility (1/GPa) = 0.03909191
#
# Stress axis : x y z
#
# Youngs Moduli (GPa) = 76.39277 76.82799 48.38421
#
# Poissons Ratio (x) = 0.22267 -0.08459
# Poissons Ratio (y) = 0.22141 0.13020
# Poissons Ratio (z) = -0.13355 0.20675
#
# Static dielectric constant tensor:
#      x y z
#    x 1.793020 0.000000 0.000000 
#    y 0.000000 1.766430 0.000000 
#    z 0.000000 0.000000 1.734190 
# 
# From -- ./inp_files/38498.got.cif
#   From: 2010.05.17/outbox.cif.g08.bks.cpg/sg67_20_cif.got.tgz:38498.got - 2010.06.03 18:28:57.
