data_PCOD9502622
_publ_section_title
;
Structure prediction by ZEFSAII (Michael W. Deem and Ramdas Pophale) SiO2 
 PCOD9502622
Probable space group: C M M A
;
_chemical_formula_sum "Si O2"
_cell_formula_units_Z 96
_cell_length_a 13.880699
_cell_length_b 15.791746
_cell_length_c 17.916467
_cell_angle_alpha 90.000000
_cell_angle_beta 90.000000
_cell_angle_gamma 90.000000
_cell_volume 3927.298039
_symmetry_space_group_name_H-M "C M M A"
_symmetry_group_IT_number 67
_symmetry_cell_setting 'orthorhombic'
loop_
_space_group_symop_operation_xyz
x,y,z
-x,1/2-y,z
x,-y,-z
-x,1/2+y,-z
-x,-y,-z
x,1/2+y,-z
-x,y,z
x,1/2-y,z
1/2+x,1/2+y,z
1/2-x,-y,z
1/2+x,1/2-y,-z
1/2-x,y,-z
1/2-x,1/2-y,-z
1/2+x,y,-z
1/2-x,1/2+y,z
1/2+x,-y,z
loop_
_atom_site_type_symbol
_atom_site_label
_atom_site_fract_x
_atom_site_fract_y
_atom_site_fract_z
Si Si1 0.788685 0.406650 0.188219
Si Si2 0.606682 0.650884 0.877939
Si Si3 0.884435 0.153246 0.039133
Si Si4 0.117448 0.345429 0.638722
Si Si5 0.884032 0.035248 0.332835
Si Si6 0.116936 0.844164 0.535930
O O1 0.750000 0.500000 0.178270
O O2 0.690051 0.354415 0.182391
O O3 0.852120 0.387129 0.115930
O O4 0.848288 0.407673 0.264098
O O5 0.500000 0.616662 0.857024
O O6 0.594341 0.750000 0.893031
O O7 0.642197 0.614522 0.958073
O O8 0.848170 0.250000 0.043171
O O9 0.000000 0.154063 0.036591
O O10 0.148077 0.250000 0.663482
O O11 0.148377 0.436759 0.672252
O O12 0.143416 0.352441 0.550706
O O13 0.000000 0.344551 0.644633
O O14 0.852842 0.080842 0.409330
O O15 0.000000 0.033689 0.331758
O O16 0.146621 0.750000 0.562152
O O17 0.000000 0.845341 0.536496
#
# Coordination Sequence:
#
# PCOD9502622 Si02
#       6
#    16  16  16  16  16  16
#     4  12  25  37  53  85 128 167 201 245 307 377
#     4   9  20  41  67  90 114 155 212 264 308 365
#     4   9  19  39  67  94 118 150 198 255 315 382
#     4   8  14  28  53  83 116 161 216 266 313 374
#     4  10  20  34  53  83 126 169 208 256 319 389
#     4   8  14  26  50  86 121 155 201 256 318 389
#
# _framework density 24.444288
#
# number of rings (size 3 to 8) (size 9 to 14) (size 15 to 20)
#    0.000    2.667    0.000    4.000    0.000    7.333 
#    0.000    5.000    0.000    4.000    0.000    2.333 
#    0.000    2.667    0.000    3.667    0.000    0.333 
#
# Total GULP energy -268215.873838 kJ/mol
# GULP energy per Si atom -5587.830705 kJ/mol
# Density = 2.438865 g / cm^3
# Si number density = 24.444288 Si / 1000 Ang^3
#
#
#
# Elastic Constant Matrix: (Units=GPa)
#
#
# Indices 1 2 3 4 5 6 
#
# 1 75.6737 17.7575 31.0587 0.0000 0.0000 0.0000
# 2 17.7575 70.8341 49.8483 0.0000 0.0000 0.0000
# 3 31.0587 49.8483 113.4825 0.0000 0.0000 0.0000
# 4 0.0000 0.0000 0.0000 39.9095 0.0000 0.0000
# 5 0.0000 0.0000 0.0000 0.0000 28.5325 0.0000
# 6 0.0000 0.0000 0.0000 0.0000 0.0000 29.1854
#
#
#
# Elastic Compliance Matrix: (Units=1/GPa)
#
#
# Indices 1 2 3 4 5 6 
#
# 1 0.014964 -0.001258 -0.003543 0.000000 0.000000 0.000000
# 2 -0.001258 0.020540 -0.008678 0.000000 0.000000 0.000000
# 3 -0.003543 -0.008678 0.013593 0.000000 0.000000 0.000000
# 4 0.000000 0.000000 0.000000 0.025057 0.000000 0.000000
# 5 0.000000 0.000000 0.000000 0.000000 0.035048 0.000000
# 6 0.000000 0.000000 0.000000 0.000000 0.000000 0.034264
#
#
# Mechanical properties :
#
#
# Convention : Reuss Voigt Hill
#
# Bulk Modulus (GPa) = 45.16838 50.81327 47.99083
# Shear Modulus (GPa) = 28.12100 30.28054 29.20077
#
# Velocity S-wave (km/s) = 3.39545 3.52342 3.46003
# Velocity P-wave (km/s) = 5.82154 6.11434 5.96973
#
# Compressibility (1/GPa) = 0.02213938
#
# Stress axis : x y z
#
# Youngs Moduli (GPa) = 66.82739 48.68573 73.56483
#
# Poissons Ratio (x) = 0.06125 0.26062
# Poissons Ratio (y) = 0.08408 0.63840
# Poissons Ratio (z) = 0.23676 0.42250
#
# Static dielectric constant tensor:
#      x y z
#    x 2.038860 0.000000 0.000000 
#    y 0.000000 1.870400 0.000000 
#    z 0.000000 0.000000 1.973430 
# 
# From -- ./inp_files/38495.got.cif
#   From: 2010.05.17/outbox.cif.g08.bks.cpg/sg67_20_cif.got.tgz:38495.got - 2010.06.03 18:28:57.
