data_PCOD9502499
_publ_section_title
;
Structure prediction by ZEFSAII (Michael W. Deem and Ramdas Pophale) SiO2 
 PCOD9502499
Probable space group: C M M A
;
_chemical_formula_sum "Si O2"
_cell_formula_units_Z 84
_cell_length_a 24.107908
_cell_length_b 8.804583
_cell_length_c 21.177974
_cell_angle_alpha 90.000000
_cell_angle_beta 90.000000
_cell_angle_gamma 90.000000
_cell_volume 4495.238391
_symmetry_space_group_name_H-M "C M M A"
_symmetry_group_IT_number 67
_symmetry_cell_setting 'orthorhombic'
loop_
_space_group_symop_operation_xyz
x,y,z
-x,1/2-y,z
x,-y,-z
-x,1/2+y,-z
-x,-y,-z
x,1/2+y,-z
-x,y,z
x,1/2-y,z
1/2+x,1/2+y,z
1/2-x,-y,z
1/2+x,1/2-y,-z
1/2-x,y,-z
1/2-x,1/2-y,-z
1/2+x,y,-z
1/2-x,1/2+y,z
1/2+x,-y,z
loop_
_atom_site_type_symbol
_atom_site_label
_atom_site_fract_x
_atom_site_fract_y
_atom_site_fract_z
Si Si1 0.000000 0.933575 0.247793
Si Si2 0.381096 0.432364 0.197167
Si Si3 0.500000 0.432551 0.395806
Si Si4 0.000000 0.250000 0.067614
Si Si5 0.311086 0.067793 0.688401
Si Si6 0.383977 0.916672 0.065153
Si Si7 0.616799 0.068240 0.564825
O O1 0.943573 0.986530 0.215091
O O2 0.000000 0.750000 0.244686
O O3 0.000000 0.974472 0.321481
O O4 0.379611 0.250000 0.200524
O O5 0.340813 0.500833 0.249824
O O6 0.368670 0.488415 0.126917
O O7 0.500000 0.250000 0.401517
O O8 0.444471 0.500040 0.425528
O O9 0.049916 0.120256 0.066869
O O10 0.308886 0.250000 0.692962
O O11 0.347094 0.027902 0.626319
O O12 0.250000 0.000000 0.682486
O O13 0.356771 0.750000 0.067726
O O14 0.371200 0.000000 0.000000
O O15 0.613613 0.250000 0.560237
O O16 0.640322 0.000000 0.500000
#
# Coordination Sequence:
#
# PCOD9502499 Si02
#       7
#     8  16   8   4  16  16  16
#     4   9  19  32  54  87 119 156 196 239 294 357
#     4  11  21  38  61  89 122 160 203 248 303 362
#     4  11  20  37  61  88 125 162 199 241 293 355
#     4   8  20  30  52  78 126 166 208 240 302 338
#     4  11  25  44  65  90 117 153 201 255 308 359
#     4  10  20  34  51  81 120 166 205 247 294 352
#     4  11  24  41  62  90 122 159 199 244 299 360
#
# _framework density 18.686440999999999
#
# number of rings (size 3 to 8) (size 9 to 14) (size 15 to 20)
#    0.571    0.952    1.905    3.714    0.000    2.667 
#    1.714    1.905    0.000    0.571    0.000    4.000 
#    0.000    0.000    0.000    0.000    0.000    0.000 
#
# Total GULP energy -233983.445588 kJ/mol
# GULP energy per Si atom -5571.034419 kJ/mol
# Density = 1.864391 g / cm^3
# Si number density = 18.686441 Si / 1000 Ang^3
#
#
#
# Elastic Constant Matrix: (Units=GPa)
#
#
# Indices 1 2 3 4 5 6 
#
# 1 99.1983 44.7367 61.1260 0.0000 0.0000 0.0000
# 2 44.7367 81.5111 66.5683 0.0000 0.0000 0.0000
# 3 61.1260 66.5683 183.4900 0.0000 0.0000 0.0000
# 4 0.0000 0.0000 0.0000 33.1651 0.0000 0.0000
# 5 0.0000 0.0000 0.0000 0.0000 -18.9497 0.0000
# 6 0.0000 0.0000 0.0000 0.0000 0.0000 24.8876
#
#
#
# Elastic Compliance Matrix: (Units=1/GPa)
#
#
# Indices 1 2 3 4 5 6 
#
# 1 0.014293 -0.005622 -0.002722 0.000000 0.000000 0.000000
# 2 -0.005622 0.019645 -0.005254 0.000000 0.000000 0.000000
# 3 -0.002722 -0.005254 0.008263 0.000000 0.000000 0.000000
# 4 0.000000 0.000000 0.000000 0.030152 0.000000 0.000000
# 5 0.000000 0.000000 0.000000 0.000000 -0.052771 0.000000
# 6 0.000000 0.000000 0.000000 0.000000 0.000000 0.040181
#
#
# Mechanical properties :
#
#
# Convention : Reuss Voigt Hill
#
# Bulk Modulus (GPa) = 66.64427 78.78462 72.71444
# Shear Modulus (GPa) = 54.37146 20.60516 37.48831
#
# Velocity S-wave (km/s) = 5.39999 3.32427 4.48390
# Velocity P-wave (km/s) = 8.63839 7.54899 8.11200
#
# Compressibility (1/GPa) = 0.01500504
#
# Stress axis : x y z
#
# Youngs Moduli (GPa) = 69.96192 50.90446 121.02415
#
# Poissons Ratio (x) = 0.28618 0.32943
# Poissons Ratio (y) = 0.39331 0.63587
# Poissons Ratio (z) = 0.19044 0.26746
#
# Static dielectric constant tensor:
#      x y z
#    x 1.623500 0.000000 0.000000 
#    y 0.000000 1.637470 0.000000 
#    z 0.000000 0.000000 1.644500 
# 
# From -- ./inp_files/39556.got.cif
#   From: 2010.05.17/outbox.cif.g08.bks.cpg/sg67_20_cif.got.tgz:39556.got - 2010.06.03 18:28:57.
