data_PCOD9502648
_publ_section_title
;
Structure prediction by ZEFSAII (Michael W. Deem and Ramdas Pophale) SiO2 
 PCOD9502648
Probable space group: C M M A
;
_chemical_formula_sum "Si O2"
_cell_formula_units_Z 116
_cell_length_a 9.025046
_cell_length_b 30.714293
_cell_length_c 24.487793
_cell_angle_alpha 90.000000
_cell_angle_beta 90.000000
_cell_angle_gamma 90.000000
_cell_volume 6787.964971
_symmetry_space_group_name_H-M "C M M A"
_symmetry_group_IT_number 67
_symmetry_cell_setting 'orthorhombic'
loop_
_space_group_symop_operation_xyz
x,y,z
-x,1/2-y,z
x,-y,-z
-x,1/2+y,-z
-x,-y,-z
x,1/2+y,-z
-x,y,z
x,1/2-y,z
1/2+x,1/2+y,z
1/2-x,-y,z
1/2+x,1/2-y,-z
1/2-x,y,-z
1/2-x,1/2-y,-z
1/2+x,y,-z
1/2-x,1/2+y,z
1/2+x,-y,z
loop_
_atom_site_type_symbol
_atom_site_label
_atom_site_fract_x
_atom_site_fract_y
_atom_site_fract_z
Si Si1 0.678281 0.546223 0.269160
Si Si2 0.175752 0.801078 0.760985
Si Si3 0.162681 0.659713 0.443954
Si Si4 0.678034 0.377963 0.941616
Si Si5 0.322107 0.453712 0.856813
Si Si6 0.823668 0.198856 0.877095
Si Si7 0.000000 0.750000 0.434800
Si Si8 0.678543 0.868073 0.334008
O O1 0.500000 0.542495 0.271021
O O2 0.750000 0.500000 0.283041
O O3 0.718856 0.556810 0.206058
O O4 0.722597 0.585468 0.308633
O O5 0.196682 0.750000 0.747875
O O6 0.264910 0.810918 0.816053
O O7 0.219956 0.831270 0.710556
O O8 0.000000 0.808175 0.771690
O O9 0.250000 0.653520 0.500000
O O10 0.126739 0.711005 0.436008
O O11 0.249040 0.642078 0.391723
O O12 0.000000 0.638401 0.447610
O O13 0.500000 0.376424 0.945625
O O14 0.719922 0.415466 0.898131
O O15 0.740060 0.332537 0.918643
O O16 0.750000 0.387263 0.000000
O O17 0.500000 0.458086 0.858732
O O18 0.250000 0.500000 0.871006
O O19 0.792763 0.250000 0.887376
O O20 0.000000 0.192198 0.880206
O O21 0.500000 0.867128 0.338982
#
# Coordination Sequence:
#
# PCOD9502648 Si02
#       8
#    16  16  16  16  16  16   4  16
#     4   9  18  34  56  81 108 138 176 217 266 319
#     4   9  18  32  51  77 107 141 175 212 264 323
#     4  10  21  36  53  77 108 149 188 227 267 312
#     4  11  23  38  56  78 105 138 177 219 264 318
#     4   9  19  36  58  82 108 139 172 212 261 320
#     4  10  21  37  55  76 103 137 177 223 270 317
#     4   8  22  36  54  76 110 150 194 228 264 308
#     4  10  20  34  54  80 111 145 181 226 267 317
#
# _framework density 17.08907
#
# number of rings (size 3 to 8) (size 9 to 14) (size 15 to 20)
#    0.414    1.931    0.000    2.276    0.966    5.793 
#    0.000    4.138    0.000    0.414    0.000    2.897 
#    0.000    0.000    0.000    0.000    0.000    0.000 
#
# Total GULP energy -322968.160384 kJ/mol
# GULP energy per Si atom -5568.416558 kJ/mol
# Density = 1.705017 g / cm^3
# Si number density = 17.089070 Si / 1000 Ang^3
#
#
#
# Elastic Constant Matrix: (Units=GPa)
#
#
# Indices 1 2 3 4 5 6 
#
# 1 43.7078 42.5306 44.0175 0.0000 0.0000 0.0000
# 2 42.5306 80.3170 69.9215 0.0000 0.0000 0.0000
# 3 44.0175 69.9215 101.8682 0.0000 0.0000 0.0000
# 4 0.0000 0.0000 0.0000 3.0819 0.0000 0.0000
# 5 0.0000 0.0000 0.0000 0.0000 30.1280 0.0000
# 6 0.0000 0.0000 0.0000 0.0000 0.0000 29.3120
#
#
#
# Elastic Compliance Matrix: (Units=1/GPa)
#
#
# Indices 1 2 3 4 5 6 
#
# 1 0.050015 -0.019059 -0.008530 0.000000 0.000000 0.000000
# 2 -0.019059 0.038200 -0.017985 0.000000 0.000000 0.000000
# 3 -0.008530 -0.017985 0.025847 0.000000 0.000000 0.000000
# 4 0.000000 0.000000 0.000000 0.324470 0.000000 0.000000
# 5 0.000000 0.000000 0.000000 0.000000 0.033192 0.000000
# 6 0.000000 0.000000 0.000000 0.000000 0.000000 0.034116
#
#
# Mechanical properties :
#
#
# Convention : Reuss Voigt Hill
#
# Bulk Modulus (GPa) = 43.63941 59.87026 51.75483
# Shear Modulus (GPa) = 8.26959 17.13260 12.70110
#
# Velocity S-wave (km/s) = 2.20218 3.16974 2.72918
# Velocity P-wave (km/s) = 5.66198 6.96467 6.34684
#
# Compressibility (1/GPa) = 0.02291507
#
# Stress axis : x y z
#
# Youngs Moduli (GPa) = 19.99403 26.17797 38.68933
#
# Poissons Ratio (x) = 0.49893 0.33001
# Poissons Ratio (y) = 0.38107 0.69582
# Poissons Ratio (z) = 0.17054 0.47081
#
# Static dielectric constant tensor:
#      x y z
#    x 1.579450 0.000000 0.000000 
#    y 0.000000 1.562960 0.000000 
#    z 0.000000 0.000000 1.555630 
# 
# From -- ./inp_files/41247.got.cif
#   From: 2010.05.17/outbox.cif.g08.bks.cpg/sg67_21_cif.got.tgz:41247.got - 2010.06.03 18:28:57.
