data_PCOD9502424
_publ_section_title
;
Structure prediction by ZEFSAII (Michael W. Deem and Ramdas Pophale) SiO2 
 PCOD9502424
Probable space group: C M M A
;
_chemical_formula_sum "Si O2"
_cell_formula_units_Z 112
_cell_length_a 30.377634
_cell_length_b 15.395581
_cell_length_c 11.814734
_cell_angle_alpha 90.000000
_cell_angle_beta 90.000000
_cell_angle_gamma 90.000000
_cell_volume 5525.530450
_symmetry_space_group_name_H-M "C M M A"
_symmetry_group_IT_number 67
_symmetry_cell_setting 'orthorhombic'
loop_
_space_group_symop_operation_xyz
x,y,z
-x,1/2-y,z
x,-y,-z
-x,1/2+y,-z
-x,-y,-z
x,1/2+y,-z
-x,y,z
x,1/2-y,z
1/2+x,1/2+y,z
1/2-x,-y,z
1/2+x,1/2-y,-z
1/2-x,y,-z
1/2-x,1/2-y,-z
1/2+x,y,-z
1/2-x,1/2+y,z
1/2+x,-y,z
loop_
_atom_site_type_symbol
_atom_site_label
_atom_site_fract_x
_atom_site_fract_y
_atom_site_fract_z
Si Si1 0.287249 0.345730 0.403638
Si Si2 0.129360 0.416561 0.926610
Si Si3 0.049811 0.145982 0.778139
Si Si4 0.292639 0.846001 0.079589
Si Si5 0.049122 0.145963 0.521201
Si Si6 0.808374 0.992631 0.748168
Si Si7 0.362156 0.093376 0.556898
O O1 0.283323 0.250000 0.347107
O O2 0.250000 0.351808 0.500000
O O3 0.284909 0.432954 0.328014
O O4 0.333581 0.349187 0.470503
O O5 0.086189 0.375817 0.871094
O O6 0.158202 0.450185 0.821757
O O7 0.116319 0.500000 0.000000
O O8 0.162985 0.361657 0.005357
O O9 0.048191 0.250000 0.771547
O O10 0.060846 0.115204 0.649478
O O11 0.000000 0.115233 0.804241
O O12 0.295730 0.750000 0.134096
O O13 0.285992 0.927665 0.162433
O O14 0.250000 0.845517 0.000000
O O15 0.046974 0.250000 0.525807
O O16 0.087879 0.123615 0.435211
O O17 0.000000 0.113720 0.493174
O O18 0.834877 0.924681 0.669520
O O19 0.364198 0.000000 0.500000
#
# Coordination Sequence:
#
# PCOD9502424 Si02
#       7
#    16  16  16  16  16  16  16
#     4  10  22  38  58  87 120 157 198 237 287 350
#     4  10  21  36  56  82 112 148 192 245 300 351
#     4   9  17  31  54  82 111 147 192 241 291 345
#     4  10  23  42  64  89 115 151 198 245 299 357
#     4   9  18  33  54  81 113 150 192 236 283 342
#     4  10  23  40  60  86 117 154 194 243 295 348
#     4  10  20  33  53  82 116 153 191 236 288 343
#
# _framework density 20.269546999999999
#
# number of rings (size 3 to 8) (size 9 to 14) (size 15 to 20)
#    0.000    2.286    0.000    3.429    0.000   11.429 
#    0.000    3.571    0.000    1.714    0.000    8.000 
#    0.000    0.000    0.000    0.000    0.000    0.000 
#
# Total GULP energy -312379.585512 kJ/mol
# GULP energy per Si atom -5578.206884 kJ/mol
# Density = 2.022341 g / cm^3
# Si number density = 20.269547 Si / 1000 Ang^3
#
#
#
# Elastic Constant Matrix: (Units=GPa)
#
#
# Indices 1 2 3 4 5 6 
#
# 1 106.5033 43.4433 33.5223 0.0000 0.0000 0.0000
# 2 43.4433 111.2817 36.1797 0.0000 0.0000 0.0000
# 3 33.5223 36.1797 53.8388 0.0000 0.0000 0.0000
# 4 0.0000 0.0000 0.0000 12.5887 0.0000 0.0000
# 5 0.0000 0.0000 0.0000 0.0000 28.5343 0.0000
# 6 0.0000 0.0000 0.0000 0.0000 0.0000 30.1836
#
#
#
# Elastic Compliance Matrix: (Units=1/GPa)
#
#
# Indices 1 2 3 4 5 6 
#
# 1 0.012407 -0.002984 -0.005720 0.000000 0.000000 0.000000
# 2 -0.002984 0.012216 -0.006351 0.000000 0.000000 0.000000
# 3 -0.005720 -0.006351 0.026403 0.000000 0.000000 0.000000
# 4 0.000000 0.000000 0.000000 0.079436 0.000000 0.000000
# 5 0.000000 0.000000 0.000000 0.000000 0.035046 0.000000
# 6 0.000000 0.000000 0.000000 0.000000 0.000000 0.033131
#
#
# Mechanical properties :
#
#
# Convention : Reuss Voigt Hill
#
# Bulk Modulus (GPa) = 47.80965 55.32384 51.56674
# Shear Modulus (GPa) = 21.21155 24.82656 23.01905
#
# Velocity S-wave (km/s) = 3.23843 3.50354 3.37359
# Velocity P-wave (km/s) = 6.13363 6.61209 6.37735
#
# Compressibility (1/GPa) = 0.02091628
#
# Stress axis : x y z
#
# Youngs Moduli (GPa) = 80.60051 81.85990 37.87388
#
# Poissons Ratio (x) = 0.24426 0.21663
# Poissons Ratio (y) = 0.24050 0.24055
# Poissons Ratio (z) = 0.46102 0.51991
#
# Static dielectric constant tensor:
#      x y z
#    x 1.775370 0.000000 0.000000 
#    y 0.000000 1.738210 0.000000 
#    z 0.000000 0.000000 1.733360 
# 
# From -- ./inp_files/23863.got.cif
#   From: 2010.05.17/outbox.cif.g08.bks.cpg/sg67_12_cif.got.tgz:23863.got - 2010.06.03 18:28:57.
