data_PCOD9502430
_publ_section_title
;
Structure prediction by ZEFSAII (Michael W. Deem and Ramdas Pophale) SiO2 
 PCOD9502430
Probable space group: C M M A
;
_chemical_formula_sum "Si O2"
_cell_formula_units_Z 80
_cell_length_a 24.344158
_cell_length_b 8.623574
_cell_length_c 20.817320
_cell_angle_alpha 90.000000
_cell_angle_beta 90.000000
_cell_angle_gamma 90.000000
_cell_volume 4370.255929
_symmetry_space_group_name_H-M "C M M A"
_symmetry_group_IT_number 67
_symmetry_cell_setting 'orthorhombic'
loop_
_space_group_symop_operation_xyz
x,y,z
-x,1/2-y,z
x,-y,-z
-x,1/2+y,-z
-x,-y,-z
x,1/2+y,-z
-x,y,z
x,1/2-y,z
1/2+x,1/2+y,z
1/2-x,-y,z
1/2+x,1/2-y,-z
1/2-x,y,-z
1/2-x,1/2-y,-z
1/2+x,y,-z
1/2-x,1/2+y,z
1/2+x,-y,z
loop_
_atom_site_type_symbol
_atom_site_label
_atom_site_fract_x
_atom_site_fract_y
_atom_site_fract_z
Si Si1 0.500000 0.928249 0.255177
Si Si2 0.188489 0.436791 0.689614
Si Si3 0.378185 0.562465 0.432746
Si Si4 0.500000 0.571766 0.408836
Si Si5 0.936522 0.435145 0.070461
Si Si6 0.609900 0.065322 0.196112
O O1 0.500000 0.750000 0.231158
O O2 0.500000 0.924970 0.331850
O O3 0.554120 0.013032 0.231184
O O4 0.188216 0.250000 0.686294
O O5 0.250000 0.500000 0.687156
O O6 0.154308 0.502175 0.629213
O O7 0.158885 0.484354 0.756409
O O8 0.354695 0.500000 0.500000
O O9 0.378191 0.750000 0.431642
O O10 0.441513 0.502816 0.428727
O O11 0.500000 0.750000 0.432458
O O12 0.935818 0.250000 0.068714
O O13 0.895632 0.493804 0.125395
O O14 0.000000 0.484452 0.085785
O O15 0.923704 0.500000 0.000000
O O16 0.611624 0.250000 0.190280
#
# Coordination Sequence:
#
# PCOD9502430 Si02
#       6
#     8  16  16   8  16  16
#     4  11  19  32  55  85 115 151 192 227 282 343
#     4  11  25  43  62  85 110 147 195 244 292 339
#     4  11  22  39  60  86 118 152 189 234 286 345
#     4   9  19  34  56  85 118 152 185 226 280 343
#     4  10  20  33  53  84 122 161 194 227 276 336
#     4  11  22  36  57  86 119 151 189 237 287 338
#
# _framework density 18.305562999999999
#
# number of rings (size 3 to 8) (size 9 to 14) (size 15 to 20)
#    0.000    1.400    3.000    3.000    0.000    3.600 
#    0.000    3.500    0.000    0.600    0.000    4.200 
#    0.000    0.000    0.000    0.000    0.000    0.000 
#
# Total GULP energy -223391.773281 kJ/mol
# GULP energy per Si atom -5584.794332 kJ/mol
# Density = 1.826390 g / cm^3
# Si number density = 18.305563 Si / 1000 Ang^3
#
#
#
# Elastic Constant Matrix: (Units=GPa)
#
#
# Indices 1 2 3 4 5 6 
#
# 1 115.5939 30.0716 68.8950 0.0000 0.0000 0.0000
# 2 30.0716 57.0319 48.7434 0.0000 0.0000 0.0000
# 3 68.8950 48.7434 163.2323 0.0000 0.0000 0.0000
# 4 0.0000 0.0000 0.0000 32.4892 0.0000 0.0000
# 5 0.0000 0.0000 0.0000 0.0000 -2.6657 0.0000
# 6 0.0000 0.0000 0.0000 0.0000 0.0000 14.7907
#
#
#
# Elastic Compliance Matrix: (Units=1/GPa)
#
#
# Indices 1 2 3 4 5 6 
#
# 1 0.011850 -0.002650 -0.004210 0.000000 0.000000 0.000000
# 2 -0.002650 0.024135 -0.006089 0.000000 0.000000 0.000000
# 3 -0.004210 -0.006089 0.009721 0.000000 0.000000 0.000000
# 4 0.000000 0.000000 0.000000 0.030779 0.000000 0.000000
# 5 0.000000 0.000000 0.000000 0.000000 -0.375135 0.000000
# 6 0.000000 0.000000 0.000000 0.000000 0.000000 0.067610
#
#
# Mechanical properties :
#
#
# Convention : Reuss Voigt Hill
#
# Bulk Modulus (GPa) = 50.48241 70.14200 60.31220
# Shear Modulus (GPa) = -25.18384 21.46604 -1.85890
#
# Velocity S-wave (km/s) = -3.71313 3.42811 -1.00881
# Velocity P-wave (km/s) = 3.04210 7.35322 5.62691
#
# Compressibility (1/GPa) = 0.01980888
#
# Stress axis : x y z
#
# Youngs Moduli (GPa) = 84.39151 41.43362 102.86687
#
# Poissons Ratio (x) = 0.10979 0.43307
# Poissons Ratio (y) = 0.22362 0.62632
# Poissons Ratio (z) = 0.35529 0.25227
#
# Static dielectric constant tensor:
#      x y z
#    x 1.613530 0.000000 0.000000 
#    y 0.000000 1.625470 0.000000 
#    z 0.000000 0.000000 1.638310 
# 
# From -- ./inp_files/39541.got.cif
#   From: 2010.05.17/outbox.cif.g08.bks.cpg/sg67_20_cif.got.tgz:39541.got - 2010.06.03 18:28:57.
