data_PCOD9502821
_publ_section_title
;
Structure prediction by ZEFSAII (Michael W. Deem and Ramdas Pophale) SiO2 
 PCOD9502821
Probable space group: C M M A
;
_chemical_formula_sum "Si O2"
_cell_formula_units_Z 64
_cell_length_a 14.399624
_cell_length_b 10.931886
_cell_length_c 18.031196
_cell_angle_alpha 90.000000
_cell_angle_beta 90.000000
_cell_angle_gamma 90.000000
_cell_volume 2838.381584
_symmetry_space_group_name_H-M "C M M A"
_symmetry_group_IT_number 67
_symmetry_cell_setting 'orthorhombic'
loop_
_space_group_symop_operation_xyz
x,y,z
-x,1/2-y,z
x,-y,-z
-x,1/2+y,-z
-x,-y,-z
x,1/2+y,-z
-x,y,z
x,1/2-y,z
1/2+x,1/2+y,z
1/2-x,-y,z
1/2+x,1/2-y,-z
1/2-x,y,-z
1/2-x,1/2-y,-z
1/2+x,y,-z
1/2-x,1/2+y,z
1/2+x,-y,z
loop_
_atom_site_type_symbol
_atom_site_label
_atom_site_fract_x
_atom_site_fract_y
_atom_site_fract_z
Si Si1 0.819446 0.613449 0.202726
Si Si2 0.612894 0.250000 0.447067
Si Si3 0.143097 0.878637 0.031005
Si Si4 0.887622 0.250000 0.378240
Si Si5 0.607176 0.022570 0.351632
O O1 0.778783 0.750000 0.214038
O O2 0.750000 0.500000 0.203177
O O3 0.859622 0.615495 0.119787
O O4 0.886931 0.583962 0.270775
O O5 0.500000 0.250000 0.438583
O O6 0.632038 0.250000 0.533994
O O7 0.647012 0.124857 0.407893
O O8 0.103148 0.750000 0.005873
O O9 0.250000 0.877562 0.000000
O O10 0.099879 0.000000 0.000000
O O11 0.853504 0.383544 0.349433
O O12 0.000000 0.250000 0.365511
O O13 0.500000 0.007012 0.374402
#
# Coordination Sequence:
#
# PCOD9502821 Si02
#       5
#    16   8  16   8  16
#     4  11  22  34  54  80 109 143 176 217 268 317
#     4   9  16  32  57  79 103 138 182 224 257 307
#     4   9  16  30  49  74  99 129 173 220 253 294
#     4   9  18  32  55  83 105 138 182 222 263 305
#     4  10  20  35  54  82 112 137 175 224 268 316
#
# _framework density 22.548061000000001
#
# number of rings (size 3 to 8) (size 9 to 14) (size 15 to 20)
#    0.000    2.250    3.750    0.750    1.750    3.000 
#    0.000    0.000    0.000    5.250    0.000    0.000 
#    0.000    0.000    0.000    0.000    0.000    0.000 
#
# Total GULP energy -178416.043546 kJ/mol
# GULP energy per Si atom -5575.501361 kJ/mol
# Density = 2.249674 g / cm^3
# Si number density = 22.548061 Si / 1000 Ang^3
#
#
#
# Elastic Constant Matrix: (Units=GPa)
#
#
# Indices 1 2 3 4 5 6 
#
# 1 49.1667 16.5295 -11.2932 0.0000 0.0000 0.0000
# 2 16.5295 285.8355 56.1825 0.0000 0.0000 0.0000
# 3 -11.2932 56.1825 99.3270 0.0000 0.0000 0.0000
# 4 0.0000 0.0000 0.0000 46.5952 0.0000 0.0000
# 5 0.0000 0.0000 0.0000 0.0000 29.2121 0.0000
# 6 0.0000 0.0000 0.0000 0.0000 0.0000 37.5156
#
#
#
# Elastic Compliance Matrix: (Units=1/GPa)
#
#
# Indices 1 2 3 4 5 6 
#
# 1 0.021827 -0.001969 0.003595 0.000000 0.000000 0.000000
# 2 -0.001969 0.004114 -0.002551 0.000000 0.000000 0.000000
# 3 0.003595 -0.002551 0.011919 0.000000 0.000000 0.000000
# 4 0.000000 0.000000 0.000000 0.021461 0.000000 0.000000
# 5 0.000000 0.000000 0.000000 0.000000 0.034232 0.000000
# 6 0.000000 0.000000 0.000000 0.000000 0.000000 0.026656
#
#
# Mechanical properties :
#
#
# Convention : Reuss Voigt Hill
#
# Bulk Modulus (GPa) = 27.76922 61.90743 44.83832
# Shear Modulus (GPa) = 37.29632 47.52526 42.41079
#
# Velocity S-wave (km/s) = 4.07145 4.59598 4.34165
# Velocity P-wave (km/s) = 5.86895 7.46187 6.71283
#
# Compressibility (1/GPa) = 0.03601110
#
# Stress axis : x y z
#
# Youngs Moduli (GPa) = 45.81548 243.08841 83.89761
#
# Poissons Ratio (x) = 0.47861 -0.30164
# Poissons Ratio (y) = 0.09021 0.21400
# Poissons Ratio (z) = -0.16472 0.62005
#
# Static dielectric constant tensor:
#      x y z
#    x 1.831550 0.000000 0.000000 
#    y 0.000000 1.877610 0.000000 
#    z 0.000000 0.000000 1.821720 
# 
# From -- ./inp_files/25777.got.cif
#   From: 2010.05.17/outbox.cif.g08.bks.cpg/sg67_13_cif.got.tgz:25777.got - 2010.06.03 18:28:57.
