data_PCOD9502873
_publ_section_title
;
Structure prediction by ZEFSAII (Michael W. Deem and Ramdas Pophale) SiO2 
 PCOD9502873
Probable space group: C M M A
;
_chemical_formula_sum "Si O2"
_cell_formula_units_Z 112
_cell_length_a 27.588128
_cell_length_b 17.168966
_cell_length_c 12.717342
_cell_angle_alpha 90.000000
_cell_angle_beta 90.000000
_cell_angle_gamma 90.000000
_cell_volume 6023.691527
_symmetry_space_group_name_H-M "C M M A"
_symmetry_group_IT_number 67
_symmetry_cell_setting 'orthorhombic'
loop_
_space_group_symop_operation_xyz
x,y,z
-x,1/2-y,z
x,-y,-z
-x,1/2+y,-z
-x,-y,-z
x,1/2+y,-z
-x,y,z
x,1/2-y,z
1/2+x,1/2+y,z
1/2-x,-y,z
1/2+x,1/2-y,-z
1/2-x,y,-z
1/2-x,1/2-y,-z
1/2+x,y,-z
1/2-x,1/2+y,z
1/2+x,-y,z
loop_
_atom_site_type_symbol
_atom_site_label
_atom_site_fract_x
_atom_site_fract_y
_atom_site_fract_z
Si Si1 0.053977 0.844213 0.676242
Si Si2 0.307231 0.162702 0.984400
Si Si3 0.557753 0.158206 0.230991
Si Si4 0.846285 0.096926 0.232072
Si Si5 0.375372 0.048400 0.102935
Si Si6 0.801208 0.844323 0.554697
Si Si7 0.097300 0.155966 0.543690
O O1 0.054111 0.750000 0.677200
O O2 0.099571 0.871377 0.744373
O O3 0.066115 0.870386 0.556860
O O4 0.000000 0.870417 0.707916
O O5 0.324001 0.250000 0.008290
O O6 0.332275 0.102219 0.061345
O O7 0.250000 0.158905 0.000000
O O8 0.322231 0.141618 0.865700
O O9 0.500000 0.152709 0.228595
O O10 0.570612 0.250000 0.217393
O O11 0.582803 0.103649 0.146035
O O12 0.577094 0.130518 0.344808
O O13 0.814176 0.112596 0.336047
O O14 0.854785 0.009291 0.191949
O O15 0.391644 0.000000 0.000000
O O16 0.802113 0.750000 0.574175
O O17 0.750000 0.863181 0.500000
O O18 0.846573 0.863028 0.478350
O O19 0.093802 0.250000 0.543986
#
# Coordination Sequence:
#
# PCOD9502873 Si02
#       7
#    16  16  16  16  16  16  16
#     4   9  16  29  52  80 110 145 184 226 269 316
#     4  10  21  39  63  84 102 135 185 233 273 320
#     4  10  20  36  59  83 108 143 186 229 273 326
#     4  10  20  35  55  83 117 146 177 222 276 334
#     4  10  23  39  56  78 109 145 181 228 281 328
#     4   9  17  31  54  85 118 150 185 225 268 319
#     4   8  15  29  51  80 110 138 177 225 267 314
#
# _framework density 18.593249
#
# number of rings (size 3 to 8) (size 9 to 14) (size 15 to 20)
#    0.000    2.571    0.000    3.000    0.000    6.286 
#    0.000    7.857    0.000   12.857    0.000    0.000 
#    0.000    0.571    0.000    0.000    0.000    0.000 
#
# Total GULP energy -312311.868609 kJ/mol
# GULP energy per Si atom -5576.997654 kJ/mol
# Density = 1.855093 g / cm^3
# Si number density = 18.593249 Si / 1000 Ang^3
#
#
#
# Elastic Constant Matrix: (Units=GPa)
#
#
# Indices 1 2 3 4 5 6 
#
# 1 119.2533 49.6448 72.2903 0.0000 0.0000 0.0000
# 2 49.6448 76.5806 63.4951 0.0000 0.0000 0.0000
# 3 72.2903 63.4951 94.8600 0.0000 0.0000 0.0000
# 4 0.0000 0.0000 0.0000 23.8802 0.0000 0.0000
# 5 0.0000 0.0000 0.0000 0.0000 20.4116 0.0000
# 6 0.0000 0.0000 0.0000 0.0000 0.0000 -7.4147
#
#
#
# Elastic Compliance Matrix: (Units=1/GPa)
#
#
# Indices 1 2 3 4 5 6 
#
# 1 0.015597 -0.000575 -0.011501 0.000000 0.000000 0.000000
# 2 -0.000575 0.029364 -0.019217 0.000000 0.000000 0.000000
# 3 -0.011501 -0.019217 0.032169 0.000000 0.000000 0.000000
# 4 0.000000 0.000000 0.000000 0.041876 0.000000 0.000000
# 5 0.000000 0.000000 0.000000 0.000000 0.048992 0.000000
# 6 0.000000 0.000000 0.000000 0.000000 0.000000 -0.134867
#
#
# Mechanical properties :
#
#
# Convention : Reuss Voigt Hill
#
# Bulk Modulus (GPa) = 68.75452 73.50607 71.13029
# Shear Modulus (GPa) = 49.71967 14.39299 32.05633
#
# Velocity S-wave (km/s) = 5.17675 2.78528 4.15671
# Velocity P-wave (km/s) = 8.53172 7.06847 7.83433
#
# Compressibility (1/GPa) = 0.01454450
#
# Stress axis : x y z
#
# Youngs Moduli (GPa) = 64.11648 34.05516 31.08576
#
# Poissons Ratio (x) = 0.01959 0.35751
# Poissons Ratio (y) = 0.03688 0.59737
# Poissons Ratio (z) = 0.73739 0.65443
#
# Static dielectric constant tensor:
#      x y z
#    x 1.617420 0.000000 0.000000 
#    y 0.000000 1.660290 0.000000 
#    z 0.000000 0.000000 1.634290 
# 
# From -- ./inp_files/23827.got.cif
#   From: 2010.05.17/outbox.cif.g08.bks.cpg/sg67_12_cif.got.tgz:23827.got - 2010.06.03 18:28:57.
