data_PCOD9502835
_publ_section_title
;
Structure prediction by ZEFSAII (Michael W. Deem and Ramdas Pophale) SiO2 
 PCOD9502835
Probable space group: C M M A
;
_chemical_formula_sum "Si O2"
_cell_formula_units_Z 96
_cell_length_a 7.968393
_cell_length_b 19.252874
_cell_length_c 31.902269
_cell_angle_alpha 90.000000
_cell_angle_beta 90.000000
_cell_angle_gamma 90.000000
_cell_volume 4894.269576
_symmetry_space_group_name_H-M "C M M A"
_symmetry_group_IT_number 67
_symmetry_cell_setting 'orthorhombic'
loop_
_space_group_symop_operation_xyz
x,y,z
-x,1/2-y,z
x,-y,-z
-x,1/2+y,-z
-x,-y,-z
x,1/2+y,-z
-x,y,z
x,1/2-y,z
1/2+x,1/2+y,z
1/2-x,-y,z
1/2+x,1/2-y,-z
1/2-x,y,-z
1/2-x,1/2-y,-z
1/2+x,y,-z
1/2-x,1/2+y,z
1/2+x,-y,z
loop_
_atom_site_type_symbol
_atom_site_label
_atom_site_fract_x
_atom_site_fract_y
_atom_site_fract_z
Si Si1 0.797528 0.079543 0.123149
Si Si2 0.797206 0.080453 0.625414
Si Si3 0.797803 0.829519 0.452912
Si Si4 0.701068 0.828968 0.704055
Si Si5 0.202340 0.170455 0.045663
Si Si6 0.700687 0.920130 0.217311
O O1 0.734645 0.127218 0.085361
O O2 0.737222 0.097191 0.170205
O O3 0.000000 0.084729 0.123822
O O4 0.750000 0.000000 0.115245
O O5 0.737087 0.118506 0.583047
O O6 0.735078 0.123983 0.665590
O O7 0.000000 0.083653 0.625524
O O8 0.750000 0.000000 0.627474
O O9 0.737747 0.750000 0.446078
O O10 0.750000 0.850471 0.500000
O O11 0.000000 0.827820 0.450644
O O12 0.500000 0.824844 0.699188
O O13 0.766767 0.750000 0.703364
O O14 0.735982 0.868103 0.747412
O O15 0.263766 0.250000 0.047716
O O16 0.000000 0.171741 0.047662
O O17 0.250000 0.141588 0.000000
O O18 0.500000 0.916818 0.217057
O O19 0.750000 0.000000 0.226487
#
# Coordination Sequence:
#
# PCOD9502835 Si02
#       6
#    16  16  16  16  16  16
#     4   9  19  34  52  74 101 133 166 204 250 300
#     4  10  21  36  54  76 104 138 173 210 255 306
#     4   9  18  34  55  77 102 134 171 210 253 301
#     4  10  21  37  56  78 105 137 173 214 260 309
#     4   9  18  33  51  71  97 130 167 206 249 296
#     4  10  20  35  55  78 105 137 172 211 257 308
#
# _framework density 19.614775000000002
#
# number of rings (size 3 to 8) (size 9 to 14) (size 15 to 20)
#    0.000    2.500    0.000    1.500    0.000    7.667 
#    0.000    5.000    0.000    5.000    0.000    0.000 
#    0.000    0.000    0.000    0.000    0.000    0.000 
#
# Total GULP energy -267865.440587 kJ/mol
# GULP energy per Si atom -5580.530012 kJ/mol
# Density = 1.957013 g / cm^3
# Si number density = 19.614775 Si / 1000 Ang^3
#
#
#
# Elastic Constant Matrix: (Units=GPa)
#
#
# Indices 1 2 3 4 5 6 
#
# 1 15.4290 7.1430 8.0742 0.0000 0.0000 0.0000
# 2 7.1430 147.8784 138.5644 0.0000 0.0000 0.0000
# 3 8.0742 138.5644 199.1506 0.0000 0.0000 0.0000
# 4 0.0000 0.0000 0.0000 45.3284 0.0000 0.0000
# 5 0.0000 0.0000 0.0000 0.0000 23.4722 0.0000
# 6 0.0000 0.0000 0.0000 0.0000 0.0000 23.6561
#
#
#
# Elastic Compliance Matrix: (Units=1/GPa)
#
#
# Indices 1 2 3 4 5 6 
#
# 1 0.066417 -0.001968 -0.001323 0.000000 0.000000 0.000000
# 2 -0.001968 0.019488 -0.013479 0.000000 0.000000 0.000000
# 3 -0.001323 -0.013479 0.014454 0.000000 0.000000 0.000000
# 4 0.000000 0.000000 0.000000 0.022061 0.000000 0.000000
# 5 0.000000 0.000000 0.000000 0.000000 0.042604 0.000000
# 6 0.000000 0.000000 0.000000 0.000000 0.000000 0.042272
#
#
# Mechanical properties :
#
#
# Convention : Reuss Voigt Hill
#
# Bulk Modulus (GPa) = 14.96642 74.44681 44.70661
# Shear Modulus (GPa) = 19.00355 32.40310 25.70333
#
# Velocity S-wave (km/s) = 3.11599 4.06886 3.62388
# Velocity P-wave (km/s) = 4.53791 7.75313 6.35231
#
# Compressibility (1/GPa) = 0.06681626
#
# Stress axis : x y z
#
# Youngs Moduli (GPa) = 15.05648 51.31450 69.18718
#
# Poissons Ratio (x) = 0.10099 0.09156
# Poissons Ratio (y) = 0.02963 0.93259
# Poissons Ratio (z) = 0.01993 0.69168
#
# Static dielectric constant tensor:
#      x y z
#    x 1.710520 0.000000 0.000000 
#    y 0.000000 1.651870 0.000000 
#    z 0.000000 0.000000 1.691120 
# 
# From -- ./inp_files/43423.got.cif
#   From: 2010.05.17/outbox.cif.g08.bks.cpg/sg67_22_cif.got.tgz:43423.got - 2010.06.03 18:28:57.
