data_PCOD9502552
_publ_section_title
;
Structure prediction by ZEFSAII (Michael W. Deem and Ramdas Pophale) SiO2 
 PCOD9502552
Probable space group: C M M A
;
_chemical_formula_sum "Si O2"
_cell_formula_units_Z 104
_cell_length_a 9.048194
_cell_length_b 25.173845
_cell_length_c 25.421361
_cell_angle_alpha 90.000000
_cell_angle_beta 90.000000
_cell_angle_gamma 90.000000
_cell_volume 5790.422528
_symmetry_space_group_name_H-M "C M M A"
_symmetry_group_IT_number 67
_symmetry_cell_setting 'orthorhombic'
loop_
_space_group_symop_operation_xyz
x,y,z
-x,1/2-y,z
x,-y,-z
-x,1/2+y,-z
-x,-y,-z
x,1/2+y,-z
-x,y,z
x,1/2-y,z
1/2+x,1/2+y,z
1/2-x,-y,z
1/2+x,1/2-y,-z
1/2-x,y,-z
1/2-x,1/2-y,-z
1/2+x,y,-z
1/2-x,1/2+y,z
1/2+x,-y,z
loop_
_atom_site_type_symbol
_atom_site_label
_atom_site_fract_x
_atom_site_fract_y
_atom_site_fract_z
Si Si1 0.329583 0.445889 0.095722
Si Si2 0.176158 0.750000 0.557348
Si Si3 0.675627 0.443600 0.445435
Si Si4 0.325982 0.313441 0.257807
Si Si5 0.175563 0.357386 0.154666
Si Si6 0.330130 0.666599 0.947592
Si Si7 0.824392 0.842451 0.375930
O O1 0.500000 0.456238 0.109596
O O2 0.250000 0.500000 0.080098
O O3 0.242512 0.416021 0.142800
O O4 0.330020 0.398392 0.052883
O O5 0.250000 0.750000 0.500000
O O6 0.232516 0.699252 0.589999
O O7 0.000000 0.750000 0.552338
O O8 0.500000 0.450117 0.453412
O O9 0.750000 0.500000 0.433135
O O10 0.750000 0.424686 0.500000
O O11 0.698913 0.400429 0.400254
O O12 0.500000 0.324067 0.247459
O O13 0.307340 0.250000 0.261464
O O14 0.231292 0.336147 0.210109
O O15 0.286904 0.337678 0.314512
O O16 0.244353 0.322303 0.106763
O O17 0.000000 0.358094 0.150693
O O18 0.500000 0.683785 0.944907
O O19 0.250000 0.685463 0.000000
O O20 0.000000 0.829400 0.380781
#
# Coordination Sequence:
#
# PCOD9502552 Si02
#       7
#    16   8  16  16  16  16  16
#     4   9  18  31  49  74 106 141 181 222 269 328
#     4  12  24  36  56  86 122 156 187 234 291 350
#     4  10  20  35  58  84 115 153 195 234 278 332
#     4  10  20  38  62  81 106 143 182 228 283 341
#     4  10  20  34  52  76 108 142 182 227 270 325
#     4   9  18  31  50  76 108 143 182 225 273 331
#     4  10  21  39  60  85 115 152 193 238 289 344
#
# _framework density 17.960692999999999
#
# number of rings (size 3 to 8) (size 9 to 14) (size 15 to 20)
#    0.923    1.231    0.769    3.923    0.000    3.692 
#    0.000    2.308    0.000    2.308    0.000    0.000 
#    0.000    0.000    0.000    0.000    0.000    0.000 
#
# Total GULP energy -289879.530898 kJ/mol
# GULP energy per Si atom -5574.606363 kJ/mol
# Density = 1.791981 g / cm^3
# Si number density = 17.960693 Si / 1000 Ang^3
#
#
#
# Elastic Constant Matrix: (Units=GPa)
#
#
# Indices 1 2 3 4 5 6 
#
# 1 142.1835 36.1718 80.7651 0.0000 0.0000 0.0000
# 2 36.1718 52.3838 31.1767 0.0000 0.0000 0.0000
# 3 80.7651 31.1767 122.5930 0.0000 0.0000 0.0000
# 4 0.0000 0.0000 0.0000 5.4473 0.0000 0.0000
# 5 0.0000 0.0000 0.0000 0.0000 30.9777 0.0000
# 6 0.0000 0.0000 0.0000 0.0000 0.0000 14.5767
#
#
#
# Elastic Compliance Matrix: (Units=1/GPa)
#
#
# Indices 1 2 3 4 5 6 
#
# 1 0.011979 -0.004212 -0.006821 0.000000 0.000000 0.000000
# 2 -0.004212 0.023976 -0.003322 0.000000 0.000000 0.000000
# 3 -0.006821 -0.003322 0.013495 0.000000 0.000000 0.000000
# 4 0.000000 0.000000 0.000000 0.183576 0.000000 0.000000
# 5 0.000000 0.000000 0.000000 0.000000 0.032281 0.000000
# 6 0.000000 0.000000 0.000000 0.000000 0.000000 0.068603
#
#
# Mechanical properties :
#
#
# Convention : Reuss Voigt Hill
#
# Bulk Modulus (GPa) = 48.21617 68.15417 58.18517
# Shear Modulus (GPa) = 13.53053 21.47014 17.50034
#
# Velocity S-wave (km/s) = 2.74768 3.46120 3.12487
# Velocity P-wave (km/s) = 6.08030 7.34860 6.74433
#
# Compressibility (1/GPa) = 0.02073993
#
# Stress axis : x y z
#
# Youngs Moduli (GPa) = 83.47793 41.70877 74.09901
#
# Poissons Ratio (x) = 0.17569 0.50541
# Poissons Ratio (y) = 0.35164 0.24617
# Poissons Ratio (z) = 0.56938 0.13856
#
# Static dielectric constant tensor:
#      x y z
#    x 1.604300 0.000000 0.000000 
#    y 0.000000 1.628330 0.000000 
#    z 0.000000 0.000000 1.593360 
# 
# From -- ./inp_files/41022.got.cif
#   From: 2010.05.17/outbox.cif.g08.bks.cpg/sg67_21_cif.got.tgz:41022.got - 2010.06.03 18:28:57.
