data_PCOD9502068
_publ_section_title
;
Structure prediction by ZEFSAII (Michael W. Deem and Ramdas Pophale) SiO2 
 PCOD9502068
Probable space group: C M M A
;
_chemical_formula_sum "Si O2"
_cell_formula_units_Z 104
_cell_length_a 25.147090
_cell_length_b 16.424142
_cell_length_c 11.883902
_cell_angle_alpha 90.000000
_cell_angle_beta 90.000000
_cell_angle_gamma 90.000000
_cell_volume 4908.281801
_symmetry_space_group_name_H-M "C M M A"
_symmetry_group_IT_number 67
_symmetry_cell_setting 'orthorhombic'
loop_
_space_group_symop_operation_xyz
x,y,z
-x,1/2-y,z
x,-y,-z
-x,1/2+y,-z
-x,-y,-z
x,1/2+y,-z
-x,y,z
x,1/2-y,z
1/2+x,1/2+y,z
1/2-x,-y,z
1/2+x,1/2-y,-z
1/2-x,y,-z
1/2-x,1/2-y,-z
1/2+x,y,-z
1/2-x,1/2+y,z
1/2+x,-y,z
loop_
_atom_site_type_symbol
_atom_site_label
_atom_site_fract_x
_atom_site_fract_y
_atom_site_fract_z
Si Si1 0.326706 0.430370 0.292555
Si Si2 0.877197 0.662287 0.893534
Si Si3 0.560592 0.620512 0.334283
Si Si4 0.839529 0.659724 0.515147
Si Si5 0.943153 0.943629 0.240238
Si Si6 0.787127 0.884104 0.740673
Si Si7 0.913461 0.000000 0.000000
O O1 0.326252 0.408427 0.424154
O O2 0.385212 0.403788 0.252270
O O3 0.275324 0.388205 0.238857
O O4 0.314552 0.525764 0.269807
O O5 0.887827 0.750000 0.947786
O O6 0.916942 0.652499 0.785753
O O7 0.819458 0.660037 0.837230
O O8 0.882292 0.582487 0.969524
O O9 0.500000 0.647172 0.352952
O O10 0.602298 0.646178 0.429468
O O11 0.560184 0.522465 0.321595
O O12 0.837142 0.750000 0.463976
O O13 0.799432 0.654870 0.619929
O O14 0.000000 0.901248 0.262165
O O15 0.944335 0.978187 0.113381
#
# Coordination Sequence:
#
# PCOD9502068 Si02
#       7
#    16  16  16  16  16  16   8
#     4  11  21  36  57  86 113 157 191 241 302 348
#     4  10  20  37  64  93 119 153 198 248 305 361
#     4   9  18  34  56  84 118 156 201 251 293 340
#     4  11  22  34  52  83 121 157 198 241 288 350
#     4  10  20  37  61  85 113 151 197 245 299 362
#     4  10  20  37  59  83 116 151 201 247 287 348
#     4  10  19  40  63  92 122 147 193 252 306 358
#
# _framework density 21.188677999999999
#
# number of rings (size 3 to 8) (size 9 to 14) (size 15 to 20)
#    0.000    1.846    4.615    3.000    0.000    5.538 
#    0.000    3.846    0.000    1.846    0.000    0.000 
#    0.000    0.000    0.000    0.000    0.000    0.000 
#
# Total GULP energy -290033.102302 kJ/mol
# GULP energy per Si atom -5577.559660 kJ/mol
# Density = 2.114045 g / cm^3
# Si number density = 21.188678 Si / 1000 Ang^3
#
#
#
# Elastic Constant Matrix: (Units=GPa)
#
#
# Indices 1 2 3 4 5 6 
#
# 1 176.7230 23.2645 0.3998 0.0000 0.0000 0.0000
# 2 23.2645 82.8257 16.8826 0.0000 0.0000 0.0000
# 3 0.3998 16.8826 20.9252 0.0000 0.0000 0.0000
# 4 0.0000 0.0000 0.0000 10.4546 0.0000 0.0000
# 5 0.0000 0.0000 0.0000 0.0000 -25.9568 0.0000
# 6 0.0000 0.0000 0.0000 0.0000 0.0000 26.7178
#
#
#
# Elastic Compliance Matrix: (Units=1/GPa)
#
#
# Indices 1 2 3 4 5 6 
#
# 1 0.005913 -0.001960 0.001469 0.000000 0.000000 0.000000
# 2 -0.001960 0.015100 -0.012145 0.000000 0.000000 0.000000
# 3 0.001469 -0.012145 0.057560 0.000000 0.000000 0.000000
# 4 0.000000 0.000000 0.000000 0.095652 0.000000 0.000000
# 5 0.000000 0.000000 0.000000 0.000000 -0.038526 0.000000
# 6 0.000000 0.000000 0.000000 0.000000 0.000000 0.037428
#
#
# Mechanical properties :
#
#
# Convention : Reuss Voigt Hill
#
# Bulk Modulus (GPa) = 18.76198 40.17420 29.46809
# Shear Modulus (GPa) = 23.13023 18.23825 20.68424
#
# Velocity S-wave (km/s) = 3.30757 2.93704 3.12780
# Velocity P-wave (km/s) = 4.84362 5.52295 5.19440
#
# Compressibility (1/GPa) = 0.05329929
#
# Stress axis : x y z
#
# Youngs Moduli (GPa) = 169.10995 66.22626 17.37322
#
# Poissons Ratio (x) = 0.12982 -0.02551
# Poissons Ratio (y) = 0.33151 0.21100
# Poissons Ratio (z) = -0.24836 0.80433
#
# Static dielectric constant tensor:
#      x y z
#    x 1.813500 0.000000 0.000000 
#    y 0.000000 1.680060 0.000000 
#    z 0.000000 0.000000 1.742670 
# 
# From -- ./inp_files/23004.got.cif
#   From: 2010.05.17/outbox.cif.g08.bks.cpg/sg67_12_cif.got.tgz:23004.got - 2010.06.03 18:28:57.
