data_PCOD9502812
_publ_section_title
;
Structure prediction by ZEFSAII (Michael W. Deem and Ramdas Pophale) SiO2 
 PCOD9502812
Probable space group: C M M A
;
_chemical_formula_sum "Si O2"
_cell_formula_units_Z 64
_cell_length_a 40.395978
_cell_length_b 8.561759
_cell_length_c 10.376443
_cell_angle_alpha 90.000000
_cell_angle_beta 90.000000
_cell_angle_gamma 90.000000
_cell_volume 3588.803095
_symmetry_space_group_name_H-M "C M M A"
_symmetry_group_IT_number 67
_symmetry_cell_setting 'orthorhombic'
loop_
_space_group_symop_operation_xyz
x,y,z
-x,1/2-y,z
x,-y,-z
-x,1/2+y,-z
-x,-y,-z
x,1/2+y,-z
-x,y,z
x,1/2-y,z
1/2+x,1/2+y,z
1/2-x,-y,z
1/2+x,1/2-y,-z
1/2-x,y,-z
1/2-x,1/2-y,-z
1/2+x,y,-z
1/2-x,1/2+y,z
1/2+x,-y,z
loop_
_atom_site_type_symbol
_atom_site_label
_atom_site_fract_x
_atom_site_fract_y
_atom_site_fract_z
Si Si1 0.589817 0.438276 0.358765
Si Si2 0.212913 0.936966 0.141050
Si Si3 0.836407 0.063113 0.357557
Si Si4 0.037912 0.061614 0.858957
O O1 0.580228 0.500000 0.500000
O O2 0.591564 0.250000 0.361985
O O3 0.626302 0.504493 0.330300
O O4 0.563407 0.487899 0.251229
O O5 0.213437 0.750000 0.138733
O O6 0.250000 0.000000 0.165016
O O7 0.188395 0.997808 0.250674
O O8 0.202817 0.000000 0.000000
O O9 0.835742 0.250000 0.358854
O O10 0.827643 0.000000 0.500000
O O11 0.038123 0.250000 0.862341
O O12 0.000000 0.010709 0.832806
O O13 0.047311 0.000000 0.000000
#
# Coordination Sequence:
#
# PCOD9502812 Si02
#       4
#    16  16  16  16
#     4  10  20  35  54  78 108 141 179 223 270 322
#     4  11  22  39  60  85 114 146 183 224 271 322
#     4  11  22  38  58  82 111 145 184 227 274 324
#     4   9  19  35  54  77 106 139 177 221 268 320
#
# _framework density 17.833244000000001
#
# number of rings (size 3 to 8) (size 9 to 14) (size 15 to 20)
#    0.000    1.750    0.000    7.500    0.000    4.000 
#    0.000    5.000    0.000    0.000    0.000    0.000 
#    0.000    0.000    0.000    0.000    0.000    0.000 
#
# Total GULP energy -178761.859618 kJ/mol
# GULP energy per Si atom -5586.308113 kJ/mol
# Density = 1.779265 g / cm^3
# Si number density = 17.833244 Si / 1000 Ang^3
#
#
#
# Elastic Constant Matrix: (Units=GPa)
#
#
# Indices 1 2 3 4 5 6 
#
# 1 117.1093 56.0095 141.8734 0.0000 0.0000 0.0000
# 2 56.0095 133.1009 69.7382 0.0000 0.0000 0.0000
# 3 141.8734 69.7382 192.6283 0.0000 0.0000 0.0000
# 4 0.0000 0.0000 0.0000 33.8581 0.0000 0.0000
# 5 0.0000 0.0000 0.0000 0.0000 46.1274 0.0000
# 6 0.0000 0.0000 0.0000 0.0000 0.0000 26.0918
#
#
#
# Elastic Compliance Matrix: (Units=1/GPa)
#
#
# Indices 1 2 3 4 5 6 
#
# 1 0.080532 -0.003469 -0.058057 0.000000 0.000000 0.000000
# 2 -0.003469 0.009421 -0.000856 0.000000 0.000000 0.000000
# 3 -0.058057 -0.000856 0.048261 0.000000 0.000000 0.000000
# 4 0.000000 0.000000 0.000000 0.029535 0.000000 0.000000
# 5 0.000000 0.000000 0.000000 0.000000 0.021679 0.000000
# 6 0.000000 0.000000 0.000000 0.000000 0.000000 0.038326
#
#
# Mechanical properties :
#
#
# Convention : Reuss Voigt Hill
#
# Bulk Modulus (GPa) = 74.34722 108.67563 91.51143
# Shear Modulus (GPa) = 14.00551 32.89663 23.45107
#
# Velocity S-wave (km/s) = 2.80547 4.29963 3.63025
# Velocity P-wave (km/s) = 7.23014 9.25858 8.30651
#
# Compressibility (1/GPa) = 0.01345040
#
# Stress axis : x y z
#
# Youngs Moduli (GPa) = 12.41739 106.14223 20.72067
#
# Poissons Ratio (x) = 0.36824 1.20298
# Poissons Ratio (y) = 0.04308 0.01773
# Poissons Ratio (z) = 0.72092 0.09082
#
# Static dielectric constant tensor:
#      x y z
#    x 1.591500 0.000000 0.000000 
#    y 0.000000 1.601680 0.000000 
#    z 0.000000 0.000000 1.582800 
# 
# From -- ./inp_files/15799.got.cif
#   From: 2010.05.17/outbox.cif.g08.bks.cpg/sg67_8_cif.got.tgz:15799.got - 2010.06.03 18:28:57.
