data_PCOD9502004
_publ_section_title
;
Structure prediction by ZEFSAII (Michael W. Deem and Ramdas Pophale) SiO2 
 PCOD9502004
Probable space group: C M M A
;
_chemical_formula_sum "Si O2"
_cell_formula_units_Z 112
_cell_length_a 14.942715
_cell_length_b 32.811344
_cell_length_c 11.013101
_cell_angle_alpha 90.000000
_cell_angle_beta 90.000000
_cell_angle_gamma 90.000000
_cell_volume 5399.619480
_symmetry_space_group_name_H-M "C M M A"
_symmetry_group_IT_number 67
_symmetry_cell_setting 'orthorhombic'
loop_
_space_group_symop_operation_xyz
x,y,z
-x,1/2-y,z
x,-y,-z
-x,1/2+y,-z
-x,-y,-z
x,1/2+y,-z
-x,y,z
x,1/2-y,z
1/2+x,1/2+y,z
1/2-x,-y,z
1/2+x,1/2-y,-z
1/2-x,y,-z
1/2-x,1/2-y,-z
1/2+x,y,-z
1/2-x,1/2+y,z
1/2+x,-y,z
loop_
_atom_site_type_symbol
_atom_site_label
_atom_site_fract_x
_atom_site_fract_y
_atom_site_fract_z
Si Si1 0.105814 0.438701 0.658306
Si Si2 0.857046 0.913399 0.974358
Si Si3 0.892097 0.068666 0.390167
Si Si4 0.896038 0.146472 0.250694
Si Si5 0.101404 0.636467 0.209895
Si Si6 0.245087 0.298110 0.853675
Si Si7 0.847846 0.012830 0.172488
O O1 0.135588 0.447782 0.521777
O O2 0.145821 0.395291 0.696694
O O3 0.113654 0.472769 0.762310
O O4 0.000000 0.431393 0.646028
O O5 0.880569 0.884392 0.861926
O O6 0.887768 0.958791 0.934350
O O7 0.750000 0.914150 0.000000
O O8 0.899864 0.891648 0.089386
O O9 0.878889 0.116955 0.366724
O O10 0.841501 0.043942 0.286162
O O11 0.000000 0.061040 0.372167
O O12 0.829450 0.183132 0.218947
O O13 0.000000 0.159072 0.253738
O O14 0.160298 0.675905 0.189229
O O15 0.000000 0.647372 0.242355
O O16 0.237335 0.250000 0.834011
O O17 0.250000 0.305060 0.000000
O O18 0.750000 0.000000 0.133125
#
# Coordination Sequence:
#
# PCOD9502004 Si02
#       7
#    16  16  16  16  16  16  16
#     4  10  22  38  55  79 114 155 199 245 288 334
#     4  11  20  36  55  78 118 159 194 240 291 338
#     4   9  20  38  58  80 111 153 197 247 294 334
#     4  10  19  36  63  88 113 151 194 237 291 355
#     4  11  22  38  60  83 116 159 198 232 281 356
#     4  11  23  39  61  91 125 150 179 239 301 351
#     4  11  23  33  52  83 115 153 197 247 293 335
#
# _framework density 20.742201000000001
#
# number of rings (size 3 to 8) (size 9 to 14) (size 15 to 20)
#    0.000    1.571    2.857    2.143    2.000    6.571 
#    0.000    2.857    0.000    1.714    0.000    4.000 
#    0.000    0.000    0.000    0.000    0.000    0.000 
#
# Total GULP energy -312556.646000 kJ/mol
# GULP energy per Si atom -5581.368679 kJ/mol
# Density = 2.069499 g / cm^3
# Si number density = 20.742201 Si / 1000 Ang^3
#
#
#
# Elastic Constant Matrix: (Units=GPa)
#
#
# Indices 1 2 3 4 5 6 
#
# 1 88.4833 47.3732 10.8304 0.0000 0.0000 0.0000
# 2 47.3732 143.4342 19.1679 0.0000 0.0000 0.0000
# 3 10.8304 19.1679 52.8826 0.0000 0.0000 0.0000
# 4 0.0000 0.0000 0.0000 15.9043 0.0000 0.0000
# 5 0.0000 0.0000 0.0000 0.0000 -4.9179 0.0000
# 6 0.0000 0.0000 0.0000 0.0000 0.0000 -11.4370
#
#
#
# Elastic Compliance Matrix: (Units=1/GPa)
#
#
# Indices 1 2 3 4 5 6 
#
# 1 0.013806 -0.004395 -0.001234 0.000000 0.000000 0.000000
# 2 -0.004395 0.008726 -0.002263 0.000000 0.000000 0.000000
# 3 -0.001234 -0.002263 0.019983 0.000000 0.000000 0.000000
# 4 0.000000 0.000000 0.000000 0.062876 0.000000 0.000000
# 5 0.000000 0.000000 0.000000 0.000000 -0.203338 0.000000
# 6 0.000000 0.000000 0.000000 0.000000 0.000000 -0.087436
#
#
# Mechanical properties :
#
#
# Convention : Reuss Voigt Hill
#
# Bulk Modulus (GPa) = 37.41074 48.83811 43.12442
# Shear Modulus (GPa) = -31.11583 13.73845 -8.68869
#
# Velocity S-wave (km/s) = -3.87734 2.57639 -2.04890
# Velocity P-wave (km/s) = 1.40351 5.69621 3.90365
#
# Compressibility (1/GPa) = 0.02673029
#
# Stress axis : x y z
#
# Youngs Moduli (GPa) = 72.43457 114.60414 50.04312
#
# Poissons Ratio (x) = 0.50365 0.06178
# Poissons Ratio (y) = 0.31833 0.11323
# Poissons Ratio (z) = 0.08942 0.25931
#
# Static dielectric constant tensor:
#      x y z
#    x 1.767540 0.000000 0.000000 
#    y 0.000000 1.732360 0.000000 
#    z 0.000000 0.000000 1.800000 
# 
# From -- ./inp_files/18632.got.cif
#   From: 2010.05.17/outbox.cif.g08.bks.cpg/sg67_10_cif.got.tgz:18632.got - 2010.06.03 18:28:57.
