data_PCOD9502238
_publ_section_title
;
Structure prediction by ZEFSAII (Michael W. Deem and Ramdas Pophale) SiO2 
 PCOD9502238
Probable space group: C M M A
;
_chemical_formula_sum "Si O2"
_cell_formula_units_Z 116
_cell_length_a 7.737251
_cell_length_b 32.362359
_cell_length_c 22.175703
_cell_angle_alpha 90.000000
_cell_angle_beta 90.000000
_cell_angle_gamma 90.000000
_cell_volume 5552.700554
_symmetry_space_group_name_H-M "C M M A"
_symmetry_group_IT_number 67
_symmetry_cell_setting 'orthorhombic'
loop_
_space_group_symop_operation_xyz
x,y,z
-x,1/2-y,z
x,-y,-z
-x,1/2+y,-z
-x,-y,-z
x,1/2+y,-z
-x,y,z
x,1/2-y,z
1/2+x,1/2+y,z
1/2-x,-y,z
1/2+x,1/2-y,-z
1/2-x,y,-z
1/2-x,1/2-y,-z
1/2+x,y,-z
1/2-x,1/2+y,z
1/2+x,-y,z
loop_
_atom_site_type_symbol
_atom_site_label
_atom_site_fract_x
_atom_site_fract_y
_atom_site_fract_z
Si Si1 0.205878 0.361521 0.833450
Si Si2 0.791516 0.046529 0.808191
Si Si3 0.293875 0.296752 0.730670
Si Si4 0.293066 0.398964 0.436134
Si Si5 0.000000 0.250000 0.546435
Si Si6 0.706539 0.045152 0.328920
Si Si7 0.696362 0.308264 0.587591
Si Si8 0.208166 0.296306 0.930118
O O1 0.270609 0.409115 0.834496
O O2 0.230035 0.334690 0.772003
O O3 0.276491 0.331856 0.886202
O O4 0.000000 0.364859 0.842008
O O5 0.725303 0.047978 0.739070
O O6 0.000000 0.048177 0.808253
O O7 0.750000 0.000000 0.832182
O O8 0.500000 0.295631 0.738653
O O9 0.226920 0.250000 0.745965
O O10 0.263051 0.304262 0.659497
O O11 0.500000 0.394198 0.431832
O O12 0.250000 0.419564 0.500000
O O13 0.228815 0.422730 0.377306
O O14 0.203779 0.354974 0.433157
O O15 0.152065 0.215119 0.554351
O O16 0.500000 0.049936 0.324584
O O17 0.750000 0.000000 0.352095
O O18 0.500000 0.292690 0.577995
O O19 0.272206 0.250000 0.914379
O O20 0.000000 0.295438 0.924154
O O21 0.250000 0.303900 0.000000
#
# Coordination Sequence:
#
# PCOD9502238 Si02
#       8
#    16  16  16  16   4  16  16  16
#     4  10  20  32  53  81 108 143 189 229 276 336
#     4   9  18  34  54  80 109 139 174 222 274 336
#     4  10  21  34  51  80 116 144 178 225 275 331
#     4  11  23  40  60  82 110 147 187 235 288 342
#     4  12  22  40  66  82 110 154 190 232 298 336
#     4   9  19  35  57  83 112 144 182 222 281 346
#     4  11  23  40  61  85 114 148 191 234 287 351
#     4   9  18  33  51  75 107 147 189 232 277 327
#
# _framework density 20.890736
#
# number of rings (size 3 to 8) (size 9 to 14) (size 15 to 20)
#    0.000    2.069    1.379    1.862    0.966    4.414 
#    0.000    5.862    0.000    0.414    0.000    2.897 
#    0.000    0.000    0.000    0.000    0.000    0.000 
#
# Total GULP energy -323214.491630 kJ/mol
# GULP energy per Si atom -5572.663649 kJ/mol
# Density = 2.084319 g / cm^3
# Si number density = 20.890736 Si / 1000 Ang^3
#
#
#
# Elastic Constant Matrix: (Units=GPa)
#
#
# Indices 1 2 3 4 5 6 
#
# 1 65.9153 25.3652 16.9632 0.0000 0.0000 0.0000
# 2 25.3652 165.6801 65.6179 0.0000 0.0000 0.0000
# 3 16.9632 65.6179 72.2511 0.0000 0.0000 0.0000
# 4 0.0000 0.0000 0.0000 70.1932 0.0000 0.0000
# 5 0.0000 0.0000 0.0000 0.0000 18.6994 0.0000
# 6 0.0000 0.0000 0.0000 0.0000 0.0000 23.0713
#
#
#
# Elastic Compliance Matrix: (Units=1/GPa)
#
#
# Indices 1 2 3 4 5 6 
#
# 1 0.016394 -0.001539 -0.002451 0.000000 0.000000 0.000000
# 2 -0.001539 0.009571 -0.008331 0.000000 0.000000 0.000000
# 3 -0.002451 -0.008331 0.021982 0.000000 0.000000 0.000000
# 4 0.000000 0.000000 0.000000 0.014246 0.000000 0.000000
# 5 0.000000 0.000000 0.000000 0.000000 0.053478 0.000000
# 6 0.000000 0.000000 0.000000 0.000000 0.000000 0.043344
#
#
# Mechanical properties :
#
#
# Convention : Reuss Voigt Hill
#
# Bulk Modulus (GPa) = 42.90971 57.74879 50.32925
# Shear Modulus (GPa) = 26.11986 35.45280 30.78633
#
# Velocity S-wave (km/s) = 3.53981 4.12401 3.84302
# Velocity P-wave (km/s) = 6.10669 7.09787 6.62086
#
# Compressibility (1/GPa) = 0.02330475
#
# Stress axis : x y z
#
# Youngs Moduli (GPa) = 60.99771 104.48487 45.49163
#
# Poissons Ratio (x) = 0.16081 0.11151
# Poissons Ratio (y) = 0.09388 0.37898
# Poissons Ratio (z) = 0.14952 0.87044
#
# Static dielectric constant tensor:
#      x y z
#    x 1.767960 0.000000 0.000000 
#    y 0.000000 1.778840 0.000000 
#    z 0.000000 0.000000 1.765960 
# 
# From -- ./inp_files/41215.got.cif
#   From: 2010.05.17/outbox.cif.g08.bks.cpg/sg67_21_cif.got.tgz:41215.got - 2010.06.03 18:28:57.
