data_PCOD9502753
_publ_section_title
;
Structure prediction by ZEFSAII (Michael W. Deem and Ramdas Pophale) SiO2 
 PCOD9502753
Probable space group: C M M A
;
_chemical_formula_sum "Si O2"
_cell_formula_units_Z 96
_cell_length_a 18.090145
_cell_length_b 19.641727
_cell_length_c 14.037176
_cell_angle_alpha 90.000000
_cell_angle_beta 90.000000
_cell_angle_gamma 90.000000
_cell_volume 4987.713092
_symmetry_space_group_name_H-M "C M M A"
_symmetry_group_IT_number 67
_symmetry_cell_setting 'orthorhombic'
loop_
_space_group_symop_operation_xyz
x,y,z
-x,1/2-y,z
x,-y,-z
-x,1/2+y,-z
-x,-y,-z
x,1/2+y,-z
-x,y,z
x,1/2-y,z
1/2+x,1/2+y,z
1/2-x,-y,z
1/2+x,1/2-y,-z
1/2-x,y,-z
1/2-x,1/2-y,-z
1/2+x,y,-z
1/2-x,1/2+y,z
1/2+x,-y,z
loop_
_atom_site_type_symbol
_atom_site_label
_atom_site_fract_x
_atom_site_fract_y
_atom_site_fract_z
Si Si1 0.308141 0.669477 0.802378
Si Si2 0.915204 0.830566 0.377013
Si Si3 0.335263 0.078307 0.527991
Si Si4 0.193172 0.940260 0.739059
Si Si5 0.584424 0.171425 0.021513
Si Si6 0.914182 0.040118 0.094902
O O1 0.288445 0.750000 0.802616
O O2 0.361879 0.656584 0.712531
O O3 0.239044 0.619850 0.789716
O O4 0.355721 0.655926 0.897362
O O5 0.910967 0.750000 0.397810
O O6 0.887110 0.873486 0.466268
O O7 0.000000 0.847012 0.353088
O O8 0.250000 0.093685 0.500000
O O9 0.342749 0.085753 0.641406
O O10 0.349575 0.000000 0.500000
O O11 0.135493 0.971368 0.813589
O O12 0.250000 0.000000 0.710601
O O13 0.500000 0.164056 0.059963
O O14 0.593620 0.250000 0.992902
O O15 0.590603 0.119177 0.935199
O O16 0.000000 0.022137 0.111829
O O17 0.889693 0.000000 0.000000
#
# Coordination Sequence:
#
# PCOD9502753 Si02
#       6
#    16  16  16  16  16  16
#     4  10  20  34  57  88 116 150 192 240 292 346
#     4  10  21  37  59  89 120 153 197 245 294 353
#     4  11  21  40  60  82 116 156 195 238 295 353
#     4  12  23  38  61  85 115 150 193 240 289 349
#     4   9  18  35  57  80 113 153 189 231 284 341
#     4  10  23  41  59  82 115 154 194 237 291 347
#
# _framework density 19.247298000000001
#
# number of rings (size 3 to 8) (size 9 to 14) (size 15 to 20)
#    0.000    1.667    3.333    1.500    0.000    7.000 
#    0.000    5.833    0.000    2.000    0.000    0.000 
#    0.000    0.000    0.000    0.000    0.000    0.000 
#
# Total GULP energy -268196.721947 kJ/mol
# GULP energy per Si atom -5587.431707 kJ/mol
# Density = 1.920349 g / cm^3
# Si number density = 19.247298 Si / 1000 Ang^3
#
#
#
# Elastic Constant Matrix: (Units=GPa)
#
#
# Indices 1 2 3 4 5 6 
#
# 1 45.3293 12.4500 13.4444 0.0000 0.0000 0.0000
# 2 12.4500 27.9300 -8.2476 0.0000 0.0000 0.0000
# 3 13.4444 -8.2476 49.6195 0.0000 0.0000 0.0000
# 4 0.0000 0.0000 0.0000 26.2221 0.0000 0.0000
# 5 0.0000 0.0000 0.0000 0.0000 25.9504 0.0000
# 6 0.0000 0.0000 0.0000 0.0000 0.0000 17.3082
#
#
#
# Elastic Compliance Matrix: (Units=1/GPa)
#
#
# Indices 1 2 3 4 5 6 
#
# 1 0.029791 -0.016472 -0.010810 0.000000 0.000000 0.000000
# 2 -0.016472 0.046759 0.012235 0.000000 0.000000 0.000000
# 3 -0.010810 0.012235 0.025116 0.000000 0.000000 0.000000
# 4 0.000000 0.000000 0.000000 0.038136 0.000000 0.000000
# 5 0.000000 0.000000 0.000000 0.000000 0.038535 0.000000
# 6 0.000000 0.000000 0.000000 0.000000 0.000000 0.057776
#
#
# Mechanical properties :
#
#
# Convention : Reuss Voigt Hill
#
# Bulk Modulus (GPa) = 13.97163 17.57473 15.77318
# Shear Modulus (GPa) = 17.23764 20.91160 19.07462
#
# Velocity S-wave (km/s) = 2.99588 3.29974 3.15148
# Velocity P-wave (km/s) = 4.38655 4.86503 4.63198
#
# Compressibility (1/GPa) = 0.07157362
#
# Stress axis : x y z
#
# Youngs Moduli (GPa) = 33.56734 21.38622 39.81539
#
# Poissons Ratio (x) = 0.35226 0.43039
# Poissons Ratio (y) = 0.55291 -0.48715
# Poissons Ratio (z) = 0.36285 -0.26166
#
# Static dielectric constant tensor:
#      x y z
#    x 1.671620 0.000000 0.000000 
#    y 0.000000 1.678710 0.000000 
#    z 0.000000 0.000000 1.637340 
# 
# From -- ./inp_files/27161.got.cif
#   From: 2010.05.17/outbox.cif.g08.bks.cpg/sg67_14_cif.got.tgz:27161.got - 2010.06.03 18:28:57.
