data_PCOD9502693
_publ_section_title
;
Structure prediction by ZEFSAII (Michael W. Deem and Ramdas Pophale) SiO2 
 PCOD9502693
Probable space group: C M M A
;
_chemical_formula_sum "Si O2"
_cell_formula_units_Z 88
_cell_length_a 25.284776
_cell_length_b 8.817782
_cell_length_c 22.363348
_cell_angle_alpha 90.000000
_cell_angle_beta 90.000000
_cell_angle_gamma 90.000000
_cell_volume 4986.034626
_symmetry_space_group_name_H-M "C M M A"
_symmetry_group_IT_number 67
_symmetry_cell_setting 'orthorhombic'
loop_
_space_group_symop_operation_xyz
x,y,z
-x,1/2-y,z
x,-y,-z
-x,1/2+y,-z
-x,-y,-z
x,1/2+y,-z
-x,y,z
x,1/2-y,z
1/2+x,1/2+y,z
1/2-x,-y,z
1/2+x,1/2-y,-z
1/2-x,y,-z
1/2-x,1/2-y,-z
1/2+x,y,-z
1/2-x,1/2+y,z
1/2+x,-y,z
loop_
_atom_site_type_symbol
_atom_site_label
_atom_site_fract_x
_atom_site_fract_y
_atom_site_fract_z
Si Si1 0.307118 0.068742 0.799834
Si Si2 0.693058 0.068959 0.658901
Si Si3 0.500000 0.431587 0.065544
Si Si4 0.500000 0.068637 0.745913
Si Si5 0.000000 0.068027 0.614075
Si Si6 0.886298 0.931165 0.436372
Si Si7 0.584554 0.567618 0.835373
O O1 0.306343 0.250000 0.807191
O O2 0.315953 0.035084 0.729123
O O3 0.250000 0.000000 0.816103
O O4 0.356332 0.995959 0.834305
O O5 0.693724 0.250000 0.651876
O O6 0.750000 0.000000 0.642920
O O7 0.649099 0.996875 0.616842
O O8 0.500000 0.250000 0.060814
O O9 0.551172 0.474261 0.105363
O O10 0.500000 0.500000 0.000000
O O11 0.500000 0.250000 0.749511
O O12 0.500000 0.014287 0.677795
O O13 0.448983 0.002378 0.780524
O O14 0.052861 0.029103 0.578006
O O15 0.000000 0.250000 0.624525
O O16 0.881281 0.750000 0.438075
O O17 0.870474 0.000000 0.500000
O O18 0.584615 0.750000 0.829824
#
# Coordination Sequence:
#
# PCOD9502693 Si02
#       7
#    16  16   8   8   8  16  16
#     4  10  20  34  55  83 112 144 178 217 266 318
#     4  10  21  37  56  79 105 133 170 214 262 315
#     4   9  20  36  56  82 112 149 187 225 267 306
#     4  11  21  32  52  81 108 137 174 218 267 320
#     4  10  22  38  55  75 102 136 169 209 266 324
#     4  11  23  38  55  74  98 131 171 214 263 318
#     4  10  20  35  54  80 114 147 181 221 265 314
#
# _framework density 17.649297000000001
#
# number of rings (size 3 to 8) (size 9 to 14) (size 15 to 20)
#    0.000    1.818    0.000    4.909    0.000    9.091 
#    0.000    1.818    0.000    0.545    0.000    3.818 
#    0.000    0.000    0.000    0.000    0.000    0.000 
#
# Total GULP energy -245836.499679 kJ/mol
# GULP energy per Si atom -5587.193175 kJ/mol
# Density = 1.760913 g / cm^3
# Si number density = 17.649297 Si / 1000 Ang^3
#
#
#
# Elastic Constant Matrix: (Units=GPa)
#
#
# Indices 1 2 3 4 5 6 
#
# 1 148.9663 49.3289 48.4237 0.0000 0.0000 0.0000
# 2 49.3289 54.4509 36.2068 0.0000 0.0000 0.0000
# 3 48.4237 36.2068 75.0316 0.0000 0.0000 0.0000
# 4 0.0000 0.0000 0.0000 28.7316 0.0000 0.0000
# 5 0.0000 0.0000 0.0000 0.0000 13.0078 0.0000
# 6 0.0000 0.0000 0.0000 0.0000 0.0000 31.6282
#
#
#
# Elastic Compliance Matrix: (Units=1/GPa)
#
#
# Indices 1 2 3 4 5 6 
#
# 1 0.010051 -0.007057 -0.003082 0.000000 0.000000 0.000000
# 2 -0.007057 0.031997 -0.010886 0.000000 0.000000 0.000000
# 3 -0.003082 -0.010886 0.020570 0.000000 0.000000 0.000000
# 4 0.000000 0.000000 0.000000 0.034805 0.000000 0.000000
# 5 0.000000 0.000000 0.000000 0.000000 0.076877 0.000000
# 6 0.000000 0.000000 0.000000 0.000000 0.000000 0.031617
#
#
# Mechanical properties :
#
#
# Convention : Reuss Voigt Hill
#
# Bulk Modulus (GPa) = 48.61675 60.70751 54.66213
# Shear Modulus (GPa) = 19.62157 24.30614 21.96386
#
# Velocity S-wave (km/s) = 3.33791 3.71505 3.53152
# Velocity P-wave (km/s) = 6.51623 7.27141 6.90415
#
# Compressibility (1/GPa) = 0.02056904
#
# Stress axis : x y z
#
# Youngs Moduli (GPa) = 99.48776 31.25331 48.61553
#
# Poissons Ratio (x) = 0.22055 0.14982
# Poissons Ratio (y) = 0.70207 0.52922
# Poissons Ratio (z) = 0.30659 0.34022
#
# Static dielectric constant tensor:
#      x y z
#    x 1.597960 0.000000 0.000000 
#    y 0.000000 1.585880 0.000000 
#    z 0.000000 0.000000 1.568890 
# 
# From -- ./inp_files/37004.got.cif
#   From: 2010.05.17/outbox.cif.g08.bks.cpg/sg67_19_cif.got.tgz:37004.got - 2010.06.03 18:28:57.
