data_PCOD9502067
_publ_section_title
;
Structure prediction by ZEFSAII (Michael W. Deem and Ramdas Pophale) SiO2 
 PCOD9502067
Probable space group: C M M A
;
_chemical_formula_sum "Si O2"
_cell_formula_units_Z 72
_cell_length_a 15.000254
_cell_length_b 24.087639
_cell_length_c 11.107410
_cell_angle_alpha 90.000000
_cell_angle_beta 90.000000
_cell_angle_gamma 90.000000
_cell_volume 4013.337193
_symmetry_space_group_name_H-M "C M M A"
_symmetry_group_IT_number 67
_symmetry_cell_setting 'orthorhombic'
loop_
_space_group_symop_operation_xyz
x,y,z
-x,1/2-y,z
x,-y,-z
-x,1/2+y,-z
-x,-y,-z
x,1/2+y,-z
-x,y,z
x,1/2-y,z
1/2+x,1/2+y,z
1/2-x,-y,z
1/2+x,1/2-y,-z
1/2-x,y,-z
1/2-x,1/2-y,-z
1/2+x,y,-z
1/2-x,1/2+y,z
1/2+x,-y,z
loop_
_atom_site_type_symbol
_atom_site_label
_atom_site_fract_x
_atom_site_fract_y
_atom_site_fract_z
Si Si1 0.500000 0.567195 0.508256
Si Si2 0.818959 0.814838 0.098634
Si Si3 0.145196 0.999615 0.143705
Si Si4 0.402701 0.111637 0.277074
Si Si5 0.000000 0.585673 0.767627
Si Si6 0.500000 0.312698 0.947140
O O1 0.500000 0.500000 0.500000
O O2 0.585121 0.588737 0.586895
O O3 0.500000 0.591752 0.375648
O O4 0.797286 0.750000 0.119763
O O5 0.828176 0.847683 0.224018
O O6 0.750000 0.838393 0.000000
O O7 0.913125 0.818676 0.030266
O O8 0.087113 0.049830 0.195970
O O9 0.250000 0.000000 0.175364
O O10 0.104940 0.943119 0.196037
O O11 0.137124 0.000000 0.000000
O O12 0.500000 0.139101 0.258099
O O13 0.000000 0.641905 0.843083
O O14 0.500000 0.250000 0.897622
#
# Coordination Sequence:
#
# PCOD9502067 Si02
#       6
#     8  16  16  16   8   8
#     4  10  19  40  56  76 113 160 206 240 287 344
#     4  10  21  37  60  89 120 150 190 248 309 361
#     4  11  23  33  54  88 117 148 191 247 308 368
#     4  10  20  36  57  78 113 151 194 242 287 355
#     4  12  21  40  59  75 119 167 192 246 304 349
#     4  10  21  36  56  85 114 148 191 239 301 358
#
# _framework density 17.940182
#
# number of rings (size 3 to 8) (size 9 to 14) (size 15 to 20)
#    0.667    0.889    4.444    1.667    6.222    0.000 
#    0.000    3.333    0.000    0.000    0.000    4.667 
#    0.000    0.000    0.000    0.000    0.000    0.000 
#
# Total GULP energy -200554.520811 kJ/mol
# GULP energy per Si atom -5570.958911 kJ/mol
# Density = 1.789935 g / cm^3
# Si number density = 17.940182 Si / 1000 Ang^3
#
#
#
# Elastic Constant Matrix: (Units=GPa)
#
#
# Indices 1 2 3 4 5 6 
#
# 1 78.7241 3.7299 24.9008 0.0000 0.0000 0.0000
# 2 3.7299 78.0182 43.8823 0.0000 0.0000 0.0000
# 3 24.9008 43.8823 104.4422 0.0000 0.0000 0.0000
# 4 0.0000 0.0000 0.0000 -1.2905 0.0000 0.0000
# 5 0.0000 0.0000 0.0000 0.0000 20.4139 0.0000
# 6 0.0000 0.0000 0.0000 0.0000 0.0000 68.2530
#
#
#
# Elastic Compliance Matrix: (Units=1/GPa)
#
#
# Indices 1 2 3 4 5 6 
#
# 1 0.013884 0.001569 -0.003969 0.000000 0.000000 0.000000
# 2 0.001569 0.016961 -0.007500 0.000000 0.000000 0.000000
# 3 -0.003969 -0.007500 0.013672 0.000000 0.000000 0.000000
# 4 0.000000 0.000000 0.000000 -0.774865 0.000000 0.000000
# 5 0.000000 0.000000 0.000000 0.000000 0.048986 0.000000
# 6 0.000000 0.000000 0.000000 0.000000 0.000000 0.014651
#
#
# Mechanical properties :
#
#
# Convention : Reuss Voigt Hill
#
# Bulk Modulus (GPa) = 40.46032 45.13451 42.79741
# Shear Modulus (GPa) = -7.82877 30.05338 11.11230
#
# Velocity S-wave (km/s) = -2.09124 4.09736 2.49149
# Velocity P-wave (km/s) = 4.09522 6.89909 5.67310
#
# Compressibility (1/GPa) = 0.02471557
#
# Stress axis : x y z
#
# Youngs Moduli (GPa) = 72.02661 58.95799 73.14011
#
# Poissons Ratio (x) = -0.09249 0.29031
# Poissons Ratio (y) = -0.11300 0.54858
# Poissons Ratio (z) = 0.28589 0.44221
#
# Static dielectric constant tensor:
#      x y z
#    x 1.666830 0.000000 0.000000 
#    y 0.000000 1.632190 0.000000 
#    z 0.000000 0.000000 1.606710 
# 
# From -- ./inp_files/17863.got.cif
#   From: 2010.05.17/outbox.cif.g08.bks.cpg/sg67_9_cif.got.tgz:17863.got - 2010.06.03 18:28:57.
