data_PCOD9502199
_publ_section_title
;
Structure prediction by ZEFSAII (Michael W. Deem and Ramdas Pophale) SiO2 
 PCOD9502199
Probable space group: C M M A
;
_chemical_formula_sum "Si O2"
_cell_formula_units_Z 104
_cell_length_a 27.772067
_cell_length_b 8.709203
_cell_length_c 24.570995
_cell_angle_alpha 90.000000
_cell_angle_beta 90.000000
_cell_angle_gamma 90.000000
_cell_volume 5943.049689
_symmetry_space_group_name_H-M "C M M A"
_symmetry_group_IT_number 67
_symmetry_cell_setting 'orthorhombic'
loop_
_space_group_symop_operation_xyz
x,y,z
-x,1/2-y,z
x,-y,-z
-x,1/2+y,-z
-x,-y,-z
x,1/2+y,-z
-x,y,z
x,1/2-y,z
1/2+x,1/2+y,z
1/2-x,-y,z
1/2+x,1/2-y,-z
1/2-x,y,-z
1/2-x,1/2-y,-z
1/2+x,y,-z
1/2-x,1/2+y,z
1/2+x,-y,z
loop_
_atom_site_type_symbol
_atom_site_label
_atom_site_fract_x
_atom_site_fract_y
_atom_site_fract_z
Si Si1 0.054609 0.933331 0.724518
Si Si2 0.648024 0.067954 0.330251
Si Si3 0.106585 0.064165 0.560629
Si Si4 0.698591 0.933355 0.228638
Si Si5 0.603826 0.932692 0.163340
Si Si6 0.944374 0.066823 0.941815
Si Si7 0.000000 0.935153 0.438998
O O1 0.061642 0.750000 0.714396
O O2 0.064761 0.957512 0.788709
O O3 0.000000 0.974801 0.710185
O O4 0.095392 0.028452 0.694033
O O5 0.656205 0.250000 0.328256
O O6 0.644782 0.017588 0.393269
O O7 0.684848 0.986445 0.289663
O O8 0.106672 0.250000 0.557644
O O9 0.052766 0.015286 0.581241
O O10 0.114223 0.000000 0.500000
O O11 0.699741 0.750000 0.227613
O O12 0.654836 0.984122 0.189191
O O13 0.750000 0.000000 0.212744
O O14 0.606677 0.750000 0.154036
O O15 0.587930 0.012448 0.108214
O O16 0.944043 0.250000 0.944801
O O17 0.000000 0.015367 0.932733
O O18 0.928781 0.000000 0.000000
O O19 0.000000 0.750000 0.438293
O O20 0.000000 0.000000 0.500000
#
# Coordination Sequence:
#
# PCOD9502199 Si02
#       7
#    16  16  16  16  16  16   8
#     4   9  18  31  46  68 100 137 172 208 253 302
#     4  10  20  32  49  74 101 130 165 207 255 307
#     4   9  18  30  46  66  94 130 168 207 247 295
#     4  10  21  38  59  80 102 129 164 209 262 316
#     4   9  18  33  52  74 102 134 169 210 255 302
#     4  10  20  32  49  76 110 148 186 217 247 287
#     4   8  14  26  40  58  86 122 164 200 231 272
#
# _framework density 17.499433
#
# number of rings (size 3 to 8) (size 9 to 14) (size 15 to 20)
#    0.000    2.615    0.000    2.769    1.077    6.154 
#    0.000    0.000    0.000    0.923    0.000    6.462 
#    0.000    0.000    0.000    0.000    0.000    0.000 
#
# Total GULP energy -289831.345478 kJ/mol
# GULP energy per Si atom -5573.679721 kJ/mol
# Density = 1.745960 g / cm^3
# Si number density = 17.499433 Si / 1000 Ang^3
#
#
#
# Elastic Constant Matrix: (Units=GPa)
#
#
# Indices 1 2 3 4 5 6 
#
# 1 58.7313 12.3960 23.5367 0.0000 0.0000 0.0000
# 2 12.3960 19.9968 22.7565 0.0000 0.0000 0.0000
# 3 23.5367 22.7565 105.7283 0.0000 0.0000 0.0000
# 4 0.0000 0.0000 0.0000 26.7262 0.0000 0.0000
# 5 0.0000 0.0000 0.0000 0.0000 16.9514 0.0000
# 6 0.0000 0.0000 0.0000 0.0000 0.0000 25.2601
#
#
#
# Elastic Compliance Matrix: (Units=1/GPa)
#
#
# Indices 1 2 3 4 5 6 
#
# 1 0.020027 -0.009722 -0.002366 0.000000 0.000000 0.000000
# 2 -0.009722 0.070951 -0.013107 0.000000 0.000000 0.000000
# 3 -0.002366 -0.013107 0.012806 0.000000 0.000000 0.000000
# 4 0.000000 0.000000 0.000000 0.037417 0.000000 0.000000
# 5 0.000000 0.000000 0.000000 0.000000 0.058992 0.000000
# 6 0.000000 0.000000 0.000000 0.000000 0.000000 0.039588
#
#
# Mechanical properties :
#
#
# Convention : Reuss Voigt Hill
#
# Bulk Modulus (GPa) = 18.72886 33.53720 26.13303
# Shear Modulus (GPa) = 16.23548 22.17202 19.20375
#
# Velocity S-wave (km/s) = 3.04924 3.56337 3.31629
# Velocity P-wave (km/s) = 4.80863 6.01137 5.44332
#
# Compressibility (1/GPa) = 0.05339353
#
# Stress axis : x y z
#
# Youngs Moduli (GPa) = 49.93317 14.09432 78.08918
#
# Poissons Ratio (x) = 0.13703 0.18473
# Poissons Ratio (y) = 0.48547 1.02350
# Poissons Ratio (z) = 0.11812 0.18473
#
# Static dielectric constant tensor:
#      x y z
#    x 1.604220 0.000000 0.000000 
#    y 0.000000 1.588230 0.000000 
#    z 0.000000 0.000000 1.593930 
# 
# From -- ./inp_files/42935.got.cif
#   From: 2010.05.17/outbox.cif.g08.bks.cpg/sg67_22_cif.got.tgz:42935.got - 2010.06.03 18:28:57.
