data_PCOD9502347
_publ_section_title
;
Structure prediction by ZEFSAII (Michael W. Deem and Ramdas Pophale) SiO2 
 PCOD9502347
Probable space group: C M M A
;
_chemical_formula_sum "Si O2"
_cell_formula_units_Z 116
_cell_length_a 26.386824
_cell_length_b 9.375157
_cell_length_c 26.575157
_cell_angle_alpha 90.000000
_cell_angle_beta 90.000000
_cell_angle_gamma 90.000000
_cell_volume 6574.178755
_symmetry_space_group_name_H-M "C M M A"
_symmetry_group_IT_number 67
_symmetry_cell_setting 'orthorhombic'
loop_
_space_group_symop_operation_xyz
x,y,z
-x,1/2-y,z
x,-y,-z
-x,1/2+y,-z
-x,-y,-z
x,1/2+y,-z
-x,y,z
x,1/2-y,z
1/2+x,1/2+y,z
1/2-x,-y,z
1/2+x,1/2-y,-z
1/2-x,y,-z
1/2-x,1/2-y,-z
1/2+x,y,-z
1/2-x,1/2+y,z
1/2+x,-y,z
loop_
_atom_site_type_symbol
_atom_site_label
_atom_site_fract_x
_atom_site_fract_y
_atom_site_fract_z
Si Si1 0.345230 0.580773 0.703536
Si Si2 0.750000 0.000000 0.000000
Si Si3 0.056610 0.078456 0.053341
Si Si4 0.297603 0.083458 0.612182
Si Si5 0.339247 0.082523 0.079711
Si Si6 0.902202 0.083531 0.448075
Si Si7 0.055810 0.915078 0.357230
Si Si8 0.698433 0.080494 0.191573
O O1 0.334086 0.750000 0.696882
O O2 0.310810 0.489604 0.665647
O O3 0.401727 0.553995 0.683840
O O4 0.338391 0.545742 0.761971
O O5 0.792324 0.064858 0.960375
O O6 0.062167 0.250000 0.048771
O O7 0.000000 0.053989 0.077995
O O8 0.109872 0.012123 0.072786
O O9 0.052646 0.000000 0.000000
O O10 0.286687 0.250000 0.619097
O O11 0.345968 0.069250 0.575850
O O12 0.250000 0.000000 0.590271
O O13 0.353632 0.250000 0.077740
O O14 0.319703 0.045490 0.135529
O O15 0.913161 0.250000 0.455228
O O16 0.906155 0.000000 0.500000
O O17 0.937183 0.014017 0.405465
O O18 0.062852 0.750000 0.373371
O O19 0.000000 0.930639 0.335825
O O20 0.706886 0.250000 0.192318
O O21 0.750000 0.000000 0.202277
#
# Coordination Sequence:
#
# PCOD9502347 Si02
#       8
#    16   4  16  16  16  16  16  16
#     4   9  18  34  55  77 105 136 173 220 268 321
#     4  12  22  36  58  82 118 156 194 234 280 340
#     4  10  21  37  58  82 108 141 183 228 273 324
#     4  10  20  33  51  75 102 135 176 216 262 315
#     4  11  23  37  56  84 117 152 193 235 282 336
#     4  10  21  35  51  74 105 139 175 217 263 314
#     4   9  18  34  56  79 102 134 176 219 267 321
#     4  10  21  36  53  80 113 145 181 223 272 325
#
# _framework density 17.64479
#
# number of rings (size 3 to 8) (size 9 to 14) (size 15 to 20)
#    0.000    2.069    1.379    1.862    0.000    6.069 
#    0.000    2.069    0.000    2.483    0.000    0.000 
#    0.000    0.000    0.000    0.000    0.000    0.000 
#
# Total GULP energy -322957.194682 kJ/mol
# GULP energy per Si atom -5568.227495 kJ/mol
# Density = 1.760463 g / cm^3
# Si number density = 17.644790 Si / 1000 Ang^3
#
#
#
# Elastic Constant Matrix: (Units=GPa)
#
#
# Indices 1 2 3 4 5 6 
#
# 1 113.3667 55.1066 40.2451 0.0000 0.0000 0.0000
# 2 55.1066 64.0006 42.1824 0.0000 0.0000 0.0000
# 3 40.2451 42.1824 112.9188 0.0000 0.0000 0.0000
# 4 0.0000 0.0000 0.0000 20.5355 0.0000 0.0000
# 5 0.0000 0.0000 0.0000 0.0000 -2.2427 0.0000
# 6 0.0000 0.0000 0.0000 0.0000 0.0000 20.1401
#
#
#
# Elastic Compliance Matrix: (Units=1/GPa)
#
#
# Indices 1 2 3 4 5 6 
#
# 1 0.015212 -0.012636 -0.000701 0.000000 0.000000 0.000000
# 2 -0.012636 0.031224 -0.007161 0.000000 0.000000 0.000000
# 3 -0.000701 -0.007161 0.011781 0.000000 0.000000 0.000000
# 4 0.000000 0.000000 0.000000 0.048696 0.000000 0.000000
# 5 0.000000 0.000000 0.000000 0.000000 -0.445883 0.000000
# 6 0.000000 0.000000 0.000000 0.000000 0.000000 0.049652
#
#
# Mechanical properties :
#
#
# Convention : Reuss Voigt Hill
#
# Bulk Modulus (GPa) = 58.06760 62.81716 60.44238
# Shear Modulus (GPa) = -20.61166 17.87003 -1.37081
#
# Velocity S-wave (km/s) = -3.42152 3.18585 -0.88237
# Velocity P-wave (km/s) = 4.16792 7.01506 5.76986
#
# Compressibility (1/GPa) = 0.01722131
#
# Stress axis : x y z
#
# Youngs Moduli (GPa) = 65.73719 32.02634 84.88297
#
# Poissons Ratio (x) = 0.40468 0.05954
# Poissons Ratio (y) = 0.83064 0.60783
# Poissons Ratio (z) = 0.04611 0.22933
#
# Static dielectric constant tensor:
#      x y z
#    x 1.644440 0.000000 0.000000 
#    y 0.000000 1.598070 0.000000 
#    z 0.000000 0.000000 1.579180 
# 
# From -- ./inp_files/45012.got.cif
#   From: 2010.05.17/outbox.cif.g08.bks.cpg/sg67_23_cif.got.tgz:45012.got - 2010.06.03 18:28:57.
