data_PCOD9502496
_publ_section_title
;
Structure prediction by ZEFSAII (Michael W. Deem and Ramdas Pophale) SiO2 
 PCOD9502496
Probable space group: C M M A
;
_chemical_formula_sum "Si O2"
_cell_formula_units_Z 116
_cell_length_a 8.043136
_cell_length_b 28.624884
_cell_length_c 23.548305
_cell_angle_alpha 90.000000
_cell_angle_beta 90.000000
_cell_angle_gamma 90.000000
_cell_volume 5421.616568
_symmetry_space_group_name_H-M "C M M A"
_symmetry_group_IT_number 67
_symmetry_cell_setting 'orthorhombic'
loop_
_space_group_symop_operation_xyz
x,y,z
-x,1/2-y,z
x,-y,-z
-x,1/2+y,-z
-x,-y,-z
x,1/2+y,-z
-x,y,z
x,1/2-y,z
1/2+x,1/2+y,z
1/2-x,-y,z
1/2+x,1/2-y,-z
1/2-x,y,-z
1/2-x,1/2-y,-z
1/2+x,y,-z
1/2-x,1/2+y,z
1/2+x,-y,z
loop_
_atom_site_type_symbol
_atom_site_label
_atom_site_fract_x
_atom_site_fract_y
_atom_site_fract_z
Si Si1 0.197179 0.052822 0.344534
Si Si2 0.500000 0.750000 0.299513
Si Si3 0.696574 0.880196 0.564580
Si Si4 0.795955 0.697431 0.825009
Si Si5 0.698028 0.856919 0.063410
Si Si6 0.694078 0.800789 0.652394
Si Si7 0.305502 0.948402 0.872777
Si Si8 0.302743 0.105619 0.764077
O O1 0.247115 0.072050 0.405815
O O2 0.268214 0.086367 0.294851
O O3 0.000000 0.054880 0.340188
O O4 0.250000 0.000000 0.334964
O O5 0.348714 0.709780 0.304870
O O6 0.500000 0.878594 0.565534
O O7 0.750000 0.874702 0.500000
O O8 0.751927 0.839307 0.607519
O O9 0.737589 0.750000 0.812554
O O10 0.754319 0.681420 0.889249
O O11 0.730907 0.654292 0.787518
O O12 0.000000 0.699207 0.820372
O O13 0.500000 0.861008 0.066357
O O14 0.768281 0.907282 0.082411
O O15 0.750000 0.844739 0.000000
O O16 0.500000 0.809433 0.671818
O O17 0.685500 0.750000 0.622180
O O18 0.500000 0.949631 0.861976
O O19 0.220707 0.932283 0.814023
O O20 0.250000 0.000000 0.890742
O O21 0.500000 0.112130 0.757860
#
# Coordination Sequence:
#
# PCOD9502496 Si02
#       8
#    16   4  16  16  16  16  16  16
#     4  11  24  41  62  86 115 148 190 236 290 350
#     4   8  14  28  58  78 114 150 194 230 280 330
#     4  11  24  40  61  86 118 153 193 239 289 349
#     4   8  15  31  57  85 116 152 191 234 283 333
#     4  10  20  34  51  77 114 155 199 243 287 340
#     4   8  17  32  52  83 114 149 191 234 279 333
#     4  11  21  34  55  81 109 146 190 241 296 350
#     4   9  19  37  60  87 115 147 187 236 286 343
#
# _framework density 21.395833
#
# number of rings (size 3 to 8) (size 9 to 14) (size 15 to 20)
#    0.414    1.931    0.000    3.724    1.931    3.310 
#    0.000    3.448    0.000   10.759    0.000    0.000 
#    0.000    0.000    0.000    0.000    0.000    0.000 
#
# Total GULP energy -323173.917944 kJ/mol
# GULP energy per Si atom -5571.964102 kJ/mol
# Density = 2.134713 g / cm^3
# Si number density = 21.395833 Si / 1000 Ang^3
#
#
#
# Elastic Constant Matrix: (Units=GPa)
#
#
# Indices 1 2 3 4 5 6 
#
# 1 44.7271 11.6086 16.4367 0.0000 0.0000 0.0000
# 2 11.6086 114.1292 40.2313 0.0000 0.0000 0.0000
# 3 16.4367 40.2313 86.6431 0.0000 0.0000 0.0000
# 4 0.0000 0.0000 0.0000 18.8060 0.0000 0.0000
# 5 0.0000 0.0000 0.0000 0.0000 23.4660 0.0000
# 6 0.0000 0.0000 0.0000 0.0000 0.0000 37.5213
#
#
#
# Elastic Compliance Matrix: (Units=1/GPa)
#
#
# Indices 1 2 3 4 5 6 
#
# 1 0.024129 -0.001005 -0.004111 0.000000 0.000000 0.000000
# 2 -0.001005 0.010519 -0.004693 0.000000 0.000000 0.000000
# 3 -0.004111 -0.004693 0.014501 0.000000 0.000000 0.000000
# 4 0.000000 0.000000 0.000000 0.053174 0.000000 0.000000
# 5 0.000000 0.000000 0.000000 0.000000 0.042615 0.000000
# 6 0.000000 0.000000 0.000000 0.000000 0.000000 0.026651
#
#
# Mechanical properties :
#
#
# Convention : Reuss Voigt Hill
#
# Bulk Modulus (GPa) = 33.86394 42.45028 38.15711
# Shear Modulus (GPa) = 24.86920 27.77353 26.32136
#
# Velocity S-wave (km/s) = 3.41301 3.60680 3.51124
# Velocity P-wave (km/s) = 5.60296 6.10154 5.85756
#
# Compressibility (1/GPa) = 0.02952994
#
# Stress axis : x y z
#
# Youngs Moduli (GPa) = 41.44334 95.06849 68.96185
#
# Poissons Ratio (x) = 0.09557 0.28348
# Poissons Ratio (y) = 0.04166 0.32367
# Poissons Ratio (z) = 0.17036 0.44620
#
# Static dielectric constant tensor:
#      x y z
#    x 1.785960 0.000000 0.000000 
#    y 0.000000 1.807510 0.000000 
#    z 0.000000 0.000000 1.668300 
# 
# From -- ./inp_files/41074.got.cif
#   From: 2010.05.17/outbox.cif.g08.bks.cpg/sg67_21_cif.got.tgz:41074.got - 2010.06.03 18:28:57.
