data_PCOD9502390
_publ_section_title
;
Structure prediction by ZEFSAII (Michael W. Deem and Ramdas Pophale) SiO2 
 PCOD9502390
Probable space group: C M M A
;
_chemical_formula_sum "Si O2"
_cell_formula_units_Z 128
_cell_length_a 16.600326
_cell_length_b 14.492403
_cell_length_c 22.832794
_cell_angle_alpha 90.000000
_cell_angle_beta 90.000000
_cell_angle_gamma 90.000000
_cell_volume 5493.081942
_symmetry_space_group_name_H-M "C M M A"
_symmetry_group_IT_number 67
_symmetry_cell_setting 'orthorhombic'
loop_
_space_group_symop_operation_xyz
x,y,z
-x,1/2-y,z
x,-y,-z
-x,1/2+y,-z
-x,-y,-z
x,1/2+y,-z
-x,y,z
x,1/2-y,z
1/2+x,1/2+y,z
1/2-x,-y,z
1/2+x,1/2-y,-z
1/2-x,y,-z
1/2-x,1/2-y,-z
1/2+x,y,-z
1/2-x,1/2+y,z
1/2+x,-y,z
loop_
_atom_site_type_symbol
_atom_site_label
_atom_site_fract_x
_atom_site_fract_y
_atom_site_fract_z
Si Si1 0.409653 0.605180 0.634868
Si Si2 0.413896 0.391060 0.624645
Si Si3 0.825597 0.637762 0.245142
Si Si4 0.909264 0.360003 0.993155
Si Si5 0.316128 0.358985 0.116662
Si Si6 0.248440 0.612398 0.431842
Si Si7 0.622949 0.358523 0.879102
Si Si8 0.860835 0.639254 0.753134
O O1 0.500000 0.644616 0.628702
O O2 0.414781 0.500179 0.612894
O O3 0.382513 0.604853 0.702850
O O4 0.333016 0.645493 0.600033
O O5 0.500000 0.353414 0.603808
O O6 0.330915 0.354170 0.598140
O O7 0.408134 0.380963 0.694519
O O8 0.827480 0.750000 0.245965
O O9 0.847061 0.605839 0.179340
O O10 0.732355 0.608727 0.255152
O O11 0.890045 0.250000 0.999592
O O12 0.850003 0.398222 0.943764
O O13 0.000000 0.368115 0.970798
O O14 0.906428 0.397973 0.059187
O O15 0.336573 0.250000 0.116047
O O16 0.219897 0.364986 0.118149
O O17 0.250000 0.500000 0.427013
O O18 0.250000 0.635932 0.500000
O O19 0.599090 0.250000 0.879000
O O20 0.602671 0.395497 0.814572
O O21 0.856523 0.750000 0.759381
#
# Coordination Sequence:
#
# PCOD9502390 Si02
#       8
#    16  16  16  16  16  16  16  16
#     4  10  20  33  52  78 104 131 164 200 242 292
#     4  10  20  33  52  78 104 131 164 200 242 292
#     4   9  17  30  49  72  98 130 167 205 247 293
#     4   9  15  21  31  51  82 117 152 193 240 286
#     4   8  14  24  38  57  83 117 156 196 238 285
#     4   9  18  34  55  77 103 132 161 200 244 283
#     4   8  14  24  38  57  83 117 156 196 238 285
#     4   9  17  30  49  72  98 130 167 205 247 293
#
# _framework density 23.302038
#
# number of rings (size 3 to 8) (size 9 to 14) (size 15 to 20)
#    0.000    3.000    1.250    1.875    0.000    3.500 
#    0.000    5.000    0.000    1.500    0.000    2.625 
#    0.000    7.000    0.000    0.000    0.000    0.000 
#
# Total GULP energy -357153.314680 kJ/mol
# GULP energy per Si atom -5580.520542 kJ/mol
# Density = 2.324900 g / cm^3
# Si number density = 23.302038 Si / 1000 Ang^3
#
#
#
# Elastic Constant Matrix: (Units=GPa)
#
#
# Indices 1 2 3 4 5 6 
#
# 1 154.7842 14.0102 95.4773 0.0000 0.0000 0.0000
# 2 14.0102 72.4733 -19.0346 0.0000 0.0000 0.0000
# 3 95.4773 -19.0346 143.1063 0.0000 0.0000 0.0000
# 4 0.0000 0.0000 0.0000 11.3050 0.0000 0.0000
# 5 0.0000 0.0000 0.0000 0.0000 -17.1186 0.0000
# 6 0.0000 0.0000 0.0000 0.0000 0.0000 -5.6044
#
#
#
# Elastic Compliance Matrix: (Units=1/GPa)
#
#
# Indices 1 2 3 4 5 6 
#
# 1 0.012363 -0.004721 -0.008877 0.000000 0.000000 0.000000
# 2 -0.004721 0.016101 0.005292 0.000000 0.000000 0.000000
# 3 -0.008877 0.005292 0.013614 0.000000 0.000000 0.000000
# 4 0.000000 0.000000 0.000000 0.088457 0.000000 0.000000
# 5 0.000000 0.000000 0.000000 0.000000 -0.058416 0.000000
# 6 0.000000 0.000000 0.000000 0.000000 0.000000 -0.178430
#
#
# Mechanical properties :
#
#
# Convention : Reuss Voigt Hill
#
# Bulk Modulus (GPa) = 39.26930 61.25218 50.26074
# Shear Modulus (GPa) = -61.56873 16.37710 -22.59581
#
# Velocity S-wave (km/s) = -5.14581 2.65395 -3.11737
# Velocity P-wave (km/s) = 4.29150 5.97784 2.94258
#
# Compressibility (1/GPa) = 0.02546518
#
# Stress axis : x y z
#
# Youngs Moduli (GPa) = 80.88387 62.10906 73.45437
#
# Poissons Ratio (x) = 0.29324 0.65202
# Poissons Ratio (y) = 0.38189 -0.38869
# Poissons Ratio (z) = 0.71797 -0.32865
#
# Static dielectric constant tensor:
#      x y z
#    x 1.857560 0.000000 0.000000 
#    y 0.000000 1.971360 0.000000 
#    z 0.000000 0.000000 1.868480 
# 
# From -- ./inp_files/39139.got.cif
#   From: 2010.05.17/outbox.cif.g08.bks.cpg/sg67_20_cif.got.tgz:39139.got - 2010.06.03 18:28:57.
