data_PCOD9502882
_publ_section_title
;
Structure prediction by ZEFSAII (Michael W. Deem and Ramdas Pophale) SiO2 
 PCOD9502882
Probable space group: C M M A
;
_chemical_formula_sum "Si O2"
_cell_formula_units_Z 80
_cell_length_a 11.629901
_cell_length_b 15.016381
_cell_length_c 19.930566
_cell_angle_alpha 90.000000
_cell_angle_beta 90.000000
_cell_angle_gamma 90.000000
_cell_volume 3480.654602
_symmetry_space_group_name_H-M "C M M A"
_symmetry_group_IT_number 67
_symmetry_cell_setting 'orthorhombic'
loop_
_space_group_symop_operation_xyz
x,y,z
-x,1/2-y,z
x,-y,-z
-x,1/2+y,-z
-x,-y,-z
x,1/2+y,-z
-x,y,z
x,1/2-y,z
1/2+x,1/2+y,z
1/2-x,-y,z
1/2+x,1/2-y,-z
1/2-x,y,-z
1/2-x,1/2-y,-z
1/2+x,y,-z
1/2-x,1/2+y,z
1/2+x,-y,z
loop_
_atom_site_type_symbol
_atom_site_label
_atom_site_fract_x
_atom_site_fract_y
_atom_site_fract_z
Si Si1 0.629821 0.858496 0.035476
Si Si2 0.000000 0.140706 0.809356
Si Si3 0.766314 0.395078 0.574718
Si Si4 0.374293 0.645052 0.297901
Si Si5 0.500000 0.644266 0.653178
Si Si6 0.249435 0.858494 0.168145
O O1 0.500000 0.888081 0.015654
O O2 0.627766 0.750000 0.028896
O O3 0.656756 0.882496 0.112781
O O4 0.750000 0.887119 0.000000
O O5 0.118593 0.111629 0.843876
O O6 0.000000 0.250000 0.810441
O O7 0.000000 0.112674 0.730665
O O8 0.750000 0.500000 0.569830
O O9 0.750000 0.357242 0.500000
O O10 0.672598 0.362255 0.627516
O O11 0.888334 0.379585 0.610016
O O12 0.500000 0.604028 0.291952
O O13 0.382979 0.750000 0.283294
O O14 0.288038 0.610034 0.241595
O O15 0.500000 0.750000 0.660051
O O16 0.244774 0.750000 0.167167
#
# Coordination Sequence:
#
# PCOD9502882 Si02
#       6
#    16   8  16  16   8  16
#     4   9  17  26  38  61  97 141 184 225 279 347
#     4   9  16  28  49  75  99 130 179 239 291 330
#     4  11  26  41  58  81 118 153 186 232 301 363
#     4  10  20  35  56  80 105 140 190 240 286 342
#     4  11  22  41  65  87 112 147 201 253 292 348
#     4   9  16  28  46  69 100 136 179 233 288 339
#
# _framework density 22.984183000000002
#
# number of rings (size 3 to 8) (size 9 to 14) (size 15 to 20)
#    0.000    2.200    2.000    1.200    4.200    4.800 
#    0.000    0.000    0.000    0.000    0.000    0.000 
#    0.000    0.800    0.000    5.600    0.000    7.000 
#
# Total GULP energy -223270.918718 kJ/mol
# GULP energy per Si atom -5581.772968 kJ/mol
# Density = 2.293187 g / cm^3
# Si number density = 22.984183 Si / 1000 Ang^3
#
#
#
# Elastic Constant Matrix: (Units=GPa)
#
#
# Indices 1 2 3 4 5 6 
#
# 1 187.3523 6.5343 36.5128 0.0000 0.0000 0.0000
# 2 6.5343 47.9367 -3.5962 0.0000 0.0000 0.0000
# 3 36.5128 -3.5962 69.9013 0.0000 0.0000 0.0000
# 4 0.0000 0.0000 0.0000 44.1436 0.0000 0.0000
# 5 0.0000 0.0000 0.0000 0.0000 25.9240 0.0000
# 6 0.0000 0.0000 0.0000 0.0000 0.0000 96.9057
#
#
#
# Elastic Compliance Matrix: (Units=1/GPa)
#
#
# Indices 1 2 3 4 5 6 
#
# 1 0.005995 -0.001056 -0.003186 0.000000 0.000000 0.000000
# 2 -0.001056 0.021128 0.001639 0.000000 0.000000 0.000000
# 3 -0.003186 0.001639 0.016054 0.000000 0.000000 0.000000
# 4 0.000000 0.000000 0.000000 0.022653 0.000000 0.000000
# 5 0.000000 0.000000 0.000000 0.000000 0.038574 0.000000
# 6 0.000000 0.000000 0.000000 0.000000 0.000000 0.010319
#
#
# Mechanical properties :
#
#
# Convention : Reuss Voigt Hill
#
# Bulk Modulus (GPa) = 26.33632 42.67688 34.50660
# Shear Modulus (GPa) = 37.71076 51.11062 44.41069
#
# Velocity S-wave (km/s) = 4.05498 4.72076 4.40048
# Velocity P-wave (km/s) = 5.77989 6.95143 6.39255
#
# Compressibility (1/GPa) = 0.03797038
#
# Stress axis : x y z
#
# Youngs Moduli (GPa) = 166.79783 47.33108 62.28833
#
# Poissons Ratio (x) = 0.04999 0.19845
# Poissons Ratio (y) = 0.17618 -0.10207
# Poissons Ratio (z) = 0.53141 -0.07756
#
# Static dielectric constant tensor:
#      x y z
#    x 1.863800 0.000000 0.000000 
#    y 0.000000 1.856930 0.000000 
#    z 0.000000 0.000000 1.871700 
# 
# From -- ./inp_files/32868.got.cif
#   From: 2010.05.17/outbox.cif.g08.bks.cpg/sg67_17_cif.got.tgz:32868.got - 2010.06.03 18:28:57.
