data_PCOD9502432
_publ_section_title
;
Structure prediction by ZEFSAII (Michael W. Deem and Ramdas Pophale) SiO2 
 PCOD9502432
Probable space group: C M M A
;
_chemical_formula_sum "Si O2"
_cell_formula_units_Z 80
_cell_length_a 15.854209
_cell_length_b 27.399799
_cell_length_c 9.000958
_cell_angle_alpha 90.000000
_cell_angle_beta 90.000000
_cell_angle_gamma 90.000000
_cell_volume 3910.035416
_symmetry_space_group_name_H-M "C M M A"
_symmetry_group_IT_number 67
_symmetry_cell_setting 'orthorhombic'
loop_
_space_group_symop_operation_xyz
x,y,z
-x,1/2-y,z
x,-y,-z
-x,1/2+y,-z
-x,-y,-z
x,1/2+y,-z
-x,y,z
x,1/2-y,z
1/2+x,1/2+y,z
1/2-x,-y,z
1/2+x,1/2-y,-z
1/2-x,y,-z
1/2-x,1/2-y,-z
1/2+x,y,-z
1/2-x,1/2+y,z
1/2+x,-y,z
loop_
_atom_site_type_symbol
_atom_site_label
_atom_site_fract_x
_atom_site_fract_y
_atom_site_fract_z
Si Si1 0.343242 0.049259 0.071074
Si Si2 0.157146 0.653584 0.431593
Si Si3 0.655820 0.047726 0.428651
Si Si4 0.097723 0.250000 0.410549
Si Si5 0.103017 0.750000 0.916891
Si Si6 0.400567 0.155312 0.104096
O O1 0.338686 0.043109 0.250055
O O2 0.388353 0.100820 0.039928
O O3 0.250000 0.053277 0.000000
O O4 0.381557 0.000000 0.000000
O O5 0.250000 0.652481 0.500000
O O6 0.116381 0.600547 0.464438
O O7 0.116428 0.701322 0.499659
O O8 0.153602 0.657772 0.254266
O O9 0.750000 0.049417 0.500000
O O10 0.614168 0.000000 0.500000
O O11 0.140047 0.250000 0.248828
O O12 0.000000 0.250000 0.379695
O O13 0.000000 0.750000 0.917711
O O14 0.126098 0.800177 0.999111
O O15 0.500000 0.161480 0.141524
#
# Coordination Sequence:
#
# PCOD9502432 Si02
#       6
#    16  16  16   8   8  16
#     4  10  20  33  54  83 112 146 190 232 274 324
#     4  10  21  36  57  84 110 142 188 232 274 334
#     4   9  17  31  52  78 109 142 176 224 279 327
#     4  11  22  37  57  80 111 147 186 233 283 329
#     4   9  21  37  54  78 106 143 182 221 274 331
#     4  10  21  39  59  80 113 152 186 224 281 341
#
# _framework density 20.460173999999999
#
# number of rings (size 3 to 8) (size 9 to 14) (size 15 to 20)
#    0.000    2.200    0.000    3.900    0.000    7.600 
#    0.000    1.500    0.000   15.000    0.000    0.000 
#    0.000    0.800    0.000    0.000    0.000    0.000 
#
# Total GULP energy -223040.952092 kJ/mol
# GULP energy per Si atom -5576.023802 kJ/mol
# Density = 2.041361 g / cm^3
# Si number density = 20.460174 Si / 1000 Ang^3
#
#
#
# Elastic Constant Matrix: (Units=GPa)
#
#
# Indices 1 2 3 4 5 6 
#
# 1 22.1417 10.3259 5.4499 0.0000 0.0000 0.0000
# 2 10.3259 234.7775 92.7647 0.0000 0.0000 0.0000
# 3 5.4499 92.7647 97.2561 0.0000 0.0000 0.0000
# 4 0.0000 0.0000 0.0000 43.1115 0.0000 0.0000
# 5 0.0000 0.0000 0.0000 0.0000 19.7275 0.0000
# 6 0.0000 0.0000 0.0000 0.0000 0.0000 13.3152
#
#
#
# Elastic Compliance Matrix: (Units=1/GPa)
#
#
# Indices 1 2 3 4 5 6 
#
# 1 0.046175 -0.001618 -0.001044 0.000000 0.000000 0.000000
# 2 -0.001618 0.006892 -0.006483 0.000000 0.000000 0.000000
# 3 -0.001044 -0.006483 0.016524 0.000000 0.000000 0.000000
# 4 0.000000 0.000000 0.000000 0.023196 0.000000 0.000000
# 5 0.000000 0.000000 0.000000 0.000000 0.050691 0.000000
# 6 0.000000 0.000000 0.000000 0.000000 0.000000 0.075102
#
#
# Mechanical properties :
#
#
# Convention : Reuss Voigt Hill
#
# Bulk Modulus (GPa) = 19.49273 63.47289 41.48281
# Shear Modulus (GPa) = 19.68721 31.60648 25.64685
#
# Velocity S-wave (km/s) = 3.10533 3.93463 3.54432
# Velocity P-wave (km/s) = 4.73342 7.19248 6.08839
#
# Compressibility (1/GPa) = 0.05130117
#
# Stress axis : x y z
#
# Youngs Moduli (GPa) = 21.65654 145.09270 60.51664
#
# Poissons Ratio (x) = 0.23482 0.06317
# Poissons Ratio (y) = 0.03505 0.39234
# Poissons Ratio (z) = 0.02260 0.94066
#
# Static dielectric constant tensor:
#      x y z
#    x 1.706800 0.000000 0.000000 
#    y 0.000000 2.805260 0.000000 
#    z 0.000000 0.000000 1.726480 
# 
# From -- ./inp_files/9993.got.cif
#   From: 2010.05.17/outbox.cif.g08.bks.cpg/sg67_5_cif.got.tgz:9993.got - 2010.06.03 18:28:57.
