data_PCOD9502343
_publ_section_title
;
Structure prediction by ZEFSAII (Michael W. Deem and Ramdas Pophale) SiO2 
 PCOD9502343
Probable space group: C M M A
;
_chemical_formula_sum "Si O2"
_cell_formula_units_Z 80
_cell_length_a 24.347184
_cell_length_b 7.417989
_cell_length_c 21.396072
_cell_angle_alpha 90.000000
_cell_angle_beta 90.000000
_cell_angle_gamma 90.000000
_cell_volume 3864.283437
_symmetry_space_group_name_H-M "C M M A"
_symmetry_group_IT_number 67
_symmetry_cell_setting 'orthorhombic'
loop_
_space_group_symop_operation_xyz
x,y,z
-x,1/2-y,z
x,-y,-z
-x,1/2+y,-z
-x,-y,-z
x,1/2+y,-z
-x,y,z
x,1/2-y,z
1/2+x,1/2+y,z
1/2-x,-y,z
1/2+x,1/2-y,-z
1/2-x,y,-z
1/2-x,1/2-y,-z
1/2+x,y,-z
1/2-x,1/2+y,z
1/2+x,-y,z
loop_
_atom_site_type_symbol
_atom_site_label
_atom_site_fract_x
_atom_site_fract_y
_atom_site_fract_z
Si Si1 0.500000 0.031930 0.261688
Si Si2 0.185602 0.465616 0.690556
Si Si3 0.379135 0.465494 0.431989
Si Si4 0.500000 0.469538 0.406266
Si Si5 0.937060 0.534561 0.071511
Si Si6 0.612898 0.030215 0.196124
O O1 0.500000 0.250000 0.260055
O O2 0.500000 0.980592 0.333527
O O3 0.555384 0.976370 0.227943
O O4 0.177584 0.250000 0.690693
O O5 0.250000 0.500000 0.686056
O O6 0.153525 0.533823 0.628814
O O7 0.159932 0.532587 0.756142
O O8 0.353491 0.500000 0.500000
O O9 0.382318 0.250000 0.424892
O O10 0.441961 0.535386 0.432650
O O11 0.500000 0.250000 0.411071
O O12 0.940570 0.750000 0.079040
O O13 0.894686 0.469731 0.124427
O O14 0.000000 0.465843 0.080564
O O15 0.921141 0.500000 0.000000
O O16 0.616251 0.250000 0.195084
#
# Coordination Sequence:
#
# PCOD9502343 Si02
#       6
#     8  16  16   8  16  16
#     4   9  12  21  46  75  95 116 155 202 238 276
#     4  10  21  36  53  72  93 123 166 209 243 278
#     4  10  20  33  51  74  99 126 156 195 243 292
#     4   9  15  27  48  75 101 122 151 194 241 290
#     4   9  16  26  44  73 105 131 154 185 230 285
#     4   9  15  27  49  74  97 124 161 200 236 280
#
# _framework density 20.702415999999999
#
# number of rings (size 3 to 8) (size 9 to 14) (size 15 to 20)
#    0.000    2.600    3.000    0.300    0.000    1.200 
#    0.000    3.000    0.000    0.600    0.000    4.200 
#    0.000    0.000    0.000    0.000    0.000    0.000 
#
# Total GULP energy -223097.512415 kJ/mol
# GULP energy per Si atom -5577.437810 kJ/mol
# Density = 2.065530 g / cm^3
# Si number density = 20.702416 Si / 1000 Ang^3
#
#
#
# Elastic Constant Matrix: (Units=GPa)
#
#
# Indices 1 2 3 4 5 6 
#
# 1 118.0828 0.5341 86.2817 0.0000 0.0000 0.0000
# 2 0.5341 66.7158 2.9878 0.0000 0.0000 0.0000
# 3 86.2817 2.9878 211.8593 0.0000 0.0000 0.0000
# 4 0.0000 0.0000 0.0000 15.9551 0.0000 0.0000
# 5 0.0000 0.0000 0.0000 0.0000 13.3715 0.0000
# 6 0.0000 0.0000 0.0000 0.0000 0.0000 3.3549
#
#
#
# Elastic Compliance Matrix: (Units=1/GPa)
#
#
# Indices 1 2 3 4 5 6 
#
# 1 0.012057 0.000123 -0.004912 0.000000 0.000000 0.000000
# 2 0.000123 0.015000 -0.000262 0.000000 0.000000 0.000000
# 3 -0.004912 -0.000262 0.006724 0.000000 0.000000 0.000000
# 4 0.000000 0.000000 0.000000 0.062676 0.000000 0.000000
# 5 0.000000 0.000000 0.000000 0.000000 0.074786 0.000000
# 6 0.000000 0.000000 0.000000 0.000000 0.000000 0.298075
#
#
# Mechanical properties :
#
#
# Convention : Reuss Voigt Hill
#
# Bulk Modulus (GPa) = 42.22925 64.02945 53.12935
# Shear Modulus (GPa) = 10.26035 26.99324 18.62679
#
# Velocity S-wave (km/s) = 2.22865 3.61483 3.00282
# Velocity P-wave (km/s) = 5.20240 6.95833 6.14342
#
# Compressibility (1/GPa) = 0.02368027
#
# Stress axis : x y z
#
# Youngs Moduli (GPa) = 82.93677 66.66807 148.71320
#
# Poissons Ratio (x) = -0.00823 0.73051
# Poissons Ratio (y) = -0.01024 0.03894
# Poissons Ratio (z) = 0.40740 0.01746
#
# Static dielectric constant tensor:
#      x y z
#    x 1.707500 0.000000 0.000000 
#    y 0.000000 1.826020 0.000000 
#    z 0.000000 0.000000 1.769690 
# 
# From -- ./inp_files/32887.got.cif
#   From: 2010.05.17/outbox.cif.g08.bks.cpg/sg67_17_cif.got.tgz:32887.got - 2010.06.03 18:28:57.
