data_PCOD9502602
_publ_section_title
;
Structure prediction by ZEFSAII (Michael W. Deem and Ramdas Pophale) SiO2 
 PCOD9502602
Probable space group: C M M A
;
_chemical_formula_sum "Si O2"
_cell_formula_units_Z 80
_cell_length_a 8.823482
_cell_length_b 19.204160
_cell_length_c 26.595907
_cell_angle_alpha 90.000000
_cell_angle_beta 90.000000
_cell_angle_gamma 90.000000
_cell_volume 4506.611549
_symmetry_space_group_name_H-M "C M M A"
_symmetry_group_IT_number 67
_symmetry_cell_setting 'orthorhombic'
loop_
_space_group_symop_operation_xyz
x,y,z
-x,1/2-y,z
x,-y,-z
-x,1/2+y,-z
-x,-y,-z
x,1/2+y,-z
-x,y,z
x,1/2-y,z
1/2+x,1/2+y,z
1/2-x,-y,z
1/2+x,1/2-y,-z
1/2-x,y,-z
1/2-x,1/2-y,-z
1/2+x,y,-z
1/2-x,1/2+y,z
1/2+x,-y,z
loop_
_atom_site_type_symbol
_atom_site_label
_atom_site_fract_x
_atom_site_fract_y
_atom_site_fract_z
Si Si1 0.317739 0.669331 0.552662
Si Si2 0.817275 0.577057 0.351635
Si Si3 0.320995 0.666747 0.842434
Si Si4 0.174600 0.334767 0.052007
Si Si5 0.819118 0.077114 0.245925
O O1 0.500000 0.667626 0.549129
O O2 0.270460 0.750000 0.558876
O O3 0.250000 0.643346 0.500000
O O4 0.273871 0.624610 0.601088
O O5 0.750000 0.500000 0.358887
O O6 0.750058 0.603380 0.298796
O O7 0.000000 0.573955 0.348166
O O8 0.500000 0.653537 0.837421
O O9 0.296209 0.750000 0.837792
O O10 0.264437 0.645022 0.897852
O O11 0.231269 0.626099 0.799571
O O12 0.176392 0.250000 0.050771
O O13 0.000000 0.356801 0.055097
O O14 0.250000 0.358722 0.000000
O O15 0.000000 0.072463 0.249568
O O16 0.750000 0.000000 0.238158
#
# Coordination Sequence:
#
# PCOD9502602 Si02
#       5
#    16  16  16  16  16
#     4   9  19  35  54  76 103 135 169 206 251 302
#     4  10  20  35  54  76 102 133 171 212 255 304
#     4  10  20  34  53  78 107 138 174 217 263 310
#     4   9  16  27  45  71 103 137 173 214 260 308
#     4  11  22  37  56  77 104 138 176 216 262 314
#
# _framework density 17.751697
#
# number of rings (size 3 to 8) (size 9 to 14) (size 15 to 20)
#    0.000    2.200    0.000    4.800    0.000    6.400 
#    0.000    4.000    0.000    0.600    0.000    4.200 
#    0.000    0.000    0.000    0.000    0.000    0.000 
#
# Total GULP energy -223227.554424 kJ/mol
# GULP energy per Si atom -5580.688861 kJ/mol
# Density = 1.771129 g / cm^3
# Si number density = 17.751697 Si / 1000 Ang^3
#
#
#
# Elastic Constant Matrix: (Units=GPa)
#
#
# Indices 1 2 3 4 5 6 
#
# 1 103.8593 31.8430 67.0805 0.0000 0.0000 0.0000
# 2 31.8430 28.1809 56.6357 0.0000 0.0000 0.0000
# 3 67.0805 56.6357 180.3311 0.0000 0.0000 0.0000
# 4 0.0000 0.0000 0.0000 315.3587 0.0000 0.0000
# 5 0.0000 0.0000 0.0000 0.0000 38.4319 0.0000
# 6 0.0000 0.0000 0.0000 0.0000 0.0000 22.7626
#
#
#
# Elastic Compliance Matrix: (Units=1/GPa)
#
#
# Indices 1 2 3 4 5 6 
#
# 1 0.014763 -0.015306 -0.000685 0.000000 0.000000 0.000000
# 2 -0.015306 0.112081 -0.029507 0.000000 0.000000 0.000000
# 3 -0.000685 -0.029507 0.015067 0.000000 0.000000 0.000000
# 4 0.000000 0.000000 0.000000 0.003171 0.000000 0.000000
# 5 0.000000 0.000000 0.000000 0.000000 0.026020 0.000000
# 6 0.000000 0.000000 0.000000 0.000000 0.000000 0.043932
#
#
# Mechanical properties :
#
#
# Convention : Reuss Voigt Hill
#
# Bulk Modulus (GPa) = 19.64008 69.27661 44.45835
# Shear Modulus (GPa) = 15.47980 85.76477 50.62228
#
# Velocity S-wave (km/s) = 2.95620 6.95834 5.34591
# Velocity P-wave (km/s) = 4.76864 10.18175 7.95009
#
# Compressibility (1/GPa) = 0.05091628
#
# Stress axis : x y z
#
# Youngs Moduli (GPa) = 67.73521 8.92213 66.36901
#
# Poissons Ratio (x) = 0.13656 0.04545
# Poissons Ratio (y) = 1.03673 1.95836
# Poissons Ratio (z) = 0.04639 0.26327
#
# Static dielectric constant tensor:
#      x y z
#    x 1.596650 0.000000 0.000000 
#    y 0.000000 1.591050 0.000000 
#    z 0.000000 0.000000 1.595750 
# 
# From -- ./inp_files/43248.got.cif
#   From: 2010.05.17/outbox.cif.g08.bks.cpg/sg67_22_cif.got.tgz:43248.got - 2010.06.03 18:28:57.
