data_PCOD9502027
_publ_section_title
;
Structure prediction by ZEFSAII (Michael W. Deem and Ramdas Pophale) SiO2 
 PCOD9502027
Probable space group: C M M A
;
_chemical_formula_sum "Si O2"
_cell_formula_units_Z 96
_cell_length_a 21.569324
_cell_length_b 27.765669
_cell_length_c 8.560498
_cell_angle_alpha 90.000000
_cell_angle_beta 90.000000
_cell_angle_gamma 90.000000
_cell_volume 5126.768489
_symmetry_space_group_name_H-M "C M M A"
_symmetry_group_IT_number 67
_symmetry_cell_setting 'orthorhombic'
loop_
_space_group_symop_operation_xyz
x,y,z
-x,1/2-y,z
x,-y,-z
-x,1/2+y,-z
-x,-y,-z
x,1/2+y,-z
-x,y,z
x,1/2-y,z
1/2+x,1/2+y,z
1/2-x,-y,z
1/2+x,1/2-y,-z
1/2-x,y,-z
1/2-x,1/2-y,-z
1/2+x,y,-z
1/2-x,1/2+y,z
1/2+x,-y,z
loop_
_atom_site_type_symbol
_atom_site_label
_atom_site_fract_x
_atom_site_fract_y
_atom_site_fract_z
Si Si1 0.069557 0.995396 0.185341
Si Si2 0.170453 0.953835 0.605802
Si Si3 0.744766 0.391948 0.179633
Si Si4 0.297958 0.805605 0.355831
Si Si5 0.886545 0.395754 0.676533
Si Si6 0.569077 0.695257 0.518593
O O1 0.119557 0.028061 0.271430
O O2 0.000000 0.010878 0.227285
O O3 0.078823 0.940586 0.243851
O O4 0.077290 0.000000 0.000000
O O5 0.227136 0.931520 0.701814
O O6 0.139932 0.915128 0.489414
O O7 0.184764 0.000000 0.500000
O O8 0.782004 0.343355 0.221079
O O9 0.673382 0.384200 0.220588
O O10 0.750000 0.406510 0.000000
O O11 0.286727 0.750000 0.311689
O O12 0.250000 0.816372 0.500000
O O13 0.369526 0.809544 0.410880
O O14 0.924416 0.347502 0.643420
O O15 0.500000 0.690816 0.444875
O O16 0.572802 0.750000 0.582881
#
# Coordination Sequence:
#
# PCOD9502027 Si02
#       6
#    16  16  16  16  16  16
#     4  10  22  39  57  83 119 158 198 244 304 368
#     4  10  22  38  57  81 110 151 201 249 298 357
#     4  12  23  37  57  89 123 156 197 249 319 371
#     4  10  19  37  62  88 121 158 201 249 295 354
#     4  11  21  37  61  83 119 152 204 249 296 358
#     4  10  20  35  61  93 121 153 200 253 302 351
#
# _framework density 18.725247
#
# number of rings (size 3 to 8) (size 9 to 14) (size 15 to 20)
#    0.000    1.500    3.333    2.000    0.000    8.667 
#    0.000    4.167    0.000    1.000    0.000    2.333 
#    0.000    0.000    0.000    0.000    0.000    0.000 
#
# Total GULP energy -267942.347722 kJ/mol
# GULP energy per Si atom -5582.132244 kJ/mol
# Density = 1.868263 g / cm^3
# Si number density = 18.725247 Si / 1000 Ang^3
#
#
#
# Elastic Constant Matrix: (Units=GPa)
#
#
# Indices 1 2 3 4 5 6 
#
# 1 112.8873 6.2476 16.0816 0.0000 0.0000 0.0000
# 2 6.2476 85.2111 19.4361 0.0000 0.0000 0.0000
# 3 16.0816 19.4361 58.5936 0.0000 0.0000 0.0000
# 4 0.0000 0.0000 0.0000 17.3733 0.0000 0.0000
# 5 0.0000 0.0000 0.0000 0.0000 25.1569 0.0000
# 6 0.0000 0.0000 0.0000 0.0000 0.0000 -9.1890
#
#
#
# Elastic Compliance Matrix: (Units=1/GPa)
#
#
# Indices 1 2 3 4 5 6 
#
# 1 0.009220 -0.000107 -0.002495 0.000000 0.000000 0.000000
# 2 -0.000107 0.012697 -0.004183 0.000000 0.000000 0.000000
# 3 -0.002495 -0.004183 0.019139 0.000000 0.000000 0.000000
# 4 0.000000 0.000000 0.000000 0.057559 0.000000 0.000000
# 5 0.000000 0.000000 0.000000 0.000000 0.039751 0.000000
# 6 0.000000 0.000000 0.000000 0.000000 0.000000 -0.108825
#
#
# Mechanical properties :
#
#
# Convention : Reuss Voigt Hill
#
# Bulk Modulus (GPa) = 36.38058 37.80252 37.09155
# Shear Modulus (GPa) = 95.65361 20.99669 58.32515
#
# Velocity S-wave (km/s) = 7.15497 3.35222 5.58708
# Velocity P-wave (km/s) = 9.36637 5.93422 7.84041
#
# Compressibility (1/GPa) = 0.02748719
#
# Stress axis : x y z
#
# Youngs Moduli (GPa) = 108.46298 78.75629 52.24970
#
# Poissons Ratio (x) = 0.00842 0.13036
# Poissons Ratio (y) = 0.01159 0.21854
# Poissons Ratio (z) = 0.27061 0.32940
#
# Static dielectric constant tensor:
#      x y z
#    x 1.668790 0.000000 0.000000 
#    y 0.000000 1.675280 0.000000 
#    z 0.000000 0.000000 1.622010 
# 
# From -- ./inp_files/11495.got.cif
#   From: 2010.05.17/outbox.cif.g08.bks.cpg/sg67_6_cif.got.tgz:11495.got - 2010.06.03 18:28:57.
