data_PCOD9502703
_publ_section_title
;
Structure prediction by ZEFSAII (Michael W. Deem and Ramdas Pophale) SiO2 
 PCOD9502703
Probable space group: C M M A
;
_chemical_formula_sum "Si O2"
_cell_formula_units_Z 68
_cell_length_a 8.537757
_cell_length_b 15.437263
_cell_length_c 23.362763
_cell_angle_alpha 90.000000
_cell_angle_beta 90.000000
_cell_angle_gamma 90.000000
_cell_volume 3079.202824
_symmetry_space_group_name_H-M "C M M A"
_symmetry_group_IT_number 67
_symmetry_cell_setting 'orthorhombic'
loop_
_space_group_symop_operation_xyz
x,y,z
-x,1/2-y,z
x,-y,-z
-x,1/2+y,-z
-x,-y,-z
x,1/2+y,-z
-x,y,z
x,1/2-y,z
1/2+x,1/2+y,z
1/2-x,-y,z
1/2+x,1/2-y,-z
1/2-x,y,-z
1/2-x,1/2-y,-z
1/2+x,y,-z
1/2-x,1/2+y,z
1/2+x,-y,z
loop_
_atom_site_type_symbol
_atom_site_label
_atom_site_fract_x
_atom_site_fract_y
_atom_site_fract_z
Si Si1 0.183996 0.593218 0.581603
Si Si2 0.688231 0.098423 0.816391
Si Si3 0.687314 0.900857 0.058743
Si Si4 0.177184 0.148890 0.696117
Si Si5 0.750000 0.250000 0.500000
O O1 0.250000 0.500000 0.564462
O O2 0.214789 0.603393 0.649311
O O3 0.264408 0.672984 0.548937
O O4 0.000000 0.600349 0.568891
O O5 0.500000 0.099813 0.812004
O O6 0.731493 0.136569 0.878973
O O7 0.761742 0.140746 0.760581
O O8 0.750000 0.000000 0.815938
O O9 0.500000 0.903111 0.055682
O O10 0.750000 0.000000 0.059520
O O11 0.750000 0.860201 0.000000
O O12 0.174486 0.250000 0.681778
O O13 0.000000 0.113694 0.691992
#
# Coordination Sequence:
#
# PCOD9502703 Si02
#       5
#    16  16  16  16   4
#     4  12  27  48  75 106 141 182 225 274 330 391
#     4  10  20  34  55  84 119 158 205 259 319 386
#     4   9  16  26  44  73 109 151 196 250 312 377
#     4  11  24  42  65  92 125 166 214 270 328 388
#     4  12  28  48  76 108 138 184 224 270 322 386
#
# _framework density 22.083638000000001
#
# number of rings (size 3 to 8) (size 9 to 14) (size 15 to 20)
#    0.000    1.412    1.176    4.941    0.000    8.941 
#    0.000    0.000    0.000    0.706    0.000    0.000 
#    0.000    0.000    0.000    0.000    0.000    0.000 
#
# Total GULP energy -189473.729534 kJ/mol
# GULP energy per Si atom -5572.756751 kJ/mol
# Density = 2.203337 g / cm^3
# Si number density = 22.083638 Si / 1000 Ang^3
#
#
#
# Elastic Constant Matrix: (Units=GPa)
#
#
# Indices 1 2 3 4 5 6 
#
# 1 45.0931 6.6163 12.6617 0.0000 0.0000 0.0000
# 2 6.6163 110.7324 33.4857 0.0000 0.0000 0.0000
# 3 12.6617 33.4857 168.2265 0.0000 0.0000 0.0000
# 4 0.0000 0.0000 0.0000 -66.4611 0.0000 0.0000
# 5 0.0000 0.0000 0.0000 0.0000 -252.4583 0.0000
# 6 0.0000 0.0000 0.0000 0.0000 0.0000 6.1786
#
#
#
# Elastic Compliance Matrix: (Units=1/GPa)
#
#
# Indices 1 2 3 4 5 6 
#
# 1 0.022738 -0.000895 -0.001533 0.000000 0.000000 0.000000
# 2 -0.000895 0.009644 -0.001852 0.000000 0.000000 0.000000
# 3 -0.001533 -0.001852 0.006428 0.000000 0.000000 0.000000
# 4 0.000000 0.000000 0.000000 -0.015046 0.000000 0.000000
# 5 0.000000 0.000000 0.000000 0.000000 -0.003961 0.000000
# 6 0.000000 0.000000 0.000000 0.000000 0.000000 0.161850
#
#
# Mechanical properties :
#
#
# Convention : Reuss Voigt Hill
#
# Bulk Modulus (GPa) = 33.05798 47.73104 40.39451
# Shear Modulus (GPa) = 24.96277 -44.46229 -9.74976
#
# Velocity S-wave (km/s) = 3.36575 -4.49191 -2.10345
# Velocity P-wave (km/s) = 5.48692 2.28962 3.52590
#
# Compressibility (1/GPa) = 0.03024988
#
# Stress axis : x y z
#
# Youngs Moduli (GPa) = 43.97895 103.68691 155.55767
#
# Poissons Ratio (x) = 0.09280 0.23851
# Poissons Ratio (y) = 0.03936 0.28815
# Poissons Ratio (z) = 0.06743 0.19207
#
# Static dielectric constant tensor:
#      x y z
#    x 1.794120 0.000000 0.000000 
#    y 0.000000 1.765610 0.000000 
#    z 0.000000 0.000000 1.853470 
# 
# From -- ./inp_files/43078.got.cif
#   From: 2010.05.17/outbox.cif.g08.bks.cpg/sg67_22_cif.got.tgz:43078.got - 2010.06.03 18:28:57.
