data_PCOD9502861
_publ_section_title
;
Structure prediction by ZEFSAII (Michael W. Deem and Ramdas Pophale) SiO2 
 PCOD9502861
Probable space group: C M M A
;
_chemical_formula_sum "Si O2"
_cell_formula_units_Z 72
_cell_length_a 22.835519
_cell_length_b 25.458019
_cell_length_c 6.099682
_cell_angle_alpha 90.000000
_cell_angle_beta 90.000000
_cell_angle_gamma 90.000000
_cell_volume 3546.032299
_symmetry_space_group_name_H-M "C M M A"
_symmetry_group_IT_number 67
_symmetry_cell_setting 'orthorhombic'
loop_
_space_group_symop_operation_xyz
x,y,z
-x,1/2-y,z
x,-y,-z
-x,1/2+y,-z
-x,-y,-z
x,1/2+y,-z
-x,y,z
x,1/2-y,z
1/2+x,1/2+y,z
1/2-x,-y,z
1/2+x,1/2-y,-z
1/2-x,y,-z
1/2-x,1/2-y,-z
1/2+x,y,-z
1/2-x,1/2+y,z
1/2+x,-y,z
loop_
_atom_site_type_symbol
_atom_site_label
_atom_site_fract_x
_atom_site_fract_y
_atom_site_fract_z
Si Si1 0.172084 0.551202 0.641976
Si Si2 0.932073 0.410468 0.101385
Si Si3 0.432610 0.691598 0.411477
Si Si4 0.250000 0.605232 0.000000
Si Si5 0.356084 0.366772 0.271169
O O1 0.183035 0.500000 0.500000
O O2 0.109962 0.549350 0.770000
O O3 0.167873 0.598367 0.469588
O O4 0.219888 0.567605 0.820770
O O5 0.926371 0.354867 0.233458
O O6 0.000000 0.425283 0.095816
O O7 0.904617 0.399562 0.863978
O O8 0.500000 0.688410 0.490495
O O9 0.423432 0.750000 0.318865
O O10 0.388762 0.681145 0.612434
O O11 0.198434 0.639818 0.107374
#
# Coordination Sequence:
#
# PCOD9502861 Si02
#       5
#    16  16  16   8  16
#     4  10  22  38  57  82 110 146 190 232 275 326
#     4   9  19  35  55  82 116 148 181 226 279 335
#     4   9  18  34  57  83 110 143 184 229 278 333
#     4  10  22  37  55  78 110 148 189 236 278 321
#     4  10  20  35  55  80 111 146 188 232 277 326
#
# _framework density 20.304383000000001
#
# number of rings (size 3 to 8) (size 9 to 14) (size 15 to 20)
#    0.000    2.444    0.000    1.333    0.000    8.444 
#    0.000    3.889    0.000   17.333    0.000    0.000 
#    0.000    0.000    0.000    0.000    0.000    0.000 
#
# Total GULP energy -200933.446730 kJ/mol
# GULP energy per Si atom -5581.484631 kJ/mol
# Density = 2.025817 g / cm^3
# Si number density = 20.304383 Si / 1000 Ang^3
#
#
#
# Elastic Constant Matrix: (Units=GPa)
#
#
# Indices 1 2 3 4 5 6 
#
# 1 136.9635 20.7407 53.8618 0.0000 0.0000 0.0000
# 2 20.7407 59.5675 21.4268 0.0000 0.0000 0.0000
# 3 53.8618 21.4268 97.8395 0.0000 0.0000 0.0000
# 4 0.0000 0.0000 0.0000 13.6347 0.0000 0.0000
# 5 0.0000 0.0000 0.0000 0.0000 37.0170 0.0000
# 6 0.0000 0.0000 0.0000 0.0000 0.0000 13.8236
#
#
#
# Elastic Compliance Matrix: (Units=1/GPa)
#
#
# Indices 1 2 3 4 5 6 
#
# 1 0.009447 -0.001540 -0.004863 0.000000 0.000000 0.000000
# 2 -0.001540 0.018474 -0.003198 0.000000 0.000000 0.000000
# 3 -0.004863 -0.003198 0.013599 0.000000 0.000000 0.000000
# 4 0.000000 0.000000 0.000000 0.073342 0.000000 0.000000
# 5 0.000000 0.000000 0.000000 0.000000 0.027015 0.000000
# 6 0.000000 0.000000 0.000000 0.000000 0.000000 0.072340
#
#
# Mechanical properties :
#
#
# Convention : Reuss Voigt Hill
#
# Bulk Modulus (GPa) = 44.80911 54.04768 49.42840
# Shear Modulus (GPa) = 20.75906 26.11780 23.43843
#
# Velocity S-wave (km/s) = 3.20096 3.59041 3.40126
# Velocity P-wave (km/s) = 5.98148 6.62303 6.31042
#
# Compressibility (1/GPa) = 0.02231689
#
# Stress axis : x y z
#
# Youngs Moduli (GPa) = 105.85387 54.12937 73.53709
#
# Poissons Ratio (x) = 0.08336 0.35764
# Poissons Ratio (y) = 0.16301 0.23518
# Poissons Ratio (z) = 0.51481 0.17311
#
# Static dielectric constant tensor:
#      x y z
#    x 1.757540 0.000000 0.000000 
#    y 0.000000 1.703820 0.000000 
#    z 0.000000 0.000000 1.727200 
# 
# From -- ./inp_files/3457.got.cif
#   From: 2010.05.17/outbox.cif.g08.bks.cpg/sg67_2_cif.got.tgz:3457.got - 2010.06.03 18:28:57.
