data_PCOD9502571
_publ_section_title
;
Structure prediction by ZEFSAII (Michael W. Deem and Ramdas Pophale) SiO2 
 PCOD9502571
Probable space group: C M M A
;
_chemical_formula_sum "Si O2"
_cell_formula_units_Z 96
_cell_length_a 9.273700
_cell_length_b 15.010297
_cell_length_c 32.149852
_cell_angle_alpha 90.000000
_cell_angle_beta 90.000000
_cell_angle_gamma 90.000000
_cell_volume 4475.291268
_symmetry_space_group_name_H-M "C M M A"
_symmetry_group_IT_number 67
_symmetry_cell_setting 'orthorhombic'
loop_
_space_group_symop_operation_xyz
x,y,z
-x,1/2-y,z
x,-y,-z
-x,1/2+y,-z
-x,-y,-z
x,1/2+y,-z
-x,y,z
x,1/2-y,z
1/2+x,1/2+y,z
1/2-x,-y,z
1/2+x,1/2-y,-z
1/2-x,y,-z
1/2-x,1/2-y,-z
1/2+x,y,-z
1/2-x,1/2+y,z
1/2+x,-y,z
loop_
_atom_site_type_symbol
_atom_site_label
_atom_site_fract_x
_atom_site_fract_y
_atom_site_fract_z
Si Si1 0.334141 0.359029 0.041477
Si Si2 0.161608 0.146208 0.287379
Si Si3 0.165664 0.359344 0.792549
Si Si4 0.325477 0.405165 0.368450
Si Si5 0.165693 0.641067 0.875651
Si Si6 0.339419 0.856353 0.538948
O O1 0.500000 0.388737 0.041485
O O2 0.335891 0.250000 0.041501
O O3 0.249859 0.386866 0.082911
O O4 0.250000 0.386726 0.000000
O O5 0.143289 0.250000 0.277446
O O6 0.249793 0.108609 0.248393
O O7 0.255569 0.143287 0.329196
O O8 0.000000 0.107328 0.292901
O O9 0.162595 0.250000 0.792087
O O10 0.249784 0.385957 0.834165
O O11 0.000000 0.389210 0.792621
O O12 0.500000 0.405178 0.365599
O O13 0.250000 0.500000 0.365900
O O14 0.283953 0.369972 0.414302
O O15 0.163510 0.750000 0.875822
O O16 0.000000 0.610982 0.875500
O O17 0.500000 0.895066 0.537527
O O18 0.349272 0.750000 0.533488
O O19 0.250000 0.891577 0.500000
#
# Coordination Sequence:
#
# PCOD9502571 Si02
#       6
#    16  16  16  16  16  16
#     4   9  15  21  28  39  58  88 128 173 222 277
#     4  10  20  34  53  76 100 128 165 208 253 302
#     4   9  16  26  41  61  84 111 145 188 238 288
#     4  11  23  38  55  77 107 140 174 211 253 301
#     4   9  15  22  32  47  69  97 132 178 229 279
#     4   9  19  36  58  82 107 137 173 212 253 297
#
# _framework density 21.451118000000001
#
# number of rings (size 3 to 8) (size 9 to 14) (size 15 to 20)
#    0.000    2.500    0.000    3.000    0.000    9.333 
#    0.000    3.333    0.000    0.000    0.000    0.000 
#    0.000    0.000    0.000    0.000    0.000    0.833 
#
# Total GULP energy -267962.993096 kJ/mol
# GULP energy per Si atom -5582.562356 kJ/mol
# Density = 2.140229 g / cm^3
# Si number density = 21.451118 Si / 1000 Ang^3
#
#
#
# Elastic Constant Matrix: (Units=GPa)
#
#
# Indices 1 2 3 4 5 6 
#
# 1 197.2776 10.6472 130.0623 0.0000 0.0000 0.0000
# 2 10.6472 28.7482 4.1503 0.0000 0.0000 0.0000
# 3 130.0623 4.1503 227.3086 0.0000 0.0000 0.0000
# 4 0.0000 0.0000 0.0000 60.2250 0.0000 0.0000
# 5 0.0000 0.0000 0.0000 0.0000 16.4714 0.0000
# 6 0.0000 0.0000 0.0000 0.0000 0.0000 11.6635
#
#
#
# Elastic Compliance Matrix: (Units=1/GPa)
#
#
# Indices 1 2 3 4 5 6 
#
# 1 0.008301 -0.002395 -0.004706 0.000000 0.000000 0.000000
# 2 -0.002395 0.035568 0.000721 0.000000 0.000000 0.000000
# 3 -0.004706 0.000721 0.007079 0.000000 0.000000 0.000000
# 4 0.000000 0.000000 0.000000 0.016604 0.000000 0.000000
# 5 0.000000 0.000000 0.000000 0.000000 0.060711 0.000000
# 6 0.000000 0.000000 0.000000 0.000000 0.000000 0.085738
#
#
# Mechanical properties :
#
#
# Convention : Reuss Voigt Hill
#
# Bulk Modulus (GPa) = 26.18659 82.56157 54.37408
# Shear Modulus (GPa) = 20.87779 38.23696 29.55737
#
# Velocity S-wave (km/s) = 3.12312 4.22657 3.71603
# Velocity P-wave (km/s) = 5.02386 7.89875 6.61927
#
# Compressibility (1/GPa) = 0.03818749
#
# Stress axis : x y z
#
# Youngs Moduli (GPa) = 120.47126 28.11545 141.26812
#
# Poissons Ratio (x) = 0.06733 0.66478
# Poissons Ratio (y) = 0.28851 -0.10184
# Poissons Ratio (z) = 0.56692 -0.02027
#
# Static dielectric constant tensor:
#      x y z
#    x 1.763530 0.000000 0.000000 
#    y 0.000000 1.909930 0.000000 
#    z 0.000000 0.000000 1.796410 
# 
# From -- ./inp_files/43474.got.cif
#   From: 2010.05.17/outbox.cif.g08.bks.cpg/sg67_22_cif.got.tgz:43474.got - 2010.06.03 18:28:57.
