data_PCOD9502950
_publ_section_title
;
Structure prediction by ZEFSAII (Michael W. Deem and Ramdas Pophale) SiO2 
 PCOD9502950
Probable space group: C M M A
;
_chemical_formula_sum "Si O2"
_cell_formula_units_Z 64
_cell_length_a 8.799756
_cell_length_b 18.722234
_cell_length_c 20.877939
_cell_angle_alpha 90.000000
_cell_angle_beta 90.000000
_cell_angle_gamma 90.000000
_cell_volume 3439.663228
_symmetry_space_group_name_H-M "C M M A"
_symmetry_group_IT_number 67
_symmetry_cell_setting 'orthorhombic'
loop_
_space_group_symop_operation_xyz
x,y,z
-x,1/2-y,z
x,-y,-z
-x,1/2+y,-z
-x,-y,-z
x,1/2+y,-z
-x,y,z
x,1/2-y,z
1/2+x,1/2+y,z
1/2-x,-y,z
1/2+x,1/2-y,-z
1/2-x,y,-z
1/2-x,1/2-y,-z
1/2+x,y,-z
1/2-x,1/2+y,z
1/2+x,-y,z
loop_
_atom_site_type_symbol
_atom_site_label
_atom_site_fract_x
_atom_site_fract_y
_atom_site_fract_z
Si Si1 0.817986 0.421340 0.567896
Si Si2 0.181358 0.165798 0.930276
Si Si3 0.182562 0.166409 0.694821
Si Si4 0.681117 0.079007 0.812460
O O1 0.750000 0.500000 0.580669
O O2 0.750000 0.396888 0.500000
O O3 0.781028 0.369286 0.626540
O O4 0.000000 0.426917 0.562460
O O5 0.210730 0.250000 0.917269
O O6 0.256206 0.118245 0.875591
O O7 0.000000 0.155316 0.930915
O O8 0.250000 0.149426 0.000000
O O9 0.221260 0.250000 0.695676
O O10 0.265180 0.124350 0.751238
O O11 0.000000 0.160011 0.704343
O O12 0.500000 0.075047 0.814636
O O13 0.750000 0.000000 0.808114
#
# Coordination Sequence:
#
# PCOD9502950 Si02
#       4
#    16  16  16  16
#     4  10  20  35  57  83 113 150 190 234 284 339
#     4  10  21  39  63  90 121 155 191 234 284 339
#     4  10  22  40  60  84 116 152 190 236 290 344
#     4  12  25  40  60  86 116 152 195 240 288 342
#
# _framework density 18.606473000000001
#
# number of rings (size 3 to 8) (size 9 to 14) (size 15 to 20)
#    0.000    1.500    0.000    6.000    0.000   10.000 
#    0.000    2.500    0.000    0.000    0.000    0.000 
#    0.000    0.000    0.000    0.000    0.000    0.000 
#
# Total GULP energy -178951.861430 kJ/mol
# GULP energy per Si atom -5592.245670 kJ/mol
# Density = 1.856412 g / cm^3
# Si number density = 18.606473 Si / 1000 Ang^3
#
#
#
# Elastic Constant Matrix: (Units=GPa)
#
#
# Indices 1 2 3 4 5 6 
#
# 1 109.0392 93.5901 101.0435 0.0000 0.0000 0.0000
# 2 93.5901 150.5694 133.5862 0.0000 0.0000 0.0000
# 3 101.0435 133.5862 181.4011 0.0000 0.0000 0.0000
# 4 0.0000 0.0000 0.0000 36.8053 0.0000 0.0000
# 5 0.0000 0.0000 0.0000 0.0000 35.0321 0.0000
# 6 0.0000 0.0000 0.0000 0.0000 0.0000 24.7038
#
#
#
# Elastic Compliance Matrix: (Units=1/GPa)
#
#
# Indices 1 2 3 4 5 6 
#
# 1 0.021878 -0.008040 -0.006266 0.000000 0.000000 0.000000
# 2 -0.008040 0.022113 -0.011806 0.000000 0.000000 0.000000
# 3 -0.006266 -0.011806 0.017697 0.000000 0.000000 0.000000
# 4 0.000000 0.000000 0.000000 0.027170 0.000000 0.000000
# 5 0.000000 0.000000 0.000000 0.000000 0.028545 0.000000
# 6 0.000000 0.000000 0.000000 0.000000 0.000000 0.040480
#
#
# Mechanical properties :
#
#
# Convention : Reuss Voigt Hill
#
# Bulk Modulus (GPa) = 105.65506 121.93882 113.79694
# Shear Modulus (GPa) = 23.44530 26.82758 25.13644
#
# Velocity S-wave (km/s) = 3.55359 3.80128 3.67952
# Velocity P-wave (km/s) = 8.58747 9.21652 8.90755
#
# Compressibility (1/GPa) = 0.00946476
#
# Stress axis : x y z
#
# Youngs Moduli (GPa) = 45.70798 45.22148 56.50583
#
# Poissons Ratio (x) = 0.36356 0.35406
# Poissons Ratio (y) = 0.36747 0.66713
# Poissons Ratio (z) = 0.28640 0.53390
#
# Static dielectric constant tensor:
#      x y z
#    x 1.590480 0.000000 0.000000 
#    y 0.000000 1.613670 0.000000 
#    z 0.000000 0.000000 1.614900 
# 
# From -- ./inp_files/36566.got.cif
#   From: 2010.05.17/outbox.cif.g08.bks.cpg/sg67_19_cif.got.tgz:36566.got - 2010.06.03 18:28:57.
