data_PCOD9502735
_publ_section_title
;
Structure prediction by ZEFSAII (Michael W. Deem and Ramdas Pophale) SiO2 
 PCOD9502735
Probable space group: C M M A
;
_chemical_formula_sum "Si O2"
_cell_formula_units_Z 104
_cell_length_a 30.786633
_cell_length_b 8.038488
_cell_length_c 21.146426
_cell_angle_alpha 90.000000
_cell_angle_beta 90.000000
_cell_angle_gamma 90.000000
_cell_volume 5233.274789
_symmetry_space_group_name_H-M "C M M A"
_symmetry_group_IT_number 67
_symmetry_cell_setting 'orthorhombic'
loop_
_space_group_symop_operation_xyz
x,y,z
-x,1/2-y,z
x,-y,-z
-x,1/2+y,-z
-x,-y,-z
x,1/2+y,-z
-x,y,z
x,1/2-y,z
1/2+x,1/2+y,z
1/2-x,-y,z
1/2+x,1/2-y,-z
1/2-x,y,-z
1/2-x,1/2-y,-z
1/2+x,y,-z
1/2-x,1/2+y,z
1/2+x,-y,z
loop_
_atom_site_type_symbol
_atom_site_label
_atom_site_fract_x
_atom_site_fract_y
_atom_site_fract_z
Si Si1 0.673714 0.058294 0.572520
Si Si2 0.500000 0.050480 0.571521
Si Si3 0.449806 0.546817 0.770793
Si Si4 0.702826 0.550909 0.293856
Si Si5 0.200542 0.551613 0.071636
Si Si6 0.861102 0.049594 0.817713
Si Si7 0.086941 0.944006 0.364410
O O1 0.686238 0.250000 0.570306
O O2 0.698243 0.982003 0.633967
O O3 0.678903 0.000000 0.500000
O O4 0.624149 0.037844 0.596784
O O5 0.500000 0.250000 0.581650
O O6 0.500000 0.000000 0.500000
O O7 0.457629 0.966267 0.599424
O O8 0.500000 0.489411 0.777435
O O9 0.451957 0.750000 0.769768
O O10 0.411634 0.495343 0.818986
O O11 0.427360 0.494437 0.704791
O O12 0.699933 0.750000 0.296324
O O13 0.750000 0.500000 0.268652
O O14 0.664764 0.491629 0.247105
O O15 0.199096 0.750000 0.074238
O O16 0.250000 0.500000 0.085479
O O17 0.167427 0.483875 0.124025
O O18 0.190128 0.500000 0.000000
O O19 0.861997 0.250000 0.820950
O O20 0.099904 0.750000 0.360081
#
# Coordination Sequence:
#
# PCOD9502735 Si02
#       7
#    16   8  16  16  16  16  16
#     4  11  24  40  56  77 104 141 184 232 289 345
#     4  12  24  36  50  72 104 136 177 230 287 352
#     4   9  17  32  57  85 110 141 184 229 276 330
#     4  11  24  39  58  83 111 144 187 234 287 345
#     4  10  20  34  56  87 122 157 192 227 273 327
#     4  10  20  36  60  88 117 151 189 232 281 332
#     4  11  20  35  57  78 102 137 180 229 287 345
#
# _framework density 19.872833
#
# number of rings (size 3 to 8) (size 9 to 14) (size 15 to 20)
#    0.000    1.538    2.308    3.923    0.000    4.615 
#    0.000    1.538    0.000    0.462    0.000    0.000 
#    0.000    0.000    0.000    0.000    0.000    0.615 
#
# Total GULP energy -289995.367562 kJ/mol
# GULP energy per Si atom -5576.833992 kJ/mol
# Density = 1.982760 g / cm^3
# Si number density = 19.872833 Si / 1000 Ang^3
#
#
#
# Elastic Constant Matrix: (Units=GPa)
#
#
# Indices 1 2 3 4 5 6 
#
# 1 127.4786 -5.3441 63.1864 0.0000 0.0000 0.0000
# 2 -5.3441 27.0625 9.7263 0.0000 0.0000 0.0000
# 3 63.1864 9.7263 116.3558 0.0000 0.0000 0.0000
# 4 0.0000 0.0000 0.0000 -4.1596 0.0000 0.0000
# 5 0.0000 0.0000 0.0000 0.0000 27.3522 0.0000
# 6 0.0000 0.0000 0.0000 0.0000 0.0000 9.0029
#
#
#
# Elastic Compliance Matrix: (Units=1/GPa)
#
#
# Indices 1 2 3 4 5 6 
#
# 1 0.011253 0.004555 -0.006492 0.000000 0.000000 0.000000
# 2 0.004555 0.039940 -0.005812 0.000000 0.000000 0.000000
# 3 -0.006492 -0.005812 0.012606 0.000000 0.000000 0.000000
# 4 0.000000 0.000000 0.000000 -0.240410 0.000000 0.000000
# 5 0.000000 0.000000 0.000000 0.000000 0.036560 0.000000
# 6 0.000000 0.000000 0.000000 0.000000 0.000000 0.111075
#
#
# Mechanical properties :
#
#
# Convention : Reuss Voigt Hill
#
# Bulk Modulus (GPa) = 20.70345 45.11490 32.90918
# Shear Modulus (GPa) = 1906.65673 19.99432 963.32553
#
# Velocity S-wave (km/s) = 31.00825 3.17537 22.04081
# Velocity P-wave (km/s) = 35.95074 6.01623 25.77451
#
# Compressibility (1/GPa) = 0.04830113
#
# Stress axis : x y z
#
# Youngs Moduli (GPa) = 88.86410 25.03750 79.33041
#
# Poissons Ratio (x) = -0.11405 0.51499
# Poissons Ratio (y) = -0.40481 0.46110
# Poissons Ratio (z) = 0.57688 0.14553
#
# Static dielectric constant tensor:
#      x y z
#    x 1.733680 0.000000 0.000000 
#    y 0.000000 1.723320 0.000000 
#    z 0.000000 0.000000 1.722090 
# 
# From -- ./inp_files/37551.got.cif
#   From: 2010.05.17/outbox.cif.g08.bks.cpg/sg67_19_cif.got.tgz:37551.got - 2010.06.03 18:28:57.
