data_PCOD9502872
_publ_section_title
;
Structure prediction by ZEFSAII (Michael W. Deem and Ramdas Pophale) SiO2 
 PCOD9502872
Probable space group: C M M A
;
_chemical_formula_sum "Si O2"
_cell_formula_units_Z 96
_cell_length_a 23.771886
_cell_length_b 17.498740
_cell_length_c 12.448050
_cell_angle_alpha 90.000000
_cell_angle_beta 90.000000
_cell_angle_gamma 90.000000
_cell_volume 5178.115595
_symmetry_space_group_name_H-M "C M M A"
_symmetry_group_IT_number 67
_symmetry_cell_setting 'orthorhombic'
loop_
_space_group_symop_operation_xyz
x,y,z
-x,1/2-y,z
x,-y,-z
-x,1/2+y,-z
-x,-y,-z
x,1/2+y,-z
-x,y,z
x,1/2-y,z
1/2+x,1/2+y,z
1/2-x,-y,z
1/2+x,1/2-y,-z
1/2-x,y,-z
1/2-x,1/2-y,-z
1/2+x,y,-z
1/2-x,1/2+y,z
1/2+x,-y,z
loop_
_atom_site_type_symbol
_atom_site_label
_atom_site_fract_x
_atom_site_fract_y
_atom_site_fract_z
Si Si1 0.500000 0.985964 0.376750
Si Si2 0.176920 0.841872 0.399805
Si Si3 0.883208 0.597851 0.835205
Si Si4 0.500000 0.340226 0.736480
Si Si5 0.309428 0.159166 0.640969
Si Si6 0.402268 0.434443 0.240870
Si Si7 0.435639 0.841548 0.962551
O O1 0.500000 0.894369 0.366197
O O2 0.500000 0.000000 0.500000
O O3 0.552462 0.024717 0.317379
O O4 0.166418 0.750000 0.392048
O O5 0.242649 0.853926 0.371041
O O6 0.166186 0.865867 0.524375
O O7 0.141130 0.890736 0.316818
O O8 0.837284 0.625560 0.748128
O O9 0.880661 0.506471 0.828460
O O10 0.942723 0.633426 0.794314
O O11 0.887396 0.625971 0.958052
O O12 0.500000 0.250000 0.721266
O O13 0.318217 0.250000 0.646256
O O14 0.427168 0.374605 0.156185
O O15 0.500000 0.863881 0.994868
O O16 0.432853 0.750000 0.964815
#
# Coordination Sequence:
#
# PCOD9502872 Si02
#       7
#     8  16  16   8  16  16  16
#     4  10  24  39  53  85 129 159 193 243 297 360
#     4   9  20  39  61  85 119 157 202 250 300 365
#     4  11  22  35  60  87 118 152 196 252 299 353
#     4  10  20  35  55  83 113 151 195 240 290 350
#     4   9  19  38  62  88 115 154 204 254 300 350
#     4  11  23  38  58  84 124 159 193 239 308 361
#     4  11  22  39  61  85 115 156 204 245 295 365
#
# _framework density 18.539563000000001
#
# number of rings (size 3 to 8) (size 9 to 14) (size 15 to 20)
#    0.000    1.833    1.667    3.500    4.667    1.333 
#    0.000    3.333    0.000    5.000    0.000    0.000 
#    0.000    0.000    0.000    0.000    0.000    0.000 
#
# Total GULP energy -267478.463885 kJ/mol
# GULP energy per Si atom -5572.467998 kJ/mol
# Density = 1.849737 g / cm^3
# Si number density = 18.539563 Si / 1000 Ang^3
#
#
#
# Elastic Constant Matrix: (Units=GPa)
#
#
# Indices 1 2 3 4 5 6 
#
# 1 44.2387 31.7977 27.6061 0.0000 0.0000 0.0000
# 2 31.7977 76.6247 39.9945 0.0000 0.0000 0.0000
# 3 27.6061 39.9945 106.7277 0.0000 0.0000 0.0000
# 4 0.0000 0.0000 0.0000 31.9843 0.0000 0.0000
# 5 0.0000 0.0000 0.0000 0.0000 -66.4670 0.0000
# 6 0.0000 0.0000 0.0000 0.0000 0.0000 15.2639
#
#
#
# Elastic Compliance Matrix: (Units=1/GPa)
#
#
# Indices 1 2 3 4 5 6 
#
# 1 0.033748 -0.011746 -0.004328 0.000000 0.000000 0.000000
# 2 -0.011746 0.020312 -0.004573 0.000000 0.000000 0.000000
# 3 -0.004328 -0.004573 0.012203 0.000000 0.000000 0.000000
# 4 0.000000 0.000000 0.000000 0.031265 0.000000 0.000000
# 5 0.000000 0.000000 0.000000 0.000000 -0.015045 0.000000
# 6 0.000000 0.000000 0.000000 0.000000 0.000000 0.065514
#
#
# Mechanical properties :
#
#
# Convention : Reuss Voigt Hill
#
# Bulk Modulus (GPa) = 40.04985 47.37643 43.71314
# Shear Modulus (GPa) = 25.30191 4.70244 15.00218
#
# Velocity S-wave (km/s) = 3.69826 1.59435 2.84773
# Velocity P-wave (km/s) = 6.31549 5.38507 5.86875
#
# Compressibility (1/GPa) = 0.02496888
#
# Stress axis : x y z
#
# Youngs Moduli (GPa) = 29.63157 49.23195 81.94815
#
# Poissons Ratio (x) = 0.57827 0.35464
# Poissons Ratio (y) = 0.34805 0.37479
# Poissons Ratio (z) = 0.12823 0.22516
#
# Static dielectric constant tensor:
#      x y z
#    x 1.704850 0.000000 0.000000 
#    y 0.000000 1.635520 0.000000 
#    z 0.000000 0.000000 1.670120 
# 
# From -- ./inp_files/21978.got.cif
#   From: 2010.05.17/outbox.cif.g08.bks.cpg/sg67_11_cif.got.tgz:21978.got - 2010.06.03 18:28:57.
