data_PCOD9502942
_publ_section_title
;
Structure prediction by ZEFSAII (Michael W. Deem and Ramdas Pophale) SiO2 
 PCOD9502942
Probable space group: C M M A
;
_chemical_formula_sum "Si O2"
_cell_formula_units_Z 96
_cell_length_a 18.559118
_cell_length_b 19.638931
_cell_length_c 15.227324
_cell_angle_alpha 90.000000
_cell_angle_beta 90.000000
_cell_angle_gamma 90.000000
_cell_volume 5550.073900
_symmetry_space_group_name_H-M "C M M A"
_symmetry_group_IT_number 67
_symmetry_cell_setting 'orthorhombic'
loop_
_space_group_symop_operation_xyz
x,y,z
-x,1/2-y,z
x,-y,-z
-x,1/2+y,-z
-x,-y,-z
x,1/2+y,-z
-x,y,z
x,1/2-y,z
1/2+x,1/2+y,z
1/2-x,-y,z
1/2+x,1/2-y,-z
1/2-x,y,-z
1/2-x,1/2-y,-z
1/2+x,y,-z
1/2-x,1/2+y,z
1/2+x,-y,z
loop_
_atom_site_type_symbol
_atom_site_label
_atom_site_fract_x
_atom_site_fract_y
_atom_site_fract_z
Si Si1 0.710502 0.673610 0.727044
Si Si2 0.414588 0.047775 0.084802
Si Si3 0.083691 0.550202 0.582632
Si Si4 0.309829 0.171429 0.070387
Si Si5 0.186127 0.328132 0.433323
Si Si6 0.332937 0.475191 0.262983
O O1 0.678876 0.750000 0.710692
O O2 0.723724 0.669307 0.831478
O O3 0.779667 0.669254 0.664268
O O4 0.665538 0.604982 0.709495
O O5 0.500000 0.054126 0.101593
O O6 0.376997 0.120631 0.067995
O O7 0.373427 0.018617 0.170038
O O8 0.404386 0.000000 0.000000
O O9 0.090421 0.500000 0.500000
O O10 0.119965 0.621666 0.559084
O O11 0.127389 0.518493 0.663352
O O12 0.000000 0.557437 0.604984
O O13 0.330115 0.250000 0.052891
O O14 0.250000 0.150346 0.000000
O O15 0.167741 0.250000 0.453656
O O16 0.250000 0.348992 0.500000
O O17 0.250000 0.500000 0.255679
#
# Coordination Sequence:
#
# PCOD9502942 Si02
#       6
#    16  16  16  16  16  16
#     4   9  18  33  53  82 108 133 180 230 270 314
#     4  10  23  37  53  81 116 146 179 229 282 332
#     4  11  24  38  55  83 118 148 180 229 282 334
#     4   9  19  34  55  80 107 141 185 229 268 324
#     4  10  20  35  57  82 109 144 187 229 268 323
#     4  11  21  35  60  84 106 148 188 228 272 330
#
# _framework density 17.297066999999998
#
# number of rings (size 3 to 8) (size 9 to 14) (size 15 to 20)
#    0.000    2.000    1.667    1.500    4.667    0.667 
#    0.000    0.000    0.000    2.500    0.000   11.667 
#    0.000    0.000    0.000    0.000    0.000    0.000 
#
# Total GULP energy -267647.831177 kJ/mol
# GULP energy per Si atom -5575.996483 kJ/mol
# Density = 1.725770 g / cm^3
# Si number density = 17.297067 Si / 1000 Ang^3
#
#
#
# Elastic Constant Matrix: (Units=GPa)
#
#
# Indices 1 2 3 4 5 6 
#
# 1 140.7424 61.1978 71.9429 0.0000 0.0000 0.0000
# 2 61.1978 77.4700 34.9349 0.0000 0.0000 0.0000
# 3 71.9429 34.9349 68.3464 0.0000 0.0000 0.0000
# 4 0.0000 0.0000 0.0000 24.6829 0.0000 0.0000
# 5 0.0000 0.0000 0.0000 0.0000 25.6828 0.0000
# 6 0.0000 0.0000 0.0000 0.0000 0.0000 -9.9633
#
#
#
# Elastic Compliance Matrix: (Units=1/GPa)
#
#
# Indices 1 2 3 4 5 6 
#
# 1 0.018180 -0.007449 -0.015329 0.000000 0.000000 0.000000
# 2 -0.007449 0.019827 -0.002294 0.000000 0.000000 0.000000
# 3 -0.015329 -0.002294 0.031939 0.000000 0.000000 0.000000
# 4 0.000000 0.000000 0.000000 0.040514 0.000000 0.000000
# 5 0.000000 0.000000 0.000000 0.000000 0.038937 0.000000
# 6 0.000000 0.000000 0.000000 0.000000 0.000000 -0.100368
#
#
# Mechanical properties :
#
#
# Convention : Reuss Voigt Hill
#
# Bulk Modulus (GPa) = 50.49728 69.19000 59.84364
# Shear Modulus (GPa) = 47.27173 15.97937 31.62555
#
# Velocity S-wave (km/s) = 5.23342 3.04274 4.28059
# Velocity P-wave (km/s) = 8.11022 7.24101 7.68791
#
# Compressibility (1/GPa) = 0.01980305
#
# Stress axis : x y z
#
# Youngs Moduli (GPa) = 55.00667 50.43731 31.30926
#
# Poissons Ratio (x) = 0.37568 0.47994
# Poissons Ratio (y) = 0.40972 0.07182
# Poissons Ratio (z) = 0.84320 0.11569
#
# Static dielectric constant tensor:
#      x y z
#    x 1.545820 0.000000 0.000000 
#    y 0.000000 1.613590 0.000000 
#    z 0.000000 0.000000 1.589420 
# 
# From -- ./inp_files/27140.got.cif
#   From: 2010.05.17/outbox.cif.g08.bks.cpg/sg67_14_cif.got.tgz:27140.got - 2010.06.03 18:28:57.
