data_PCOD9502090
_publ_section_title
;
Structure prediction by ZEFSAII (Michael W. Deem and Ramdas Pophale) SiO2 
 PCOD9502090
Probable space group: C M M A
;
_chemical_formula_sum "Si O2"
_cell_formula_units_Z 96
_cell_length_a 14.504570
_cell_length_b 20.131633
_cell_length_c 14.793390
_cell_angle_alpha 90.000000
_cell_angle_beta 90.000000
_cell_angle_gamma 90.000000
_cell_volume 4319.679940
_symmetry_space_group_name_H-M "C M M A"
_symmetry_group_IT_number 67
_symmetry_cell_setting 'orthorhombic'
loop_
_space_group_symop_operation_xyz
x,y,z
-x,1/2-y,z
x,-y,-z
-x,1/2+y,-z
-x,-y,-z
x,1/2+y,-z
-x,y,z
x,1/2-y,z
1/2+x,1/2+y,z
1/2-x,-y,z
1/2+x,1/2-y,-z
1/2-x,y,-z
1/2-x,1/2-y,-z
1/2+x,y,-z
1/2-x,1/2+y,z
1/2+x,-y,z
loop_
_atom_site_type_symbol
_atom_site_label
_atom_site_fract_x
_atom_site_fract_y
_atom_site_fract_z
Si Si1 0.104164 0.169744 0.546422
Si Si2 0.344983 0.176861 0.960349
Si Si3 0.395096 0.405299 0.790857
Si Si4 0.213207 0.829943 0.638854
Si Si5 0.101866 0.823797 0.156787
Si Si6 0.112036 0.532414 0.100691
O O1 0.099465 0.250000 0.549469
O O2 0.152170 0.153958 0.450300
O O3 0.180193 0.151129 0.621138
O O4 0.000000 0.143961 0.555291
O O5 0.321134 0.250000 0.924810
O O6 0.392331 0.136392 0.883283
O O7 0.250000 0.147448 0.000000
O O8 0.405664 0.183576 0.048469
O O9 0.500000 0.406881 0.755857
O O10 0.329509 0.368801 0.721464
O O11 0.366414 0.477201 0.825049
O O12 0.207429 0.750000 0.650346
O O13 0.140456 0.750000 0.186751
O O14 0.144868 0.898196 0.149508
O O15 0.000000 0.828132 0.199253
O O16 0.000000 0.539730 0.092802
O O17 0.138923 0.500000 0.000000
#
# Coordination Sequence:
#
# PCOD9502090 Si02
#       6
#    16  16  16  16  16  16
#     4   8  14  27  46  69 108 158 199 243 304 368
#     4  10  20  31  43  64  97 137 187 247 303 355
#     4  11  20  30  48  71 103 147 197 258 315 354
#     4   9  17  27  44  76 110 147 206 262 299 356
#     4   9  16  29  49  66  84 124 183 236 290 363
#     4   9  16  28  44  68 101 134 179 243 313 376
#
# _framework density 22.223868
#
# number of rings (size 3 to 8) (size 9 to 14) (size 15 to 20)
#    0.000    2.667    1.667    2.500    0.000    2.667 
#    0.000    1.667    0.000    2.000    0.000    7.000 
#    0.000    3.333    0.000   16.000    0.000  138.833 
#
# Total GULP energy -267207.545019 kJ/mol
# GULP energy per Si atom -5566.823855 kJ/mol
# Density = 2.217329 g / cm^3
# Si number density = 22.223868 Si / 1000 Ang^3
#
#
#
# Elastic Constant Matrix: (Units=GPa)
#
#
# Indices 1 2 3 4 5 6 
#
# 1 134.9918 30.2577 33.8001 0.0000 0.0000 0.0000
# 2 30.2577 130.4251 43.9765 0.0000 0.0000 0.0000
# 3 33.8001 43.9765 59.2414 0.0000 0.0000 0.0000
# 4 0.0000 0.0000 0.0000 19.9567 0.0000 0.0000
# 5 0.0000 0.0000 0.0000 0.0000 24.2122 0.0000
# 6 0.0000 0.0000 0.0000 0.0000 0.0000 226.8944
#
#
#
# Elastic Compliance Matrix: (Units=1/GPa)
#
#
# Indices 1 2 3 4 5 6 
#
# 1 0.008663 -0.000458 -0.004603 0.000000 0.000000 0.000000
# 2 -0.000458 0.010251 -0.007349 0.000000 0.000000 0.000000
# 3 -0.004603 -0.007349 0.024961 0.000000 0.000000 0.000000
# 4 0.000000 0.000000 0.000000 0.050109 0.000000 0.000000
# 5 0.000000 0.000000 0.000000 0.000000 0.041301 0.000000
# 6 0.000000 0.000000 0.000000 0.000000 0.000000 0.004407
#
#
# Mechanical properties :
#
#
# Convention : Reuss Voigt Hill
#
# Bulk Modulus (GPa) = 52.47387 60.08076 56.27731
# Shear Modulus (GPa) = 29.26313 68.65426 48.95869
#
# Velocity S-wave (km/s) = 3.63263 5.56410 4.69868
# Velocity P-wave (km/s) = 6.42320 8.26873 7.40369
#
# Compressibility (1/GPa) = 0.01905710
#
# Stress axis : x y z
#
# Youngs Moduli (GPa) = 115.43409 97.54942 40.06205
#
# Poissons Ratio (x) = 0.04466 0.18440
# Poissons Ratio (y) = 0.05284 0.29440
# Poissons Ratio (z) = 0.53132 0.71685
#
# Static dielectric constant tensor:
#      x y z
#    x 1.953080 0.000000 0.000000 
#    y 0.000000 1.929310 0.000000 
#    z 0.000000 0.000000 1.814470 
# 
# From -- ./inp_files/27199.got.cif
#   From: 2010.05.17/outbox.cif.g08.bks.cpg/sg67_14_cif.got.tgz:27199.got - 2010.06.03 18:28:57.
