data_PCOD9502892
_publ_section_title
;
Structure prediction by ZEFSAII (Michael W. Deem and Ramdas Pophale) SiO2 
 PCOD9502892
Probable space group: C M M A
;
_chemical_formula_sum "Si O2"
_cell_formula_units_Z 96
_cell_length_a 23.355782
_cell_length_b 15.208226
_cell_length_c 14.419888
_cell_angle_alpha 90.000000
_cell_angle_beta 90.000000
_cell_angle_gamma 90.000000
_cell_volume 5121.944377
_symmetry_space_group_name_H-M "C M M A"
_symmetry_group_IT_number 67
_symmetry_cell_setting 'orthorhombic'
loop_
_space_group_symop_operation_xyz
x,y,z
-x,1/2-y,z
x,-y,-z
-x,1/2+y,-z
-x,-y,-z
x,1/2+y,-z
-x,y,z
x,1/2-y,z
1/2+x,1/2+y,z
1/2-x,-y,z
1/2+x,1/2-y,-z
1/2-x,y,-z
1/2-x,1/2-y,-z
1/2+x,y,-z
1/2-x,1/2+y,z
1/2+x,-y,z
loop_
_atom_site_type_symbol
_atom_site_label
_atom_site_fract_x
_atom_site_fract_y
_atom_site_fract_z
Si Si1 0.682119 0.994020 0.604932
Si Si2 0.373587 0.645885 0.952016
Si Si3 0.877072 0.850902 0.709573
Si Si4 0.000000 0.355872 0.238802
Si Si5 0.798498 0.351742 0.117853
Si Si6 0.184803 0.357106 0.768193
Si Si7 0.500000 0.101058 0.976706
O O1 0.672571 0.910531 0.673716
O O2 0.658405 0.000000 0.500000
O O3 0.750000 0.000000 0.597903
O O4 0.660323 0.081641 0.653697
O O5 0.362978 0.750000 0.952728
O O6 0.361822 0.617506 0.846665
O O7 0.324829 0.608711 0.023004
O O8 0.439126 0.634668 0.983650
O O9 0.872865 0.750000 0.676405
O O10 0.853022 0.851204 0.814059
O O11 0.942169 0.882441 0.710921
O O12 0.000000 0.250000 0.236151
O O13 0.000000 0.385098 0.132963
O O14 0.782279 0.250000 0.098771
O O15 0.744795 0.384266 0.179893
O O16 0.186081 0.250000 0.753172
O O17 0.500000 0.000000 0.000000
#
# Coordination Sequence:
#
# PCOD9502892 Si02
#       7
#    16  16  16   8  16  16   8
#     4  11  24  40  60  86 117 152 195 252 307 355
#     4  10  20  35  56  80 117 160 194 230 280 343
#     4  10  20  37  63  89 115 151 196 247 294 344
#     4  10  20  38  63  84 114 158 199 243 289 336
#     4   9  16  31  56  85 115 150 189 230 278 339
#     4  10  21  37  58  86 120 157 193 234 293 359
#     4  12  24  32  48  84 121 156 196 235 272 336
#
# _framework density 18.742882999999999
#
# number of rings (size 3 to 8) (size 9 to 14) (size 15 to 20)
#    0.000    1.833    3.333    1.250    2.333    2.667 
#    0.000    2.083    0.000    0.000    0.000    2.333 
#    0.000    0.000    0.000    0.000    0.000    0.000 
#
# Total GULP energy -267405.639996 kJ/mol
# GULP energy per Si atom -5570.950833 kJ/mol
# Density = 1.870022 g / cm^3
# Si number density = 18.742883 Si / 1000 Ang^3
#
#
#
# Elastic Constant Matrix: (Units=GPa)
#
#
# Indices 1 2 3 4 5 6 
#
# 1 88.9883 28.3558 30.7300 0.0000 0.0000 0.0000
# 2 28.3558 48.8065 53.7632 0.0000 0.0000 0.0000
# 3 30.7300 53.7632 128.2656 0.0000 0.0000 0.0000
# 4 0.0000 0.0000 0.0000 9.9352 0.0000 0.0000
# 5 0.0000 0.0000 0.0000 0.0000 -48.5468 0.0000
# 6 0.0000 0.0000 0.0000 0.0000 0.0000 18.0636
#
#
#
# Elastic Compliance Matrix: (Units=1/GPa)
#
#
# Indices 1 2 3 4 5 6 
#
# 1 0.013791 -0.008124 0.000101 0.000000 0.000000 0.000000
# 2 -0.008124 0.042849 -0.016014 0.000000 0.000000 0.000000
# 3 0.000101 -0.016014 0.014485 0.000000 0.000000 0.000000
# 4 0.000000 0.000000 0.000000 0.100653 0.000000 0.000000
# 5 0.000000 0.000000 0.000000 0.000000 -0.020599 0.000000
# 6 0.000000 0.000000 0.000000 0.000000 0.000000 0.055360
#
#
# Mechanical properties :
#
#
# Convention : Reuss Voigt Hill
#
# Bulk Modulus (GPa) = 43.38163 54.63982 49.01072
# Shear Modulus (GPa) = 19.06238 6.10448 12.58343
#
# Velocity S-wave (km/s) = 3.19258 1.80666 2.59389
# Velocity P-wave (km/s) = 6.06514 5.79376 5.93100
#
# Compressibility (1/GPa) = 0.02305123
#
# Stress axis : x y z
#
# Youngs Moduli (GPa) = 72.51032 23.33754 69.03883
#
# Poissons Ratio (x) = 0.18959 -0.00697
# Poissons Ratio (y) = 0.58905 1.10561
# Poissons Ratio (z) = -0.00732 0.37373
#
# Static dielectric constant tensor:
#      x y z
#    x 1.764750 0.000000 0.000000 
#    y 0.000000 1.665350 0.000000 
#    z 0.000000 0.000000 1.671000 
# 
# From -- ./inp_files/29340.got.cif
#   From: 2010.05.17/outbox.cif.g08.bks.cpg/sg67_15_cif.got.tgz:29340.got - 2010.06.03 18:28:57.
