data_PCOD9502971
_publ_section_title
;
Structure prediction by ZEFSAII (Michael W. Deem and Ramdas Pophale) SiO2 
 PCOD9502971
Probable space group: C M M A
;
_chemical_formula_sum "Si O2"
_cell_formula_units_Z 96
_cell_length_a 29.186017
_cell_length_b 8.633822
_cell_length_c 20.918418
_cell_angle_alpha 90.000000
_cell_angle_beta 90.000000
_cell_angle_gamma 90.000000
_cell_volume 5271.166796
_symmetry_space_group_name_H-M "C M M A"
_symmetry_group_IT_number 67
_symmetry_cell_setting 'orthorhombic'
loop_
_space_group_symop_operation_xyz
x,y,z
-x,1/2-y,z
x,-y,-z
-x,1/2+y,-z
-x,-y,-z
x,1/2+y,-z
-x,y,z
x,1/2-y,z
1/2+x,1/2+y,z
1/2-x,-y,z
1/2+x,1/2-y,-z
1/2-x,y,-z
1/2-x,1/2-y,-z
1/2+x,y,-z
1/2-x,1/2+y,z
1/2+x,-y,z
loop_
_atom_site_type_symbol
_atom_site_label
_atom_site_fract_x
_atom_site_fract_y
_atom_site_fract_z
Si Si1 0.699622 0.065547 0.429911
Si Si2 0.552167 0.066631 0.106725
Si Si3 0.948457 0.933973 0.752016
Si Si4 0.854991 0.064715 0.312407
Si Si5 0.646103 0.067116 0.932692
Si Si6 0.198712 0.064952 0.810273
O O1 0.702226 0.250000 0.432813
O O2 0.688123 0.000000 0.500000
O O3 0.750000 0.000000 0.412898
O O4 0.664196 0.011766 0.376298
O O5 0.500000 0.025444 0.087860
O O6 0.558915 0.250000 0.096289
O O7 0.556354 0.028361 0.182257
O O8 0.592134 0.971672 0.073119
O O9 0.943975 0.750000 0.767845
O O10 0.907830 0.972849 0.703732
O O11 0.000000 0.958864 0.727221
O O12 0.850338 0.250000 0.317252
O O13 0.825863 0.005422 0.251957
O O14 0.653333 0.250000 0.929467
O O15 0.670873 0.986716 0.873008
O O16 0.663020 0.000000 0.000000
O O17 0.199267 0.250000 0.805536
O O18 0.250000 0.000000 0.814261
#
# Coordination Sequence:
#
# PCOD9502971 Si02
#       6
#    16  16  16  16  16  16
#     4  11  22  38  59  86 121 158 197 240 289 345
#     4  10  20  35  57  85 116 149 188 236 290 347
#     4   9  18  33  56  85 117 153 192 235 284 340
#     4  11  21  36  60  90 122 156 194 237 287 340
#     4  12  25  42  61  83 112 150 192 239 294 352
#     4  12  25  42  62  86 115 148 192 241 290 344
#
# _framework density 18.212287
#
# number of rings (size 3 to 8) (size 9 to 14) (size 15 to 20)
#    0.000    1.167    1.667    6.500    0.000    2.333 
#    0.000    1.667    0.000    0.500    0.000    0.000 
#    0.000    0.000    0.000    0.000    0.000    0.000 
#
# Total GULP energy -268409.899588 kJ/mol
# GULP energy per Si atom -5591.872908 kJ/mol
# Density = 1.817083 g / cm^3
# Si number density = 18.212287 Si / 1000 Ang^3
#
#
#
# Elastic Constant Matrix: (Units=GPa)
#
#
# Indices 1 2 3 4 5 6 
#
# 1 89.3042 31.4437 42.4385 0.0000 0.0000 0.0000
# 2 31.4437 104.1803 27.4163 0.0000 0.0000 0.0000
# 3 42.4385 27.4163 82.5722 0.0000 0.0000 0.0000
# 4 0.0000 0.0000 0.0000 31.8038 0.0000 0.0000
# 5 0.0000 0.0000 0.0000 0.0000 44.4031 0.0000
# 6 0.0000 0.0000 0.0000 0.0000 0.0000 21.6038
#
#
#
# Elastic Compliance Matrix: (Units=1/GPa)
#
#
# Indices 1 2 3 4 5 6 
#
# 1 0.015546 -0.002837 -0.007048 0.000000 0.000000 0.000000
# 2 -0.002837 0.011036 -0.002206 0.000000 0.000000 0.000000
# 3 -0.007048 -0.002206 0.016465 0.000000 0.000000 0.000000
# 4 0.000000 0.000000 0.000000 0.031443 0.000000 0.000000
# 5 0.000000 0.000000 0.000000 0.000000 0.022521 0.000000
# 6 0.000000 0.000000 0.000000 0.000000 0.000000 0.046288
#
#
# Mechanical properties :
#
#
# Convention : Reuss Voigt Hill
#
# Bulk Modulus (GPa) = 53.00896 53.18375 53.09636
# Shear Modulus (GPa) = 28.77381 31.21269 29.99325
#
# Velocity S-wave (km/s) = 3.97912 4.14433 4.06257
# Velocity P-wave (km/s) = 7.09088 7.22261 7.15705
#
# Compressibility (1/GPa) = 0.01886473
#
# Stress axis : x y z
#
# Youngs Moduli (GPa) = 64.32556 90.61576 60.73378
#
# Poissons Ratio (x) = 0.25711 0.42804
# Poissons Ratio (y) = 0.18251 0.13397
# Poissons Ratio (z) = 0.45336 0.19989
#
# Static dielectric constant tensor:
#      x y z
#    x 1.634050 0.000000 0.000000 
#    y 0.000000 1.608850 0.000000 
#    z 0.000000 0.000000 1.597510 
# 
# From -- ./inp_files/37189.got.cif
#   From: 2010.05.17/outbox.cif.g08.bks.cpg/sg67_19_cif.got.tgz:37189.got - 2010.06.03 18:28:57.
