data_PCOD9502115
_publ_section_title
;
Structure prediction by ZEFSAII (Michael W. Deem and Ramdas Pophale) SiO2 
 PCOD9502115
Probable space group: C M M A
;
_chemical_formula_sum "Si O2"
_cell_formula_units_Z 88
_cell_length_a 9.241899
_cell_length_b 25.908455
_cell_length_c 25.604330
_cell_angle_alpha 90.000000
_cell_angle_beta 90.000000
_cell_angle_gamma 90.000000
_cell_volume 6130.785893
_symmetry_space_group_name_H-M "C M M A"
_symmetry_group_IT_number 67
_symmetry_cell_setting 'orthorhombic'
loop_
_space_group_symop_operation_xyz
x,y,z
-x,1/2-y,z
x,-y,-z
-x,1/2+y,-z
-x,-y,-z
x,1/2+y,-z
-x,y,z
x,1/2-y,z
1/2+x,1/2+y,z
1/2-x,-y,z
1/2+x,1/2-y,-z
1/2-x,y,-z
1/2-x,1/2-y,-z
1/2+x,y,-z
1/2-x,1/2+y,z
1/2+x,-y,z
loop_
_atom_site_type_symbol
_atom_site_label
_atom_site_fract_x
_atom_site_fract_y
_atom_site_fract_z
Si Si1 0.325864 0.946139 0.445090
Si Si2 0.833776 0.187066 0.052058
Si Si3 0.326062 0.250000 0.555863
Si Si4 0.172185 0.348209 0.372779
Si Si5 0.825432 0.689437 0.271771
Si Si6 0.332781 0.312804 0.155400
O O1 0.500000 0.952234 0.451908
O O2 0.250000 0.931435 0.500000
O O3 0.300462 0.901416 0.403038
O O4 0.250000 0.000000 0.429823
O O5 0.829988 0.250000 0.052353
O O6 0.759584 0.169912 0.105904
O O7 0.000000 0.171243 0.049769
O O8 0.750000 0.170438 0.000000
O O9 0.500000 0.250000 0.548701
O O10 0.250000 0.250000 0.500000
O O11 0.286619 0.300643 0.589288
O O12 0.255416 0.342058 0.318567
O O13 0.000000 0.343958 0.363298
O O14 0.784715 0.750000 0.278094
O O15 0.781545 0.672025 0.213366
O O16 0.000000 0.686980 0.273775
O O17 0.500000 0.328358 0.148753
O O18 0.331450 0.250000 0.155797
#
# Coordination Sequence:
#
# PCOD9502115 Si02
#       6
#    16  16   8  16  16  16
#     4  10  20  34  51  69  86 108 137 171 210 253
#     4   9  15  21  30  45  64  90 126 167 209 245
#     4  10  20  32  44  62  86 110 133 164 203 246
#     4  10  20  32  46  64  87 111 137 169 209 251
#     4   9  17  28  42  60  81 108 140 170 205 248
#     4   8  14  24  35  48  69  96 128 166 202 239
#
# _framework density 14.353787000000001
#
# number of rings (size 3 to 8) (size 9 to 14) (size 15 to 20)
#    0.000    2.727    0.909    3.273    0.000    5.091 
#    0.000    1.818    0.000    0.000    0.000    0.000 
#    0.000    0.000    0.000    0.000    0.000    0.909 
#
# Total GULP energy -245088.056167 kJ/mol
# GULP energy per Si atom -5570.183095 kJ/mol
# Density = 1.432112 g / cm^3
# Si number density = 14.353787 Si / 1000 Ang^3
#
#
#
# Elastic Constant Matrix: (Units=GPa)
#
#
# Indices 1 2 3 4 5 6 
#
# 1 71.4947 30.7175 76.3760 0.0000 0.0000 0.0000
# 2 30.7175 41.3100 48.8417 0.0000 0.0000 0.0000
# 3 76.3760 48.8417 160.3754 0.0000 0.0000 0.0000
# 4 0.0000 0.0000 0.0000 9.6077 0.0000 0.0000
# 5 0.0000 0.0000 0.0000 0.0000 31.5221 0.0000
# 6 0.0000 0.0000 0.0000 0.0000 0.0000 14.2688
#
#
#
# Elastic Compliance Matrix: (Units=1/GPa)
#
#
# Indices 1 2 3 4 5 6 
#
# 1 0.030286 -0.008544 -0.011821 0.000000 0.000000 0.000000
# 2 -0.008544 0.040238 -0.008186 0.000000 0.000000 0.000000
# 3 -0.011821 -0.008186 0.014358 0.000000 0.000000 0.000000
# 4 0.000000 0.000000 0.000000 0.104083 0.000000 0.000000
# 5 0.000000 0.000000 0.000000 0.000000 0.031724 0.000000
# 6 0.000000 0.000000 0.000000 0.000000 0.000000 0.070083
#
#
# Mechanical properties :
#
#
# Convention : Reuss Voigt Hill
#
# Bulk Modulus (GPa) = 35.99569 65.00562 50.50066
# Shear Modulus (GPa) = 14.00034 18.89605 16.44820
#
# Velocity S-wave (km/s) = 3.12649 3.63223 3.38881
# Velocity P-wave (km/s) = 6.17780 7.93582 7.11134
#
# Compressibility (1/GPa) = 0.02778110
#
# Stress axis : x y z
#
# Youngs Moduli (GPa) = 33.01815 24.85196 69.64771
#
# Poissons Ratio (x) = 0.21233 0.82333
# Poissons Ratio (y) = 0.28210 0.57011
# Poissons Ratio (z) = 0.39032 0.20343
#
# Static dielectric constant tensor:
#      x y z
#    x 1.481420 0.000000 0.000000 
#    y 0.000000 1.448470 0.000000 
#    z 0.000000 0.000000 1.475590 
# 
# From -- ./inp_files/41121.got.cif
#   From: 2010.05.17/outbox.cif.g08.bks.cpg/sg67_21_cif.got.tgz:41121.got - 2010.06.03 18:28:57.
