data_PCOD9502147
_publ_section_title
;
Structure prediction by ZEFSAII (Michael W. Deem and Ramdas Pophale) SiO2 
 PCOD9502147
Probable space group: C M M A
;
_chemical_formula_sum "Si O2"
_cell_formula_units_Z 80
_cell_length_a 7.498230
_cell_length_b 18.615738
_cell_length_c 27.828744
_cell_angle_alpha 90.000000
_cell_angle_beta 90.000000
_cell_angle_gamma 90.000000
_cell_volume 3884.477601
_symmetry_space_group_name_H-M "C M M A"
_symmetry_group_IT_number 67
_symmetry_cell_setting 'orthorhombic'
loop_
_space_group_symop_operation_xyz
x,y,z
-x,1/2-y,z
x,-y,-z
-x,1/2+y,-z
-x,-y,-z
x,1/2+y,-z
-x,y,z
x,1/2-y,z
1/2+x,1/2+y,z
1/2-x,-y,z
1/2+x,1/2-y,-z
1/2-x,y,-z
1/2-x,1/2-y,-z
1/2+x,y,-z
1/2-x,1/2+y,z
1/2+x,-y,z
loop_
_atom_site_type_symbol
_atom_site_label
_atom_site_fract_x
_atom_site_fract_y
_atom_site_fract_z
Si Si1 0.786185 0.832604 0.448159
Si Si2 0.789348 0.662604 0.345358
Si Si3 0.281682 0.166298 0.240678
Si Si4 0.713636 0.083993 0.146361
Si Si5 0.213632 0.167971 0.946725
O O1 0.717753 0.750000 0.450856
O O2 0.750000 0.867253 0.500000
O O3 0.718678 0.863298 0.397173
O O4 0.000000 0.828888 0.444021
O O5 0.774970 0.750000 0.346177
O O6 0.717717 0.640195 0.293275
O O7 0.000000 0.645555 0.344547
O O8 0.500000 0.164500 0.241742
O O9 0.232741 0.250000 0.234747
O O10 0.219479 0.120846 0.195245
O O11 0.500000 0.093918 0.146697
O O12 0.782193 0.122002 0.097957
O O13 0.750000 0.000000 0.145813
O O14 0.282344 0.250000 0.944778
O O15 0.000000 0.171520 0.942277
O O16 0.250000 0.138472 0.000000
#
# Coordination Sequence:
#
# PCOD9502147 Si02
#       5
#    16  16  16  16  16
#     4   8  12  17  26  43  69  99 127 156 195 244
#     4   7  10  17  31  52  74  96 129 172 209 240
#     4   8  13  24  44  65  82 106 145 187 217 245
#     4  10  20  32  47  68  93 118 144 177 217 259
#     4   9  18  33  52  72  92 116 148 182 213 248
#
# _framework density 20.59479
#
# number of rings (size 3 to 8) (size 9 to 14) (size 15 to 20)
#    0.000    3.600    0.000    3.000    0.000    3.600 
#    0.000    2.000    0.000    3.000    0.000    2.800 
#    0.000    0.800    0.000   10.000    0.000    8.400 
#
# Total GULP energy -222679.710202 kJ/mol
# GULP energy per Si atom -5566.992755 kJ/mol
# Density = 2.054792 g / cm^3
# Si number density = 20.594790 Si / 1000 Ang^3
#
#
#
# Elastic Constant Matrix: (Units=GPa)
#
#
# Indices 1 2 3 4 5 6 
#
# 1 56.1912 -1.0076 10.3578 0.0000 0.0000 0.0000
# 2 -1.0076 46.5569 82.3195 0.0000 0.0000 0.0000
# 3 10.3578 82.3195 295.2795 0.0000 0.0000 0.0000
# 4 0.0000 0.0000 0.0000 -7.8447 0.0000 0.0000
# 5 0.0000 0.0000 0.0000 0.0000 12.4471 0.0000
# 6 0.0000 0.0000 0.0000 0.0000 0.0000 10.3194
#
#
#
# Elastic Compliance Matrix: (Units=1/GPa)
#
#
# Indices 1 2 3 4 5 6 
#
# 1 0.018121 0.002990 -0.001469 0.000000 0.000000 0.000000
# 2 0.002990 0.042853 -0.012052 0.000000 0.000000 0.000000
# 3 -0.001469 -0.012052 0.006798 0.000000 0.000000 0.000000
# 4 0.000000 0.000000 0.000000 -0.127474 0.000000 0.000000
# 5 0.000000 0.000000 0.000000 0.000000 0.080340 0.000000
# 6 0.000000 0.000000 0.000000 0.000000 0.000000 0.096905
#
#
# Mechanical properties :
#
#
# Convention : Reuss Voigt Hill
#
# Bulk Modulus (GPa) = 21.40880 64.59634 43.00257
# Shear Modulus (GPa) = 32.43093 23.40821 27.91957
#
# Velocity S-wave (km/s) = 3.97257 3.37502 3.68593
# Velocity P-wave (km/s) = 5.60889 6.82797 6.24823
#
# Compressibility (1/GPa) = 0.04670977
#
# Stress axis : x y z
#
# Youngs Moduli (GPa) = 55.18522 23.33569 147.10286
#
# Poissons Ratio (x) = -0.06977 0.21612
# Poissons Ratio (y) = -0.16500 1.77283
# Poissons Ratio (z) = 0.08108 0.28123
#
# Static dielectric constant tensor:
#      x y z
#    x 1.810600 0.000000 0.000000 
#    y 0.000000 1.666500 0.000000 
#    z 0.000000 0.000000 1.815380 
# 
# From -- ./inp_files/41310.got.cif
#   From: 2010.05.17/outbox.cif.g08.bks.cpg/sg67_21_cif.got.tgz:41310.got - 2010.06.03 18:28:57.
