data_PCOD9502624
_publ_section_title
;
Structure prediction by ZEFSAII (Michael W. Deem and Ramdas Pophale) SiO2 
 PCOD9502624
Probable space group: C M M A
;
_chemical_formula_sum "Si O2"
_cell_formula_units_Z 104
_cell_length_a 34.767011
_cell_length_b 14.095556
_cell_length_c 8.922100
_cell_angle_alpha 90.000000
_cell_angle_beta 90.000000
_cell_angle_gamma 90.000000
_cell_volume 4372.367453
_symmetry_space_group_name_H-M "C M M A"
_symmetry_group_IT_number 67
_symmetry_cell_setting 'orthorhombic'
loop_
_space_group_symop_operation_xyz
x,y,z
-x,1/2-y,z
x,-y,-z
-x,1/2+y,-z
-x,-y,-z
x,1/2+y,-z
-x,y,z
x,1/2-y,z
1/2+x,1/2+y,z
1/2-x,-y,z
1/2+x,1/2-y,-z
1/2-x,y,-z
1/2-x,1/2-y,-z
1/2+x,y,-z
1/2-x,1/2+y,z
1/2+x,-y,z
loop_
_atom_site_type_symbol
_atom_site_label
_atom_site_fract_x
_atom_site_fract_y
_atom_site_fract_z
Si Si1 0.750000 0.623189 0.000000
Si Si2 0.500000 0.865963 0.304541
Si Si3 0.417832 0.635249 0.819342
Si Si4 0.649503 0.637997 0.308021
Si Si5 0.000000 0.634223 0.041829
Si Si6 0.733637 0.395267 0.658544
Si Si7 0.575105 0.634981 0.470410
Si Si8 0.662111 0.637742 0.959443
O O1 0.739442 0.652349 0.175606
O O2 0.705348 0.594487 0.955270
O O3 0.500000 0.750000 0.309261
O O4 0.462762 0.900827 0.390429
O O5 0.500000 0.891488 0.131980
O O6 0.415925 0.750000 0.846861
O O7 0.458241 0.603097 0.893824
O O8 0.422986 0.617504 0.644774
O O9 0.374969 0.600625 0.867686
O O10 0.652707 0.750000 0.344264
O O11 0.688475 0.593685 0.364467
O O12 0.612183 0.598203 0.385419
O O13 0.647904 0.631054 0.129852
O O14 0.000000 0.750000 0.058769
O O15 0.750000 0.500000 0.678135
O O16 0.750000 0.355826 0.500000
O O17 0.574872 0.750000 0.452675
O O18 0.668522 0.750000 0.922546
#
# Coordination Sequence:
#
# PCOD9502624 Si02
#       8
#     8   8  16  16   8  16  16  16
#     4  10  20  34  54  72  95 130 169 212 257 316
#     4   9  15  23  37  57  91 135 171 203 246 301
#     4   9  16  24  37  58  89 126 166 208 251 302
#     4   9  18  32  49  72 100 132 171 215 261 312
#     4   9  15  23  35  53  81 126 172 204 242 297
#     4  10  22  38  55  75 101 132 171 215 266 314
#     4   9  16  25  39  63  95 131 168 208 253 303
#     4   9  17  29  44  67  97 129 164 209 259 306
#
# _framework density 23.785741000000002
#
# number of rings (size 3 to 8) (size 9 to 14) (size 15 to 20)
#    0.000    2.769    0.000    1.846    2.154    6.462 
#    0.000    0.000    0.000    0.000    0.000    0.000 
#    0.000    3.692    0.000    8.923    0.000    2.615 
#
# Total GULP energy -289644.652267 kJ/mol
# GULP energy per Si atom -5570.089467 kJ/mol
# Density = 2.373160 g / cm^3
# Si number density = 23.785741 Si / 1000 Ang^3
#
#
#
# Elastic Constant Matrix: (Units=GPa)
#
#
# Indices 1 2 3 4 5 6 
#
# 1 294.4454 19.4149 102.3877 0.0000 0.0000 0.0000
# 2 19.4149 76.1221 -16.0620 0.0000 0.0000 0.0000
# 3 102.3877 -16.0620 103.6718 0.0000 0.0000 0.0000
# 4 0.0000 0.0000 0.0000 0.8758 0.0000 0.0000
# 5 0.0000 0.0000 0.0000 0.0000 108.2811 0.0000
# 6 0.0000 0.0000 0.0000 0.0000 0.0000 -2.9338
#
#
#
# Elastic Compliance Matrix: (Units=1/GPa)
#
#
# Indices 1 2 3 4 5 6 
#
# 1 0.005668 -0.002716 -0.006019 0.000000 0.000000 0.000000
# 2 -0.002716 0.014882 0.004988 0.000000 0.000000 0.000000
# 3 -0.006019 0.004988 0.016363 0.000000 0.000000 0.000000
# 4 0.000000 0.000000 0.000000 1.141867 0.000000 0.000000
# 5 0.000000 0.000000 0.000000 0.000000 0.009235 0.000000
# 6 0.000000 0.000000 0.000000 0.000000 0.000000 -0.340854
#
#
# Mechanical properties :
#
#
# Convention : Reuss Voigt Hill
#
# Bulk Modulus (GPa) = 33.99124 76.19117 55.09121
# Shear Modulus (GPa) = 5.78395 45.81119 25.79757
#
# Velocity S-wave (km/s) = 1.56108 4.39338 3.29687
# Velocity P-wave (km/s) = 4.19177 7.60510 6.14037
#
# Compressibility (1/GPa) = 0.02941934
#
# Stress axis : x y z
#
# Youngs Moduli (GPa) = 176.42416 67.19615 61.11456
#
# Poissons Ratio (x) = 0.18248 0.36783
# Poissons Ratio (y) = 0.47910 -0.30482
# Poissons Ratio (z) = 1.06184 -0.33515
#
# Static dielectric constant tensor:
#      x y z
#    x 1.878450 0.000000 0.000000 
#    y 0.000000 1.964520 0.000000 
#    z 0.000000 0.000000 1.849180 
# 
# From -- ./inp_files/14782.got.cif
#   From: 2010.05.17/outbox.cif.g08.bks.cpg/sg67_8_cif.got.tgz:14782.got - 2010.06.03 18:28:57.
