data_PCOD9502267
_publ_section_title
;
Structure prediction by ZEFSAII (Michael W. Deem and Ramdas Pophale) SiO2 
 PCOD9502267
Probable space group: C M M A
;
_chemical_formula_sum "Si O2"
_cell_formula_units_Z 72
_cell_length_a 25.804536
_cell_length_b 8.890324
_cell_length_c 17.019468
_cell_angle_alpha 90.000000
_cell_angle_beta 90.000000
_cell_angle_gamma 90.000000
_cell_volume 3904.447824
_symmetry_space_group_name_H-M "C M M A"
_symmetry_group_IT_number 67
_symmetry_cell_setting 'orthorhombic'
loop_
_space_group_symop_operation_xyz
x,y,z
-x,1/2-y,z
x,-y,-z
-x,1/2+y,-z
-x,-y,-z
x,1/2+y,-z
-x,y,z
x,1/2-y,z
1/2+x,1/2+y,z
1/2-x,-y,z
1/2+x,1/2-y,-z
1/2-x,y,-z
1/2-x,1/2-y,-z
1/2+x,y,-z
1/2-x,1/2+y,z
1/2+x,-y,z
loop_
_atom_site_type_symbol
_atom_site_label
_atom_site_fract_x
_atom_site_fract_y
_atom_site_fract_z
Si Si1 0.084157 0.571318 0.801503
Si Si2 0.302590 0.429852 0.747984
Si Si3 0.830473 0.927653 0.419205
Si Si4 0.000000 0.429224 0.913799
Si Si5 0.556490 0.073516 0.362068
O O1 0.079027 0.750000 0.812925
O O2 0.145238 0.532160 0.796245
O O3 0.050283 0.486121 0.865796
O O4 0.062481 0.525385 0.715965
O O5 0.298832 0.250000 0.743370
O O6 0.250000 0.500000 0.781171
O O7 0.309668 0.495431 0.659930
O O8 0.819387 0.750000 0.417304
O O9 0.892840 0.950348 0.414093
O O10 0.811557 0.000000 0.500000
O O11 0.000000 0.250000 0.917750
O O12 0.000000 0.500000 0.000000
O O13 0.500000 0.045013 0.398355
O O14 0.558114 0.250000 0.338281
#
# Coordination Sequence:
#
# PCOD9502267 Si02
#       5
#    16  16  16   8  16
#     4  10  20  35  56  84 115 145 181 225 269 320
#     4  10  21  37  58  82 108 142 187 233 278 328
#     4  10  20  33  48  70 103 140 184 235 286 336
#     4  12  24  38  60  90 123 154 181 214 262 318
#     4   9  17  30  49  72 100 140 184 224 272 329
#
# _framework density 18.440508000000001
#
# number of rings (size 3 to 8) (size 9 to 14) (size 15 to 20)
#    0.000    2.000    1.111    3.000    0.000    4.444 
#    0.000    2.222    0.000    0.667    0.000    4.667 
#    0.000    0.000    0.000    0.000    0.000    0.000 
#
# Total GULP energy -200976.924911 kJ/mol
# GULP energy per Si atom -5582.692359 kJ/mol
# Density = 1.839854 g / cm^3
# Si number density = 18.440508 Si / 1000 Ang^3
#
#
#
# Elastic Constant Matrix: (Units=GPa)
#
#
# Indices 1 2 3 4 5 6 
#
# 1 151.0493 66.8367 35.9333 0.0000 0.0000 0.0000
# 2 66.8367 90.3724 62.2989 0.0000 0.0000 0.0000
# 3 35.9333 62.2989 86.3601 0.0000 0.0000 0.0000
# 4 0.0000 0.0000 0.0000 26.2314 0.0000 0.0000
# 5 0.0000 0.0000 0.0000 0.0000 193.5779 0.0000
# 6 0.0000 0.0000 0.0000 0.0000 0.0000 28.2379
#
#
#
# Elastic Compliance Matrix: (Units=1/GPa)
#
#
# Indices 1 2 3 4 5 6 
#
# 1 0.010076 -0.009074 0.002354 0.000000 0.000000 0.000000
# 2 -0.009074 0.030184 -0.017998 0.000000 0.000000 0.000000
# 3 0.002354 -0.017998 0.023584 0.000000 0.000000 0.000000
# 4 0.000000 0.000000 0.000000 0.038122 0.000000 0.000000
# 5 0.000000 0.000000 0.000000 0.000000 0.005166 0.000000
# 6 0.000000 0.000000 0.000000 0.000000 0.000000 0.035413
#
#
# Mechanical properties :
#
#
# Convention : Reuss Voigt Hill
#
# Bulk Modulus (GPa) = 69.41885 73.10218 71.26051
# Shear Modulus (GPa) = 25.40857 60.45698 42.93277
#
# Velocity S-wave (km/s) = 3.71599 5.73202 4.83035
# Velocity P-wave (km/s) = 7.49252 9.13982 8.35686
#
# Compressibility (1/GPa) = 0.01440531
#
# Stress axis : x y z
#
# Youngs Moduli (GPa) = 99.24993 33.13062 42.40184
#
# Poissons Ratio (x) = 0.30063 -0.09980
# Poissons Ratio (y) = 0.90060 0.76316
# Poissons Ratio (z) = -0.23359 0.59630
#
# Static dielectric constant tensor:
#      x y z
#    x 1.695440 0.000000 0.000000 
#    y 0.000000 1.618200 0.000000 
#    z 0.000000 0.000000 1.585860 
# 
# From -- ./inp_files/25090.got.cif
#   From: 2010.05.17/outbox.cif.g08.bks.cpg/sg67_13_cif.got.tgz:25090.got - 2010.06.03 18:28:57.
