data_PCOD9502570
_publ_section_title
;
Structure prediction by ZEFSAII (Michael W. Deem and Ramdas Pophale) SiO2 
 PCOD9502570
Probable space group: C M M A
;
_chemical_formula_sum "Si O2"
_cell_formula_units_Z 88
_cell_length_a 10.112021
_cell_length_b 22.737416
_cell_length_c 22.625525
_cell_angle_alpha 90.000000
_cell_angle_beta 90.000000
_cell_angle_gamma 90.000000
_cell_volume 5202.088494
_symmetry_space_group_name_H-M "C M M A"
_symmetry_group_IT_number 67
_symmetry_cell_setting 'orthorhombic'
loop_
_space_group_symop_operation_xyz
x,y,z
-x,1/2-y,z
x,-y,-z
-x,1/2+y,-z
-x,-y,-z
x,1/2+y,-z
-x,y,z
x,1/2-y,z
1/2+x,1/2+y,z
1/2-x,-y,z
1/2+x,1/2-y,-z
1/2-x,y,-z
1/2-x,1/2-y,-z
1/2+x,y,-z
1/2-x,1/2+y,z
1/2+x,-y,z
loop_
_atom_site_type_symbol
_atom_site_label
_atom_site_fract_x
_atom_site_fract_y
_atom_site_fract_z
Si Si1 0.152186 0.118270 0.785778
Si Si2 0.347498 0.319594 0.338572
Si Si3 0.354685 0.427415 0.950135
Si Si4 0.654000 0.178807 0.553106
Si Si5 0.750000 0.000000 0.156882
Si Si6 0.153032 0.317398 0.126675
O O1 0.166388 0.138173 0.717897
O O2 0.185988 0.050847 0.802909
O O3 0.249241 0.158976 0.823573
O O4 0.000000 0.129015 0.802668
O O5 0.500000 0.325508 0.361358
O O6 0.333405 0.250000 0.321954
O O7 0.235789 0.333413 0.386956
O O8 0.500000 0.433952 0.975573
O O9 0.342989 0.465827 0.890212
O O10 0.332956 0.360831 0.928477
O O11 0.250000 0.440960 0.000000
O O12 0.500000 0.158301 0.551928
O O13 0.647584 0.250000 0.548194
O O14 0.750000 0.157954 0.500000
O O15 0.179480 0.250000 0.112193
O O16 0.000000 0.322494 0.146738
#
# Coordination Sequence:
#
# PCOD9502570 Si02
#       6
#    16  16  16  16   8  16
#     4  10  20  34  53  75  98 129 169 209 248 293
#     4   9  17  29  46  71 102 131 161 200 243 288
#     4  10  21  35  52  73  96 124 159 200 246 296
#     4   9  16  26  42  66  98 135 170 201 236 281
#     4  10  21  36  54  72  97 126 162 206 254 298
#     4   9  19  35  52  72 101 132 159 194 245 301
#
# _framework density 16.916284000000001
#
# number of rings (size 3 to 8) (size 9 to 14) (size 15 to 20)
#    0.000    2.545    0.000    1.909    0.000    9.455 
#    0.000    1.818    0.000    0.000    0.000    0.636 
#    0.000    4.364    0.000    0.000    0.000    0.000 
#
# Total GULP energy -245049.940542 kJ/mol
# GULP energy per Si atom -5569.316831 kJ/mol
# Density = 1.687778 g / cm^3
# Si number density = 16.916284 Si / 1000 Ang^3
#
#
#
# Elastic Constant Matrix: (Units=GPa)
#
#
# Indices 1 2 3 4 5 6 
#
# 1 141.8697 49.1570 76.9397 0.0000 0.0000 0.0000
# 2 49.1570 103.1695 44.3514 0.0000 0.0000 0.0000
# 3 76.9397 44.3514 85.1336 0.0000 0.0000 0.0000
# 4 0.0000 0.0000 0.0000 16.6226 0.0000 0.0000
# 5 0.0000 0.0000 0.0000 0.0000 304.7636 0.0000
# 6 0.0000 0.0000 0.0000 0.0000 0.0000 -102.7929
#
#
#
# Elastic Compliance Matrix: (Units=1/GPa)
#
#
# Indices 1 2 3 4 5 6 
#
# 1 0.014024 -0.001589 -0.011846 0.000000 0.000000 0.000000
# 2 -0.001589 0.012670 -0.005164 0.000000 0.000000 0.000000
# 3 -0.011846 -0.005164 0.025143 0.000000 0.000000 0.000000
# 4 0.000000 0.000000 0.000000 0.060159 0.000000 0.000000
# 5 0.000000 0.000000 0.000000 0.000000 0.003281 0.000000
# 6 0.000000 0.000000 0.000000 0.000000 0.000000 -0.009728
#
#
# Mechanical properties :
#
#
# Convention : Reuss Voigt Hill
#
# Bulk Modulus (GPa) = 68.31957 74.56323 71.44140
# Shear Modulus (GPa) = 33.86915 54.36698 44.11806
#
# Velocity S-wave (km/s) = 4.47941 5.67526 5.11242
# Velocity P-wave (km/s) = 8.19927 9.33372 8.78482
#
# Compressibility (1/GPa) = 0.01463710
#
# Stress axis : x y z
#
# Youngs Moduli (GPa) = 71.30686 78.92575 39.77325
#
# Poissons Ratio (x) = 0.12545 0.47116
# Poissons Ratio (y) = 0.11334 0.20540
# Poissons Ratio (z) = 0.84471 0.40759
#
# Static dielectric constant tensor:
#      x y z
#    x 1.587450 0.000000 0.000000 
#    y 0.000000 1.577790 0.000000 
#    z 0.000000 0.000000 1.558480 
# 
# From -- ./inp_files/40671.got.cif
#   From: 2010.05.17/outbox.cif.g08.bks.cpg/sg67_21_cif.got.tgz:40671.got - 2010.06.03 18:28:57.
