data_PCOD9502793
_publ_section_title
;
Structure prediction by ZEFSAII (Michael W. Deem and Ramdas Pophale) SiO2 
 PCOD9502793
Probable space group: C M M A
;
_chemical_formula_sum "Si O2"
_cell_formula_units_Z 96
_cell_length_a 8.653901
_cell_length_b 25.323644
_cell_length_c 22.416756
_cell_angle_alpha 90.000000
_cell_angle_beta 90.000000
_cell_angle_gamma 90.000000
_cell_volume 4912.594151
_symmetry_space_group_name_H-M "C M M A"
_symmetry_group_IT_number 67
_symmetry_cell_setting 'orthorhombic'
loop_
_space_group_symop_operation_xyz
x,y,z
-x,1/2-y,z
x,-y,-z
-x,1/2+y,-z
-x,-y,-z
x,1/2+y,-z
-x,y,z
x,1/2-y,z
1/2+x,1/2+y,z
1/2-x,-y,z
1/2+x,1/2-y,-z
1/2-x,y,-z
1/2-x,1/2-y,-z
1/2+x,y,-z
1/2-x,1/2+y,z
1/2+x,-y,z
loop_
_atom_site_type_symbol
_atom_site_label
_atom_site_fract_x
_atom_site_fract_y
_atom_site_fract_z
Si Si1 0.184811 0.944369 0.236743
Si Si2 0.186974 0.750000 0.837225
Si Si3 0.314437 0.862130 0.329760
Si Si4 0.814599 0.668195 0.937927
Si Si5 0.685187 0.057128 0.566180
Si Si6 0.684221 0.750000 0.703147
Si Si7 0.685465 0.054506 0.897370
O O1 0.246897 0.895645 0.274781
O O2 0.248670 0.940724 0.169600
O O3 0.000000 0.945769 0.236587
O O4 0.250000 0.000000 0.261454
O O5 0.231500 0.799720 0.878797
O O6 0.261780 0.750000 0.772413
O O7 0.000000 0.750000 0.829661
O O8 0.500000 0.860367 0.325041
O O9 0.272619 0.896123 0.388426
O O10 0.249273 0.803127 0.327065
O O11 0.766640 0.607409 0.930994
O O12 0.000000 0.671085 0.940429
O O13 0.750000 0.689404 0.000000
O O14 0.500000 0.053449 0.563704
O O15 0.750000 0.066916 0.500000
O O16 0.750000 0.000000 0.585872
O O17 0.500000 0.750000 0.700650
O O18 0.500000 0.052081 0.894623
O O19 0.750000 0.000000 0.923127
#
# Coordination Sequence:
#
# PCOD9502793 Si02
#       7
#    16   8  16  16  16   8  16
#     4  11  21  34  56  86 116 150 191 240 294 349
#     4  10  21  41  63  83 111 146 181 230 290 346
#     4  11  23  40  60  85 119 159 198 242 292 346
#     4  10  22  37  57  81 106 140 182 228 283 341
#     4  10  21  37  62  92 124 161 199 240 289 336
#     4  12  26  41  62  91 117 152 196 242 293 348
#     4  10  20  35  53  77 109 147 186 228 283 346
#
# _framework density 19.541609999999999
#
# number of rings (size 3 to 8) (size 9 to 14) (size 15 to 20)
#    0.000    1.500    0.000    7.000    0.000    7.667 
#    0.000    2.083    0.000    0.000    0.000    0.000 
#    0.000    0.000    0.000    0.000    0.000    0.000 
#
# Total GULP energy -268363.890940 kJ/mol
# GULP energy per Si atom -5590.914395 kJ/mol
# Density = 1.949713 g / cm^3
# Si number density = 19.541610 Si / 1000 Ang^3
#
#
#
# Elastic Constant Matrix: (Units=GPa)
#
#
# Indices 1 2 3 4 5 6 
#
# 1 73.7827 53.1633 34.8422 0.0000 0.0000 0.0000
# 2 53.1633 181.8988 69.5729 0.0000 0.0000 0.0000
# 3 34.8422 69.5729 103.6889 0.0000 0.0000 0.0000
# 4 0.0000 0.0000 0.0000 26.0611 0.0000 0.0000
# 5 0.0000 0.0000 0.0000 0.0000 27.2236 0.0000
# 6 0.0000 0.0000 0.0000 0.0000 0.0000 25.0124
#
#
#
# Elastic Compliance Matrix: (Units=1/GPa)
#
#
# Indices 1 2 3 4 5 6 
#
# 1 0.018013 -0.003968 -0.003391 0.000000 0.000000 0.000000
# 2 -0.003968 0.008270 -0.004215 0.000000 0.000000 0.000000
# 3 -0.003391 -0.004215 0.013612 0.000000 0.000000 0.000000
# 4 0.000000 0.000000 0.000000 0.038371 0.000000 0.000000
# 5 0.000000 0.000000 0.000000 0.000000 0.036733 0.000000
# 6 0.000000 0.000000 0.000000 0.000000 0.000000 0.039980
#
#
# Mechanical properties :
#
#
# Convention : Reuss Voigt Hill
#
# Bulk Modulus (GPa) = 59.71138 74.94746 67.32942
# Shear Modulus (GPa) = 27.21687 29.11223 28.16455
#
# Velocity S-wave (km/s) = 3.73603 3.86392 3.80051
# Velocity P-wave (km/s) = 7.01661 7.63823 7.33401
#
# Compressibility (1/GPa) = 0.01674723
#
# Stress axis : x y z
#
# Youngs Moduli (GPa) = 55.51395 120.92554 73.46473
#
# Poissons Ratio (x) = 0.47982 0.24909
# Poissons Ratio (y) = 0.22028 0.30968
# Poissons Ratio (z) = 0.18823 0.50974
#
# Static dielectric constant tensor:
#      x y z
#    x 1.653800 0.000000 0.000000 
#    y 0.000000 1.697750 0.000000 
#    z 0.000000 0.000000 1.661290 
# 
# From -- ./inp_files/40850.got.cif
#   From: 2010.05.17/outbox.cif.g08.bks.cpg/sg67_21_cif.got.tgz:40850.got - 2010.06.03 18:28:57.
