data_PCOD9502804
_publ_section_title
;
Structure prediction by ZEFSAII (Michael W. Deem and Ramdas Pophale) SiO2 
 PCOD9502804
Probable space group: C M M A
;
_chemical_formula_sum "Si O2"
_cell_formula_units_Z 88
_cell_length_a 9.048053
_cell_length_b 30.586036
_cell_length_c 17.945659
_cell_angle_alpha 90.000000
_cell_angle_beta 90.000000
_cell_angle_gamma 90.000000
_cell_volume 4966.354796
_symmetry_space_group_name_H-M "C M M A"
_symmetry_group_IT_number 67
_symmetry_cell_setting 'orthorhombic'
loop_
_space_group_symop_operation_xyz
x,y,z
-x,1/2-y,z
x,-y,-z
-x,1/2+y,-z
-x,-y,-z
x,1/2+y,-z
-x,y,z
x,1/2-y,z
1/2+x,1/2+y,z
1/2-x,-y,z
1/2+x,1/2-y,-z
1/2-x,y,-z
1/2-x,1/2-y,-z
1/2+x,y,-z
1/2-x,1/2+y,z
1/2+x,-y,z
loop_
_atom_site_type_symbol
_atom_site_label
_atom_site_fract_x
_atom_site_fract_y
_atom_site_fract_z
Si Si1 0.824449 0.572067 0.422358
Si Si2 0.833990 0.668257 0.364214
Si Si3 0.823140 0.044899 0.266324
Si Si4 0.672053 0.872269 0.799853
Si Si5 0.328502 0.750000 0.421017
Si Si6 0.321725 0.700476 0.919058
O O1 0.750000 0.558361 0.500000
O O2 0.809777 0.624664 0.412864
O O3 0.743466 0.553083 0.349445
O O4 0.000000 0.561761 0.420327
O O5 0.827313 0.652980 0.278919
O O6 0.721034 0.706434 0.379129
O O7 0.000000 0.684528 0.380055
O O8 0.769976 0.084990 0.214525
O O9 0.000000 0.042349 0.269831
O O10 0.750000 0.000000 0.239263
O O11 0.500000 0.884828 0.813920
O O12 0.722114 0.838183 0.862884
O O13 0.500000 0.750000 0.432612
O O14 0.250000 0.750000 0.500000
O O15 0.500000 0.699006 0.925066
O O16 0.283083 0.750000 0.892814
O O17 0.250000 0.694578 0.000000
#
# Coordination Sequence:
#
# PCOD9502804 Si02
#       6
#    16  16  16  16   8  16
#     4  10  20  35  54  76 102 135 176 224 278 331
#     4   9  19  34  52  71  96 133 176 221 266 318
#     4  11  22  37  57  80 108 140 180 227 277 329
#     4   9  19  36  58  81 108 144 183 220 267 322
#     4  12  24  34  46  66  95 132 177 224 269 316
#     4   9  18  33  56  86 119 153 184 217 260 314
#
# _framework density 17.719234
#
# number of rings (size 3 to 8) (size 9 to 14) (size 15 to 20)
#    0.000    2.182    0.000    4.636    1.273    6.182 
#    0.000    1.818    0.000    0.545    0.000    3.818 
#    0.000    0.000    0.000    0.000    0.000    0.000 
#
# Total GULP energy -245570.574528 kJ/mol
# GULP energy per Si atom -5581.149421 kJ/mol
# Density = 1.767890 g / cm^3
# Si number density = 17.719234 Si / 1000 Ang^3
#
#
#
# Elastic Constant Matrix: (Units=GPa)
#
#
# Indices 1 2 3 4 5 6 
#
# 1 117.9942 74.9002 30.2534 0.0000 0.0000 0.0000
# 2 74.9002 116.4160 52.6158 0.0000 0.0000 0.0000
# 3 30.2534 52.6158 73.3152 0.0000 0.0000 0.0000
# 4 0.0000 0.0000 0.0000 6.1785 0.0000 0.0000
# 5 0.0000 0.0000 0.0000 0.0000 25.7776 0.0000
# 6 0.0000 0.0000 0.0000 0.0000 0.0000 27.6116
#
#
#
# Elastic Compliance Matrix: (Units=1/GPa)
#
#
# Indices 1 2 3 4 5 6 
#
# 1 0.014380 -0.009724 0.001045 0.000000 0.000000 0.000000
# 2 -0.009724 0.019289 -0.009831 0.000000 0.000000 0.000000
# 3 0.001045 -0.009831 0.020264 0.000000 0.000000 0.000000
# 4 0.000000 0.000000 0.000000 0.161850 0.000000 0.000000
# 5 0.000000 0.000000 0.000000 0.000000 0.038793 0.000000
# 6 0.000000 0.000000 0.000000 0.000000 0.000000 0.036217
#
#
# Mechanical properties :
#
#
# Convention : Reuss Voigt Hill
#
# Bulk Modulus (GPa) = 59.12595 69.25156 64.18875
# Shear Modulus (GPa) = 14.99476 21.91062 18.45269
#
# Velocity S-wave (km/s) = 2.91218 3.52027 3.23056
# Velocity P-wave (km/s) = 6.68942 7.46261 7.08657
#
# Compressibility (1/GPa) = 0.01691305
#
# Stress axis : x y z
#
# Youngs Moduli (GPa) = 69.54307 51.84276 49.34923
#
# Poissons Ratio (x) = 0.50411 -0.05156
# Poissons Ratio (y) = 0.67622 0.48513
# Poissons Ratio (z) = -0.07265 0.50965
#
# Static dielectric constant tensor:
#      x y z
#    x 1.603250 0.000000 0.000000 
#    y 0.000000 1.616690 0.000000 
#    z 0.000000 0.000000 1.578740 
# 
# From -- ./inp_files/32406.got.cif
#   From: 2010.05.17/outbox.cif.g08.bks.cpg/sg67_17_cif.got.tgz:32406.got - 2010.06.03 18:28:57.
