data_PCOD9502445
_publ_section_title
;
Structure prediction by ZEFSAII (Michael W. Deem and Ramdas Pophale) SiO2 
 PCOD9502445
Probable space group: C M M A
;
_chemical_formula_sum "Si O2"
_cell_formula_units_Z 68
_cell_length_a 19.091742
_cell_length_b 10.108795
_cell_length_c 18.045658
_cell_angle_alpha 90.000000
_cell_angle_beta 90.000000
_cell_angle_gamma 90.000000
_cell_volume 3482.712852
_symmetry_space_group_name_H-M "C M M A"
_symmetry_group_IT_number 67
_symmetry_cell_setting 'orthorhombic'
loop_
_space_group_symop_operation_xyz
x,y,z
-x,1/2-y,z
x,-y,-z
-x,1/2+y,-z
-x,-y,-z
x,1/2+y,-z
-x,y,z
x,1/2-y,z
1/2+x,1/2+y,z
1/2-x,-y,z
1/2+x,1/2-y,-z
1/2-x,y,-z
1/2-x,1/2-y,-z
1/2+x,y,-z
1/2-x,1/2+y,z
1/2+x,-y,z
loop_
_atom_site_type_symbol
_atom_site_label
_atom_site_fract_x
_atom_site_fract_y
_atom_site_fract_z
Si Si1 0.164354 0.250000 0.586266
Si Si2 0.375077 0.530788 0.149516
Si Si3 0.584314 0.750000 0.924692
Si Si4 0.000000 0.250000 0.142708
Si Si5 0.664676 0.750000 0.415963
Si Si6 0.834567 0.998802 0.680248
Si Si7 0.313258 0.250000 0.941989
O O1 0.249840 0.250000 0.582729
O O2 0.140880 0.250000 0.501027
O O3 0.141891 0.374964 0.633909
O O4 0.390424 0.387214 0.113414
O O5 0.439594 0.632421 0.144582
O O6 0.358944 0.508024 0.235692
O O7 0.314960 0.617187 0.107879
O O8 0.500000 0.750000 0.928413
O O9 0.617470 0.750000 0.006334
O O10 0.642021 0.624863 0.368585
O O11 0.750000 0.000000 0.681866
O O12 0.250000 0.250000 0.000000
#
# Coordination Sequence:
#
# PCOD9502445 Si02
#       7
#     8  16   8   4   8  16   8
#     4   9  17  30  51  86 126 161 195 239 303 373
#     4  11  24  43  65  89 125 161 217 256 316 375
#     4  12  26  43  69  92 125 162 219 275 317 370
#     4  10  22  44  64  86 112 162 212 264 300 368
#     4   9  16  30  51  84 127 165 195 233 299 384
#     4  10  20  33  57  88 124 160 196 249 310 369
#     4  11  28  44  67  95 128 169 206 258 330 385
#
# _framework density 19.525010000000002
#
# number of rings (size 3 to 8) (size 9 to 14) (size 15 to 20)
#    0.000    1.647    1.176    3.529    6.588    4.706 
#    0.000    0.000    0.000    0.000    0.000   13.176 
#    0.000    0.000    0.000    0.000    0.000    0.000 
#
# Total GULP energy -189291.994495 kJ/mol
# GULP energy per Si atom -5567.411603 kJ/mol
# Density = 1.948057 g / cm^3
# Si number density = 19.525010 Si / 1000 Ang^3
#
#
#
# Elastic Constant Matrix: (Units=GPa)
#
#
# Indices 1 2 3 4 5 6 
#
# 1 30.8080 25.8267 28.7377 0.0000 0.0000 0.0000
# 2 25.8267 218.2521 109.0030 0.0000 0.0000 0.0000
# 3 28.7377 109.0030 217.2001 0.0000 0.0000 0.0000
# 4 0.0000 0.0000 0.0000 25.7666 0.0000 0.0000
# 5 0.0000 0.0000 0.0000 0.0000 -3.3116 0.0000
# 6 0.0000 0.0000 0.0000 0.0000 0.0000 86.1512
#
#
#
# Elastic Compliance Matrix: (Units=1/GPa)
#
#
# Indices 1 2 3 4 5 6 
#
# 1 0.038153 -0.002660 -0.003713 0.000000 0.000000 0.000000
# 2 -0.002660 0.006300 -0.002810 0.000000 0.000000 0.000000
# 3 -0.003713 -0.002810 0.006505 0.000000 0.000000 0.000000
# 4 0.000000 0.000000 0.000000 0.038810 0.000000 0.000000
# 5 0.000000 0.000000 0.000000 0.000000 -0.301970 0.000000
# 6 0.000000 0.000000 0.000000 0.000000 0.000000 0.011608
#
#
# Mechanical properties :
#
#
# Convention : Reuss Voigt Hill
#
# Bulk Modulus (GPa) = 30.68229 88.15501 59.41865
# Shear Modulus (GPa) = -29.17752 41.90075 6.36162
#
# Velocity S-wave (km/s) = -3.86990 4.63752 1.80700
# Velocity P-wave (km/s) = 2.05418 8.59787 5.90354
#
# Compressibility (1/GPa) = 0.03259209
#
# Stress axis : x y z
#
# Youngs Moduli (GPa) = 26.21049 158.73228 153.72028
#
# Poissons Ratio (x) = 0.42230 0.57073
# Poissons Ratio (y) = 0.06973 0.43190
# Poissons Ratio (z) = 0.09731 0.44598
#
# Static dielectric constant tensor:
#      x y z
#    x 1.694070 0.000000 0.000000 
#    y 0.000000 1.646450 0.000000 
#    z 0.000000 0.000000 1.661030 
# 
# From -- ./inp_files/34751.got.cif
#   From: 2010.05.17/outbox.cif.g08.bks.cpg/sg67_18_cif.got.tgz:34751.got - 2010.06.03 18:28:57.
