data_PCOD9502653
_publ_section_title
;
Structure prediction by ZEFSAII (Michael W. Deem and Ramdas Pophale) SiO2 
 PCOD9502653
Probable space group: C M M A
;
_chemical_formula_sum "Si O2"
_cell_formula_units_Z 96
_cell_length_a 29.550858
_cell_length_b 8.756112
_cell_length_c 21.159776
_cell_angle_alpha 90.000000
_cell_angle_beta 90.000000
_cell_angle_gamma 90.000000
_cell_volume 5475.105209
_symmetry_space_group_name_H-M "C M M A"
_symmetry_group_IT_number 67
_symmetry_cell_setting 'orthorhombic'
loop_
_space_group_symop_operation_xyz
x,y,z
-x,1/2-y,z
x,-y,-z
-x,1/2+y,-z
-x,-y,-z
x,1/2+y,-z
-x,y,z
x,1/2-y,z
1/2+x,1/2+y,z
1/2-x,-y,z
1/2+x,1/2-y,-z
1/2-x,y,-z
1/2-x,1/2-y,-z
1/2+x,y,-z
1/2-x,1/2+y,z
1/2+x,-y,z
loop_
_atom_site_type_symbol
_atom_site_label
_atom_site_fract_x
_atom_site_fract_y
_atom_site_fract_z
Si Si1 0.643022 0.932367 0.065795
Si Si2 0.800293 0.934650 0.810866
Si Si3 0.051060 0.933815 0.113686
Si Si4 0.050572 0.066447 0.737325
Si Si5 0.858454 0.066185 0.311111
Si Si6 0.200067 0.434016 0.431853
O O1 0.643638 0.750000 0.062944
O O2 0.672834 0.982080 0.125985
O O3 0.591764 0.988449 0.076963
O O4 0.660208 0.000000 0.000000
O O5 0.798204 0.750000 0.810256
O O6 0.828319 0.984257 0.748977
O O7 0.750000 0.000000 0.809866
O O8 0.054516 0.750000 0.107866
O O9 0.056075 0.972518 0.188248
O O10 0.000000 0.978257 0.094199
O O11 0.052268 0.250000 0.733358
O O12 0.000000 0.016889 0.718103
O O13 0.091330 0.996767 0.698045
O O14 0.860185 0.250000 0.309555
O O15 0.833919 0.021095 0.375936
O O16 0.186385 0.500000 0.500000
O O17 0.202689 0.250000 0.435014
O O18 0.250000 0.500000 0.418038
#
# Coordination Sequence:
#
# PCOD9502653 Si02
#       6
#    16  16  16  16  16  16
#     4  11  23  38  55  75 103 137 176 219 266 320
#     4  10  22  38  55  77 103 133 174 219 264 313
#     4   9  18  34  55  79 106 135 171 214 263 319
#     4   9  18  32  53  82 111 139 173 215 263 315
#     4  10  20  35  55  82 111 140 177 219 262 311
#     4  10  20  34  54  80 114 148 182 220 261 314
#
# _framework density 17.533909999999999
#
# number of rings (size 3 to 8) (size 9 to 14) (size 15 to 20)
#    0.000    2.167    1.667    3.000    0.000    4.667 
#    0.000    3.333    0.000    0.500    0.000    0.000 
#    0.000    0.000    0.000    0.000    0.000    0.000 
#
# Total GULP energy -267951.876832 kJ/mol
# GULP energy per Si atom -5582.330767 kJ/mol
# Density = 1.749400 g / cm^3
# Si number density = 17.533910 Si / 1000 Ang^3
#
#
#
# Elastic Constant Matrix: (Units=GPa)
#
#
# Indices 1 2 3 4 5 6 
#
# 1 131.7629 27.2934 83.9184 0.0000 0.0000 0.0000
# 2 27.2934 21.5024 33.7124 0.0000 0.0000 0.0000
# 3 83.9184 33.7124 129.3292 0.0000 0.0000 0.0000
# 4 0.0000 0.0000 0.0000 25.8121 0.0000 0.0000
# 5 0.0000 0.0000 0.0000 0.0000 19.4567 0.0000
# 6 0.0000 0.0000 0.0000 0.0000 0.0000 32.9435
#
#
#
# Elastic Compliance Matrix: (Units=1/GPa)
#
#
# Indices 1 2 3 4 5 6 
#
# 1 0.013333 -0.005682 -0.007170 0.000000 0.000000 0.000000
# 2 -0.005682 0.081071 -0.017446 0.000000 0.000000 0.000000
# 3 -0.007170 -0.017446 0.016933 0.000000 0.000000 0.000000
# 4 0.000000 0.000000 0.000000 0.038742 0.000000 0.000000
# 5 0.000000 0.000000 0.000000 0.000000 0.051396 0.000000
# 6 0.000000 0.000000 0.000000 0.000000 0.000000 0.030355
#
#
# Mechanical properties :
#
#
# Convention : Reuss Voigt Hill
#
# Bulk Modulus (GPa) = 19.70826 63.60478 41.65652
# Shear Modulus (GPa) = 16.16344 24.82047 20.49196
#
# Velocity S-wave (km/s) = 3.03947 3.76649 3.42234
# Velocity P-wave (km/s) = 4.85617 7.43433 6.27900
#
# Compressibility (1/GPa) = 0.05074015
#
# Stress axis : x y z
#
# Youngs Moduli (GPa) = 75.00144 12.33482 59.05759
#
# Poissons Ratio (x) = 0.07008 0.42347
# Poissons Ratio (y) = 0.42615 1.03033
# Poissons Ratio (z) = 0.53779 0.21520
#
# Static dielectric constant tensor:
#      x y z
#    x 1.576200 0.000000 0.000000 
#    y 0.000000 1.592190 0.000000 
#    z 0.000000 0.000000 1.597150 
# 
# From -- ./inp_files/37150.got.cif
#   From: 2010.05.17/outbox.cif.g08.bks.cpg/sg67_19_cif.got.tgz:37150.got - 2010.06.03 18:28:57.
