data_PCOD9502309
_publ_section_title
;
Structure prediction by ZEFSAII (Michael W. Deem and Ramdas Pophale) SiO2 
 PCOD9502309
Probable space group: C M M A
;
_chemical_formula_sum "Si O2"
_cell_formula_units_Z 64
_cell_length_a 29.042559
_cell_length_b 7.831447
_cell_length_c 14.393722
_cell_angle_alpha 90.000000
_cell_angle_beta 90.000000
_cell_angle_gamma 90.000000
_cell_volume 3273.783865
_symmetry_space_group_name_H-M "C M M A"
_symmetry_group_IT_number 67
_symmetry_cell_setting 'orthorhombic'
loop_
_space_group_symop_operation_xyz
x,y,z
-x,1/2-y,z
x,-y,-z
-x,1/2+y,-z
-x,-y,-z
x,1/2+y,-z
-x,y,z
x,1/2-y,z
1/2+x,1/2+y,z
1/2-x,-y,z
1/2+x,1/2-y,-z
1/2-x,y,-z
1/2-x,1/2-y,-z
1/2+x,y,-z
1/2-x,1/2+y,z
1/2+x,-y,z
loop_
_atom_site_type_symbol
_atom_site_label
_atom_site_fract_x
_atom_site_fract_y
_atom_site_fract_z
Si Si1 0.802033 0.952969 0.391812
Si Si2 0.698093 0.451742 0.892993
Si Si3 0.446962 0.456129 0.103751
Si Si4 0.374865 0.443725 0.248825
O O1 0.804647 0.750000 0.382482
O O2 0.845405 0.025024 0.333238
O O3 0.805563 0.000000 0.500000
O O4 0.750000 0.000000 0.360511
O O5 0.690579 0.250000 0.879752
O O6 0.750000 0.500000 0.867654
O O7 0.663470 0.557844 0.831293
O O8 0.692043 0.500000 0.000000
O O9 0.500000 0.514987 0.107703
O O10 0.446238 0.250000 0.109245
O O11 0.417804 0.522314 0.192026
O O12 0.428840 0.500000 0.000000
O O13 0.388152 0.250000 0.276231
#
# Coordination Sequence:
#
# PCOD9502309 Si02
#       4
#    16  16  16  16
#     4  10  20  34  52  73  99 129 163 204 248 297
#     4  11  21  32  46  66  96 131 163 197 238 288
#     4   9  18  33  52  74 101 132 166 204 246 293
#     4  10  20  33  50  73  98 127 165 205 247 295
#
# _framework density 19.549243000000001
#
# number of rings (size 3 to 8) (size 9 to 14) (size 15 to 20)
#    0.000    2.000    0.000    6.000    0.000    7.000 
#    0.000    0.000    0.000    0.750    0.000    0.000 
#    0.000    0.000    0.000    0.000    0.000    1.000 
#
# Total GULP energy -178399.112364 kJ/mol
# GULP energy per Si atom -5574.972261 kJ/mol
# Density = 1.950475 g / cm^3
# Si number density = 19.549243 Si / 1000 Ang^3
#
#
#
# Elastic Constant Matrix: (Units=GPa)
#
#
# Indices 1 2 3 4 5 6 
#
# 1 87.1908 -4.3696 56.6518 0.0000 0.0000 0.0000
# 2 -4.3696 62.1013 -1.8859 0.0000 0.0000 0.0000
# 3 56.6518 -1.8859 104.6049 0.0000 0.0000 0.0000
# 4 0.0000 0.0000 0.0000 11.2242 0.0000 0.0000
# 5 0.0000 0.0000 0.0000 0.0000 41.9797 0.0000
# 6 0.0000 0.0000 0.0000 0.0000 0.0000 13.0336
#
#
#
# Elastic Compliance Matrix: (Units=1/GPa)
#
#
# Indices 1 2 3 4 5 6 
#
# 1 0.017753 0.000958 -0.009597 0.000000 0.000000 0.000000
# 2 0.000958 0.016163 -0.000227 0.000000 0.000000 0.000000
# 3 -0.009597 -0.000227 0.014753 0.000000 0.000000 0.000000
# 4 0.000000 0.000000 0.000000 0.089093 0.000000 0.000000
# 5 0.000000 0.000000 0.000000 0.000000 0.023821 0.000000
# 6 0.000000 0.000000 0.000000 0.000000 0.000000 0.076725
#
#
# Mechanical properties :
#
#
# Convention : Reuss Voigt Hill
#
# Bulk Modulus (GPa) = 32.32513 39.40998 35.86756
# Shear Modulus (GPa) = 18.77201 26.81421 22.79311
#
# Velocity S-wave (km/s) = 3.10214 3.70756 3.41828
# Velocity P-wave (km/s) = 5.42238 6.20734 5.82809
#
# Compressibility (1/GPa) = 0.03093568
#
# Stress axis : x y z
#
# Youngs Moduli (GPa) = 56.32882 61.86892 67.78103
#
# Poissons Ratio (x) = -0.05925 0.65052
# Poissons Ratio (y) = -0.05395 0.01540
# Poissons Ratio (z) = 0.54061 0.01406
#
# Static dielectric constant tensor:
#      x y z
#    x 1.719280 0.000000 0.000000 
#    y 0.000000 1.746300 0.000000 
#    z 0.000000 0.000000 1.715160 
# 
# From -- ./inp_files/25220.got.cif
#   From: 2010.05.17/outbox.cif.g08.bks.cpg/sg67_13_cif.got.tgz:25220.got - 2010.06.03 18:28:57.
