data_PCOD9502182
_publ_section_title
;
Structure prediction by ZEFSAII (Michael W. Deem and Ramdas Pophale) SiO2 
 PCOD9502182
Probable space group: C M M A
;
_chemical_formula_sum "Si O2"
_cell_formula_units_Z 104
_cell_length_a 8.974102
_cell_length_b 30.853069
_cell_length_c 23.073113
_cell_angle_alpha 90.000000
_cell_angle_beta 90.000000
_cell_angle_gamma 90.000000
_cell_volume 6388.450953
_symmetry_space_group_name_H-M "C M M A"
_symmetry_group_IT_number 67
_symmetry_cell_setting 'orthorhombic'
loop_
_space_group_symop_operation_xyz
x,y,z
-x,1/2-y,z
x,-y,-z
-x,1/2+y,-z
-x,-y,-z
x,1/2+y,-z
-x,y,z
x,1/2-y,z
1/2+x,1/2+y,z
1/2-x,-y,z
1/2+x,1/2-y,-z
1/2-x,y,-z
1/2-x,1/2-y,-z
1/2+x,y,-z
1/2-x,1/2+y,z
1/2+x,-y,z
loop_
_atom_site_type_symbol
_atom_site_label
_atom_site_fract_x
_atom_site_fract_y
_atom_site_fract_z
Si Si1 0.328622 0.131023 0.267356
Si Si2 0.178091 0.454563 0.311915
Si Si3 0.678125 0.923234 0.441707
Si Si4 0.677254 0.750000 0.436876
Si Si5 0.670612 0.302521 0.058670
Si Si6 0.678675 0.199310 0.818994
Si Si7 0.671285 0.163307 0.399426
O O1 0.500000 0.124454 0.248951
O O2 0.244573 0.085324 0.275245
O O3 0.248892 0.165566 0.225946
O O4 0.330546 0.150426 0.332179
O O5 0.250000 0.500000 0.294616
O O6 0.212710 0.446626 0.380555
O O7 0.000000 0.455347 0.306364
O O8 0.500000 0.921063 0.447918
O O9 0.750000 0.942561 0.500000
O O10 0.748408 0.875493 0.433396
O O11 0.500000 0.750000 0.439890
O O12 0.750000 0.750000 0.500000
O O13 0.737973 0.792850 0.406354
O O14 0.500000 0.317714 0.062606
O O15 0.666280 0.250000 0.055060
O O16 0.761442 0.312080 0.116929
O O17 0.750000 0.318140 0.000000
O O18 0.500000 0.196929 0.817484
O O19 0.720758 0.250000 0.807047
O O20 0.500000 0.168319 0.419567
#
# Coordination Sequence:
#
# PCOD9502182 Si02
#       7
#    16  16  16   8  16  16  16
#     4  10  21  36  54  74  99 130 165 206 250 297
#     4  10  21  37  56  76  99 126 159 199 249 304
#     4  10  20  34  52  73  96 122 151 190 240 298
#     4  12  24  36  50  66  88 118 157 200 243 292
#     4   9  16  27  44  67  98 137 178 217 254 292
#     4  10  20  32  48  73 105 141 178 214 251 294
#     4  10  21  36  51  68  91 121 157 199 245 293
#
# _framework density 16.279375999999999
#
# number of rings (size 3 to 8) (size 9 to 14) (size 15 to 20)
#    0.000    2.000    0.000    3.923    1.077    6.769 
#    0.000    1.538    0.000    0.000    0.000    0.000 
#    0.000    0.615    0.000    6.154    0.000    4.000 
#
# Total GULP energy -290230.285133 kJ/mol
# GULP energy per Si atom -5581.351637 kJ/mol
# Density = 1.624232 g / cm^3
# Si number density = 16.279376 Si / 1000 Ang^3
#
#
#
# Elastic Constant Matrix: (Units=GPa)
#
#
# Indices 1 2 3 4 5 6 
#
# 1 107.1655 56.1181 42.5283 0.0000 0.0000 0.0000
# 2 56.1181 105.5328 38.8952 0.0000 0.0000 0.0000
# 3 42.5283 38.8952 83.1939 0.0000 0.0000 0.0000
# 4 0.0000 0.0000 0.0000 7.2904 0.0000 0.0000
# 5 0.0000 0.0000 0.0000 0.0000 29.6462 0.0000
# 6 0.0000 0.0000 0.0000 0.0000 0.0000 23.9339
#
#
#
# Elastic Compliance Matrix: (Units=1/GPa)
#
#
# Indices 1 2 3 4 5 6 
#
# 1 0.014206 -0.005893 -0.004507 0.000000 0.000000 0.000000
# 2 -0.005893 0.013893 -0.003483 0.000000 0.000000 0.000000
# 3 -0.004507 -0.003483 0.015952 0.000000 0.000000 0.000000
# 4 0.000000 0.000000 0.000000 0.137167 0.000000 0.000000
# 5 0.000000 0.000000 0.000000 0.000000 0.033731 0.000000
# 6 0.000000 0.000000 0.000000 0.000000 0.000000 0.041782
#
#
# Mechanical properties :
#
#
# Convention : Reuss Voigt Hill
#
# Bulk Modulus (GPa) = 61.40333 63.44171 62.42252
# Shear Modulus (GPa) = 17.24582 22.73079 19.98831
#
# Velocity S-wave (km/s) = 3.25832 3.74075 3.50784
# Velocity P-wave (km/s) = 7.20804 7.59690 7.40502
#
# Compressibility (1/GPa) = 0.01628576
#
# Stress axis : x y z
#
# Youngs Moduli (GPa) = 70.39369 71.97843 62.68691
#
# Poissons Ratio (x) = 0.42417 0.28252
# Poissons Ratio (y) = 0.41483 0.21833
# Poissons Ratio (z) = 0.31725 0.25069
#
# Static dielectric constant tensor:
#      x y z
#    x 1.550330 0.000000 0.000000 
#    y 0.000000 1.525900 0.000000 
#    z 0.000000 0.000000 1.560860 
# 
# From -- ./inp_files/37496.got.cif
#   From: 2010.05.17/outbox.cif.g08.bks.cpg/sg67_19_cif.got.tgz:37496.got - 2010.06.03 18:28:57.
