data_PCOD9502233
_publ_section_title
;
Structure prediction by ZEFSAII (Michael W. Deem and Ramdas Pophale) SiO2 
 PCOD9502233
Probable space group: C M M A
;
_chemical_formula_sum "Si O2"
_cell_formula_units_Z 64
_cell_length_a 15.914875
_cell_length_b 24.576287
_cell_length_c 6.727033
_cell_angle_alpha 90.000000
_cell_angle_beta 90.000000
_cell_angle_gamma 90.000000
_cell_volume 2631.134566
_symmetry_space_group_name_H-M "C M M A"
_symmetry_group_IT_number 67
_symmetry_cell_setting 'orthorhombic'
loop_
_space_group_symop_operation_xyz
x,y,z
-x,1/2-y,z
x,-y,-z
-x,1/2+y,-z
-x,-y,-z
x,1/2+y,-z
-x,y,z
x,1/2-y,z
1/2+x,1/2+y,z
1/2-x,-y,z
1/2+x,1/2-y,-z
1/2-x,y,-z
1/2-x,1/2-y,-z
1/2+x,y,-z
1/2-x,1/2+y,z
1/2+x,-y,z
loop_
_atom_site_type_symbol
_atom_site_label
_atom_site_fract_x
_atom_site_fract_y
_atom_site_fract_z
Si Si1 0.592897 0.812723 0.630269
Si Si2 0.592418 0.104192 0.737906
Si Si3 0.907813 0.017041 0.768223
Si Si4 0.726267 0.110695 0.265135
O O1 0.500000 0.815817 0.723539
O O2 0.609164 0.750000 0.578813
O O3 0.589679 0.850502 0.433863
O O4 0.665925 0.837718 0.764016
O O5 0.500000 0.107149 0.839893
O O6 0.683157 0.110809 0.842455
O O7 0.598274 0.041607 0.660302
O O8 0.829690 0.056824 0.751992
O O9 0.000000 0.041868 0.724192
O O10 0.909344 0.000000 0.000000
O O11 0.750000 0.112919 0.500000
#
# Coordination Sequence:
#
# PCOD9502233 Si02
#       4
#    16  16  16  16
#     4   9  18  33  53  77 106 140 182 235 286 329
#     4   9  19  32  47  72 104 139 178 219 269 325
#     4  10  21  37  56  79 111 149 187 229 278 334
#     4  10  20  32  52  80 109 142 182 229 278 329
#
# _framework density 24.324109
#
# number of rings (size 3 to 8) (size 9 to 14) (size 15 to 20)
#    0.000    2.500    0.000    1.500    0.000   14.500 
#    0.000   11.250    0.000    1.500    0.000   15.750 
#    0.000    0.000    0.000    0.000    0.000    0.000 
#
# Total GULP energy -178694.743129 kJ/mol
# GULP energy per Si atom -5584.210723 kJ/mol
# Density = 2.426875 g / cm^3
# Si number density = 24.324109 Si / 1000 Ang^3
#
#
#
# Elastic Constant Matrix: (Units=GPa)
#
#
# Indices 1 2 3 4 5 6 
#
# 1 282.1215 86.2706 17.9091 0.0000 0.0000 0.0000
# 2 86.2706 180.1166 32.1879 0.0000 0.0000 0.0000
# 3 17.9091 32.1879 52.5127 0.0000 0.0000 0.0000
# 4 0.0000 0.0000 0.0000 23.3301 0.0000 0.0000
# 5 0.0000 0.0000 0.0000 0.0000 12.4756 0.0000
# 6 0.0000 0.0000 0.0000 0.0000 0.0000 30.0849
#
#
#
# Elastic Compliance Matrix: (Units=1/GPa)
#
#
# Indices 1 2 3 4 5 6 
#
# 1 0.004155 -0.001951 -0.000221 0.000000 0.000000 0.000000
# 2 -0.001951 0.007151 -0.003718 0.000000 0.000000 0.000000
# 3 -0.000221 -0.003718 0.021397 0.000000 0.000000 0.000000
# 4 0.000000 0.000000 0.000000 0.042863 0.000000 0.000000
# 5 0.000000 0.000000 0.000000 0.000000 0.080157 0.000000
# 6 0.000000 0.000000 0.000000 0.000000 0.000000 0.033239
#
#
# Mechanical properties :
#
#
# Convention : Reuss Voigt Hill
#
# Bulk Modulus (GPa) = 47.79325 87.49845 67.64585
# Shear Modulus (GPa) = 24.07131 38.40365 31.23748
#
# Velocity S-wave (km/s) = 3.14921 3.97776 3.58749
# Velocity P-wave (km/s) = 5.73712 7.55955 6.71049
#
# Compressibility (1/GPa) = 0.02092346
#
# Stress axis : x y z
#
# Youngs Moduli (GPa) = 240.66753 139.84786 46.73479
#
# Poissons Ratio (x) = 0.27279 0.01035
# Poissons Ratio (y) = 0.46945 0.17375
# Poissons Ratio (z) = 0.05329 0.51992
#
# Static dielectric constant tensor:
#      x y z
#    x 2.027970 0.000000 0.000000 
#    y 0.000000 1.879240 0.000000 
#    z 0.000000 0.000000 2.105100 
# 
# From -- ./inp_files/7990.got.cif
#   From: 2010.05.17/outbox.cif.g08.bks.cpg/sg67_4_cif.got.tgz:7990.got - 2010.06.03 18:28:57.
