data_PCOD9502586
_publ_section_title
;
Structure prediction by ZEFSAII (Michael W. Deem and Ramdas Pophale) SiO2 
 PCOD9502586
Probable space group: C M M A
;
_chemical_formula_sum "Si O2"
_cell_formula_units_Z 112
_cell_length_a 28.508447
_cell_length_b 15.437922
_cell_length_c 12.918713
_cell_angle_alpha 90.000000
_cell_angle_beta 90.000000
_cell_angle_gamma 90.000000
_cell_volume 5685.670037
_symmetry_space_group_name_H-M "C M M A"
_symmetry_group_IT_number 67
_symmetry_cell_setting 'orthorhombic'
loop_
_space_group_symop_operation_xyz
x,y,z
-x,1/2-y,z
x,-y,-z
-x,1/2+y,-z
-x,-y,-z
x,1/2+y,-z
-x,y,z
x,1/2-y,z
1/2+x,1/2+y,z
1/2-x,-y,z
1/2+x,1/2-y,-z
1/2-x,y,-z
1/2-x,1/2-y,-z
1/2+x,y,-z
1/2-x,1/2+y,z
1/2+x,-y,z
loop_
_atom_site_type_symbol
_atom_site_label
_atom_site_fract_x
_atom_site_fract_y
_atom_site_fract_z
Si Si1 0.140023 0.083415 0.564488
Si Si2 0.337846 0.348352 0.639167
Si Si3 0.725807 0.849658 0.901242
Si Si4 0.266651 0.146294 0.326294
Si Si5 0.053793 0.149777 0.121173
Si Si6 0.373112 0.412430 0.053337
Si Si7 0.099549 0.011852 0.256579
O O1 0.133002 0.148783 0.468703
O O2 0.184981 0.111622 0.629161
O O3 0.154616 0.000000 0.500000
O O4 0.098996 0.049383 0.641039
O O5 0.339702 0.250000 0.681618
O O6 0.282914 0.368404 0.617330
O O7 0.357928 0.421057 0.716454
O O8 0.742598 0.750000 0.895395
O O9 0.737887 0.888609 0.790474
O O10 0.670378 0.851840 0.920888
O O11 0.750000 0.891183 0.000000
O O12 0.272580 0.250000 0.323893
O O13 0.061871 0.250000 0.152695
O O14 0.061634 0.081254 0.214605
O O15 0.000000 0.142316 0.085313
O O16 0.089256 0.126118 0.027383
O O17 0.393961 0.446315 0.161384
O O18 0.354186 0.500000 0.000000
#
# Coordination Sequence:
#
# PCOD9502586 Si02
#       7
#    16  16  16  16  16  16  16
#     4  10  20  35  52  78 111 147 193 245 293 335
#     4  10  21  35  54  78 111 157 205 249 285 331
#     4  10  21  35  51  75 113 158 197 231 277 340
#     4  10  20  34  53  76 108 156 207 245 282 327
#     4  10  22  41  66  91 114 144 184 230 286 358
#     4  10  21  36  54  82 113 149 184 230 279 342
#     4  10  21  36  56  83 116 143 179 233 297 347
#
# _framework density 19.698646
#
# number of rings (size 3 to 8) (size 9 to 14) (size 15 to 20)
#    0.000    2.000    1.429    1.714    4.000    8.000 
#    0.000    0.000    0.000    3.857    0.000    0.000 
#    0.000    9.143    0.000    0.000    0.000    0.000 
#
# Total GULP energy -311737.158214 kJ/mol
# GULP energy per Si atom -5566.734968 kJ/mol
# Density = 1.965381 g / cm^3
# Si number density = 19.698646 Si / 1000 Ang^3
#
#
#
# Elastic Constant Matrix: (Units=GPa)
#
#
# Indices 1 2 3 4 5 6 
#
# 1 46.4596 17.8937 19.7563 0.0000 0.0000 0.0000
# 2 17.8937 54.1331 15.1012 0.0000 0.0000 0.0000
# 3 19.7563 15.1012 90.4799 0.0000 0.0000 0.0000
# 4 0.0000 0.0000 0.0000 23.8287 0.0000 0.0000
# 5 0.0000 0.0000 0.0000 0.0000 22.2719 0.0000
# 6 0.0000 0.0000 0.0000 0.0000 0.0000 32.3692
#
#
#
# Elastic Compliance Matrix: (Units=1/GPa)
#
#
# Indices 1 2 3 4 5 6 
#
# 1 0.026303 -0.007439 -0.004502 0.000000 0.000000 0.000000
# 2 -0.007439 0.021479 -0.001961 0.000000 0.000000 0.000000
# 3 -0.004502 -0.001961 0.012362 0.000000 0.000000 0.000000
# 4 0.000000 0.000000 0.000000 0.041966 0.000000 0.000000
# 5 0.000000 0.000000 0.000000 0.000000 0.044900 0.000000
# 6 0.000000 0.000000 0.000000 0.000000 0.000000 0.030894
#
#
# Mechanical properties :
#
#
# Convention : Reuss Voigt Hill
#
# Bulk Modulus (GPa) = 30.91927 32.95277 31.93602
# Shear Modulus (GPa) = 23.09605 24.91537 24.00571
#
# Velocity S-wave (km/s) = 3.42785 3.56030 3.49470
# Velocity P-wave (km/s) = 5.60331 5.80222 5.70363
#
# Compressibility (1/GPa) = 0.03234228
#
# Stress axis : x y z
#
# Youngs Moduli (GPa) = 38.01788 46.55750 80.89059
#
# Poissons Ratio (x) = 0.34633 0.36415
# Poissons Ratio (y) = 0.28281 0.15859
# Poissons Ratio (z) = 0.17115 0.09128
#
# Static dielectric constant tensor:
#      x y z
#    x 1.658350 0.000000 0.000000 
#    y 0.000000 1.768250 0.000000 
#    z 0.000000 0.000000 1.782690 
# 
# From -- ./inp_files/23864.got.cif
#   From: 2010.05.17/outbox.cif.g08.bks.cpg/sg67_12_cif.got.tgz:23864.got - 2010.06.03 18:28:57.
