data_PCOD9502433
_publ_section_title
;
Structure prediction by ZEFSAII (Michael W. Deem and Ramdas Pophale) SiO2 
 PCOD9502433
Probable space group: C M M A
;
_chemical_formula_sum "Si O2"
_cell_formula_units_Z 80
_cell_length_a 15.229401
_cell_length_b 16.376119
_cell_length_c 15.070281
_cell_angle_alpha 90.000000
_cell_angle_beta 90.000000
_cell_angle_gamma 90.000000
_cell_volume 3758.505221
_symmetry_space_group_name_H-M "C M M A"
_symmetry_group_IT_number 67
_symmetry_cell_setting 'orthorhombic'
loop_
_space_group_symop_operation_xyz
x,y,z
-x,1/2-y,z
x,-y,-z
-x,1/2+y,-z
-x,-y,-z
x,1/2+y,-z
-x,y,z
x,1/2-y,z
1/2+x,1/2+y,z
1/2-x,-y,z
1/2+x,1/2-y,-z
1/2-x,y,-z
1/2-x,1/2-y,-z
1/2+x,y,-z
1/2-x,1/2+y,z
1/2+x,-y,z
loop_
_atom_site_type_symbol
_atom_site_label
_atom_site_fract_x
_atom_site_fract_y
_atom_site_fract_z
Si Si1 0.106488 0.657313 0.709901
Si Si2 0.107106 0.915844 0.894622
Si Si3 0.649220 0.413167 0.526715
Si Si4 0.892961 0.104297 0.908627
Si Si5 0.601794 0.750000 0.580688
Si Si6 0.391804 0.250000 0.219096
O O1 0.132825 0.750000 0.690759
O O2 0.136550 0.630972 0.807331
O O3 0.138960 0.600306 0.631221
O O4 0.000000 0.654199 0.708791
O O5 0.000000 0.914351 0.894949
O O6 0.133235 0.010963 0.889174
O O7 0.134737 0.879421 0.989535
O O8 0.607244 0.500000 0.500000
O O9 0.750000 0.417583 0.500000
O O10 0.618028 0.331796 0.475832
O O11 0.864025 0.170124 0.836553
O O12 0.000000 0.105577 0.908068
O O13 0.500000 0.750000 0.599387
O O14 0.642806 0.750000 0.679693
O O15 0.500000 0.250000 0.218460
#
# Coordination Sequence:
#
# PCOD9502433 Si02
#       6
#    16  16  16  16   8   8
#     4  10  20  33  54  85 112 141 183 235 288 331
#     4   8  15  26  44  70 107 144 177 219 273 326
#     4  11  25  43  61  80 110 153 197 234 285 345
#     4   8  14  26  41  67 107 148 177 210 265 332
#     4  11  23  39  60  89 117 147 187 240 292 334
#     4   9  18  27  44  73 109 143 175 210 266 332
#
# _framework density 21.285057999999999
#
# number of rings (size 3 to 8) (size 9 to 14) (size 15 to 20)
#    0.000    2.600    1.000    2.100    4.200    1.600 
#    0.000    0.000    0.000    0.000    0.000    2.800 
#    0.000    0.000    0.000    0.000    0.000    0.000 
#
# Total GULP energy -223235.859960 kJ/mol
# GULP energy per Si atom -5580.896499 kJ/mol
# Density = 2.123661 g / cm^3
# Si number density = 21.285058 Si / 1000 Ang^3
#
#
#
# Elastic Constant Matrix: (Units=GPa)
#
#
# Indices 1 2 3 4 5 6 
#
# 1 36.6995 3.4011 3.7069 0.0000 0.0000 0.0000
# 2 3.4011 94.5970 38.9532 0.0000 0.0000 0.0000
# 3 3.7069 38.9532 116.0670 0.0000 0.0000 0.0000
# 4 0.0000 0.0000 0.0000 38.1630 0.0000 0.0000
# 5 0.0000 0.0000 0.0000 0.0000 -73.2393 0.0000
# 6 0.0000 0.0000 0.0000 0.0000 0.0000 43.4633
#
#
#
# Elastic Compliance Matrix: (Units=1/GPa)
#
#
# Indices 1 2 3 4 5 6 
#
# 1 0.027379 -0.000724 -0.000631 0.000000 0.000000 0.000000
# 2 -0.000724 0.012286 -0.004100 0.000000 0.000000 0.000000
# 3 -0.000631 -0.004100 0.010012 0.000000 0.000000 0.000000
# 4 0.000000 0.000000 0.000000 0.026203 0.000000 0.000000
# 5 0.000000 0.000000 0.000000 0.000000 -0.013654 0.000000
# 6 0.000000 0.000000 0.000000 0.000000 0.000000 0.023008
#
#
# Mechanical properties :
#
#
# Convention : Reuss Voigt Hill
#
# Bulk Modulus (GPa) = 25.79634 37.72066 31.75850
# Shear Modulus (GPa) = 45.84329 15.09757 30.47043
#
# Velocity S-wave (km/s) = 4.64592 2.66616 3.78768
# Velocity P-wave (km/s) = 6.39728 5.21901 5.83794
#
# Compressibility (1/GPa) = 0.03876519
#
# Stress axis : x y z
#
# Youngs Moduli (GPa) = 36.52401 81.39669 99.88139
#
# Poissons Ratio (x) = 0.05897 0.06306
# Poissons Ratio (y) = 0.02646 0.40951
# Poissons Ratio (z) = 0.02306 0.33373
#
# Static dielectric constant tensor:
#      x y z
#    x 1.763770 0.000000 0.000000 
#    y 0.000000 2.304260 0.000000 
#    z 0.000000 0.000000 1.760750 
# 
# From -- ./inp_files/28418.got.cif
#   From: 2010.05.17/outbox.cif.g08.bks.cpg/sg67_15_cif.got.tgz:28418.got - 2010.06.03 18:28:57.
