data_PCOD9502591
_publ_section_title
;
Structure prediction by ZEFSAII (Michael W. Deem and Ramdas Pophale) SiO2 
 PCOD9502591
Probable space group: C M M A
;
_chemical_formula_sum "Si O2"
_cell_formula_units_Z 96
_cell_length_a 8.614512
_cell_length_b 18.950167
_cell_length_c 31.883193
_cell_angle_alpha 90.000000
_cell_angle_beta 90.000000
_cell_angle_gamma 90.000000
_cell_volume 5204.817786
_symmetry_space_group_name_H-M "C M M A"
_symmetry_group_IT_number 67
_symmetry_cell_setting 'orthorhombic'
loop_
_space_group_symop_operation_xyz
x,y,z
-x,1/2-y,z
x,-y,-z
-x,1/2+y,-z
-x,-y,-z
x,1/2+y,-z
-x,y,z
x,1/2-y,z
1/2+x,1/2+y,z
1/2-x,-y,z
1/2+x,1/2-y,-z
1/2-x,y,-z
1/2-x,1/2-y,-z
1/2+x,y,-z
1/2-x,1/2+y,z
1/2+x,-y,z
loop_
_atom_site_type_symbol
_atom_site_label
_atom_site_fract_x
_atom_site_fract_y
_atom_site_fract_z
Si Si1 0.187158 0.668517 0.545555
Si Si2 0.686400 0.420889 0.625983
Si Si3 0.687658 0.168216 0.296059
Si Si4 0.813366 0.579050 0.875139
Si Si5 0.313662 0.579299 0.785592
Si Si6 0.687064 0.331659 0.955691
O O1 0.235903 0.750000 0.553425
O O2 0.250000 0.647455 0.500000
O O3 0.238304 0.617849 0.583115
O O4 0.000000 0.667581 0.544252
O O5 0.500000 0.422962 0.626309
O O6 0.750000 0.500000 0.628500
O O7 0.743845 0.374864 0.665129
O O8 0.500000 0.166158 0.298724
O O9 0.736425 0.250000 0.296796
O O10 0.732125 0.129566 0.252774
O O11 0.750000 0.500000 0.880227
O O12 0.750455 0.605120 0.830338
O O13 0.762895 0.625224 0.914879
O O14 0.000000 0.577720 0.873591
O O15 0.500000 0.575807 0.787661
O O16 0.250000 0.500000 0.778759
O O17 0.500000 0.333156 0.957121
O O18 0.737130 0.250000 0.951956
O O19 0.750000 0.359645 0.000000
#
# Coordination Sequence:
#
# PCOD9502591 Si02
#       6
#    16  16  16  16  16  16
#     4   9  19  36  57  81 109 142 181 224 270 321
#     4  11  23  38  57  82 112 146 185 227 271 321
#     4  10  22  39  58  82 111 142 179 223 270 322
#     4  10  20  34  53  77 105 136 172 214 259 310
#     4  10  20  35  55  78 106 139 175 215 261 314
#     4   9  19  35  53  74 101 134 172 213 257 306
#
# _framework density 18.44445
#
# number of rings (size 3 to 8) (size 9 to 14) (size 15 to 20)
#    0.000    2.167    0.000    3.500    0.000    7.667 
#    0.000    5.000    0.000    0.000    0.000    0.000 
#    0.000    0.000    0.000    0.000    0.000    0.000 
#
# Total GULP energy -268010.821119 kJ/mol
# GULP energy per Si atom -5583.558773 kJ/mol
# Density = 1.840247 g / cm^3
# Si number density = 18.444450 Si / 1000 Ang^3
#
#
#
# Elastic Constant Matrix: (Units=GPa)
#
#
# Indices 1 2 3 4 5 6 
#
# 1 29.5967 32.0271 45.1784 0.0000 0.0000 0.0000
# 2 32.0271 120.3646 122.1748 0.0000 0.0000 0.0000
# 3 45.1784 122.1748 216.8418 0.0000 0.0000 0.0000
# 4 0.0000 0.0000 0.0000 42.7120 0.0000 0.0000
# 5 0.0000 0.0000 0.0000 0.0000 31.0770 0.0000
# 6 0.0000 0.0000 0.0000 0.0000 0.0000 15.6749
#
#
#
# Elastic Compliance Matrix: (Units=1/GPa)
#
#
# Indices 1 2 3 4 5 6 
#
# 1 0.051691 -0.006593 -0.007055 0.000000 0.000000 0.000000
# 2 -0.006593 0.020248 -0.010035 0.000000 0.000000 0.000000
# 3 -0.007055 -0.010035 0.011735 0.000000 0.000000 0.000000
# 4 0.000000 0.000000 0.000000 0.023413 0.000000 0.000000
# 5 0.000000 0.000000 0.000000 0.000000 0.032178 0.000000
# 6 0.000000 0.000000 0.000000 0.000000 0.000000 0.063796
#
#
# Mechanical properties :
#
#
# Convention : Reuss Voigt Hill
#
# Bulk Modulus (GPa) = 27.54127 85.06262 56.30194
# Shear Modulus (GPa) = 19.04544 29.05430 24.04987
#
# Velocity S-wave (km/s) = 3.21687 3.97323 3.61488
# Velocity P-wave (km/s) = 5.36303 8.20165 6.92926
#
# Compressibility (1/GPa) = 0.03630915
#
# Stress axis : x y z
#
# Youngs Moduli (GPa) = 19.34559 49.38777 85.21284
#
# Poissons Ratio (x) = 0.32562 0.60118
# Poissons Ratio (y) = 0.12755 0.85508
# Poissons Ratio (z) = 0.13648 0.49559
#
# Static dielectric constant tensor:
#      x y z
#    x 1.626170 0.000000 0.000000 
#    y 0.000000 1.615870 0.000000 
#    z 0.000000 0.000000 1.623080 
# 
# From -- ./inp_files/43473.got.cif
#   From: 2010.05.17/outbox.cif.g08.bks.cpg/sg67_22_cif.got.tgz:43473.got - 2010.06.03 18:28:57.
