data_PCOD9502378
_publ_section_title
;
Structure prediction by ZEFSAII (Michael W. Deem and Ramdas Pophale) SiO2 
 PCOD9502378
Probable space group: C M M A
;
_chemical_formula_sum "Si O2"
_cell_formula_units_Z 64
_cell_length_a 13.615285
_cell_length_b 20.749419
_cell_length_c 12.305861
_cell_angle_alpha 90.000000
_cell_angle_beta 90.000000
_cell_angle_gamma 90.000000
_cell_volume 3476.519602
_symmetry_space_group_name_H-M "C M M A"
_symmetry_group_IT_number 67
_symmetry_cell_setting 'orthorhombic'
loop_
_space_group_symop_operation_xyz
x,y,z
-x,1/2-y,z
x,-y,-z
-x,1/2+y,-z
-x,-y,-z
x,1/2+y,-z
-x,y,z
x,1/2-y,z
1/2+x,1/2+y,z
1/2-x,-y,z
1/2+x,1/2-y,-z
1/2-x,y,-z
1/2-x,1/2-y,-z
1/2+x,y,-z
1/2-x,1/2+y,z
1/2+x,-y,z
loop_
_atom_site_type_symbol
_atom_site_label
_atom_site_fract_x
_atom_site_fract_y
_atom_site_fract_z
Si Si1 0.613975 0.478990 0.875414
Si Si2 0.738351 0.588317 0.758409
Si Si3 0.384752 0.676730 0.624979
Si Si4 0.613529 0.431422 0.559778
O O1 0.500000 0.469169 0.852609
O O2 0.658323 0.534957 0.796869
O O3 0.680571 0.416425 0.852894
O O4 0.624884 0.500000 0.000000
O O5 0.680497 0.651858 0.724917
O O6 0.805281 0.572470 0.652998
O O7 0.500000 0.673749 0.653998
O O8 0.360894 0.750000 0.593875
O O9 0.371633 0.626381 0.526196
O O10 0.621974 0.500000 0.500000
O O11 0.500000 0.426523 0.599636
#
# Coordination Sequence:
#
# PCOD9502378 Si02
#       4
#    16  16  16  16
#     4  10  21  36  55  81 111 139 174 230 292 338
#     4  11  19  31  54  79 102 137 183 223 266 323
#     4  10  22  38  54  77 113 153 187 220 266 329
#     4  10  20  33  51  79 113 144 178 222 267 317
#
# _framework density 18.409215
#
# number of rings (size 3 to 8) (size 9 to 14) (size 15 to 20)
#    0.000    1.750    0.000    6.750    0.000    5.000 
#    0.000    0.000    0.000    6.000    0.000    3.500 
#    0.000    4.000    0.000    0.000    0.000    0.000 
#
# Total GULP energy -178471.247216 kJ/mol
# GULP energy per Si atom -5577.226476 kJ/mol
# Density = 1.836731 g / cm^3
# Si number density = 18.409215 Si / 1000 Ang^3
#
#
#
# Elastic Constant Matrix: (Units=GPa)
#
#
# Indices 1 2 3 4 5 6 
#
# 1 124.2083 38.4438 48.7957 0.0000 0.0000 0.0000
# 2 38.4438 122.3757 46.9795 0.0000 0.0000 0.0000
# 3 48.7957 46.9795 75.9972 0.0000 0.0000 0.0000
# 4 0.0000 0.0000 0.0000 20.2799 0.0000 0.0000
# 5 0.0000 0.0000 0.0000 0.0000 40.2958 0.0000
# 6 0.0000 0.0000 0.0000 0.0000 0.0000 20.5396
#
#
#
# Elastic Compliance Matrix: (Units=1/GPa)
#
#
# Indices 1 2 3 4 5 6 
#
# 1 0.010853 -0.000963 -0.006373 0.000000 0.000000 0.000000
# 2 -0.000963 0.010800 -0.006058 0.000000 0.000000 0.000000
# 3 -0.006373 -0.006058 0.020995 0.000000 0.000000 0.000000
# 4 0.000000 0.000000 0.000000 0.049310 0.000000 0.000000
# 5 0.000000 0.000000 0.000000 0.000000 0.024816 0.000000
# 6 0.000000 0.000000 0.000000 0.000000 0.000000 0.048686
#
#
# Mechanical properties :
#
#
# Convention : Reuss Voigt Hill
#
# Bulk Modulus (GPa) = 63.05138 65.66878 64.36008
# Shear Modulus (GPa) = 25.31207 28.78055 27.04631
#
# Velocity S-wave (km/s) = 3.71208 3.95825 3.83714
# Velocity P-wave (km/s) = 7.25927 7.52592 7.39379
#
# Compressibility (1/GPa) = 0.01586008
#
# Stress axis : x y z
#
# Youngs Moduli (GPa) = 92.14345 92.59613 47.63000
#
# Poissons Ratio (x) = 0.08914 0.30355
# Poissons Ratio (y) = 0.08871 0.28854
# Poissons Ratio (z) = 0.58724 0.56094
#
# Static dielectric constant tensor:
#      x y z
#    x 1.691010 0.000000 0.000000 
#    y 0.000000 1.633460 0.000000 
#    z 0.000000 0.000000 1.664910 
# 
# From -- ./inp_files/17644.got.cif
#   From: 2010.05.17/outbox.cif.g08.bks.cpg/sg67_9_cif.got.tgz:17644.got - 2010.06.03 18:28:57.
