data_PCOD9502249
_publ_section_title
;
Structure prediction by ZEFSAII (Michael W. Deem and Ramdas Pophale) SiO2 
 PCOD9502249
Probable space group: C M M A
;
_chemical_formula_sum "Si O2"
_cell_formula_units_Z 112
_cell_length_a 29.942297
_cell_length_b 7.500159
_cell_length_c 27.150295
_cell_angle_alpha 90.000000
_cell_angle_beta 90.000000
_cell_angle_gamma 90.000000
_cell_volume 6097.195732
_symmetry_space_group_name_H-M "C M M A"
_symmetry_group_IT_number 67
_symmetry_cell_setting 'orthorhombic'
loop_
_space_group_symop_operation_xyz
x,y,z
-x,1/2-y,z
x,-y,-z
-x,1/2+y,-z
-x,-y,-z
x,1/2+y,-z
-x,y,z
x,1/2-y,z
1/2+x,1/2+y,z
1/2-x,-y,z
1/2+x,1/2-y,-z
1/2-x,y,-z
1/2-x,1/2-y,-z
1/2+x,y,-z
1/2-x,1/2+y,z
1/2+x,-y,z
loop_
_atom_site_type_symbol
_atom_site_label
_atom_site_fract_x
_atom_site_fract_y
_atom_site_fract_z
Si Si1 0.947784 0.967596 0.660840
Si Si2 0.551093 0.462978 0.552931
Si Si3 0.299405 0.963352 0.090915
Si Si4 0.393293 0.536812 0.054676
Si Si5 0.551224 0.532072 0.148823
Si Si6 0.700378 0.536874 0.204101
Si Si7 0.607462 0.968032 0.244872
O O1 0.947593 0.750000 0.662089
O O2 0.931615 0.024132 0.606211
O O3 0.916773 0.029051 0.705435
O O4 0.000000 0.019435 0.666966
O O5 0.573077 0.500000 0.500000
O O6 0.500000 0.533011 0.550281
O O7 0.548718 0.250000 0.556116
O O8 0.303012 0.750000 0.093162
O O9 0.342468 0.031141 0.061672
O O10 0.301737 0.031259 0.147538
O O11 0.250000 0.000000 0.070831
O O12 0.391928 0.750000 0.059848
O O13 0.423946 0.470991 0.099302
O O14 0.410049 0.500000 0.000000
O O15 0.500000 0.474244 0.150869
O O16 0.551183 0.750000 0.148485
O O17 0.578738 0.478942 0.197110
O O18 0.695788 0.750000 0.200863
O O19 0.750000 0.500000 0.223463
O O20 0.658350 0.472575 0.235671
O O21 0.607423 0.750000 0.246153
#
# Coordination Sequence:
#
# PCOD9502249 Si02
#       7
#    16  16  16  16  16  16  16
#     4   8  13  20  33  58  87 110 137 174 208 235
#     4   8  13  21  33  51  78 111 143 171 198 231
#     4   9  17  30  46  63  84 105 129 161 198 243
#     4  10  20  33  46  63  85 106 132 167 202 240
#     4   9  16  27  44  63  82 106 135 166 202 242
#     4   9  16  27  44  64  84 106 131 160 198 245
#     4   9  14  23  41  63  85 107 133 168 207 242
#
# _framework density 18.369101000000001
#
# number of rings (size 3 to 8) (size 9 to 14) (size 15 to 20)
#    0.000    3.143    1.429    1.286    0.000    2.857 
#    0.000    1.429    0.000    0.857    0.000    0.000 
#    0.000    4.000    0.000    7.143    0.000    0.286 
#
# Total GULP energy -312084.186272 kJ/mol
# GULP energy per Si atom -5572.931898 kJ/mol
# Density = 1.832729 g / cm^3
# Si number density = 18.369101 Si / 1000 Ang^3
#
#
#
# Elastic Constant Matrix: (Units=GPa)
#
#
# Indices 1 2 3 4 5 6 
#
# 1 116.3896 2.0265 76.4949 0.0000 0.0000 0.0000
# 2 2.0265 47.1203 1.8705 0.0000 0.0000 0.0000
# 3 76.4949 1.8705 166.1690 0.0000 0.0000 0.0000
# 4 0.0000 0.0000 0.0000 5.7409 0.0000 0.0000
# 5 0.0000 0.0000 0.0000 0.0000 8.6164 0.0000
# 6 0.0000 0.0000 0.0000 0.0000 0.0000 6.3383
#
#
#
# Elastic Compliance Matrix: (Units=1/GPa)
#
#
# Indices 1 2 3 4 5 6 
#
# 1 0.012323 -0.000305 -0.005670 0.000000 0.000000 0.000000
# 2 -0.000305 0.021239 -0.000099 0.000000 0.000000 0.000000
# 3 -0.005670 -0.000099 0.008629 0.000000 0.000000 0.000000
# 4 0.000000 0.000000 0.000000 0.174187 0.000000 0.000000
# 5 0.000000 0.000000 0.000000 0.000000 0.116057 0.000000
# 6 0.000000 0.000000 0.000000 0.000000 0.000000 0.157770
#
#
# Mechanical properties :
#
#
# Convention : Reuss Voigt Hill
#
# Bulk Modulus (GPa) = 33.28307 54.49586 43.88946
# Shear Modulus (GPa) = 9.75862 20.75827 15.25844
#
# Velocity S-wave (km/s) = 2.30739 3.36529 2.88524
# Velocity P-wave (km/s) = 5.02565 6.69565 5.91984
#
# Compressibility (1/GPa) = 0.03004531
#
# Stress axis : x y z
#
# Youngs Moduli (GPa) = 81.14678 47.08249 115.88799
#
# Poissons Ratio (x) = 0.01436 0.65703
# Poissons Ratio (y) = 0.02474 0.01144
# Poissons Ratio (z) = 0.46007 0.00465
#
# Static dielectric constant tensor:
#      x y z
#    x 1.625070 0.000000 0.000000 
#    y 0.000000 1.783690 0.000000 
#    z 0.000000 0.000000 1.651840 
# 
# From -- ./inp_files/40048.got.cif
#   From: 2010.05.17/outbox.cif.g08.bks.cpg/sg67_21_cif.got.tgz:40048.got - 2010.06.03 18:28:57.
