data_PCOD9502608
_publ_section_title
;
Structure prediction by ZEFSAII (Michael W. Deem and Ramdas Pophale) SiO2 
 PCOD9502608
Probable space group: C M M A
;
_chemical_formula_sum "Si O2"
_cell_formula_units_Z 100
_cell_length_a 19.590512
_cell_length_b 15.105775
_cell_length_c 15.442628
_cell_angle_alpha 90.000000
_cell_angle_beta 90.000000
_cell_angle_gamma 90.000000
_cell_volume 4569.934841
_symmetry_space_group_name_H-M "C M M A"
_symmetry_group_IT_number 67
_symmetry_cell_setting 'orthorhombic'
loop_
_space_group_symop_operation_xyz
x,y,z
-x,1/2-y,z
x,-y,-z
-x,1/2+y,-z
-x,-y,-z
x,1/2+y,-z
-x,y,z
x,1/2-y,z
1/2+x,1/2+y,z
1/2-x,-y,z
1/2+x,1/2-y,-z
1/2-x,y,-z
1/2-x,1/2-y,-z
1/2+x,y,-z
1/2-x,1/2+y,z
1/2+x,-y,z
loop_
_atom_site_type_symbol
_atom_site_label
_atom_site_fract_x
_atom_site_fract_y
_atom_site_fract_z
Si Si1 0.078178 0.610699 0.160536
Si Si2 0.422251 0.894231 0.163575
Si Si3 0.176908 0.607543 0.307363
Si Si4 0.674057 0.900655 0.310613
Si Si5 0.500000 0.250000 0.501270
Si Si6 0.828776 0.392091 0.001965
Si Si7 0.640908 0.653375 0.498532
O O1 0.074836 0.502418 0.160860
O O2 0.115873 0.642569 0.247828
O O3 0.000000 0.641174 0.153156
O O4 0.126653 0.636064 0.080690
O O5 0.500000 0.863312 0.152328
O O6 0.388855 0.865009 0.254534
O O7 0.370669 0.866551 0.087669
O O8 0.252969 0.642484 0.289139
O O9 0.179282 0.503531 0.286246
O O10 0.162212 0.617397 0.408698
O O11 0.661205 0.898433 0.412944
O O12 0.560534 0.325929 0.501043
O O13 0.826862 0.500000 0.000000
O O14 0.750000 0.362243 0.000000
O O15 0.673978 0.750000 0.487928
#
# Coordination Sequence:
#
# PCOD9502608 Si02
#       7
#    16  16  16  16   4  16  16
#     4   9  17  27  43  68 100 135 171 208 254 307
#     4   9  17  27  43  68 100 135 171 208 254 307
#     4  10  20  34  53  79 107 136 173 217 262 309
#     4  10  20  34  53  79 107 136 173 217 262 309
#     4   8  24  40  52  76 104 130 176 224 260 312
#     4   9  15  25  41  63  96 135 170 209 254 301
#     4  10  22  38  56  72 104 136 174 214 261 309
#
# _framework density 21.882149999999999
#
# number of rings (size 3 to 8) (size 9 to 14) (size 15 to 20)
#    0.480    2.080    0.000    2.400    2.240    8.320 
#    0.000    0.800    0.000    0.000    0.000    1.120 
#    0.000    7.680    0.000    0.000    0.000    0.000 
#
# Total GULP energy -278375.167633 kJ/mol
# GULP energy per Si atom -5567.503353 kJ/mol
# Density = 2.183234 g / cm^3
# Si number density = 21.882150 Si / 1000 Ang^3
#
#
#
# Elastic Constant Matrix: (Units=GPa)
#
#
# Indices 1 2 3 4 5 6 
#
# 1 210.5130 7.6190 61.0355 0.0000 0.0000 0.0000
# 2 7.6190 45.8442 -9.2995 0.0000 0.0000 0.0000
# 3 61.0355 -9.2995 123.4804 0.0000 0.0000 0.0000
# 4 0.0000 0.0000 0.0000 -38.1174 0.0000 0.0000
# 5 0.0000 0.0000 0.0000 0.0000 10.6316 0.0000
# 6 0.0000 0.0000 0.0000 0.0000 0.0000 -5.3582
#
#
#
# Elastic Compliance Matrix: (Units=1/GPa)
#
#
# Indices 1 2 3 4 5 6 
#
# 1 0.005649 -0.001528 -0.002907 0.000000 0.000000 0.000000
# 2 -0.001528 0.022565 0.002455 0.000000 0.000000 0.000000
# 3 -0.002907 0.002455 0.009720 0.000000 0.000000 0.000000
# 4 0.000000 0.000000 0.000000 -0.026235 0.000000 0.000000
# 5 0.000000 0.000000 0.000000 0.000000 0.094059 0.000000
# 6 0.000000 0.000000 0.000000 0.000000 0.000000 -0.186630
#
#
# Mechanical properties :
#
#
# Convention : Reuss Voigt Hill
#
# Bulk Modulus (GPa) = 29.43562 55.39419 42.41491
# Shear Modulus (GPa) = -76.23545 14.79670 -30.71938
#
# Velocity S-wave (km/s) = -5.90887 2.60320 -3.75087
# Velocity P-wave (km/s) = 5.75082 5.86560 0.81652
#
# Compressibility (1/GPa) = 0.03397245
#
# Stress axis : x y z
#
# Youngs Moduli (GPa) = 177.03796 44.31644 102.87735
#
# Poissons Ratio (x) = 0.06774 0.29908
# Poissons Ratio (y) = 0.27060 -0.25255
# Poissons Ratio (z) = 0.51467 -0.10879
#
# Static dielectric constant tensor:
#      x y z
#    x 1.786500 0.000000 0.000000 
#    y 0.000000 1.837020 0.000000 
#    z 0.000000 0.000000 1.786830 
# 
# From -- ./inp_files/28625.got.cif
#   From: 2010.05.17/outbox.cif.g08.bks.cpg/sg67_15_cif.got.tgz:28625.got - 2010.06.03 18:28:57.
