data_PCOD9502623
_publ_section_title
;
Structure prediction by ZEFSAII (Michael W. Deem and Ramdas Pophale) SiO2 
 PCOD9502623
Probable space group: C M M A
;
_chemical_formula_sum "Si O2"
_cell_formula_units_Z 96
_cell_length_a 16.316825
_cell_length_b 19.001611
_cell_length_c 16.026047
_cell_angle_alpha 90.000000
_cell_angle_beta 90.000000
_cell_angle_gamma 90.000000
_cell_volume 4968.811150
_symmetry_space_group_name_H-M "C M M A"
_symmetry_group_IT_number 67
_symmetry_cell_setting 'orthorhombic'
loop_
_space_group_symop_operation_xyz
x,y,z
-x,1/2-y,z
x,-y,-z
-x,1/2+y,-z
-x,-y,-z
x,1/2+y,-z
-x,y,z
x,1/2-y,z
1/2+x,1/2+y,z
1/2-x,-y,z
1/2+x,1/2-y,-z
1/2-x,y,-z
1/2-x,1/2-y,-z
1/2+x,y,-z
1/2-x,1/2+y,z
1/2+x,-y,z
loop_
_atom_site_type_symbol
_atom_site_label
_atom_site_fract_x
_atom_site_fract_y
_atom_site_fract_z
Si Si1 0.098283 0.327496 0.844153
Si Si2 0.325250 0.948757 0.246988
Si Si3 0.596754 0.955684 0.421869
Si Si4 0.598565 0.519250 0.908084
Si Si5 0.212524 0.829890 0.314403
Si Si6 0.904516 0.666003 0.463137
O O1 0.118777 0.250000 0.882382
O O2 0.125023 0.400413 0.887208
O O3 0.140444 0.328330 0.754238
O O4 0.000000 0.329970 0.836478
O O5 0.369809 0.972773 0.331477
O O6 0.285355 0.874476 0.273016
O O7 0.250000 0.000000 0.233494
O O8 0.377101 0.962975 0.163586
O O9 0.500000 0.968585 0.418367
O O10 0.609655 0.875119 0.450712
O O11 0.630605 0.000000 0.500000
O O12 0.500000 0.520197 0.910486
O O13 0.629782 0.500000 0.000000
O O14 0.239665 0.750000 0.330754
O O15 0.165461 0.856677 0.397237
O O16 0.899611 0.750000 0.471336
O O17 0.000000 0.649499 0.437247
#
# Coordination Sequence:
#
# PCOD9502623 Si02
#       6
#    16  16  16  16  16  16
#     4   9  17  33  59  87 113 144 187 239 285 329
#     4  12  23  37  55  83 115 153 184 232 292 360
#     4  10  22  37  54  77 109 149 194 238 281 332
#     4  10  22  41  64  87 112 147 193 241 290 348
#     4  10  20  34  53  84 120 152 189 235 287 339
#     4   9  18  34  56  80 110 154 204 246 282 329
#
# _framework density 19.320516999999999
#
# number of rings (size 3 to 8) (size 9 to 14) (size 15 to 20)
#    0.000    2.000    1.667    2.000    0.000    5.333 
#    0.000    2.500    0.000    4.500    0.000    0.000 
#    0.000    0.000    0.000    0.000    0.000    0.000 
#
# Total GULP energy -267443.191399 kJ/mol
# GULP energy per Si atom -5571.733154 kJ/mol
# Density = 1.927654 g / cm^3
# Si number density = 19.320517 Si / 1000 Ang^3
#
#
#
# Elastic Constant Matrix: (Units=GPa)
#
#
# Indices 1 2 3 4 5 6 
#
# 1 17.0332 10.6810 13.4844 0.0000 0.0000 0.0000
# 2 10.6810 53.9936 6.3352 0.0000 0.0000 0.0000
# 3 13.4844 6.3352 91.4171 0.0000 0.0000 0.0000
# 4 0.0000 0.0000 0.0000 23.9419 0.0000 0.0000
# 5 0.0000 0.0000 0.0000 0.0000 15.8612 0.0000
# 6 0.0000 0.0000 0.0000 0.0000 0.0000 36.5105
#
#
#
# Elastic Compliance Matrix: (Units=1/GPa)
#
#
# Indices 1 2 3 4 5 6 
#
# 1 0.075356 -0.013714 -0.010165 0.000000 0.000000 0.000000
# 2 -0.013714 0.021168 0.000556 0.000000 0.000000 0.000000
# 3 -0.010165 0.000556 0.012400 0.000000 0.000000 0.000000
# 4 0.000000 0.000000 0.000000 0.041768 0.000000 0.000000
# 5 0.000000 0.000000 0.000000 0.000000 0.063047 0.000000
# 6 0.000000 0.000000 0.000000 0.000000 0.000000 0.027389
#
#
# Mechanical properties :
#
#
# Convention : Reuss Voigt Hill
#
# Bulk Modulus (GPa) = 16.05715 24.82723 20.44219
# Shear Modulus (GPa) = 16.20569 24.05893 20.13231
#
# Velocity S-wave (km/s) = 2.89931 3.53264 3.23153
# Velocity P-wave (km/s) = 4.42007 5.43300 4.95250
#
# Compressibility (1/GPa) = 0.06227756
#
# Stress axis : x y z
#
# Youngs Moduli (GPa) = 13.27039 47.24013 80.64711
#
# Poissons Ratio (x) = 0.64786 0.81977
# Poissons Ratio (y) = 0.18199 -0.04483
# Poissons Ratio (z) = 0.13489 -0.02626
#
# Static dielectric constant tensor:
#      x y z
#    x 1.718560 0.000000 0.000000 
#    y 0.000000 1.797850 0.000000 
#    z 0.000000 0.000000 1.682030 
# 
# From -- ./inp_files/27144.got.cif
#   From: 2010.05.17/outbox.cif.g08.bks.cpg/sg67_14_cif.got.tgz:27144.got - 2010.06.03 18:28:57.
