data_PCOD9502170
_publ_section_title
;
Structure prediction by ZEFSAII (Michael W. Deem and Ramdas Pophale) SiO2 
 PCOD9502170
Probable space group: C M M A
;
_chemical_formula_sum "Si O2"
_cell_formula_units_Z 96
_cell_length_a 19.319128
_cell_length_b 8.829597
_cell_length_c 32.552263
_cell_angle_alpha 90.000000
_cell_angle_beta 90.000000
_cell_angle_gamma 90.000000
_cell_volume 5552.768754
_symmetry_space_group_name_H-M "C M M A"
_symmetry_group_IT_number 67
_symmetry_cell_setting 'orthorhombic'
loop_
_space_group_symop_operation_xyz
x,y,z
-x,1/2-y,z
x,-y,-z
-x,1/2+y,-z
-x,-y,-z
x,1/2+y,-z
-x,y,z
x,1/2-y,z
1/2+x,1/2+y,z
1/2-x,-y,z
1/2+x,1/2-y,-z
1/2-x,y,-z
1/2-x,1/2-y,-z
1/2+x,y,-z
1/2-x,1/2+y,z
1/2+x,-y,z
loop_
_atom_site_type_symbol
_atom_site_label
_atom_site_fract_x
_atom_site_fract_y
_atom_site_fract_z
Si Si1 0.827068 0.068691 0.632049
Si Si2 0.915888 0.425713 0.205187
Si Si3 0.581062 0.433303 0.704114
Si Si4 0.826792 0.067086 0.956847
Si Si5 0.672479 0.569028 0.540943
Si Si6 0.579639 0.068143 0.120201
O O1 0.822357 0.250000 0.635262
O O2 0.856417 0.033204 0.586235
O O3 0.750000 0.000000 0.635031
O O4 0.874235 0.002664 0.667866
O O5 0.896067 0.250000 0.201509
O O6 0.894175 0.482743 0.250250
O O7 0.893422 0.511533 0.164283
O O8 0.000000 0.431973 0.206104
O O9 0.500000 0.473862 0.699585
O O10 0.585206 0.250000 0.703311
O O11 0.823713 0.250000 0.959320
O O12 0.874157 0.021532 0.918398
O O13 0.750000 0.000000 0.951264
O O14 0.853421 0.000000 0.000000
O O15 0.638391 0.500000 0.500000
O O16 0.676567 0.750000 0.536601
O O17 0.750000 0.500000 0.542131
O O18 0.500000 0.015214 0.115357
O O19 0.578758 0.250000 0.120950
#
# Coordination Sequence:
#
# PCOD9502170 Si02
#       6
#    16  16  16  16  16  16
#     4  10  20  32  48  72 100 128 160 200 244 288
#     4   8  15  29  49  72  96 123 156 193 234 281
#     4   9  18  33  52  73  98 129 164 200 240 289
#     4  10  20  34  51  70  95 127 160 192 229 277
#     4   9  16  26  42  65  91 120 155 194 236 284
#     4   9  18  32  50  73  98 122 153 195 237 275
#
# _framework density 17.288672999999999
#
# number of rings (size 3 to 8) (size 9 to 14) (size 15 to 20)
#    0.000    2.833    0.000    3.500    0.000    4.667 
#    0.000    2.500    0.000    2.500    0.000    0.000 
#    0.000    0.000    0.000    0.000    0.000    0.000 
#
# Total GULP energy -267331.774048 kJ/mol
# GULP energy per Si atom -5569.411959 kJ/mol
# Density = 1.724932 g / cm^3
# Si number density = 17.288673 Si / 1000 Ang^3
#
#
#
# Elastic Constant Matrix: (Units=GPa)
#
#
# Indices 1 2 3 4 5 6 
#
# 1 38.6659 21.7282 67.6522 0.0000 0.0000 0.0000
# 2 21.7282 40.4406 56.0698 0.0000 0.0000 0.0000
# 3 67.6522 56.0698 222.3910 0.0000 0.0000 0.0000
# 4 0.0000 0.0000 0.0000 37.0949 0.0000 0.0000
# 5 0.0000 0.0000 0.0000 0.0000 29.4113 0.0000
# 6 0.0000 0.0000 0.0000 0.0000 0.0000 19.3405
#
#
#
# Elastic Compliance Matrix: (Units=1/GPa)
#
#
# Indices 1 2 3 4 5 6 
#
# 1 0.057950 -0.010292 -0.015034 0.000000 0.000000 0.000000
# 2 -0.010292 0.039845 -0.006915 0.000000 0.000000 0.000000
# 3 -0.015034 -0.006915 0.010813 0.000000 0.000000 0.000000
# 4 0.000000 0.000000 0.000000 0.026958 0.000000 0.000000
# 5 0.000000 0.000000 0.000000 0.000000 0.034001 0.000000
# 6 0.000000 0.000000 0.000000 0.000000 0.000000 0.051705
#
#
# Mechanical properties :
#
#
# Convention : Reuss Voigt Hill
#
# Bulk Modulus (GPa) = 22.66187 65.82199 44.24193
# Shear Modulus (GPa) = 16.64103 27.57248 22.10675
#
# Velocity S-wave (km/s) = 3.10585 3.99786 3.57975
# Velocity P-wave (km/s) = 5.09883 7.71139 6.53696
#
# Compressibility (1/GPa) = 0.04412698
#
# Stress axis : x y z
#
# Youngs Moduli (GPa) = 17.25614 25.09745 92.47823
#
# Poissons Ratio (x) = 0.25830 1.39031
# Poissons Ratio (y) = 0.17760 0.63948
# Poissons Ratio (z) = 0.25943 0.17355
#
# Static dielectric constant tensor:
#      x y z
#    x 1.566650 0.000000 0.000000 
#    y 0.000000 1.582400 0.000000 
#    z 0.000000 0.000000 1.624820 
# 
# From -- ./inp_files/44571.got.cif
#   From: 2010.05.17/outbox.cif.g08.bks.cpg/sg67_23_cif.got.tgz:44571.got - 2010.06.03 18:28:57.
