data_PCOD9502721
_publ_section_title
;
Structure prediction by ZEFSAII (Michael W. Deem and Ramdas Pophale) SiO2 
 PCOD9502721
Probable space group: C M M A
;
_chemical_formula_sum "Si O2"
_cell_formula_units_Z 100
_cell_length_a 30.431702
_cell_length_b 7.873058
_cell_length_c 20.258234
_cell_angle_alpha 90.000000
_cell_angle_beta 90.000000
_cell_angle_gamma 90.000000
_cell_volume 4853.681525
_symmetry_space_group_name_H-M "C M M A"
_symmetry_group_IT_number 67
_symmetry_cell_setting 'orthorhombic'
loop_
_space_group_symop_operation_xyz
x,y,z
-x,1/2-y,z
x,-y,-z
-x,1/2+y,-z
-x,-y,-z
x,1/2+y,-z
-x,y,z
x,1/2-y,z
1/2+x,1/2+y,z
1/2-x,-y,z
1/2+x,1/2-y,-z
1/2-x,y,-z
1/2-x,1/2-y,-z
1/2+x,y,-z
1/2-x,1/2+y,z
1/2+x,-y,z
loop_
_atom_site_type_symbol
_atom_site_label
_atom_site_fract_x
_atom_site_fract_y
_atom_site_fract_z
Si Si1 0.299462 0.451942 0.423668
Si Si2 0.048867 0.044559 0.751127
Si Si3 0.500000 0.250000 0.946821
Si Si4 0.170191 0.553054 0.072843
Si Si5 0.799283 0.057762 0.211351
Si Si6 0.065914 0.950317 0.093406
Si Si7 0.865617 0.553229 0.316258
O O1 0.305488 0.500000 0.500000
O O2 0.301344 0.250000 0.419187
O O3 0.250000 0.500000 0.403192
O O4 0.336804 0.524020 0.375348
O O5 0.048128 0.250000 0.743994
O O6 0.059403 0.017016 0.828242
O O7 0.087864 0.976100 0.705372
O O8 0.000000 0.979347 0.736979
O O9 0.537962 0.402021 0.940626
O O10 0.180613 0.750000 0.083569
O O11 0.191527 0.454652 0.133499
O O12 0.117302 0.533814 0.077025
O O13 0.184674 0.500000 0.000000
O O14 0.805178 0.250000 0.233735
O O15 0.750000 0.000000 0.225251
O O16 0.834772 0.950271 0.251569
O O17 0.052439 0.750000 0.081171
O O18 0.874146 0.750000 0.333667
#
# Coordination Sequence:
#
# PCOD9502721 Si02
#       7
#    16  16   4  16  16  16  16
#     4  10  20  34  56  82 117 157 197 238 290 354
#     4   9  16  32  57  82 114 151 194 237 291 350
#     4  12  22  32  66  82 122 146 208 248 304 378
#     4  11  24  43  65  84 117 157 197 246 302 367
#     4  12  25  40  62  90 119 152 195 244 303 362
#     4  10  21  37  59  84 116 156 196 250 306 360
#     4  10  20  36  59  88 120 155 194 244 297 347
#
# _framework density 20.602916
#
# number of rings (size 3 to 8) (size 9 to 14) (size 15 to 20)
#    0.000    1.600    2.400    3.600    2.240    2.880 
#    0.000    2.000    0.000    0.480    0.000    0.000 
#    0.000    0.000    0.000    0.000    0.000    0.640 
#
# Total GULP energy -278955.949192 kJ/mol
# GULP energy per Si atom -5579.118984 kJ/mol
# Density = 2.055602 g / cm^3
# Si number density = 20.602916 Si / 1000 Ang^3
#
#
#
# Elastic Constant Matrix: (Units=GPa)
#
#
# Indices 1 2 3 4 5 6 
#
# 1 109.5579 10.9802 57.9000 0.0000 0.0000 0.0000
# 2 10.9802 82.6292 7.8728 0.0000 0.0000 0.0000
# 3 57.9000 7.8728 100.2611 0.0000 0.0000 0.0000
# 4 0.0000 0.0000 0.0000 11.4990 0.0000 0.0000
# 5 0.0000 0.0000 0.0000 0.0000 -17.1976 0.0000
# 6 0.0000 0.0000 0.0000 0.0000 0.0000 26.7747
#
#
#
# Elastic Compliance Matrix: (Units=1/GPa)
#
#
# Indices 1 2 3 4 5 6 
#
# 1 0.013225 -0.001037 -0.007556 0.000000 0.000000 0.000000
# 2 -0.001037 0.012275 -0.000365 0.000000 0.000000 0.000000
# 3 -0.007556 -0.000365 0.014366 0.000000 0.000000 0.000000
# 4 0.000000 0.000000 0.000000 0.086964 0.000000 0.000000
# 5 0.000000 0.000000 0.000000 0.000000 -0.058148 0.000000
# 6 0.000000 0.000000 0.000000 0.000000 0.000000 0.037349
#
#
# Mechanical properties :
#
#
# Convention : Reuss Voigt Hill
#
# Bulk Modulus (GPa) = 45.55864 49.55047 47.55456
# Shear Modulus (GPa) = 38.09145 18.59491 28.34318
#
# Velocity S-wave (km/s) = 4.30448 3.00749 3.71305
# Velocity P-wave (km/s) = 6.84583 6.01352 6.44313
#
# Compressibility (1/GPa) = 0.02194973
#
# Stress axis : x y z
#
# Youngs Moduli (GPa) = 75.61637 81.46722 69.60908
#
# Poissons Ratio (x) = 0.08452 0.52594
# Poissons Ratio (y) = 0.07845 0.02539
# Poissons Ratio (z) = 0.57133 0.02971
#
# Static dielectric constant tensor:
#      x y z
#    x 1.747510 0.000000 0.000000 
#    y 0.000000 1.715960 0.000000 
#    z 0.000000 0.000000 1.770190 
# 
# From -- ./inp_files/40185.got.cif
#   From: 2010.05.17/outbox.cif.g08.bks.cpg/sg67_21_cif.got.tgz:40185.got - 2010.06.03 18:28:57.
