data_PCOD9502202
_publ_section_title
;
Structure prediction by ZEFSAII (Michael W. Deem and Ramdas Pophale) SiO2 
 PCOD9502202
Probable space group: C M M A
;
_chemical_formula_sum "Si O2"
_cell_formula_units_Z 120
_cell_length_a 27.047239
_cell_length_b 8.620563
_cell_length_c 28.549616
_cell_angle_alpha 90.000000
_cell_angle_beta 90.000000
_cell_angle_gamma 90.000000
_cell_volume 6656.697779
_symmetry_space_group_name_H-M "C M M A"
_symmetry_group_IT_number 67
_symmetry_cell_setting 'orthorhombic'
loop_
_space_group_symop_operation_xyz
x,y,z
-x,1/2-y,z
x,-y,-z
-x,1/2+y,-z
-x,-y,-z
x,1/2+y,-z
-x,y,z
x,1/2-y,z
1/2+x,1/2+y,z
1/2-x,-y,z
1/2+x,1/2-y,-z
1/2-x,y,-z
1/2-x,1/2-y,-z
1/2+x,y,-z
1/2-x,1/2+y,z
1/2+x,-y,z
loop_
_atom_site_type_symbol
_atom_site_label
_atom_site_fract_x
_atom_site_fract_y
_atom_site_fract_z
Si Si1 0.056746 0.425246 0.269356
Si Si2 0.605271 0.437586 0.353879
Si Si3 0.870044 0.070382 0.797683
Si Si4 0.800559 0.434065 0.947562
Si Si5 0.896640 0.434799 0.102795
Si Si6 0.942935 0.063377 0.551080
Si Si7 0.500000 0.937890 0.053522
Si Si8 0.195723 0.063327 0.713294
O O1 0.076871 0.250000 0.262384
O O2 0.064299 0.477862 0.322480
O O3 0.085181 0.550323 0.238552
O O4 0.000000 0.422994 0.256248
O O5 0.600502 0.250000 0.350393
O O6 0.594586 0.481870 0.407441
O O7 0.656644 0.480799 0.327664
O O8 0.861813 0.250000 0.810533
O O9 0.824737 0.013515 0.764765
O O10 0.886511 0.976986 0.843237
O O11 0.797193 0.250000 0.948605
O O12 0.750000 0.500000 0.924919
O O13 0.850969 0.487104 0.923772
O O14 0.802022 0.500000 0.000000
O O15 0.894069 0.250000 0.096713
O O16 0.949927 0.485377 0.081531
O O17 0.943015 0.250000 0.549030
O O18 0.000000 0.014596 0.561437
O O19 0.929708 0.000000 0.500000
O O20 0.500000 0.750000 0.051473
O O21 0.500000 0.000000 0.000000
O O22 0.196477 0.250000 0.714406
O O23 0.250000 0.000000 0.704662
#
# Coordination Sequence:
#
# PCOD9502202 Si02
#       8
#    16  16  16  16  16  16   8  16
#     4  10  20  32  49  74 104 136 171 216 264 313
#     4   9  18  33  51  73 101 136 179 221 265 324
#     4  10  22  38  54  78 107 141 180 218 264 325
#     4  11  22  39  62  88 114 144 182 228 281 336
#     4  11  23  40  60  86 118 151 187 234 283 335
#     4   9  17  29  47  72 104 140 175 217 270 324
#     4  10  24  42  62  86 116 154 194 234 279 332
#     4   9  19  35  55  77 103 134 176 223 271 326
#
# _framework density 18.026956999999999
#
# number of rings (size 3 to 8) (size 9 to 14) (size 15 to 20)
#    0.000    2.133    0.000    4.400    0.933    7.467 
#    0.000    2.667    0.000    0.400    0.000    2.800 
#    0.000    0.000    0.000    0.000    0.000    0.000 
#
# Total GULP energy -334430.151729 kJ/mol
# GULP energy per Si atom -5573.835862 kJ/mol
# Density = 1.798593 g / cm^3
# Si number density = 18.026957 Si / 1000 Ang^3
#
#
#
# Elastic Constant Matrix: (Units=GPa)
#
#
# Indices 1 2 3 4 5 6 
#
# 1 116.0476 28.2080 51.5244 0.0000 0.0000 0.0000
# 2 28.2080 43.9429 18.3692 0.0000 0.0000 0.0000
# 3 51.5244 18.3692 110.8783 0.0000 0.0000 0.0000
# 4 0.0000 0.0000 0.0000 28.2333 0.0000 0.0000
# 5 0.0000 0.0000 0.0000 0.0000 14.6052 0.0000
# 6 0.0000 0.0000 0.0000 0.0000 0.0000 26.3540
#
#
#
# Elastic Compliance Matrix: (Units=1/GPa)
#
#
# Indices 1 2 3 4 5 6 
#
# 1 0.012100 -0.005820 -0.004659 0.000000 0.000000 0.000000
# 2 -0.005820 0.027249 -0.001810 0.000000 0.000000 0.000000
# 3 -0.004659 -0.001810 0.011484 0.000000 0.000000 0.000000
# 4 0.000000 0.000000 0.000000 0.035419 0.000000 0.000000
# 5 0.000000 0.000000 0.000000 0.000000 0.068469 0.000000
# 6 0.000000 0.000000 0.000000 0.000000 0.000000 0.037945
#
#
# Mechanical properties :
#
#
# Convention : Reuss Voigt Hill
#
# Bulk Modulus (GPa) = 38.08642 51.89686 44.99164
# Shear Modulus (GPa) = 22.12436 25.35633 23.74035
#
# Velocity S-wave (km/s) = 3.50708 3.75451 3.63290
# Velocity P-wave (km/s) = 6.12966 6.90261 6.52759
#
# Compressibility (1/GPa) = 0.02625608
#
# Stress axis : x y z
#
# Youngs Moduli (GPa) = 82.64281 36.69807 87.08059
#
# Poissons Ratio (x) = 0.21358 0.40568
# Poissons Ratio (y) = 0.48098 0.15761
# Poissons Ratio (z) = 0.38501 0.06642
#
# Static dielectric constant tensor:
#      x y z
#    x 1.626880 0.000000 0.000000 
#    y 0.000000 1.626480 0.000000 
#    z 0.000000 0.000000 1.680570 
# 
# From -- ./inp_files/44996.got.cif
#   From: 2010.05.17/outbox.cif.g08.bks.cpg/sg67_23_cif.got.tgz:44996.got - 2010.06.03 18:28:57.
