data_PCOD9502456
_publ_section_title
;
Structure prediction by ZEFSAII (Michael W. Deem and Ramdas Pophale) SiO2 
 PCOD9502456
Probable space group: C M M A
;
_chemical_formula_sum "Si O2"
_cell_formula_units_Z 64
_cell_length_a 26.392378
_cell_length_b 10.639409
_cell_length_c 13.905942
_cell_angle_alpha 90.000000
_cell_angle_beta 90.000000
_cell_angle_gamma 90.000000
_cell_volume 3904.778835
_symmetry_space_group_name_H-M "C M M A"
_symmetry_group_IT_number 67
_symmetry_cell_setting 'orthorhombic'
loop_
_space_group_symop_operation_xyz
x,y,z
-x,1/2-y,z
x,-y,-z
-x,1/2+y,-z
-x,-y,-z
x,1/2+y,-z
-x,y,z
x,1/2-y,z
1/2+x,1/2+y,z
1/2-x,-y,z
1/2+x,1/2-y,-z
1/2-x,y,-z
1/2-x,1/2-y,-z
1/2+x,y,-z
1/2-x,1/2+y,z
1/2+x,-y,z
loop_
_atom_site_type_symbol
_atom_site_label
_atom_site_fract_x
_atom_site_fract_y
_atom_site_fract_z
Si Si1 0.602668 0.604599 0.422339
Si Si2 0.223144 0.384263 0.395060
Si Si3 0.938198 0.750000 0.143874
Si Si4 0.938876 0.522690 0.783644
Si Si5 0.438353 0.250000 0.921144
O O1 0.586711 0.500000 0.500000
O O2 0.590423 0.750000 0.448640
O O3 0.663659 0.596796 0.411250
O O4 0.579118 0.570589 0.319706
O O5 0.230885 0.250000 0.346527
O O6 0.250000 0.500000 0.343797
O O7 0.250000 0.376918 0.500000
O O8 0.921702 0.619559 0.193334
O O9 0.000000 0.750000 0.145703
O O10 0.922584 0.750000 0.032048
O O11 0.922420 0.624748 0.863651
O O12 0.000000 0.521795 0.784607
O O13 0.500000 0.250000 0.921233
#
# Coordination Sequence:
#
# PCOD9502456 Si02
#       5
#    16  16   8  16   8
#     4  11  22  33  49  70  99 138 166 200 239 285
#     4   9  16  30  48  68  89 119 156 207 245 275
#     4   9  18  32  53  75  93 126 167 209 250 281
#     4  10  20  34  48  72 105 131 166 202 236 294
#     4   9  16  32  55  71  93 128 163 207 254 283
#
# _framework density 16.390173999999998
#
# number of rings (size 3 to 8) (size 9 to 14) (size 15 to 20)
#    0.000    2.250    3.750    0.750    1.750    3.500 
#    0.000    0.000    0.000    0.000    0.000    0.000 
#    0.000    6.000    0.000    0.000    0.000    0.000 
#
# Total GULP energy -178177.778592 kJ/mol
# GULP energy per Si atom -5568.055581 kJ/mol
# Density = 1.635287 g / cm^3
# Si number density = 16.390174 Si / 1000 Ang^3
#
#
#
# Elastic Constant Matrix: (Units=GPa)
#
#
# Indices 1 2 3 4 5 6 
#
# 1 9.5984 13.2166 5.5958 0.0000 0.0000 0.0000
# 2 13.2166 180.3944 46.9667 0.0000 0.0000 0.0000
# 3 5.5958 46.9667 59.8995 0.0000 0.0000 0.0000
# 4 0.0000 0.0000 0.0000 27.8600 0.0000 0.0000
# 5 0.0000 0.0000 0.0000 0.0000 -6.1645 0.0000
# 6 0.0000 0.0000 0.0000 0.0000 0.0000 35.8246
#
#
#
# Elastic Compliance Matrix: (Units=1/GPa)
#
#
# Indices 1 2 3 4 5 6 
#
# 1 0.117196 -0.007207 -0.005297 0.000000 0.000000 0.000000
# 2 -0.007207 0.007409 -0.005136 0.000000 0.000000 0.000000
# 3 -0.005297 -0.005136 0.021216 0.000000 0.000000 0.000000
# 4 0.000000 0.000000 0.000000 0.035894 0.000000 0.000000
# 5 0.000000 0.000000 0.000000 0.000000 -0.162219 0.000000
# 6 0.000000 0.000000 0.000000 0.000000 0.000000 0.027914
#
#
# Mechanical properties :
#
#
# Convention : Reuss Voigt Hill
#
# Bulk Modulus (GPa) = 9.04648 42.38341 25.71494
# Shear Modulus (GPa) = 41.82826 23.77823 32.80324
#
# Velocity S-wave (km/s) = 5.05725 3.81302 4.47855
# Velocity P-wave (km/s) = 6.29543 6.73058 6.51663
#
# Compressibility (1/GPa) = 0.11054028
#
# Stress axis : x y z
#
# Youngs Moduli (GPa) = 8.53272 134.97925 47.13342
#
# Poissons Ratio (x) = 0.97281 0.24969
# Poissons Ratio (y) = 0.06150 0.24206
# Poissons Ratio (z) = 0.04520 0.69321
#
# Static dielectric constant tensor:
#      x y z
#    x 1.533640 0.000000 0.000000 
#    y 0.000000 1.644020 0.000000 
#    z 0.000000 0.000000 1.519430 
# 
# From -- ./inp_files/6750.got.cif
#   From: 2010.05.17/outbox.cif.g08.bks.cpg/sg67_4_cif.got.tgz:6750.got - 2010.06.03 18:28:57.
