data_PCOD9502036
_publ_section_title
;
Structure prediction by ZEFSAII (Michael W. Deem and Ramdas Pophale) SiO2 
 PCOD9502036
Probable space group: C M M A
;
_chemical_formula_sum "Si O2"
_cell_formula_units_Z 60
_cell_length_a 14.667802
_cell_length_b 16.838144
_cell_length_c 11.648914
_cell_angle_alpha 90.000000
_cell_angle_beta 90.000000
_cell_angle_gamma 90.000000
_cell_volume 2877.032031
_symmetry_space_group_name_H-M "C M M A"
_symmetry_group_IT_number 67
_symmetry_cell_setting 'orthorhombic'
loop_
_space_group_symop_operation_xyz
x,y,z
-x,1/2-y,z
x,-y,-z
-x,1/2+y,-z
-x,-y,-z
x,1/2+y,-z
-x,y,z
x,1/2-y,z
1/2+x,1/2+y,z
1/2-x,-y,z
1/2+x,1/2-y,-z
1/2-x,y,-z
1/2-x,1/2-y,-z
1/2+x,y,-z
1/2-x,1/2+y,z
1/2+x,-y,z
loop_
_atom_site_type_symbol
_atom_site_label
_atom_site_fract_x
_atom_site_fract_y
_atom_site_fract_z
Si Si1 0.392729 0.250000 0.473682
Si Si2 0.671361 0.117270 0.818180
Si Si3 0.175199 0.750000 0.219593
Si Si4 0.390396 0.079293 0.567923
Si Si5 0.136923 0.750000 0.975742
Si Si6 0.250000 0.000000 0.000000
O O1 0.500000 0.250000 0.501519
O O2 0.122718 0.250000 0.661667
O O3 0.356644 0.165844 0.522813
O O4 0.759231 0.172044 0.785090
O O5 0.633318 0.079451 0.702594
O O6 0.611556 0.177385 0.894328
O O7 0.693985 0.052954 0.912856
O O8 0.109878 0.750000 0.107980
O O9 0.500000 0.079615 0.555195
O O10 0.357945 0.000000 0.500000
O O11 0.250000 0.750000 0.000000
#
# Coordination Sequence:
#
# PCOD9502036 Si02
#       6
#     8  16   8  16   8   4
#     4  10  22  41  60  80 119 160 191 237 295 346
#     4  10  20  35  59  80 116 150 189 241 288 343
#     4  10  19  38  57  85 118 148 193 244 291 342
#     4  10  23  41  58  83 120 159 197 239 288 344
#     4   8  15  35  52  75 110 150 177 233 293 326
#     4  12  20  34  56  92 112 146 188 240 308 342
#
# _framework density 20.854825000000002
#
# number of rings (size 3 to 8) (size 9 to 14) (size 15 to 20)
#    0.000    2.400    4.000    1.600    3.733    2.133 
#    0.000    2.000    0.000    0.000    0.000    0.000 
#    0.000    0.000    0.000    0.000    0.000    0.000 
#
# Total GULP energy -167085.069112 kJ/mol
# GULP energy per Si atom -5569.502304 kJ/mol
# Density = 2.080736 g / cm^3
# Si number density = 20.854825 Si / 1000 Ang^3
#
#
#
# Elastic Constant Matrix: (Units=GPa)
#
#
# Indices 1 2 3 4 5 6 
#
# 1 47.4086 22.3562 5.8990 0.0000 0.0000 0.0000
# 2 22.3562 183.3871 93.0337 0.0000 0.0000 0.0000
# 3 5.8990 93.0337 189.1258 0.0000 0.0000 0.0000
# 4 0.0000 0.0000 0.0000 60.0354 0.0000 0.0000
# 5 0.0000 0.0000 0.0000 0.0000 102.7031 0.0000
# 6 0.0000 0.0000 0.0000 0.0000 0.0000 -5.6819
#
#
#
# Elastic Compliance Matrix: (Units=1/GPa)
#
#
# Indices 1 2 3 4 5 6 
#
# 1 0.022485 -0.003178 0.000862 0.000000 0.000000 0.000000
# 2 -0.003178 0.007716 -0.003696 0.000000 0.000000 0.000000
# 3 0.000862 -0.003696 0.007079 0.000000 0.000000 0.000000
# 4 0.000000 0.000000 0.000000 0.016657 0.000000 0.000000
# 5 0.000000 0.000000 0.000000 0.000000 0.009737 0.000000
# 6 0.000000 0.000000 0.000000 0.000000 0.000000 -0.175998
#
#
# Mechanical properties :
#
#
# Convention : Reuss Voigt Hill
#
# Bulk Modulus (GPa) = 39.59740 73.61102 56.60421
# Shear Modulus (GPa) = -54.41767 51.32016 -1.54876
#
# Velocity S-wave (km/s) = -5.11373 4.96606 -0.86270
# Velocity P-wave (km/s) = 3.97977 8.26171 5.11943
#
# Compressibility (1/GPa) = 0.02525418
#
# Stress axis : x y z
#
# Youngs Moduli (GPa) = 44.47449 129.60818 141.26616
#
# Poissons Ratio (x) = 0.41195 -0.12180
# Poissons Ratio (y) = 0.14136 0.52216
# Poissons Ratio (z) = -0.03835 0.47907
#
# Static dielectric constant tensor:
#      x y z
#    x 1.799560 0.000000 0.000000 
#    y 0.000000 1.895450 0.000000 
#    z 0.000000 0.000000 1.738360 
# 
# From -- ./inp_files/17474.got.cif
#   From: 2010.05.17/outbox.cif.g08.bks.cpg/sg67_9_cif.got.tgz:17474.got - 2010.06.03 18:28:57.
