data_PCOD9502780
_publ_section_title
;
Structure prediction by ZEFSAII (Michael W. Deem and Ramdas Pophale) SiO2 
 PCOD9502780
Probable space group: C M M A
;
_chemical_formula_sum "Si O2"
_cell_formula_units_Z 96
_cell_length_a 8.553357
_cell_length_b 28.053387
_cell_length_c 25.106725
_cell_angle_alpha 90.000000
_cell_angle_beta 90.000000
_cell_angle_gamma 90.000000
_cell_volume 6024.374583
_symmetry_space_group_name_H-M "C M M A"
_symmetry_group_IT_number 67
_symmetry_cell_setting 'orthorhombic'
loop_
_space_group_symop_operation_xyz
x,y,z
-x,1/2-y,z
x,-y,-z
-x,1/2+y,-z
-x,-y,-z
x,1/2+y,-z
-x,y,z
x,1/2-y,z
1/2+x,1/2+y,z
1/2-x,-y,z
1/2+x,1/2-y,-z
1/2-x,y,-z
1/2-x,1/2-y,-z
1/2+x,y,-z
1/2-x,1/2+y,z
1/2+x,-y,z
loop_
_atom_site_type_symbol
_atom_site_label
_atom_site_fract_x
_atom_site_fract_y
_atom_site_fract_z
Si Si1 0.808991 0.805759 0.328153
Si Si2 0.814270 0.398463 0.057853
Si Si3 0.686941 0.306546 0.444613
Si Si4 0.812712 0.448079 0.837536
Si Si5 0.810011 0.646807 0.219890
Si Si6 0.689107 0.304205 0.109851
O O1 0.765657 0.750000 0.322745
O O2 0.758383 0.824275 0.386537
O O3 0.753372 0.834779 0.276851
O O4 0.000000 0.806781 0.328188
O O5 0.745261 0.431681 0.104286
O O6 0.761850 0.344565 0.072513
O O7 0.000000 0.401600 0.058464
O O8 0.750000 0.411323 0.000000
O O9 0.500000 0.310215 0.446115
O O10 0.726446 0.250000 0.444161
O O11 0.750000 0.327146 0.500000
O O12 0.750000 0.500000 0.824003
O O13 0.760229 0.406155 0.797301
O O14 0.000000 0.448630 0.838005
O O15 0.768269 0.681494 0.170666
O O16 0.000000 0.646837 0.221891
O O17 0.500000 0.307449 0.105848
O O18 0.735727 0.250000 0.097989
#
# Coordination Sequence:
#
# PCOD9502780 Si02
#       6
#    16  16  16  16  16  16
#     4   8  12  19  35  60  86 113 146 180 210 242
#     4  11  22  36  52  70  92 116 145 180 215 255
#     4   8  13  20  31  49  76 111 148 180 208 240
#     4  10  20  35  53  72  91 112 138 171 218 269
#     4   8  14  25  43  66  89 111 141 180 215 253
#     4   9  17  30  48  69  93 121 150 180 216 257
#
# _framework density 15.935264
#
# number of rings (size 3 to 8) (size 9 to 14) (size 15 to 20)
#    0.000    3.000    0.000    4.500    0.000    3.000 
#    0.000    1.667    0.000    5.000    0.000    4.667 
#    0.000    0.667    0.000    8.333    0.000    0.333 
#
# Total GULP energy -267334.239723 kJ/mol
# GULP energy per Si atom -5569.463328 kJ/mol
# Density = 1.589899 g / cm^3
# Si number density = 15.935264 Si / 1000 Ang^3
#
#
#
# Elastic Constant Matrix: (Units=GPa)
#
#
# Indices 1 2 3 4 5 6 
#
# 1 23.5451 11.7560 13.4630 0.0000 0.0000 0.0000
# 2 11.7560 60.8955 23.8972 0.0000 0.0000 0.0000
# 3 13.4630 23.8972 124.0775 0.0000 0.0000 0.0000
# 4 0.0000 0.0000 0.0000 11.6953 0.0000 0.0000
# 5 0.0000 0.0000 0.0000 0.0000 16.0802 0.0000
# 6 0.0000 0.0000 0.0000 0.0000 0.0000 19.0487
#
#
#
# Elastic Compliance Matrix: (Units=1/GPa)
#
#
# Indices 1 2 3 4 5 6 
#
# 1 0.048561 -0.007904 -0.003747 0.000000 0.000000 0.000000
# 2 -0.007904 0.019051 -0.002812 0.000000 0.000000 0.000000
# 3 -0.003747 -0.002812 0.009008 0.000000 0.000000 0.000000
# 4 0.000000 0.000000 0.000000 0.085504 0.000000 0.000000
# 5 0.000000 0.000000 0.000000 0.000000 0.062188 0.000000
# 6 0.000000 0.000000 0.000000 0.000000 0.000000 0.052497
#
#
# Mechanical properties :
#
#
# Convention : Reuss Voigt Hill
#
# Bulk Modulus (GPa) = 20.96707 34.08336 27.52522
# Shear Modulus (GPa) = 15.54573 19.99165 17.76869
#
# Velocity S-wave (km/s) = 3.12678 3.54581 3.34287
# Velocity P-wave (km/s) = 5.12073 6.18052 5.67541
#
# Compressibility (1/GPa) = 0.04769383
#
# Stress axis : x y z
#
# Youngs Moduli (GPa) = 20.59280 52.49106 111.01857
#
# Poissons Ratio (x) = 0.41491 0.41595
# Poissons Ratio (y) = 0.16277 0.31213
# Poissons Ratio (z) = 0.07715 0.14758
#
# Static dielectric constant tensor:
#      x y z
#    x 1.546810 0.000000 0.000000 
#    y 0.000000 1.517320 0.000000 
#    z 0.000000 0.000000 1.559190 
# 
# From -- ./inp_files/40934.got.cif
#   From: 2010.05.17/outbox.cif.g08.bks.cpg/sg67_21_cif.got.tgz:40934.got - 2010.06.03 18:28:57.
