data_PCOD9502509
_publ_section_title
;
Structure prediction by ZEFSAII (Michael W. Deem and Ramdas Pophale) SiO2 
 PCOD9502509
Probable space group: C M M A
;
_chemical_formula_sum "Si O2"
_cell_formula_units_Z 96
_cell_length_a 19.063386
_cell_length_b 9.084526
_cell_length_c 32.146471
_cell_angle_alpha 90.000000
_cell_angle_beta 90.000000
_cell_angle_gamma 90.000000
_cell_volume 5567.184540
_symmetry_space_group_name_H-M "C M M A"
_symmetry_group_IT_number 67
_symmetry_cell_setting 'orthorhombic'
loop_
_space_group_symop_operation_xyz
x,y,z
-x,1/2-y,z
x,-y,-z
-x,1/2+y,-z
-x,-y,-z
x,1/2+y,-z
-x,y,z
x,1/2-y,z
1/2+x,1/2+y,z
1/2-x,-y,z
1/2+x,1/2-y,-z
1/2-x,y,-z
1/2-x,1/2-y,-z
1/2+x,y,-z
1/2-x,1/2+y,z
1/2+x,-y,z
loop_
_atom_site_type_symbol
_atom_site_label
_atom_site_fract_x
_atom_site_fract_y
_atom_site_fract_z
Si Si1 0.418518 0.426248 0.042555
Si Si2 0.326515 0.072277 0.123057
Si Si3 0.414508 0.919751 0.626309
Si Si4 0.673608 0.927413 0.208014
Si Si5 0.581858 0.074343 0.711039
Si Si6 0.414391 0.919553 0.457835
O O1 0.500000 0.469873 0.048304
O O2 0.416126 0.250000 0.037586
O O3 0.373876 0.463443 0.083216
O O4 0.392519 0.500000 0.000000
O O5 0.321315 0.250000 0.127141
O O6 0.250000 0.000000 0.117261
O O7 0.355094 0.000619 0.165654
O O8 0.500000 0.925851 0.626226
O O9 0.393648 0.750000 0.625137
O O10 0.392065 0.995116 0.669286
O O11 0.391003 0.001945 0.584536
O O12 0.679224 0.750000 0.203334
O O13 0.626020 0.960276 0.247944
O O14 0.750000 0.000000 0.214088
O O15 0.500000 0.035066 0.717421
O O16 0.585146 0.250000 0.704272
O O17 0.500000 0.923447 0.457757
O O18 0.393122 0.750000 0.458202
O O19 0.391520 0.000000 0.500000
#
# Coordination Sequence:
#
# PCOD9502509 Si02
#       6
#    16  16  16  16  16  16
#     4   9  19  35  53  74 100 130 162 196 235 278
#     4  10  20  34  52  73  98 126 158 196 236 280
#     4   9  16  25  38  58  84 114 149 189 233 280
#     4  10  20  34  52  72  96 126 159 196 238 283
#     4   9  18  32  48  67  92 122 156 193 234 281
#     4   9  15  22  33  50  76 112 151 189 230 278
#
# _framework density 17.243904000000001
#
# number of rings (size 3 to 8) (size 9 to 14) (size 15 to 20)
#    0.000    2.667    0.000    3.000    0.000    7.667 
#    0.000    1.667    0.000    0.000    0.000    0.000 
#    0.000    0.667    0.000    7.000    0.000   10.500 
#
# Total GULP energy -267568.482959 kJ/mol
# GULP energy per Si atom -5574.343395 kJ/mol
# Density = 1.720466 g / cm^3
# Si number density = 17.243904 Si / 1000 Ang^3
#
#
#
# Elastic Constant Matrix: (Units=GPa)
#
#
# Indices 1 2 3 4 5 6 
#
# 1 25.3989 31.9948 58.1149 0.0000 0.0000 0.0000
# 2 31.9948 92.9277 101.4168 0.0000 0.0000 0.0000
# 3 58.1149 101.4168 221.6296 0.0000 0.0000 0.0000
# 4 0.0000 0.0000 0.0000 37.7942 0.0000 0.0000
# 5 0.0000 0.0000 0.0000 0.0000 -15.4477 0.0000
# 6 0.0000 0.0000 0.0000 0.0000 0.0000 13.5076
#
#
#
# Elastic Compliance Matrix: (Units=1/GPa)
#
#
# Indices 1 2 3 4 5 6 
#
# 1 0.104898 -0.012180 -0.021932 0.000000 0.000000 0.000000
# 2 -0.012180 0.022911 -0.007290 0.000000 0.000000 0.000000
# 3 -0.021932 -0.007290 0.013599 0.000000 0.000000 0.000000
# 4 0.000000 0.000000 0.000000 0.026459 0.000000 0.000000
# 5 0.000000 0.000000 0.000000 0.000000 -0.064735 0.000000
# 6 0.000000 0.000000 0.000000 0.000000 0.000000 0.074032
#
#
# Mechanical properties :
#
#
# Convention : Reuss Voigt Hill
#
# Bulk Modulus (GPa) = 17.06409 80.33437 48.69923
# Shear Modulus (GPa) = 17.88882 17.06613 17.47747
#
# Velocity S-wave (km/s) = 3.22436 3.14935 3.18708
# Velocity P-wave (km/s) = 4.87640 7.74033 6.46885
#
# Compressibility (1/GPa) = 0.05860259
#
# Stress axis : x y z
#
# Youngs Moduli (GPa) = 9.53304 43.64805 73.53529
#
# Poissons Ratio (x) = 0.53165 1.61281
# Poissons Ratio (y) = 0.11611 0.53606
# Poissons Ratio (z) = 0.20908 0.31819
#
# Static dielectric constant tensor:
#      x y z
#    x 1.571140 0.000000 0.000000 
#    y 0.000000 1.579360 0.000000 
#    z 0.000000 0.000000 1.579280 
# 
# From -- ./inp_files/44797.got.cif
#   From: 2010.05.17/outbox.cif.g08.bks.cpg/sg67_23_cif.got.tgz:44797.got - 2010.06.03 18:28:57.
