data_PCOD9502762
_publ_section_title
;
Structure prediction by ZEFSAII (Michael W. Deem and Ramdas Pophale) SiO2 
 PCOD9502762
Probable space group: C M M A
;
_chemical_formula_sum "Si O2"
_cell_formula_units_Z 96
_cell_length_a 25.533882
_cell_length_b 20.636720
_cell_length_c 8.712851
_cell_angle_alpha 90.000000
_cell_angle_beta 90.000000
_cell_angle_gamma 90.000000
_cell_volume 4591.111137
_symmetry_space_group_name_H-M "C M M A"
_symmetry_group_IT_number 67
_symmetry_cell_setting 'orthorhombic'
loop_
_space_group_symop_operation_xyz
x,y,z
-x,1/2-y,z
x,-y,-z
-x,1/2+y,-z
-x,-y,-z
x,1/2+y,-z
-x,y,z
x,1/2-y,z
1/2+x,1/2+y,z
1/2-x,-y,z
1/2+x,1/2-y,-z
1/2-x,y,-z
1/2-x,1/2-y,-z
1/2+x,y,-z
1/2-x,1/2+y,z
1/2+x,-y,z
loop_
_atom_site_type_symbol
_atom_site_label
_atom_site_fract_x
_atom_site_fract_y
_atom_site_fract_z
Si Si1 0.299986 0.540778 0.300194
Si Si2 0.558960 0.860002 0.472555
Si Si3 0.334544 0.175965 0.053100
Si Si4 0.335048 0.179420 0.683326
Si Si5 0.607664 0.500000 0.500000
Si Si6 0.250000 0.083389 0.000000
Si Si7 0.556544 0.674381 0.825852
O O1 0.250000 0.500000 0.349029
O O2 0.305488 0.613794 0.366085
O O3 0.352533 0.504681 0.354809
O O4 0.289264 0.548284 0.117683
O O5 0.500000 0.851699 0.411124
O O6 0.604952 0.829699 0.370889
O O7 0.560493 0.829587 0.642311
O O8 0.573025 0.935658 0.495369
O O9 0.328115 0.250000 0.111173
O O10 0.333502 0.179328 0.868346
O O11 0.287019 0.130115 0.101690
O O12 0.390208 0.147580 0.104008
O O13 0.315853 0.250000 0.629477
O O14 0.500000 0.645462 0.870495
O O15 0.555921 0.750000 0.871875
#
# Coordination Sequence:
#
# PCOD9502762 Si02
#       7
#    16  16  16  16   8   8  16
#     4  10  21  37  56  82 112 151 191 238 286 343
#     4  10  20  35  58  83 110 147 190 234 286 344
#     4   9  18  33  54  82 116 147 182 232 291 349
#     4   9  19  36  58  85 114 145 185 236 285 340
#     4  10  22  38  58  76 112 148 188 242 288 346
#     4  10  20  34  58  84 107 146 197 240 287 344
#     4   9  18  32  51  78 111 146 183 225 280 345
#
# _framework density 20.909970999999999
#
# number of rings (size 3 to 8) (size 9 to 14) (size 15 to 20)
#    0.000    2.500    0.000    1.500    2.333    2.333 
#    0.000    1.667    0.000    3.000    0.000    8.167 
#    0.000    0.000    0.000    0.000    0.000    0.000 
#
# Total GULP energy -267521.417582 kJ/mol
# GULP energy per Si atom -5573.362866 kJ/mol
# Density = 2.086238 g / cm^3
# Si number density = 20.909971 Si / 1000 Ang^3
#
#
#
# Elastic Constant Matrix: (Units=GPa)
#
#
# Indices 1 2 3 4 5 6 
#
# 1 120.9130 25.4607 18.0181 0.0000 0.0000 0.0000
# 2 25.4607 86.0482 6.0960 0.0000 0.0000 0.0000
# 3 18.0181 6.0960 30.6356 0.0000 0.0000 0.0000
# 4 0.0000 0.0000 0.0000 6.9230 0.0000 0.0000
# 5 0.0000 0.0000 0.0000 0.0000 27.4837 0.0000
# 6 0.0000 0.0000 0.0000 0.0000 0.0000 16.3335
#
#
#
# Elastic Compliance Matrix: (Units=1/GPa)
#
#
# Indices 1 2 3 4 5 6 
#
# 1 0.009553 -0.002463 -0.005129 0.000000 0.000000 0.000000
# 2 -0.002463 0.012423 -0.001023 0.000000 0.000000 0.000000
# 3 -0.005129 -0.001023 0.035862 0.000000 0.000000 0.000000
# 4 0.000000 0.000000 0.000000 0.144446 0.000000 0.000000
# 5 0.000000 0.000000 0.000000 0.000000 0.036385 0.000000
# 6 0.000000 0.000000 0.000000 0.000000 0.000000 0.061224
#
#
# Mechanical properties :
#
#
# Convention : Reuss Voigt Hill
#
# Bulk Modulus (GPa) = 24.62588 37.41628 31.02108
# Shear Modulus (GPa) = 15.12132 22.68284 18.90208
#
# Velocity S-wave (km/s) = 2.69209 3.29718 3.00988
# Velocity P-wave (km/s) = 4.63312 5.69456 5.19104
#
# Compressibility (1/GPa) = 0.04060768
#
# Stress axis : x y z
#
# Youngs Moduli (GPa) = 104.67504 80.49730 27.88487
#
# Poissons Ratio (x) = 0.19830 0.14301
# Poissons Ratio (y) = 0.25786 0.02853
# Poissons Ratio (z) = 0.53683 0.08236
#
# Static dielectric constant tensor:
#      x y z
#    x 1.788270 0.000000 0.000000 
#    y 0.000000 1.851340 0.000000 
#    z 0.000000 0.000000 1.745070 
# 
# From -- ./inp_files/12700.got.cif
#   From: 2010.05.17/outbox.cif.g08.bks.cpg/sg67_7_cif.got.tgz:12700.got - 2010.06.03 18:28:57.
