data_PCOD9502332
_publ_section_title
;
Structure prediction by ZEFSAII (Michael W. Deem and Ramdas Pophale) SiO2 
 PCOD9502332
Probable space group: C M M A
;
_chemical_formula_sum "Si O2"
_cell_formula_units_Z 96
_cell_length_a 15.612709
_cell_length_b 14.364812
_cell_length_c 19.883256
_cell_angle_alpha 90.000000
_cell_angle_beta 90.000000
_cell_angle_gamma 90.000000
_cell_volume 4459.289991
_symmetry_space_group_name_H-M "C M M A"
_symmetry_group_IT_number 67
_symmetry_cell_setting 'orthorhombic'
loop_
_space_group_symop_operation_xyz
x,y,z
-x,1/2-y,z
x,-y,-z
-x,1/2+y,-z
-x,-y,-z
x,1/2+y,-z
-x,y,z
x,1/2-y,z
1/2+x,1/2+y,z
1/2-x,-y,z
1/2+x,1/2-y,-z
1/2-x,y,-z
1/2-x,1/2-y,-z
1/2+x,y,-z
1/2-x,1/2+y,z
1/2+x,-y,z
loop_
_atom_site_type_symbol
_atom_site_label
_atom_site_fract_x
_atom_site_fract_y
_atom_site_fract_z
Si Si1 0.600605 0.642585 0.982222
Si Si2 0.903263 0.359348 0.231895
Si Si3 0.094599 0.394651 0.474864
Si Si4 0.905718 0.645227 0.373189
Si Si5 0.278897 0.362162 0.646968
Si Si6 0.653204 0.023519 0.893157
O O1 0.500000 0.641074 0.000994
O O2 0.625304 0.750000 0.970098
O O3 0.612293 0.572811 0.919583
O O4 0.651073 0.594841 0.043640
O O5 0.889236 0.250000 0.213237
O O6 0.836018 0.386082 0.289053
O O7 0.892832 0.425201 0.167780
O O8 0.000000 0.366219 0.258337
O O9 0.093084 0.500000 0.500000
O O10 0.105121 0.344988 0.546339
O O11 0.169064 0.383003 0.421100
O O12 0.000000 0.369897 0.446868
O O13 0.909611 0.750000 0.344478
O O14 0.817621 0.597891 0.350088
O O15 0.000000 0.601059 0.361274
O O16 0.269721 0.250000 0.647171
O O17 0.750000 0.000000 0.874276
#
# Coordination Sequence:
#
# PCOD9502332 Si02
#       6
#    16  16  16  16  16  16
#     4  10  20  36  63  95 127 164 205 252 302 352
#     4  10  21  39  63  88 118 160 208 262 318 369
#     4  10  20  33  50  80 114 147 187 241 304 361
#     4   9  18  33  53  77 109 147 186 236 301 366
#     4  10  20  35  58  85 111 146 198 251 301 362
#     4  11  22  36  57  91 129 165 202 249 302 367
#
# _framework density 21.528089999999999
#
# number of rings (size 3 to 8) (size 9 to 14) (size 15 to 20)
#    0.000    2.000    0.000    5.000    0.000    7.667 
#    3.000    0.000    0.000    2.000    0.000    2.333 
#    0.000    0.000    0.000    0.000    0.000    0.000 
#
# Total GULP energy -268037.098701 kJ/mol
# GULP energy per Si atom -5584.106223 kJ/mol
# Density = 2.147909 g / cm^3
# Si number density = 21.528090 Si / 1000 Ang^3
#
#
#
# Elastic Constant Matrix: (Units=GPa)
#
#
# Indices 1 2 3 4 5 6 
#
# 1 167.3994 27.9981 53.0506 0.0000 0.0000 0.0000
# 2 27.9981 113.6602 28.5207 0.0000 0.0000 0.0000
# 3 53.0506 28.5207 71.2401 0.0000 0.0000 0.0000
# 4 0.0000 0.0000 0.0000 23.4787 0.0000 0.0000
# 5 0.0000 0.0000 0.0000 0.0000 90.4611 0.0000
# 6 0.0000 0.0000 0.0000 0.0000 0.0000 24.3456
#
#
#
# Elastic Compliance Matrix: (Units=1/GPa)
#
#
# Indices 1 2 3 4 5 6 
#
# 1 0.007846 -0.000519 -0.005635 0.000000 0.000000 0.000000
# 2 -0.000519 0.009815 -0.003543 0.000000 0.000000 0.000000
# 3 -0.005635 -0.003543 0.019652 0.000000 0.000000 0.000000
# 4 0.000000 0.000000 0.000000 0.042592 0.000000 0.000000
# 5 0.000000 0.000000 0.000000 0.000000 0.011054 0.000000
# 6 0.000000 0.000000 0.000000 0.000000 0.000000 0.041075
#
#
# Mechanical properties :
#
#
# Convention : Reuss Voigt Hill
#
# Bulk Modulus (GPa) = 55.80659 63.49317 59.64988
# Shear Modulus (GPa) = 31.76575 43.83909 37.80242
#
# Velocity S-wave (km/s) = 3.84545 4.51751 4.19496
# Velocity P-wave (km/s) = 6.75986 7.53443 7.15763
#
# Compressibility (1/GPa) = 0.01791903
#
# Stress axis : x y z
#
# Youngs Moduli (GPa) = 127.44710 101.88480 50.88546
#
# Poissons Ratio (x) = 0.05285 0.28676
# Poissons Ratio (y) = 0.06611 0.18029
# Poissons Ratio (z) = 0.71821 0.36099
#
# Static dielectric constant tensor:
#      x y z
#    x 1.830810 0.000000 0.000000 
#    y 0.000000 1.442330 0.000000 
#    z 0.000000 0.000000 1.732210 
# 
# From -- ./inp_files/38458.got.cif
#   From: 2010.05.17/outbox.cif.g08.bks.cpg/sg67_20_cif.got.tgz:38458.got - 2010.06.03 18:28:57.
