data_PCOD9502567
_publ_section_title
;
Structure prediction by ZEFSAII (Michael W. Deem and Ramdas Pophale) SiO2 
 PCOD9502567
Probable space group: C M M A
;
_chemical_formula_sum "Si O2"
_cell_formula_units_Z 96
_cell_length_a 8.841334
_cell_length_b 19.251005
_cell_length_c 31.631688
_cell_angle_alpha 90.000000
_cell_angle_beta 90.000000
_cell_angle_gamma 90.000000
_cell_volume 5383.857698
_symmetry_space_group_name_H-M "C M M A"
_symmetry_group_IT_number 67
_symmetry_cell_setting 'orthorhombic'
loop_
_space_group_symop_operation_xyz
x,y,z
-x,1/2-y,z
x,-y,-z
-x,1/2+y,-z
-x,-y,-z
x,1/2+y,-z
-x,y,z
x,1/2-y,z
1/2+x,1/2+y,z
1/2-x,-y,z
1/2+x,1/2-y,-z
1/2-x,y,-z
1/2-x,1/2-y,-z
1/2+x,y,-z
1/2-x,1/2+y,z
1/2+x,-y,z
loop_
_atom_site_type_symbol
_atom_site_label
_atom_site_fract_x
_atom_site_fract_y
_atom_site_fract_z
Si Si1 0.680916 0.668555 0.882323
Si Si2 0.681863 0.669593 0.368538
Si Si3 0.819356 0.925461 0.953847
Si Si4 0.182204 0.576600 0.711340
Si Si5 0.818747 0.923603 0.199475
Si Si6 0.175466 0.334479 0.543605
O O1 0.500000 0.661528 0.889822
O O2 0.716071 0.750000 0.879046
O O3 0.768921 0.631893 0.920330
O O4 0.715449 0.627937 0.838977
O O5 0.500000 0.668609 0.371373
O O6 0.729657 0.750000 0.363270
O O7 0.726422 0.625074 0.327861
O O8 0.746815 0.642490 0.412931
O O9 0.000000 0.930871 0.956673
O O10 0.750000 0.000000 0.940568
O O11 0.750000 0.910182 0.000000
O O12 0.250000 0.500000 0.704792
O O13 0.247927 0.601354 0.756260
O O14 0.000000 0.573265 0.713746
O O15 0.000000 0.929698 0.203799
O O16 0.750000 0.000000 0.190949
O O17 0.188029 0.250000 0.543384
O O18 0.250000 0.359276 0.500000
O O19 0.000000 0.352607 0.544044
#
# Coordination Sequence:
#
# PCOD9502567 Si02
#       6
#    16  16  16  16  16  16
#     4  10  22  39  57  81 114 147 179 220 270 319
#     4   9  18  32  49  71  99 130 165 206 252 300
#     4  11  22  38  61  86 112 145 185 226 267 314
#     4  10  20  34  53  75 101 134 170 211 257 306
#     4  10  20  35  56  78 102 136 176 217 259 307
#     4   9  16  26  43  68  97 129 164 203 247 296
#
# _framework density 17.831081999999999
#
# number of rings (size 3 to 8) (size 9 to 14) (size 15 to 20)
#    0.000    2.167    0.000    5.000    0.000    7.333 
#    0.000    0.000    0.000    0.500    0.000    3.500 
#    0.000    0.000    0.000    0.000    0.000    0.000 
#
# Total GULP energy -267914.965372 kJ/mol
# GULP energy per Si atom -5581.561779 kJ/mol
# Density = 1.779050 g / cm^3
# Si number density = 17.831082 Si / 1000 Ang^3
#
#
#
# Elastic Constant Matrix: (Units=GPa)
#
#
# Indices 1 2 3 4 5 6 
#
# 1 79.6591 49.5533 72.7883 0.0000 0.0000 0.0000
# 2 49.5533 74.1092 87.8618 0.0000 0.0000 0.0000
# 3 72.7883 87.8618 148.0718 0.0000 0.0000 0.0000
# 4 0.0000 0.0000 0.0000 33.8706 0.0000 0.0000
# 5 0.0000 0.0000 0.0000 0.0000 32.5873 0.0000
# 6 0.0000 0.0000 0.0000 0.0000 0.0000 18.8497
#
#
#
# Elastic Compliance Matrix: (Units=1/GPa)
#
#
# Indices 1 2 3 4 5 6 
#
# 1 0.023789 -0.006888 -0.007607 0.000000 0.000000 0.000000
# 2 -0.006888 0.047502 -0.024800 0.000000 0.000000 0.000000
# 3 -0.007607 -0.024800 0.025209 0.000000 0.000000 0.000000
# 4 0.000000 0.000000 0.000000 0.029524 0.000000 0.000000
# 5 0.000000 0.000000 0.000000 0.000000 0.030687 0.000000
# 6 0.000000 0.000000 0.000000 0.000000 0.000000 0.053051
#
#
# Mechanical properties :
#
#
# Convention : Reuss Voigt Hill
#
# Bulk Modulus (GPa) = 55.83771 80.24966 68.04368
# Shear Modulus (GPa) = 16.98816 23.17064 20.07940
#
# Velocity S-wave (km/s) = 3.08998 3.60870 3.35937
# Velocity P-wave (km/s) = 6.64179 7.90360 7.30001
#
# Compressibility (1/GPa) = 0.01790904
#
# Stress axis : x y z
#
# Youngs Moduli (GPa) = 42.03599 21.05170 39.66878
#
# Poissons Ratio (x) = 0.14501 0.30176
# Poissons Ratio (y) = 0.28955 0.98380
# Poissons Ratio (z) = 0.31976 0.52209
#
# Static dielectric constant tensor:
#      x y z
#    x 1.599220 0.000000 0.000000 
#    y 0.000000 1.592660 0.000000 
#    z 0.000000 0.000000 1.602200 
# 
# From -- ./inp_files/43457.got.cif
#   From: 2010.05.17/outbox.cif.g08.bks.cpg/sg67_22_cif.got.tgz:43457.got - 2010.06.03 18:28:57.
