data_PCOD9502970
_publ_section_title
;
Structure prediction by ZEFSAII (Michael W. Deem and Ramdas Pophale) SiO2 
 PCOD9502970
Probable space group: C M M A
;
_chemical_formula_sum "Si O2"
_cell_formula_units_Z 80
_cell_length_a 16.561117
_cell_length_b 29.581429
_cell_length_c 8.889618
_cell_angle_alpha 90.000000
_cell_angle_beta 90.000000
_cell_angle_gamma 90.000000
_cell_volume 4355.037252
_symmetry_space_group_name_H-M "C M M A"
_symmetry_group_IT_number 67
_symmetry_cell_setting 'orthorhombic'
loop_
_space_group_symop_operation_xyz
x,y,z
-x,1/2-y,z
x,-y,-z
-x,1/2+y,-z
-x,-y,-z
x,1/2+y,-z
-x,y,z
x,1/2-y,z
1/2+x,1/2+y,z
1/2-x,-y,z
1/2+x,1/2-y,-z
1/2-x,y,-z
1/2-x,1/2-y,-z
1/2+x,y,-z
1/2-x,1/2+y,z
1/2+x,-y,z
loop_
_atom_site_type_symbol
_atom_site_label
_atom_site_fract_x
_atom_site_fract_y
_atom_site_fract_z
Si Si1 0.403353 0.302383 0.696726
Si Si2 0.406665 0.606692 0.807321
Si Si3 0.239089 0.946743 0.323363
Si Si4 0.902018 0.300264 0.653088
Si Si5 0.827566 0.379739 0.105656
O O1 0.500000 0.310498 0.707208
O O2 0.389286 0.250000 0.736289
O O3 0.379676 0.308102 0.521311
O O4 0.356551 0.336346 0.803165
O O5 0.500000 0.601027 0.765521
O O6 0.348531 0.570562 0.729591
O O7 0.378712 0.656796 0.752300
O O8 0.394869 0.604824 0.986384
O O9 0.250000 0.937372 0.500000
O O10 0.301906 0.918325 0.223114
O O11 0.250000 0.000000 0.297951
O O12 0.872773 0.250000 0.698950
O O13 0.000000 0.298421 0.657536
O O14 0.750000 0.370800 0.000000
#
# Coordination Sequence:
#
# PCOD9502970 Si02
#       5
#    16  16  16  16  16
#     4   9  17  31  51  75 106 145 187 226 262 308
#     4  10  20  35  57  85 114 144 181 222 269 327
#     4  10  22  42  62  79 105 142 181 227 281 328
#     4   8  15  29  51  78 107 140 177 218 261 305
#     4  10  21  34  52  78 109 143 177 220 276 331
#
# _framework density 18.369534000000002
#
# number of rings (size 3 to 8) (size 9 to 14) (size 15 to 20)
#    0.000    2.600    0.000    3.000    0.000    4.800 
#    0.000   11.000    0.000   10.800    0.000    0.000 
#    0.000    0.000    0.000    0.000    0.000    0.000 
#
# Total GULP energy -223136.703065 kJ/mol
# GULP energy per Si atom -5578.417577 kJ/mol
# Density = 1.832772 g / cm^3
# Si number density = 18.369534 Si / 1000 Ang^3
#
#
#
# Elastic Constant Matrix: (Units=GPa)
#
#
# Indices 1 2 3 4 5 6 
#
# 1 44.1473 56.6795 36.7281 0.0000 0.0000 0.0000
# 2 56.6795 133.9602 94.7455 0.0000 0.0000 0.0000
# 3 36.7281 94.7455 115.9000 0.0000 0.0000 0.0000
# 4 0.0000 0.0000 0.0000 -35.7896 0.0000 0.0000
# 5 0.0000 0.0000 0.0000 0.0000 14.7972 0.0000
# 6 0.0000 0.0000 0.0000 0.0000 0.0000 31.0957
#
#
#
# Elastic Compliance Matrix: (Units=1/GPa)
#
#
# Indices 1 2 3 4 5 6 
#
# 1 0.050163 -0.023662 0.003447 0.000000 0.000000 0.000000
# 2 -0.023662 0.028858 -0.016092 0.000000 0.000000 0.000000
# 3 0.003447 -0.016092 0.020691 0.000000 0.000000 0.000000
# 4 0.000000 0.000000 0.000000 -0.027941 0.000000 0.000000
# 5 0.000000 0.000000 0.000000 0.000000 0.067580 0.000000
# 6 0.000000 0.000000 0.000000 0.000000 0.000000 0.032159
#
#
# Mechanical properties :
#
#
# Convention : Reuss Voigt Hill
#
# Bulk Modulus (GPa) = 36.90483 74.47933 55.69208
# Shear Modulus (GPa) = 19.75049 9.07762 14.41406
#
# Velocity S-wave (km/s) = 3.28255 2.22540 2.80424
# Velocity P-wave (km/s) = 5.87373 6.87286 6.39284
#
# Compressibility (1/GPa) = 0.02709673
#
# Stress axis : x y z
#
# Youngs Moduli (GPa) = 19.93496 34.65214 48.33007
#
# Poissons Ratio (x) = 0.81995 -0.16659
# Poissons Ratio (y) = 0.47171 0.77775
# Poissons Ratio (z) = -0.06871 0.55764
#
# Static dielectric constant tensor:
#      x y z
#    x 1.649820 0.000000 0.000000 
#    y 0.000000 1.610990 0.000000 
#    z 0.000000 0.000000 1.628030 
# 
# From -- ./inp_files/9945.got.cif
#   From: 2010.05.17/outbox.cif.g08.bks.cpg/sg67_5_cif.got.tgz:9945.got - 2010.06.03 18:28:57.
