data_PCOD9502925
_publ_section_title
;
Structure prediction by ZEFSAII (Michael W. Deem and Ramdas Pophale) SiO2 
 PCOD9502925
Probable space group: C M M A
;
_chemical_formula_sum "Si O2"
_cell_formula_units_Z 88
_cell_length_a 8.422115
_cell_length_b 20.917482
_cell_length_c 26.804867
_cell_angle_alpha 90.000000
_cell_angle_beta 90.000000
_cell_angle_gamma 90.000000
_cell_volume 4722.198380
_symmetry_space_group_name_H-M "C M M A"
_symmetry_group_IT_number 67
_symmetry_cell_setting 'orthorhombic'
loop_
_space_group_symop_operation_xyz
x,y,z
-x,1/2-y,z
x,-y,-z
-x,1/2+y,-z
-x,-y,-z
x,1/2+y,-z
-x,y,z
x,1/2-y,z
1/2+x,1/2+y,z
1/2-x,-y,z
1/2+x,1/2-y,-z
1/2-x,y,-z
1/2-x,1/2-y,-z
1/2+x,y,-z
1/2-x,1/2+y,z
1/2+x,-y,z
loop_
_atom_site_type_symbol
_atom_site_label
_atom_site_fract_x
_atom_site_fract_y
_atom_site_fract_z
Si Si1 0.319380 0.326903 0.757741
Si Si2 0.000000 0.946845 0.543388
Si Si3 0.750000 0.500000 0.381586
Si Si4 0.310663 0.570156 0.056483
Si Si5 0.821015 0.365458 0.654907
Si Si6 0.500000 0.824521 0.407237
Si Si7 0.809575 0.324238 0.866645
O O1 0.500000 0.350291 0.750123
O O2 0.322144 0.250000 0.755936
O O3 0.210417 0.348820 0.712320
O O4 0.257869 0.344012 0.812587
O O5 0.000000 0.869667 0.542770
O O6 0.000000 0.000000 0.500000
O O7 0.142398 0.963260 0.579388
O O8 0.821382 0.557540 0.350205
O O9 0.500000 0.569405 0.056276
O O10 0.250000 0.500000 0.072963
O O11 0.249936 0.626735 0.091785
O O12 0.250000 0.579777 0.000000
O O13 0.663846 0.338965 0.624741
O O14 0.000000 0.343248 0.639167
O O15 0.500000 0.750000 0.419206
O O16 0.760667 0.250000 0.876141
O O17 0.000000 0.325479 0.864810
#
# Coordination Sequence:
#
# PCOD9502925 Si02
#       7
#    16   8   8  16  16   8  16
#     4  10  20  35  56  84 118 159 199 239 297 362
#     4  10  20  38  66  88 120 164 206 253 311 362
#     4  10  21  38  58  92 118 152 213 252 296 364
#     4  11  22  39  62  85 114 152 195 246 302 364
#     4  11  21  36  60  88 123 162 202 253 305 364
#     4  10  22  38  60  94 126 160 208 258 304 365
#     4  10  21  38  59  86 119 154 198 246 296 359
#
# _framework density 18.635387999999999
#
# number of rings (size 3 to 8) (size 9 to 14) (size 15 to 20)
#    0.000    1.636    1.818    4.091    0.000    3.636 
#    1.636    0.000    0.000    9.818    0.000    0.000 
#    0.000    0.000    0.000    0.000    0.000    0.000 
#
# Total GULP energy -245033.464828 kJ/mol
# GULP energy per Si atom -5568.942382 kJ/mol
# Density = 1.859297 g / cm^3
# Si number density = 18.635388 Si / 1000 Ang^3
#
#
#
# Elastic Constant Matrix: (Units=GPa)
#
#
# Indices 1 2 3 4 5 6 
#
# 1 118.2847 31.7890 22.2825 0.0000 0.0000 0.0000
# 2 31.7890 114.9111 56.5973 0.0000 0.0000 0.0000
# 3 22.2825 56.5973 86.2465 0.0000 0.0000 0.0000
# 4 0.0000 0.0000 0.0000 37.8988 0.0000 0.0000
# 5 0.0000 0.0000 0.0000 0.0000 15.0591 0.0000
# 6 0.0000 0.0000 0.0000 0.0000 0.0000 23.6701
#
#
#
# Elastic Compliance Matrix: (Units=1/GPa)
#
#
# Indices 1 2 3 4 5 6 
#
# 1 0.009196 -0.002030 -0.001044 0.000000 0.000000 0.000000
# 2 -0.002030 0.013306 -0.008208 0.000000 0.000000 0.000000
# 3 -0.001044 -0.008208 0.017250 0.000000 0.000000 0.000000
# 4 0.000000 0.000000 0.000000 0.026386 0.000000 0.000000
# 5 0.000000 0.000000 0.000000 0.000000 0.066405 0.000000
# 6 0.000000 0.000000 0.000000 0.000000 0.000000 0.042247
#
#
# Mechanical properties :
#
#
# Convention : Reuss Voigt Hill
#
# Bulk Modulus (GPa) = 58.17189 60.08663 59.12926
# Shear Modulus (GPa) = 24.62027 29.24383 26.93205
#
# Velocity S-wave (km/s) = 3.63872 3.96569 3.80572
# Velocity P-wave (km/s) = 6.99552 7.29947 7.14911
#
# Compressibility (1/GPa) = 0.01719043
#
# Stress axis : x y z
#
# Youngs Moduli (GPa) = 108.73859 75.15150 57.96958
#
# Poissons Ratio (x) = 0.15255 0.06051
# Poissons Ratio (y) = 0.22073 0.47579
# Poissons Ratio (z) = 0.11351 0.61681
#
# Static dielectric constant tensor:
#      x y z
#    x 1.689120 0.000000 0.000000 
#    y 0.000000 1.687760 0.000000 
#    z 0.000000 0.000000 1.621720 
# 
# From -- ./inp_files/40722.got.cif
#   From: 2010.05.17/outbox.cif.g08.bks.cpg/sg67_21_cif.got.tgz:40722.got - 2010.06.03 18:28:57.
