data_PCOD9502473
_publ_section_title
;
Structure prediction by ZEFSAII (Michael W. Deem and Ramdas Pophale) SiO2 
 PCOD9502473
Probable space group: C M M A
;
_chemical_formula_sum "Si O2"
_cell_formula_units_Z 80
_cell_length_a 9.474792
_cell_length_b 14.514576
_cell_length_c 27.137277
_cell_angle_alpha 90.000000
_cell_angle_beta 90.000000
_cell_angle_gamma 90.000000
_cell_volume 3731.988580
_symmetry_space_group_name_H-M "C M M A"
_symmetry_group_IT_number 67
_symmetry_cell_setting 'orthorhombic'
loop_
_space_group_symop_operation_xyz
x,y,z
-x,1/2-y,z
x,-y,-z
-x,1/2+y,-z
-x,-y,-z
x,1/2+y,-z
-x,y,z
x,1/2-y,z
1/2+x,1/2+y,z
1/2-x,-y,z
1/2+x,1/2-y,-z
1/2-x,y,-z
1/2-x,1/2-y,-z
1/2+x,y,-z
1/2-x,1/2+y,z
1/2+x,-y,z
loop_
_atom_site_type_symbol
_atom_site_label
_atom_site_fract_x
_atom_site_fract_y
_atom_site_fract_z
Si Si1 0.338450 0.137525 0.248425
Si Si2 0.344901 0.858237 0.158019
Si Si3 0.338832 0.637308 0.452120
Si Si4 0.663677 0.862305 0.642818
Si Si5 0.828442 0.098296 0.046610
O O1 0.500000 0.107261 0.245506
O O2 0.339780 0.250000 0.247790
O O3 0.255306 0.105009 0.200546
O O4 0.283151 0.111058 0.302621
O O5 0.500000 0.901901 0.160942
O O6 0.357499 0.750000 0.168789
O O7 0.300663 0.862841 0.100998
O O8 0.500000 0.605316 0.454454
O O9 0.341516 0.750000 0.451975
O O10 0.250000 0.609891 0.500000
O O11 0.261061 0.607976 0.402141
O O12 0.500000 0.891277 0.636952
O O13 0.661835 0.750000 0.641786
O O14 0.000000 0.094366 0.039384
O O15 0.750000 0.000000 0.049099
O O16 0.750000 0.144636 0.000000
#
# Coordination Sequence:
#
# PCOD9502473 Si02
#       5
#    16  16  16  16  16
#     4   8  14  24  38  56  77 102 132 166 206 251
#     4   9  18  31  46  66  91 115 141 177 218 257
#     4   9  15  20  26  37  54  80 117 160 203 244
#     4   8  13  21  31  43  62  88 119 157 199 242
#     4  10  20  34  51  69  90 117 147 178 213 255
#
# _framework density 21.436292999999999
#
# number of rings (size 3 to 8) (size 9 to 14) (size 15 to 20)
#    0.000    3.200    0.000    3.000    0.000    5.200 
#    0.000    4.000    0.000    0.000    0.000    0.000 
#    0.000    0.000    0.000    0.000    0.000    1.000 
#
# Total GULP energy -222961.965701 kJ/mol
# GULP energy per Si atom -5574.049143 kJ/mol
# Density = 2.138750 g / cm^3
# Si number density = 21.436293 Si / 1000 Ang^3
#
#
#
# Elastic Constant Matrix: (Units=GPa)
#
#
# Indices 1 2 3 4 5 6 
#
# 1 129.2598 9.4989 133.7285 0.0000 0.0000 0.0000
# 2 9.4989 50.5394 2.6826 0.0000 0.0000 0.0000
# 3 133.7285 2.6826 255.6306 0.0000 0.0000 0.0000
# 4 0.0000 0.0000 0.0000 643.3731 0.0000 0.0000
# 5 0.0000 0.0000 0.0000 0.0000 47.2097 0.0000
# 6 0.0000 0.0000 0.0000 0.0000 0.0000 -0.3409
#
#
#
# Elastic Compliance Matrix: (Units=1/GPa)
#
#
# Indices 1 2 3 4 5 6 
#
# 1 0.017240 -0.002763 -0.008990 0.000000 0.000000 0.000000
# 2 -0.002763 0.020240 0.001233 0.000000 0.000000 0.000000
# 3 -0.008990 0.001233 0.008602 0.000000 0.000000 0.000000
# 4 0.000000 0.000000 0.000000 0.001554 0.000000 0.000000
# 5 0.000000 0.000000 0.000000 0.000000 0.021182 0.000000
# 6 0.000000 0.000000 0.000000 0.000000 0.000000 -2.933573
#
#
# Mechanical properties :
#
#
# Convention : Reuss Voigt Hill
#
# Bulk Modulus (GPa) = 39.93203 80.80553 60.36878
# Shear Modulus (GPa) = -1.76344 157.34972 77.79314
#
# Velocity S-wave (km/s) = -0.90798 8.57687 6.03069
# Velocity P-wave (km/s) = 4.19159 11.65595 8.75873
#
# Compressibility (1/GPa) = 0.02504256
#
# Stress axis : x y z
#
# Youngs Moduli (GPa) = 58.00473 49.40612 116.25477
#
# Poissons Ratio (x) = 0.13651 1.04511
# Poissons Ratio (y) = 0.16027 -0.14335
# Poissons Ratio (z) = 0.52145 -0.06092
#
# Static dielectric constant tensor:
#      x y z
#    x 1.753680 0.000000 0.000000 
#    y 0.000000 1.884220 0.000000 
#    z 0.000000 0.000000 1.800480 
# 
# From -- ./inp_files/43295.got.cif
#   From: 2010.05.17/outbox.cif.g08.bks.cpg/sg67_22_cif.got.tgz:43295.got - 2010.06.03 18:28:57.
