data_PCOD9502002
_publ_section_title
;
Structure prediction by ZEFSAII (Michael W. Deem and Ramdas Pophale) SiO2 
 PCOD9502002
Probable space group: C M M A
;
_chemical_formula_sum "Si O2"
_cell_formula_units_Z 48
_cell_length_a 15.181591
_cell_length_b 14.372309
_cell_length_c 10.493428
_cell_angle_alpha 90.000000
_cell_angle_beta 90.000000
_cell_angle_gamma 90.000000
_cell_volume 2289.608454
_symmetry_space_group_name_H-M "C M M A"
_symmetry_group_IT_number 67
_symmetry_cell_setting 'orthorhombic'
loop_
_space_group_symop_operation_xyz
x,y,z
-x,1/2-y,z
x,-y,-z
-x,1/2+y,-z
-x,-y,-z
x,1/2+y,-z
-x,y,z
x,1/2-y,z
1/2+x,1/2+y,z
1/2-x,-y,z
1/2+x,1/2-y,-z
1/2-x,y,-z
1/2-x,1/2-y,-z
1/2+x,y,-z
1/2-x,1/2+y,z
1/2+x,-y,z
loop_
_atom_site_type_symbol
_atom_site_label
_atom_site_fract_x
_atom_site_fract_y
_atom_site_fract_z
Si Si1 0.151155 0.541396 0.869047
Si Si2 0.607363 0.750000 0.212353
Si Si3 0.396303 0.059531 0.386280
Si Si4 0.892189 0.250000 0.515591
O O1 0.250000 0.500000 0.867292
O O2 0.142075 0.653304 0.851549
O O3 0.110559 0.493547 0.745246
O O4 0.111635 0.500000 0.000000
O O5 0.500000 0.750000 0.202461
O O6 0.629807 0.750000 0.364551
O O7 0.500000 0.069219 0.411431
O O8 0.358744 0.161643 0.405502
O O9 0.356593 0.000000 0.500000
O O10 0.000000 0.250000 0.516165
#
# Coordination Sequence:
#
# PCOD9502002 Si02
#       4
#    16   8  16   8
#     4  11  26  43  62  93 137 176 214 269 331 389
#     4  11  22  43  71  95 127 176 223 267 329 391
#     4  10  19  36  62  91 123 163 220 274 318 380
#     4   9  18  34  61  94 124 158 207 277 330 369
#
# _framework density 20.964282999999998
#
# number of rings (size 3 to 8) (size 9 to 14) (size 15 to 20)
#    0.000    1.667    3.333    1.000    0.000    8.667 
#    0.000    3.333    0.000    0.000    0.000    0.000 
#    0.000    0.000    0.000    0.000    0.000    0.000 
#
# Total GULP energy -133763.447556 kJ/mol
# GULP energy per Si atom -5573.476982 kJ/mol
# Density = 2.091657 g / cm^3
# Si number density = 20.964283 Si / 1000 Ang^3
#
#
#
# Elastic Constant Matrix: (Units=GPa)
#
#
# Indices 1 2 3 4 5 6 
#
# 1 55.1864 24.1990 -11.0133 0.0000 0.0000 0.0000
# 2 24.1990 267.6238 103.7736 0.0000 0.0000 0.0000
# 3 -11.0133 103.7736 146.1000 0.0000 0.0000 0.0000
# 4 0.0000 0.0000 0.0000 33.2295 0.0000 0.0000
# 5 0.0000 0.0000 0.0000 0.0000 5.8886 0.0000
# 6 0.0000 0.0000 0.0000 0.0000 0.0000 23.2110
#
#
#
# Elastic Compliance Matrix: (Units=1/GPa)
#
#
# Indices 1 2 3 4 5 6 
#
# 1 0.020380 -0.003365 0.003927 0.000000 0.000000 0.000000
# 2 -0.003365 0.005713 -0.004311 0.000000 0.000000 0.000000
# 3 0.003927 -0.004311 0.010203 0.000000 0.000000 0.000000
# 4 0.000000 0.000000 0.000000 0.030094 0.000000 0.000000
# 5 0.000000 0.000000 0.000000 0.000000 0.169819 0.000000
# 6 0.000000 0.000000 0.000000 0.000000 0.000000 0.043083
#
#
# Mechanical properties :
#
#
# Convention : Reuss Voigt Hill
#
# Bulk Modulus (GPa) = 34.72798 78.09209 56.41004
# Shear Modulus (GPa) = 16.86971 35.92922 26.39946
#
# Velocity S-wave (km/s) = 2.83978 4.14433 3.55245
# Velocity P-wave (km/s) = 5.23008 7.76090 6.61760
#
# Compressibility (1/GPa) = 0.02879523
#
# Stress axis : x y z
#
# Youngs Moduli (GPa) = 49.06833 175.05000 98.01101
#
# Poissons Ratio (x) = 0.58911 -0.38486
# Poissons Ratio (y) = 0.16513 0.42256
# Poissons Ratio (z) = -0.19267 0.75470
#
# Static dielectric constant tensor:
#      x y z
#    x 1.891220 0.000000 0.000000 
#    y 0.000000 1.757800 0.000000 
#    z 0.000000 0.000000 1.775880 
# 
# From -- ./inp_files/7374.got.cif
#   From: 2010.05.17/outbox.cif.g08.bks.cpg/sg67_4_cif.got.tgz:7374.got - 2010.06.03 18:28:57.
