data_PCOD9502691
_publ_section_title
;
Structure prediction by ZEFSAII (Michael W. Deem and Ramdas Pophale) SiO2 
 PCOD9502691
Probable space group: C M M A
;
_chemical_formula_sum "Si O2"
_cell_formula_units_Z 96
_cell_length_a 27.617704
_cell_length_b 20.806278
_cell_length_c 8.769709
_cell_angle_alpha 90.000000
_cell_angle_beta 90.000000
_cell_angle_gamma 90.000000
_cell_volume 5039.264455
_symmetry_space_group_name_H-M "C M M A"
_symmetry_group_IT_number 67
_symmetry_cell_setting 'orthorhombic'
loop_
_space_group_symop_operation_xyz
x,y,z
-x,1/2-y,z
x,-y,-z
-x,1/2+y,-z
-x,-y,-z
x,1/2+y,-z
-x,y,z
x,1/2-y,z
1/2+x,1/2+y,z
1/2-x,-y,z
1/2+x,1/2-y,-z
1/2-x,y,-z
1/2-x,1/2-y,-z
1/2+x,y,-z
1/2-x,1/2+y,z
1/2+x,-y,z
loop_
_atom_site_type_symbol
_atom_site_label
_atom_site_fract_x
_atom_site_fract_y
_atom_site_fract_z
Si Si1 0.149099 0.324301 0.619200
Si Si2 0.696146 0.567137 0.433283
Si Si3 0.947611 0.431775 0.087661
Si Si4 0.842830 0.060081 0.114421
Si Si5 0.445222 0.674686 0.821607
Si Si6 0.195884 0.678065 0.064609
O O1 0.148483 0.250000 0.568299
O O2 0.163801 0.373563 0.488893
O O3 0.097770 0.338572 0.701773
O O4 0.189205 0.330319 0.754380
O O5 0.676894 0.500000 0.500000
O O6 0.750000 0.575557 0.500000
O O7 0.694817 0.559449 0.251938
O O8 0.897586 0.436130 0.179316
O O9 0.000000 0.423460 0.165868
O O10 0.949302 0.500000 0.000000
O O11 0.942726 0.374773 0.962693
O O12 0.834205 0.123529 0.016905
O O13 0.838071 0.000000 0.000000
O O14 0.500000 0.668010 0.757844
O O15 0.439729 0.750000 0.868027
O O16 0.177671 0.750000 0.030589
O O17 0.250000 0.673718 0.000000
#
# Coordination Sequence:
#
# PCOD9502691 Si02
#       6
#    16  16  16  16  16  16
#     4  10  20  37  59  84 117 153 192 237 294 355
#     4  11  25  41  56  81 119 157 197 244 297 358
#     4   9  18  32  54  86 117 145 188 245 292 339
#     4  11  22  37  61  84 110 155 197 245 288 347
#     4   9  17  32  58  88 118 154 195 241 293 350
#     4  10  20  34  55  83 111 142 192 246 288 340
#
# _framework density 19.050398000000001
#
# number of rings (size 3 to 8) (size 9 to 14) (size 15 to 20)
#    0.000    2.000    1.667    2.000    2.333    2.667 
#    0.000    0.833    0.000    1.000    0.000    0.000 
#    0.000    0.000    0.000    0.000    0.000    0.000 
#
# Total GULP energy -267604.565919 kJ/mol
# GULP energy per Si atom -5575.095123 kJ/mol
# Density = 1.900704 g / cm^3
# Si number density = 19.050398 Si / 1000 Ang^3
#
#
#
# Elastic Constant Matrix: (Units=GPa)
#
#
# Indices 1 2 3 4 5 6 
#
# 1 107.0868 24.7852 24.9017 0.0000 0.0000 0.0000
# 2 24.7852 98.6451 36.0918 0.0000 0.0000 0.0000
# 3 24.9017 36.0918 61.9154 0.0000 0.0000 0.0000
# 4 0.0000 0.0000 0.0000 24.2744 0.0000 0.0000
# 5 0.0000 0.0000 0.0000 0.0000 17.4821 0.0000
# 6 0.0000 0.0000 0.0000 0.0000 0.0000 26.3578
#
#
#
# Elastic Compliance Matrix: (Units=1/GPa)
#
#
# Indices 1 2 3 4 5 6 
#
# 1 0.010448 -0.001383 -0.003396 0.000000 0.000000 0.000000
# 2 -0.001383 0.013068 -0.007062 0.000000 0.000000 0.000000
# 3 -0.003396 -0.007062 0.021633 0.000000 0.000000 0.000000
# 4 0.000000 0.000000 0.000000 0.041196 0.000000 0.000000
# 5 0.000000 0.000000 0.000000 0.000000 0.057201 0.000000
# 6 0.000000 0.000000 0.000000 0.000000 0.000000 0.037939
#
#
# Mechanical properties :
#
#
# Convention : Reuss Voigt Hill
#
# Bulk Modulus (GPa) = 46.57918 48.80053 47.68985
# Shear Modulus (GPa) = 23.54896 25.74744 24.64820
#
# Velocity S-wave (km/s) = 3.51969 3.68032 3.60090
# Velocity P-wave (km/s) = 6.40478 6.61301 6.50973
#
# Compressibility (1/GPa) = 0.02146882
#
# Stress axis : x y z
#
# Youngs Moduli (GPa) = 95.71263 76.52003 46.22471
#
# Poissons Ratio (x) = 0.10579 0.15699
# Poissons Ratio (y) = 0.13233 0.32643
# Poissons Ratio (z) = 0.32505 0.54037
#
# Static dielectric constant tensor:
#      x y z
#    x 1.735160 0.000000 0.000000 
#    y 0.000000 1.659460 0.000000 
#    z 0.000000 0.000000 1.651170 
# 
# From -- ./inp_files/13690.got.cif
#   From: 2010.05.17/outbox.cif.g08.bks.cpg/sg67_7_cif.got.tgz:13690.got - 2010.06.03 18:28:57.
