data_PCOD9502553
_publ_section_title
;
Structure prediction by ZEFSAII (Michael W. Deem and Ramdas Pophale) SiO2 
 PCOD9502553
Probable space group: C M M A
;
_chemical_formula_sum "Si O2"
_cell_formula_units_Z 120
_cell_length_a 8.747524
_cell_length_b 26.752625
_cell_length_c 27.923997
_cell_angle_alpha 90.000000
_cell_angle_beta 90.000000
_cell_angle_gamma 90.000000
_cell_volume 6534.752256
_symmetry_space_group_name_H-M "C M M A"
_symmetry_group_IT_number 67
_symmetry_cell_setting 'orthorhombic'
loop_
_space_group_symop_operation_xyz
x,y,z
-x,1/2-y,z
x,-y,-z
-x,1/2+y,-z
-x,-y,-z
x,1/2+y,-z
-x,y,z
x,1/2-y,z
1/2+x,1/2+y,z
1/2-x,-y,z
1/2+x,1/2-y,-z
1/2-x,y,-z
1/2-x,1/2-y,-z
1/2+x,y,-z
1/2-x,1/2+y,z
1/2+x,-y,z
loop_
_atom_site_type_symbol
_atom_site_label
_atom_site_fract_x
_atom_site_fract_y
_atom_site_fract_z
Si Si1 0.182181 0.907777 0.049374
Si Si2 0.817290 0.052446 0.847700
Si Si3 0.815871 0.151434 0.612729
Si Si4 0.815907 0.194133 0.085748
Si Si5 0.315822 0.553379 0.553317
Si Si6 0.683855 0.846575 0.189711
Si Si7 0.315237 0.750000 0.553356
Si Si8 0.315454 0.306871 0.706824
O O1 0.232323 0.937035 0.097159
O O2 0.238279 0.850838 0.057321
O O3 0.000000 0.908708 0.047021
O O4 0.250000 0.927609 0.000000
O O5 0.756525 0.099193 0.817681
O O6 0.000000 0.051404 0.846467
O O7 0.750000 0.000000 0.831421
O O8 0.771582 0.100019 0.586643
O O9 0.766990 0.199878 0.581615
O O10 0.749143 0.157857 0.665603
O O11 0.000000 0.152506 0.615317
O O12 0.769389 0.250000 0.071339
O O13 0.778812 0.185226 0.142047
O O14 0.000000 0.190032 0.080717
O O15 0.500000 0.550656 0.550838
O O16 0.250000 0.500000 0.570070
O O17 0.250000 0.561692 0.500000
O O18 0.500000 0.851250 0.190461
O O19 0.732163 0.822136 0.239607
O O20 0.500000 0.750000 0.551073
O O21 0.250000 0.750000 0.500000
O O22 0.500000 0.307986 0.705406
O O23 0.265075 0.250000 0.696921
#
# Coordination Sequence:
#
# PCOD9502553 Si02
#       8
#    16  16  16  16  16  16   8  16
#     4  10  21  35  51  74 104 136 172 212 257 314
#     4  10  21  37  57  80 104 133 172 217 265 316
#     4  10  21  36  53  77 111 147 182 222 271 325
#     4   9  17  31  52  75 101 135 173 214 260 309
#     4  10  20  35  56  80 105 139 182 226 271 319
#     4   9  18  34  55  79 106 136 173 217 262 311
#     4  10  20  34  52  76 108 144 182 224 271 324
#     4  10  20  34  55  83 112 143 178 216 262 317
#
# _framework density 18.363358999999999
#
# number of rings (size 3 to 8) (size 9 to 14) (size 15 to 20)
#    0.000    2.267    0.667    2.400    0.000    6.133 
#    0.000    2.000    0.000    4.000    0.000    0.000 
#    0.000    0.000    0.000    0.000    0.000    0.000 
#
# Total GULP energy -334949.909177 kJ/mol
# GULP energy per Si atom -5582.498486 kJ/mol
# Density = 1.832156 g / cm^3
# Si number density = 18.363359 Si / 1000 Ang^3
#
#
#
# Elastic Constant Matrix: (Units=GPa)
#
#
# Indices 1 2 3 4 5 6 
#
# 1 14.3253 17.0700 14.2677 0.0000 0.0000 0.0000
# 2 17.0700 97.4248 19.6222 0.0000 0.0000 0.0000
# 3 14.2677 19.6222 80.8536 0.0000 0.0000 0.0000
# 4 0.0000 0.0000 0.0000 -1.3467 0.0000 0.0000
# 5 0.0000 0.0000 0.0000 0.0000 28.2462 0.0000
# 6 0.0000 0.0000 0.0000 0.0000 0.0000 23.5044
#
#
#
# Elastic Compliance Matrix: (Units=1/GPa)
#
#
# Indices 1 2 3 4 5 6 
#
# 1 0.101943 -0.014970 -0.014356 0.000000 0.000000 0.000000
# 2 -0.014970 0.012990 -0.000511 0.000000 0.000000 0.000000
# 3 -0.014356 -0.000511 0.015025 0.000000 0.000000 0.000000
# 4 0.000000 0.000000 0.000000 -0.742570 0.000000 0.000000
# 5 0.000000 0.000000 0.000000 0.000000 0.035403 0.000000
# 6 0.000000 0.000000 0.000000 0.000000 0.000000 0.042545
#
#
# Mechanical properties :
#
#
# Convention : Reuss Voigt Hill
#
# Bulk Modulus (GPa) = 14.22794 32.72485 23.47639
# Shear Modulus (GPa) = -11.07272 19.52371 4.22549
#
# Velocity S-wave (km/s) = -2.45823 3.26419 1.51857
# Velocity P-wave (km/s) = 0.54069 5.66269 3.98583
#
# Compressibility (1/GPa) = 0.07028426
#
# Stress axis : x y z
#
# Youngs Moduli (GPa) = 9.80937 76.98115 66.55415
#
# Poissons Ratio (x) = 1.15243 0.95546
# Poissons Ratio (y) = 0.14685 0.03400
# Poissons Ratio (z) = 0.14082 0.03933
#
# Static dielectric constant tensor:
#      x y z
#    x 1.617710 0.000000 0.000000 
#    y 0.000000 1.619800 0.000000 
#    z 0.000000 0.000000 1.619260 
# 
# From -- ./inp_files/43886.got.cif
#   From: 2010.05.17/outbox.cif.g08.bks.cpg/sg67_22_cif.got.tgz:43886.got - 2010.06.03 18:28:57.
