data_PCOD9502281
_publ_section_title
;
Structure prediction by ZEFSAII (Michael W. Deem and Ramdas Pophale) SiO2 
 PCOD9502281
Probable space group: C M M A
;
_chemical_formula_sum "Si O2"
_cell_formula_units_Z 80
_cell_length_a 9.600980
_cell_length_b 27.165271
_cell_length_c 18.847503
_cell_angle_alpha 90.000000
_cell_angle_beta 90.000000
_cell_angle_gamma 90.000000
_cell_volume 4915.678014
_symmetry_space_group_name_H-M "C M M A"
_symmetry_group_IT_number 67
_symmetry_cell_setting 'orthorhombic'
loop_
_space_group_symop_operation_xyz
x,y,z
-x,1/2-y,z
x,-y,-z
-x,1/2+y,-z
-x,-y,-z
x,1/2+y,-z
-x,y,z
x,1/2-y,z
1/2+x,1/2+y,z
1/2-x,-y,z
1/2+x,1/2-y,-z
1/2-x,y,-z
1/2-x,1/2-y,-z
1/2+x,y,-z
1/2-x,1/2+y,z
1/2+x,-y,z
loop_
_atom_site_type_symbol
_atom_site_label
_atom_site_fract_x
_atom_site_fract_y
_atom_site_fract_z
Si Si1 0.658985 0.309778 0.066882
Si Si2 0.000000 0.693042 0.391914
Si Si3 0.827614 0.948227 0.426163
Si Si4 0.156987 0.192293 0.201507
Si Si5 0.500000 0.190010 0.552932
Si Si6 0.730204 0.645579 0.345155
O O1 0.500000 0.327098 0.063914
O O2 0.656581 0.250000 0.063605
O O3 0.734150 0.321593 0.140835
O O4 0.750000 0.326930 0.000000
O O5 0.000000 0.671434 0.471722
O O6 0.132265 0.677811 0.348414
O O7 0.000000 0.750000 0.404629
O O8 0.750000 0.932940 0.500000
O O9 0.780434 0.908590 0.367584
O O10 0.000000 0.951647 0.431868
O O11 0.750000 0.000000 0.410109
O O12 0.180017 0.250000 0.223299
O O13 0.165423 0.156341 0.268801
O O14 0.000000 0.190640 0.171723
O O15 0.500000 0.250000 0.556936
O O16 0.369266 0.167948 0.594421
#
# Coordination Sequence:
#
# PCOD9502281 Si02
#       6
#    16   8  16  16   8  16
#     4   9  17  29  47  70  98 134 175 215 252 298
#     4  11  22  34  49  71 102 136 175 218 255 311
#     4  11  24  40  60  79  97 127 172 227 283 332
#     4  10  20  33  49  71 103 142 178 212 256 309
#     4  11  22  36  51  71 100 142 181 212 255 309
#     4  12  23  35  53  75 103 136 176 221 270 316
#
# _framework density 16.274459
#
# number of rings (size 3 to 8) (size 9 to 14) (size 15 to 20)
#    0.000    1.400    2.000    5.400    4.200    4.000 
#    0.000    0.000    0.000    0.000    0.000    0.000 
#    0.000    0.800    0.000    5.600    0.000    1.800 
#
# Total GULP energy -222970.793393 kJ/mol
# GULP energy per Si atom -5574.269835 kJ/mol
# Density = 1.623742 g / cm^3
# Si number density = 16.274459 Si / 1000 Ang^3
#
#
#
# Elastic Constant Matrix: (Units=GPa)
#
#
# Indices 1 2 3 4 5 6 
#
# 1 132.4564 25.0461 29.1632 0.0000 0.0000 0.0000
# 2 25.0461 55.5765 23.9819 0.0000 0.0000 0.0000
# 3 29.1632 23.9819 65.1901 0.0000 0.0000 0.0000
# 4 0.0000 0.0000 0.0000 13.0276 0.0000 0.0000
# 5 0.0000 0.0000 0.0000 0.0000 29.4252 0.0000
# 6 0.0000 0.0000 0.0000 0.0000 0.0000 17.7146
#
#
#
# Elastic Compliance Matrix: (Units=1/GPa)
#
#
# Indices 1 2 3 4 5 6 
#
# 1 0.008694 -0.002662 -0.002910 0.000000 0.000000 0.000000
# 2 -0.002662 0.022204 -0.006977 0.000000 0.000000 0.000000
# 3 -0.002910 -0.006977 0.019208 0.000000 0.000000 0.000000
# 4 0.000000 0.000000 0.000000 0.076760 0.000000 0.000000
# 5 0.000000 0.000000 0.000000 0.000000 0.033984 0.000000
# 6 0.000000 0.000000 0.000000 0.000000 0.000000 0.056451
#
#
# Mechanical properties :
#
#
# Convention : Reuss Voigt Hill
#
# Bulk Modulus (GPa) = 39.98873 45.51170 42.75021
# Shear Modulus (GPa) = 19.94134 23.70227 21.82180
#
# Velocity S-wave (km/s) = 3.50425 3.82043 3.66575
# Velocity P-wave (km/s) = 6.40295 6.89106 6.65149
#
# Compressibility (1/GPa) = 0.02500705
#
# Stress axis : x y z
#
# Youngs Moduli (GPa) = 115.02556 45.03738 52.06104
#
# Poissons Ratio (x) = 0.11990 0.15149
# Poissons Ratio (y) = 0.30623 0.36324
# Poissons Ratio (z) = 0.33470 0.31424
#
# Static dielectric constant tensor:
#      x y z
#    x 1.569720 0.000000 0.000000 
#    y 0.000000 1.547530 0.000000 
#    z 0.000000 0.000000 1.544000 
# 
# From -- ./inp_files/32316.got.cif
#   From: 2010.05.17/outbox.cif.g08.bks.cpg/sg67_17_cif.got.tgz:32316.got - 2010.06.03 18:28:57.
