data_PCOD9502589
_publ_section_title
;
Structure prediction by ZEFSAII (Michael W. Deem and Ramdas Pophale) SiO2 
 PCOD9502589
Probable space group: C M M A
;
_chemical_formula_sum "Si O2"
_cell_formula_units_Z 96
_cell_length_a 27.915217
_cell_length_b 17.429018
_cell_length_c 10.443401
_cell_angle_alpha 90.000000
_cell_angle_beta 90.000000
_cell_angle_gamma 90.000000
_cell_volume 5081.078221
_symmetry_space_group_name_H-M "C M M A"
_symmetry_group_IT_number 67
_symmetry_cell_setting 'orthorhombic'
loop_
_space_group_symop_operation_xyz
x,y,z
-x,1/2-y,z
x,-y,-z
-x,1/2+y,-z
-x,-y,-z
x,1/2+y,-z
-x,y,z
x,1/2-y,z
1/2+x,1/2+y,z
1/2-x,-y,z
1/2+x,1/2-y,-z
1/2-x,y,-z
1/2-x,1/2-y,-z
1/2+x,y,-z
1/2-x,1/2+y,z
1/2+x,-y,z
loop_
_atom_site_type_symbol
_atom_site_label
_atom_site_fract_x
_atom_site_fract_y
_atom_site_fract_z
Si Si1 0.385086 0.457337 0.126031
Si Si2 0.325246 0.163578 0.280863
Si Si3 0.361425 0.840608 0.425854
Si Si4 0.443478 0.583678 0.284168
Si Si5 0.265389 0.584898 0.350639
Si Si6 0.055680 0.332589 0.020628
O O1 0.347645 0.404621 0.199236
O O2 0.414297 0.512332 0.222704
O O3 0.364247 0.500000 0.000000
O O4 0.422430 0.399269 0.062441
O O5 0.335379 0.250000 0.235998
O O6 0.346504 0.156434 0.424995
O O7 0.268534 0.148168 0.287347
O O8 0.361471 0.750000 0.389865
O O9 0.412349 0.880716 0.399037
O O10 0.320657 0.889119 0.349044
O O11 0.500000 0.567868 0.310182
O O12 0.441197 0.646010 0.169774
O O13 0.250000 0.500000 0.302931
O O14 0.250000 0.584785 0.500000
O O15 0.078404 0.250000 0.996593
O O16 0.000000 0.329029 0.989121
#
# Coordination Sequence:
#
# PCOD9502589 Si02
#       6
#    16  16  16  16  16  16
#     4  10  20  34  53  77 104 141 184 227 267 311
#     4  10  20  35  56  82 111 140 174 219 270 322
#     4  10  20  34  54  81 111 141 176 219 268 323
#     4  10  20  34  53  77 107 143 181 221 268 322
#     4   9  17  31  54  82 109 138 173 211 254 310
#     4   9  17  31  52  74  98 135 184 231 270 314
#
# _framework density 18.893628
#
# number of rings (size 3 to 8) (size 9 to 14) (size 15 to 20)
#    0.000    2.333    0.000    3.000    0.000    7.000 
#    0.000    2.500    0.000   13.500    0.000   16.333 
#    0.000    0.000    0.000    0.000    0.000    0.000 
#
# Total GULP energy -267440.425007 kJ/mol
# GULP energy per Si atom -5571.675521 kJ/mol
# Density = 1.885062 g / cm^3
# Si number density = 18.893628 Si / 1000 Ang^3
#
#
#
# Elastic Constant Matrix: (Units=GPa)
#
#
# Indices 1 2 3 4 5 6 
#
# 1 98.9071 37.3794 26.5706 0.0000 0.0000 0.0000
# 2 37.3794 122.3958 30.5767 0.0000 0.0000 0.0000
# 3 26.5706 30.5767 26.5710 0.0000 0.0000 0.0000
# 4 0.0000 0.0000 0.0000 8.0421 0.0000 0.0000
# 5 0.0000 0.0000 0.0000 0.0000 19.1014 0.0000
# 6 0.0000 0.0000 0.0000 0.0000 0.0000 21.7012
#
#
#
# Elastic Compliance Matrix: (Units=1/GPa)
#
#
# Indices 1 2 3 4 5 6 
#
# 1 0.013926 -0.001086 -0.012676 0.000000 0.000000 0.000000
# 2 -0.001086 0.011551 -0.012206 0.000000 0.000000 0.000000
# 3 -0.012676 -0.012206 0.064357 0.000000 0.000000 0.000000
# 4 0.000000 0.000000 0.000000 0.124345 0.000000 0.000000
# 5 0.000000 0.000000 0.000000 0.000000 0.052352 0.000000
# 6 0.000000 0.000000 0.000000 0.000000 0.000000 0.046080
#
#
# Mechanical properties :
#
#
# Convention : Reuss Voigt Hill
#
# Bulk Modulus (GPa) = 26.38695 48.54749 37.46722
# Shear Modulus (GPa) = 13.25615 19.99209 16.62412
#
# Velocity S-wave (km/s) = 2.65169 3.25643 2.96949
# Velocity P-wave (km/s) = 4.83442 6.31586 5.62413
#
# Compressibility (1/GPa) = 0.03789752
#
# Stress axis : x y z
#
# Youngs Moduli (GPa) = 71.80617 86.56964 15.53822
#
# Poissons Ratio (x) = 0.09405 0.19696
# Poissons Ratio (y) = 0.07801 0.18967
# Poissons Ratio (z) = 0.91021 1.05671
#
# Static dielectric constant tensor:
#      x y z
#    x 1.651500 0.000000 0.000000 
#    y 0.000000 1.692890 0.000000 
#    z 0.000000 0.000000 1.661260 
# 
# From -- ./inp_files/21910.got.cif
#   From: 2010.05.17/outbox.cif.g08.bks.cpg/sg67_11_cif.got.tgz:21910.got - 2010.06.03 18:28:57.
