data_PCOD9502135
_publ_section_title
;
Structure prediction by ZEFSAII (Michael W. Deem and Ramdas Pophale) SiO2 
 PCOD9502135
Probable space group: C M M A
;
_chemical_formula_sum "Si O2"
_cell_formula_units_Z 116
_cell_length_a 9.086716
_cell_length_b 29.394819
_cell_length_c 28.458211
_cell_angle_alpha 90.000000
_cell_angle_beta 90.000000
_cell_angle_gamma 90.000000
_cell_volume 7601.255665
_symmetry_space_group_name_H-M "C M M A"
_symmetry_group_IT_number 67
_symmetry_cell_setting 'orthorhombic'
loop_
_space_group_symop_operation_xyz
x,y,z
-x,1/2-y,z
x,-y,-z
-x,1/2+y,-z
-x,-y,-z
x,1/2+y,-z
-x,y,z
x,1/2-y,z
1/2+x,1/2+y,z
1/2-x,-y,z
1/2+x,1/2-y,-z
1/2-x,y,-z
1/2-x,1/2-y,-z
1/2+x,y,-z
1/2-x,1/2+y,z
1/2+x,-y,z
loop_
_atom_site_type_symbol
_atom_site_label
_atom_site_fract_x
_atom_site_fract_y
_atom_site_fract_z
Si Si1 0.672361 0.853472 0.175734
Si Si2 0.750000 0.250000 0.000000
Si Si3 0.675508 0.955776 0.144410
Si Si4 0.173334 0.334830 0.068020
Si Si5 0.830256 0.305451 0.547740
Si Si6 0.324824 0.571342 0.952386
Si Si7 0.830416 0.305367 0.357037
Si Si8 0.325075 0.196504 0.260704
O O1 0.500000 0.847565 0.187204
O O2 0.701122 0.907447 0.169818
O O3 0.696221 0.831147 0.124233
O O4 0.768241 0.831008 0.216013
O O5 0.707014 0.210078 0.961318
O O6 0.500000 0.961608 0.139472
O O7 0.751081 0.950218 0.093516
O O8 0.750000 0.000000 0.167222
O O9 0.279639 0.375427 0.051658
O O10 0.000000 0.347818 0.061268
O O11 0.827092 0.250000 0.547806
O O12 0.750000 0.320162 0.500000
O O13 0.749882 0.320503 0.595348
O O14 0.000000 0.319311 0.547690
O O15 0.500000 0.565550 0.952888
O O16 0.250000 0.554092 0.000000
O O17 0.826744 0.250000 0.357590
O O18 0.750305 0.319310 0.309117
O O19 0.000000 0.319467 0.356944
O O20 0.500000 0.192903 0.265381
O O21 0.288006 0.250000 0.254148
#
# Coordination Sequence:
#
# PCOD9502135 Si02
#       8
#    16   4  16  16  16  16  16  16
#     4   9  20  37  55  72  94 121 150 186 226 275
#     4  12  22  32  56  74  96 124 158 192 232 276
#     4  10  21  38  58  79  99 118 145 179 223 275
#     4  10  22  37  51  71  95 121 152 187 226 271
#     4   9  15  22  33  51  77 109 147 193 239 279
#     4  11  21  35  54  73  96 121 145 175 214 259
#     4   9  16  26  40  57  79 112 153 194 237 280
#     4  10  20  32  46  67  93 121 157 198 235 272
#
# _framework density 15.260636
#
# number of rings (size 3 to 8) (size 9 to 14) (size 15 to 20)
#    0.000    2.207    0.690    3.931    0.966    7.724 
#    0.000    1.379    0.000    0.000    0.000    0.000 
#    0.000    0.000    0.000    0.000    0.000    0.690 
#
# Total GULP energy -322988.899332 kJ/mol
# GULP energy per Si atom -5568.774126 kJ/mol
# Density = 1.522590 g / cm^3
# Si number density = 15.260636 Si / 1000 Ang^3
#
#
#
# Elastic Constant Matrix: (Units=GPa)
#
#
# Indices 1 2 3 4 5 6 
#
# 1 109.4653 37.5398 73.7897 0.0000 0.0000 0.0000
# 2 37.5398 56.5825 28.0403 0.0000 0.0000 0.0000
# 3 73.7897 28.0403 111.7700 0.0000 0.0000 0.0000
# 4 0.0000 0.0000 0.0000 1.8887 0.0000 0.0000
# 5 0.0000 0.0000 0.0000 0.0000 30.0445 0.0000
# 6 0.0000 0.0000 0.0000 0.0000 0.0000 14.7669
#
#
#
# Elastic Compliance Matrix: (Units=1/GPa)
#
#
# Indices 1 2 3 4 5 6 
#
# 1 0.018712 -0.007186 -0.010551 0.000000 0.000000 0.000000
# 2 -0.007186 0.022942 -0.001012 0.000000 0.000000 0.000000
# 3 -0.010551 -0.001012 0.016166 0.000000 0.000000 0.000000
# 4 0.000000 0.000000 0.000000 0.529453 0.000000 0.000000
# 5 0.000000 0.000000 0.000000 0.000000 0.033284 0.000000
# 6 0.000000 0.000000 0.000000 0.000000 0.000000 0.067719
#
#
# Mechanical properties :
#
#
# Convention : Reuss Voigt Hill
#
# Bulk Modulus (GPa) = 49.20302 61.83973 55.52137
# Shear Modulus (GPa) = 6.82551 18.56991 12.69771
#
# Velocity S-wave (km/s) = 2.11715 3.49212 2.88767
# Velocity P-wave (km/s) = 6.18775 7.54124 6.89777
#
# Compressibility (1/GPa) = 0.02032396
#
# Stress axis : x y z
#
# Youngs Moduli (GPa) = 53.44270 43.58809 61.85778
#
# Poissons Ratio (x) = 0.31321 0.65263
# Poissons Ratio (y) = 0.38403 0.06257
# Poissons Ratio (z) = 0.56385 0.04409
#
# Static dielectric constant tensor:
#      x y z
#    x 1.515000 0.000000 0.000000 
#    y 0.000000 1.514480 0.000000 
#    z 0.000000 0.000000 1.500570 
# 
# From -- ./inp_files/43976.got.cif
#   From: 2010.05.17/outbox.cif.g08.bks.cpg/sg67_22_cif.got.tgz:43976.got - 2010.06.03 18:28:57.
