data_PCOD9502752
_publ_section_title
;
Structure prediction by ZEFSAII (Michael W. Deem and Ramdas Pophale) SiO2 
 PCOD9502752
Probable space group: C M M A
;
_chemical_formula_sum "Si O2"
_cell_formula_units_Z 112
_cell_length_a 15.113956
_cell_length_b 14.718398
_cell_length_c 24.721169
_cell_angle_alpha 90.000000
_cell_angle_beta 90.000000
_cell_angle_gamma 90.000000
_cell_volume 5499.303640
_symmetry_space_group_name_H-M "C M M A"
_symmetry_group_IT_number 67
_symmetry_cell_setting 'orthorhombic'
loop_
_space_group_symop_operation_xyz
x,y,z
-x,1/2-y,z
x,-y,-z
-x,1/2+y,-z
-x,-y,-z
x,1/2+y,-z
-x,y,z
x,1/2-y,z
1/2+x,1/2+y,z
1/2-x,-y,z
1/2+x,1/2-y,-z
1/2-x,y,-z
1/2-x,1/2-y,-z
1/2+x,y,-z
1/2-x,1/2+y,z
1/2+x,-y,z
loop_
_atom_site_type_symbol
_atom_site_label
_atom_site_fract_x
_atom_site_fract_y
_atom_site_fract_z
Si Si1 0.649016 0.647219 0.483030
Si Si2 0.895635 0.150106 0.677630
Si Si3 0.898959 0.855113 0.844698
Si Si4 0.899447 0.644285 0.143226
Si Si5 0.765119 0.098604 0.769388
Si Si6 0.398416 0.480813 0.417940
Si Si7 0.643586 0.502150 0.937903
O O1 0.614061 0.750000 0.473832
O O2 0.750000 0.656173 0.500000
O O3 0.605254 0.590984 0.532296
O O4 0.647721 0.575060 0.433839
O O5 0.893317 0.250000 0.651025
O O6 0.825138 0.151319 0.726191
O O7 0.869358 0.073116 0.635047
O O8 0.000000 0.136437 0.694288
O O9 0.890966 0.750000 0.862683
O O10 0.826167 0.867794 0.796831
O O11 0.884933 0.922829 0.895722
O O12 0.000000 0.869920 0.824979
O O13 0.874383 0.750000 0.143167
O O14 0.831713 0.590105 0.180201
O O15 0.891131 0.597028 0.085835
O O16 0.000000 0.637005 0.163003
O O17 0.750000 0.000000 0.745142
O O18 0.500000 0.506087 0.409782
O O19 0.750000 0.500000 0.937567
O O20 0.613871 0.500000 0.000000
#
# Coordination Sequence:
#
# PCOD9502752 Si02
#       7
#    16  16  16  16  16  16  16
#     4  10  20  34  57  87 123 169 213 252 299 361
#     4  10  22  40  63  92 125 160 203 260 320 372
#     4  11  23  40  63  89 121 162 203 245 303 374
#     4  11  22  38  63  91 118 153 200 251 302 357
#     4  12  23  39  63  89 119 158 201 252 308 364
#     4  10  20  35  58  90 125 160 202 253 309 368
#     4  11  23  40  62  91 125 163 202 248 305 362
#
# _framework density 20.366216000000001
#
# number of rings (size 3 to 8) (size 9 to 14) (size 15 to 20)
#    0.000    1.286    2.857    4.286    0.000    6.286 
#    0.000    2.857    0.000    1.714    0.000    0.000 
#    0.000    0.000    0.000    0.000    0.000    0.000 
#
# Total GULP energy -312264.419511 kJ/mol
# GULP energy per Si atom -5576.150348 kJ/mol
# Density = 2.031986 g / cm^3
# Si number density = 20.366216 Si / 1000 Ang^3
#
#
#
# Elastic Constant Matrix: (Units=GPa)
#
#
# Indices 1 2 3 4 5 6 
#
# 1 101.0906 30.5913 35.0459 0.0000 0.0000 0.0000
# 2 30.5913 130.6851 40.1713 0.0000 0.0000 0.0000
# 3 35.0459 40.1713 91.5911 0.0000 0.0000 0.0000
# 4 0.0000 0.0000 0.0000 31.8053 0.0000 0.0000
# 5 0.0000 0.0000 0.0000 0.0000 12.9621 0.0000
# 6 0.0000 0.0000 0.0000 0.0000 0.0000 30.7793
#
#
#
# Elastic Compliance Matrix: (Units=1/GPa)
#
#
# Indices 1 2 3 4 5 6 
#
# 1 0.011678 -0.001572 -0.003779 0.000000 0.000000 0.000000
# 2 -0.001572 0.009056 -0.003370 0.000000 0.000000 0.000000
# 3 -0.003779 -0.003370 0.013842 0.000000 0.000000 0.000000
# 4 0.000000 0.000000 0.000000 0.031441 0.000000 0.000000
# 5 0.000000 0.000000 0.000000 0.000000 0.077148 0.000000
# 6 0.000000 0.000000 0.000000 0.000000 0.000000 0.032489
#
#
# Mechanical properties :
#
#
# Convention : Reuss Voigt Hill
#
# Bulk Modulus (GPa) = 58.36503 59.44264 58.90383
# Shear Modulus (GPa) = 25.14980 29.61323 27.38152
#
# Velocity S-wave (km/s) = 3.51790 3.81732 3.67066
# Velocity P-wave (km/s) = 6.72464 6.97707 6.85202
#
# Compressibility (1/GPa) = 0.01713355
#
# Stress axis : x y z
#
# Youngs Moduli (GPa) = 85.63201 110.42419 72.24257
#
# Poissons Ratio (x) = 0.17359 0.27300
# Poissons Ratio (y) = 0.13461 0.24349
# Poissons Ratio (z) = 0.32359 0.37217
#
# Static dielectric constant tensor:
#      x y z
#    x 1.753700 0.000000 0.000000 
#    y 0.000000 1.752640 0.000000 
#    z 0.000000 0.000000 1.734680 
# 
# From -- ./inp_files/41965.got.cif
#   From: 2010.05.17/outbox.cif.g08.bks.cpg/sg67_21_cif.got.tgz:41965.got - 2010.06.03 18:28:57.
