data_PCOD9502563
_publ_section_title
;
Structure prediction by ZEFSAII (Michael W. Deem and Ramdas Pophale) SiO2 
 PCOD9502563
Probable space group: C M M A
;
_chemical_formula_sum "Si O2"
_cell_formula_units_Z 88
_cell_length_a 25.758464
_cell_length_b 9.153250
_cell_length_c 25.519825
_cell_angle_alpha 90.000000
_cell_angle_beta 90.000000
_cell_angle_gamma 90.000000
_cell_volume 6016.902558
_symmetry_space_group_name_H-M "C M M A"
_symmetry_group_IT_number 67
_symmetry_cell_setting 'orthorhombic'
loop_
_space_group_symop_operation_xyz
x,y,z
-x,1/2-y,z
x,-y,-z
-x,1/2+y,-z
-x,-y,-z
x,1/2+y,-z
-x,y,z
x,1/2-y,z
1/2+x,1/2+y,z
1/2-x,-y,z
1/2+x,1/2-y,-z
1/2-x,y,-z
1/2-x,1/2-y,-z
1/2+x,y,-z
1/2-x,1/2+y,z
1/2+x,-y,z
loop_
_atom_site_type_symbol
_atom_site_label
_atom_site_fract_x
_atom_site_fract_y
_atom_site_fract_z
Si Si1 0.500000 0.074656 0.443008
Si Si2 0.803327 0.424283 0.444215
Si Si3 0.436712 0.581707 0.052840
Si Si4 0.563228 0.081620 0.158269
Si Si5 0.938336 0.576772 0.735775
Si Si6 0.092455 0.923906 0.619905
O O1 0.500000 0.250000 0.447344
O O2 0.500000 0.000000 0.500000
O O3 0.449821 0.016931 0.411592
O O4 0.815765 0.500000 0.500000
O O5 0.795945 0.250000 0.451325
O O6 0.750000 0.500000 0.425976
O O7 0.851135 0.446312 0.405066
O O8 0.500000 0.578721 0.052937
O O9 0.420772 0.750000 0.052077
O O10 0.419634 0.503425 0.106246
O O11 0.419966 0.500000 0.000000
O O12 0.500000 0.076286 0.158333
O O13 0.578735 0.250000 0.155677
O O14 0.579724 0.008386 0.212755
O O15 0.932789 0.750000 0.745150
O O16 0.910601 0.539008 0.681376
O O17 0.000000 0.548054 0.728101
O O18 0.079424 0.750000 0.615174
#
# Coordination Sequence:
#
# PCOD9502563 Si02
#       6
#     8  16  16  16  16  16
#     4  12  24  34  48  68  92 118 143 176 217 262
#     4  10  20  34  53  71  90 113 142 178 219 263
#     4   9  15  22  32  46  65  92 129 171 215 252
#     4   9  16  24  34  50  73  99 132 171 208 248
#     4   9  16  28  44  58  79 109 139 171 208 252
#     4  10  20  35  51  68  90 117 146 179 218 264
#
# _framework density 14.625465999999999
#
# number of rings (size 3 to 8) (size 9 to 14) (size 15 to 20)
#    0.000    2.364    0.909    3.545    0.000    8.000 
#    0.000    0.000    0.000    0.000    0.000    0.000 
#    0.000    0.000    0.000    0.000    0.000    0.909 
#
# Total GULP energy -245276.999551 kJ/mol
# GULP energy per Si atom -5574.477263 kJ/mol
# Density = 1.459218 g / cm^3
# Si number density = 14.625466 Si / 1000 Ang^3
#
#
#
# Elastic Constant Matrix: (Units=GPa)
#
#
# Indices 1 2 3 4 5 6 
#
# 1 47.7985 42.6756 49.7540 0.0000 0.0000 0.0000
# 2 42.6756 116.3532 94.6809 0.0000 0.0000 0.0000
# 3 49.7540 94.6809 157.5377 0.0000 0.0000 0.0000
# 4 0.0000 0.0000 0.0000 27.0470 0.0000 0.0000
# 5 0.0000 0.0000 0.0000 0.0000 7.1347 0.0000
# 6 0.0000 0.0000 0.0000 0.0000 0.0000 12.3751
#
#
#
# Elastic Compliance Matrix: (Units=1/GPa)
#
#
# Indices 1 2 3 4 5 6 
#
# 1 0.034082 -0.007323 -0.006363 0.000000 0.000000 0.000000
# 2 -0.007323 0.018394 -0.008742 0.000000 0.000000 0.000000
# 3 -0.006363 -0.008742 0.013611 0.000000 0.000000 0.000000
# 4 0.000000 0.000000 0.000000 0.036973 0.000000 0.000000
# 5 0.000000 0.000000 0.000000 0.000000 0.140160 0.000000
# 6 0.000000 0.000000 0.000000 0.000000 0.000000 0.080808
#
#
# Mechanical properties :
#
#
# Convention : Reuss Voigt Hill
#
# Bulk Modulus (GPa) = 47.09896 77.32337 62.21117
# Shear Modulus (GPa) = 13.29920 18.28328 15.79124
#
# Velocity S-wave (km/s) = 3.01876 3.53951 3.28946
# Velocity P-wave (km/s) = 6.66512 8.34793 7.55354
#
# Compressibility (1/GPa) = 0.02123189
#
# Stress axis : x y z
#
# Youngs Moduli (GPa) = 29.34067 54.36443 73.46764
#
# Poissons Ratio (x) = 0.39810 0.46747
# Poissons Ratio (y) = 0.21486 0.64228
# Poissons Ratio (z) = 0.18669 0.47527
#
# Static dielectric constant tensor:
#      x y z
#    x 1.454250 0.000000 0.000000 
#    y 0.000000 1.492550 0.000000 
#    z 0.000000 0.000000 1.481950 
# 
# From -- ./inp_files/41112.got.cif
#   From: 2010.05.17/outbox.cif.g08.bks.cpg/sg67_21_cif.got.tgz:41112.got - 2010.06.03 18:28:57.
