data_PCOD9502287
_publ_section_title
;
Structure prediction by ZEFSAII (Michael W. Deem and Ramdas Pophale) SiO2 
 PCOD9502287
Probable space group: C M M A
;
_chemical_formula_sum "Si O2"
_cell_formula_units_Z 96
_cell_length_a 8.728284
_cell_length_b 24.123618
_cell_length_c 26.591932
_cell_angle_alpha 90.000000
_cell_angle_beta 90.000000
_cell_angle_gamma 90.000000
_cell_volume 5599.138407
_symmetry_space_group_name_H-M "C M M A"
_symmetry_group_IT_number 67
_symmetry_cell_setting 'orthorhombic'
loop_
_space_group_symop_operation_xyz
x,y,z
-x,1/2-y,z
x,-y,-z
-x,1/2+y,-z
-x,-y,-z
x,1/2+y,-z
-x,y,z
x,1/2-y,z
1/2+x,1/2+y,z
1/2-x,-y,z
1/2+x,1/2-y,-z
1/2-x,y,-z
1/2-x,1/2-y,-z
1/2+x,y,-z
1/2-x,1/2+y,z
1/2+x,-y,z
loop_
_atom_site_type_symbol
_atom_site_label
_atom_site_fract_x
_atom_site_fract_y
_atom_site_fract_z
Si Si1 0.183768 0.561627 0.150318
Si Si2 0.314122 0.750000 0.210042
Si Si3 0.317193 0.562323 0.550522
Si Si4 0.315602 0.629444 0.244472
Si Si5 0.316236 0.937582 0.662483
Si Si6 0.684295 0.250000 0.907344
Si Si7 0.316891 0.864962 0.946829
O O1 0.250000 0.500000 0.149618
O O2 0.255139 0.595082 0.196761
O O3 0.221598 0.593685 0.098741
O O4 0.000000 0.560060 0.155778
O O5 0.500000 0.750000 0.209793
O O6 0.265265 0.693218 0.236655
O O7 0.267005 0.750000 0.151423
O O8 0.500000 0.559592 0.545786
O O9 0.250000 0.500000 0.551557
O O10 0.250000 0.589585 0.500000
O O11 0.279193 0.584467 0.606128
O O12 0.500000 0.627497 0.245148
O O13 0.251245 0.601285 0.294558
O O14 0.500000 0.940864 0.666943
O O15 0.250000 0.000000 0.667664
O O16 0.500000 0.250000 0.909525
O O17 0.747696 0.305018 0.933443
O O18 0.500000 0.860498 0.950172
O O19 0.250000 0.884007 0.000000
#
# Coordination Sequence:
#
# PCOD9502287 Si02
#       7
#    16   8  16  16  16   8  16
#     4  11  24  40  58  80 107 140 176 213 259 314
#     4   9  20  36  58  83 104 133 170 213 265 314
#     4   9  16  26  43  67 101 139 179 218 258 305
#     4  11  21  37  58  80 106 137 175 217 263 315
#     4  10  20  33  49  76 110 146 181 218 262 310
#     4  11  20  38  63  85 110 137 171 217 264 314
#     4  11  24  40  59  84 110 139 175 215 262 314
#
# _framework density 17.145493999999999
#
# number of rings (size 3 to 8) (size 9 to 14) (size 15 to 20)
#    0.000    1.667    1.667    4.000    0.000    4.333 
#    0.000    3.333    0.000    0.000    0.000    0.583 
#    0.000    0.000    0.000    0.000    0.000    0.000 
#
# Total GULP energy -267989.456386 kJ/mol
# GULP energy per Si atom -5583.113675 kJ/mol
# Density = 1.710647 g / cm^3
# Si number density = 17.145494 Si / 1000 Ang^3
#
#
#
# Elastic Constant Matrix: (Units=GPa)
#
#
# Indices 1 2 3 4 5 6 
#
# 1 65.5472 41.2612 65.9086 0.0000 0.0000 0.0000
# 2 41.2612 110.7668 73.5708 0.0000 0.0000 0.0000
# 3 65.9086 73.5708 189.7670 0.0000 0.0000 0.0000
# 4 0.0000 0.0000 0.0000 -116.1401 0.0000 0.0000
# 5 0.0000 0.0000 0.0000 0.0000 33.6748 0.0000
# 6 0.0000 0.0000 0.0000 0.0000 0.0000 5.6998
#
#
#
# Elastic Compliance Matrix: (Units=1/GPa)
#
#
# Indices 1 2 3 4 5 6 
#
# 1 0.025217 -0.004817 -0.006891 0.000000 0.000000 0.000000
# 2 -0.004817 0.013079 -0.003398 0.000000 0.000000 0.000000
# 3 -0.006891 -0.003398 0.008980 0.000000 0.000000 0.000000
# 4 0.000000 0.000000 0.000000 -0.008610 0.000000 0.000000
# 5 0.000000 0.000000 0.000000 0.000000 0.029696 0.000000
# 6 0.000000 0.000000 0.000000 0.000000 0.000000 0.175445
#
#
# Mechanical properties :
#
#
# Convention : Reuss Voigt Hill
#
# Bulk Modulus (GPa) = 58.59673 80.84023 69.71848
# Shear Modulus (GPa) = 17.87593 -2.99707 7.43943
#
# Velocity S-wave (km/s) = 3.23244 -1.32356 2.08529
# Velocity P-wave (km/s) = 6.94132 6.70195 6.82268
#
# Compressibility (1/GPa) = 0.01706580
#
# Stress axis : x y z
#
# Youngs Moduli (GPa) = 39.65572 76.45887 111.35660
#
# Poissons Ratio (x) = 0.36827 0.76734
# Poissons Ratio (y) = 0.19101 0.37836
# Poissons Ratio (z) = 0.27326 0.25978
#
# Static dielectric constant tensor:
#      x y z
#    x 1.575960 0.000000 0.000000 
#    y 0.000000 1.546890 0.000000 
#    z 0.000000 0.000000 1.603870 
# 
# From -- ./inp_files/43694.got.cif
#   From: 2010.05.17/outbox.cif.g08.bks.cpg/sg67_22_cif.got.tgz:43694.got - 2010.06.03 18:28:57.
