data_PCOD9502787
_publ_section_title
;
Structure prediction by ZEFSAII (Michael W. Deem and Ramdas Pophale) SiO2 
 PCOD9502787
Probable space group: C M M A
;
_chemical_formula_sum "Si O2"
_cell_formula_units_Z 120
_cell_length_a 29.685765
_cell_length_b 8.778385
_cell_length_c 25.803148
_cell_angle_alpha 90.000000
_cell_angle_beta 90.000000
_cell_angle_gamma 90.000000
_cell_volume 6724.121661
_symmetry_space_group_name_H-M "C M M A"
_symmetry_group_IT_number 67
_symmetry_cell_setting 'orthorhombic'
loop_
_space_group_symop_operation_xyz
x,y,z
-x,1/2-y,z
x,-y,-z
-x,1/2+y,-z
-x,-y,-z
x,1/2+y,-z
-x,y,z
x,1/2-y,z
1/2+x,1/2+y,z
1/2-x,-y,z
1/2+x,1/2-y,-z
1/2-x,y,-z
1/2-x,1/2-y,-z
1/2+x,y,-z
1/2-x,1/2+y,z
1/2+x,-y,z
loop_
_atom_site_type_symbol
_atom_site_label
_atom_site_fract_x
_atom_site_fract_y
_atom_site_fract_z
Si Si1 0.700250 0.066113 0.250866
Si Si2 0.600244 0.567987 0.442580
Si Si3 0.200429 0.568148 0.944466
Si Si4 0.550271 0.927926 0.172645
Si Si5 0.861406 0.430337 0.655020
Si Si6 0.143910 0.931285 0.148436
Si Si7 0.050866 0.072538 0.297743
Si Si8 0.000000 0.066635 0.442081
O O1 0.702453 0.250000 0.251414
O O2 0.676769 0.016275 0.304627
O O3 0.668712 0.022689 0.202169
O O4 0.750000 0.000000 0.244923
O O5 0.606124 0.500000 0.500000
O O6 0.601600 0.750000 0.445911
O O7 0.635921 0.509153 0.400818
O O8 0.549707 0.521954 0.422345
O O9 0.203285 0.750000 0.947693
O O10 0.250000 0.500000 0.933535
O O11 0.167619 0.515995 0.898953
O O12 0.186218 0.500000 0.000000
O O13 0.500000 0.977210 0.156425
O O14 0.555992 0.750000 0.158304
O O15 0.551325 0.933618 0.235310
O O16 0.591644 0.024658 0.151930
O O17 0.857108 0.250000 0.648270
O O18 0.908963 0.469877 0.682066
O O19 0.149275 0.750000 0.142445
O O20 0.058457 0.250000 0.313230
O O21 0.000000 0.031503 0.314652
O O22 0.000000 0.250000 0.442804
O O23 0.000000 0.000000 0.500000
#
# Coordination Sequence:
#
# PCOD9502787 Si02
#       8
#    16  16  16  16  16  16  16   8
#     4  10  23  39  56  80 111 143 180 224 274 329
#     4  10  20  35  53  75 102 139 178 220 265 319
#     4  11  22  38  59  86 117 152 192 238 288 338
#     4   9  18  33  53  79 112 151 193 234 275 324
#     4  11  22  36  52  78 109 141 178 223 273 326
#     4  11  21  36  57  85 118 153 191 231 278 334
#     4   9  18  32  50  74 106 144 185 224 264 317
#     4   8  16  30  48  70 100 132 172 212 253 304
#
# _framework density 17.846197
#
# number of rings (size 3 to 8) (size 9 to 14) (size 15 to 20)
#    0.000    2.000    1.333    4.000    0.933    4.267 
#    0.000    1.333    0.000    0.800    0.000    2.800 
#    0.000    0.000    0.000    0.000    0.000    0.000 
#
# Total GULP energy -334888.847270 kJ/mol
# GULP energy per Si atom -5581.480788 kJ/mol
# Density = 1.780558 g / cm^3
# Si number density = 17.846197 Si / 1000 Ang^3
#
#
#
# Elastic Constant Matrix: (Units=GPa)
#
#
# Indices 1 2 3 4 5 6 
#
# 1 97.1547 36.0248 55.9579 0.0000 0.0000 0.0000
# 2 36.0248 65.5527 43.5466 0.0000 0.0000 0.0000
# 3 55.9579 43.5466 96.9809 0.0000 0.0000 0.0000
# 4 0.0000 0.0000 0.0000 28.1445 0.0000 0.0000
# 5 0.0000 0.0000 0.0000 0.0000 27.9119 0.0000
# 6 0.0000 0.0000 0.0000 0.0000 0.0000 29.2244
#
#
#
# Elastic Compliance Matrix: (Units=1/GPa)
#
#
# Indices 1 2 3 4 5 6 
#
# 1 0.016055 -0.003804 -0.007556 0.000000 0.000000 0.000000
# 2 -0.003804 0.022641 -0.007971 0.000000 0.000000 0.000000
# 3 -0.007556 -0.007971 0.018250 0.000000 0.000000 0.000000
# 4 0.000000 0.000000 0.000000 0.035531 0.000000 0.000000
# 5 0.000000 0.000000 0.000000 0.000000 0.035827 0.000000
# 6 0.000000 0.000000 0.000000 0.000000 0.000000 0.034218
#
#
# Mechanical properties :
#
#
# Convention : Reuss Voigt Hill
#
# Bulk Modulus (GPa) = 54.69223 58.97189 56.83206
# Shear Modulus (GPa) = 24.12209 25.33345 24.72777
#
# Velocity S-wave (km/s) = 3.68049 3.77177 3.72641
# Velocity P-wave (km/s) = 6.98386 7.21697 7.10137
#
# Compressibility (1/GPa) = 0.01828413
#
# Stress axis : x y z
#
# Youngs Moduli (GPa) = 62.28495 44.16825 54.79362
#
# Poissons Ratio (x) = 0.16801 0.41401
# Poissons Ratio (y) = 0.23693 0.43678
# Poissons Ratio (z) = 0.47061 0.35208
#
# Static dielectric constant tensor:
#      x y z
#    x 1.604180 0.000000 0.000000 
#    y 0.000000 1.606530 0.000000 
#    z 0.000000 0.000000 1.620890 
# 
# From -- ./inp_files/45014.got.cif
#   From: 2010.05.17/outbox.cif.g08.bks.cpg/sg67_23_cif.got.tgz:45014.got - 2010.06.03 18:28:57.
