data_PCOD9502400
_publ_section_title
;
Structure prediction by ZEFSAII (Michael W. Deem and Ramdas Pophale) SiO2 
 PCOD9502400
Probable space group: C M M A
;
_chemical_formula_sum "Si O2"
_cell_formula_units_Z 120
_cell_length_a 18.887142
_cell_length_b 15.215041
_cell_length_c 20.229109
_cell_angle_alpha 90.000000
_cell_angle_beta 90.000000
_cell_angle_gamma 90.000000
_cell_volume 5813.211540
_symmetry_space_group_name_H-M "C M M A"
_symmetry_group_IT_number 67
_symmetry_cell_setting 'orthorhombic'
loop_
_space_group_symop_operation_xyz
x,y,z
-x,1/2-y,z
x,-y,-z
-x,1/2+y,-z
-x,-y,-z
x,1/2+y,-z
-x,y,z
x,1/2-y,z
1/2+x,1/2+y,z
1/2-x,-y,z
1/2+x,1/2-y,-z
1/2-x,y,-z
1/2-x,1/2-y,-z
1/2+x,y,-z
1/2-x,1/2+y,z
1/2+x,-y,z
loop_
_atom_site_type_symbol
_atom_site_label
_atom_site_fract_x
_atom_site_fract_y
_atom_site_fract_z
Si Si1 0.845499 0.350914 0.260261
Si Si2 0.620322 0.853330 0.401281
Si Si3 0.810427 0.352831 0.736523
Si Si4 0.419479 0.146357 0.015431
Si Si5 0.420286 0.593793 0.843765
Si Si6 0.079487 0.609933 0.873447
Si Si7 0.291823 0.849812 0.584259
Si Si8 0.131546 0.500000 0.500000
O O1 0.831529 0.250000 0.280498
O O2 0.889320 0.382634 0.324278
O O3 0.767963 0.392718 0.252895
O O4 0.882189 0.350118 0.189605
O O5 0.597192 0.750000 0.411206
O O6 0.706368 0.854246 0.410870
O O7 0.593035 0.929582 0.450866
O O8 0.808876 0.250000 0.755824
O O9 0.871048 0.392841 0.781142
O O10 0.822094 0.357331 0.658245
O O11 0.500000 0.107920 0.019024
O O12 0.424457 0.250000 0.008758
O O13 0.387562 0.128727 0.087342
O O14 0.386424 0.115252 0.946403
O O15 0.500000 0.631728 0.835098
O O16 0.426429 0.491113 0.855413
O O17 0.000000 0.647395 0.879689
O O18 0.309148 0.750000 0.559308
O O19 0.322326 0.931648 0.543864
#
# Coordination Sequence:
#
# PCOD9502400 Si02
#       8
#    16  16  16  16  16  16  16   8
#     4   9  19  35  52  73 105 141 174 213 260 308
#     4   9  18  30  44  69 103 134 171 217 259 308
#     4   9  19  35  52  73 105 141 174 213 260 308
#     4   9  17  31  52  75 100 133 172 214 260 303
#     4  10  20  33  52  79 107 134 170 216 260 306
#     4  10  20  33  52  79 107 134 170 216 260 306
#     4   9  18  30  44  69 103 134 171 217 259 308
#     4  12  19  26  48  74  99 138 175 206 263 320
#
# _framework density 20.642634000000001
#
# number of rings (size 3 to 8) (size 9 to 14) (size 15 to 20)
#    0.000    2.533    0.000    4.400    1.867    4.800 
#    0.000    0.667    0.000    4.000    0.000    1.867 
#    0.000    4.267    0.000    0.000    0.000    0.000 
#
# Total GULP energy -334183.106438 kJ/mol
# GULP energy per Si atom -5569.718441 kJ/mol
# Density = 2.059565 g / cm^3
# Si number density = 20.642634 Si / 1000 Ang^3
#
#
#
# Elastic Constant Matrix: (Units=GPa)
#
#
# Indices 1 2 3 4 5 6 
#
# 1 25.3098 12.5596 37.9277 0.0000 0.0000 0.0000
# 2 12.5596 90.3005 32.9597 0.0000 0.0000 0.0000
# 3 37.9277 32.9597 141.9095 0.0000 0.0000 0.0000
# 4 0.0000 0.0000 0.0000 146.8156 0.0000 0.0000
# 5 0.0000 0.0000 0.0000 0.0000 50.3701 0.0000
# 6 0.0000 0.0000 0.0000 0.0000 0.0000 8.2442
#
#
#
# Elastic Compliance Matrix: (Units=1/GPa)
#
#
# Indices 1 2 3 4 5 6 
#
# 1 0.066654 -0.003025 -0.017112 0.000000 0.000000 0.000000
# 2 -0.003025 0.012237 -0.002034 0.000000 0.000000 0.000000
# 3 -0.017112 -0.002034 0.012093 0.000000 0.000000 0.000000
# 4 0.000000 0.000000 0.000000 0.006811 0.000000 0.000000
# 5 0.000000 0.000000 0.000000 0.000000 0.019853 0.000000
# 6 0.000000 0.000000 0.000000 0.000000 0.000000 0.121297
#
#
# Mechanical properties :
#
#
# Convention : Reuss Voigt Hill
#
# Bulk Modulus (GPa) = 21.43944 47.15707 34.29825
# Shear Modulus (GPa) = 16.73170 52.69084 34.71127
#
# Velocity S-wave (km/s) = 2.85009 5.05773 4.10510
# Velocity P-wave (km/s) = 4.60860 7.54994 6.25463
#
# Compressibility (1/GPa) = 0.04664301
#
# Stress axis : x y z
#
# Youngs Moduli (GPa) = 15.00276 81.71828 82.69558
#
# Poissons Ratio (x) = 0.24719 1.41508
# Poissons Ratio (y) = 0.04538 0.16818
# Poissons Ratio (z) = 0.25673 0.16619
#
# Static dielectric constant tensor:
#      x y z
#    x 1.769430 0.000000 0.000000 
#    y 0.000000 1.777470 0.000000 
#    z 0.000000 0.000000 1.808140 
# 
# From -- ./inp_files/39366.got.cif
#   From: 2010.05.17/outbox.cif.g08.bks.cpg/sg67_20_cif.got.tgz:39366.got - 2010.06.03 18:28:57.
