data_PCOD9502997
_publ_section_title
;
Structure prediction by ZEFSAII (Michael W. Deem and Ramdas Pophale) SiO2 
 PCOD9502997
Probable space group: C M M A
;
_chemical_formula_sum "Si O2"
_cell_formula_units_Z 80
_cell_length_a 27.084646
_cell_length_b 16.259011
_cell_length_c 9.149589
_cell_angle_alpha 90.000000
_cell_angle_beta 90.000000
_cell_angle_gamma 90.000000
_cell_volume 4029.200457
_symmetry_space_group_name_H-M "C M M A"
_symmetry_group_IT_number 67
_symmetry_cell_setting 'orthorhombic'
loop_
_space_group_symop_operation_xyz
x,y,z
-x,1/2-y,z
x,-y,-z
-x,1/2+y,-z
-x,-y,-z
x,1/2+y,-z
-x,y,z
x,1/2-y,z
1/2+x,1/2+y,z
1/2-x,-y,z
1/2+x,1/2-y,-z
1/2-x,y,-z
1/2-x,1/2-y,-z
1/2+x,y,-z
1/2-x,1/2+y,z
1/2+x,-y,z
loop_
_atom_site_type_symbol
_atom_site_label
_atom_site_fract_x
_atom_site_fract_y
_atom_site_fract_z
Si Si1 0.052939 0.654993 0.301876
Si Si2 0.852933 0.651130 0.141298
Si Si3 0.251013 0.901759 0.170639
Si Si4 0.443342 0.581639 0.399427
Si Si5 0.642481 0.848722 0.199612
O O1 0.051367 0.750000 0.255941
O O2 0.099771 0.616401 0.224710
O O3 0.058355 0.651271 0.475465
O O4 0.000000 0.616400 0.264310
O O5 0.853323 0.750000 0.141014
O O6 0.802685 0.626230 0.222243
O O7 0.857156 0.625762 0.971760
O O8 0.300742 0.868670 0.245056
O O9 0.250000 0.000000 0.171594
O O10 0.250000 0.872694 0.000000
O O11 0.436161 0.500000 0.500000
O O12 0.500000 0.579707 0.340439
O O13 0.400006 0.602302 0.286098
O O14 0.634148 0.750000 0.210309
#
# Coordination Sequence:
#
# PCOD9502997 Si02
#       5
#    16  16  16  16  16
#     4   9  18  34  55  77 105 144 182 219 273 335
#     4   9  18  33  56  84 112 141 181 231 276 329
#     4   9  18  32  53  81 112 146 180 220 277 335
#     4  10  22  38  55  78 110 148 186 227 279 333
#     4  10  20  35  58  85 110 142 186 232 276 330
#
# _framework density 19.855056000000001
#
# number of rings (size 3 to 8) (size 9 to 14) (size 15 to 20)
#    0.000    2.600    0.000    1.200    2.800    4.400 
#    0.000    3.000    0.000    7.200    0.000    0.000 
#    0.000    0.000    0.000    0.000    0.000    0.000 
#
# Total GULP energy -222716.469791 kJ/mol
# GULP energy per Si atom -5567.911745 kJ/mol
# Density = 1.980986 g / cm^3
# Si number density = 19.855056 Si / 1000 Ang^3
#
#
#
# Elastic Constant Matrix: (Units=GPa)
#
#
# Indices 1 2 3 4 5 6 
#
# 1 230.1141 35.7401 74.2692 0.0000 0.0000 0.0000
# 2 35.7401 46.2264 13.0129 0.0000 0.0000 0.0000
# 3 74.2692 13.0129 40.0574 0.0000 0.0000 0.0000
# 4 0.0000 0.0000 0.0000 13.6545 0.0000 0.0000
# 5 0.0000 0.0000 0.0000 0.0000 108.8419 0.0000
# 6 0.0000 0.0000 0.0000 0.0000 0.0000 24.4762
#
#
#
# Elastic Compliance Matrix: (Units=1/GPa)
#
#
# Indices 1 2 3 4 5 6 
#
# 1 0.011210 -0.003100 -0.019778 0.000000 0.000000 0.000000
# 2 -0.003100 0.024667 -0.002266 0.000000 0.000000 0.000000
# 3 -0.019778 -0.002266 0.062370 0.000000 0.000000 0.000000
# 4 0.000000 0.000000 0.000000 0.073236 0.000000 0.000000
# 5 0.000000 0.000000 0.000000 0.000000 0.009188 0.000000
# 6 0.000000 0.000000 0.000000 0.000000 0.000000 0.040856
#
#
# Mechanical properties :
#
#
# Convention : Reuss Voigt Hill
#
# Bulk Modulus (GPa) = 20.85068 62.49358 41.67213
# Shear Modulus (GPa) = 17.37309 42.28622 29.82966
#
# Velocity S-wave (km/s) = 2.96124 4.61992 3.88025
# Velocity P-wave (km/s) = 4.71340 7.74606 6.41162
#
# Compressibility (1/GPa) = 0.04796007
#
# Stress axis : x y z
#
# Youngs Moduli (GPa) = 89.20263 40.53966 16.03338
#
# Poissons Ratio (x) = 0.12567 0.31711
# Poissons Ratio (y) = 0.27651 0.03633
# Poissons Ratio (z) = 1.76424 0.09186
#
# Static dielectric constant tensor:
#      x y z
#    x 1.765160 0.000000 0.000000 
#    y 0.000000 1.762950 0.000000 
#    z 0.000000 0.000000 1.696040 
# 
# From -- ./inp_files/13531.got.cif
#   From: 2010.05.17/outbox.cif.g08.bks.cpg/sg67_7_cif.got.tgz:13531.got - 2010.06.03 18:28:57.
