data_PCOD9502734
_publ_section_title
;
Structure prediction by ZEFSAII (Michael W. Deem and Ramdas Pophale) SiO2 
 PCOD9502734
Probable space group: C M M A
;
_chemical_formula_sum "Si O2"
_cell_formula_units_Z 96
_cell_length_a 8.704122
_cell_length_b 29.118407
_cell_length_c 20.903701
_cell_angle_alpha 90.000000
_cell_angle_beta 90.000000
_cell_angle_gamma 90.000000
_cell_volume 5298.046509
_symmetry_space_group_name_H-M "C M M A"
_symmetry_group_IT_number 67
_symmetry_cell_setting 'orthorhombic'
loop_
_space_group_symop_operation_xyz
x,y,z
-x,1/2-y,z
x,-y,-z
-x,1/2+y,-z
-x,-y,-z
x,1/2+y,-z
-x,y,z
x,1/2-y,z
1/2+x,1/2+y,z
1/2-x,-y,z
1/2+x,1/2-y,-z
1/2-x,y,-z
1/2-x,1/2-y,-z
1/2+x,y,-z
1/2-x,1/2+y,z
1/2+x,-y,z
loop_
_atom_site_type_symbol
_atom_site_label
_atom_site_fract_x
_atom_site_fract_y
_atom_site_fract_z
Si Si1 0.183954 0.448889 0.311071
Si Si2 0.682260 0.104285 0.433156
Si Si3 0.681891 0.697338 0.754287
Si Si4 0.315820 0.390274 0.815903
Si Si5 0.316108 0.550290 0.929740
Si Si6 0.683508 0.802187 0.388107
O O1 0.250000 0.500000 0.307030
O O2 0.250335 0.422953 0.372773
O O3 0.223132 0.420520 0.247016
O O4 0.000000 0.450503 0.316202
O O5 0.500000 0.100676 0.433402
O O6 0.750000 0.086677 0.500000
O O7 0.732233 0.157392 0.425220
O O8 0.500000 0.689145 0.744447
O O9 0.701628 0.750000 0.775845
O O10 0.750946 0.660218 0.802091
O O11 0.767306 0.692887 0.686123
O O12 0.500000 0.389379 0.822323
O O13 0.240839 0.413757 0.877333
O O14 0.500000 0.548141 0.932121
O O15 0.250000 0.500000 0.912312
O O16 0.250000 0.561209 0.000000
O O17 0.500000 0.807903 0.393637
O O18 0.723907 0.750000 0.407893
#
# Coordination Sequence:
#
# PCOD9502734 Si02
#       6
#    16  16  16  16  16  16
#     4  11  24  41  61  86 115 148 192 241 290 345
#     4  12  25  41  61  82 112 149 192 240 294 354
#     4  10  20  34  56  87 120 154 194 239 288 342
#     4  11  22  37  61  90 122 157 196 241 289 342
#     4  11  22  38  60  88 125 162 202 243 290 347
#     4  10  20  36  58  84 115 149 188 236 290 347
#
# _framework density 18.119885
#
# number of rings (size 3 to 8) (size 9 to 14) (size 15 to 20)
#    0.000    1.167    1.667    6.000    0.000    6.000 
#    0.000    1.667    0.000    0.500    0.000    0.000 
#    0.000    0.000    0.000    0.000    0.000    0.000 
#
# Total GULP energy -268453.323919 kJ/mol
# GULP energy per Si atom -5592.777582 kJ/mol
# Density = 1.807864 g / cm^3
# Si number density = 18.119885 Si / 1000 Ang^3
#
#
#
# Elastic Constant Matrix: (Units=GPa)
#
#
# Indices 1 2 3 4 5 6 
#
# 1 99.0396 42.9925 38.1529 0.0000 0.0000 0.0000
# 2 42.9925 90.8010 45.4376 0.0000 0.0000 0.0000
# 3 38.1529 45.4376 77.6578 0.0000 0.0000 0.0000
# 4 0.0000 0.0000 0.0000 1.5172 0.0000 0.0000
# 5 0.0000 0.0000 0.0000 0.0000 30.3035 0.0000
# 6 0.0000 0.0000 0.0000 0.0000 0.0000 32.4484
#
#
#
# Elastic Compliance Matrix: (Units=1/GPa)
#
#
# Indices 1 2 3 4 5 6 
#
# 1 0.013579 -0.004371 -0.004114 0.000000 0.000000 0.000000
# 2 -0.004371 0.016979 -0.007787 0.000000 0.000000 0.000000
# 3 -0.004114 -0.007787 0.019455 0.000000 0.000000 0.000000
# 4 0.000000 0.000000 0.000000 0.659095 0.000000 0.000000
# 5 0.000000 0.000000 0.000000 0.000000 0.033000 0.000000
# 6 0.000000 0.000000 0.000000 0.000000 0.000000 0.030818
#
#
# Mechanical properties :
#
#
# Convention : Reuss Voigt Hill
#
# Bulk Modulus (GPa) = 57.24461 57.85159 57.54810
# Shear Modulus (GPa) = 6.16300 22.24819 14.20560
#
# Velocity S-wave (km/s) = 1.84624 3.50785 2.80300
# Velocity P-wave (km/s) = 6.01711 6.95723 6.50418
#
# Compressibility (1/GPa) = 0.01746889
#
# Stress axis : x y z
#
# Youngs Moduli (GPa) = 73.64246 58.89484 51.40180
#
# Poissons Ratio (x) = 0.25742 0.21147
# Poissons Ratio (y) = 0.32187 0.40028
# Poissons Ratio (z) = 0.30297 0.45863
#
# Static dielectric constant tensor:
#      x y z
#    x 1.603200 0.000000 0.000000 
#    y 0.000000 1.617630 0.000000 
#    z 0.000000 0.000000 1.600300 
# 
# From -- ./inp_files/37160.got.cif
#   From: 2010.05.17/outbox.cif.g08.bks.cpg/sg67_19_cif.got.tgz:37160.got - 2010.06.03 18:28:57.
