data_PCOD9502871
_publ_section_title
;
Structure prediction by ZEFSAII (Michael W. Deem and Ramdas Pophale) SiO2 
 PCOD9502871
Probable space group: C M M A
;
_chemical_formula_sum "Si O2"
_cell_formula_units_Z 104
_cell_length_a 27.211257
_cell_length_b 8.143473
_cell_length_c 23.277688
_cell_angle_alpha 90.000000
_cell_angle_beta 90.000000
_cell_angle_gamma 90.000000
_cell_volume 5158.199176
_symmetry_space_group_name_H-M "C M M A"
_symmetry_group_IT_number 67
_symmetry_cell_setting 'orthorhombic'
loop_
_space_group_symop_operation_xyz
x,y,z
-x,1/2-y,z
x,-y,-z
-x,1/2+y,-z
-x,-y,-z
x,1/2+y,-z
-x,y,z
x,1/2-y,z
1/2+x,1/2+y,z
1/2-x,-y,z
1/2+x,1/2-y,-z
1/2-x,y,-z
1/2-x,1/2-y,-z
1/2+x,y,-z
1/2-x,1/2+y,z
1/2+x,-y,z
loop_
_atom_site_type_symbol
_atom_site_label
_atom_site_fract_x
_atom_site_fract_y
_atom_site_fract_z
Si Si1 0.194821 0.555311 0.933697
Si Si2 0.000000 0.448258 0.934539
Si Si3 0.053641 0.950432 0.382525
Si Si4 0.197782 0.053137 0.681367
Si Si5 0.097261 0.549757 0.262326
Si Si6 0.596790 0.551464 0.867639
Si Si7 0.155349 0.552395 0.436816
O O1 0.194417 0.750000 0.932872
O O2 0.250000 0.500000 0.916043
O O3 0.149481 0.495187 0.894599
O O4 0.187373 0.500000 0.000000
O O5 0.949641 0.506972 0.904874
O O6 0.000000 0.250000 0.930611
O O7 0.000000 0.500000 0.000000
O O8 0.054153 0.750000 0.383386
O O9 0.063247 0.999645 0.316070
O O10 0.099905 0.004188 0.420740
O O11 0.000000 0.006361 0.401893
O O12 0.195972 0.250000 0.680065
O O13 0.151944 0.998104 0.719107
O O14 0.188948 0.993385 0.615996
O O15 0.250000 0.000000 0.703953
O O16 0.095307 0.750000 0.261546
O O17 0.088371 0.493176 0.197804
O O18 0.595710 0.750000 0.866763
O O19 0.170302 0.500000 0.500000
O O20 0.155221 0.750000 0.435388
#
# Coordination Sequence:
#
# PCOD9502871 Si02
#       7
#    16   8  16  16  16  16  16
#     4  11  22  38  59  82 108 141 178 221 271 321
#     4  10  22  36  54  80 112 148 183 220 264 312
#     4   8  14  26  47  72  97 128 164 206 254 301
#     4   9  18  33  50  70  97 131 166 207 256 304
#     4   8  16  30  49  73 102 130 165 213 255 298
#     4  10  20  35  55  83 113 143 182 224 266 319
#     4   9  18  31  46  69  99 127 163 208 253 301
#
# _framework density 20.162075000000002
#
# number of rings (size 3 to 8) (size 9 to 14) (size 15 to 20)
#    0.000    2.769    0.000    4.154    1.077    3.692 
#    0.000    3.846    0.000    0.923    0.000    0.000 
#    0.000    0.000    0.000    0.000    0.000    0.000 
#
# Total GULP energy -289981.479494 kJ/mol
# GULP energy per Si atom -5576.566913 kJ/mol
# Density = 2.011619 g / cm^3
# Si number density = 20.162075 Si / 1000 Ang^3
#
#
#
# Elastic Constant Matrix: (Units=GPa)
#
#
# Indices 1 2 3 4 5 6 
#
# 1 64.2665 2.7766 -4.8114 0.0000 0.0000 0.0000
# 2 2.7766 20.9492 3.9685 0.0000 0.0000 0.0000
# 3 -4.8114 3.9685 77.8862 0.0000 0.0000 0.0000
# 4 0.0000 0.0000 0.0000 15.1264 0.0000 0.0000
# 5 0.0000 0.0000 0.0000 0.0000 1.7921 0.0000
# 6 0.0000 0.0000 0.0000 0.0000 0.0000 13.4948
#
#
#
# Elastic Compliance Matrix: (Units=1/GPa)
#
#
# Indices 1 2 3 4 5 6 
#
# 1 0.015741 -0.002293 0.001089 0.000000 0.000000 0.000000
# 2 -0.002293 0.048534 -0.002615 0.000000 0.000000 0.000000
# 3 0.001089 -0.002615 0.013040 0.000000 0.000000 0.000000
# 4 0.000000 0.000000 0.000000 0.066110 0.000000 0.000000
# 5 0.000000 0.000000 0.000000 0.000000 0.558006 0.000000
# 6 0.000000 0.000000 0.000000 0.000000 0.000000 0.074103
#
#
# Mechanical properties :
#
#
# Convention : Reuss Voigt Hill
#
# Bulk Modulus (GPa) = 14.35167 18.55214 16.45191
# Shear Modulus (GPa) = 6.20044 16.82721 11.51382
#
# Velocity S-wave (km/s) = 1.75556 2.89207 2.39229
# Velocity P-wave (km/s) = 3.35304 4.51371 3.97596
#
# Compressibility (1/GPa) = 0.06967831
#
# Stress axis : x y z
#
# Youngs Moduli (GPa) = 63.52922 20.60428 76.68858
#
# Poissons Ratio (x) = 0.04724 -0.08353
# Poissons Ratio (y) = 0.14565 0.20051
# Poissons Ratio (z) = -0.06920 0.05387
#
# Static dielectric constant tensor:
#      x y z
#    x 1.715500 0.000000 0.000000 
#    y 0.000000 1.717600 0.000000 
#    z 0.000000 0.000000 1.712910 
# 
# From -- ./inp_files/40173.got.cif
#   From: 2010.05.17/outbox.cif.g08.bks.cpg/sg67_21_cif.got.tgz:40173.got - 2010.06.03 18:28:57.
