data_PCOD9502282
_publ_section_title
;
Structure prediction by ZEFSAII (Michael W. Deem and Ramdas Pophale) SiO2 
 PCOD9502282
Probable space group: C M M A
;
_chemical_formula_sum "Si O2"
_cell_formula_units_Z 96
_cell_length_a 19.467360
_cell_length_b 9.102879
_cell_length_c 31.828959
_cell_angle_alpha 90.000000
_cell_angle_beta 90.000000
_cell_angle_gamma 90.000000
_cell_volume 5640.378713
_symmetry_space_group_name_H-M "C M M A"
_symmetry_group_IT_number 67
_symmetry_cell_setting 'orthorhombic'
loop_
_space_group_symop_operation_xyz
x,y,z
-x,1/2-y,z
x,-y,-z
-x,1/2+y,-z
-x,-y,-z
x,1/2+y,-z
-x,y,z
x,1/2-y,z
1/2+x,1/2+y,z
1/2-x,-y,z
1/2+x,1/2-y,-z
1/2-x,y,-z
1/2-x,1/2-y,-z
1/2+x,y,-z
1/2-x,1/2+y,z
1/2+x,-y,z
loop_
_atom_site_type_symbol
_atom_site_label
_atom_site_fract_x
_atom_site_fract_y
_atom_site_fract_z
Si Si1 0.416179 0.580276 0.042720
Si Si2 0.083593 0.919090 0.127781
Si Si3 0.082232 0.576023 0.785610
Si Si4 0.919809 0.426656 0.543275
Si Si5 0.324572 0.073720 0.284089
Si Si6 0.323507 0.073878 0.380178
O O1 0.500000 0.578505 0.042830
O O2 0.394954 0.750000 0.043247
O O3 0.393559 0.496215 0.084729
O O4 0.394213 0.500000 0.000000
O O5 0.106162 0.750000 0.130050
O O6 0.000000 0.918678 0.126823
O O7 0.103213 0.008535 0.169356
O O8 0.095970 0.750000 0.784618
O O9 0.122513 0.493726 0.748878
O O10 0.000000 0.554845 0.781109
O O11 0.895422 0.500000 0.500000
O O12 0.915345 0.250000 0.539373
O O13 0.876330 0.472648 0.583799
O O14 0.000000 0.465339 0.548902
O O15 0.319828 0.250000 0.279378
O O16 0.345904 0.040636 0.332364
O O17 0.250000 0.000000 0.277834
O O18 0.315897 0.250000 0.382731
O O19 0.250000 0.000000 0.387023
#
# Coordination Sequence:
#
# PCOD9502282 Si02
#       6
#    16  16  16  16  16  16
#     4   9  15  22  33  51  78 114 154 194 238 289
#     4   9  16  26  40  59  85 118 156 197 241 290
#     4  10  20  33  49  71  99 129 162 202 247 295
#     4   9  18  33  51  72  99 130 163 198 237 281
#     4  10  20  35  54  74  98 129 164 203 248 296
#     4   9  19  34  52  73  97 126 159 198 241 286
#
# _framework density 17.020133999999999
#
# number of rings (size 3 to 8) (size 9 to 14) (size 15 to 20)
#    0.000    2.667    0.000    2.000    0.000    7.333 
#    0.000    3.333    0.000    2.000    0.000    0.000 
#    0.000    0.667    0.000    6.667    0.000   10.333 
#
# Total GULP energy -267605.050141 kJ/mol
# GULP energy per Si atom -5575.105211 kJ/mol
# Density = 1.698140 g / cm^3
# Si number density = 17.020134 Si / 1000 Ang^3
#
#
#
# Elastic Constant Matrix: (Units=GPa)
#
#
# Indices 1 2 3 4 5 6 
#
# 1 32.9405 39.5217 68.7215 0.0000 0.0000 0.0000
# 2 39.5217 102.6174 88.5675 0.0000 0.0000 0.0000
# 3 68.7215 88.5675 191.6068 0.0000 0.0000 0.0000
# 4 0.0000 0.0000 0.0000 34.6709 0.0000 0.0000
# 5 0.0000 0.0000 0.0000 0.0000 -12.5202 0.0000
# 6 0.0000 0.0000 0.0000 0.0000 0.0000 20.5541
#
#
#
# Elastic Compliance Matrix: (Units=1/GPa)
#
#
# Indices 1 2 3 4 5 6 
#
# 1 0.136657 -0.017185 -0.041070 0.000000 0.000000 0.000000
# 2 -0.017185 0.018374 -0.002330 0.000000 0.000000 0.000000
# 3 -0.041070 -0.002330 0.021026 0.000000 0.000000 0.000000
# 4 0.000000 0.000000 0.000000 0.028843 0.000000 0.000000
# 5 0.000000 0.000000 0.000000 0.000000 -0.079871 0.000000
# 6 0.000000 0.000000 0.000000 0.000000 0.000000 0.048652
#
#
# Mechanical properties :
#
#
# Convention : Reuss Voigt Hill
#
# Bulk Modulus (GPa) = 18.21881 80.08736 49.15308
# Shear Modulus (GPa) = 15.96702 17.23122 16.59912
#
# Velocity S-wave (km/s) = 3.06621 3.18528 3.12631
# Velocity P-wave (km/s) = 4.82317 7.79003 6.47872
#
# Compressibility (1/GPa) = 0.05488832
#
# Stress axis : x y z
#
# Youngs Moduli (GPa) = 7.31760 54.42422 47.56035
#
# Poissons Ratio (x) = 0.93527 1.95329
# Poissons Ratio (y) = 0.12575 0.11080
# Poissons Ratio (z) = 0.30053 0.12679
#
# Static dielectric constant tensor:
#      x y z
#    x 1.550120 0.000000 0.000000 
#    y 0.000000 1.569370 0.000000 
#    z 0.000000 0.000000 1.569360 
# 
# From -- ./inp_files/43427.got.cif
#   From: 2010.05.17/outbox.cif.g08.bks.cpg/sg67_22_cif.got.tgz:43427.got - 2010.06.03 18:28:57.
