data_PCOD9502991
_publ_section_title
;
Structure prediction by ZEFSAII (Michael W. Deem and Ramdas Pophale) SiO2 
 PCOD9502991
Probable space group: C M M A
;
_chemical_formula_sum "Si O2"
_cell_formula_units_Z 112
_cell_length_a 19.484653
_cell_length_b 23.349155
_cell_length_c 13.002685
_cell_angle_alpha 90.000000
_cell_angle_beta 90.000000
_cell_angle_gamma 90.000000
_cell_volume 5915.573920
_symmetry_space_group_name_H-M "C M M A"
_symmetry_group_IT_number 67
_symmetry_cell_setting 'orthorhombic'
loop_
_space_group_symop_operation_xyz
x,y,z
-x,1/2-y,z
x,-y,-z
-x,1/2+y,-z
-x,-y,-z
x,1/2+y,-z
-x,y,z
x,1/2-y,z
1/2+x,1/2+y,z
1/2-x,-y,z
1/2+x,1/2-y,-z
1/2-x,y,-z
1/2-x,1/2-y,-z
1/2+x,y,-z
1/2-x,1/2+y,z
1/2+x,-y,z
loop_
_atom_site_type_symbol
_atom_site_label
_atom_site_fract_x
_atom_site_fract_y
_atom_site_fract_z
Si Si1 0.330685 0.359754 0.683468
Si Si2 0.668121 0.491198 0.617655
Si Si3 0.154103 0.416426 0.792031
Si Si4 0.423974 0.931893 0.994827
Si Si5 0.075153 0.317770 0.474433
Si Si6 0.184575 0.318653 0.642299
Si Si7 0.211876 0.114767 0.101086
O O1 0.342209 0.427021 0.660414
O O2 0.396560 0.328579 0.639006
O O3 0.262575 0.338453 0.623976
O O4 0.312446 0.347900 0.802006
O O5 0.641952 0.500000 0.500000
O O6 0.750000 0.500000 0.612671
O O7 0.643082 0.537547 0.701613
O O8 0.160731 0.353687 0.742164
O O9 0.228414 0.425741 0.848888
O O10 0.096137 0.417009 0.877954
O O11 0.500000 0.909399 0.023234
O O12 0.358669 0.913387 0.062660
O O13 0.426724 0.000000 0.000000
O O14 0.071109 0.250000 0.491126
O O15 0.133014 0.338659 0.553043
O O16 0.000000 0.343156 0.491362
O O17 0.182813 0.250000 0.652361
O O18 0.250000 0.140158 0.000000
#
# Coordination Sequence:
#
# PCOD9502991 Si02
#       7
#    16  16  16  16  16  16  16
#     4  11  20  33  57  84 107 145 184 231 278 333
#     4  11  20  30  50  84 116 145 173 217 275 343
#     4  10  20  36  57  83 109 147 183 224 277 336
#     4  10  21  34  53  79 109 141 180 226 269 319
#     4  10  22  38  55  79 113 151 187 225 273 331
#     4  10  20  35  58  84 108 138 186 237 273 315
#     4   9  19  33  53  76 103 136 179 223 271 320
#
# _framework density 18.933074000000001
#
# number of rings (size 3 to 8) (size 9 to 14) (size 15 to 20)
#    0.000    1.857    2.857    2.571    2.000    4.286 
#    0.000    0.714    0.000   37.286    0.000    0.000 
#    0.000    0.000    0.000    0.000    0.000    0.000 
#
# Total GULP energy -311966.237525 kJ/mol
# GULP energy per Si atom -5570.825670 kJ/mol
# Density = 1.888998 g / cm^3
# Si number density = 18.933074 Si / 1000 Ang^3
#
#
#
# Elastic Constant Matrix: (Units=GPa)
#
#
# Indices 1 2 3 4 5 6 
#
# 1 111.2880 13.1808 42.7707 0.0000 0.0000 0.0000
# 2 13.1808 50.2756 17.4379 0.0000 0.0000 0.0000
# 3 42.7707 17.4379 112.8186 0.0000 0.0000 0.0000
# 4 0.0000 0.0000 0.0000 -2.8820 0.0000 0.0000
# 5 0.0000 0.0000 0.0000 0.0000 -16.2661 0.0000
# 6 0.0000 0.0000 0.0000 0.0000 0.0000 55.1180
#
#
#
# Elastic Compliance Matrix: (Units=1/GPa)
#
#
# Indices 1 2 3 4 5 6 
#
# 1 0.010620 -0.001466 -0.003799 0.000000 0.000000 0.000000
# 2 -0.001466 0.021220 -0.002724 0.000000 0.000000 0.000000
# 3 -0.003799 -0.002724 0.010725 0.000000 0.000000 0.000000
# 4 0.000000 0.000000 0.000000 -0.346987 0.000000 0.000000
# 5 0.000000 0.000000 0.000000 0.000000 -0.061478 0.000000
# 6 0.000000 0.000000 0.000000 0.000000 0.000000 0.018143
#
#
# Mechanical properties :
#
#
# Convention : Reuss Voigt Hill
#
# Bulk Modulus (GPa) = 37.61504 46.79568 42.20536
# Shear Modulus (GPa) = -15.48390 20.59352 2.55481
#
# Velocity S-wave (km/s) = -2.86286 3.30161 1.16289
# Velocity P-wave (km/s) = 2.99709 6.26930 4.91359
#
# Compressibility (1/GPa) = 0.02658511
#
# Stress axis : x y z
#
# Youngs Moduli (GPa) = 94.16602 47.12625 93.23859
#
# Poissons Ratio (x) = 0.06910 0.35424
# Poissons Ratio (y) = 0.13808 0.25397
# Poissons Ratio (z) = 0.35777 0.12837
#
# Static dielectric constant tensor:
#      x y z
#    x 1.691390 0.000000 0.000000 
#    y 0.000000 1.666090 0.000000 
#    z 0.000000 0.000000 1.734840 
# 
# From -- ./inp_files/21106.got.cif
#   From: 2010.05.17/outbox.cif.g08.bks.cpg/sg67_11_cif.got.tgz:21106.got - 2010.06.03 18:28:57.
