data_PCOD9502339
_publ_section_title
;
Structure prediction by ZEFSAII (Michael W. Deem and Ramdas Pophale) SiO2 
 PCOD9502339
Probable space group: C M M A
;
_chemical_formula_sum "Si O2"
_cell_formula_units_Z 72
_cell_length_a 8.934423
_cell_length_b 32.647022
_cell_length_c 13.630689
_cell_angle_alpha 90.000000
_cell_angle_beta 90.000000
_cell_angle_gamma 90.000000
_cell_volume 3975.830776
_symmetry_space_group_name_H-M "C M M A"
_symmetry_group_IT_number 67
_symmetry_cell_setting 'orthorhombic'
loop_
_space_group_symop_operation_xyz
x,y,z
-x,1/2-y,z
x,-y,-z
-x,1/2+y,-z
-x,-y,-z
x,1/2+y,-z
-x,y,z
x,1/2-y,z
1/2+x,1/2+y,z
1/2-x,-y,z
1/2+x,1/2-y,-z
1/2-x,y,-z
1/2-x,1/2-y,-z
1/2+x,y,-z
1/2-x,1/2+y,z
1/2+x,-y,z
loop_
_atom_site_type_symbol
_atom_site_label
_atom_site_fract_x
_atom_site_fract_y
_atom_site_fract_z
Si Si1 0.680581 0.250000 0.392490
Si Si2 0.821928 0.917335 0.601297
Si Si3 0.320879 0.543560 0.189725
Si Si4 0.179348 0.337497 0.691788
Si Si5 0.678494 0.876099 0.899631
O O1 0.500000 0.250000 0.399268
O O2 0.750000 0.250000 0.500000
O O3 0.724783 0.208162 0.337882
O O4 0.750000 0.932017 0.500000
O O5 0.786385 0.944985 0.696447
O O6 0.759157 0.872205 0.627059
O O7 0.000000 0.915517 0.590897
O O8 0.500000 0.543076 0.177948
O O9 0.250000 0.500000 0.165280
O O10 0.249910 0.579840 0.125779
O O11 0.211364 0.347872 0.805246
O O12 0.000000 0.341671 0.677617
O O13 0.500000 0.879910 0.909207
O O14 0.750000 0.860515 0.000000
#
# Coordination Sequence:
#
# PCOD9502339 Si02
#       5
#     8  16  16  16  16
#     4  10  20  34  53  80 110 140 173 210 253 300
#     4  10  20  33  51  74 103 138 175 213 256 307
#     4  10  21  36  53  76 104 134 171 216 260 307
#     4   9  19  35  54  76 105 138 173 213 257 305
#     4  10  20  36  57  78 102 135 172 213 260 309
#
# _framework density 18.109423
#
# number of rings (size 3 to 8) (size 9 to 14) (size 15 to 20)
#    0.000    2.222    0.000    2.667    0.000    7.111 
#    0.000    5.000    0.000    0.000    0.000    0.000 
#    0.000    0.000    0.000    0.000    0.000    0.000 
#
# Total GULP energy -201035.883058 kJ/mol
# GULP energy per Si atom -5584.330085 kJ/mol
# Density = 1.806820 g / cm^3
# Si number density = 18.109423 Si / 1000 Ang^3
#
#
#
# Elastic Constant Matrix: (Units=GPa)
#
#
# Indices 1 2 3 4 5 6 
#
# 1 37.2582 20.4208 32.8198 0.0000 0.0000 0.0000
# 2 20.4208 92.3809 14.4851 0.0000 0.0000 0.0000
# 3 32.8198 14.4851 86.6460 0.0000 0.0000 0.0000
# 4 0.0000 0.0000 0.0000 5.3460 0.0000 0.0000
# 5 0.0000 0.0000 0.0000 0.0000 35.4335 0.0000
# 6 0.0000 0.0000 0.0000 0.0000 0.0000 22.3009
#
#
#
# Elastic Compliance Matrix: (Units=1/GPa)
#
#
# Indices 1 2 3 4 5 6 
#
# 1 0.044748 -0.007429 -0.015708 0.000000 0.000000 0.000000
# 2 -0.007429 0.012349 0.000749 0.000000 0.000000 0.000000
# 3 -0.015708 0.000749 0.017366 0.000000 0.000000 0.000000
# 4 0.000000 0.000000 0.000000 0.187054 0.000000 0.000000
# 5 0.000000 0.000000 0.000000 0.000000 0.028222 0.000000
# 6 0.000000 0.000000 0.000000 0.000000 0.000000 0.044841
#
#
# Mechanical properties :
#
#
# Convention : Reuss Voigt Hill
#
# Bulk Modulus (GPa) = 33.68265 39.08182 36.38224
# Shear Modulus (GPa) = 12.84521 22.52006 17.68263
#
# Velocity S-wave (km/s) = 2.66618 3.53023 3.12818
# Velocity P-wave (km/s) = 5.30263 6.18421 5.76031
#
# Compressibility (1/GPa) = 0.02968887
#
# Stress axis : x y z
#
# Youngs Moduli (GPa) = 22.34752 80.97597 57.58477
#
# Poissons Ratio (x) = 0.60153 0.90452
# Poissons Ratio (y) = 0.16601 -0.04315
# Poissons Ratio (z) = 0.35103 -0.06067
#
# Static dielectric constant tensor:
#      x y z
#    x 1.601930 0.000000 0.000000 
#    y 0.000000 1.594260 0.000000 
#    z 0.000000 0.000000 1.624030 
# 
# From -- ./inp_files/25264.got.cif
#   From: 2010.05.17/outbox.cif.g08.bks.cpg/sg67_13_cif.got.tgz:25264.got - 2010.06.03 18:28:57.
