data_PCOD9502708
_publ_section_title
;
Structure prediction by ZEFSAII (Michael W. Deem and Ramdas Pophale) SiO2 
 PCOD9502708
Probable space group: C M M A
;
_chemical_formula_sum "Si O2"
_cell_formula_units_Z 112
_cell_length_a 15.360316
_cell_length_b 29.562179
_cell_length_c 11.656008
_cell_angle_alpha 90.000000
_cell_angle_beta 90.000000
_cell_angle_gamma 90.000000
_cell_volume 5292.811528
_symmetry_space_group_name_H-M "C M M A"
_symmetry_group_IT_number 67
_symmetry_cell_setting 'orthorhombic'
loop_
_space_group_symop_operation_xyz
x,y,z
-x,1/2-y,z
x,-y,-z
-x,1/2+y,-z
-x,-y,-z
x,1/2+y,-z
-x,y,z
x,1/2-y,z
1/2+x,1/2+y,z
1/2-x,-y,z
1/2+x,1/2-y,-z
1/2-x,y,-z
1/2-x,1/2-y,-z
1/2+x,y,-z
1/2-x,1/2+y,z
1/2+x,-y,z
loop_
_atom_site_type_symbol
_atom_site_label
_atom_site_fract_x
_atom_site_fract_y
_atom_site_fract_z
Si Si1 0.394114 0.543387 0.424999
Si Si2 0.741307 0.697624 0.125927
Si Si3 0.404054 0.803793 0.297161
Si Si4 0.398864 0.154436 0.224047
Si Si5 0.850631 0.641336 0.487002
Si Si6 0.893994 0.932631 0.073820
Si Si7 0.393612 0.968334 0.164026
O O1 0.367636 0.500000 0.500000
O O2 0.500000 0.544338 0.424785
O O3 0.361230 0.588970 0.482081
O O4 0.364283 0.541995 0.292633
O O5 0.715016 0.750000 0.110913
O O6 0.669200 0.677737 0.211122
O O7 0.834836 0.693676 0.184045
O O8 0.750000 0.676967 0.000000
O O9 0.500000 0.810061 0.245701
O O10 0.390606 0.750000 0.316294
O O11 0.399480 0.829339 0.417420
O O12 0.500000 0.162863 0.199460
O O13 0.385338 0.147917 0.359167
O O14 0.369731 0.109823 0.152355
O O15 0.750000 0.654633 0.500000
O O16 0.000000 0.932439 0.072154
O O17 0.868099 0.980415 0.130659
O O18 0.865049 0.935766 0.940626
O O19 0.500000 0.967174 0.165214
#
# Coordination Sequence:
#
# PCOD9502708 Si02
#       7
#    16  16  16  16  16  16  16
#     4  10  20  34  55  85 122 167 215 262 313 375
#     4  10  23  43  65  94 129 162 201 252 308 374
#     4  10  22  43  70  95 122 162 211 263 318 378
#     4  11  22  38  61  92 128 167 206 253 313 377
#     4  12  24  40  61  90 128 168 211 267 322 382
#     4   8  15  29  52  83 118 157 204 253 304 360
#     4   8  14  28  51  81 115 156 208 259 302 355
#
# _framework density 21.160775999999998
#
# number of rings (size 3 to 8) (size 9 to 14) (size 15 to 20)
#    0.000    2.143    1.429    3.000    0.000    5.429 
#    0.000    2.857    0.000    0.000    0.000    0.000 
#    0.000    0.000    0.000    2.571    0.000    0.286 
#
# Total GULP energy -312753.244941 kJ/mol
# GULP energy per Si atom -5584.879374 kJ/mol
# Density = 2.111261 g / cm^3
# Si number density = 21.160776 Si / 1000 Ang^3
#
#
#
# Elastic Constant Matrix: (Units=GPa)
#
#
# Indices 1 2 3 4 5 6 
#
# 1 68.3342 14.8934 29.1066 0.0000 0.0000 0.0000
# 2 14.8934 30.2510 19.1069 0.0000 0.0000 0.0000
# 3 29.1066 19.1069 147.0528 0.0000 0.0000 0.0000
# 4 0.0000 0.0000 0.0000 20.2991 0.0000 0.0000
# 5 0.0000 0.0000 0.0000 0.0000 20.2237 0.0000
# 6 0.0000 0.0000 0.0000 0.0000 0.0000 32.1278
#
#
#
# Elastic Compliance Matrix: (Units=1/GPa)
#
#
# Indices 1 2 3 4 5 6 
#
# 1 0.017204 -0.006884 -0.002511 0.000000 0.000000 0.000000
# 2 -0.006884 0.038767 -0.003674 0.000000 0.000000 0.000000
# 3 -0.002511 -0.003674 0.007775 0.000000 0.000000 0.000000
# 4 0.000000 0.000000 0.000000 0.049263 0.000000 0.000000
# 5 0.000000 0.000000 0.000000 0.000000 0.049447 0.000000
# 6 0.000000 0.000000 0.000000 0.000000 0.000000 0.031126
#
#
# Mechanical properties :
#
#
# Convention : Reuss Voigt Hill
#
# Bulk Modulus (GPa) = 26.59099 41.31685 33.95392
# Shear Modulus (GPa) = 21.52803 26.69886 24.11345
#
# Velocity S-wave (km/s) = 3.19306 3.55592 3.37936
# Velocity P-wave (km/s) = 5.11739 6.03548 5.59529
#
# Compressibility (1/GPa) = 0.03760672
#
# Stress axis : x y z
#
# Youngs Moduli (GPa) = 58.12678 25.79523 128.62295
#
# Poissons Ratio (x) = 0.17758 0.32294
# Poissons Ratio (y) = 0.40015 0.47262
# Poissons Ratio (z) = 0.14594 0.09478
#
# Static dielectric constant tensor:
#      x y z
#    x 1.900190 0.000000 0.000000 
#    y 0.000000 1.752400 0.000000 
#    z 0.000000 0.000000 1.752600 
# 
# From -- ./inp_files/18639.got.cif
#   From: 2010.05.17/outbox.cif.g08.bks.cpg/sg67_10_cif.got.tgz:18639.got - 2010.06.03 18:28:57.
