data_PCOD9502923
_publ_section_title
;
Structure prediction by ZEFSAII (Michael W. Deem and Ramdas Pophale) SiO2 
 PCOD9502923
Probable space group: C M M A
;
_chemical_formula_sum "Si O2"
_cell_formula_units_Z 96
_cell_length_a 22.060144
_cell_length_b 14.241810
_cell_length_c 13.109821
_cell_angle_alpha 90.000000
_cell_angle_beta 90.000000
_cell_angle_gamma 90.000000
_cell_volume 4118.796097
_symmetry_space_group_name_H-M "C M M A"
_symmetry_group_IT_number 67
_symmetry_cell_setting 'orthorhombic'
loop_
_space_group_symop_operation_xyz
x,y,z
-x,1/2-y,z
x,-y,-z
-x,1/2+y,-z
-x,-y,-z
x,1/2+y,-z
-x,y,z
x,1/2-y,z
1/2+x,1/2+y,z
1/2-x,-y,z
1/2+x,1/2-y,-z
1/2-x,y,-z
1/2-x,1/2-y,-z
1/2+x,y,-z
1/2-x,1/2+y,z
1/2+x,-y,z
loop_
_atom_site_type_symbol
_atom_site_label
_atom_site_fract_x
_atom_site_fract_y
_atom_site_fract_z
Si Si1 0.430338 0.636716 0.579026
Si Si2 0.160392 0.361557 0.948565
Si Si3 0.293218 0.593873 0.580322
Si Si4 0.378199 0.859378 0.184341
Si Si5 0.064423 0.046650 0.802424
Si Si6 0.248297 0.358833 0.209960
O O1 0.500000 0.614031 0.537253
O O2 0.425458 0.750000 0.574678
O O3 0.363676 0.596837 0.542314
O O4 0.432062 0.598450 0.694547
O O5 0.157292 0.250000 0.926867
O O6 0.113078 0.416772 0.880874
O O7 0.223131 0.393865 0.895404
O O8 0.142686 0.369938 0.066232
O O9 0.250000 0.500000 0.593675
O O10 0.250000 0.647420 0.500000
O O11 0.292842 0.633562 0.694864
O O12 0.393540 0.750000 0.204426
O O13 0.317466 0.896033 0.241134
O O14 0.428297 0.935047 0.211069
O O15 0.000000 0.068698 0.849909
O O16 0.234309 0.250000 0.190832
#
# Coordination Sequence:
#
# PCOD9502923 Si02
#       6
#    16  16  16  16  16  16
#     4  10  21  40  67  97 129 169 217 269 322 378
#     4  10  20  35  56  84 117 153 200 255 311 365
#     4  11  23  39  62  96 130 162 204 258 322 387
#     4  10  22  37  54  80 118 164 206 251 308 372
#     4  11  22  36  56  83 118 161 208 257 305 360
#     4  10  20  36  58  84 115 150 196 251 307 368
#
# _framework density 23.307780999999999
#
# number of rings (size 3 to 8) (size 9 to 14) (size 15 to 20)
#    0.000    1.667    1.667    3.000    0.000    6.000 
#    0.000    5.000    0.000    1.000    0.000    0.000 
#    0.000    0.000    0.000    0.000    0.000    0.000 
#
# Total GULP energy -267265.162674 kJ/mol
# GULP energy per Si atom -5568.024222 kJ/mol
# Density = 2.325473 g / cm^3
# Si number density = 23.307781 Si / 1000 Ang^3
#
#
#
# Elastic Constant Matrix: (Units=GPa)
#
#
# Indices 1 2 3 4 5 6 
#
# 1 158.2384 31.0895 10.8735 0.0000 0.0000 0.0000
# 2 31.0895 97.2128 11.2122 0.0000 0.0000 0.0000
# 3 10.8735 11.2122 43.2166 0.0000 0.0000 0.0000
# 4 0.0000 0.0000 0.0000 17.8081 0.0000 0.0000
# 5 0.0000 0.0000 0.0000 0.0000 7.8556 0.0000
# 6 0.0000 0.0000 0.0000 0.0000 0.0000 23.3286
#
#
#
# Elastic Compliance Matrix: (Units=1/GPa)
#
#
# Indices 1 2 3 4 5 6 
#
# 1 0.006801 -0.002039 -0.001182 0.000000 0.000000 0.000000
# 2 -0.002039 0.011215 -0.002397 0.000000 0.000000 0.000000
# 3 -0.001182 -0.002397 0.024059 0.000000 0.000000 0.000000
# 4 0.000000 0.000000 0.000000 0.056154 0.000000 0.000000
# 5 0.000000 0.000000 0.000000 0.000000 0.127297 0.000000
# 6 0.000000 0.000000 0.000000 0.000000 0.000000 0.042866
#
#
# Mechanical properties :
#
#
# Convention : Reuss Voigt Hill
#
# Bulk Modulus (GPa) = 32.42597 45.00202 38.71399
# Shear Modulus (GPa) = 17.24686 26.16464 21.70575
#
# Velocity S-wave (km/s) = 2.72317 3.35411 3.05498
# Velocity P-wave (km/s) = 4.88158 5.86087 5.39350
#
# Compressibility (1/GPa) = 0.03083948
#
# Stress axis : x y z
#
# Youngs Moduli (GPa) = 147.02882 89.16507 41.56525
#
# Poissons Ratio (x) = 0.18179 0.04914
# Poissons Ratio (y) = 0.29976 0.09962
# Poissons Ratio (z) = 0.17383 0.21370
#
# Static dielectric constant tensor:
#      x y z
#    x 1.950140 0.000000 0.000000 
#    y 0.000000 1.932930 0.000000 
#    z 0.000000 0.000000 1.889160 
# 
# From -- ./inp_files/27173.got.cif
#   From: 2010.05.17/outbox.cif.g08.bks.cpg/sg67_14_cif.got.tgz:27173.got - 2010.06.03 18:28:57.
