data_PCOD9502661
_publ_section_title
;
Structure prediction by ZEFSAII (Michael W. Deem and Ramdas Pophale) SiO2 
 PCOD9502661
Probable space group: C M M A
;
_chemical_formula_sum "Si O2"
_cell_formula_units_Z 80
_cell_length_a 18.370656
_cell_length_b 8.801514
_cell_length_c 26.640923
_cell_angle_alpha 90.000000
_cell_angle_beta 90.000000
_cell_angle_gamma 90.000000
_cell_volume 4307.559810
_symmetry_space_group_name_H-M "C M M A"
_symmetry_group_IT_number 67
_symmetry_cell_setting 'orthorhombic'
loop_
_space_group_symop_operation_xyz
x,y,z
-x,1/2-y,z
x,-y,-z
-x,1/2+y,-z
-x,-y,-z
x,1/2+y,-z
-x,y,z
x,1/2-y,z
1/2+x,1/2+y,z
1/2-x,-y,z
1/2+x,1/2-y,-z
1/2-x,y,-z
1/2-x,1/2-y,-z
1/2+x,y,-z
1/2-x,1/2+y,z
1/2+x,-y,z
loop_
_atom_site_type_symbol
_atom_site_label
_atom_site_fract_x
_atom_site_fract_y
_atom_site_fract_z
Si Si1 0.586685 0.930545 0.054156
Si Si2 0.169432 0.568616 0.148874
Si Si3 0.831614 0.568715 0.449942
Si Si4 0.913648 0.069336 0.243862
Si Si5 0.831574 0.932339 0.338373
O O1 0.500000 0.954520 0.061784
O O2 0.600157 0.750000 0.054427
O O3 0.630457 0.009536 0.098583
O O4 0.605781 0.000000 0.000000
O O5 0.172715 0.750000 0.149006
O O6 0.250000 0.500000 0.151595
O O7 0.124387 0.509940 0.196676
O O8 0.867533 0.500000 0.500000
O O9 0.827225 0.750000 0.455289
O O10 0.750000 0.500000 0.448492
O O11 0.861808 0.533867 0.394507
O O12 0.900201 0.250000 0.241317
O O13 0.000000 0.043557 0.242270
O O14 0.879914 0.003222 0.294800
O O15 0.827516 0.750000 0.333118
O O16 0.750000 0.000000 0.334659
#
# Coordination Sequence:
#
# PCOD9502661 Si02
#       5
#    16  16  16  16  16
#     4  10  21  39  63  91 123 157 194 234 277 329
#     4  12  25  41  62  87 117 151 189 234 283 333
#     4   9  16  26  44  72 105 140 177 220 269 322
#     4  11  24  41  60  82 110 145 185 230 281 337
#     4  10  20  34  54  81 112 145 183 228 277 329
#
# _framework density 18.571999999999999
#
# number of rings (size 3 to 8) (size 9 to 14) (size 15 to 20)
#    0.000    1.600    0.000    6.000    0.000    8.000 
#    0.000    2.000    0.000    0.600    0.000    0.000 
#    0.000    0.000    0.000    0.000    0.000    0.000 
#
# Total GULP energy -223471.949663 kJ/mol
# GULP energy per Si atom -5586.798742 kJ/mol
# Density = 1.852973 g / cm^3
# Si number density = 18.572000 Si / 1000 Ang^3
#
#
#
# Elastic Constant Matrix: (Units=GPa)
#
#
# Indices 1 2 3 4 5 6 
#
# 1 73.4330 78.9821 88.5925 0.0000 0.0000 0.0000
# 2 78.9821 145.6395 110.3637 0.0000 0.0000 0.0000
# 3 88.5925 110.3637 213.9082 0.0000 0.0000 0.0000
# 4 0.0000 0.0000 0.0000 41.0413 0.0000 0.0000
# 5 0.0000 0.0000 0.0000 0.0000 47.4516 0.0000
# 6 0.0000 0.0000 0.0000 0.0000 0.0000 25.5027
#
#
#
# Elastic Compliance Matrix: (Units=1/GPa)
#
#
# Indices 1 2 3 4 5 6 
#
# 1 0.041221 -0.015463 -0.009094 0.000000 0.000000 0.000000
# 2 -0.015463 0.017075 -0.002405 0.000000 0.000000 0.000000
# 3 -0.009094 -0.002405 0.009682 0.000000 0.000000 0.000000
# 4 0.000000 0.000000 0.000000 0.024366 0.000000 0.000000
# 5 0.000000 0.000000 0.000000 0.000000 0.021074 0.000000
# 6 0.000000 0.000000 0.000000 0.000000 0.000000 0.039212
#
#
# Mechanical properties :
#
#
# Convention : Reuss Voigt Hill
#
# Bulk Modulus (GPa) = 71.15945 109.87302 90.51624
# Shear Modulus (GPa) = 23.66980 33.13529 28.40254
#
# Velocity S-wave (km/s) = 3.57387 4.22851 3.91490
# Velocity P-wave (km/s) = 7.44505 9.11753 8.32340
#
# Compressibility (1/GPa) = 0.01405295
#
# Stress axis : x y z
#
# Youngs Moduli (GPa) = 24.25936 58.56523 103.28131
#
# Poissons Ratio (x) = 0.90562 0.93924
# Poissons Ratio (y) = 0.37513 0.24842
# Poissons Ratio (z) = 0.22062 0.14087
#
# Static dielectric constant tensor:
#      x y z
#    x 1.607490 0.000000 0.000000 
#    y 0.000000 1.617810 0.000000 
#    z 0.000000 0.000000 1.651780 
# 
# From -- ./inp_files/44424.got.cif
#   From: 2010.05.17/outbox.cif.g08.bks.cpg/sg67_23_cif.got.tgz:44424.got - 2010.06.03 18:28:57.
