data_PCOD9502658
_publ_section_title
;
Structure prediction by ZEFSAII (Michael W. Deem and Ramdas Pophale) SiO2 
 PCOD9502658
Probable space group: C M M A
;
_chemical_formula_sum "Si O2"
_cell_formula_units_Z 116
_cell_length_a 7.831710
_cell_length_b 30.626594
_cell_length_c 22.427270
_cell_angle_alpha 90.000000
_cell_angle_beta 90.000000
_cell_angle_gamma 90.000000
_cell_volume 5379.373640
_symmetry_space_group_name_H-M "C M M A"
_symmetry_group_IT_number 67
_symmetry_cell_setting 'orthorhombic'
loop_
_space_group_symop_operation_xyz
x,y,z
-x,1/2-y,z
x,-y,-z
-x,1/2+y,-z
-x,-y,-z
x,1/2+y,-z
-x,y,z
x,1/2-y,z
1/2+x,1/2+y,z
1/2-x,-y,z
1/2+x,1/2-y,-z
1/2-x,y,-z
1/2-x,1/2-y,-z
1/2+x,y,-z
1/2-x,1/2+y,z
1/2+x,-y,z
loop_
_atom_site_type_symbol
_atom_site_label
_atom_site_fract_x
_atom_site_fract_y
_atom_site_fract_z
Si Si1 0.702994 0.829326 0.434988
Si Si2 0.704144 0.928859 0.593830
Si Si3 0.750000 0.500000 0.500000
Si Si4 0.201717 0.453371 0.931312
Si Si5 0.208819 0.892152 0.282229
Si Si6 0.794247 0.378161 0.850707
Si Si7 0.797064 0.200413 0.067088
Si Si8 0.801267 0.796234 0.313552
O O1 0.500000 0.829707 0.426366
O O2 0.750000 0.813388 0.500000
O O3 0.770455 0.879186 0.428518
O O4 0.788324 0.800099 0.384543
O O5 0.500000 0.939565 0.589822
O O6 0.759479 0.924632 0.663737
O O7 0.800287 0.963087 0.550689
O O8 0.250000 0.500000 0.904545
O O9 0.278049 0.412276 0.898202
O O10 0.000000 0.449746 0.927984
O O11 0.250000 0.453096 0.000000
O O12 0.261321 0.896545 0.213741
O O13 0.272554 0.842739 0.294693
O O14 0.000000 0.892132 0.285939
O O15 0.754120 0.330694 0.877997
O O16 0.000000 0.379294 0.848004
O O17 0.726794 0.250000 0.072587
O O18 0.000000 0.202768 0.068089
O O19 0.750000 0.183990 0.000000
O O20 0.725264 0.750000 0.293322
O O21 0.000000 0.796461 0.295192
#
# Coordination Sequence:
#
# PCOD9502658 Si02
#       8
#    16  16   4  16  16  16  16  16
#     4  11  21  34  54  77 107 140 171 214 270 324
#     4  10  21  38  58  82 113 145 180 227 279 337
#     4  12  22  32  64  98 112 136 184 232 290 348
#     4  10  20  34  54  81 109 142 184 233 281 330
#     4   8  17  36  57  78 111 151 188 227 275 335
#     4  10  20  35  58  84 111 152 199 237 284 346
#     4  10  21  36  55  84 122 160 199 245 295 344
#     4   9  18  34  56  79 104 140 184 225 266 317
#
# _framework density 21.563849999999999
#
# number of rings (size 3 to 8) (size 9 to 14) (size 15 to 20)
#    0.000    2.207    0.690    3.931    0.000    4.690 
#    1.241    4.138    0.000    0.000    0.000    0.000 
#    0.000    0.000    0.000    0.000    0.000    0.000 
#
# Total GULP energy -322902.656251 kJ/mol
# GULP energy per Si atom -5567.287177 kJ/mol
# Density = 2.151477 g / cm^3
# Si number density = 21.563850 Si / 1000 Ang^3
#
#
#
# Elastic Constant Matrix: (Units=GPa)
#
#
# Indices 1 2 3 4 5 6 
#
# 1 52.5088 1.5899 5.2946 0.0000 0.0000 0.0000
# 2 1.5899 98.4953 36.8939 0.0000 0.0000 0.0000
# 3 5.2946 36.8939 113.4353 0.0000 0.0000 0.0000
# 4 0.0000 0.0000 0.0000 19.2734 0.0000 0.0000
# 5 0.0000 0.0000 0.0000 0.0000 11.1801 0.0000
# 6 0.0000 0.0000 0.0000 0.0000 0.0000 14.9032
#
#
#
# Elastic Compliance Matrix: (Units=1/GPa)
#
#
# Indices 1 2 3 4 5 6 
#
# 1 0.019135 0.000029 -0.000903 0.000000 0.000000 0.000000
# 2 0.000029 0.011561 -0.003762 0.000000 0.000000 0.000000
# 3 -0.000903 -0.003762 0.010081 0.000000 0.000000 0.000000
# 4 0.000000 0.000000 0.000000 0.051885 0.000000 0.000000
# 5 0.000000 0.000000 0.000000 0.000000 0.089444 0.000000
# 6 0.000000 0.000000 0.000000 0.000000 0.000000 0.067100
#
#
# Mechanical properties :
#
#
# Convention : Reuss Voigt Hill
#
# Bulk Modulus (GPa) = 31.73891 39.11070 35.42481
# Shear Modulus (GPa) = 18.58885 23.78207 21.18546
#
# Velocity S-wave (km/s) = 2.93923 3.32455 3.13781
# Velocity P-wave (km/s) = 5.12536 5.73702 5.43979
#
# Compressibility (1/GPa) = 0.03150707
#
# Stress axis : x y z
#
# Youngs Moduli (GPa) = 52.26145 86.49556 99.19500
#
# Poissons Ratio (x) = -0.00253 0.08954
# Poissons Ratio (y) = -0.00153 0.37313
# Poissons Ratio (z) = 0.04717 0.32536
#
# Static dielectric constant tensor:
#      x y z
#    x 1.734470 0.000000 0.000000 
#    y 0.000000 1.815870 0.000000 
#    z 0.000000 0.000000 1.767290 
# 
# From -- ./inp_files/41238.got.cif
#   From: 2010.05.17/outbox.cif.g08.bks.cpg/sg67_21_cif.got.tgz:41238.got - 2010.06.03 18:28:57.
