data_PCOD9502719
_publ_section_title
;
Structure prediction by ZEFSAII (Michael W. Deem and Ramdas Pophale) SiO2 
 PCOD9502719
Probable space group: C M M A
;
_chemical_formula_sum "Si O2"
_cell_formula_units_Z 80
_cell_length_a 18.449851
_cell_length_b 17.431152
_cell_length_c 12.802618
_cell_angle_alpha 90.000000
_cell_angle_beta 90.000000
_cell_angle_gamma 90.000000
_cell_volume 4117.349566
_symmetry_space_group_name_H-M "C M M A"
_symmetry_group_IT_number 67
_symmetry_cell_setting 'orthorhombic'
loop_
_space_group_symop_operation_xyz
x,y,z
-x,1/2-y,z
x,-y,-z
-x,1/2+y,-z
-x,-y,-z
x,1/2+y,-z
-x,y,z
x,1/2-y,z
1/2+x,1/2+y,z
1/2-x,-y,z
1/2+x,1/2-y,-z
1/2-x,y,-z
1/2-x,1/2-y,-z
1/2+x,y,-z
1/2-x,1/2+y,z
1/2+x,-y,z
loop_
_atom_site_type_symbol
_atom_site_label
_atom_site_fract_x
_atom_site_fract_y
_atom_site_fract_z
Si Si1 0.914829 0.934053 0.078952
Si Si2 0.325215 0.838759 0.054531
Si Si3 0.196937 0.927958 0.742388
Si Si4 0.913502 0.461968 0.673443
Si Si5 0.802291 0.839864 0.400809
O O1 0.903093 0.944929 0.202058
O O2 0.000000 0.933968 0.064715
O O3 0.883364 0.855759 0.034492
O O4 0.885013 0.000000 0.000000
O O5 0.322583 0.750000 0.083485
O O6 0.337918 0.889991 0.156258
O O7 0.250000 0.861307 0.000000
O O8 0.249726 0.864375 0.693780
O O9 0.250000 0.000000 0.766404
O O10 0.134917 0.960582 0.664525
O O11 0.872204 0.395365 0.609187
O O12 0.000000 0.468485 0.652500
O O13 0.821750 0.750000 0.398268
O O14 0.750000 0.854195 0.500000
#
# Coordination Sequence:
#
# PCOD9502719 Si02
#       5
#    16  16  16  16  16
#     4  10  20  35  55  80 115 156 193 230 283 343
#     4  11  22  32  49  81 116 153 199 244 286 341
#     4  10  20  34  56  82 112 151 193 240 294 350
#     4  10  21  37  62  90 115 150 197 246 291 348
#     4  10  22  41  62  84 115 154 194 245 306 355
#
# _framework density 19.429974000000001
#
# number of rings (size 3 to 8) (size 9 to 14) (size 15 to 20)
#    0.000    1.800    2.000    3.000    0.000    6.800 
#    0.000    4.000    0.000    3.000    0.000    0.000 
#    0.000    0.000    0.000    0.000    0.000    0.000 
#
# Total GULP energy -222961.296158 kJ/mol
# GULP energy per Si atom -5574.032404 kJ/mol
# Density = 1.938575 g / cm^3
# Si number density = 19.429974 Si / 1000 Ang^3
#
#
#
# Elastic Constant Matrix: (Units=GPa)
#
#
# Indices 1 2 3 4 5 6 
#
# 1 97.3912 35.0128 8.4699 0.0000 0.0000 0.0000
# 2 35.0128 55.5113 14.9074 0.0000 0.0000 0.0000
# 3 8.4699 14.9074 21.2151 0.0000 0.0000 0.0000
# 4 0.0000 0.0000 0.0000 27.1032 0.0000 0.0000
# 5 0.0000 0.0000 0.0000 0.0000 27.1995 0.0000
# 6 0.0000 0.0000 0.0000 0.0000 0.0000 -3.4474
#
#
#
# Elastic Compliance Matrix: (Units=1/GPa)
#
#
# Indices 1 2 3 4 5 6 
#
# 1 0.013288 -0.008574 0.000720 0.000000 0.000000 0.000000
# 2 -0.008574 0.027737 -0.016067 0.000000 0.000000 0.000000
# 3 0.000720 -0.016067 0.058139 0.000000 0.000000 0.000000
# 4 0.000000 0.000000 0.000000 0.036896 0.000000 0.000000
# 5 0.000000 0.000000 0.000000 0.000000 0.036765 0.000000
# 6 0.000000 0.000000 0.000000 0.000000 0.000000 -0.290071
#
#
# Mechanical properties :
#
#
# Convention : Reuss Voigt Hill
#
# Bulk Modulus (GPa) = 19.48527 32.32197 25.90362
# Shear Modulus (GPa) = -95.60939 17.88622 -38.86158
#
# Velocity S-wave (km/s) = -7.02239 3.03734 -4.47708
# Velocity P-wave (km/s) = 7.46336 5.38255 3.65581
#
# Compressibility (1/GPa) = 0.05132082
#
# Stress axis : x y z
#
# Youngs Moduli (GPa) = 75.25702 36.05257 17.20023
#
# Poissons Ratio (x) = 0.30913 -0.01238
# Poissons Ratio (y) = 0.64528 0.27636
# Poissons Ratio (z) = -0.05419 0.57926
#
# Static dielectric constant tensor:
#      x y z
#    x 1.666440 0.000000 0.000000 
#    y 0.000000 1.698660 0.000000 
#    z 0.000000 0.000000 1.693570 
# 
# From -- ./inp_files/28387.got.cif
#   From: 2010.05.17/outbox.cif.g08.bks.cpg/sg67_15_cif.got.tgz:28387.got - 2010.06.03 18:28:57.
