data_PCOD9502654
_publ_section_title
;
Structure prediction by ZEFSAII (Michael W. Deem and Ramdas Pophale) SiO2 
 PCOD9502654
Probable space group: C M M A
;
_chemical_formula_sum "Si O2"
_cell_formula_units_Z 120
_cell_length_a 26.693596
_cell_length_b 8.628438
_cell_length_c 27.776873
_cell_angle_alpha 90.000000
_cell_angle_beta 90.000000
_cell_angle_gamma 90.000000
_cell_volume 6397.681555
_symmetry_space_group_name_H-M "C M M A"
_symmetry_group_IT_number 67
_symmetry_cell_setting 'orthorhombic'
loop_
_space_group_symop_operation_xyz
x,y,z
-x,1/2-y,z
x,-y,-z
-x,1/2+y,-z
-x,-y,-z
x,1/2+y,-z
-x,y,z
x,1/2-y,z
1/2+x,1/2+y,z
1/2-x,-y,z
1/2+x,1/2-y,-z
1/2-x,y,-z
1/2-x,1/2-y,-z
1/2+x,y,-z
1/2-x,1/2+y,z
1/2+x,-y,z
loop_
_atom_site_type_symbol
_atom_site_label
_atom_site_fract_x
_atom_site_fract_y
_atom_site_fract_z
Si Si1 0.445192 0.937230 0.088019
Si Si2 0.407128 0.565623 0.811910
Si Si3 0.000000 0.562874 0.445997
Si Si4 0.160878 0.564117 0.950034
Si Si5 0.557604 0.065064 0.710431
Si Si6 0.195991 0.936291 0.446125
Si Si7 0.697008 0.063901 0.844959
Si Si8 0.401616 0.437145 0.385938
O O1 0.500000 0.989785 0.071021
O O2 0.444315 0.750000 0.087772
O O3 0.396769 0.990443 0.058052
O O4 0.436267 0.991891 0.142746
O O5 0.409506 0.750000 0.815719
O O6 0.428859 0.509915 0.761358
O O7 0.350043 0.507438 0.817233
O O8 0.000000 0.500000 0.500000
O O9 0.050174 0.513594 0.417657
O O10 0.000000 0.750000 0.447648
O O11 0.161091 0.750000 0.952296
O O12 0.189406 0.518626 0.901269
O O13 0.180985 0.500000 0.000000
O O14 0.500000 0.024705 0.698286
O O15 0.561514 0.250000 0.714719
O O16 0.591892 0.005172 0.667134
O O17 0.198088 0.750000 0.448190
O O18 0.149829 0.982799 0.412178
O O19 0.187382 0.000000 0.500000
O O20 0.250000 0.000000 0.429887
O O21 0.694956 0.250000 0.841943
O O22 0.750000 0.000000 0.827910
O O23 0.402601 0.250000 0.382961
#
# Coordination Sequence:
#
# PCOD9502654 Si02
#       8
#    16  16   8  16  16  16  16  16
#     4   9  18  34  53  74 105 143 183 227 274 325
#     4  11  22  36  57  83 109 141 181 226 275 329
#     4  10  20  34  54  80 114 150 186 232 281 336
#     4   9  19  33  50  75 108 144 180 221 269 325
#     4  11  23  38  58  84 114 149 185 226 279 337
#     4  10  20  35  57  83 111 148 191 235 280 328
#     4  10  21  39  60  82 109 140 179 227 277 329
#     4  10  21  37  56  81 114 150 189 234 284 336
#
# _framework density 18.756795
#
# number of rings (size 3 to 8) (size 9 to 14) (size 15 to 20)
#    0.000    2.000    0.667    4.400    0.000    7.467 
#    0.000    2.000    0.000    1.600    0.000    0.000 
#    0.000    0.000    0.000    0.000    0.000    0.000 
#
# Total GULP energy -335101.334557 kJ/mol
# GULP energy per Si atom -5585.022243 kJ/mol
# Density = 1.871410 g / cm^3
# Si number density = 18.756795 Si / 1000 Ang^3
#
#
#
# Elastic Constant Matrix: (Units=GPa)
#
#
# Indices 1 2 3 4 5 6 
#
# 1 93.1826 15.0369 7.6846 0.0000 0.0000 0.0000
# 2 15.0369 18.0213 5.2312 0.0000 0.0000 0.0000
# 3 7.6846 5.2312 65.3153 0.0000 0.0000 0.0000
# 4 0.0000 0.0000 0.0000 31.7189 0.0000 0.0000
# 5 0.0000 0.0000 0.0000 0.0000 -0.1998 0.0000
# 6 0.0000 0.0000 0.0000 0.0000 0.0000 25.2054
#
#
#
# Elastic Compliance Matrix: (Units=1/GPa)
#
#
# Indices 1 2 3 4 5 6 
#
# 1 0.012428 -0.010182 -0.000647 0.000000 0.000000 0.000000
# 2 -0.010182 0.065153 -0.004020 0.000000 0.000000 0.000000
# 3 -0.000647 -0.004020 0.015708 0.000000 0.000000 0.000000
# 4 0.000000 0.000000 0.000000 0.031527 0.000000 0.000000
# 5 0.000000 0.000000 0.000000 0.000000 -5.003820 0.000000
# 6 0.000000 0.000000 0.000000 0.000000 0.000000 0.039674
#
#
# Mechanical properties :
#
#
# Convention : Reuss Voigt Hill
#
# Bulk Modulus (GPa) = 15.72546 25.82496 20.77521
# Shear Modulus (GPa) = -1.04418 21.24931 10.10256
#
# Velocity S-wave (km/s) = -0.74693 3.36949 2.32331
# Velocity P-wave (km/s) = 2.76735 5.37923 4.27752
#
# Compressibility (1/GPa) = 0.06359115
#
# Stress axis : x y z
#
# Youngs Moduli (GPa) = 80.46320 15.34849 63.66015
#
# Poissons Ratio (x) = 0.15628 0.04117
# Poissons Ratio (y) = 0.81929 0.25593
# Poissons Ratio (z) = 0.05204 0.06170
#
# Static dielectric constant tensor:
#      x y z
#    x 1.667640 0.000000 0.000000 
#    y 0.000000 1.633860 0.000000 
#    z 0.000000 0.000000 1.612800 
# 
# From -- ./inp_files/45049.got.cif
#   From: 2010.05.17/outbox.cif.g08.bks.cpg/sg67_23_cif.got.tgz:45049.got - 2010.06.03 18:28:57.
