data_PCOD9502811
_publ_section_title
;
Structure prediction by ZEFSAII (Michael W. Deem and Ramdas Pophale) SiO2 
 PCOD9502811
Probable space group: C M M A
;
_chemical_formula_sum "Si O2"
_cell_formula_units_Z 80
_cell_length_a 27.806317
_cell_length_b 8.702552
_cell_length_c 19.072281
_cell_angle_alpha 90.000000
_cell_angle_beta 90.000000
_cell_angle_gamma 90.000000
_cell_volume 4615.223457
_symmetry_space_group_name_H-M "C M M A"
_symmetry_group_IT_number 67
_symmetry_cell_setting 'orthorhombic'
loop_
_space_group_symop_operation_xyz
x,y,z
-x,1/2-y,z
x,-y,-z
-x,1/2+y,-z
-x,-y,-z
x,1/2+y,-z
-x,y,z
x,1/2-y,z
1/2+x,1/2+y,z
1/2-x,-y,z
1/2+x,1/2-y,-z
1/2-x,y,-z
1/2-x,1/2-y,-z
1/2+x,y,-z
1/2-x,1/2+y,z
1/2+x,-y,z
loop_
_atom_site_type_symbol
_atom_site_label
_atom_site_fract_x
_atom_site_fract_y
_atom_site_fract_z
Si Si1 0.198182 0.065891 0.853880
Si Si2 0.944932 0.433810 0.215361
Si Si3 0.196352 0.933505 0.574727
Si Si4 0.853329 0.434370 0.710300
Si Si5 0.901045 0.934811 0.075681
O O1 0.200990 0.250000 0.855071
O O2 0.181751 0.020171 0.775144
O O3 0.154078 0.020660 0.904390
O O4 0.250000 0.000000 0.872082
O O5 0.938240 0.250000 0.216283
O O6 0.906107 0.511983 0.266090
O O7 0.933367 0.496417 0.137638
O O8 0.000000 0.468557 0.233953
O O9 0.198679 0.750000 0.571400
O O10 0.179443 0.000000 0.500000
O O11 0.250000 0.000000 0.585980
O O12 0.163957 0.988593 0.639017
O O13 0.851822 0.250000 0.704151
O O14 0.904284 0.750000 0.076851
O O15 0.913782 0.000000 0.000000
#
# Coordination Sequence:
#
# PCOD9502811 Si02
#       5
#    16  16  16  16  16
#     4   9  19  32  48  71  99 133 171 209 250 301
#     4  10  21  37  57  80 103 131 170 215 265 318
#     4  11  21  34  53  80 114 149 183 217 256 303
#     4  10  20  35  54  78 107 139 176 216 260 309
#     4  10  21  36  52  73 101 133 171 214 262 315
#
# _framework density 17.333939000000001
#
# number of rings (size 3 to 8) (size 9 to 14) (size 15 to 20)
#    0.000    2.000    0.000    6.000    0.000    8.800 
#    0.000    2.000    0.000    0.600    0.000    0.000 
#    0.000    0.000    0.000    0.000    0.000    0.000 
#
# Total GULP energy -223377.874756 kJ/mol
# GULP energy per Si atom -5584.446869 kJ/mol
# Density = 1.729449 g / cm^3
# Si number density = 17.333939 Si / 1000 Ang^3
#
#
#
# Elastic Constant Matrix: (Units=GPa)
#
#
# Indices 1 2 3 4 5 6 
#
# 1 49.2185 17.9164 14.9867 0.0000 0.0000 0.0000
# 2 17.9164 77.7837 32.9957 0.0000 0.0000 0.0000
# 3 14.9867 32.9957 106.5224 0.0000 0.0000 0.0000
# 4 0.0000 0.0000 0.0000 27.6402 0.0000 0.0000
# 5 0.0000 0.0000 0.0000 0.0000 6.3555 0.0000
# 6 0.0000 0.0000 0.0000 0.0000 0.0000 29.4517
#
#
#
# Elastic Compliance Matrix: (Units=1/GPa)
#
#
# Indices 1 2 3 4 5 6 
#
# 1 0.022471 -0.004415 -0.001794 0.000000 0.000000 0.000000
# 2 -0.004415 0.015668 -0.004232 0.000000 0.000000 0.000000
# 3 -0.001794 -0.004232 0.010951 0.000000 0.000000 0.000000
# 4 0.000000 0.000000 0.000000 0.036179 0.000000 0.000000
# 5 0.000000 0.000000 0.000000 0.000000 0.157345 0.000000
# 6 0.000000 0.000000 0.000000 0.000000 0.000000 0.033954
#
#
# Mechanical properties :
#
#
# Convention : Reuss Voigt Hill
#
# Bulk Modulus (GPa) = 35.45058 40.59136 38.02097
# Shear Modulus (GPa) = 16.29443 23.86454 20.07949
#
# Velocity S-wave (km/s) = 3.06932 3.71449 3.40721
# Velocity P-wave (km/s) = 5.74951 6.47029 6.12052
#
# Compressibility (1/GPa) = 0.02820828
#
# Stress axis : x y z
#
# Youngs Moduli (GPa) = 44.50202 63.82289 91.31572
#
# Poissons Ratio (x) = 0.28177 0.16381
# Poissons Ratio (y) = 0.19647 0.38647
# Poissons Ratio (z) = 0.07983 0.27011
#
# Static dielectric constant tensor:
#      x y z
#    x 1.578000 0.000000 0.000000 
#    y 0.000000 1.579140 0.000000 
#    z 0.000000 0.000000 1.574500 
# 
# From -- ./inp_files/32117.got.cif
#   From: 2010.05.17/outbox.cif.g08.bks.cpg/sg67_17_cif.got.tgz:32117.got - 2010.06.03 18:28:57.
