data_PCOD9502289
_publ_section_title
;
Structure prediction by ZEFSAII (Michael W. Deem and Ramdas Pophale) SiO2 
 PCOD9502289
Probable space group: C M M A
;
_chemical_formula_sum "Si O2"
_cell_formula_units_Z 112
_cell_length_a 22.841551
_cell_length_b 18.451226
_cell_length_c 13.665465
_cell_angle_alpha 90.000000
_cell_angle_beta 90.000000
_cell_angle_gamma 90.000000
_cell_volume 5759.373354
_symmetry_space_group_name_H-M "C M M A"
_symmetry_group_IT_number 67
_symmetry_cell_setting 'orthorhombic'
loop_
_space_group_symop_operation_xyz
x,y,z
-x,1/2-y,z
x,-y,-z
-x,1/2+y,-z
-x,-y,-z
x,1/2+y,-z
-x,y,z
x,1/2-y,z
1/2+x,1/2+y,z
1/2-x,-y,z
1/2+x,1/2-y,-z
1/2-x,y,-z
1/2-x,1/2-y,-z
1/2+x,y,-z
1/2-x,1/2+y,z
1/2+x,-y,z
loop_
_atom_site_type_symbol
_atom_site_label
_atom_site_fract_x
_atom_site_fract_y
_atom_site_fract_z
Si Si1 0.571488 0.577345 0.357852
Si Si2 0.069411 0.830099 0.452215
Si Si3 0.851449 0.163943 0.208408
Si Si4 0.162921 0.164319 0.986990
Si Si5 0.385193 0.430461 0.291604
Si Si6 0.431022 0.938489 0.921894
Si Si7 0.719202 0.163381 0.214634
O O1 0.500000 0.568184 0.351815
O O2 0.587187 0.620700 0.456284
O O3 0.598340 0.622791 0.267338
O O4 0.605380 0.501125 0.357555
O O5 0.096022 0.750000 0.458046
O O6 0.081760 0.866977 0.348839
O O7 0.000000 0.824069 0.462149
O O8 0.864996 0.250000 0.206817
O O9 0.785741 0.155644 0.250303
O O10 0.841593 0.135875 0.097582
O O11 0.167425 0.250000 0.997750
O O12 0.102430 0.136237 0.941793
O O13 0.210621 0.146537 0.902560
O O14 0.413841 0.455428 0.189270
O O15 0.322705 0.394112 0.267926
O O16 0.500000 0.930679 0.931463
O O17 0.411941 0.000000 0.000000
O O18 0.703359 0.250000 0.225239
#
# Coordination Sequence:
#
# PCOD9502289 Si02
#       7
#    16  16  16  16  16  16  16
#     4  11  23  38  57  84 116 148 187 235 286 345
#     4  10  21  38  60  85 112 145 190 241 288 337
#     4  10  20  36  58  81 111 153 193 235 290 341
#     4   9  18  32  52  78 108 145 189 236 283 335
#     4  11  21  36  59  83 112 150 188 229 285 343
#     4  10  20  33  49  76 115 153 187 226 275 333
#     4   9  19  36  57  83 113 146 191 241 284 336
#
# _framework density 19.446560999999999
#
# number of rings (size 3 to 8) (size 9 to 14) (size 15 to 20)
#    0.000    2.000    0.000    3.857    0.000    6.857 
#    0.000    2.143    0.000    6.857    0.000    0.000 
#    0.000    0.000    0.000    0.000    0.000    0.000 
#
# Total GULP energy -311881.721312 kJ/mol
# GULP energy per Si atom -5569.316452 kJ/mol
# Density = 1.940230 g / cm^3
# Si number density = 19.446561 Si / 1000 Ang^3
#
#
#
# Elastic Constant Matrix: (Units=GPa)
#
#
# Indices 1 2 3 4 5 6 
#
# 1 41.0389 26.8878 8.2940 0.0000 0.0000 0.0000
# 2 26.8878 37.1366 54.0085 0.0000 0.0000 0.0000
# 3 8.2940 54.0085 69.2470 0.0000 0.0000 0.0000
# 4 0.0000 0.0000 0.0000 4.9401 0.0000 0.0000
# 5 0.0000 0.0000 0.0000 0.0000 19.6411 0.0000
# 6 0.0000 0.0000 0.0000 0.0000 0.0000 12.4862
#
#
#
# Elastic Compliance Matrix: (Units=1/GPa)
#
#
# Indices 1 2 3 4 5 6 
#
# 1 0.008087 0.033114 -0.026795 0.000000 0.000000 0.000000
# 2 0.033114 -0.064942 0.046685 0.000000 0.000000 0.000000
# 3 -0.026795 0.046685 -0.018761 0.000000 0.000000 0.000000
# 4 0.000000 0.000000 0.000000 0.202427 0.000000 0.000000
# 5 0.000000 0.000000 0.000000 0.000000 0.050914 0.000000
# 6 0.000000 0.000000 0.000000 0.000000 0.000000 0.080088
#
#
# Mechanical properties :
#
#
# Convention : Reuss Voigt Hill
#
# Bulk Modulus (GPa) = 32.90508 36.20033 34.55270
# Shear Modulus (GPa) = 30.87620 11.29562 21.08591
#
# Velocity S-wave (km/s) = 3.98898 2.41271 3.29644
# Velocity P-wave (km/s) = 6.17846 5.13977 5.68290
#
# Compressibility (1/GPa) = 0.03039044
#
# Stress axis : x y z
#
# Youngs Moduli (GPa) = 123.65234 -15.39835 -53.30225
#
# Poissons Ratio (x) = 0.50989 -1.42824
# Poissons Ratio (y) = -4.09456 2.48840
# Poissons Ratio (z) = 3.31329 0.71887
#
# Static dielectric constant tensor:
#      x y z
#    x 1.674780 0.000000 0.000000 
#    y 0.000000 1.712230 0.000000 
#    z 0.000000 0.000000 1.749050 
# 
# From -- ./inp_files/22143.got.cif
#   From: 2010.05.17/outbox.cif.g08.bks.cpg/sg67_12_cif.got.tgz:22143.got - 2010.06.03 18:28:57.
