data_PCOD9502984
_publ_section_title
;
Structure prediction by ZEFSAII (Michael W. Deem and Ramdas Pophale) SiO2 
 PCOD9502984
Probable space group: C M M A
;
_chemical_formula_sum "Si O2"
_cell_formula_units_Z 96
_cell_length_a 20.704191
_cell_length_b 24.428260
_cell_length_c 9.650273
_cell_angle_alpha 90.000000
_cell_angle_beta 90.000000
_cell_angle_gamma 90.000000
_cell_volume 4880.793107
_symmetry_space_group_name_H-M "C M M A"
_symmetry_group_IT_number 67
_symmetry_cell_setting 'orthorhombic'
loop_
_space_group_symop_operation_xyz
x,y,z
-x,1/2-y,z
x,-y,-z
-x,1/2+y,-z
-x,-y,-z
x,1/2+y,-z
-x,y,z
x,1/2-y,z
1/2+x,1/2+y,z
1/2-x,-y,z
1/2+x,1/2-y,-z
1/2-x,y,-z
1/2-x,1/2-y,-z
1/2+x,y,-z
1/2-x,1/2+y,z
1/2+x,-y,z
loop_
_atom_site_type_symbol
_atom_site_label
_atom_site_fract_x
_atom_site_fract_y
_atom_site_fract_z
Si Si1 0.653030 0.940788 0.559387
Si Si2 0.792094 0.313151 0.860864
Si Si3 0.384922 0.925465 0.108984
Si Si4 0.425559 0.812923 0.013029
Si Si5 0.073711 0.041815 0.812554
Si Si6 0.725013 0.595519 0.304358
O O1 0.598459 0.929807 0.672990
O O2 0.673308 0.901866 0.431137
O O3 0.718950 0.944685 0.646628
O O4 0.637084 0.000000 0.500000
O O5 0.781988 0.250000 0.825415
O O6 0.867629 0.319901 0.901348
O O7 0.763814 0.350512 0.739777
O O8 0.750000 0.324276 0.000000
O O9 0.314180 0.924083 0.172299
O O10 0.420414 0.975436 0.187701
O O11 0.414277 0.864046 0.117307
O O12 0.386260 0.939974 0.946793
O O13 0.500000 0.816637 0.962987
O O14 0.417280 0.750000 0.067196
O O15 0.000000 0.056060 0.841490
#
# Coordination Sequence:
#
# PCOD9502984 Si02
#       6
#    16  16  16  16  16  16
#     4  11  24  42  58  82 121 166 210 250 304 383
#     4  10  20  36  61  94 126 159 206 266 325 372
#     4  11  21  37  62  92 122 157 206 267 320 370
#     4  10  20  35  57  90 130 164 200 257 327 388
#     4  11  24  40  60  89 126 162 206 264 322 389
#     4  11  22  38  61  87 121 160 207 260 306 374
#
# _framework density 19.668935000000001
#
# number of rings (size 3 to 8) (size 9 to 14) (size 15 to 20)
#    0.000    1.333    3.333    4.000    0.000    0.333 
#    0.000    5.000    0.000    1.000    0.000    0.000 
#    0.000    0.000    0.000    0.000    0.000    0.000 
#
# Total GULP energy -267484.750895 kJ/mol
# GULP energy per Si atom -5572.598977 kJ/mol
# Density = 1.962417 g / cm^3
# Si number density = 19.668935 Si / 1000 Ang^3
#
#
#
# Elastic Constant Matrix: (Units=GPa)
#
#
# Indices 1 2 3 4 5 6 
#
# 1 71.5214 2.8327 43.9471 0.0000 0.0000 0.0000
# 2 2.8327 82.4914 17.7302 0.0000 0.0000 0.0000
# 3 43.9471 17.7302 76.6206 0.0000 0.0000 0.0000
# 4 0.0000 0.0000 0.0000 21.1730 0.0000 0.0000
# 5 0.0000 0.0000 0.0000 0.0000 8.3585 0.0000
# 6 0.0000 0.0000 0.0000 0.0000 0.0000 22.3099
#
#
#
# Elastic Compliance Matrix: (Units=1/GPa)
#
#
# Indices 1 2 3 4 5 6 
#
# 1 0.021916 0.002051 -0.013045 0.000000 0.000000 0.000000
# 2 0.002051 0.012949 -0.004173 0.000000 0.000000 0.000000
# 3 -0.013045 -0.004173 0.021499 0.000000 0.000000 0.000000
# 4 0.000000 0.000000 0.000000 0.047230 0.000000 0.000000
# 5 0.000000 0.000000 0.000000 0.000000 0.119639 0.000000
# 6 0.000000 0.000000 0.000000 0.000000 0.000000 0.044823
#
#
# Mechanical properties :
#
#
# Convention : Reuss Voigt Hill
#
# Bulk Modulus (GPa) = 38.41604 39.96147 39.18876
# Shear Modulus (GPa) = 16.28311 21.44318 18.86315
#
# Velocity S-wave (km/s) = 2.88038 3.30541 3.10018
# Velocity P-wave (km/s) = 5.53496 5.91006 5.72558
#
# Compressibility (1/GPa) = 0.02603079
#
# Stress axis : x y z
#
# Youngs Moduli (GPa) = 45.62815 77.22635 46.51332
#
# Poissons Ratio (x) = -0.15841 0.60677
# Poissons Ratio (y) = -0.09359 0.19410
# Poissons Ratio (z) = 0.59523 0.32226
#
# Static dielectric constant tensor:
#      x y z
#    x 1.712100 0.000000 0.000000 
#    y 0.000000 1.763070 0.000000 
#    z 0.000000 0.000000 1.710960 
# 
# From -- ./inp_files/11455.got.cif
#   From: 2010.05.17/outbox.cif.g08.bks.cpg/sg67_6_cif.got.tgz:11455.got - 2010.06.03 18:28:57.
