data_PCOD9502731
_publ_section_title
;
Structure prediction by ZEFSAII (Michael W. Deem and Ramdas Pophale) SiO2 
 PCOD9502731
Probable space group: C M M A
;
_chemical_formula_sum "Si O2"
_cell_formula_units_Z 112
_cell_length_a 15.540158
_cell_length_b 29.522442
_cell_length_c 12.535479
_cell_angle_alpha 90.000000
_cell_angle_beta 90.000000
_cell_angle_gamma 90.000000
_cell_volume 5751.069842
_symmetry_space_group_name_H-M "C M M A"
_symmetry_group_IT_number 67
_symmetry_cell_setting 'orthorhombic'
loop_
_space_group_symop_operation_xyz
x,y,z
-x,1/2-y,z
x,-y,-z
-x,1/2+y,-z
-x,-y,-z
x,1/2+y,-z
-x,y,z
x,1/2-y,z
1/2+x,1/2+y,z
1/2-x,-y,z
1/2+x,1/2-y,-z
1/2-x,y,-z
1/2-x,1/2-y,-z
1/2+x,y,-z
1/2-x,1/2+y,z
1/2+x,-y,z
loop_
_atom_site_type_symbol
_atom_site_label
_atom_site_fract_x
_atom_site_fract_y
_atom_site_fract_z
Si Si1 0.405369 0.819578 0.812138
Si Si2 0.403405 0.646883 0.051229
Si Si3 0.403213 0.548808 0.504335
Si Si4 0.358501 0.915890 0.731146
Si Si5 0.201735 0.873523 0.608311
Si Si6 0.150069 0.049100 0.966206
Si Si7 0.707111 0.301809 0.776417
O O1 0.500000 0.799382 0.786995
O O2 0.405129 0.869575 0.762009
O O3 0.312101 0.800685 0.777170
O O4 0.400309 0.826182 0.939492
O O5 0.500000 0.652294 0.096862
O O6 0.330443 0.667951 0.126732
O O7 0.389582 0.593909 0.021603
O O8 0.357658 0.500000 0.500000
O O9 0.500000 0.543139 0.465137
O O10 0.400830 0.561914 0.628406
O O11 0.363457 0.588932 0.434915
O O12 0.264665 0.900246 0.689598
O O13 0.356108 0.945053 0.838481
O O14 0.250000 0.859088 0.500000
O O15 0.174931 0.828826 0.671894
O O16 0.250000 0.049971 0.000000
O O17 0.114315 0.000000 0.000000
O O18 0.676911 0.250000 0.783700
#
# Coordination Sequence:
#
# PCOD9502731 Si02
#       7
#    16  16  16  16  16  16  16
#     4   9  18  35  59  82 109 148 191 240 297 355
#     4  10  21  37  55  79 116 158 198 239 288 351
#     4  10  21  35  54  82 112 146 194 248 295 342
#     4   9  18  34  55  78 111 148 186 233 289 351
#     4   9  20  38  58  78 104 144 188 236 293 346
#     4  10  20  34  56  86 119 154 194 240 294 358
#     4  11  23  38  58  85 117 152 195 248 302 357
#
# _framework density 19.474637000000001
#
# number of rings (size 3 to 8) (size 9 to 14) (size 15 to 20)
#    0.000    2.286    0.000    3.429    0.000    9.429 
#    0.000    2.857    0.000    0.000    0.000    2.000 
#    0.000    0.000    0.000    0.000    0.000    0.000 
#
# Total GULP energy -312001.283951 kJ/mol
# GULP energy per Si atom -5571.451499 kJ/mol
# Density = 1.943031 g / cm^3
# Si number density = 19.474637 Si / 1000 Ang^3
#
#
#
# Elastic Constant Matrix: (Units=GPa)
#
#
# Indices 1 2 3 4 5 6 
#
# 1 78.0720 20.7758 25.3218 0.0000 0.0000 0.0000
# 2 20.7758 111.7588 61.2672 0.0000 0.0000 0.0000
# 3 25.3218 61.2672 101.4153 0.0000 0.0000 0.0000
# 4 0.0000 0.0000 0.0000 -4.5622 0.0000 0.0000
# 5 0.0000 0.0000 0.0000 0.0000 -31.0290 0.0000
# 6 0.0000 0.0000 0.0000 0.0000 0.0000 -5.7389
#
#
#
# Elastic Compliance Matrix: (Units=1/GPa)
#
#
# Indices 1 2 3 4 5 6 
#
# 1 0.014016 -0.001027 -0.002879 0.000000 0.000000 0.000000
# 2 -0.001027 0.013454 -0.007871 0.000000 0.000000 0.000000
# 3 -0.002879 -0.007871 0.015335 0.000000 0.000000 0.000000
# 4 0.000000 0.000000 0.000000 -0.219190 0.000000 0.000000
# 5 0.000000 0.000000 0.000000 0.000000 -0.032228 0.000000
# 6 0.000000 0.000000 0.000000 0.000000 0.000000 -0.174251
#
#
# Mechanical properties :
#
#
# Convention : Reuss Voigt Hill
#
# Bulk Modulus (GPa) = 51.95019 56.21953 54.08486
# Shear Modulus (GPa) = -14.16859 3.99272 -5.08793
#
# Velocity S-wave (km/s) = -2.70022 1.43341 -1.61811
# Velocity P-wave (km/s) = 4.12458 5.62764 4.93368
#
# Compressibility (1/GPa) = 0.01924921
#
# Stress axis : x y z
#
# Youngs Moduli (GPa) = 71.34797 74.32761 65.21231
#
# Poissons Ratio (x) = 0.07635 0.18774
# Poissons Ratio (y) = 0.07329 0.51331
# Poissons Ratio (z) = 0.20541 0.58506
#
# Static dielectric constant tensor:
#      x y z
#    x 1.725370 0.000000 0.000000 
#    y 0.000000 1.711190 0.000000 
#    z 0.000000 0.000000 1.658960 
# 
# From -- ./inp_files/18622.got.cif
#   From: 2010.05.17/outbox.cif.g08.bks.cpg/sg67_10_cif.got.tgz:18622.got - 2010.06.03 18:28:57.
