data_PCOD9502862
_publ_section_title
;
Structure prediction by ZEFSAII (Michael W. Deem and Ramdas Pophale) SiO2 
 PCOD9502862
Probable space group: C M M A
;
_chemical_formula_sum "Si O2"
_cell_formula_units_Z 64
_cell_length_a 14.695189
_cell_length_b 9.669039
_cell_length_c 19.480791
_cell_angle_alpha 90.000000
_cell_angle_beta 90.000000
_cell_angle_gamma 90.000000
_cell_volume 2767.993558
_symmetry_space_group_name_H-M "C M M A"
_symmetry_group_IT_number 67
_symmetry_cell_setting 'orthorhombic'
loop_
_space_group_symop_operation_xyz
x,y,z
-x,1/2-y,z
x,-y,-z
-x,1/2+y,-z
-x,-y,-z
x,1/2+y,-z
-x,y,z
x,1/2-y,z
1/2+x,1/2+y,z
1/2-x,-y,z
1/2+x,1/2-y,-z
1/2-x,y,-z
1/2-x,1/2-y,-z
1/2+x,y,-z
1/2-x,1/2+y,z
1/2+x,-y,z
loop_
_atom_site_type_symbol
_atom_site_label
_atom_site_fract_x
_atom_site_fract_y
_atom_site_fract_z
Si Si1 0.392150 0.101201 0.315236
Si Si2 0.388657 0.250000 0.891827
Si Si3 0.888889 0.750000 0.048685
Si Si4 0.345749 0.582225 0.436635
Si Si5 0.111422 0.962356 0.163715
O O1 0.500000 0.114027 0.308838
O O2 0.357876 0.250000 0.345028
O O3 0.381038 0.967235 0.362839
O O4 0.355693 0.086415 0.237978
O O5 0.500000 0.250000 0.894169
O O6 0.359716 0.116906 0.850478
O O7 0.356798 0.250000 0.970648
O O8 0.861523 0.622212 0.096286
O O9 0.000000 0.750000 0.044744
O O10 0.393941 0.500000 0.500000
O O11 0.343489 0.750000 0.445459
O O12 0.250000 0.500000 0.434844
O O13 0.000000 0.954428 0.165310
#
# Coordination Sequence:
#
# PCOD9502862 Si02
#       5
#    16   8   8  16  16
#     4  10  20  35  55  80 115 153 186 224 272 325
#     4   9  16  22  36  60  94 135 182 226 263 317
#     4   9  14  24  38  58  90 139 184 218 265 317
#     4  11  23  41  64  86 111 141 178 223 270 323
#     4   9  16  26  40  63  99 140 179 221 268 315
#
# _framework density 23.121441000000001
#
# number of rings (size 3 to 8) (size 9 to 14) (size 15 to 20)
#    0.000    2.250    1.250    3.750    1.750    4.000 
#    0.000    0.000    0.000    0.000    0.000    0.000 
#    0.000    6.000    0.000    0.000    0.000    0.000 
#
# Total GULP energy -178361.476028 kJ/mol
# GULP energy per Si atom -5573.796126 kJ/mol
# Density = 2.306882 g / cm^3
# Si number density = 23.121441 Si / 1000 Ang^3
#
#
#
# Elastic Constant Matrix: (Units=GPa)
#
#
# Indices 1 2 3 4 5 6 
#
# 1 38.4976 2.1724 4.2692 0.0000 0.0000 0.0000
# 2 2.1724 223.3695 64.8388 0.0000 0.0000 0.0000
# 3 4.2692 64.8388 126.1257 0.0000 0.0000 0.0000
# 4 0.0000 0.0000 0.0000 30.2707 0.0000 0.0000
# 5 0.0000 0.0000 0.0000 0.0000 17.9070 0.0000
# 6 0.0000 0.0000 0.0000 0.0000 0.0000 0.9047
#
#
#
# Elastic Compliance Matrix: (Units=1/GPa)
#
#
# Indices 1 2 3 4 5 6 
#
# 1 0.026074 0.000003 -0.000884 0.000000 0.000000 0.000000
# 2 0.000003 0.005262 -0.002705 0.000000 0.000000 0.000000
# 3 -0.000884 -0.002705 0.009349 0.000000 0.000000 0.000000
# 4 0.000000 0.000000 0.000000 0.033035 0.000000 0.000000
# 5 0.000000 0.000000 0.000000 0.000000 0.055844 0.000000
# 6 0.000000 0.000000 0.000000 0.000000 0.000000 1.105339
#
#
# Mechanical properties :
#
#
# Convention : Reuss Voigt Hill
#
# Bulk Modulus (GPa) = 29.83987 58.95040 44.39513
# Shear Modulus (GPa) = 3.98964 30.93064 17.46014
#
# Velocity S-wave (km/s) = 1.31501 3.66149 2.75098
# Velocity P-wave (km/s) = 3.90377 6.58989 5.41600
#
# Compressibility (1/GPa) = 0.03351221
#
# Stress axis : x y z
#
# Youngs Moduli (GPa) = 38.35311 190.03708 106.96044
#
# Poissons Ratio (x) = -0.00058 0.09457
# Poissons Ratio (y) = -0.00012 0.28936
# Poissons Ratio (z) = 0.03391 0.51410
#
# Static dielectric constant tensor:
#      x y z
#    x 2.035460 0.000000 0.000000 
#    y 0.000000 2.352870 0.000000 
#    z 0.000000 0.000000 1.910850 
# 
# From -- ./inp_files/31917.got.cif
#   From: 2010.05.17/outbox.cif.g08.bks.cpg/sg67_16_cif.got.tgz:31917.got - 2010.06.03 18:28:57.
