data_PCOD9502911
_publ_section_title
;
Structure prediction by ZEFSAII (Michael W. Deem and Ramdas Pophale) SiO2 
 PCOD9502911
Probable space group: C M M A
;
_chemical_formula_sum "Si O2"
_cell_formula_units_Z 96
_cell_length_a 18.821079
_cell_length_b 8.881725
_cell_length_c 31.913872
_cell_angle_alpha 90.000000
_cell_angle_beta 90.000000
_cell_angle_gamma 90.000000
_cell_volume 5334.839262
_symmetry_space_group_name_H-M "C M M A"
_symmetry_group_IT_number 67
_symmetry_cell_setting 'orthorhombic'
loop_
_space_group_symop_operation_xyz
x,y,z
-x,1/2-y,z
x,-y,-z
-x,1/2+y,-z
-x,-y,-z
x,1/2+y,-z
-x,y,z
x,1/2-y,z
1/2+x,1/2+y,z
1/2-x,-y,z
1/2+x,1/2-y,-z
1/2-x,y,-z
1/2-x,1/2-y,-z
1/2+x,y,-z
1/2-x,1/2+y,z
1/2+x,-y,z
loop_
_atom_site_type_symbol
_atom_site_label
_atom_site_fract_x
_atom_site_fract_y
_atom_site_fract_z
Si Si1 0.586411 0.076681 0.205215
Si Si2 0.914503 0.926000 0.881648
Si Si3 0.671913 0.067881 0.625519
Si Si4 0.583349 0.930984 0.292502
Si Si5 0.171737 0.070290 0.956209
Si Si6 0.917273 0.931308 0.544226
O O1 0.500000 0.072899 0.205686
O O2 0.608675 0.250000 0.201678
O O3 0.608392 0.984117 0.164220
O O4 0.608945 0.005872 0.249377
O O5 0.897013 0.750000 0.886586
O O6 0.000000 0.941872 0.884271
O O7 0.877538 0.021281 0.917874
O O8 0.675534 0.250000 0.625280
O O9 0.628402 0.023298 0.667071
O O10 0.629641 0.020786 0.583714
O O11 0.750000 0.000000 0.626019
O O12 0.500000 0.968946 0.298848
O O13 0.587384 0.750000 0.288097
O O14 0.176577 0.250000 0.959705
O O15 0.250000 0.000000 0.949644
O O16 0.144800 0.000000 0.000000
O O17 0.914466 0.750000 0.541525
O O18 0.000000 0.973962 0.550787
O O19 0.893619 0.000000 0.500000
#
# Coordination Sequence:
#
# PCOD9502911 Si02
#       6
#    16  16  16  16  16  16
#     4   9  17  30  50  78 108 135 167 212 264 312
#     4  10  20  35  56  82 111 142 178 220 266 316
#     4  10  21  35  51  73 103 136 168 206 253 304
#     4   9  17  32  54  75  96 129 172 212 251 300
#     4  11  22  38  58  79 107 142 181 222 266 318
#     4   9  18  34  55  77 100 129 168 211 252 297
#
# _framework density 17.994918999999999
#
# number of rings (size 3 to 8) (size 9 to 14) (size 15 to 20)
#    0.000    2.333    0.000    3.500    0.000    7.000 
#    0.000    2.500    0.000    7.000    0.000    0.000 
#    0.000    0.000    0.000    0.000    0.000    0.000 
#
# Total GULP energy -267878.993915 kJ/mol
# GULP energy per Si atom -5580.812373 kJ/mol
# Density = 1.795396 g / cm^3
# Si number density = 17.994919 Si / 1000 Ang^3
#
#
#
# Elastic Constant Matrix: (Units=GPa)
#
#
# Indices 1 2 3 4 5 6 
#
# 1 49.3086 35.6281 64.0887 0.0000 0.0000 0.0000
# 2 35.6281 86.5879 67.9924 0.0000 0.0000 0.0000
# 3 64.0887 67.9924 178.7068 0.0000 0.0000 0.0000
# 4 0.0000 0.0000 0.0000 33.7678 0.0000 0.0000
# 5 0.0000 0.0000 0.0000 0.0000 -15.6516 0.0000
# 6 0.0000 0.0000 0.0000 0.0000 0.0000 26.3414
#
#
#
# Elastic Compliance Matrix: (Units=1/GPa)
#
#
# Indices 1 2 3 4 5 6 
#
# 1 0.041250 -0.007639 -0.011887 0.000000 0.000000 0.000000
# 2 -0.007639 0.017884 -0.004065 0.000000 0.000000 0.000000
# 3 -0.011887 -0.004065 0.011405 0.000000 0.000000 0.000000
# 4 0.000000 0.000000 0.000000 0.029614 0.000000 0.000000
# 5 0.000000 0.000000 0.000000 0.000000 -0.063891 0.000000
# 6 0.000000 0.000000 0.000000 0.000000 0.000000 0.037963
#
#
# Mechanical properties :
#
#
# Convention : Reuss Voigt Hill
#
# Bulk Modulus (GPa) = 42.81203 72.22464 57.51834
# Shear Modulus (GPa) = 38.70202 18.68446 28.69324
#
# Velocity S-wave (km/s) = 4.64262 3.22579 3.99747
# Velocity P-wave (km/s) = 7.25130 7.35510 7.30339
#
# Compressibility (1/GPa) = 0.02335792
#
# Stress axis : x y z
#
# Youngs Moduli (GPa) = 24.24245 55.91603 87.67924
#
# Poissons Ratio (x) = 0.42714 1.04223
# Poissons Ratio (y) = 0.18519 0.35640
# Poissons Ratio (z) = 0.28817 0.22729
#
# Static dielectric constant tensor:
#      x y z
#    x 1.597030 0.000000 0.000000 
#    y 0.000000 1.607970 0.000000 
#    z 0.000000 0.000000 1.602690 
# 
# From -- ./inp_files/43518.got.cif
#   From: 2010.05.17/outbox.cif.g08.bks.cpg/sg67_22_cif.got.tgz:43518.got - 2010.06.03 18:28:57.
