data_PCOD9502989
_publ_section_title
;
Structure prediction by ZEFSAII (Michael W. Deem and Ramdas Pophale) SiO2 
 PCOD9502989
Probable space group: C M M A
;
_chemical_formula_sum "Si O2"
_cell_formula_units_Z 64
_cell_length_a 32.657897
_cell_length_b 10.436235
_cell_length_c 7.161338
_cell_angle_alpha 90.000000
_cell_angle_beta 90.000000
_cell_angle_gamma 90.000000
_cell_volume 2440.766516
_symmetry_space_group_name_H-M "C M M A"
_symmetry_group_IT_number 67
_symmetry_cell_setting 'orthorhombic'
loop_
_space_group_symop_operation_xyz
x,y,z
-x,1/2-y,z
x,-y,-z
-x,1/2+y,-z
-x,-y,-z
x,1/2+y,-z
-x,y,z
x,1/2-y,z
1/2+x,1/2+y,z
1/2-x,-y,z
1/2+x,1/2-y,-z
1/2-x,y,-z
1/2-x,1/2-y,-z
1/2+x,y,-z
1/2-x,1/2+y,z
1/2+x,-y,z
loop_
_atom_site_type_symbol
_atom_site_label
_atom_site_fract_x
_atom_site_fract_y
_atom_site_fract_z
Si Si1 0.545937 0.750000 0.957590
Si Si2 0.692201 0.250000 0.703747
Si Si3 0.927900 0.083855 0.635926
Si Si4 0.950045 0.250000 0.359061
Si Si5 0.166145 0.982617 0.292408
Si Si6 0.212388 0.250000 0.743856
O O1 0.500000 0.750000 0.027730
O O2 0.550882 0.876125 0.829877
O O3 0.569243 0.750000 0.152619
O O4 0.668161 0.373369 0.774440
O O5 0.739328 0.250000 0.765014
O O6 0.697046 0.250000 0.475383
O O7 0.927488 0.250000 0.568151
O O8 0.941207 0.921700 0.599826
O O9 0.879712 0.065825 0.676853
O O10 0.000000 0.250000 0.397898
O O11 0.185413 0.000000 0.500000
O O12 0.192620 0.880052 0.182930
#
# Coordination Sequence:
#
# PCOD9502989 Si02
#       6
#     8   8  16   8  16   8
#     4  10  22  39  58  84 116 150 199 261 315 368
#     4   9  16  24  40  74 117 159 197 247 308 358
#     4  10  20  35  58  83 115 156 197 248 311 373
#     4  10  22  39  58  84 116 150 199 261 315 368
#     4   9  17  28  46  74 114 158 200 248 302 362
#     4   9  14  24  42  68 111 161 199 245 304 354
#
# _framework density 26.221270000000001
#
# number of rings (size 3 to 8) (size 9 to 14) (size 15 to 20)
#    0.000    2.500    0.000    3.750    0.000   12.000 
#    0.000    2.500    0.000    0.000    0.000    0.000 
#    0.000   32.000    0.000  420.500    0.000    0.000 
#
# Total GULP energy -178233.714626 kJ/mol
# GULP energy per Si atom -5569.803582 kJ/mol
# Density = 2.616159 g / cm^3
# Si number density = 26.221270 Si / 1000 Ang^3
#
#
#
# Elastic Constant Matrix: (Units=GPa)
#
#
# Indices 1 2 3 4 5 6 
#
# 1 95.9233 70.4749 12.2496 0.0000 0.0000 0.0000
# 2 70.4749 237.9818 50.4615 0.0000 0.0000 0.0000
# 3 12.2496 50.4615 117.3053 0.0000 0.0000 0.0000
# 4 0.0000 0.0000 0.0000 5.4369 0.0000 0.0000
# 5 0.0000 0.0000 0.0000 0.0000 25.2338 0.0000
# 6 0.0000 0.0000 0.0000 0.0000 0.0000 79.3112
#
#
#
# Elastic Compliance Matrix: (Units=1/GPa)
#
#
# Indices 1 2 3 4 5 6 
#
# 1 0.013336 -0.004021 0.000337 0.000000 0.000000 0.000000
# 2 -0.004021 0.005836 -0.002091 0.000000 0.000000 0.000000
# 3 0.000337 -0.002091 0.009389 0.000000 0.000000 0.000000
# 4 0.000000 0.000000 0.000000 0.183928 0.000000 0.000000
# 5 0.000000 0.000000 0.000000 0.000000 0.039629 0.000000
# 6 0.000000 0.000000 0.000000 0.000000 0.000000 0.012609
#
#
# Mechanical properties :
#
#
# Convention : Reuss Voigt Hill
#
# Bulk Modulus (GPa) = 58.78140 79.73137 69.25639
# Shear Modulus (GPa) = 17.73391 43.19801 30.46596
#
# Velocity S-wave (km/s) = 2.60343 4.06327 3.41233
# Velocity P-wave (km/s) = 5.61278 7.24477 6.48035
#
# Compressibility (1/GPa) = 0.01701218
#
# Stress axis : x y z
#
# Youngs Moduli (GPa) = 74.98514 171.35107 106.50879
#
# Poissons Ratio (x) = 0.68895 -0.03589
# Poissons Ratio (y) = 0.30149 0.22267
# Poissons Ratio (z) = -0.02527 0.35823
#
# Static dielectric constant tensor:
#      x y z
#    x 1.942420 0.000000 0.000000 
#    y 0.000000 3.686810 0.000000 
#    z 0.000000 0.000000 2.039290 
# 
# From -- ./inp_files/30976.got.cif
#   From: 2010.05.17/outbox.cif.g08.bks.cpg/sg67_16_cif.got.tgz:30976.got - 2010.06.03 18:28:57.
