data_PCOD9502843
_publ_section_title
;
Structure prediction by ZEFSAII (Michael W. Deem and Ramdas Pophale) SiO2 
 PCOD9502843
Probable space group: C M M A
;
_chemical_formula_sum "Si O2"
_cell_formula_units_Z 96
_cell_length_a 16.635558
_cell_length_b 24.066127
_cell_length_c 12.332373
_cell_angle_alpha 90.000000
_cell_angle_beta 90.000000
_cell_angle_gamma 90.000000
_cell_volume 4937.308096
_symmetry_space_group_name_H-M "C M M A"
_symmetry_group_IT_number 67
_symmetry_cell_setting 'orthorhombic'
loop_
_space_group_symop_operation_xyz
x,y,z
-x,1/2-y,z
x,-y,-z
-x,1/2+y,-z
-x,-y,-z
x,1/2+y,-z
-x,y,z
x,1/2-y,z
1/2+x,1/2+y,z
1/2-x,-y,z
1/2+x,1/2-y,-z
1/2-x,y,-z
1/2-x,1/2-y,-z
1/2+x,y,-z
1/2-x,1/2+y,z
1/2+x,-y,z
loop_
_atom_site_type_symbol
_atom_site_label
_atom_site_fract_x
_atom_site_fract_y
_atom_site_fract_z
Si Si1 0.692163 0.686940 0.228714
Si Si2 0.595145 0.862704 0.411553
Si Si3 0.856444 0.313688 0.634112
Si Si4 0.244700 0.919416 0.876902
Si Si5 0.912497 0.419631 0.756353
Si Si6 0.665919 0.023699 0.668495
O O1 0.686450 0.750000 0.191528
O O2 0.615936 0.668470 0.299442
O O3 0.767921 0.682211 0.312348
O O4 0.710010 0.642885 0.134777
O O5 0.500000 0.864435 0.431414
O O6 0.638893 0.830024 0.508421
O O7 0.631317 0.924489 0.397199
O O8 0.883857 0.250000 0.648663
O O9 0.907410 0.361600 0.692573
O O10 0.335930 0.919473 0.834308
O O11 0.190979 0.953630 0.789573
O O12 0.250000 0.938095 0.000000
O O13 0.895298 0.472682 0.679478
O O14 0.000000 0.425586 0.807628
O O15 0.750000 0.000000 0.624382
#
# Coordination Sequence:
#
# PCOD9502843 Si02
#       6
#    16  16  16  16  16  16
#     4   9  19  35  54  77 107 144 181 216 258 314
#     4  11  21  33  53  82 113 142 176 219 265 312
#     4  10  21  37  56  77 105 144 184 216 253 310
#     4   9  19  37  57  77 103 137 178 221 266 320
#     4  10  20  35  55  79 105 133 173 223 268 309
#     4   9  20  37  54  75 107 143 177 215 263 323
#
# _framework density 19.443794
#
# number of rings (size 3 to 8) (size 9 to 14) (size 15 to 20)
#    0.000    2.333    0.000    3.000    0.000    7.667 
#    0.000   10.833    0.000    0.000    0.000    0.000 
#    0.000    0.000    0.000    0.000    0.000    0.000 
#
# Total GULP energy -267796.034230 kJ/mol
# GULP energy per Si atom -5579.084046 kJ/mol
# Density = 1.939954 g / cm^3
# Si number density = 19.443794 Si / 1000 Ang^3
#
#
#
# Elastic Constant Matrix: (Units=GPa)
#
#
# Indices 1 2 3 4 5 6 
#
# 1 55.4221 24.8162 5.7051 0.0000 0.0000 0.0000
# 2 24.8162 155.1638 22.2750 0.0000 0.0000 0.0000
# 3 5.7051 22.2750 64.8595 0.0000 0.0000 0.0000
# 4 0.0000 0.0000 0.0000 4.4376 0.0000 0.0000
# 5 0.0000 0.0000 0.0000 0.0000 7.4357 0.0000
# 6 0.0000 0.0000 0.0000 0.0000 0.0000 8.2048
#
#
#
# Elastic Compliance Matrix: (Units=1/GPa)
#
#
# Indices 1 2 3 4 5 6 
#
# 1 0.019463 -0.003016 -0.000676 0.000000 0.000000 0.000000
# 2 -0.003016 0.007246 -0.002223 0.000000 0.000000 0.000000
# 3 -0.000676 -0.002223 0.016241 0.000000 0.000000 0.000000
# 4 0.000000 0.000000 0.000000 0.225345 0.000000 0.000000
# 5 0.000000 0.000000 0.000000 0.000000 0.134486 0.000000
# 6 0.000000 0.000000 0.000000 0.000000 0.000000 0.121880
#
#
# Mechanical properties :
#
#
# Convention : Reuss Voigt Hill
#
# Bulk Modulus (GPa) = 32.13391 42.33756 37.23574
# Shear Modulus (GPa) = 9.14302 18.85891 14.00097
#
# Velocity S-wave (km/s) = 2.17083 3.11773 2.68633
# Velocity P-wave (km/s) = 4.77972 5.89762 5.36785
#
# Compressibility (1/GPa) = 0.03111977
#
# Stress axis : x y z
#
# Youngs Moduli (GPa) = 51.37862 138.00121 61.57256
#
# Poissons Ratio (x) = 0.41618 0.04164
# Poissons Ratio (y) = 0.15495 0.13690
# Poissons Ratio (z) = 0.03475 0.30683
#
# Static dielectric constant tensor:
#      x y z
#    x 1.668280 0.000000 0.000000 
#    y 0.000000 1.715210 0.000000 
#    z 0.000000 0.000000 1.686370 
# 
# From -- ./inp_files/19668.got.cif
#   From: 2010.05.17/outbox.cif.g08.bks.cpg/sg67_10_cif.got.tgz:19668.got - 2010.06.03 18:28:57.
