data_PCOD9502712
_publ_section_title
;
Structure prediction by ZEFSAII (Michael W. Deem and Ramdas Pophale) SiO2 
 PCOD9502712
Probable space group: C M M A
;
_chemical_formula_sum "Si O2"
_cell_formula_units_Z 112
_cell_length_a 14.482374
_cell_length_b 14.759191
_cell_length_c 25.085985
_cell_angle_alpha 90.000000
_cell_angle_beta 90.000000
_cell_angle_gamma 90.000000
_cell_volume 5362.082232
_symmetry_space_group_name_H-M "C M M A"
_symmetry_group_IT_number 67
_symmetry_cell_setting 'orthorhombic'
loop_
_space_group_symop_operation_xyz
x,y,z
-x,1/2-y,z
x,-y,-z
-x,1/2+y,-z
-x,-y,-z
x,1/2+y,-z
-x,y,z
x,1/2-y,z
1/2+x,1/2+y,z
1/2-x,-y,z
1/2+x,1/2-y,-z
1/2-x,y,-z
1/2-x,1/2-y,-z
1/2+x,y,-z
1/2-x,1/2+y,z
1/2+x,-y,z
loop_
_atom_site_type_symbol
_atom_site_label
_atom_site_fract_x
_atom_site_fract_y
_atom_site_fract_z
Si Si1 0.887688 0.250000 0.522110
Si Si2 0.388041 0.250000 0.354597
Si Si3 0.353886 0.647430 0.018382
Si Si4 0.394479 0.646945 0.348576
Si Si5 0.389120 0.356789 0.181554
Si Si6 0.224830 0.605054 0.288132
Si Si7 0.895379 0.975859 0.081740
Si Si8 0.387377 0.075641 0.541739
O O1 0.860959 0.250000 0.583522
O O2 0.857871 0.335129 0.488624
O O3 0.000000 0.250000 0.522974
O O4 0.500000 0.250000 0.348629
O O5 0.343265 0.339589 0.327944
O O6 0.390206 0.750000 0.028942
O O7 0.351511 0.571630 0.064917
O O8 0.250000 0.658489 0.000000
O O9 0.398032 0.593100 0.968622
O O10 0.500000 0.622241 0.334655
O O11 0.396819 0.750000 0.370369
O O12 0.325619 0.647130 0.299111
O O13 0.358879 0.582414 0.396525
O O14 0.500000 0.370014 0.192605
O O15 0.378571 0.250000 0.168618
O O16 0.325094 0.380297 0.231741
O O17 0.360101 0.419688 0.132107
O O18 0.250000 0.500000 0.296398
O O19 0.000000 0.000863 0.094584
O O20 0.500000 0.072451 0.544822
O O21 0.358443 0.000000 0.500000
#
# Coordination Sequence:
#
# PCOD9502712 Si02
#       8
#     8   8  16  16  16  16  16  16
#     4   9  18  33  57  88 120 159 207 258 317 393
#     4  11  24  45  70  96 130 175 227 280 338 403
#     4  10  20  34  55  88 134 179 214 253 318 389
#     4  10  20  39  64  89 127 170 208 257 333 414
#     4  10  21  42  69  93 123 168 224 284 341 397
#     4  12  26  42  66  96 127 164 223 284 342 398
#     4  10  20  34  60  94 126 165 216 270 323 384
#     4   9  17  31  55  88 123 164 207 253 320 401
#
# _framework density 20.887409000000002
#
# number of rings (size 3 to 8) (size 9 to 14) (size 15 to 20)
#    0.000    1.857    2.143    2.571    2.000    4.000 
#    0.000    1.429    1.571    0.000    0.000    0.000 
#    0.000    0.000    0.000    0.000    0.000    0.000 
#
# Total GULP energy -312145.426206 kJ/mol
# GULP energy per Si atom -5574.025468 kJ/mol
# Density = 2.083987 g / cm^3
# Si number density = 20.887409 Si / 1000 Ang^3
#
#
#
# Elastic Constant Matrix: (Units=GPa)
#
#
# Indices 1 2 3 4 5 6 
#
# 1 94.2454 39.7910 53.9241 0.0000 0.0000 0.0000
# 2 39.7910 167.0441 57.6698 0.0000 0.0000 0.0000
# 3 53.9241 57.6698 131.8808 0.0000 0.0000 0.0000
# 4 0.0000 0.0000 0.0000 -10.9406 0.0000 0.0000
# 5 0.0000 0.0000 0.0000 0.0000 10.7769 0.0000
# 6 0.0000 0.0000 0.0000 0.0000 0.0000 40.4159
#
#
#
# Elastic Compliance Matrix: (Units=1/GPa)
#
#
# Indices 1 2 3 4 5 6 
#
# 1 0.014216 -0.001625 -0.005102 0.000000 0.000000 0.000000
# 2 -0.001625 0.007237 -0.002500 0.000000 0.000000 0.000000
# 3 -0.005102 -0.002500 0.010762 0.000000 0.000000 0.000000
# 4 0.000000 0.000000 0.000000 -0.091403 0.000000 0.000000
# 5 0.000000 0.000000 0.000000 0.000000 0.092791 0.000000
# 6 0.000000 0.000000 0.000000 0.000000 0.000000 0.024743
#
#
# Mechanical properties :
#
#
# Convention : Reuss Voigt Hill
#
# Bulk Modulus (GPa) = 72.67249 77.32667 74.99958
# Shear Modulus (GPa) = 61.43527 24.16948 42.80238
#
# Velocity S-wave (km/s) = 5.42922 3.40535 4.53171
# Velocity P-wave (km/s) = 8.61220 7.25003 7.96031
#
# Compressibility (1/GPa) = 0.01376037
#
# Stress axis : x y z
#
# Youngs Moduli (GPa) = 70.34382 138.18590 92.91912
#
# Poissons Ratio (x) = 0.22454 0.47408
# Poissons Ratio (y) = 0.11430 0.23231
# Poissons Ratio (z) = 0.35890 0.34548
#
# Static dielectric constant tensor:
#      x y z
#    x 1.797120 0.000000 0.000000 
#    y 0.000000 3.196190 0.000000 
#    z 0.000000 0.000000 1.737020 
# 
# From -- ./inp_files/44390.got.cif
#   From: 2010.05.17/outbox.cif.g08.bks.cpg/sg67_23_cif.got.tgz:44390.got - 2010.06.03 18:28:57.
