data_PCOD9502769
_publ_section_title
;
Structure prediction by ZEFSAII (Michael W. Deem and Ramdas Pophale) SiO2 
 PCOD9502769
Probable space group: C M M A
;
_chemical_formula_sum "Si O2"
_cell_formula_units_Z 116
_cell_length_a 26.690378
_cell_length_b 17.633762
_cell_length_c 10.650506
_cell_angle_alpha 90.000000
_cell_angle_beta 90.000000
_cell_angle_gamma 90.000000
_cell_volume 5012.679536
_symmetry_space_group_name_H-M "C M M A"
_symmetry_group_IT_number 67
_symmetry_cell_setting 'orthorhombic'
loop_
_space_group_symop_operation_xyz
x,y,z
-x,1/2-y,z
x,-y,-z
-x,1/2+y,-z
-x,-y,-z
x,1/2+y,-z
-x,y,z
x,1/2-y,z
1/2+x,1/2+y,z
1/2-x,-y,z
1/2+x,1/2-y,-z
1/2-x,y,-z
1/2-x,1/2-y,-z
1/2+x,y,-z
1/2-x,1/2+y,z
1/2+x,-y,z
loop_
_atom_site_type_symbol
_atom_site_label
_atom_site_fract_x
_atom_site_fract_y
_atom_site_fract_z
Si Si1 0.250000 0.500000 0.000000
Si Si2 0.124849 0.455371 0.630533
Si Si3 0.588450 0.894058 0.268519
Si Si4 0.706772 0.335502 0.314332
Si Si5 0.942102 0.842259 0.004616
Si Si6 0.169239 0.112674 0.936612
Si Si7 0.556757 0.165144 0.469448
Si Si8 0.191770 0.336297 0.217473
O O1 0.208693 0.456441 0.913140
O O2 0.124232 0.500000 0.500000
O O3 0.109400 0.519514 0.731102
O O4 0.174571 0.405257 0.634964
O O5 0.083702 0.389835 0.626392
O O6 0.561369 0.868939 0.141297
O O7 0.558335 0.874246 0.393649
O O8 0.638569 0.844630 0.281229
O O9 0.702612 0.250000 0.370539
O O10 0.686766 0.330512 0.170619
O O11 0.764069 0.362665 0.306729
O O12 0.934424 0.750000 0.011753
O O13 0.000000 0.857751 0.048185
O O14 0.892009 0.883532 0.062690
O O15 0.185001 0.129359 0.079673
O O16 0.500000 0.171540 0.430079
O O17 0.578604 0.250000 0.474890
O O18 0.204796 0.250000 0.193150
#
# Coordination Sequence:
#
# PCOD9502769 Si02
#       8
#     4  16  16  16  16  16  16  16
#     4  12  24  36  60  96 134 172 206 262 308 364
#     4  10  24  40  57  84 118 154 197 255 312 367
#     4  10  20  34  59  87 118 153 196 251 312 377
#     4  11  22  39  64  88 119 164 211 252 305 371
#     4  10  21  38  61  91 128 167 207 256 312 376
#     4  11  22  37  62  93 130 168 209 256 307 375
#     4  10  20  38  62  83 107 146 200 256 308 365
#     4  10  20  35  58  91 125 155 199 252 300 362
#
# _framework density 23.141314999999999
#
# number of rings (size 3 to 8) (size 9 to 14) (size 15 to 20)
#    0.000    1.655    1.379    4.138    3.862    5.793 
#    0.000    5.862    0.000    9.931    0.000    0.000 
#    0.000    0.000    0.000    0.000    0.000    0.000 
#
# Total GULP energy -323154.796913 kJ/mol
# GULP energy per Si atom -5571.634430 kJ/mol
# Density = 2.308864 g / cm^3
# Si number density = 23.141315 Si / 1000 Ang^3
#
#
#
# Elastic Constant Matrix: (Units=GPa)
#
#
# Indices 1 2 3 4 5 6 
#
# 1 157.5539 26.9285 5.7674 0.0000 0.0000 0.0000
# 2 26.9285 93.9179 14.8656 0.0000 0.0000 0.0000
# 3 5.7674 14.8656 9.2593 0.0000 0.0000 0.0000
# 4 0.0000 0.0000 0.0000 8.9672 0.0000 0.0000
# 5 0.0000 0.0000 0.0000 0.0000 19.8584 0.0000
# 6 0.0000 0.0000 0.0000 0.0000 0.0000 14.9437
#
#
#
# Elastic Compliance Matrix: (Units=1/GPa)
#
#
# Indices 1 2 3 4 5 6 
#
# 1 0.006689 -0.001687 -0.001458 0.000000 0.000000 0.000000
# 2 -0.001687 0.014701 -0.022551 0.000000 0.000000 0.000000
# 3 -0.001458 -0.022551 0.145113 0.000000 0.000000 0.000000
# 4 0.000000 0.000000 0.000000 0.111517 0.000000 0.000000
# 5 0.000000 0.000000 0.000000 0.000000 0.050356 0.000000
# 6 0.000000 0.000000 0.000000 0.000000 0.000000 0.066918
#
#
# Mechanical properties :
#
#
# Convention : Reuss Voigt Hill
#
# Bulk Modulus (GPa) = 8.68725 39.53935 24.11330
# Shear Modulus (GPa) = 10.30808 22.96517 16.63662
#
# Velocity S-wave (km/s) = 2.11284 3.15364 2.68417
# Velocity P-wave (km/s) = 3.11677 5.51214 4.47761
#
# Compressibility (1/GPa) = 0.11511128
#
# Stress axis : x y z
#
# Youngs Moduli (GPa) = 149.50481 68.02349 6.89116
#
# Poissons Ratio (x) = 0.11476 0.01004
# Poissons Ratio (y) = 0.25223 0.15540
# Poissons Ratio (z) = 0.21793 1.53401
#
# Static dielectric constant tensor:
#      x y z
#    x 1.900510 0.000000 0.000000 
#    y 0.000000 1.953070 0.000000 
#    z 0.000000 0.000000 1.893920 
# 
# From -- ./inp_files/23037.got.cif
#   From: 2010.05.17/outbox.cif.g08.bks.cpg/sg67_12_cif.got.tgz:23037.got - 2010.06.03 18:28:57.
