data_PCOD9502291
_publ_section_title
;
Structure prediction by ZEFSAII (Michael W. Deem and Ramdas Pophale) SiO2 
 PCOD9502291
Probable space group: C M M A
;
_chemical_formula_sum "Si O2"
_cell_formula_units_Z 88
_cell_length_a 16.779874
_cell_length_b 14.729521
_cell_length_c 17.028835
_cell_angle_alpha 90.000000
_cell_angle_beta 90.000000
_cell_angle_gamma 90.000000
_cell_volume 4208.838454
_symmetry_space_group_name_H-M "C M M A"
_symmetry_group_IT_number 67
_symmetry_cell_setting 'orthorhombic'
loop_
_space_group_symop_operation_xyz
x,y,z
-x,1/2-y,z
x,-y,-z
-x,1/2+y,-z
-x,-y,-z
x,1/2+y,-z
-x,y,z
x,1/2-y,z
1/2+x,1/2+y,z
1/2-x,-y,z
1/2+x,1/2-y,-z
1/2-x,y,-z
1/2-x,1/2-y,-z
1/2+x,y,-z
1/2-x,1/2+y,z
1/2+x,-y,z
loop_
_atom_site_type_symbol
_atom_site_label
_atom_site_fract_x
_atom_site_fract_y
_atom_site_fract_z
Si Si1 0.097470 0.007887 0.589509
Si Si2 0.407235 0.650122 0.302321
Si Si3 0.376252 0.500000 0.000000
Si Si4 0.305985 0.354842 0.119060
Si Si5 0.114783 0.644725 0.876853
Si Si6 0.907334 0.641988 0.274504
O O1 0.128363 0.922108 0.638956
O O2 0.000000 0.006975 0.586895
O O3 0.125095 0.000000 0.500000
O O4 0.117241 0.093290 0.644748
O O5 0.500000 0.658113 0.324745
O O6 0.369615 0.750000 0.305525
O O7 0.407324 0.620227 0.212064
O O8 0.330194 0.429051 0.055459
O O9 0.415143 0.570714 0.061295
O O10 0.329175 0.250000 0.098106
O O11 0.210905 0.356781 0.123333
O O12 0.349668 0.378235 0.201041
O O13 0.090762 0.750000 0.891990
O O14 0.905975 0.750000 0.285074
O O15 0.000000 0.615580 0.256478
#
# Coordination Sequence:
#
# PCOD9502291 Si02
#       6
#    16  16   8  16  16  16
#     4   9  17  29  48  75 100 121 153 195 233 274
#     4   9  18  33  51  70  95 126 157 191 233 279
#     4  12  21  32  51  72  95 124 159 200 239 274
#     4  10  20  33  50  71  94 123 160 197 233 277
#     4  10  20  33  50  71  94 123 160 197 233 277
#     4   9  18  33  51  70  95 126 157 191 233 279
#
# _framework density 20.908382
#
# number of rings (size 3 to 8) (size 9 to 14) (size 15 to 20)
#    0.000    2.364    0.000    3.273    0.000    2.182 
#    0.000    5.455    0.000    6.545    0.000    5.091 
#    0.000    0.000    0.000    0.000    0.000    0.000 
#
# Total GULP energy -245438.761538 kJ/mol
# GULP energy per Si atom -5578.153671 kJ/mol
# Density = 2.086079 g / cm^3
# Si number density = 20.908382 Si / 1000 Ang^3
#
#
#
# Elastic Constant Matrix: (Units=GPa)
#
#
# Indices 1 2 3 4 5 6 
#
# 1 63.3858 29.9859 36.5781 0.0000 0.0000 0.0000
# 2 29.9859 112.6058 98.6286 0.0000 0.0000 0.0000
# 3 36.5781 98.6286 168.9524 0.0000 0.0000 0.0000
# 4 0.0000 0.0000 0.0000 -47.0957 0.0000 0.0000
# 5 0.0000 0.0000 0.0000 0.0000 15.4764 0.0000
# 6 0.0000 0.0000 0.0000 0.0000 0.0000 -12.2816
#
#
#
# Elastic Compliance Matrix: (Units=1/GPa)
#
#
# Indices 1 2 3 4 5 6 
#
# 1 0.018480 -0.002899 -0.002309 0.000000 0.000000 0.000000
# 2 -0.002899 0.018627 -0.010246 0.000000 0.000000 0.000000
# 3 -0.002309 -0.010246 0.012400 0.000000 0.000000 0.000000
# 4 0.000000 0.000000 0.000000 -0.021233 0.000000 0.000000
# 5 0.000000 0.000000 0.000000 0.000000 0.064615 0.000000
# 6 0.000000 0.000000 0.000000 0.000000 0.000000 -0.081422
#
#
# Mechanical properties :
#
#
# Convention : Reuss Voigt Hill
#
# Bulk Modulus (GPa) = 53.76500 75.03658 64.40079
# Shear Modulus (GPa) = 102.93852 3.20324 53.07088
#
# Velocity S-wave (km/s) = 7.02425 1.23910 5.04358
# Velocity P-wave (km/s) = 9.56855 6.16550 8.04893
#
# Compressibility (1/GPa) = 0.01859946
#
# Stress axis : x y z
#
# Youngs Moduli (GPa) = 54.11236 53.68618 80.64577
#
# Poissons Ratio (x) = 0.15564 0.18617
# Poissons Ratio (y) = 0.15688 0.82630
# Poissons Ratio (z) = 0.12492 0.55007
#
# Static dielectric constant tensor:
#      x y z
#    x 1.778480 0.000000 0.000000 
#    y 0.000000 1.785840 0.000000 
#    z 0.000000 0.000000 1.717240 
# 
# From -- ./inp_files/34158.got.cif
#   From: 2010.05.17/outbox.cif.g08.bks.cpg/sg67_18_cif.got.tgz:34158.got - 2010.06.03 18:28:57.
