data_PCOD9502064
_publ_section_title
;
Structure prediction by ZEFSAII (Michael W. Deem and Ramdas Pophale) SiO2 
 PCOD9502064
Probable space group: C M M A
;
_chemical_formula_sum "Si O2"
_cell_formula_units_Z 60
_cell_length_a 20.663665
_cell_length_b 28.012789
_cell_length_c 5.391953
_cell_angle_alpha 90.000000
_cell_angle_beta 90.000000
_cell_angle_gamma 90.000000
_cell_volume 3121.115212
_symmetry_space_group_name_H-M "C M M A"
_symmetry_group_IT_number 67
_symmetry_cell_setting 'orthorhombic'
loop_
_space_group_symop_operation_xyz
x,y,z
-x,1/2-y,z
x,-y,-z
-x,1/2+y,-z
-x,-y,-z
x,1/2+y,-z
-x,y,z
x,1/2-y,z
1/2+x,1/2+y,z
1/2-x,-y,z
1/2+x,1/2-y,-z
1/2-x,y,-z
1/2-x,1/2-y,-z
1/2+x,y,-z
1/2-x,1/2+y,z
1/2+x,-y,z
loop_
_atom_site_type_symbol
_atom_site_label
_atom_site_fract_x
_atom_site_fract_y
_atom_site_fract_z
Si Si1 0.304337 0.920494 0.185415
Si Si2 0.750000 0.500000 0.500000
Si Si3 0.750000 0.334942 0.500000
Si Si4 0.426073 0.637095 0.082094
Si Si5 0.391632 0.195222 0.415212
O O1 0.274964 0.870943 0.288790
O O2 0.373830 0.905729 0.082722
O O3 0.301134 0.961963 0.385254
O O4 0.250000 0.938905 0.000000
O O5 0.686909 0.306472 0.416974
O O6 0.500000 0.620600 0.081324
O O7 0.414458 0.667672 0.335500
O O8 0.414049 0.668816 0.835653
O O9 0.413534 0.250000 0.419591
#
# Coordination Sequence:
#
# PCOD9502064 Si02
#       5
#    16   4   8  16  16
#     4  10  19  39  62  88 118 153 197 248 304 366
#     4  10  22  36  68  94 114 144 200 254 306 366
#     4   9  19  35  57  90 120 160 203 255 305 345
#     4  11  24  40  60  88 126 167 201 244 302 358
#     4  11  22  37  60  88 124 166 213 256 291 342
#
# _framework density 19.223897999999998
#
# number of rings (size 3 to 8) (size 9 to 14) (size 15 to 20)
#    0.000    1.600    2.667    2.400    0.000    3.200 
#    0.000    4.667    0.000    3.200    0.000    0.000 
#    0.000    0.000    0.000    0.000    0.000    0.000 
#
# Total GULP energy -167165.623591 kJ/mol
# GULP energy per Si atom -5572.187453 kJ/mol
# Density = 1.918014 g / cm^3
# Si number density = 19.223898 Si / 1000 Ang^3
#
#
#
# Elastic Constant Matrix: (Units=GPa)
#
#
# Indices 1 2 3 4 5 6 
#
# 1 147.8957 23.3154 21.9903 0.0000 0.0000 0.0000
# 2 23.3154 86.5919 21.3760 0.0000 0.0000 0.0000
# 3 21.9903 21.3760 91.8612 0.0000 0.0000 0.0000
# 4 0.0000 0.0000 0.0000 481.2437 0.0000 0.0000
# 5 0.0000 0.0000 0.0000 0.0000 19.3471 0.0000
# 6 0.0000 0.0000 0.0000 0.0000 0.0000 -0.4624
#
#
#
# Elastic Compliance Matrix: (Units=1/GPa)
#
#
# Indices 1 2 3 4 5 6 
#
# 1 0.007216 -0.001609 -0.001353 0.000000 0.000000 0.000000
# 2 -0.001609 0.012611 -0.002549 0.000000 0.000000 0.000000
# 3 -0.001353 -0.002549 0.011803 0.000000 0.000000 0.000000
# 4 0.000000 0.000000 0.000000 0.002078 0.000000 0.000000
# 5 0.000000 0.000000 0.000000 0.000000 0.051687 0.000000
# 6 0.000000 0.000000 0.000000 0.000000 0.000000 -2.162722
#
#
# Mechanical properties :
#
#
# Convention : Reuss Voigt Hill
#
# Bulk Modulus (GPa) = 48.52598 51.07913 49.80256
# Shear Modulus (GPa) = -2.42785 117.33681 57.45448
#
# Velocity S-wave (km/s) = -1.12502 7.82109 5.47283
# Velocity P-wave (km/s) = 4.85899 10.40133 8.11780
#
# Compressibility (1/GPa) = 0.02060752
#
# Stress axis : x y z
#
# Youngs Moduli (GPa) = 138.57386 79.29588 84.72323
#
# Poissons Ratio (x) = 0.12759 0.11464
# Poissons Ratio (y) = 0.22297 0.21599
# Poissons Ratio (z) = 0.18750 0.20216
#
# Static dielectric constant tensor:
#      x y z
#    x 1.613710 0.000000 0.000000 
#    y 0.000000 1.623030 0.000000 
#    z 0.000000 0.000000 1.448180 
# 
# From -- ./inp_files/2876.got.cif
#   From: 2010.05.17/outbox.cif.g08.bks.cpg/sg67_2_cif.got.tgz:2876.got - 2010.06.03 18:28:57.
