data_PCOD9502164
_publ_section_title
;
Structure prediction by ZEFSAII (Michael W. Deem and Ramdas Pophale) SiO2 
 PCOD9502164
Probable space group: C M M A
;
_chemical_formula_sum "Si O2"
_cell_formula_units_Z 96
_cell_length_a 8.908284
_cell_length_b 28.027430
_cell_length_c 24.336909
_cell_angle_alpha 90.000000
_cell_angle_beta 90.000000
_cell_angle_gamma 90.000000
_cell_volume 6076.349544
_symmetry_space_group_name_H-M "C M M A"
_symmetry_group_IT_number 67
_symmetry_cell_setting 'orthorhombic'
loop_
_space_group_symop_operation_xyz
x,y,z
-x,1/2-y,z
x,-y,-z
-x,1/2+y,-z
-x,-y,-z
x,1/2+y,-z
-x,y,z
x,1/2-y,z
1/2+x,1/2+y,z
1/2-x,-y,z
1/2+x,1/2-y,-z
1/2-x,y,-z
1/2-x,1/2-y,-z
1/2+x,y,-z
1/2-x,1/2+y,z
1/2+x,-y,z
loop_
_atom_site_type_symbol
_atom_site_label
_atom_site_fract_x
_atom_site_fract_y
_atom_site_fract_z
Si Si1 0.320627 0.854252 0.162840
Si Si2 0.320026 0.447675 0.442551
Si Si3 0.179302 0.895401 0.330014
Si Si4 0.320824 0.194336 0.058351
Si Si5 0.820234 0.550968 0.772829
Si Si6 0.319374 0.304872 0.722472
O O1 0.500000 0.851010 0.154585
O O2 0.238644 0.836970 0.108525
O O3 0.284619 0.907906 0.182648
O O4 0.282042 0.820778 0.215111
O O5 0.500000 0.451964 0.447762
O O6 0.250000 0.500000 0.432327
O O7 0.250000 0.430416 0.500000
O O8 0.285637 0.414083 0.390895
O O9 0.254953 0.929868 0.284868
O O10 0.240647 0.842711 0.317224
O O11 0.000000 0.896755 0.322604
O O12 0.500000 0.191604 0.054864
O O13 0.278537 0.250000 0.068154
O O14 0.250000 0.180153 0.000000
O O15 0.750000 0.500000 0.786094
O O16 0.000000 0.547593 0.768507
O O17 0.500000 0.309711 0.717077
O O18 0.278201 0.250000 0.713016
#
# Coordination Sequence:
#
# PCOD9502164 Si02
#       6
#    16  16  16  16  16  16
#     4   9  18  32  49  70  97 126 156 192 234 280
#     4  10  20  32  48  70  95 124 157 194 237 283
#     4  10  20  32  48  72  99 127 159 196 238 283
#     4  10  20  32  48  71  97 126 159 194 234 279
#     4  10  20  33  50  72  98 129 161 195 237 283
#     4   9  18  32  50  72  98 129 161 194 237 285
#
# _framework density 15.798959
#
# number of rings (size 3 to 8) (size 9 to 14) (size 15 to 20)
#    0.000    2.333    0.000    4.500    0.000    9.333 
#    0.000    0.000    0.000    1.000    0.000    3.500 
#    0.000    0.000    0.000    0.000    0.000    0.000 
#
# Total GULP energy -267810.391392 kJ/mol
# GULP energy per Si atom -5579.383154 kJ/mol
# Density = 1.576300 g / cm^3
# Si number density = 15.798959 Si / 1000 Ang^3
#
#
#
# Elastic Constant Matrix: (Units=GPa)
#
#
# Indices 1 2 3 4 5 6 
#
# 1 58.5412 55.2068 66.7871 0.0000 0.0000 0.0000
# 2 55.2068 115.5443 83.0065 0.0000 0.0000 0.0000
# 3 66.7871 83.0065 146.9613 0.0000 0.0000 0.0000
# 4 0.0000 0.0000 0.0000 19.4178 0.0000 0.0000
# 5 0.0000 0.0000 0.0000 0.0000 30.7999 0.0000
# 6 0.0000 0.0000 0.0000 0.0000 0.0000 28.6441
#
#
#
# Elastic Compliance Matrix: (Units=1/GPa)
#
#
# Indices 1 2 3 4 5 6 
#
# 1 0.042128 -0.010728 -0.013086 0.000000 0.000000 0.000000
# 2 -0.010728 0.017296 -0.004894 0.000000 0.000000 0.000000
# 3 -0.013086 -0.004894 0.015516 0.000000 0.000000 0.000000
# 4 0.000000 0.000000 0.000000 0.051499 0.000000 0.000000
# 5 0.000000 0.000000 0.000000 0.000000 0.032468 0.000000
# 6 0.000000 0.000000 0.000000 0.000000 0.000000 0.034911
#
#
# Mechanical properties :
#
#
# Convention : Reuss Voigt Hill
#
# Bulk Modulus (GPa) = 57.06308 81.22750 69.14529
# Shear Modulus (GPa) = 19.44964 23.50879 21.47921
#
# Velocity S-wave (km/s) = 3.51247 3.86164 3.69119
# Velocity P-wave (km/s) = 7.25580 8.45032 7.87573
#
# Compressibility (1/GPa) = 0.01752447
#
# Stress axis : x y z
#
# Youngs Moduli (GPa) = 23.73730 57.81632 64.45105
#
# Poissons Ratio (x) = 0.62024 0.84340
# Poissons Ratio (y) = 0.25465 0.31542
# Poissons Ratio (z) = 0.31062 0.28295
#
# Static dielectric constant tensor:
#      x y z
#    x 1.528250 0.000000 0.000000 
#    y 0.000000 1.517890 0.000000 
#    z 0.000000 0.000000 1.505010 
# 
# From -- ./inp_files/39877.got.cif
#   From: 2010.05.17/outbox.cif.g08.bks.cpg/sg67_20_cif.got.tgz:39877.got - 2010.06.03 18:28:57.
