data_PCOD9502246
_publ_section_title
;
Structure prediction by ZEFSAII (Michael W. Deem and Ramdas Pophale) SiO2 
 PCOD9502246
Probable space group: C M M A
;
_chemical_formula_sum "Si O2"
_cell_formula_units_Z 64
_cell_length_a 15.998692
_cell_length_b 21.387350
_cell_length_c 9.536283
_cell_angle_alpha 90.000000
_cell_angle_beta 90.000000
_cell_angle_gamma 90.000000
_cell_volume 3263.026381
_symmetry_space_group_name_H-M "C M M A"
_symmetry_group_IT_number 67
_symmetry_cell_setting 'orthorhombic'
loop_
_space_group_symop_operation_xyz
x,y,z
-x,1/2-y,z
x,-y,-z
-x,1/2+y,-z
-x,-y,-z
x,1/2+y,-z
-x,y,z
x,1/2-y,z
1/2+x,1/2+y,z
1/2-x,-y,z
1/2+x,1/2-y,-z
1/2-x,y,-z
1/2-x,1/2-y,-z
1/2+x,y,-z
1/2-x,1/2+y,z
1/2+x,-y,z
loop_
_atom_site_type_symbol
_atom_site_label
_atom_site_fract_x
_atom_site_fract_y
_atom_site_fract_z
Si Si1 0.166302 0.250000 0.096625
Si Si2 0.849907 0.003947 0.340691
Si Si3 0.094501 0.250000 0.804507
Si Si4 0.100241 0.376716 0.159147
Si Si5 0.099917 0.615988 0.164420
O O1 0.150635 0.312531 0.184396
O O2 0.250000 0.250000 0.000000
O O3 0.094861 0.250000 0.975046
O O4 0.877247 0.067087 0.262352
O O5 0.881795 0.000000 0.500000
O O6 0.750000 0.000000 0.343814
O O7 0.879325 0.943945 0.254179
O O8 0.134034 0.317877 0.774299
O O9 0.000000 0.250000 0.748355
O O10 0.000000 0.366521 0.164996
O O11 0.124947 0.393344 0.997924
O O12 0.000000 0.623463 0.161899
#
# Coordination Sequence:
#
# PCOD9502246 Si02
#       5
#     8  16   8  16  16
#     4  10  20  32  59  95 118 147 183 244 302 363
#     4  11  25  39  53  79 120 162 203 249 295 348
#     4   8  16  32  55  83 115 140 175 233 287 352
#     4  10  21  38  61  89 119 152 195 246 301 368
#     4   9  18  35  60  86 111 144 189 240 297 358
#
# _framework density 19.613693000000001
#
# number of rings (size 3 to 8) (size 9 to 14) (size 15 to 20)
#    0.000    2.250    0.000    4.125    7.000    5.000 
#    0.000    1.250    0.000    6.000    0.000    0.000 
#    0.000    0.000    0.000    0.000    0.000    0.000 
#
# Total GULP energy -178396.435304 kJ/mol
# GULP energy per Si atom -5574.888603 kJ/mol
# Density = 1.956905 g / cm^3
# Si number density = 19.613693 Si / 1000 Ang^3
#
#
#
# Elastic Constant Matrix: (Units=GPa)
#
#
# Indices 1 2 3 4 5 6 
#
# 1 66.8656 36.7102 21.7975 0.0000 0.0000 0.0000
# 2 36.7102 232.8454 96.9499 0.0000 0.0000 0.0000
# 3 21.7975 96.9499 97.9933 0.0000 0.0000 0.0000
# 4 0.0000 0.0000 0.0000 -9.0538 0.0000 0.0000
# 5 0.0000 0.0000 0.0000 0.0000 17.8077 0.0000
# 6 0.0000 0.0000 0.0000 0.0000 0.0000 -3.7529
#
#
#
# Elastic Compliance Matrix: (Units=1/GPa)
#
#
# Indices 1 2 3 4 5 6 
#
# 1 0.016572 -0.001833 -0.001873 0.000000 0.000000 0.000000
# 2 -0.001833 0.007506 -0.007018 0.000000 0.000000 0.000000
# 3 -0.001873 -0.007018 0.017565 0.000000 0.000000 0.000000
# 4 0.000000 0.000000 0.000000 -0.110451 0.000000 0.000000
# 5 0.000000 0.000000 0.000000 0.000000 0.056155 0.000000
# 6 0.000000 0.000000 0.000000 0.000000 0.000000 -0.266462
#
#
# Mechanical properties :
#
#
# Convention : Reuss Voigt Hill
#
# Bulk Modulus (GPa) = 49.51751 78.73551 64.12651
# Shear Modulus (GPa) = -19.92546 17.14999 -1.38773
#
# Velocity S-wave (km/s) = -3.19077 2.96021 -0.84206
# Velocity P-wave (km/s) = 3.42440 7.20514 5.64095
#
# Compressibility (1/GPa) = 0.02019488
#
# Stress axis : x y z
#
# Youngs Moduli (GPa) = 60.34192 133.22931 56.93184
#
# Poissons Ratio (x) = 0.24420 0.10663
# Poissons Ratio (y) = 0.11060 0.39956
# Poissons Ratio (z) = 0.11301 0.93503
#
# Static dielectric constant tensor:
#      x y z
#    x 1.758780 0.000000 0.000000 
#    y 0.000000 1.749830 0.000000 
#    z 0.000000 0.000000 1.654150 
# 
# From -- ./inp_files/9388.got.cif
#   From: 2010.05.17/outbox.cif.g08.bks.cpg/sg67_5_cif.got.tgz:9388.got - 2010.06.03 18:28:57.
