data_PCOD9502689
_publ_section_title
;
Structure prediction by ZEFSAII (Michael W. Deem and Ramdas Pophale) SiO2 
 PCOD9502689
Probable space group: C M M A
;
_chemical_formula_sum "Si O2"
_cell_formula_units_Z 48
_cell_length_a 17.306592
_cell_length_b 30.157153
_cell_length_c 5.030530
_cell_angle_alpha 90.000000
_cell_angle_beta 90.000000
_cell_angle_gamma 90.000000
_cell_volume 2625.521857
_symmetry_space_group_name_H-M "C M M A"
_symmetry_group_IT_number 67
_symmetry_cell_setting 'orthorhombic'
loop_
_space_group_symop_operation_xyz
x,y,z
-x,1/2-y,z
x,-y,-z
-x,1/2+y,-z
-x,-y,-z
x,1/2+y,-z
-x,y,z
x,1/2-y,z
1/2+x,1/2+y,z
1/2-x,-y,z
1/2+x,1/2-y,-z
1/2-x,y,-z
1/2-x,1/2-y,-z
1/2+x,y,-z
1/2-x,1/2+y,z
1/2+x,-y,z
loop_
_atom_site_type_symbol
_atom_site_label
_atom_site_fract_x
_atom_site_fract_y
_atom_site_fract_z
Si Si1 0.913804 0.884718 0.603448
Si Si2 0.306662 0.250000 0.250013
Si Si3 0.162469 0.845739 0.111200
Si Si4 0.500000 0.968100 0.251868
O O1 0.856779 0.878540 0.355487
O O2 0.000000 0.872071 0.505068
O O3 0.927470 0.934332 0.718625
O O4 0.889196 0.855525 0.854431
O O5 0.250000 0.250000 0.500000
O O6 0.350925 0.203594 0.228689
O O7 0.250000 0.250000 0.000000
O O8 0.250000 0.849417 0.000000
O O9 0.500000 0.000000 0.500000
O O10 0.500000 0.000000 0.000000
#
# Coordination Sequence:
#
# PCOD9502689 Si02
#       4
#    16   8  16   8
#     4  10  22  36  59  87 118 144 204 237 297 343
#     4  10  20  34  55  82 115 160 203 224 271 352
#     4  11  20  37  58  85 118 159 197 240 280 339
#     4  10  20  38  64  83 110 151 198 232 290 380
#
# _framework density 18.282080000000001
#
# number of rings (size 3 to 8) (size 9 to 14) (size 15 to 20)
#    1.000    0.667    0.000    8.000    0.000    0.000 
#    0.000    5.000    0.000   15.000    0.000    0.000 
#    0.000    0.000    0.000    0.000    0.000    0.000 
#
# Total GULP energy -133618.688024 kJ/mol
# GULP energy per Si atom -5567.445334 kJ/mol
# Density = 1.824047 g / cm^3
# Si number density = 18.282080 Si / 1000 Ang^3
#
#
#
# Elastic Constant Matrix: (Units=GPa)
#
#
# Indices 1 2 3 4 5 6 
#
# 1 53.7864 46.9320 31.2277 0.0000 0.0000 0.0000
# 2 46.9320 103.6635 51.0500 0.0000 0.0000 0.0000
# 3 31.2277 51.0500 149.4379 0.0000 0.0000 0.0000
# 4 0.0000 0.0000 0.0000 40.9780 0.0000 0.0000
# 5 0.0000 0.0000 0.0000 0.0000 40.3052 0.0000
# 6 0.0000 0.0000 0.0000 0.0000 0.0000 45.9517
#
#
#
# Elastic Compliance Matrix: (Units=1/GPa)
#
#
# Indices 1 2 3 4 5 6 
#
# 1 0.031241 -0.013140 -0.002040 0.000000 0.000000 0.000000
# 2 -0.013140 0.017124 -0.003104 0.000000 0.000000 0.000000
# 3 -0.002040 -0.003104 0.008178 0.000000 0.000000 0.000000
# 4 0.000000 0.000000 0.000000 0.024403 0.000000 0.000000
# 5 0.000000 0.000000 0.000000 0.000000 0.024811 0.000000
# 6 0.000000 0.000000 0.000000 0.000000 0.000000 0.021762
#
#
# Mechanical properties :
#
#
# Convention : Reuss Voigt Hill
#
# Bulk Modulus (GPa) = 50.05764 62.81191 56.43478
# Shear Modulus (GPa) = 29.28336 37.29217 33.28776
#
# Velocity S-wave (km/s) = 4.00653 4.52134 4.27170
# Velocity P-wave (km/s) = 6.98879 7.85419 7.43410
#
# Compressibility (1/GPa) = 0.01997697
#
# Stress axis : x y z
#
# Youngs Moduli (GPa) = 32.00882 58.39780 122.27375
#
# Poissons Ratio (x) = 0.76732 0.24941
# Poissons Ratio (y) = 0.42058 0.37954
# Poissons Ratio (z) = 0.06529 0.18127
#
# Static dielectric constant tensor:
#      x y z
#    x 1.691080 0.000000 0.000000 
#    y 0.000000 1.677850 0.000000 
#    z 0.000000 0.000000 1.607130 
# 
# From -- ./inp_files/1270.got.cif
#   From: 2010.05.17/outbox.cif.g08.bks.cpg/sg67_1_cif.got.tgz:1270.got - 2010.06.03 18:28:57.
