data_PCOD9502715
_publ_section_title
;
Structure prediction by ZEFSAII (Michael W. Deem and Ramdas Pophale) SiO2 
 PCOD9502715
Probable space group: C M M A
;
_chemical_formula_sum "Si O2"
_cell_formula_units_Z 80
_cell_length_a 23.104761
_cell_length_b 23.009695
_cell_length_c 8.592678
_cell_angle_alpha 90.000000
_cell_angle_beta 90.000000
_cell_angle_gamma 90.000000
_cell_volume 4568.155511
_symmetry_space_group_name_H-M "C M M A"
_symmetry_group_IT_number 67
_symmetry_cell_setting 'orthorhombic'
loop_
_space_group_symop_operation_xyz
x,y,z
-x,1/2-y,z
x,-y,-z
-x,1/2+y,-z
-x,-y,-z
x,1/2+y,-z
-x,y,z
x,1/2-y,z
1/2+x,1/2+y,z
1/2-x,-y,z
1/2+x,1/2-y,-z
1/2-x,y,-z
1/2-x,1/2-y,-z
1/2+x,y,-z
1/2-x,1/2+y,z
1/2+x,-y,z
loop_
_atom_site_type_symbol
_atom_site_label
_atom_site_fract_x
_atom_site_fract_y
_atom_site_fract_z
Si Si1 0.000000 0.965628 0.230999
Si Si2 0.372900 0.989633 0.677073
Si Si3 0.799318 0.095982 0.888223
Si Si4 0.624254 0.118064 0.822864
Si Si5 0.773395 0.318743 0.326345
Si Si6 0.000000 0.596904 0.908509
O O1 0.938555 0.963528 0.320063
O O2 0.000000 0.031077 0.160409
O O3 0.000000 0.917859 0.092958
O O4 0.330161 0.947995 0.771480
O O5 0.354797 0.000000 0.500000
O O6 0.372129 0.051564 0.763589
O O7 0.767518 0.146176 0.791747
O O8 0.750000 0.068840 0.000000
O O9 0.846333 0.120708 0.007877
O O10 0.662045 0.157114 0.706607
O O11 0.556809 0.129294 0.848295
O O12 0.771606 0.250000 0.298088
O O13 0.750000 0.329993 0.500000
#
# Coordination Sequence:
#
# PCOD9502715 Si02
#       6
#     8  16  16  16  16   8
#     4   9  17  30  52  76 113 149 176 212 262 321
#     4  11  20  32  51  82 116 146 180 219 272 331
#     4  10  21  34  52  76 105 143 183 225 271 322
#     4  10  20  34  56  80 110 144 181 220 269 321
#     4  10  22  40  58  77 103 138 182 232 282 328
#     4   9  16  32  53  80 111 141 181 218 260 318
#
# _framework density 17.512537999999999
#
# number of rings (size 3 to 8) (size 9 to 14) (size 15 to 20)
#    0.000    2.000    2.000    2.100    0.000    9.200 
#    0.000    5.500    0.000    0.000    0.000    3.500 
#    0.000    0.000    0.000    0.000    0.000    0.000 
#
# Total GULP energy -223081.981636 kJ/mol
# GULP energy per Si atom -5577.049541 kJ/mol
# Density = 1.747268 g / cm^3
# Si number density = 17.512538 Si / 1000 Ang^3
#
#
#
# Elastic Constant Matrix: (Units=GPa)
#
#
# Indices 1 2 3 4 5 6 
#
# 1 152.7706 55.7653 72.1505 0.0000 0.0000 0.0000
# 2 55.7653 70.7663 44.6832 0.0000 0.0000 0.0000
# 3 72.1505 44.6832 101.7792 0.0000 0.0000 0.0000
# 4 0.0000 0.0000 0.0000 -791.5509 0.0000 0.0000
# 5 0.0000 0.0000 0.0000 0.0000 25.9048 0.0000
# 6 0.0000 0.0000 0.0000 0.0000 0.0000 4.4340
#
#
#
# Elastic Compliance Matrix: (Units=1/GPa)
#
#
# Indices 1 2 3 4 5 6 
#
# 1 0.011077 -0.005217 -0.005562 0.000000 0.000000 0.000000
# 2 -0.005217 0.022008 -0.005964 0.000000 0.000000 0.000000
# 3 -0.005562 -0.005964 0.016386 0.000000 0.000000 0.000000
# 4 0.000000 0.000000 0.000000 -0.001263 0.000000 0.000000
# 5 0.000000 0.000000 0.000000 0.000000 0.038603 0.000000
# 6 0.000000 0.000000 0.000000 0.000000 0.000000 0.225528
#
#
# Mechanical properties :
#
#
# Convention : Reuss Voigt Hill
#
# Bulk Modulus (GPa) = 62.55583 74.50156 68.52869
# Shear Modulus (GPa) = 14.23886 -142.06128 -63.91121
#
# Velocity S-wave (km/s) = 2.85453 -9.01642 -6.04763
# Velocity P-wave (km/s) = 6.83100 8.10927 3.09012
#
# Compressibility (1/GPa) = 0.01598572
#
# Stress axis : x y z
#
# Youngs Moduli (GPa) = 90.27813 45.43902 61.02699
#
# Poissons Ratio (x) = 0.23705 0.33943
# Poissons Ratio (y) = 0.47097 0.36394
# Poissons Ratio (z) = 0.50213 0.27098
#
# Static dielectric constant tensor:
#      x y z
#    x 1.635320 0.000000 0.000000 
#    y 0.000000 1.558260 0.000000 
#    z 0.000000 0.000000 1.603780 
# 
# From -- ./inp_files/11169.got.cif
#   From: 2010.05.17/outbox.cif.g08.bks.cpg/sg67_6_cif.got.tgz:11169.got - 2010.06.03 18:28:57.
