data_PCOD9502596
_publ_section_title
;
Structure prediction by ZEFSAII (Michael W. Deem and Ramdas Pophale) SiO2 
 PCOD9502596
Probable space group: C M M A
;
_chemical_formula_sum "Si O2"
_cell_formula_units_Z 112
_cell_length_a 27.923650
_cell_length_b 13.914154
_cell_length_c 14.514906
_cell_angle_alpha 90.000000
_cell_angle_beta 90.000000
_cell_angle_gamma 90.000000
_cell_volume 5639.533999
_symmetry_space_group_name_H-M "C M M A"
_symmetry_group_IT_number 67
_symmetry_cell_setting 'orthorhombic'
loop_
_space_group_symop_operation_xyz
x,y,z
-x,1/2-y,z
x,-y,-z
-x,1/2+y,-z
-x,-y,-z
x,1/2+y,-z
-x,y,z
x,1/2-y,z
1/2+x,1/2+y,z
1/2-x,-y,z
1/2+x,1/2-y,-z
1/2-x,y,-z
1/2-x,1/2-y,-z
1/2+x,y,-z
1/2-x,1/2+y,z
1/2+x,-y,z
loop_
_atom_site_type_symbol
_atom_site_label
_atom_site_fract_x
_atom_site_fract_y
_atom_site_fract_z
Si Si1 0.550541 0.007474 0.685220
Si Si2 0.366058 0.138798 0.633717
Si Si3 0.170134 0.361740 0.732236
Si Si4 0.406914 0.051568 0.141337
Si Si5 0.758736 0.366823 0.392818
Si Si6 0.557718 0.138909 0.955066
Si Si7 0.591247 0.643931 0.569780
O O1 0.500000 0.059609 0.686293
O O2 0.556236 0.939895 0.773812
O O3 0.555784 0.940524 0.596301
O O4 0.595516 0.077693 0.688279
O O5 0.367161 0.250000 0.661316
O O6 0.311852 0.103017 0.636829
O O7 0.383270 0.132198 0.527848
O O8 0.176135 0.250000 0.761665
O O9 0.144712 0.420941 0.814585
O O10 0.218978 0.395109 0.682330
O O11 0.132248 0.361036 0.647727
O O12 0.415125 0.942896 0.104029
O O13 0.422810 0.120386 0.058323
O O14 0.758032 0.250000 0.394281
O O15 0.750000 0.394892 0.500000
O O16 0.500000 0.120785 0.951511
O O17 0.565760 0.250000 0.927705
O O18 0.569097 0.750000 0.572035
#
# Coordination Sequence:
#
# PCOD9502596 Si02
#       7
#    16  16  16  16  16  16  16
#     4  11  23  36  51  75 114 154 191 239 296 358
#     4  10  20  34  53  77 109 151 200 244 288 344
#     4   9  16  29  54  86 117 152 190 238 300 352
#     4  10  20  36  55  83 122 150 187 242 298 360
#     4   9  15  29  56  84 112 150 196 250 301 343
#     4  10  20  36  61  88 115 155 201 246 305 371
#     4   9  18  33  51  72 103 146 198 245 287 337
#
# _framework density 19.859797
#
# number of rings (size 3 to 8) (size 9 to 14) (size 15 to 20)
#    0.000    2.286    1.429    2.571    0.000    2.857 
#    0.000    4.286    0.000    0.000    0.000    9.000 
#    0.000   18.857    0.000    0.000    0.000    0.000 
#
# Total GULP energy -312338.912225 kJ/mol
# GULP energy per Si atom -5577.480575 kJ/mol
# Density = 1.981460 g / cm^3
# Si number density = 19.859797 Si / 1000 Ang^3
#
#
#
# Elastic Constant Matrix: (Units=GPa)
#
#
# Indices 1 2 3 4 5 6 
#
# 1 149.4789 45.1109 42.2125 0.0000 0.0000 0.0000
# 2 45.1109 93.1127 28.2623 0.0000 0.0000 0.0000
# 3 42.2125 28.2623 74.6269 0.0000 0.0000 0.0000
# 4 0.0000 0.0000 0.0000 20.8001 0.0000 0.0000
# 5 0.0000 0.0000 0.0000 0.0000 14.9904 0.0000
# 6 0.0000 0.0000 0.0000 0.0000 0.0000 12.0776
#
#
#
# Elastic Compliance Matrix: (Units=1/GPa)
#
#
# Indices 1 2 3 4 5 6 
#
# 1 0.008672 -0.003065 -0.003745 0.000000 0.000000 0.000000
# 2 -0.003065 0.013218 -0.003272 0.000000 0.000000 0.000000
# 3 -0.003745 -0.003272 0.016757 0.000000 0.000000 0.000000
# 4 0.000000 0.000000 0.000000 0.048077 0.000000 0.000000
# 5 0.000000 0.000000 0.000000 0.000000 0.066710 0.000000
# 6 0.000000 0.000000 0.000000 0.000000 0.000000 0.082798
#
#
# Mechanical properties :
#
#
# Convention : Reuss Voigt Hill
#
# Bulk Modulus (GPa) = 54.10103 60.93223 57.51663
# Shear Modulus (GPa) = 19.04351 23.01580 21.02966
#
# Velocity S-wave (km/s) = 3.09997 3.40798 3.25761
# Velocity P-wave (km/s) = 6.33354 6.79952 6.57066
#
# Compressibility (1/GPa) = 0.01848394
#
# Stress axis : x y z
#
# Youngs Moduli (GPa) = 115.30865 75.65604 59.67514
#
# Poissons Ratio (x) = 0.23188 0.22347
# Poissons Ratio (y) = 0.35341 0.19526
# Poissons Ratio (z) = 0.43181 0.24755
#
# Static dielectric constant tensor:
#      x y z
#    x 1.716710 0.000000 0.000000 
#    y 0.000000 1.769270 0.000000 
#    z 0.000000 0.000000 1.719870 
# 
# From -- ./inp_files/30839.got.cif
#   From: 2010.05.17/outbox.cif.g08.bks.cpg/sg67_16_cif.got.tgz:30839.got - 2010.06.03 18:28:57.
