data_PCOD9502767
_publ_section_title
;
Structure prediction by ZEFSAII (Michael W. Deem and Ramdas Pophale) SiO2 
 PCOD9502767
Probable space group: C M M A
;
_chemical_formula_sum "Si O2"
_cell_formula_units_Z 96
_cell_length_a 18.005654
_cell_length_b 13.946489
_cell_length_c 21.073604
_cell_angle_alpha 90.000000
_cell_angle_beta 90.000000
_cell_angle_gamma 90.000000
_cell_volume 5291.911881
_symmetry_space_group_name_H-M "C M M A"
_symmetry_group_IT_number 67
_symmetry_cell_setting 'orthorhombic'
loop_
_space_group_symop_operation_xyz
x,y,z
-x,1/2-y,z
x,-y,-z
-x,1/2+y,-z
-x,-y,-z
x,1/2+y,-z
-x,y,z
x,1/2-y,z
1/2+x,1/2+y,z
1/2-x,-y,z
1/2+x,1/2-y,-z
1/2-x,y,-z
1/2-x,1/2-y,-z
1/2+x,y,-z
1/2-x,1/2+y,z
1/2+x,-y,z
loop_
_atom_site_type_symbol
_atom_site_label
_atom_site_fract_x
_atom_site_fract_y
_atom_site_fract_z
Si Si1 0.335874 0.862571 0.020883
Si Si2 0.588016 0.359050 0.597378
Si Si3 0.165386 0.027245 0.662650
Si Si4 0.411122 0.138086 0.223116
Si Si5 0.169210 0.363545 0.529691
Si Si6 0.911391 0.471425 0.907719
O O1 0.344574 0.750000 0.035132
O O2 0.363478 0.933308 0.076762
O O3 0.250000 0.879011 0.000000
O O4 0.386821 0.895705 0.961764
O O5 0.500000 0.359463 0.601520
O O6 0.616166 0.250000 0.605653
O O7 0.621571 0.429222 0.649288
O O8 0.612365 0.389063 0.526400
O O9 0.130060 0.090817 0.717611
O O10 0.161303 0.083022 0.595722
O O11 0.250000 0.000000 0.676571
O O12 0.500000 0.134648 0.233842
O O13 0.390602 0.250000 0.214619
O O14 0.395613 0.076544 0.159958
O O15 0.162793 0.250000 0.541484
O O16 0.250000 0.383040 0.500000
O O17 0.000000 0.490741 0.912475
#
# Coordination Sequence:
#
# PCOD9502767 Si02
#       6
#    16  16  16  16  16  16
#     4  10  20  34  58  91 124 154 188 235 286 337
#     4  10  22  38  56  80 111 146 183 230 289 348
#     4  12  23  35  59  86 111 146 190 235 290 352
#     4  10  23  42  60  81 113 153 198 245 291 343
#     4  10  20  36  57  82 113 142 179 231 289 350
#     4  10  20  36  59  84 115 155 197 241 285 331
#
# _framework density 18.140892000000001
#
# number of rings (size 3 to 8) (size 9 to 14) (size 15 to 20)
#    0.000    1.667    1.667    4.000    0.000    6.000 
#    0.000    2.500    0.000    1.000    0.000    0.000 
#    0.000    0.000    0.000    0.000    0.000    0.000 
#
# Total GULP energy -268046.193676 kJ/mol
# GULP energy per Si atom -5584.295702 kJ/mol
# Density = 1.809960 g / cm^3
# Si number density = 18.140892 Si / 1000 Ang^3
#
#
#
# Elastic Constant Matrix: (Units=GPa)
#
#
# Indices 1 2 3 4 5 6 
#
# 1 79.3762 63.0807 46.9885 0.0000 0.0000 0.0000
# 2 63.0807 162.7123 78.7836 0.0000 0.0000 0.0000
# 3 46.9885 78.7836 111.4511 0.0000 0.0000 0.0000
# 4 0.0000 0.0000 0.0000 29.1734 0.0000 0.0000
# 5 0.0000 0.0000 0.0000 0.0000 45.5581 0.0000
# 6 0.0000 0.0000 0.0000 0.0000 0.0000 27.5037
#
#
#
# Elastic Compliance Matrix: (Units=1/GPa)
#
#
# Indices 1 2 3 4 5 6 
#
# 1 0.019519 -0.005447 -0.004379 0.000000 0.000000 0.000000
# 2 -0.005447 0.010864 -0.005383 0.000000 0.000000 0.000000
# 3 -0.004379 -0.005383 0.014624 0.000000 0.000000 0.000000
# 4 0.000000 0.000000 0.000000 0.034278 0.000000 0.000000
# 5 0.000000 0.000000 0.000000 0.000000 0.021950 0.000000
# 6 0.000000 0.000000 0.000000 0.000000 0.000000 0.036359
#
#
# Mechanical properties :
#
#
# Convention : Reuss Voigt Hill
#
# Bulk Modulus (GPa) = 68.54494 81.24946 74.89720
# Shear Modulus (GPa) = 28.92261 31.42616 30.17439
#
# Velocity S-wave (km/s) = 3.99724 4.16665 4.08283
# Velocity P-wave (km/s) = 7.69225 8.24823 7.97508
#
# Compressibility (1/GPa) = 0.01458897
#
# Stress axis : x y z
#
# Youngs Moduli (GPa) = 51.23151 92.04734 68.38048
#
# Poissons Ratio (x) = 0.50138 0.29944
# Poissons Ratio (y) = 0.27906 0.36810
# Poissons Ratio (z) = 0.22434 0.49550
#
# Static dielectric constant tensor:
#      x y z
#    x 1.601530 0.000000 0.000000 
#    y 0.000000 1.646810 0.000000 
#    z 0.000000 0.000000 1.586160 
# 
# From -- ./inp_files/38467.got.cif
#   From: 2010.05.17/outbox.cif.g08.bks.cpg/sg67_20_cif.got.tgz:38467.got - 2010.06.03 18:28:57.
