data_PCOD9502185
_publ_section_title
;
Structure prediction by ZEFSAII (Michael W. Deem and Ramdas Pophale) SiO2 
 PCOD9502185
Probable space group: C M M A
;
_chemical_formula_sum "Si O2"
_cell_formula_units_Z 116
_cell_length_a 26.023274
_cell_length_b 7.575103
_cell_length_c 26.595756
_cell_angle_alpha 90.000000
_cell_angle_beta 90.000000
_cell_angle_gamma 90.000000
_cell_volume 5242.794278
_symmetry_space_group_name_H-M "C M M A"
_symmetry_group_IT_number 67
_symmetry_cell_setting 'orthorhombic'
loop_
_space_group_symop_operation_xyz
x,y,z
-x,1/2-y,z
x,-y,-z
-x,1/2+y,-z
-x,-y,-z
x,1/2+y,-z
-x,y,z
x,1/2-y,z
1/2+x,1/2+y,z
1/2-x,-y,z
1/2+x,1/2-y,-z
1/2-x,y,-z
1/2-x,1/2-y,-z
1/2+x,y,-z
1/2-x,1/2+y,z
1/2+x,-y,z
loop_
_atom_site_type_symbol
_atom_site_label
_atom_site_fract_x
_atom_site_fract_y
_atom_site_fract_z
Si Si1 0.500000 0.250000 0.903833
Si Si2 0.304128 0.960411 0.297957
Si Si3 0.668588 0.955897 0.191042
Si Si4 0.588751 0.035719 0.663736
Si Si5 0.944489 0.957158 0.224439
Si Si6 0.692252 0.960935 0.081572
Si Si7 0.557542 0.038134 0.553304
Si Si8 0.923664 0.046509 0.942884
O O1 0.454398 0.406302 0.908979
O O2 0.309885 0.750000 0.293853
O O3 0.307430 0.035999 0.241507
O O4 0.353022 0.023683 0.327722
O O5 0.250000 0.000000 0.321751
O O6 0.682331 0.750000 0.189318
O O7 0.688238 0.032049 0.138965
O O8 0.607002 0.966439 0.199667
O O9 0.584739 0.250000 0.664231
O O10 0.574242 0.974219 0.608243
O O11 0.560104 0.977654 0.714763
O O12 0.944100 0.750000 0.212954
O O13 0.000000 0.033804 0.208730
O O14 0.687271 0.750000 0.080628
O O15 0.750000 0.000000 0.062010
O O16 0.638683 0.029257 0.058499
O O17 0.500000 0.966061 0.548175
O O18 0.556302 0.250000 0.556896
O O19 0.585005 0.000000 0.500000
O O20 0.936354 0.250000 0.931028
O O21 0.939441 0.000000 0.000000
#
# Coordination Sequence:
#
# PCOD9502185 Si02
#       8
#     4  16  16  16  16  16  16  16
#     4  12  24  48  74 104 144 170 226 270 322 398
#     4   9  17  30  49  75  98 129 172 219 265 316
#     4   9  20  37  57  78 111 152 195 234 288 349
#     4   9  18  32  49  68  94 131 171 207 259 327
#     4  10  20  32  48  74 109 140 180 233 280 335
#     4  11  23  43  65  95 133 171 217 268 321 384
#     4   9  17  29  46  68  93 122 157 200 248 309
#     4  12  25  44  73 106 136 176 221 271 329 384
#
# _framework density 22.125605
#
# number of rings (size 3 to 8) (size 9 to 14) (size 15 to 20)
#    0.000    2.069    1.379    2.897    0.000    5.793 
#    1.241    2.759    0.000    0.414    0.000    2.897 
#    0.000    0.000    0.000    0.000    0.000    0.000 
#
# Total GULP energy -323164.907410 kJ/mol
# GULP energy per Si atom -5571.808748 kJ/mol
# Density = 2.207525 g / cm^3
# Si number density = 22.125605 Si / 1000 Ang^3
#
#
#
# Elastic Constant Matrix: (Units=GPa)
#
#
# Indices 1 2 3 4 5 6 
#
# 1 137.9978 3.5905 17.4486 0.0000 0.0000 0.0000
# 2 3.5905 109.8404 -3.9325 0.0000 0.0000 0.0000
# 3 17.4486 -3.9325 78.4242 0.0000 0.0000 0.0000
# 4 0.0000 0.0000 0.0000 8.4614 0.0000 0.0000
# 5 0.0000 0.0000 0.0000 0.0000 -96.4968 0.0000
# 6 0.0000 0.0000 0.0000 0.0000 0.0000 29.6102
#
#
#
# Elastic Compliance Matrix: (Units=1/GPa)
#
#
# Indices 1 2 3 4 5 6 
#
# 1 0.007466 -0.000304 -0.001676 0.000000 0.000000 0.000000
# 2 -0.000304 0.009133 0.000526 0.000000 0.000000 0.000000
# 3 -0.001676 0.000526 0.013151 0.000000 0.000000 0.000000
# 4 0.000000 0.000000 0.000000 0.118184 0.000000 0.000000
# 5 0.000000 0.000000 0.000000 0.000000 -0.010363 0.000000
# 6 0.000000 0.000000 0.000000 0.000000 0.000000 0.033772
#
#
# Mechanical properties :
#
#
# Convention : Reuss Voigt Hill
#
# Bulk Modulus (GPa) = 37.25788 40.05283 38.65536
# Shear Modulus (GPa) = 27.29267 8.92534 18.10900
#
# Velocity S-wave (km/s) = 3.51598 2.01065 2.86398
# Velocity P-wave (km/s) = 5.77569 4.85098 5.33342
#
# Compressibility (1/GPa) = 0.02683996
#
# Stress axis : x y z
#
# Youngs Moduli (GPa) = 133.93375 109.49449 76.04261
#
# Poissons Ratio (x) = 0.03330 0.12748
# Poissons Ratio (y) = 0.04073 -0.03997
# Poissons Ratio (z) = 0.22453 -0.05755
#
# Static dielectric constant tensor:
#      x y z
#    x 1.842470 0.000000 0.000000 
#    y 0.000000 1.839280 0.000000 
#    z 0.000000 0.000000 1.870090 
# 
# From -- ./inp_files/44900.got.cif
#   From: 2010.05.17/outbox.cif.g08.bks.cpg/sg67_23_cif.got.tgz:44900.got - 2010.06.03 18:28:57.
