data_PCOD9502620
_publ_section_title
;
Structure prediction by ZEFSAII (Michael W. Deem and Ramdas Pophale) SiO2 
 PCOD9502620
Probable space group: C M M A
;
_chemical_formula_sum "Si O2"
_cell_formula_units_Z 96
_cell_length_a 27.062115
_cell_length_b 9.437046
_cell_length_c 22.523585
_cell_angle_alpha 90.000000
_cell_angle_beta 90.000000
_cell_angle_gamma 90.000000
_cell_volume 5752.217831
_symmetry_space_group_name_H-M "C M M A"
_symmetry_group_IT_number 67
_symmetry_cell_setting 'orthorhombic'
loop_
_space_group_symop_operation_xyz
x,y,z
-x,1/2-y,z
x,-y,-z
-x,1/2+y,-z
-x,-y,-z
x,1/2+y,-z
-x,y,z
x,1/2-y,z
1/2+x,1/2+y,z
1/2-x,-y,z
1/2+x,1/2-y,-z
1/2-x,y,-z
1/2-x,1/2-y,-z
1/2+x,y,-z
1/2-x,1/2+y,z
1/2+x,-y,z
loop_
_atom_site_type_symbol
_atom_site_label
_atom_site_fract_x
_atom_site_fract_y
_atom_site_fract_z
Si Si1 0.652707 0.522273 0.860222
Si Si2 0.702132 0.750000 0.086252
Si Si3 0.057249 0.919961 0.208169
Si Si4 0.317613 0.750000 0.948337
Si Si5 0.606013 0.079045 0.685142
Si Si6 0.300716 0.086027 0.265183
Si Si7 0.057749 0.918170 0.558582
O O1 0.681756 0.381751 0.877235
O O2 0.596135 0.515244 0.838675
O O3 0.656565 0.616684 0.918591
O O4 0.680823 0.586584 0.803223
O O5 0.760961 0.750000 0.075641
O O6 0.681708 0.750000 0.018956
O O7 0.067709 0.750000 0.214565
O O8 0.000000 0.935058 0.191654
O O9 0.068356 0.003713 0.269061
O O10 0.608331 0.250000 0.695042
O O11 0.588201 0.052970 0.618147
O O12 0.657713 0.002044 0.699270
O O13 0.296370 0.250000 0.284483
O O14 0.250000 0.000000 0.269126
O O15 0.059877 0.750000 0.547513
O O16 0.000000 0.955959 0.568858
O O17 0.074919 0.000000 0.500000
#
# Coordination Sequence:
#
# PCOD9502620 Si02
#       7
#    16   8  16   8  16  16  16
#     4  11  21  36  54  80 106 138 176 221 267 327
#     4  11  24  32  57  81 107 139 173 214 272 326
#     4  10  21  37  56  76 105 145 183 224 272 321
#     4  11  20  40  53  77 109 141 173 214 266 328
#     4  10  20  34  53  82 113 140 178 225 271 318
#     4  11  22  35  55  79 109 145 178 220 270 323
#     4   9  18  32  51  77 109 145 180 218 264 313
#
# _framework density 16.689215000000001
#
# number of rings (size 3 to 8) (size 9 to 14) (size 15 to 20)
#    0.000    1.667    1.667    4.500    5.833    3.667 
#    0.000    1.667    0.000    3.500    0.000    3.500 
#    0.000    0.000    0.000    0.000    0.000    0.000 
#
# Total GULP energy -267731.690017 kJ/mol
# GULP energy per Si atom -5577.743542 kJ/mol
# Density = 1.665123 g / cm^3
# Si number density = 16.689215 Si / 1000 Ang^3
#
#
#
# Elastic Constant Matrix: (Units=GPa)
#
#
# Indices 1 2 3 4 5 6 
#
# 1 94.4304 29.6802 43.6976 0.0000 0.0000 0.0000
# 2 29.6802 75.4314 34.8707 0.0000 0.0000 0.0000
# 3 43.6976 34.8707 101.8553 0.0000 0.0000 0.0000
# 4 0.0000 0.0000 0.0000 57.8426 0.0000 0.0000
# 5 0.0000 0.0000 0.0000 0.0000 22.5385 0.0000
# 6 0.0000 0.0000 0.0000 0.0000 0.0000 18.7351
#
#
#
# Elastic Compliance Matrix: (Units=1/GPa)
#
#
# Indices 1 2 3 4 5 6 
#
# 1 0.013837 -0.003208 -0.004838 0.000000 0.000000 0.000000
# 2 -0.003208 0.016493 -0.004270 0.000000 0.000000 0.000000
# 3 -0.004838 -0.004270 0.013355 0.000000 0.000000 0.000000
# 4 0.000000 0.000000 0.000000 0.017288 0.000000 0.000000
# 5 0.000000 0.000000 0.000000 0.000000 0.044368 0.000000
# 6 0.000000 0.000000 0.000000 0.000000 0.000000 0.053376
#
#
# Mechanical properties :
#
#
# Convention : Reuss Voigt Hill
#
# Bulk Modulus (GPa) = 52.48475 54.24603 53.36539
# Shear Modulus (GPa) = 26.35714 30.72114 28.53914
#
# Velocity S-wave (km/s) = 3.97834 4.29508 4.13974
# Velocity P-wave (km/s) = 7.25393 7.56116 7.40914
#
# Compressibility (1/GPa) = 0.01905315
#
# Stress axis : x y z
#
# Youngs Moduli (GPa) = 72.27072 60.63021 74.87594
#
# Poissons Ratio (x) = 0.19450 0.36225
# Poissons Ratio (y) = 0.23184 0.31975
# Poissons Ratio (z) = 0.34965 0.25891
#
# Static dielectric constant tensor:
#      x y z
#    x 1.562910 0.000000 0.000000 
#    y 0.000000 1.546660 0.000000 
#    z 0.000000 0.000000 1.532290 
# 
# From -- ./inp_files/42711.got.cif
#   From: 2010.05.17/outbox.cif.g08.bks.cpg/sg67_22_cif.got.tgz:42711.got - 2010.06.03 18:28:57.
