data_PCOD9502169
_publ_section_title
;
Structure prediction by ZEFSAII (Michael W. Deem and Ramdas Pophale) SiO2 
 PCOD9502169
Probable space group: C M M A
;
_chemical_formula_sum "Si O2"
_cell_formula_units_Z 88
_cell_length_a 22.602777
_cell_length_b 9.010111
_cell_length_c 24.438194
_cell_angle_alpha 90.000000
_cell_angle_beta 90.000000
_cell_angle_gamma 90.000000
_cell_volume 4976.924467
_symmetry_space_group_name_H-M "C M M A"
_symmetry_group_IT_number 67
_symmetry_cell_setting 'orthorhombic'
loop_
_space_group_symop_operation_xyz
x,y,z
-x,1/2-y,z
x,-y,-z
-x,1/2+y,-z
-x,-y,-z
x,1/2+y,-z
-x,y,z
x,1/2-y,z
1/2+x,1/2+y,z
1/2-x,-y,z
1/2+x,1/2-y,-z
1/2-x,y,-z
1/2-x,1/2-y,-z
1/2+x,y,-z
1/2-x,1/2+y,z
1/2+x,-y,z
loop_
_atom_site_type_symbol
_atom_site_label
_atom_site_fract_x
_atom_site_fract_y
_atom_site_fract_z
Si Si1 0.312988 0.423669 0.448644
Si Si2 0.187804 0.430519 0.939369
Si Si3 0.431761 0.928341 0.871989
Si Si4 0.500000 0.570779 0.559940
Si Si5 0.601417 0.076317 0.354444
Si Si6 0.570434 0.579825 0.244534
O O1 0.346412 0.500000 0.500000
O O2 0.310209 0.250000 0.461057
O O3 0.250000 0.500000 0.446856
O O4 0.339204 0.439608 0.388572
O O5 0.192963 0.250000 0.941154
O O6 0.250000 0.500000 0.916579
O O7 0.125967 0.469098 0.908348
O O8 0.182854 0.500000 0.000000
O O9 0.500000 0.977221 0.887926
O O10 0.433394 0.750000 0.871236
O O11 0.420249 0.989351 0.811112
O O12 0.500000 0.750000 0.553219
O O13 0.500000 0.500000 0.500000
O O14 0.445546 0.528886 0.599212
O O15 0.589604 0.250000 0.342322
O O16 0.599410 0.988347 0.298391
O O17 0.500000 0.575807 0.255222
O O18 0.588379 0.750000 0.236259
#
# Coordination Sequence:
#
# PCOD9502169 Si02
#       6
#    16  16  16   8  16  16
#     4  10  20  34  52  72  94 126 165 206 255 309
#     4  10  20  35  57  84 115 152 188 225 274 325
#     4   9  19  36  57  80 109 147 188 227 270 324
#     4  10  20  32  48  72 100 128 159 202 253 306
#     4  10  20  34  52  72  98 133 168 203 253 313
#     4  10  20  33  52  79 106 135 172 216 265 311
#
# _framework density 17.681602999999999
#
# number of rings (size 3 to 8) (size 9 to 14) (size 15 to 20)
#    0.000    2.182    0.909    3.273    0.000    4.727 
#    0.000    0.909    0.000    0.000    0.000    0.000 
#    0.000    0.000    0.000    0.000    0.000    0.000 
#
# Total GULP energy -244976.885017 kJ/mol
# GULP energy per Si atom -5567.656478 kJ/mol
# Density = 1.764136 g / cm^3
# Si number density = 17.681603 Si / 1000 Ang^3
#
#
#
# Elastic Constant Matrix: (Units=GPa)
#
#
# Indices 1 2 3 4 5 6 
#
# 1 99.8019 41.1695 58.3283 0.0000 0.0000 0.0000
# 2 41.1695 49.7480 38.0976 0.0000 0.0000 0.0000
# 3 58.3283 38.0976 93.0359 0.0000 0.0000 0.0000
# 4 0.0000 0.0000 0.0000 21.0873 0.0000 0.0000
# 5 0.0000 0.0000 0.0000 0.0000 -37.6213 0.0000
# 6 0.0000 0.0000 0.0000 0.0000 0.0000 19.9641
#
#
#
# Elastic Compliance Matrix: (Units=1/GPa)
#
#
# Indices 1 2 3 4 5 6 
#
# 1 0.018354 -0.009290 -0.007703 0.000000 0.000000 0.000000
# 2 -0.009290 0.033987 -0.008093 0.000000 0.000000 0.000000
# 3 -0.007703 -0.008093 0.018892 0.000000 0.000000 0.000000
# 4 0.000000 0.000000 0.000000 0.047422 0.000000 0.000000
# 5 0.000000 0.000000 0.000000 0.000000 -0.026581 0.000000
# 6 0.000000 0.000000 0.000000 0.000000 0.000000 0.050090
#
#
# Mechanical properties :
#
#
# Convention : Reuss Voigt Hill
#
# Bulk Modulus (GPa) = 47.48097 57.53073 52.50585
# Shear Modulus (GPa) = 25.08070 7.68538 16.38304
#
# Velocity S-wave (km/s) = 3.77033 2.08710 3.04724
# Velocity P-wave (km/s) = 6.77241 6.19804 6.49158
#
# Compressibility (1/GPa) = 0.02106107
#
# Stress axis : x y z
#
# Youngs Moduli (GPa) = 54.48439 29.42262 52.93323
#
# Poissons Ratio (x) = 0.27334 0.40772
# Poissons Ratio (y) = 0.50617 0.42840
# Poissons Ratio (z) = 0.41967 0.23812
#
# Static dielectric constant tensor:
#      x y z
#    x 1.672280 0.000000 0.000000 
#    y 0.000000 1.609660 0.000000 
#    z 0.000000 0.000000 1.626070 
# 
# From -- ./inp_files/39593.got.cif
#   From: 2010.05.17/outbox.cif.g08.bks.cpg/sg67_20_cif.got.tgz:39593.got - 2010.06.03 18:28:57.
