data_PCOD9502802
_publ_section_title
;
Structure prediction by ZEFSAII (Michael W. Deem and Ramdas Pophale) SiO2 
 PCOD9502802
Probable space group: C M M A
;
_chemical_formula_sum "Si O2"
_cell_formula_units_Z 104
_cell_length_a 27.250235
_cell_length_b 7.578918
_cell_length_c 24.924263
_cell_angle_alpha 90.000000
_cell_angle_beta 90.000000
_cell_angle_gamma 90.000000
_cell_volume 5147.540656
_symmetry_space_group_name_H-M "C M M A"
_symmetry_group_IT_number 67
_symmetry_cell_setting 'orthorhombic'
loop_
_space_group_symop_operation_xyz
x,y,z
-x,1/2-y,z
x,-y,-z
-x,1/2+y,-z
-x,-y,-z
x,1/2+y,-z
-x,y,z
x,1/2-y,z
1/2+x,1/2+y,z
1/2-x,-y,z
1/2+x,1/2-y,-z
1/2-x,y,-z
1/2-x,1/2-y,-z
1/2+x,y,-z
1/2-x,1/2+y,z
1/2+x,-y,z
loop_
_atom_site_type_symbol
_atom_site_label
_atom_site_fract_x
_atom_site_fract_y
_atom_site_fract_z
Si Si1 0.195269 0.959690 0.727267
Si Si2 0.655907 0.951778 0.163191
Si Si3 0.445433 0.035008 0.217769
Si Si4 0.904181 0.042830 0.670356
Si Si5 0.107698 0.962958 0.937217
Si Si6 0.000000 0.039038 0.063556
Si Si7 0.556235 0.461718 0.441208
O O1 0.188871 0.750000 0.730648
O O2 0.186491 0.033561 0.787773
O O3 0.250000 0.000000 0.709070
O O4 0.152075 0.024525 0.688775
O O5 0.673094 0.750000 0.156858
O O6 0.648979 0.030422 0.103941
O O7 0.600083 0.955437 0.185794
O O8 0.500000 0.984654 0.199438
O O9 0.441725 0.250000 0.215355
O O10 0.436665 0.976979 0.279611
O O11 0.915509 0.250000 0.667904
O O12 0.916125 0.969764 0.611635
O O13 0.106402 0.750000 0.932035
O O14 0.053399 0.031146 0.919671
O O15 0.115413 0.000000 0.000000
O O16 0.000000 0.250000 0.072180
O O17 0.000000 0.000000 0.000000
O O18 0.577640 0.500000 0.500000
O O19 0.500000 0.528251 0.440146
O O20 0.554393 0.250000 0.437924
#
# Coordination Sequence:
#
# PCOD9502802 Si02
#       7
#    16  16  16  16  16   8  16
#     4  10  20  35  54  75  95 119 154 199 250 300
#     4   9  19  32  47  68  93 120 153 192 237 288
#     4   9  17  28  43  66  95 126 159 194 231 276
#     4   9  17  31  50  71  98 131 165 200 240 283
#     4   9  17  29  44  63  88 120 154 189 227 272
#     4   8  14  24  38  56  80 114 150 178 209 250
#     4   9  17  29  47  73 106 144 178 204 232 270
#
# _framework density 20.203821999999999
#
# number of rings (size 3 to 8) (size 9 to 14) (size 15 to 20)
#    0.000    2.923    0.000    0.923    1.077    4.000 
#    0.000    0.000    0.000    3.692    0.000    6.462 
#    0.000    0.000    0.000    0.000    0.000    0.000 
#
# Total GULP energy -289770.120029 kJ/mol
# GULP energy per Si atom -5572.502308 kJ/mol
# Density = 2.015784 g / cm^3
# Si number density = 20.203822 Si / 1000 Ang^3
#
#
#
# Elastic Constant Matrix: (Units=GPa)
#
#
# Indices 1 2 3 4 5 6 
#
# 1 38.3823 -15.8084 10.4078 0.0000 0.0000 0.0000
# 2 -15.8084 50.4019 -3.2582 0.0000 0.0000 0.0000
# 3 10.4078 -3.2582 122.0625 0.0000 0.0000 0.0000
# 4 0.0000 0.0000 0.0000 16.4923 0.0000 0.0000
# 5 0.0000 0.0000 0.0000 0.0000 17.8858 0.0000
# 6 0.0000 0.0000 0.0000 0.0000 0.0000 7.3529
#
#
#
# Elastic Compliance Matrix: (Units=1/GPa)
#
#
# Indices 1 2 3 4 5 6 
#
# 1 0.030580 0.009439 -0.002355 0.000000 0.000000 0.000000
# 2 0.009439 0.022788 -0.000197 0.000000 0.000000 0.000000
# 3 -0.002355 -0.000197 0.008388 0.000000 0.000000 0.000000
# 4 0.000000 0.000000 0.000000 0.060634 0.000000 0.000000
# 5 0.000000 0.000000 0.000000 0.000000 0.055910 0.000000
# 6 0.000000 0.000000 0.000000 0.000000 0.000000 0.136001
#
#
# Mechanical properties :
#
#
# Convention : Reuss Voigt Hill
#
# Bulk Modulus (GPa) = 13.23966 21.50323 17.37145
# Shear Modulus (GPa) = 15.35131 22.97988 19.16559
#
# Velocity S-wave (km/s) = 2.75948 3.37620 3.08330
# Velocity P-wave (km/s) = 4.08904 5.08572 4.61437
#
# Compressibility (1/GPa) = 0.07553062
#
# Stress axis : x y z
#
# Youngs Moduli (GPa) = 32.70102 43.88210 119.21620
#
# Poissons Ratio (x) = -0.41421 0.28081
# Poissons Ratio (y) = -0.30867 0.02343
# Poissons Ratio (z) = 0.07703 0.00862
#
# Static dielectric constant tensor:
#      x y z
#    x 1.702360 0.000000 0.000000 
#    y 0.000000 1.755530 0.000000 
#    z 0.000000 0.000000 1.765940 
# 
# From -- ./inp_files/42757.got.cif
#   From: 2010.05.17/outbox.cif.g08.bks.cpg/sg67_22_cif.got.tgz:42757.got - 2010.06.03 18:28:57.
