data_PCOD9502316
_publ_section_title
;
Structure prediction by ZEFSAII (Michael W. Deem and Ramdas Pophale) SiO2 
 PCOD9502316
Probable space group: C M M A
;
_chemical_formula_sum "Si O2"
_cell_formula_units_Z 64
_cell_length_a 16.013583
_cell_length_b 17.538234
_cell_length_c 12.145333
_cell_angle_alpha 90.000000
_cell_angle_beta 90.000000
_cell_angle_gamma 90.000000
_cell_volume 3411.016358
_symmetry_space_group_name_H-M "C M M A"
_symmetry_group_IT_number 67
_symmetry_cell_setting 'orthorhombic'
loop_
_space_group_symop_operation_xyz
x,y,z
-x,1/2-y,z
x,-y,-z
-x,1/2+y,-z
-x,-y,-z
x,1/2+y,-z
-x,y,z
x,1/2-y,z
1/2+x,1/2+y,z
1/2-x,-y,z
1/2+x,1/2-y,-z
1/2-x,y,-z
1/2-x,1/2-y,-z
1/2+x,y,-z
1/2-x,1/2+y,z
1/2+x,-y,z
loop_
_atom_site_type_symbol
_atom_site_label
_atom_site_fract_x
_atom_site_fract_y
_atom_site_fract_z
Si Si1 0.164343 0.837546 0.752983
Si Si2 0.648859 0.015244 0.878668
Si Si3 0.814778 0.069078 0.676133
Si Si4 0.098565 0.836574 0.508431
O O1 0.157153 0.750000 0.785970
O O2 0.133916 0.898024 0.842647
O O3 0.259173 0.862561 0.726220
O O4 0.117226 0.849027 0.637045
O O5 0.750000 0.000000 0.884389
O O6 0.625596 0.962974 0.773373
O O7 0.614771 0.000000 0.000000
O O8 0.858117 0.101327 0.568293
O O9 0.750000 0.000000 0.650466
O O10 0.128849 0.750000 0.482815
O O11 0.000000 0.838924 0.490136
#
# Coordination Sequence:
#
# PCOD9502316 Si02
#       4
#    16  16  16  16
#     4   9  17  30  50  72  95 128 166 202 244 296
#     4   8  16  31  47  68  98 125 158 206 250 289
#     4   9  18  31  49  73 101 132 164 203 249 293
#     4  10  20  33  50  74 104 134 165 204 249 298
#
# _framework density 18.762737000000001
#
# number of rings (size 3 to 8) (size 9 to 14) (size 15 to 20)
#    0.000    3.500    0.000    1.500    0.000   10.000 
#    0.000   21.250    0.000    3.000    0.000    3.500 
#    0.000    0.000    0.000    0.000    0.000    0.000 
#
# Total GULP energy -178261.965393 kJ/mol
# GULP energy per Si atom -5570.686419 kJ/mol
# Density = 1.872003 g / cm^3
# Si number density = 18.762737 Si / 1000 Ang^3
#
#
#
# Elastic Constant Matrix: (Units=GPa)
#
#
# Indices 1 2 3 4 5 6 
#
# 1 15.8321 25.1352 21.6289 0.0000 0.0000 0.0000
# 2 25.1352 134.4588 112.6543 0.0000 0.0000 0.0000
# 3 21.6289 112.6543 129.9708 0.0000 0.0000 0.0000
# 4 0.0000 0.0000 0.0000 17.6670 0.0000 0.0000
# 5 0.0000 0.0000 0.0000 0.0000 -7.9086 0.0000
# 6 0.0000 0.0000 0.0000 0.0000 0.0000 13.4063
#
#
#
# Elastic Compliance Matrix: (Units=1/GPa)
#
#
# Indices 1 2 3 4 5 6 
#
# 1 0.089893 -0.015598 -0.001439 0.000000 0.000000 0.000000
# 2 -0.015598 0.029870 -0.023295 0.000000 0.000000 0.000000
# 3 -0.001439 -0.023295 0.028125 0.000000 0.000000 0.000000
# 4 0.000000 0.000000 0.000000 0.056603 0.000000 0.000000
# 5 0.000000 0.000000 0.000000 0.000000 -0.126444 0.000000
# 6 0.000000 0.000000 0.000000 0.000000 0.000000 0.074592
#
#
# Mechanical properties :
#
#
# Convention : Reuss Voigt Hill
#
# Bulk Modulus (GPa) = 14.87581 66.56651 40.72116
# Shear Modulus (GPa) = 19.55325 12.68914 16.12119
#
# Velocity S-wave (km/s) = 3.23171 2.60339 2.93441
# Velocity P-wave (km/s) = 4.67663 6.67772 5.76467
#
# Compressibility (1/GPa) = 0.06722325
#
# Stress axis : x y z
#
# Youngs Moduli (GPa) = 11.12431 33.47803 35.55585
#
# Poissons Ratio (x) = 0.52220 0.05118
# Poissons Ratio (y) = 0.17352 0.82827
# Poissons Ratio (z) = 0.01601 0.77987
#
# Static dielectric constant tensor:
#      x y z
#    x 1.671060 0.000000 0.000000 
#    y 0.000000 1.670360 0.000000 
#    z 0.000000 0.000000 1.682610 
# 
# From -- ./inp_files/19087.got.cif
#   From: 2010.05.17/outbox.cif.g08.bks.cpg/sg67_10_cif.got.tgz:19087.got - 2010.06.03 18:28:57.
