data_PCOD9502768
_publ_section_title
;
Structure prediction by ZEFSAII (Michael W. Deem and Ramdas Pophale) SiO2 
 PCOD9502768
Probable space group: C M M A
;
_chemical_formula_sum "Si O2"
_cell_formula_units_Z 80
_cell_length_a 25.166327
_cell_length_b 17.931269
_cell_length_c 9.344398
_cell_angle_alpha 90.000000
_cell_angle_beta 90.000000
_cell_angle_gamma 90.000000
_cell_volume 4216.792093
_symmetry_space_group_name_H-M "C M M A"
_symmetry_group_IT_number 67
_symmetry_cell_setting 'orthorhombic'
loop_
_space_group_symop_operation_xyz
x,y,z
-x,1/2-y,z
x,-y,-z
-x,1/2+y,-z
-x,-y,-z
x,1/2+y,-z
-x,y,z
x,1/2-y,z
1/2+x,1/2+y,z
1/2-x,-y,z
1/2+x,1/2-y,-z
1/2-x,y,-z
1/2-x,1/2-y,-z
1/2+x,y,-z
1/2-x,1/2+y,z
1/2+x,-y,z
loop_
_atom_site_type_symbol
_atom_site_label
_atom_site_fract_x
_atom_site_fract_y
_atom_site_fract_z
Si Si1 0.375995 0.929809 0.903275
Si Si2 0.281486 0.568225 0.351797
Si Si3 0.905587 0.468894 0.347525
Si Si4 0.775554 0.333413 0.844114
Si Si5 0.937320 0.336756 0.145206
O O1 0.326389 0.886460 0.837423
O O2 0.409796 0.967522 0.775506
O O3 0.406660 0.874578 0.011426
O O4 0.357479 0.000000 0.000000
O O5 0.250000 0.500000 0.277424
O O6 0.250000 0.577807 0.500000
O O7 0.342605 0.548082 0.366891
O O8 0.271005 0.640896 0.260604
O O9 0.925806 0.500000 0.500000
O O10 0.928574 0.392413 0.280448
O O11 0.792952 0.250000 0.812249
O O12 0.750000 0.337047 0.000000
O O13 0.920740 0.250000 0.167944
O O14 0.000000 0.336662 0.113818
#
# Coordination Sequence:
#
# PCOD9502768 Si02
#       5
#    16  16  16  16  16
#     4  10  20  34  59  83 109 152 194 239 286 347
#     4  11  20  36  57  79 117 162 193 224 279 347
#     4  11  21  37  63  90 117 155 202 245 288 350
#     4  11  22  32  49  82 115 147 191 241 285 332
#     4  10  23  43  63  84 117 155 194 249 310 358
#
# _framework density 18.971767
#
# number of rings (size 3 to 8) (size 9 to 14) (size 15 to 20)
#    0.000    1.400    4.000    3.000    0.000    6.800 
#    0.000    4.000    0.000    2.400    0.000    0.000 
#    0.000    0.000    0.000    0.000    0.000    0.000 
#
# Total GULP energy -223142.398028 kJ/mol
# GULP energy per Si atom -5578.559951 kJ/mol
# Density = 1.892859 g / cm^3
# Si number density = 18.971767 Si / 1000 Ang^3
#
#
#
# Elastic Constant Matrix: (Units=GPa)
#
#
# Indices 1 2 3 4 5 6 
#
# 1 46.6901 23.5122 -1.8535 0.0000 0.0000 0.0000
# 2 23.5122 146.3467 53.4501 0.0000 0.0000 0.0000
# 3 -1.8535 53.4501 95.0124 0.0000 0.0000 0.0000
# 4 0.0000 0.0000 0.0000 338.1585 0.0000 0.0000
# 5 0.0000 0.0000 0.0000 0.0000 9.3980 0.0000
# 6 0.0000 0.0000 0.0000 0.0000 0.0000 27.0099
#
#
#
# Elastic Compliance Matrix: (Units=1/GPa)
#
#
# Indices 1 2 3 4 5 6 
#
# 1 0.024115 -0.005092 0.003335 0.000000 0.000000 0.000000
# 2 -0.005092 0.009675 -0.005542 0.000000 0.000000 0.000000
# 3 0.003335 -0.005542 0.013708 0.000000 0.000000 0.000000
# 4 0.000000 0.000000 0.000000 0.002957 0.000000 0.000000
# 5 0.000000 0.000000 0.000000 0.000000 0.106406 0.000000
# 6 0.000000 0.000000 0.000000 0.000000 0.000000 0.037024
#
#
# Mechanical properties :
#
#
# Convention : Reuss Voigt Hill
#
# Bulk Modulus (GPa) = 30.39617 48.69630 39.54624
# Shear Modulus (GPa) = 22.78425 89.10930 55.94678
#
# Velocity S-wave (km/s) = 3.46924 6.86086 5.43631
# Velocity P-wave (km/s) = 5.66605 9.40667 7.76497
#
# Compressibility (1/GPa) = 0.03289888
#
# Stress axis : x y z
#
# Youngs Moduli (GPa) = 41.46860 103.35422 72.95063
#
# Poissons Ratio (x) = 0.52632 -0.24330
# Poissons Ratio (y) = 0.21117 0.40432
# Poissons Ratio (z) = -0.13831 0.57283
#
# Static dielectric constant tensor:
#      x y z
#    x 1.676490 0.000000 0.000000 
#    y 0.000000 1.693730 0.000000 
#    z 0.000000 0.000000 1.678570 
# 
# From -- ./inp_files/9898.got.cif
#   From: 2010.05.17/outbox.cif.g08.bks.cpg/sg67_5_cif.got.tgz:9898.got - 2010.06.03 18:28:57.
