data_PCOD9502264
_publ_section_title
;
Structure prediction by ZEFSAII (Michael W. Deem and Ramdas Pophale) SiO2 
 PCOD9502264
Probable space group: C M M A
;
_chemical_formula_sum "Si O2"
_cell_formula_units_Z 96
_cell_length_a 7.511637
_cell_length_b 26.738701
_cell_length_c 24.297605
_cell_angle_alpha 90.000000
_cell_angle_beta 90.000000
_cell_angle_gamma 90.000000
_cell_volume 4880.208364
_symmetry_space_group_name_H-M "C M M A"
_symmetry_group_IT_number 67
_symmetry_cell_setting 'orthorhombic'
loop_
_space_group_symop_operation_xyz
x,y,z
-x,1/2-y,z
x,-y,-z
-x,1/2+y,-z
-x,-y,-z
x,1/2+y,-z
-x,y,z
x,1/2-y,z
1/2+x,1/2+y,z
1/2-x,-y,z
1/2+x,1/2-y,-z
1/2-x,y,-z
1/2-x,1/2-y,-z
1/2+x,y,-z
1/2-x,1/2+y,z
1/2+x,-y,z
loop_
_atom_site_type_symbol
_atom_site_label
_atom_site_fract_x
_atom_site_fract_y
_atom_site_fract_z
Si Si1 0.281797 0.250000 0.870769
Si Si2 0.286648 0.443741 0.869241
Si Si3 0.213338 0.848316 0.935468
Si Si4 0.712968 0.807292 0.438673
Si Si5 0.786805 0.556411 0.743551
Si Si6 0.717950 0.348336 0.675849
Si Si7 0.716875 0.750000 0.256221
O O1 0.500000 0.250000 0.870879
O O2 0.221764 0.200405 0.902727
O O3 0.226111 0.250000 0.807172
O O4 0.500000 0.438954 0.866591
O O5 0.250000 0.500000 0.888919
O O6 0.218580 0.399522 0.907998
O O7 0.218461 0.438923 0.806411
O O8 0.000000 0.848426 0.929251
O O9 0.250000 0.845334 0.000000
O O10 0.500000 0.804294 0.433346
O O11 0.781798 0.750000 0.435121
O O12 0.750000 0.826487 0.500000
O O13 0.777140 0.839249 0.386860
O O14 0.750000 0.500000 0.724355
O O15 0.720564 0.600627 0.704454
O O16 0.000000 0.561785 0.746427
O O17 0.500000 0.349200 0.675931
O O18 0.771638 0.300011 0.711671
O O19 0.500000 0.750000 0.256375
#
# Coordination Sequence:
#
# PCOD9502264 Si02
#       7
#     8  16  16  16  16  16   8
#     4   9  17  29  46  67  93 119 146 183 226 270
#     4   9  18  32  49  69  92 116 147 186 230 273
#     4  10  20  33  48  68  91 118 151 185 222 268
#     4   9  16  27  43  66  95 124 152 183 221 265
#     4   9  17  30  48  69  92 119 149 186 228 270
#     4   9  15  25  44  70  96 118 149 189 226 266
#     4   9  14  23  44  73  95 113 142 187 234 268
#
# _framework density 19.671292000000001
#
# number of rings (size 3 to 8) (size 9 to 14) (size 15 to 20)
#    0.000    2.833    0.833    1.250    0.000    5.000 
#    0.000    2.500    0.000    0.500    0.000    7.000 
#    0.000    0.000    0.000    0.000    0.000    0.000 
#
# Total GULP energy -267854.616054 kJ/mol
# GULP energy per Si atom -5580.304501 kJ/mol
# Density = 1.962652 g / cm^3
# Si number density = 19.671292 Si / 1000 Ang^3
#
#
#
# Elastic Constant Matrix: (Units=GPa)
#
#
# Indices 1 2 3 4 5 6 
#
# 1 50.7068 3.4243 1.1996 0.0000 0.0000 0.0000
# 2 3.4243 175.1136 121.5704 0.0000 0.0000 0.0000
# 3 1.1996 121.5704 176.7367 0.0000 0.0000 0.0000
# 4 0.0000 0.0000 0.0000 -20.0432 0.0000 0.0000
# 5 0.0000 0.0000 0.0000 0.0000 16.2280 0.0000
# 6 0.0000 0.0000 0.0000 0.0000 0.0000 -4.4286
#
#
#
# Elastic Compliance Matrix: (Units=1/GPa)
#
#
# Indices 1 2 3 4 5 6 
#
# 1 0.019753 -0.000561 0.000252 0.000000 0.000000 0.000000
# 2 -0.000561 0.010946 -0.007526 0.000000 0.000000 0.000000
# 3 0.000252 -0.007526 0.010833 0.000000 0.000000 0.000000
# 4 0.000000 0.000000 0.000000 -0.049892 0.000000 0.000000
# 5 0.000000 0.000000 0.000000 0.000000 0.061622 0.000000
# 6 0.000000 0.000000 0.000000 0.000000 0.000000 -0.225804
#
#
# Mechanical properties :
#
#
# Convention : Reuss Voigt Hill
#
# Bulk Modulus (GPa) = 38.66588 72.77174 55.71881
# Shear Modulus (GPa) = -33.72647 16.77543 -8.47552
#
# Velocity S-wave (km/s) = -4.14515 2.92342 -2.07796
# Velocity P-wave (km/s) = 1.79192 6.96199 4.75701
#
# Compressibility (1/GPa) = 0.02586260
#
# Stress axis : x y z
#
# Youngs Moduli (GPa) = 50.62480 91.35681 92.31065
#
# Poissons Ratio (x) = 0.05127 -0.02326
# Poissons Ratio (y) = 0.02841 0.69469
# Poissons Ratio (z) = -0.01275 0.68751
#
# Static dielectric constant tensor:
#      x y z
#    x 1.769710 0.000000 0.000000 
#    y 0.000000 1.668870 0.000000 
#    z 0.000000 0.000000 1.674750 
# 
# From -- ./inp_files/37939.got.cif
#   From: 2010.05.17/outbox.cif.g08.bks.cpg/sg67_19_cif.got.tgz:37939.got - 2010.06.03 18:28:57.
