data_PCOD9502306
_publ_section_title
;
Structure prediction by ZEFSAII (Michael W. Deem and Ramdas Pophale) SiO2 
 PCOD9502306
Probable space group: C M M A
;
_chemical_formula_sum "Si O2"
_cell_formula_units_Z 88
_cell_length_a 9.001747
_cell_length_b 14.826496
_cell_length_c 31.447298
_cell_angle_alpha 90.000000
_cell_angle_beta 90.000000
_cell_angle_gamma 90.000000
_cell_volume 4197.093686
_symmetry_space_group_name_H-M "C M M A"
_symmetry_group_IT_number 67
_symmetry_cell_setting 'orthorhombic'
loop_
_space_group_symop_operation_xyz
x,y,z
-x,1/2-y,z
x,-y,-z
-x,1/2+y,-z
-x,-y,-z
x,1/2+y,-z
-x,y,z
x,1/2-y,z
1/2+x,1/2+y,z
1/2-x,-y,z
1/2+x,1/2-y,-z
1/2-x,y,-z
1/2-x,1/2-y,-z
1/2+x,y,-z
1/2-x,1/2+y,z
1/2+x,-y,z
loop_
_atom_site_type_symbol
_atom_site_label
_atom_site_fract_x
_atom_site_fract_y
_atom_site_fract_z
Si Si1 0.670002 0.360310 0.956685
Si Si2 0.822690 0.250000 0.454043
Si Si3 0.334933 0.643841 0.214158
Si Si4 0.822340 0.098870 0.699758
Si Si5 0.320838 0.599105 0.385875
Si Si6 0.829959 0.639369 0.130098
O O1 0.500000 0.390589 0.955822
O O2 0.669382 0.250000 0.956790
O O3 0.754953 0.388127 0.914078
O O4 0.750000 0.388742 0.000000
O O5 0.750000 0.250000 0.500000
O O6 0.784654 0.162769 0.425598
O O7 0.000000 0.250000 0.459234
O O8 0.500000 0.604845 0.222279
O O9 0.352256 0.750000 0.206508
O O10 0.231422 0.636786 0.255334
O O11 0.260229 0.607584 0.171380
O O12 0.749349 0.140162 0.657334
O O13 0.000000 0.098188 0.696503
O O14 0.750000 0.000000 0.699774
O O15 0.500000 0.592795 0.381232
O O16 0.250000 0.500000 0.391793
O O17 0.830619 0.750000 0.130478
O O18 0.000000 0.609631 0.132372
#
# Coordination Sequence:
#
# PCOD9502306 Si02
#       6
#    16   8  16  16  16  16
#     4   9  15  22  33  50  75 112 157 203 255 315
#     4  10  24  42  64  92 126 162 204 248 299 354
#     4  10  20  33  50  73 103 139 175 217 269 325
#     4  11  22  37  57  82 110 144 184 228 275 330
#     4  10  21  40  62  89 121 160 200 247 300 353
#     4   9  16  26  39  58  87 121 161 209 259 317
#
# _framework density 20.966889999999999
#
# number of rings (size 3 to 8) (size 9 to 14) (size 15 to 20)
#    0.000    2.182    0.000    4.909    1.273    7.273 
#    0.000    1.818    0.000    0.000    0.000    0.000 
#    0.000    0.727    0.000    7.273    0.000   11.273 
#
# Total GULP energy -245796.836727 kJ/mol
# GULP energy per Si atom -5586.291744 kJ/mol
# Density = 2.091917 g / cm^3
# Si number density = 20.966890 Si / 1000 Ang^3
#
#
#
# Elastic Constant Matrix: (Units=GPa)
#
#
# Indices 1 2 3 4 5 6 
#
# 1 175.1241 28.6203 101.6147 0.0000 0.0000 0.0000
# 2 28.6203 60.3075 38.0011 0.0000 0.0000 0.0000
# 3 101.6147 38.0011 220.6486 0.0000 0.0000 0.0000
# 4 0.0000 0.0000 0.0000 9.0108 0.0000 0.0000
# 5 0.0000 0.0000 0.0000 0.0000 38.1873 0.0000
# 6 0.0000 0.0000 0.0000 0.0000 0.0000 15.4015
#
#
#
# Elastic Compliance Matrix: (Units=1/GPa)
#
#
# Indices 1 2 3 4 5 6 
#
# 1 0.007935 -0.001641 -0.003372 0.000000 0.000000 0.000000
# 2 -0.001641 0.018940 -0.002506 0.000000 0.000000 0.000000
# 3 -0.003372 -0.002506 0.006516 0.000000 0.000000 0.000000
# 4 0.000000 0.000000 0.000000 0.110978 0.000000 0.000000
# 5 0.000000 0.000000 0.000000 0.000000 0.026187 0.000000
# 6 0.000000 0.000000 0.000000 0.000000 0.000000 0.064929
#
#
# Mechanical properties :
#
#
# Convention : Reuss Voigt Hill
#
# Bulk Modulus (GPa) = 54.48615 88.06140 71.27377
# Shear Modulus (GPa) = 19.48258 31.70953 25.59605
#
# Velocity S-wave (km/s) = 3.05160 3.89313 3.49776
# Velocity P-wave (km/s) = 6.20157 7.89303 7.09787
#
# Compressibility (1/GPa) = 0.01835329
#
# Stress axis : x y z
#
# Youngs Moduli (GPa) = 126.02780 52.79925 153.45941
#
# Poissons Ratio (x) = 0.08665 0.51739
# Poissons Ratio (y) = 0.20683 0.38458
# Poissons Ratio (z) = 0.42491 0.13232
#
# Static dielectric constant tensor:
#      x y z
#    x 1.726060 0.000000 0.000000 
#    y 0.000000 1.865930 0.000000 
#    z 0.000000 0.000000 1.746340 
# 
# From -- ./inp_files/45198.got.cif
#   From: 2010.05.17/outbox.cif.g08.bks.cpg/sg67_23_cif.got.tgz:45198.got - 2010.06.03 18:28:57.
