data_PCOD9502353
_publ_section_title
;
Structure prediction by ZEFSAII (Michael W. Deem and Ramdas Pophale) SiO2 
 PCOD9502353
Probable space group: C M M A
;
_chemical_formula_sum "Si O2"
_cell_formula_units_Z 96
_cell_length_a 19.305402
_cell_length_b 8.771062
_cell_length_c 32.618100
_cell_angle_alpha 90.000000
_cell_angle_beta 90.000000
_cell_angle_gamma 90.000000
_cell_volume 5523.186271
_symmetry_space_group_name_H-M "C M M A"
_symmetry_group_IT_number 67
_symmetry_cell_setting 'orthorhombic'
loop_
_space_group_symop_operation_xyz
x,y,z
-x,1/2-y,z
x,-y,-z
-x,1/2+y,-z
-x,-y,-z
x,1/2+y,-z
-x,y,z
x,1/2-y,z
1/2+x,1/2+y,z
1/2-x,-y,z
1/2+x,1/2-y,-z
1/2-x,y,-z
1/2-x,1/2-y,-z
1/2+x,y,-z
1/2-x,1/2+y,z
1/2+x,-y,z
loop_
_atom_site_type_symbol
_atom_site_label
_atom_site_fract_x
_atom_site_fract_y
_atom_site_fract_z
Si Si1 0.672804 0.566078 0.119919
Si Si2 0.919490 0.433934 0.043409
Si Si3 0.918561 0.432149 0.456103
Si Si4 0.171986 0.067492 0.210237
Si Si5 0.827502 0.567282 0.383401
Si Si6 0.327844 0.432144 0.292523
O O1 0.677504 0.750000 0.118571
O O2 0.750000 0.500000 0.116321
O O3 0.625602 0.514871 0.082155
O O4 0.643056 0.527403 0.165210
O O5 0.916786 0.250000 0.041571
O O6 0.000000 0.478744 0.048576
O O7 0.894753 0.500000 0.000000
O O8 0.896568 0.500000 0.500000
O O9 0.911326 0.250000 0.456974
O O10 0.874449 0.500622 0.419196
O O11 0.000000 0.469629 0.450693
O O12 0.175233 0.250000 0.213920
O O13 0.250000 0.000000 0.209152
O O14 0.138278 0.000355 0.251466
O O15 0.823540 0.750000 0.386616
O O16 0.750000 0.500000 0.386467
O O17 0.856569 0.530526 0.337687
O O18 0.324137 0.250000 0.288485
O O19 0.250000 0.500000 0.293554
#
# Coordination Sequence:
#
# PCOD9502353 Si02
#       6
#    16  16  16  16  16  16
#     4   9  18  30  45  68  94 120 150 188 232 272
#     4   9  18  33  50  66  87 117 153 189 227 275
#     4  10  21  37  56  76  99 129 165 203 244 293
#     4   9  15  24  40  62  89 120 152 186 226 273
#     4  10  20  33  51  76 104 132 164 203 245 287
#     4   9  16  26  42  66  95 126 157 191 232 275
#
# _framework density 17.381271999999999
#
# number of rings (size 3 to 8) (size 9 to 14) (size 15 to 20)
#    0.000    2.667    0.000    3.000    0.000    5.000 
#    0.000    3.333    0.000    1.000    0.000    2.333 
#    0.000    0.000    0.000    0.000    0.000    0.000 
#
# Total GULP energy -267366.346450 kJ/mol
# GULP energy per Si atom -5570.132218 kJ/mol
# Density = 1.734171 g / cm^3
# Si number density = 17.381272 Si / 1000 Ang^3
#
#
#
# Elastic Constant Matrix: (Units=GPa)
#
#
# Indices 1 2 3 4 5 6 
#
# 1 34.6987 20.6213 66.6757 0.0000 0.0000 0.0000
# 2 20.6213 44.8957 59.2207 0.0000 0.0000 0.0000
# 3 66.6757 59.2207 230.0510 0.0000 0.0000 0.0000
# 4 0.0000 0.0000 0.0000 32.6175 0.0000 0.0000
# 5 0.0000 0.0000 0.0000 0.0000 -13.1572 0.0000
# 6 0.0000 0.0000 0.0000 0.0000 0.0000 16.5957
#
#
#
# Elastic Compliance Matrix: (Units=1/GPa)
#
#
# Indices 1 2 3 4 5 6 
#
# 1 0.066796 -0.007789 -0.017355 0.000000 0.000000 0.000000
# 2 -0.007789 0.034634 -0.006658 0.000000 0.000000 0.000000
# 3 -0.017355 -0.006658 0.011091 0.000000 0.000000 0.000000
# 4 0.000000 0.000000 0.000000 0.030658 0.000000 0.000000
# 5 0.000000 0.000000 0.000000 0.000000 -0.076004 0.000000
# 6 0.000000 0.000000 0.000000 0.000000 0.000000 0.060256
#
#
# Mechanical properties :
#
#
# Convention : Reuss Voigt Hill
#
# Bulk Modulus (GPa) = 20.44235 66.96455 43.70345
# Shear Modulus (GPa) = 24.11492 18.08638 21.10065
#
# Velocity S-wave (km/s) = 3.72883 3.22928 3.48801
# Velocity P-wave (km/s) = 5.50687 7.24671 6.43585
#
# Compressibility (1/GPa) = 0.04891806
#
# Stress axis : x y z
#
# Youngs Moduli (GPa) = 14.97092 28.87340 90.16526
#
# Poissons Ratio (x) = 0.22488 1.56478
# Poissons Ratio (y) = 0.11660 0.60034
# Poissons Ratio (z) = 0.25981 0.19225
#
# Static dielectric constant tensor:
#      x y z
#    x 1.555550 0.000000 0.000000 
#    y 0.000000 1.583280 0.000000 
#    z 0.000000 0.000000 1.644830 
# 
# From -- ./inp_files/44586.got.cif
#   From: 2010.05.17/outbox.cif.g08.bks.cpg/sg67_23_cif.got.tgz:44586.got - 2010.06.03 18:28:57.
