data_PCOD9502321
_publ_section_title
;
Structure prediction by ZEFSAII (Michael W. Deem and Ramdas Pophale) SiO2 
 PCOD9502321
Probable space group: C M M A
;
_chemical_formula_sum "Si O2"
_cell_formula_units_Z 80
_cell_length_a 8.979881
_cell_length_b 19.949291
_cell_length_c 26.255950
_cell_angle_alpha 90.000000
_cell_angle_beta 90.000000
_cell_angle_gamma 90.000000
_cell_volume 4703.550201
_symmetry_space_group_name_H-M "C M M A"
_symmetry_group_IT_number 67
_symmetry_cell_setting 'orthorhombic'
loop_
_space_group_symop_operation_xyz
x,y,z
-x,1/2-y,z
x,-y,-z
-x,1/2+y,-z
-x,-y,-z
x,1/2+y,-z
-x,y,z
x,1/2-y,z
1/2+x,1/2+y,z
1/2-x,-y,z
1/2+x,1/2-y,-z
1/2-x,y,-z
1/2-x,1/2-y,-z
1/2+x,y,-z
1/2-x,1/2+y,z
1/2+x,-y,z
loop_
_atom_site_type_symbol
_atom_site_label
_atom_site_fract_x
_atom_site_fract_y
_atom_site_fract_z
Si Si1 0.820553 0.827849 0.553517
Si Si2 0.821067 0.427934 0.357572
Si Si3 0.671405 0.668454 0.051926
Si Si4 0.177600 0.170536 0.841677
Si Si5 0.321241 0.572930 0.240327
O O1 0.779110 0.750000 0.561800
O O2 0.750000 0.849818 0.500000
O O3 0.773096 0.873693 0.600746
O O4 0.000000 0.831056 0.549603
O O5 0.750000 0.500000 0.368303
O O6 0.784236 0.409325 0.299178
O O7 0.000000 0.433798 0.360253
O O8 0.500000 0.646517 0.054272
O O9 0.671405 0.750000 0.050366
O O10 0.759185 0.649926 0.103021
O O11 0.750000 0.645347 0.000000
O O12 0.209251 0.250000 0.834957
O O13 0.255167 0.126979 0.798243
O O14 0.000000 0.161595 0.840422
O O15 0.500000 0.569334 0.235471
O O16 0.250000 0.500000 0.230320
#
# Coordination Sequence:
#
# PCOD9502321 Si02
#       5
#    16  16  16  16  16
#     4   9  18  33  51  72  99 130 163 199 242 291
#     4   9  19  34  52  73  97 127 163 204 246 292
#     4   9  16  27  45  70 100 133 168 207 252 299
#     4  10  20  33  50  75 105 134 168 211 254 298
#     4  10  20  35  54  74  99 133 170 208 254 305
#
# _framework density 17.008429
#
# number of rings (size 3 to 8) (size 9 to 14) (size 15 to 20)
#    0.000    2.600    0.000    1.800    0.000    6.400 
#    0.000    4.000    0.000    3.000    0.000    4.200 
#    0.000    0.000    0.000    0.000    0.000    0.000 
#
# Total GULP energy -223058.178479 kJ/mol
# GULP energy per Si atom -5576.454462 kJ/mol
# Density = 1.696972 g / cm^3
# Si number density = 17.008429 Si / 1000 Ang^3
#
#
#
# Elastic Constant Matrix: (Units=GPa)
#
#
# Indices 1 2 3 4 5 6 
#
# 1 68.8915 48.0905 69.2984 0.0000 0.0000 0.0000
# 2 48.0905 70.0006 96.6205 0.0000 0.0000 0.0000
# 3 69.2984 96.6205 173.4905 0.0000 0.0000 0.0000
# 4 0.0000 0.0000 0.0000 -27.2393 0.0000 0.0000
# 5 0.0000 0.0000 0.0000 0.0000 32.8311 0.0000
# 6 0.0000 0.0000 0.0000 0.0000 0.0000 25.5614
#
#
#
# Elastic Compliance Matrix: (Units=1/GPa)
#
#
# Indices 1 2 3 4 5 6 
#
# 1 0.028058 -0.016458 -0.002042 0.000000 0.000000 0.000000
# 2 -0.016458 0.071417 -0.033200 0.000000 0.000000 0.000000
# 3 -0.002042 -0.033200 0.025069 0.000000 0.000000 0.000000
# 4 0.000000 0.000000 0.000000 -0.036712 0.000000 0.000000
# 5 0.000000 0.000000 0.000000 0.000000 0.030459 0.000000
# 6 0.000000 0.000000 0.000000 0.000000 0.000000 0.039121
#
#
# Mechanical properties :
#
#
# Convention : Reuss Voigt Hill
#
# Bulk Modulus (GPa) = 47.29085 82.26682 64.77883
# Shear Modulus (GPa) = 18.66643 12.78887 15.72765
#
# Velocity S-wave (km/s) = 3.31642 2.74508 3.04418
# Velocity P-wave (km/s) = 6.52147 7.64987 7.10810
#
# Compressibility (1/GPa) = 0.02114574
#
# Stress axis : x y z
#
# Youngs Moduli (GPa) = 35.64077 14.00219 39.88936
#
# Poissons Ratio (x) = 0.23044 0.08144
# Poissons Ratio (y) = 0.58656 1.32433
# Poissons Ratio (z) = 0.07277 0.46487
#
# Static dielectric constant tensor:
#      x y z
#    x 1.570220 0.000000 0.000000 
#    y 0.000000 1.550580 0.000000 
#    z 0.000000 0.000000 1.564780 
# 
# From -- ./inp_files/43214.got.cif
#   From: 2010.05.17/outbox.cif.g08.bks.cpg/sg67_22_cif.got.tgz:43214.got - 2010.06.03 18:28:57.
