data_PCOD9502808
_publ_section_title
;
Structure prediction by ZEFSAII (Michael W. Deem and Ramdas Pophale) SiO2 
 PCOD9502808
Probable space group: C M M A
;
_chemical_formula_sum "Si O2"
_cell_formula_units_Z 104
_cell_length_a 33.133155
_cell_length_b 8.782331
_cell_length_c 17.957842
_cell_angle_alpha 90.000000
_cell_angle_beta 90.000000
_cell_angle_gamma 90.000000
_cell_volume 5225.486615
_symmetry_space_group_name_H-M "C M M A"
_symmetry_group_IT_number 67
_symmetry_cell_setting 'orthorhombic'
loop_
_space_group_symop_operation_xyz
x,y,z
-x,1/2-y,z
x,-y,-z
-x,1/2+y,-z
-x,-y,-z
x,1/2+y,-z
-x,y,z
x,1/2-y,z
1/2+x,1/2+y,z
1/2-x,-y,z
1/2+x,1/2-y,-z
1/2-x,y,-z
1/2-x,1/2-y,-z
1/2+x,y,-z
1/2-x,1/2+y,z
1/2+x,-y,z
loop_
_atom_site_type_symbol
_atom_site_label
_atom_site_fract_x
_atom_site_fract_y
_atom_site_fract_z
Si Si1 0.619887 0.433123 0.812553
Si Si2 0.292057 0.077889 0.164669
Si Si3 0.000000 0.434570 0.584760
Si Si4 0.147450 0.574653 0.570657
Si Si5 0.082780 0.069695 0.660686
Si Si6 0.544994 0.933467 0.082699
Si Si7 0.789658 0.077976 0.657755
O O1 0.622806 0.250000 0.809830
O O2 0.663778 0.496713 0.839151
O O3 0.603361 0.491814 0.732415
O O4 0.583537 0.479548 0.868439
O O5 0.295108 0.250000 0.134416
O O6 0.285899 0.089819 0.253774
O O7 0.250000 0.000000 0.136622
O O8 0.000000 0.500000 0.500000
O O9 0.038347 0.478918 0.635447
O O10 0.000000 0.250000 0.577438
O O11 0.168774 0.500000 0.500000
O O12 0.138343 0.750000 0.561011
O O13 0.108787 0.473934 0.588371
O O14 0.175900 0.542142 0.640036
O O15 0.083802 0.250000 0.673576
O O16 0.500000 0.978258 0.111997
O O17 0.545519 0.750000 0.079043
O O18 0.548435 0.000000 0.000000
O O19 0.797725 0.250000 0.629872
O O20 0.750000 0.000000 0.625762
#
# Coordination Sequence:
#
# PCOD9502808 Si02
#       7
#    16  16   8  16  16  16  16
#     4  11  22  36  60  92 125 159 200 248 298 352
#     4  10  20  35  58  85 119 156 197 245 298 356
#     4  10  24  42  60  80 109 148 195 246 301 362
#     4  12  24  38  56  77 105 143 186 237 294 350
#     4  11  23  40  58  83 113 146 193 243 293 352
#     4   9  20  39  62  92 129 167 205 242 288 349
#     4  10  20  35  54  77 107 142 184 234 286 347
#
# _framework density 19.902452
#
# number of rings (size 3 to 8) (size 9 to 14) (size 15 to 20)
#    0.000    1.538    1.538    3.692    1.077    5.231 
#    0.000    1.538    0.000    0.462    0.000    3.231 
#    0.000    0.000    0.000    0.000    0.000    0.000 
#
# Total GULP energy -289718.088140 kJ/mol
# GULP energy per Si atom -5571.501695 kJ/mol
# Density = 1.985715 g / cm^3
# Si number density = 19.902452 Si / 1000 Ang^3
#
#
#
# Elastic Constant Matrix: (Units=GPa)
#
#
# Indices 1 2 3 4 5 6 
#
# 1 175.1556 54.3361 37.2733 0.0000 0.0000 0.0000
# 2 54.3361 66.5377 18.5193 0.0000 0.0000 0.0000
# 3 37.2733 18.5193 44.8126 0.0000 0.0000 0.0000
# 4 0.0000 0.0000 0.0000 23.8099 0.0000 0.0000
# 5 0.0000 0.0000 0.0000 0.0000 9.8606 0.0000
# 6 0.0000 0.0000 0.0000 0.0000 0.0000 18.1429
#
#
#
# Elastic Compliance Matrix: (Units=1/GPa)
#
#
# Indices 1 2 3 4 5 6 
#
# 1 0.008445 -0.005584 -0.004717 0.000000 0.000000 0.000000
# 2 -0.005584 0.020674 -0.003900 0.000000 0.000000 0.000000
# 3 -0.004717 -0.003900 0.027850 0.000000 0.000000 0.000000
# 4 0.000000 0.000000 0.000000 0.041999 0.000000 0.000000
# 5 0.000000 0.000000 0.000000 0.000000 0.101413 0.000000
# 6 0.000000 0.000000 0.000000 0.000000 0.000000 0.055118
#
#
# Mechanical properties :
#
#
# Convention : Reuss Voigt Hill
#
# Bulk Modulus (GPa) = 35.00276 56.30702 45.65489
# Shear Modulus (GPa) = 17.04025 22.12116 19.58071
#
# Velocity S-wave (km/s) = 2.92924 3.33750 3.14002
# Velocity P-wave (km/s) = 5.39129 6.57304 6.01127
#
# Compressibility (1/GPa) = 0.02856918
#
# Stress axis : x y z
#
# Youngs Moduli (GPa) = 118.41217 48.36963 35.90674
#
# Poissons Ratio (x) = 0.27008 0.16936
# Poissons Ratio (y) = 0.66117 0.14002
# Poissons Ratio (z) = 0.55853 0.18862
#
# Static dielectric constant tensor:
#      x y z
#    x 1.901900 0.000000 0.000000 
#    y 0.000000 1.692280 0.000000 
#    z 0.000000 0.000000 1.743530 
# 
# From -- ./inp_files/40181.got.cif
#   From: 2010.05.17/outbox.cif.g08.bks.cpg/sg67_21_cif.got.tgz:40181.got - 2010.06.03 18:28:57.
