data_PCOD9502867
_publ_section_title
;
Structure prediction by ZEFSAII (Michael W. Deem and Ramdas Pophale) SiO2 
 PCOD9502867
Probable space group: C M M A
;
_chemical_formula_sum "Si O2"
_cell_formula_units_Z 96
_cell_length_a 24.544881
_cell_length_b 14.356943
_cell_length_c 13.282680
_cell_angle_alpha 90.000000
_cell_angle_beta 90.000000
_cell_angle_gamma 90.000000
_cell_volume 4680.676399
_symmetry_space_group_name_H-M "C M M A"
_symmetry_group_IT_number 67
_symmetry_cell_setting 'orthorhombic'
loop_
_space_group_symop_operation_xyz
x,y,z
-x,1/2-y,z
x,-y,-z
-x,1/2+y,-z
-x,-y,-z
x,1/2+y,-z
-x,y,z
x,1/2-y,z
1/2+x,1/2+y,z
1/2-x,-y,z
1/2+x,1/2-y,-z
1/2-x,y,-z
1/2-x,1/2-y,-z
1/2+x,y,-z
1/2-x,1/2+y,z
1/2+x,-y,z
loop_
_atom_site_type_symbol
_atom_site_label
_atom_site_fract_x
_atom_site_fract_y
_atom_site_fract_z
Si Si1 0.000000 0.861829 0.778655
Si Si2 0.271118 0.104300 0.896210
Si Si3 0.838873 0.863047 0.603538
Si Si4 0.500000 0.023902 0.382070
Si Si5 0.889891 0.863000 0.388974
Si Si6 0.273753 0.144287 0.321474
Si Si7 0.617001 0.361391 0.820238
O O1 0.945426 0.882786 0.840121
O O2 0.000000 0.750000 0.752285
O O3 0.000000 0.928406 0.681626
O O4 0.248633 0.147206 0.792492
O O5 0.336208 0.101227 0.891493
O O6 0.250000 0.000000 0.892486
O O7 0.250000 0.146882 0.000000
O O8 0.835782 0.750000 0.604359
O O9 0.871764 0.886770 0.503649
O O10 0.776480 0.897808 0.614697
O O11 0.869720 0.890416 0.705458
O O12 0.554781 0.084004 0.361101
O O13 0.500000 0.000000 0.500000
O O14 0.897977 0.750000 0.381012
O O15 0.835193 0.892871 0.327830
O O16 0.279917 0.250000 0.360345
O O17 0.623324 0.250000 0.823493
#
# Coordination Sequence:
#
# PCOD9502867 Si02
#       7
#     8  16  16   8  16  16  16
#     4  10  22  39  58  79 110 153 199 245 279 324
#     4  10  21  35  56  85 117 142 174 230 295 348
#     4   8  14  28  52  80 111 147 185 224 270 324
#     4  12  25  35  52  80 110 154 203 233 280 332
#     4  10  20  35  55  81 118 153 189 232 276 336
#     4   9  18  33  56  82 108 149 187 223 284 339
#     4   9  18  34  58  82 106 145 190 233 284 326
#
# _framework density 20.509855999999999
#
# number of rings (size 3 to 8) (size 9 to 14) (size 15 to 20)
#    0.000    2.500    0.000    3.250    2.333    5.333 
#    0.000    0.000    0.000    3.000    0.000    2.333 
#    0.000    2.667    0.000    0.000    0.000    0.000 
#
# Total GULP energy -267816.046974 kJ/mol
# GULP energy per Si atom -5579.500979 kJ/mol
# Density = 2.046317 g / cm^3
# Si number density = 20.509856 Si / 1000 Ang^3
#
#
#
# Elastic Constant Matrix: (Units=GPa)
#
#
# Indices 1 2 3 4 5 6 
#
# 1 226.4067 43.6657 39.7527 0.0000 0.0000 0.0000
# 2 43.6657 77.5664 -2.8750 0.0000 0.0000 0.0000
# 3 39.7527 -2.8750 58.7232 0.0000 0.0000 0.0000
# 4 0.0000 0.0000 0.0000 14.2319 0.0000 0.0000
# 5 0.0000 0.0000 0.0000 0.0000 11.9534 0.0000
# 6 0.0000 0.0000 0.0000 0.0000 0.0000 24.6244
#
#
#
# Elastic Compliance Matrix: (Units=1/GPa)
#
#
# Indices 1 2 3 4 5 6 
#
# 1 0.005793 -0.003413 -0.004089 0.000000 0.000000 0.000000
# 2 -0.003413 0.014926 0.003041 0.000000 0.000000 0.000000
# 3 -0.004089 0.003041 0.019946 0.000000 0.000000 0.000000
# 4 0.000000 0.000000 0.000000 0.070265 0.000000 0.000000
# 5 0.000000 0.000000 0.000000 0.000000 0.083658 0.000000
# 6 0.000000 0.000000 0.000000 0.000000 0.000000 0.040610
#
#
# Mechanical properties :
#
#
# Convention : Reuss Voigt Hill
#
# Bulk Modulus (GPa) = 31.50193 58.19812 44.85002
# Shear Modulus (GPa) = 19.63098 28.97213 24.30155
#
# Velocity S-wave (km/s) = 3.09714 3.76253 3.44593
# Velocity P-wave (km/s) = 5.30871 6.87843 6.14391
#
# Compressibility (1/GPa) = 0.03174409
#
# Stress axis : x y z
#
# Youngs Moduli (GPa) = 172.62568 66.99708 50.13611
#
# Poissons Ratio (x) = 0.22864 0.20499
# Poissons Ratio (y) = 0.58911 -0.15246
# Poissons Ratio (z) = 0.70579 -0.20373
#
# Static dielectric constant tensor:
#      x y z
#    x 1.774820 0.000000 0.000000 
#    y 0.000000 1.836310 0.000000 
#    z 0.000000 0.000000 1.743340 
# 
# From -- ./inp_files/30075.got.cif
#   From: 2010.05.17/outbox.cif.g08.bks.cpg/sg67_16_cif.got.tgz:30075.got - 2010.06.03 18:28:57.
