data_PCOD9502770
_publ_section_title
;
Structure prediction by ZEFSAII (Michael W. Deem and Ramdas Pophale) SiO2 
 PCOD9502770
Probable space group: C M M A
;
_chemical_formula_sum "Si O2"
_cell_formula_units_Z 88
_cell_length_a 20.032228
_cell_length_b 13.322265
_cell_length_c 17.129635
_cell_angle_alpha 90.000000
_cell_angle_beta 90.000000
_cell_angle_gamma 90.000000
_cell_volume 4571.465345
_symmetry_space_group_name_H-M "C M M A"
_symmetry_group_IT_number 67
_symmetry_cell_setting 'orthorhombic'
loop_
_space_group_symop_operation_xyz
x,y,z
-x,1/2-y,z
x,-y,-z
-x,1/2+y,-z
-x,-y,-z
x,1/2+y,-z
-x,y,z
x,1/2-y,z
1/2+x,1/2+y,z
1/2-x,-y,z
1/2+x,1/2-y,-z
1/2-x,y,-z
1/2-x,1/2-y,-z
1/2+x,y,-z
1/2-x,1/2+y,z
1/2+x,-y,z
loop_
_atom_site_type_symbol
_atom_site_label
_atom_site_fract_x
_atom_site_fract_y
_atom_site_fract_z
Si Si1 0.813310 0.068246 0.187024
Si Si2 0.075291 0.138146 0.304134
Si Si3 0.246973 0.250000 0.092948
Si Si4 0.419432 0.750000 0.665794
Si Si5 0.601841 0.750000 0.853604
Si Si6 0.077534 0.548077 0.421669
Si Si7 0.926532 0.534884 0.088513
O O1 0.859520 0.123161 0.250846
O O2 0.788062 0.151193 0.126278
O O3 0.750000 0.000000 0.213587
O O4 0.866742 0.000405 0.142524
O O5 0.079310 0.250000 0.340478
O O6 0.000000 0.134505 0.267077
O O7 0.076942 0.044211 0.361857
O O8 0.320394 0.250000 0.127956
O O9 0.250000 0.250000 0.000000
O O10 0.500000 0.750000 0.662137
O O11 0.405480 0.750000 0.759120
O O12 0.395384 0.648549 0.621131
O O13 0.572018 0.652908 0.895564
O O14 0.108894 0.500000 0.500000
O O15 0.000000 0.573709 0.441409
O O16 0.000000 0.493952 0.109777
O O17 0.913863 0.500000 0.000000
#
# Coordination Sequence:
#
# PCOD9502770 Si02
#       7
#    16  16   8   8   8  16  16
#     4  12  24  41  63  88 122 162 208 260 309 381
#     4  10  21  39  63  93 129 165 206 257 314 376
#     4  12  26  42  62  88 118 164 216 264 315 370
#     4  10  20  34  59  91 125 164 213 265 317 379
#     4  12  22  42  64  91 126 165 216 272 310 382
#     4   9  19  34  58  93 130 165 204 254 314 377
#     4  11  24  40  62  89 121 160 206 265 328 379
#
# _framework density 19.249845000000001
#
# number of rings (size 3 to 8) (size 9 to 14) (size 15 to 20)
#    0.000    1.273    2.727    3.545    1.273    1.455 
#    0.000    0.909    0.000    0.545    0.000    2.545 
#    0.000    0.000    0.000    0.000    0.000    0.000 
#
# Total GULP energy -245171.104235 kJ/mol
# GULP energy per Si atom -5572.070551 kJ/mol
# Density = 1.920603 g / cm^3
# Si number density = 19.249845 Si / 1000 Ang^3
#
#
#
# Elastic Constant Matrix: (Units=GPa)
#
#
# Indices 1 2 3 4 5 6 
#
# 1 89.2439 17.7962 12.0365 0.0000 0.0000 0.0000
# 2 17.7962 149.1345 55.8166 0.0000 0.0000 0.0000
# 3 12.0365 55.8166 94.5709 0.0000 0.0000 0.0000
# 4 0.0000 0.0000 0.0000 23.1449 0.0000 0.0000
# 5 0.0000 0.0000 0.0000 0.0000 27.0037 0.0000
# 6 0.0000 0.0000 0.0000 0.0000 0.0000 32.5527
#
#
#
# Elastic Compliance Matrix: (Units=1/GPa)
#
#
# Indices 1 2 3 4 5 6 
#
# 1 0.011530 -0.001061 -0.000841 0.000000 0.000000 0.000000
# 2 -0.001061 0.008704 -0.005002 0.000000 0.000000 0.000000
# 3 -0.000841 -0.005002 0.013633 0.000000 0.000000 0.000000
# 4 0.000000 0.000000 0.000000 0.043206 0.000000 0.000000
# 5 0.000000 0.000000 0.000000 0.000000 0.037032 0.000000
# 6 0.000000 0.000000 0.000000 0.000000 0.000000 0.030719
#
#
# Mechanical properties :
#
#
# Convention : Reuss Voigt Hill
#
# Bulk Modulus (GPa) = 49.85327 56.02753 52.94040
# Shear Modulus (GPa) = 30.24424 33.02694 31.63559
#
# Velocity S-wave (km/s) = 3.96806 4.14659 4.05831
# Velocity P-wave (km/s) = 6.85188 7.21764 7.03714
#
# Compressibility (1/GPa) = 0.02005887
#
# Stress axis : x y z
#
# Youngs Moduli (GPa) = 86.72807 114.88776 73.34874
#
# Poissons Ratio (x) = 0.12190 0.06171
# Poissons Ratio (y) = 0.09202 0.36691
# Poissons Ratio (z) = 0.07296 0.57469
#
# Static dielectric constant tensor:
#      x y z
#    x 1.619830 0.000000 0.000000 
#    y 0.000000 1.777570 0.000000 
#    z 0.000000 0.000000 1.685710 
# 
# From -- ./inp_files/29191.got.cif
#   From: 2010.05.17/outbox.cif.g08.bks.cpg/sg67_15_cif.got.tgz:29191.got - 2010.06.03 18:28:57.
