data_PCOD9502325
_publ_section_title
;
Structure prediction by ZEFSAII (Michael W. Deem and Ramdas Pophale) SiO2 
 PCOD9502325
Probable space group: C M M A
;
_chemical_formula_sum "Si O2"
_cell_formula_units_Z 104
_cell_length_a 8.502669
_cell_length_b 27.761963
_cell_length_c 24.647806
_cell_angle_alpha 90.000000
_cell_angle_beta 90.000000
_cell_angle_gamma 90.000000
_cell_volume 5818.133885
_symmetry_space_group_name_H-M "C M M A"
_symmetry_group_IT_number 67
_symmetry_cell_setting 'orthorhombic'
loop_
_space_group_symop_operation_xyz
x,y,z
-x,1/2-y,z
x,-y,-z
-x,1/2+y,-z
-x,-y,-z
x,1/2+y,-z
-x,y,z
x,1/2-y,z
1/2+x,1/2+y,z
1/2-x,-y,z
1/2+x,1/2-y,-z
1/2-x,y,-z
1/2-x,1/2-y,-z
1/2+x,y,-z
1/2-x,1/2+y,z
1/2+x,-y,z
loop_
_atom_site_type_symbol
_atom_site_label
_atom_site_fract_x
_atom_site_fract_y
_atom_site_fract_z
Si Si1 0.188601 0.447155 0.856871
Si Si2 0.688462 0.052223 0.269809
Si Si3 0.189222 0.653218 0.879012
Si Si4 0.808826 0.303606 0.232634
Si Si5 0.311677 0.141271 0.662757
Si Si6 0.812010 0.305055 0.560115
Si Si7 0.688390 0.250000 0.061321
O O1 0.250000 0.500000 0.874353
O O2 0.240299 0.441272 0.793322
O O3 0.249858 0.400810 0.890370
O O4 0.000000 0.447431 0.858204
O O5 0.500000 0.054160 0.270529
O O6 0.755717 0.091395 0.311106
O O7 0.750000 0.000000 0.286241
O O8 0.241089 0.663187 0.816823
O O9 0.250327 0.700105 0.911427
O O10 0.000000 0.653372 0.882422
O O11 0.754369 0.250000 0.220933
O O12 0.757492 0.320526 0.291497
O O13 0.000000 0.303848 0.232710
O O14 0.500000 0.141524 0.660093
O O15 0.246357 0.157767 0.605189
O O16 0.758431 0.250000 0.573361
O O17 0.750000 0.316281 0.500000
O O18 0.000000 0.305167 0.559192
O O19 0.500000 0.250000 0.063358
O O20 0.750000 0.250000 0.000000
#
# Coordination Sequence:
#
# PCOD9502325 Si02
#       7
#    16  16  16  16  16  16   8
#     4  10  20  34  54  83 118 157 198 242 291 348
#     4  10  20  33  50  75 110 147 186 229 277 332
#     4  11  20  36  60  86 118 156 194 240 290 342
#     4   9  17  29  48  77 111 146 181 219 274 336
#     4  11  20  32  53  79 108 144 183 225 278 339
#     4  10  21  37  55  76 103 139 182 230 277 329
#     4  12  26  44  64  90 120 160 205 246 289 342
#
# _framework density 17.875146999999998
#
# number of rings (size 3 to 8) (size 9 to 14) (size 15 to 20)
#    0.000    1.692    2.308    3.462    0.000    2.769 
#    0.000    0.000    0.000    0.923    0.000    6.462 
#    0.000    0.000    0.000    0.000    0.000    0.000 
#
# Total GULP energy -290068.282246 kJ/mol
# GULP energy per Si atom -5578.236197 kJ/mol
# Density = 1.783446 g / cm^3
# Si number density = 17.875147 Si / 1000 Ang^3
#
#
#
# Elastic Constant Matrix: (Units=GPa)
#
#
# Indices 1 2 3 4 5 6 
#
# 1 62.3597 36.5144 21.6341 0.0000 0.0000 0.0000
# 2 36.5144 153.6799 40.9752 0.0000 0.0000 0.0000
# 3 21.6341 40.9752 59.8537 0.0000 0.0000 0.0000
# 4 0.0000 0.0000 0.0000 15.7755 0.0000 0.0000
# 5 0.0000 0.0000 0.0000 0.0000 21.5502 0.0000
# 6 0.0000 0.0000 0.0000 0.0000 0.0000 30.4855
#
#
#
# Elastic Compliance Matrix: (Units=1/GPa)
#
#
# Indices 1 2 3 4 5 6 
#
# 1 0.019689 -0.003401 -0.004788 0.000000 0.000000 0.000000
# 2 -0.003401 0.008548 -0.004622 0.000000 0.000000 0.000000
# 3 -0.004788 -0.004622 0.021602 0.000000 0.000000 0.000000
# 4 0.000000 0.000000 0.000000 0.063390 0.000000 0.000000
# 5 0.000000 0.000000 0.000000 0.000000 0.046403 0.000000
# 6 0.000000 0.000000 0.000000 0.000000 0.000000 0.032802
#
#
# Mechanical properties :
#
#
# Convention : Reuss Voigt Hill
#
# Bulk Modulus (GPa) = 41.29565 52.68229 46.98897
# Shear Modulus (GPa) = 22.11130 25.34687 23.72909
#
# Velocity S-wave (km/s) = 3.52090 3.76971 3.64743
# Velocity P-wave (km/s) = 6.29932 6.96305 6.63948
#
# Compressibility (1/GPa) = 0.02421562
#
# Stress axis : x y z
#
# Youngs Moduli (GPa) = 50.79048 116.99172 46.29152
#
# Poissons Ratio (x) = 0.39794 0.22164
# Poissons Ratio (y) = 0.17276 0.21397
# Poissons Ratio (z) = 0.24318 0.54075
#
# Static dielectric constant tensor:
#      x y z
#    x 1.604290 0.000000 0.000000 
#    y 0.000000 1.626770 0.000000 
#    z 0.000000 0.000000 1.591640 
# 
# From -- ./inp_files/37282.got.cif
#   From: 2010.05.17/outbox.cif.g08.bks.cpg/sg67_19_cif.got.tgz:37282.got - 2010.06.03 18:28:57.
