data_PCOD9502421
_publ_section_title
;
Structure prediction by ZEFSAII (Michael W. Deem and Ramdas Pophale) SiO2 
 PCOD9502421
Probable space group: C M M A
;
_chemical_formula_sum "Si O2"
_cell_formula_units_Z 88
_cell_length_a 9.757275
_cell_length_b 18.427336
_cell_length_c 27.243240
_cell_angle_alpha 90.000000
_cell_angle_beta 90.000000
_cell_angle_gamma 90.000000
_cell_volume 4898.350486
_symmetry_space_group_name_H-M "C M M A"
_symmetry_group_IT_number 67
_symmetry_cell_setting 'orthorhombic'
loop_
_space_group_symop_operation_xyz
x,y,z
-x,1/2-y,z
x,-y,-z
-x,1/2+y,-z
-x,-y,-z
x,1/2+y,-z
-x,y,z
x,1/2-y,z
1/2+x,1/2+y,z
1/2-x,-y,z
1/2+x,1/2-y,-z
1/2-x,y,-z
1/2-x,1/2-y,-z
1/2+x,y,-z
1/2-x,1/2+y,z
1/2+x,-y,z
loop_
_atom_site_type_symbol
_atom_site_label
_atom_site_fract_x
_atom_site_fract_y
_atom_site_fract_z
Si Si1 0.342544 0.070087 0.792736
Si Si2 0.000000 0.165489 0.916177
Si Si3 0.836999 0.250000 0.451050
Si Si4 0.500000 0.834690 0.034140
Si Si5 0.843629 0.162643 0.726951
Si Si6 0.847071 0.165624 0.358418
Si Si7 0.224487 0.918091 0.905121
O O1 0.500000 0.065691 0.775474
O O2 0.259326 0.136275 0.769069
O O3 0.343713 0.076245 0.851687
O O4 0.250000 0.000000 0.780355
O O5 0.866403 0.123864 0.898166
O O6 0.000000 0.250000 0.901964
O O7 0.000000 0.161164 0.975472
O O8 0.750000 0.250000 0.500000
O O9 0.809566 0.180320 0.415445
O O10 0.000000 0.250000 0.460659
O O11 0.500000 0.750000 0.048071
O O12 0.368940 0.874185 0.057163
O O13 0.851717 0.250000 0.726798
O O14 0.771401 0.135684 0.676319
O O15 0.000000 0.135671 0.732701
O O16 0.861568 0.250000 0.341422
O O17 0.000000 0.132785 0.354235
O O18 0.250000 0.000000 0.923085
#
# Coordination Sequence:
#
# PCOD9502421 Si02
#       7
#    16   8   8   8  16  16  16
#     4  11  24  41  60  80 109 145 180 231 281 334
#     4  11  25  41  63  89 121 149 177 233 285 332
#     4   8  14  22  38  64 100 148 190 234 285 338
#     4  11  23  43  63  89 119 147 185 227 281 344
#     4  10  20  33  53  81 109 143 185 229 276 331
#     4   7  13  26  41  62  98 139 181 228 273 326
#     4  11  24  41  63  87 113 150 188 230 279 341
#
# _framework density 17.965230999999999
#
# number of rings (size 3 to 8) (size 9 to 14) (size 15 to 20)
#    0.545    1.636    0.909    2.727    5.091    6.909 
#    0.000    0.000    0.000    0.000    0.000    0.000 
#    0.000    0.727    0.000    7.636    0.000    4.182 
#
# Total GULP energy -245057.300092 kJ/mol
# GULP energy per Si atom -5569.484093 kJ/mol
# Density = 1.792434 g / cm^3
# Si number density = 17.965231 Si / 1000 Ang^3
#
#
#
# Elastic Constant Matrix: (Units=GPa)
#
#
# Indices 1 2 3 4 5 6 
#
# 1 137.7992 38.5611 19.2386 0.0000 0.0000 0.0000
# 2 38.5611 66.7029 14.6896 0.0000 0.0000 0.0000
# 3 19.2386 14.6896 38.5678 0.0000 0.0000 0.0000
# 4 0.0000 0.0000 0.0000 -22.7357 0.0000 0.0000
# 5 0.0000 0.0000 0.0000 0.0000 132.2344 0.0000
# 6 0.0000 0.0000 0.0000 0.0000 0.0000 19.9685
#
#
#
# Elastic Compliance Matrix: (Units=1/GPa)
#
#
# Indices 1 2 3 4 5 6 
#
# 1 0.008910 -0.004554 -0.002710 0.000000 0.000000 0.000000
# 2 -0.004554 0.018692 -0.004848 0.000000 0.000000 0.000000
# 3 -0.002710 -0.004848 0.029126 0.000000 0.000000 0.000000
# 4 0.000000 0.000000 0.000000 -0.043984 0.000000 0.000000
# 5 0.000000 0.000000 0.000000 0.000000 0.007562 0.000000
# 6 0.000000 0.000000 0.000000 0.000000 0.000000 0.050079
#
#
# Mechanical properties :
#
#
# Convention : Reuss Voigt Hill
#
# Bulk Modulus (GPa) = 30.76439 43.11649 36.94044
# Shear Modulus (GPa) = 47.41866 37.26549 42.34207
#
# Velocity S-wave (km/s) = 5.14315 4.55940 4.86005
# Velocity P-wave (km/s) = 7.24092 7.19511 7.21805
#
# Compressibility (1/GPa) = 0.03250512
#
# Stress axis : x y z
#
# Youngs Moduli (GPa) = 112.23835 53.49867 34.33300
#
# Poissons Ratio (x) = 0.24363 0.09304
# Poissons Ratio (y) = 0.51112 0.16644
# Poissons Ratio (z) = 0.30415 0.25935
#
# Static dielectric constant tensor:
#      x y z
#    x 1.616710 0.000000 0.000000 
#    y 0.000000 1.615730 0.000000 
#    z 0.000000 0.000000 1.626240 
# 
# From -- ./inp_files/40727.got.cif
#   From: 2010.05.17/outbox.cif.g08.bks.cpg/sg67_21_cif.got.tgz:40727.got - 2010.06.03 18:28:57.
