data_PCOD9502247
_publ_section_title
;
Structure prediction by ZEFSAII (Michael W. Deem and Ramdas Pophale) SiO2 
 PCOD9502247
Probable space group: C M M A
;
_chemical_formula_sum "Si O2"
_cell_formula_units_Z 72
_cell_length_a 27.495702
_cell_length_b 14.582821
_cell_length_c 8.477232
_cell_angle_alpha 90.000000
_cell_angle_beta 90.000000
_cell_angle_gamma 90.000000
_cell_volume 3399.072486
_symmetry_space_group_name_H-M "C M M A"
_symmetry_group_IT_number 67
_symmetry_cell_setting 'orthorhombic'
loop_
_space_group_symop_operation_xyz
x,y,z
-x,1/2-y,z
x,-y,-z
-x,1/2+y,-z
-x,-y,-z
x,1/2+y,-z
-x,y,z
x,1/2-y,z
1/2+x,1/2+y,z
1/2-x,-y,z
1/2+x,1/2-y,-z
1/2-x,y,-z
1/2-x,1/2-y,-z
1/2+x,y,-z
1/2-x,1/2+y,z
1/2+x,-y,z
loop_
_atom_site_type_symbol
_atom_site_label
_atom_site_fract_x
_atom_site_fract_y
_atom_site_fract_z
Si Si1 0.214781 0.250000 0.220873
Si Si2 0.176095 0.250000 0.697471
Si Si3 0.555070 0.601117 0.929099
Si Si4 0.627116 0.250000 0.951789
Si Si5 0.703234 0.542994 0.171495
Si Si6 0.378563 0.562180 0.645577
O O1 0.265201 0.250000 0.320119
O O2 0.154768 0.250000 0.216525
O O3 0.216407 0.148635 0.148782
O O4 0.153205 0.343548 0.624374
O O5 0.161909 0.250000 0.887599
O O6 0.500000 0.636830 0.931363
O O7 0.576905 0.593995 0.754043
O O8 0.554959 0.500000 0.000000
O O9 0.592694 0.662806 0.026354
O O10 0.750000 0.500000 0.256607
O O11 0.656258 0.509509 0.262579
O O12 0.698447 0.500000 0.000000
O O13 0.394899 0.500000 0.500000
#
# Coordination Sequence:
#
# PCOD9502247 Si02
#       6
#     8   8  16   8  16  16
#     4  12  21  36  59  89 124 166 207 251 306 369
#     4  10  21  38  57  85 119 170 201 249 306 371
#     4  10  21  40  64  90 119 154 200 257 320 375
#     4  10  20  32  62  92 123 146 204 256 308 365
#     4  11  23  36  59  86 122 163 212 254 304 367
#     4  11  23  41  60  87 124 161 209 256 307 375
#
# _framework density 21.18225
#
# number of rings (size 3 to 8) (size 9 to 14) (size 15 to 20)
#    0.000    1.333    2.222    5.333    3.111    1.778 
#    0.000    2.222    0.000    0.000    0.000    0.000 
#    0.000    0.000    0.000    0.000    0.000    0.000 
#
# Total GULP energy -200431.444853 kJ/mol
# GULP energy per Si atom -5567.540135 kJ/mol
# Density = 2.113404 g / cm^3
# Si number density = 21.182250 Si / 1000 Ang^3
#
#
#
# Elastic Constant Matrix: (Units=GPa)
#
#
# Indices 1 2 3 4 5 6 
#
# 1 119.7464 14.3710 19.1803 0.0000 0.0000 0.0000
# 2 14.3710 167.0001 12.8586 0.0000 0.0000 0.0000
# 3 19.1803 12.8586 15.9154 0.0000 0.0000 0.0000
# 4 0.0000 0.0000 0.0000 -12.9377 0.0000 0.0000
# 5 0.0000 0.0000 0.0000 0.0000 -1.1944 0.0000
# 6 0.0000 0.0000 0.0000 0.0000 0.0000 24.2986
#
#
#
# Elastic Compliance Matrix: (Units=1/GPa)
#
#
# Indices 1 2 3 4 5 6 
#
# 1 0.010349 0.000074 -0.012533 0.000000 0.000000 0.000000
# 2 0.000074 0.006386 -0.005249 0.000000 0.000000 0.000000
# 3 -0.012533 -0.005249 0.082176 0.000000 0.000000 0.000000
# 4 0.000000 0.000000 0.000000 -0.077293 0.000000 0.000000
# 5 0.000000 0.000000 0.000000 0.000000 -0.837254 0.000000
# 6 0.000000 0.000000 0.000000 0.000000 0.000000 0.041155
#
#
# Mechanical properties :
#
#
# Convention : Reuss Voigt Hill
#
# Bulk Modulus (GPa) = 15.74870 43.94242 29.84556
# Shear Modulus (GPa) = -6.96475 19.11677 6.07601
#
# Velocity S-wave (km/s) = -1.81526 3.00741 1.69549
# Velocity P-wave (km/s) = 1.74856 5.73143 4.23714
#
# Compressibility (1/GPa) = 0.06349731
#
# Stress axis : x y z
#
# Youngs Moduli (GPa) = 96.62330 156.59811 12.16894
#
# Poissons Ratio (x) = -0.01165 0.15251
# Poissons Ratio (y) = -0.00719 0.06387
# Poissons Ratio (z) = 1.21095 0.82197
#
# Static dielectric constant tensor:
#      x y z
#    x 1.825490 0.000000 0.000000 
#    y 0.000000 1.801950 0.000000 
#    z 0.000000 0.000000 1.963100 
# 
# From -- ./inp_files/13378.got.cif
#   From: 2010.05.17/outbox.cif.g08.bks.cpg/sg67_7_cif.got.tgz:13378.got - 2010.06.03 18:28:57.
