data_PCOD9502673
_publ_section_title
;
Structure prediction by ZEFSAII (Michael W. Deem and Ramdas Pophale) SiO2 
 PCOD9502673
Probable space group: C M M A
;
_chemical_formula_sum "Si O2"
_cell_formula_units_Z 104
_cell_length_a 21.235750
_cell_length_b 8.624961
_cell_length_c 30.443773
_cell_angle_alpha 90.000000
_cell_angle_beta 90.000000
_cell_angle_gamma 90.000000
_cell_volume 5576.005827
_symmetry_space_group_name_H-M "C M M A"
_symmetry_group_IT_number 67
_symmetry_cell_setting 'orthorhombic'
loop_
_space_group_symop_operation_xyz
x,y,z
-x,1/2-y,z
x,-y,-z
-x,1/2+y,-z
-x,-y,-z
x,1/2+y,-z
-x,y,z
x,1/2-y,z
1/2+x,1/2+y,z
1/2-x,-y,z
1/2+x,1/2-y,-z
1/2-x,y,-z
1/2-x,1/2-y,-z
1/2+x,y,-z
1/2-x,1/2+y,z
1/2+x,-y,z
loop_
_atom_site_type_symbol
_atom_site_label
_atom_site_fract_x
_atom_site_fract_y
_atom_site_fract_z
Si Si1 0.426573 0.565853 0.889371
Si Si2 0.927781 0.060616 0.301353
Si Si3 0.000000 0.564123 0.450896
Si Si4 0.923910 0.073062 0.203689
Si Si5 0.817479 0.434767 0.049257
Si Si6 0.861858 0.563613 0.450585
Si Si7 0.814350 0.435432 0.363281
O O1 0.500000 0.515218 0.896010
O O2 0.424536 0.750000 0.895951
O O3 0.408317 0.525282 0.839143
O O4 0.376477 0.486475 0.921341
O O5 0.929268 0.250000 0.300929
O O6 0.906897 0.013225 0.252128
O O7 0.875876 0.010885 0.336400
O O8 0.000000 0.009292 0.310210
O O9 0.000000 0.500000 0.500000
O O10 0.932197 0.514365 0.433969
O O11 0.000000 0.750000 0.451264
O O12 0.900736 0.250000 0.198149
O O13 0.000000 0.080096 0.205305
O O14 0.813756 0.250000 0.047612
O O15 0.750000 0.500000 0.065676
O O16 0.825789 0.500000 0.000000
O O17 0.851952 0.500000 0.500000
O O18 0.858051 0.750000 0.452290
O O19 0.818284 0.496238 0.413078
O O20 0.813362 0.250000 0.363380
O O21 0.750000 0.500000 0.343107
#
# Coordination Sequence:
#
# PCOD9502673 Si02
#       7
#    16  16   8  16  16  16  16
#     4  10  20  34  54  83 117 149 186 233 281 330
#     4   8  16  33  58  84 106 136 181 226 268 320
#     4   8  16  30  50  76 106 132 160 204 252 298
#     4   8  14  29  54  81 108 139 179 226 275 327
#     4  11  22  38  58  79 109 149 193 237 285 338
#     4  10  20  36  56  80 108 139 175 214 261 313
#     4  11  23  38  56  79 110 144 178 219 267 319
#
# _framework density 18.651342
#
# number of rings (size 3 to 8) (size 9 to 14) (size 15 to 20)
#    0.000    2.462    0.000    4.154    1.077    2.154 
#    0.000    3.846    0.000    3.692    0.000    0.000 
#    0.000    0.000    0.000    0.000    0.000    0.000 
#
# Total GULP energy -289826.019993 kJ/mol
# GULP energy per Si atom -5573.577308 kJ/mol
# Density = 1.860889 g / cm^3
# Si number density = 18.651342 Si / 1000 Ang^3
#
#
#
# Elastic Constant Matrix: (Units=GPa)
#
#
# Indices 1 2 3 4 5 6 
#
# 1 127.8738 39.5489 72.6814 0.0000 0.0000 0.0000
# 2 39.5489 67.6207 35.7323 0.0000 0.0000 0.0000
# 3 72.6814 35.7323 108.1215 0.0000 0.0000 0.0000
# 4 0.0000 0.0000 0.0000 19.2368 0.0000 0.0000
# 5 0.0000 0.0000 0.0000 0.0000 6.4267 0.0000
# 6 0.0000 0.0000 0.0000 0.0000 0.0000 25.3855
#
#
#
# Elastic Compliance Matrix: (Units=1/GPa)
#
#
# Indices 1 2 3 4 5 6 
#
# 1 0.013388 -0.003725 -0.007768 0.000000 0.000000 0.000000
# 2 -0.003725 0.018954 -0.003760 0.000000 0.000000 0.000000
# 3 -0.007768 -0.003760 0.015714 0.000000 0.000000 0.000000
# 4 0.000000 0.000000 0.000000 0.051984 0.000000 0.000000
# 5 0.000000 0.000000 0.000000 0.000000 0.155602 0.000000
# 6 0.000000 0.000000 0.000000 0.000000 0.000000 0.039393
#
#
# Mechanical properties :
#
#
# Convention : Reuss Voigt Hill
#
# Bulk Modulus (GPa) = 56.98524 66.61569 61.80046
# Shear Modulus (GPa) = 15.08800 20.58669 17.83734
#
# Velocity S-wave (km/s) = 2.84729 3.32590 3.09586
# Velocity P-wave (km/s) = 6.43651 7.10933 6.78127
#
# Compressibility (1/GPa) = 0.01754840
#
# Stress axis : x y z
#
# Youngs Moduli (GPa) = 74.69527 52.75990 63.63935
#
# Poissons Ratio (x) = 0.19653 0.49438
# Poissons Ratio (y) = 0.27824 0.23928
# Poissons Ratio (z) = 0.58027 0.19837
#
# Static dielectric constant tensor:
#      x y z
#    x 1.681290 0.000000 0.000000 
#    y 0.000000 1.632230 0.000000 
#    z 0.000000 0.000000 1.637010 
# 
# From -- ./inp_files/45861.got.cif
#   From: 2010.05.17/outbox.cif.g08.bks.cpg/sg67_23_cif.got.tgz:45861.got - 2010.06.03 18:28:57.
