data_PCOD9502450
_publ_section_title
;
Structure prediction by ZEFSAII (Michael W. Deem and Ramdas Pophale) SiO2 
 PCOD9502450
Probable space group: C M M A
;
_chemical_formula_sum "Si O2"
_cell_formula_units_Z 116
_cell_length_a 18.360022
_cell_length_b 29.157354
_cell_length_c 12.070786
_cell_angle_alpha 90.000000
_cell_angle_beta 90.000000
_cell_angle_gamma 90.000000
_cell_volume 6461.849776
_symmetry_space_group_name_H-M "C M M A"
_symmetry_group_IT_number 67
_symmetry_cell_setting 'orthorhombic'
loop_
_space_group_symop_operation_xyz
x,y,z
-x,1/2-y,z
x,-y,-z
-x,1/2+y,-z
-x,-y,-z
x,1/2+y,-z
-x,y,z
x,1/2-y,z
1/2+x,1/2+y,z
1/2-x,-y,z
1/2+x,1/2-y,-z
1/2-x,y,-z
1/2-x,1/2-y,-z
1/2+x,y,-z
1/2-x,1/2+y,z
1/2+x,-y,z
loop_
_atom_site_type_symbol
_atom_site_label
_atom_site_fract_x
_atom_site_fract_y
_atom_site_fract_z
Si Si1 0.190078 0.922745 0.585215
Si Si2 0.294881 0.198933 0.886894
Si Si3 0.416004 0.068719 0.175068
Si Si4 0.750000 0.250000 0.500000
Si Si5 0.274292 0.831320 0.664737
Si Si6 0.828830 0.476972 0.192004
Si Si7 0.835155 0.608253 0.969931
Si Si8 0.414093 0.120407 0.406988
O O1 0.250000 0.942457 0.500000
O O2 0.231517 0.878494 0.637960
O O3 0.171078 0.957381 0.683108
O O4 0.121528 0.904581 0.513603
O O5 0.324108 0.250000 0.860513
O O6 0.239932 0.181893 0.791318
O O7 0.350115 0.156824 0.909670
O O8 0.250000 0.203172 0.000000
O O9 0.500000 0.068437 0.146595
O O10 0.407483 0.087889 0.299347
O O11 0.384450 0.017896 0.173058
O O12 0.376255 0.100073 0.084684
O O13 0.758348 0.290319 0.406139
O O14 0.358039 0.838645 0.625577
O O15 0.750000 0.500000 0.169341
O O16 0.845978 0.434642 0.111500
O O17 0.750000 0.607710 0.000000
O O18 0.500000 0.131772 0.421881
#
# Coordination Sequence:
#
# PCOD9502450 Si02
#       8
#    16  16  16   4  16  16  16  16
#     4  10  21  36  57  83 120 156 200 249 300 354
#     4  10  20  33  59  91 116 146 191 242 296 355
#     4  11  25  40  58  86 121 157 198 244 300 359
#     4  12  20  32  68  88 126 144 198 246 298 342
#     4  11  19  37  59  91 120 152 191 248 301 346
#     4  12  22  35  58  89 117 157 201 253 295 358
#     4  11  21  37  60  85 117 154 194 245 296 350
#     4  10  21  39  58  80 118 161 198 239 295 360
#
# _framework density 17.951516000000002
#
# number of rings (size 3 to 8) (size 9 to 14) (size 15 to 20)
#    0.000    1.241    5.517    3.724    0.000    3.586 
#    0.000    1.724    0.000    0.414    0.000    0.000 
#    0.000    0.000    0.000    0.000    0.000    0.000 
#
# Total GULP energy -322999.912734 kJ/mol
# GULP energy per Si atom -5568.964013 kJ/mol
# Density = 1.791066 g / cm^3
# Si number density = 17.951516 Si / 1000 Ang^3
#
#
#
# Elastic Constant Matrix: (Units=GPa)
#
#
# Indices 1 2 3 4 5 6 
#
# 1 82.9347 19.4499 23.2709 0.0000 0.0000 0.0000
# 2 19.4499 91.9617 6.2572 0.0000 0.0000 0.0000
# 3 23.2709 6.2572 74.3081 0.0000 0.0000 0.0000
# 4 0.0000 0.0000 0.0000 12.1789 0.0000 0.0000
# 5 0.0000 0.0000 0.0000 0.0000 21.3304 0.0000
# 6 0.0000 0.0000 0.0000 0.0000 0.0000 0.6449
#
#
#
# Elastic Compliance Matrix: (Units=1/GPa)
#
#
# Indices 1 2 3 4 5 6 
#
# 1 0.013831 -0.002646 -0.004109 0.000000 0.000000 0.000000
# 2 -0.002646 0.011443 -0.000135 0.000000 0.000000 0.000000
# 3 -0.004109 -0.000135 0.014756 0.000000 0.000000 0.000000
# 4 0.000000 0.000000 0.000000 0.082109 0.000000 0.000000
# 5 0.000000 0.000000 0.000000 0.000000 0.046881 0.000000
# 6 0.000000 0.000000 0.000000 0.000000 0.000000 1.550731
#
#
# Mechanical properties :
#
#
# Convention : Reuss Voigt Hill
#
# Bulk Modulus (GPa) = 38.09426 38.57342 38.33384
# Shear Modulus (GPa) = 2.86980 20.17925 11.52453
#
# Velocity S-wave (km/s) = 1.26575 3.35639 2.53648
# Velocity P-wave (km/s) = 4.83765 6.04605 5.47529
#
# Compressibility (1/GPa) = 0.02625067
#
# Stress axis : x y z
#
# Youngs Moduli (GPa) = 72.30126 87.39083 67.77115
#
# Poissons Ratio (x) = 0.23121 0.27845
# Poissons Ratio (y) = 0.19129 0.00915
# Poissons Ratio (z) = 0.29706 0.01180
#
# Static dielectric constant tensor:
#      x y z
#    x 1.541320 0.000000 0.000000 
#    y 0.000000 1.653850 0.000000 
#    z 0.000000 0.000000 1.682520 
# 
# From -- ./inp_files/20105.got.cif
#   From: 2010.05.17/outbox.cif.g08.bks.cpg/sg67_11_cif.got.tgz:20105.got - 2010.06.03 18:28:57.
