data_PCOD9502472
_publ_section_title
;
Structure prediction by ZEFSAII (Michael W. Deem and Ramdas Pophale) SiO2 
 PCOD9502472
Probable space group: C M M A
;
_chemical_formula_sum "Si O2"
_cell_formula_units_Z 64
_cell_length_a 14.792413
_cell_length_b 9.490446
_cell_length_c 21.885661
_cell_angle_alpha 90.000000
_cell_angle_beta 90.000000
_cell_angle_gamma 90.000000
_cell_volume 3072.453466
_symmetry_space_group_name_H-M "C M M A"
_symmetry_group_IT_number 67
_symmetry_cell_setting 'orthorhombic'
loop_
_space_group_symop_operation_xyz
x,y,z
-x,1/2-y,z
x,-y,-z
-x,1/2+y,-z
-x,-y,-z
x,1/2+y,-z
-x,y,z
x,1/2-y,z
1/2+x,1/2+y,z
1/2-x,-y,z
1/2+x,1/2-y,-z
1/2-x,y,-z
1/2-x,1/2-y,-z
1/2+x,y,-z
1/2-x,1/2+y,z
1/2+x,-y,z
loop_
_atom_site_type_symbol
_atom_site_label
_atom_site_fract_x
_atom_site_fract_y
_atom_site_fract_z
Si Si1 0.889522 0.912068 0.192382
Si Si2 0.846473 0.921286 0.557678
Si Si3 0.393302 0.094576 0.695429
Si Si4 0.110273 0.913556 0.058450
O O1 0.860995 0.750000 0.195552
O O2 0.862953 0.969872 0.125556
O O3 0.000000 0.911799 0.193127
O O4 0.857073 0.994048 0.251940
O O5 0.841920 0.750000 0.548600
O O6 0.886157 0.948442 0.624728
O O7 0.892192 0.000000 0.500000
O O8 0.750000 0.000000 0.561084
O O9 0.500000 0.105601 0.707630
O O10 0.351590 0.250000 0.700273
O O11 0.137117 0.750000 0.054008
O O12 0.000000 0.915879 0.057367
O O13 0.141985 0.000000 0.000000
#
# Coordination Sequence:
#
# PCOD9502472 Si02
#       4
#    16  16  16  16
#     4   8  14  24  37  55  81 112 145 180 217 257
#     4  10  20  34  51  69  90 116 146 180 218 261
#     4   9  18  31  46  66  91 117 146 181 220 261
#     4   8  13  20  30  47  73 106 143 178 211 250
#
# _framework density 20.830258000000001
#
# number of rings (size 3 to 8) (size 9 to 14) (size 15 to 20)
#    0.000    3.250    0.000    3.000    0.000    3.500 
#    0.000    5.000    0.000    0.000    0.000    0.000 
#    0.000    1.000    0.000   11.000    0.000   18.000 
#
# Total GULP energy -178180.086064 kJ/mol
# GULP energy per Si atom -5568.127690 kJ/mol
# Density = 2.078285 g / cm^3
# Si number density = 20.830258 Si / 1000 Ang^3
#
#
#
# Elastic Constant Matrix: (Units=GPa)
#
#
# Indices 1 2 3 4 5 6 
#
# 1 37.0539 7.7712 2.3900 0.0000 0.0000 0.0000
# 2 7.7712 88.5169 113.2551 0.0000 0.0000 0.0000
# 3 2.3900 113.2551 246.9730 0.0000 0.0000 0.0000
# 4 0.0000 0.0000 0.0000 47.0017 0.0000 0.0000
# 5 0.0000 0.0000 0.0000 0.0000 423.1163 0.0000
# 6 0.0000 0.0000 0.0000 0.0000 0.0000 2.1071
#
#
#
# Elastic Compliance Matrix: (Units=1/GPa)
#
#
# Indices 1 2 3 4 5 6 
#
# 1 0.027923 -0.005095 0.002066 0.000000 0.000000 0.000000
# 2 -0.005095 0.028266 -0.012913 0.000000 0.000000 0.000000
# 3 0.002066 -0.012913 0.009950 0.000000 0.000000 0.000000
# 4 0.000000 0.000000 0.000000 0.021276 0.000000 0.000000
# 5 0.000000 0.000000 0.000000 0.000000 0.002363 0.000000
# 6 0.000000 0.000000 0.000000 0.000000 0.000000 0.474595
#
#
# Mechanical properties :
#
#
# Convention : Reuss Voigt Hill
#
# Bulk Modulus (GPa) = 29.19177 68.81961 49.00569
# Shear Modulus (GPa) = 8.22807 111.05352 59.64080
#
# Velocity S-wave (km/s) = 1.98963 7.30953 5.35667
# Velocity P-wave (km/s) = 4.39576 10.21514 7.86358
#
# Compressibility (1/GPa) = 0.03425623
#
# Stress axis : x y z
#
# Youngs Moduli (GPa) = 35.81270 35.37794 100.49759
#
# Poissons Ratio (x) = 0.18026 -0.20766
# Poissons Ratio (y) = 0.18248 1.29771
# Poissons Ratio (z) = -0.07400 0.45683
#
# Static dielectric constant tensor:
#      x y z
#    x 1.822950 0.000000 0.000000 
#    y 0.000000 1.733260 0.000000 
#    z 0.000000 0.000000 1.796330 
# 
# From -- ./inp_files/31899.got.cif
#   From: 2010.05.17/outbox.cif.g08.bks.cpg/sg67_16_cif.got.tgz:31899.got - 2010.06.03 18:28:57.
