data_PCOD9502210
_publ_section_title
;
Structure prediction by ZEFSAII (Michael W. Deem and Ramdas Pophale) SiO2 
 PCOD9502210
Probable space group: C M M A
;
_chemical_formula_sum "Si O2"
_cell_formula_units_Z 112
_cell_length_a 22.564883
_cell_length_b 14.429897
_cell_length_c 14.650314
_cell_angle_alpha 90.000000
_cell_angle_beta 90.000000
_cell_angle_gamma 90.000000
_cell_volume 4770.273176
_symmetry_space_group_name_H-M "C M M A"
_symmetry_group_IT_number 67
_symmetry_cell_setting 'orthorhombic'
loop_
_space_group_symop_operation_xyz
x,y,z
-x,1/2-y,z
x,-y,-z
-x,1/2+y,-z
-x,-y,-z
x,1/2+y,-z
-x,y,z
x,1/2-y,z
1/2+x,1/2+y,z
1/2-x,-y,z
1/2+x,1/2-y,-z
1/2-x,y,-z
1/2-x,1/2-y,-z
1/2+x,y,-z
1/2-x,1/2+y,z
1/2+x,-y,z
loop_
_atom_site_type_symbol
_atom_site_label
_atom_site_fract_x
_atom_site_fract_y
_atom_site_fract_z
Si Si1 0.566350 0.140784 0.982066
Si Si2 0.570817 0.645252 0.225663
Si Si3 0.936437 0.137591 0.507713
Si Si4 0.677200 0.139961 0.245268
Si Si5 0.809888 0.137201 0.545231
Si Si6 0.194740 0.597427 0.050753
Si Si7 0.934159 0.454104 0.707246
O O1 0.500000 0.105537 0.010162
O O2 0.558987 0.250000 0.971777
O O3 0.580546 0.109922 0.877878
O O4 0.626908 0.130612 0.038350
O O5 0.500000 0.655058 0.236387
O O6 0.595636 0.750000 0.241041
O O7 0.589346 0.559897 0.289613
O O8 0.937524 0.250000 0.513286
O O9 0.868405 0.112555 0.485892
O O10 0.938928 0.090007 0.607028
O O11 0.000000 0.111950 0.460934
O O12 0.686103 0.250000 0.240128
O O13 0.690452 0.107484 0.348537
O O14 0.708620 0.095741 0.158210
O O15 0.608357 0.112877 0.237501
O O16 0.809893 0.250000 0.548726
O O17 0.750000 0.105558 0.500000
O O18 0.191960 0.500000 0.000000
O O19 0.250000 0.647072 0.000000
O O20 0.000000 0.455696 0.746990
#
# Coordination Sequence:
#
# PCOD9502210 Si02
#       7
#    16  16  16  16  16  16  16
#     4   9  18  33  52  73  99 137 188 241 291 348
#     4   8  14  25  42  65  95 138 195 251 296 340
#     4   8  13  21  35  61 101 145 183 224 285 357
#     4  10  20  32  49  76 109 148 195 242 292 358
#     4   8  14  26  45  71 105 144 188 237 285 342
#     4  11  24  39  54  76 109 153 200 248 303 357
#     4   9  15  24  41  67 104 147 188 239 297 350
#
# _framework density 23.478739000000001
#
# number of rings (size 3 to 8) (size 9 to 14) (size 15 to 20)
#    0.000    3.000    0.000    3.429    0.000    2.857 
#    0.000    0.000    0.000    0.000    0.000    3.000 
#    0.000   12.571    0.000    0.000    0.000  109.286 
#
# Total GULP energy -311765.464288 kJ/mol
# GULP energy per Si atom -5567.240434 kJ/mol
# Density = 2.342530 g / cm^3
# Si number density = 23.478739 Si / 1000 Ang^3
#
#
#
# Elastic Constant Matrix: (Units=GPa)
#
#
# Indices 1 2 3 4 5 6 
#
# 1 162.8325 -3.6520 63.7640 0.0000 0.0000 0.0000
# 2 -3.6520 36.8510 11.3984 0.0000 0.0000 0.0000
# 3 63.7640 11.3984 111.9812 0.0000 0.0000 0.0000
# 4 0.0000 0.0000 0.0000 14.6009 0.0000 0.0000
# 5 0.0000 0.0000 0.0000 0.0000 -0.8651 0.0000
# 6 0.0000 0.0000 0.0000 0.0000 0.0000 12.4642
#
#
#
# Elastic Compliance Matrix: (Units=1/GPa)
#
#
# Indices 1 2 3 4 5 6 
#
# 1 0.008088 0.002298 -0.004839 0.000000 0.000000 0.000000
# 2 0.002298 0.028672 -0.004227 0.000000 0.000000 0.000000
# 3 -0.004839 -0.004227 0.012116 0.000000 0.000000 0.000000
# 4 0.000000 0.000000 0.000000 0.068489 0.000000 0.000000
# 5 0.000000 0.000000 0.000000 0.000000 -1.155964 0.000000
# 6 0.000000 0.000000 0.000000 0.000000 0.000000 0.080229
#
#
# Mechanical properties :
#
#
# Convention : Reuss Voigt Hill
#
# Bulk Modulus (GPa) = 28.29720 50.52062 39.40891
# Shear Modulus (GPa) = -5.35874 21.25030 7.94578
#
# Velocity S-wave (km/s) = -1.51239 3.01173 1.84163
# Velocity P-wave (km/s) = 3.00477 5.80158 4.61990
#
# Compressibility (1/GPa) = 0.03533918
#
# Stress axis : x y z
#
# Youngs Moduli (GPa) = 123.64198 34.87771 82.53594
#
# Poissons Ratio (x) = -0.08016 0.39942
# Poissons Ratio (y) = -0.28418 0.34889
# Poissons Ratio (z) = 0.59834 0.14743
#
# Static dielectric constant tensor:
#      x y z
#    x 1.980900 0.000000 0.000000 
#    y 0.000000 1.866760 0.000000 
#    z 0.000000 0.000000 1.950610 
# 
# From -- ./inp_files/30156.got.cif
#   From: 2010.05.17/outbox.cif.g08.bks.cpg/sg67_16_cif.got.tgz:30156.got - 2010.06.03 18:28:57.
