data_PCOD9502963
_publ_section_title
;
Structure prediction by ZEFSAII (Michael W. Deem and Ramdas Pophale) SiO2 
 PCOD9502963
Probable space group: C M M A
;
_chemical_formula_sum "Si O2"
_cell_formula_units_Z 116
_cell_length_a 30.033354
_cell_length_b 8.069963
_cell_length_c 26.147657
_cell_angle_alpha 90.000000
_cell_angle_beta 90.000000
_cell_angle_gamma 90.000000
_cell_volume 6337.356784
_symmetry_space_group_name_H-M "C M M A"
_symmetry_group_IT_number 67
_symmetry_cell_setting 'orthorhombic'
loop_
_space_group_symop_operation_xyz
x,y,z
-x,1/2-y,z
x,-y,-z
-x,1/2+y,-z
-x,-y,-z
x,1/2+y,-z
-x,y,z
x,1/2-y,z
1/2+x,1/2+y,z
1/2-x,-y,z
1/2+x,1/2-y,-z
1/2-x,y,-z
1/2-x,1/2-y,-z
1/2+x,y,-z
1/2-x,1/2+y,z
1/2+x,-y,z
loop_
_atom_site_type_symbol
_atom_site_label
_atom_site_fract_x
_atom_site_fract_y
_atom_site_fract_z
Si Si1 0.298186 0.947612 0.822904
Si Si2 0.201757 0.448272 0.704930
Si Si3 0.500000 0.750000 0.443016
Si Si4 0.395051 0.557481 0.155258
Si Si5 0.448698 0.554870 0.746069
Si Si6 0.611671 0.440453 0.653079
Si Si7 0.448606 0.448376 0.056543
Si Si8 0.072627 0.443307 0.552202
O O1 0.299568 0.750000 0.822421
O O2 0.300321 0.008651 0.763958
O O3 0.250000 0.000000 0.844152
O O4 0.343230 0.009953 0.848701
O O5 0.198299 0.250000 0.705446
O O6 0.250000 0.500000 0.684473
O O7 0.160077 0.519944 0.675226
O O8 0.462409 0.596395 0.442384
O O9 0.398341 0.750000 0.167263
O O10 0.420076 0.467876 0.202270
O O11 0.419706 0.518979 0.102444
O O12 0.500000 0.497456 0.752692
O O13 0.449813 0.750000 0.734619
O O14 0.423901 0.470253 0.698607
O O15 0.609465 0.250000 0.637733
O O16 0.600484 0.550352 0.604051
O O17 0.500000 0.505535 0.061806
O O18 0.448100 0.250000 0.060040
O O19 0.433187 0.500000 0.000000
O O20 0.097065 0.500000 0.500000
O O21 0.055469 0.250000 0.546640
#
# Coordination Sequence:
#
# PCOD9502963 Si02
#       8
#    16  16   4  16  16  16  16  16
#     4  10  20  35  57  84 117 150 192 239 292 348
#     4  10  20  36  60  87 116 154 195 245 300 356
#     4  12  24  44  62  94 116 160 214 252 304 352
#     4  12  23  36  57  84 117 156 194 239 293 351
#     4  11  24  39  54  79 115 159 198 238 294 355
#     4  12  24  40  59  87 122 157 199 247 299 361
#     4  10  21  38  60  85 114 151 198 249 292 341
#     4  12  25  42  63  89 120 161 204 260 303 356
#
# _framework density 18.30416
#
# number of rings (size 3 to 8) (size 9 to 14) (size 15 to 20)
#    0.000    0.966    2.759    4.966    0.966    4.690 
#    0.000    0.000    0.000    0.828    0.000    5.793 
#    0.000    0.000    0.000    0.000    0.000    0.000 
#
# Total GULP energy -323274.780318 kJ/mol
# GULP energy per Si atom -5573.703109 kJ/mol
# Density = 1.826250 g / cm^3
# Si number density = 18.304160 Si / 1000 Ang^3
#
#
#
# Elastic Constant Matrix: (Units=GPa)
#
#
# Indices 1 2 3 4 5 6 
#
# 1 114.9420 20.5112 45.4243 0.0000 0.0000 0.0000
# 2 20.5112 96.0496 3.1643 0.0000 0.0000 0.0000
# 3 45.4243 3.1643 78.3590 0.0000 0.0000 0.0000
# 4 0.0000 0.0000 0.0000 28.6261 0.0000 0.0000
# 5 0.0000 0.0000 0.0000 0.0000 36.5830 0.0000
# 6 0.0000 0.0000 0.0000 0.0000 0.0000 14.7438
#
#
#
# Elastic Compliance Matrix: (Units=1/GPa)
#
#
# Indices 1 2 3 4 5 6 
#
# 1 0.011768 -0.002291 -0.006730 0.000000 0.000000 0.000000
# 2 -0.002291 0.010871 0.000889 0.000000 0.000000 0.000000
# 3 -0.006730 0.000889 0.016627 0.000000 0.000000 0.000000
# 4 0.000000 0.000000 0.000000 0.034933 0.000000 0.000000
# 5 0.000000 0.000000 0.000000 0.000000 0.027335 0.000000
# 6 0.000000 0.000000 0.000000 0.000000 0.000000 0.067825
#
#
# Mechanical properties :
#
#
# Convention : Reuss Voigt Hill
#
# Bulk Modulus (GPa) = 43.47189 47.50557 45.48873
# Shear Modulus (GPa) = 25.86768 30.67394 28.27081
#
# Velocity S-wave (km/s) = 3.76335 4.09808 3.93428
# Velocity P-wave (km/s) = 6.53338 6.95717 6.74860
#
# Compressibility (1/GPa) = 0.02300337
#
# Stress axis : x y z
#
# Youngs Moduli (GPa) = 84.97314 91.98518 60.14329
#
# Poissons Ratio (x) = 0.21078 0.40474
# Poissons Ratio (y) = 0.19471 -0.05349
# Poissons Ratio (z) = 0.57183 -0.08180
#
# Static dielectric constant tensor:
#      x y z
#    x 1.626860 0.000000 0.000000 
#    y 0.000000 1.657410 0.000000 
#    z 0.000000 0.000000 1.632100 
# 
# From -- ./inp_files/42848.got.cif
#   From: 2010.05.17/outbox.cif.g08.bks.cpg/sg67_22_cif.got.tgz:42848.got - 2010.06.03 18:28:57.
