data_PCOD9502868
_publ_section_title
;
Structure prediction by ZEFSAII (Michael W. Deem and Ramdas Pophale) SiO2 
 PCOD9502868
Probable space group: C M M A
;
_chemical_formula_sum "Si O2"
_cell_formula_units_Z 104
_cell_length_a 29.971968
_cell_length_b 8.476447
_cell_length_c 20.901597
_cell_angle_alpha 90.000000
_cell_angle_beta 90.000000
_cell_angle_gamma 90.000000
_cell_volume 5310.171910
_symmetry_space_group_name_H-M "C M M A"
_symmetry_group_IT_number 67
_symmetry_cell_setting 'orthorhombic'
loop_
_space_group_symop_operation_xyz
x,y,z
-x,1/2-y,z
x,-y,-z
-x,1/2+y,-z
-x,-y,-z
x,1/2+y,-z
-x,y,z
x,1/2-y,z
1/2+x,1/2+y,z
1/2-x,-y,z
1/2+x,1/2-y,-z
1/2-x,y,-z
1/2-x,1/2-y,-z
1/2+x,y,-z
1/2-x,1/2+y,z
1/2+x,-y,z
loop_
_atom_site_type_symbol
_atom_site_label
_atom_site_fract_x
_atom_site_fract_y
_atom_site_fract_z
Si Si1 0.049865 0.934690 0.750359
Si Si2 0.300369 0.560010 0.809532
Si Si3 0.451978 0.564026 0.095369
Si Si4 0.500000 0.440500 0.573102
Si Si5 0.853970 0.560004 0.932859
Si Si6 0.360992 0.065277 0.306663
Si Si7 0.098774 0.062374 0.428250
O O1 0.056366 0.750000 0.732096
O O2 0.049816 0.941903 0.827441
O O3 0.000000 0.980867 0.728675
O O4 0.090946 0.034225 0.725637
O O5 0.301366 0.750000 0.810288
O O6 0.250000 0.500000 0.811767
O O7 0.327277 0.498861 0.871197
O O8 0.324902 0.503998 0.744409
O O9 0.500000 0.493569 0.075624
O O10 0.452695 0.750000 0.078142
O O11 0.405175 0.497308 0.071384
O O12 0.500000 0.250000 0.576522
O O13 0.500000 0.500000 0.500000
O O14 0.549181 0.492577 0.595984
O O15 0.854683 0.750000 0.931658
O O16 0.834573 0.500000 0.000000
O O17 0.353579 0.250000 0.315121
O O18 0.364939 0.988624 0.376361
O O19 0.097535 0.250000 0.431576
O O20 0.105867 0.000000 0.500000
#
# Coordination Sequence:
#
# PCOD9502868 Si02
#       7
#    16  16  16   8  16  16  16
#     4   9  17  31  53  80 112 153 200 241 280 336
#     4  11  25  45  67  90 116 145 189 244 301 361
#     4   8  15  30  53  81 115 157 200 238 278 331
#     4   8  16  30  48  74 110 156 203 240 273 320
#     4  11  22  38  62  89 122 158 196 240 291 347
#     4  11  23  37  57  87 120 152 191 241 296 351
#     4  10  20  35  55  81 118 161 204 243 284 337
#
# _framework density 19.585054
#
# number of rings (size 3 to 8) (size 9 to 14) (size 15 to 20)
#    0.000    2.154    1.538    2.769    1.077    3.385 
#    0.000    1.538    0.000    1.846    0.000    3.231 
#    0.000    0.000    0.000    0.000    0.000    0.000 
#
# Total GULP energy -290173.304080 kJ/mol
# GULP energy per Si atom -5580.255848 kJ/mol
# Density = 1.954048 g / cm^3
# Si number density = 19.585054 Si / 1000 Ang^3
#
#
#
# Elastic Constant Matrix: (Units=GPa)
#
#
# Indices 1 2 3 4 5 6 
#
# 1 118.2458 22.0782 69.7712 0.0000 0.0000 0.0000
# 2 22.0782 35.0129 32.6393 0.0000 0.0000 0.0000
# 3 69.7712 32.6393 138.6650 0.0000 0.0000 0.0000
# 4 0.0000 0.0000 0.0000 26.0227 0.0000 0.0000
# 5 0.0000 0.0000 0.0000 0.0000 -10.6442 0.0000
# 6 0.0000 0.0000 0.0000 0.0000 0.0000 16.9789
#
#
#
# Elastic Compliance Matrix: (Units=1/GPa)
#
#
# Indices 1 2 3 4 5 6 
#
# 1 0.012200 -0.002524 -0.005544 0.000000 0.000000 0.000000
# 2 -0.002524 0.037112 -0.007465 0.000000 0.000000 0.000000
# 3 -0.005544 -0.007465 0.011758 0.000000 0.000000 0.000000
# 4 0.000000 0.000000 0.000000 0.038428 0.000000 0.000000
# 5 0.000000 0.000000 0.000000 0.000000 -0.093948 0.000000
# 6 0.000000 0.000000 0.000000 0.000000 0.000000 0.058897
#
#
# Mechanical properties :
#
#
# Convention : Reuss Voigt Hill
#
# Bulk Modulus (GPa) = 33.33092 60.10014 46.71553
# Shear Modulus (GPa) = 47.38637 17.63382 32.51009
#
# Velocity S-wave (km/s) = 4.92419 3.00387 4.07866
# Velocity P-wave (km/s) = 7.02750 6.54098 6.78860
#
# Compressibility (1/GPa) = 0.03000217
#
# Stress axis : x y z
#
# Youngs Moduli (GPa) = 81.96919 26.94552 85.04491
#
# Poissons Ratio (x) = 0.06802 0.47151
# Poissons Ratio (y) = 0.20692 0.63489
# Poissons Ratio (z) = 0.45446 0.20116
#
# Static dielectric constant tensor:
#      x y z
#    x 1.697810 0.000000 0.000000 
#    y 0.000000 1.688270 0.000000 
#    z 0.000000 0.000000 1.713460 
# 
# From -- ./inp_files/39942.got.cif
#   From: 2010.05.17/outbox.cif.g08.bks.cpg/sg67_20_cif.got.tgz:39942.got - 2010.06.03 18:28:57.
