data_PCOD9502924
_publ_section_title
;
Structure prediction by ZEFSAII (Michael W. Deem and Ramdas Pophale) SiO2 
 PCOD9502924
Probable space group: C M M A
;
_chemical_formula_sum "Si O2"
_cell_formula_units_Z 104
_cell_length_a 21.520431
_cell_length_b 8.957218
_cell_length_c 29.732410
_cell_angle_alpha 90.000000
_cell_angle_beta 90.000000
_cell_angle_gamma 90.000000
_cell_volume 5731.314255
_symmetry_space_group_name_H-M "C M M A"
_symmetry_group_IT_number 67
_symmetry_cell_setting 'orthorhombic'
loop_
_space_group_symop_operation_xyz
x,y,z
-x,1/2-y,z
x,-y,-z
-x,1/2+y,-z
-x,-y,-z
x,1/2+y,-z
-x,y,z
x,1/2-y,z
1/2+x,1/2+y,z
1/2-x,-y,z
1/2+x,1/2-y,-z
1/2-x,y,-z
1/2-x,1/2-y,-z
1/2+x,y,-z
1/2-x,1/2+y,z
1/2+x,-y,z
loop_
_atom_site_type_symbol
_atom_site_label
_atom_site_fract_x
_atom_site_fract_y
_atom_site_fract_z
Si Si1 0.684385 0.579407 0.959339
Si Si2 0.619170 0.577506 0.112647
Si Si3 0.000000 0.421967 0.049077
Si Si4 0.575121 0.579242 0.545433
Si Si5 0.685807 0.927222 0.201463
Si Si6 0.182823 0.430039 0.700792
Si Si7 0.073381 0.570750 0.640905
O O1 0.688433 0.750000 0.970527
O O2 0.750000 0.500000 0.958158
O O3 0.659554 0.549110 0.910402
O O4 0.647251 0.500000 0.000000
O O5 0.639971 0.750000 0.102932
O O6 0.556708 0.556017 0.084123
O O7 0.629370 0.560225 0.165796
O O8 0.000000 0.250000 0.036142
O O9 0.000000 0.500000 0.000000
O O10 0.598173 0.500000 0.500000
O O11 0.500000 0.586274 0.541829
O O12 0.597590 0.750000 0.549520
O O13 0.587300 0.484508 0.590200
O O14 0.695825 0.750000 0.209731
O O15 0.750000 0.000000 0.183017
O O16 0.673745 0.011857 0.248072
O O17 0.185762 0.250000 0.698935
O O18 0.250000 0.500000 0.686375
O O19 0.124365 0.491674 0.672404
O O20 0.079038 0.750000 0.644274
O O21 0.000000 0.533181 0.650488
#
# Coordination Sequence:
#
# PCOD9502924 Si02
#       7
#    16  16   8  16  16  16  16
#     4  11  21  33  51  75 103 130 161 201 251 302
#     4  10  21  37  56  78 105 136 174 214 258 310
#     4  10  22  40  58  78 106 144 182 216 257 314
#     4   9  16  27  46  75 112 153 197 246 299 352
#     4  10  20  36  58  83 109 139 177 222 274 330
#     4  11  22  38  60  84 115 152 195 241 292 353
#     4  10  20  35  56  84 117 154 198 247 300 355
#
# _framework density 18.145925999999999
#
# number of rings (size 3 to 8) (size 9 to 14) (size 15 to 20)
#    0.000    1.846    0.000    6.462    0.000    7.077 
#    1.385    0.000    0.000    0.462    0.000    3.231 
#    0.000    0.000    0.000    0.000    0.000    0.000 
#
# Total GULP energy -289473.007430 kJ/mol
# GULP energy per Si atom -5566.788604 kJ/mol
# Density = 1.810463 g / cm^3
# Si number density = 18.145926 Si / 1000 Ang^3
#
#
#
# Elastic Constant Matrix: (Units=GPa)
#
#
# Indices 1 2 3 4 5 6 
#
# 1 83.7345 57.5191 64.7445 0.0000 0.0000 0.0000
# 2 57.5191 142.3557 60.9029 0.0000 0.0000 0.0000
# 3 64.7445 60.9029 114.9977 0.0000 0.0000 0.0000
# 4 0.0000 0.0000 0.0000 35.6593 0.0000 0.0000
# 5 0.0000 0.0000 0.0000 0.0000 22.6868 0.0000
# 6 0.0000 0.0000 0.0000 0.0000 0.0000 19.5125
#
#
#
# Elastic Compliance Matrix: (Units=1/GPa)
#
#
# Indices 1 2 3 4 5 6 
#
# 1 0.023595 -0.004978 -0.010648 0.000000 0.000000 0.000000
# 2 -0.004978 0.010133 -0.002564 0.000000 0.000000 0.000000
# 3 -0.010648 -0.002564 0.016048 0.000000 0.000000 0.000000
# 4 0.000000 0.000000 0.000000 0.028043 0.000000 0.000000
# 5 0.000000 0.000000 0.000000 0.000000 0.044078 0.000000
# 6 0.000000 0.000000 0.000000 0.000000 0.000000 0.051249
#
#
# Mechanical properties :
#
#
# Convention : Reuss Voigt Hill
#
# Bulk Modulus (GPa) = 74.64309 78.60232 76.62271
# Shear Modulus (GPa) = 23.36535 26.09982 24.73259
#
# Velocity S-wave (km/s) = 3.59226 3.79665 3.69587
# Velocity P-wave (km/s) = 7.64395 7.91392 7.78011
#
# Compressibility (1/GPa) = 0.01339709
#
# Stress axis : x y z
#
# Youngs Moduli (GPa) = 42.38151 98.68824 62.31220
#
# Poissons Ratio (x) = 0.49131 0.66348
# Poissons Ratio (y) = 0.21099 0.15974
# Poissons Ratio (z) = 0.45127 0.25299
#
# Static dielectric constant tensor:
#      x y z
#    x 1.698400 0.000000 0.000000 
#    y 0.000000 1.635030 0.000000 
#    z 0.000000 0.000000 2.585580 
# 
# From -- ./inp_files/45922.got.cif
#   From: 2010.05.17/outbox.cif.g08.bks.cpg/sg67_23_cif.got.tgz:45922.got - 2010.06.03 18:28:57.
