data_PCOD9502061
_publ_section_title
;
Structure prediction by ZEFSAII (Michael W. Deem and Ramdas Pophale) SiO2 
 PCOD9502061
Probable space group: C M M A
;
_chemical_formula_sum "Si O2"
_cell_formula_units_Z 96
_cell_length_a 24.267278
_cell_length_b 8.693329
_cell_length_c 26.750055
_cell_angle_alpha 90.000000
_cell_angle_beta 90.000000
_cell_angle_gamma 90.000000
_cell_volume 5643.283398
_symmetry_space_group_name_H-M "C M M A"
_symmetry_group_IT_number 67
_symmetry_cell_setting 'orthorhombic'
loop_
_space_group_symop_operation_xyz
x,y,z
-x,1/2-y,z
x,-y,-z
-x,1/2+y,-z
-x,-y,-z
x,1/2+y,-z
-x,y,z
x,1/2-y,z
1/2+x,1/2+y,z
1/2-x,-y,z
1/2+x,1/2-y,-z
1/2-x,y,-z
1/2-x,1/2-y,-z
1/2+x,y,-z
1/2-x,1/2+y,z
1/2+x,-y,z
loop_
_atom_site_type_symbol
_atom_site_label
_atom_site_fract_x
_atom_site_fract_y
_atom_site_fract_z
Si Si1 0.311148 0.064437 0.851233
Si Si2 0.811831 0.435399 0.338936
Si Si3 0.115492 0.063803 0.244579
Si Si4 0.500000 0.933052 0.786796
Si Si5 0.116805 0.564514 0.945621
Si Si6 0.000000 0.936122 0.899165
Si Si7 0.187780 0.933994 0.550551
O O1 0.308763 0.250000 0.851287
O O2 0.348901 0.018774 0.804172
O O3 0.340723 0.014710 0.902545
O O4 0.250000 0.000000 0.846747
O O5 0.807678 0.250000 0.337181
O O6 0.750000 0.500000 0.332863
O O7 0.851484 0.484805 0.294120
O O8 0.834200 0.476319 0.394391
O O9 0.111148 0.250000 0.244584
O O10 0.055046 0.994334 0.239647
O O11 0.500000 0.750000 0.787951
O O12 0.500000 0.996983 0.843521
O O13 0.117656 0.750000 0.947528
O O14 0.055355 0.517549 0.928230
O O15 0.129745 0.500000 0.000000
O O16 0.000000 0.750000 0.894820
O O17 0.189815 0.750000 0.546535
O O18 0.161034 0.000000 0.500000
O O19 0.250000 0.000000 0.551454
#
# Coordination Sequence:
#
# PCOD9502061 Si02
#       7
#    16  16  16   8  16   8  16
#     4  10  21  36  55  76 101 135 170 202 247 300
#     4   9  18  30  49  75 104 139 176 211 250 300
#     4  10  20  38  57  73 101 138 169 204 255 310
#     4  12  24  35  55  84 104 125 164 213 255 297
#     4  10  21  36  56  79 102 133 167 205 250 301
#     4  10  19  39  61  76 102 133 165 203 254 313
#     4   9  15  24  39  65  98 135 175 209 247 292
#
# _framework density 17.011374
#
# number of rings (size 3 to 8) (size 9 to 14) (size 15 to 20)
#    0.000    2.167    1.667    2.500    0.000    3.667 
#    0.000    1.667    0.000    0.000    0.000    0.583 
#    0.000    0.000    0.000    0.000    0.000    0.000 
#
# Total GULP energy -267742.618896 kJ/mol
# GULP energy per Si atom -5577.971227 kJ/mol
# Density = 1.697266 g / cm^3
# Si number density = 17.011374 Si / 1000 Ang^3
#
#
#
# Elastic Constant Matrix: (Units=GPa)
#
#
# Indices 1 2 3 4 5 6 
#
# 1 120.7568 25.2577 78.1503 0.0000 0.0000 0.0000
# 2 25.2577 19.7692 36.7549 0.0000 0.0000 0.0000
# 3 78.1503 36.7549 185.4473 0.0000 0.0000 0.0000
# 4 0.0000 0.0000 0.0000 106.6111 0.0000 0.0000
# 5 0.0000 0.0000 0.0000 0.0000 9.7159 0.0000
# 6 0.0000 0.0000 0.0000 0.0000 0.0000 23.8737
#
#
#
# Elastic Compliance Matrix: (Units=1/GPa)
#
#
# Indices 1 2 3 4 5 6 
#
# 1 0.012472 -0.009759 -0.003322 0.000000 0.000000 0.000000
# 2 -0.009759 0.087735 -0.013276 0.000000 0.000000 0.000000
# 3 -0.003322 -0.013276 0.009423 0.000000 0.000000 0.000000
# 4 0.000000 0.000000 0.000000 0.009380 0.000000 0.000000
# 5 0.000000 0.000000 0.000000 0.000000 0.102924 0.000000
# 6 0.000000 0.000000 0.000000 0.000000 0.000000 0.041887
#
#
# Mechanical properties :
#
#
# Convention : Reuss Voigt Hill
#
# Bulk Modulus (GPa) = 17.56946 67.36656 42.46801
# Shear Modulus (GPa) = 14.90282 40.42752 27.66517
#
# Velocity S-wave (km/s) = 2.96303 4.88022 4.03708
# Velocity P-wave (km/s) = 4.69644 8.45236 6.83735
#
# Compressibility (1/GPa) = 0.05691695
#
# Stress axis : x y z
#
# Youngs Moduli (GPa) = 80.17952 11.39796 106.11803
#
# Poissons Ratio (x) = 0.11123 0.35249
# Poissons Ratio (y) = 0.78246 1.40884
# Poissons Ratio (z) = 0.26633 0.15132
#
# Static dielectric constant tensor:
#      x y z
#    x 1.540710 0.000000 0.000000 
#    y 0.000000 1.579310 0.000000 
#    z 0.000000 0.000000 1.605730 
# 
# From -- ./inp_files/44817.got.cif
#   From: 2010.05.17/outbox.cif.g08.bks.cpg/sg67_23_cif.got.tgz:44817.got - 2010.06.03 18:28:57.
