data_PCOD9502417
_publ_section_title
;
Structure prediction by ZEFSAII (Michael W. Deem and Ramdas Pophale) SiO2 
 PCOD9502417
Probable space group: C M M A
;
_chemical_formula_sum "Si O2"
_cell_formula_units_Z 88
_cell_length_a 8.813401
_cell_length_b 25.272851
_cell_length_c 22.167973
_cell_angle_alpha 90.000000
_cell_angle_beta 90.000000
_cell_angle_gamma 90.000000
_cell_volume 4937.689214
_symmetry_space_group_name_H-M "C M M A"
_symmetry_group_IT_number 67
_symmetry_cell_setting 'orthorhombic'
loop_
_space_group_symop_operation_xyz
x,y,z
-x,1/2-y,z
x,-y,-z
-x,1/2+y,-z
-x,-y,-z
x,1/2+y,-z
-x,y,z
x,1/2-y,z
1/2+x,1/2+y,z
1/2-x,-y,z
1/2+x,1/2-y,-z
1/2-x,y,-z
1/2-x,1/2-y,-z
1/2+x,y,-z
1/2-x,1/2+y,z
1/2+x,-y,z
loop_
_atom_site_type_symbol
_atom_site_label
_atom_site_fract_x
_atom_site_fract_y
_atom_site_fract_z
Si Si1 0.180410 0.443251 0.799583
Si Si2 0.318745 0.638915 0.436736
Si Si3 0.682006 0.250000 0.933808
Si Si4 0.818804 0.942981 0.343525
Si Si5 0.182055 0.334654 0.165784
Si Si6 0.819294 0.750000 0.254525
Si Si7 0.181377 0.250000 0.602015
O O1 0.250000 0.500000 0.816542
O O2 0.210022 0.435348 0.727870
O O3 0.253808 0.393595 0.833137
O O4 0.000000 0.443995 0.808325
O O5 0.500000 0.639206 0.439031
O O6 0.250000 0.619342 0.500000
O O7 0.259391 0.601997 0.382926
O O8 0.255137 0.697649 0.425391
O O9 0.500000 0.250000 0.938212
O O10 0.725750 0.198960 0.893606
O O11 0.750000 0.250000 0.000000
O O12 0.000000 0.942274 0.352854
O O13 0.750000 0.000000 0.360088
O O14 0.248229 0.301134 0.221916
O O15 0.000000 0.335144 0.170174
O O16 0.791828 0.750000 0.325851
O O17 0.000000 0.750000 0.244723
O O18 0.000000 0.250000 0.591621
#
# Coordination Sequence:
#
# PCOD9502417 Si02
#       7
#    16  16   8  16  16   8   8
#     4  10  20  34  55  82 112 145 178 216 265 318
#     4  12  25  40  57  76 100 134 175 219 269 324
#     4   9  20  36  55  81 112 149 187 226 266 306
#     4  10  21  38  58  82 109 137 174 218 265 319
#     4  10  20  34  53  81 115 145 180 223 266 313
#     4  10  20  33  53  80 108 139 174 215 266 321
#     4  11  23  39  56  77 106 136 171 217 267 323
#
# _framework density 17.822101
#
# number of rings (size 3 to 8) (size 9 to 14) (size 15 to 20)
#    0.000    1.636    0.000    5.727    0.000   10.545 
#    0.000    1.818    0.000    0.545    0.000    3.818 
#    0.000    0.000    0.000    0.000    0.000    0.000 
#
# Total GULP energy -245938.361752 kJ/mol
# GULP energy per Si atom -5589.508222 kJ/mol
# Density = 1.778154 g / cm^3
# Si number density = 17.822101 Si / 1000 Ang^3
#
#
#
# Elastic Constant Matrix: (Units=GPa)
#
#
# Indices 1 2 3 4 5 6 
#
# 1 90.0043 55.9577 52.0084 0.0000 0.0000 0.0000
# 2 55.9577 147.0947 48.5796 0.0000 0.0000 0.0000
# 3 52.0084 48.5796 71.5525 0.0000 0.0000 0.0000
# 4 0.0000 0.0000 0.0000 64.9282 0.0000 0.0000
# 5 0.0000 0.0000 0.0000 0.0000 28.2101 0.0000
# 6 0.0000 0.0000 0.0000 0.0000 0.0000 38.4733
#
#
#
# Elastic Compliance Matrix: (Units=1/GPa)
#
#
# Indices 1 2 3 4 5 6 
#
# 1 0.020633 -0.003733 -0.012463 0.000000 0.000000 0.000000
# 2 -0.003733 0.009439 -0.003695 0.000000 0.000000 0.000000
# 3 -0.012463 -0.003695 0.025543 0.000000 0.000000 0.000000
# 4 0.000000 0.000000 0.000000 0.015402 0.000000 0.000000
# 5 0.000000 0.000000 0.000000 0.000000 0.035448 0.000000
# 6 0.000000 0.000000 0.000000 0.000000 0.000000 0.025992
#
#
# Mechanical properties :
#
#
# Convention : Reuss Voigt Hill
#
# Bulk Modulus (GPa) = 63.15802 69.08256 66.12029
# Shear Modulus (GPa) = 28.16648 36.46270 32.31459
#
# Velocity S-wave (km/s) = 3.97977 4.52810 4.26276
# Velocity P-wave (km/s) = 7.52549 8.13540 7.83638
#
# Compressibility (1/GPa) = 0.01583330
#
# Stress axis : x y z
#
# Youngs Moduli (GPa) = 48.46570 105.94567 39.14997
#
# Poissons Ratio (x) = 0.39553 0.48791
# Poissons Ratio (y) = 0.18094 0.14465
# Poissons Ratio (z) = 0.60401 0.39144
#
# Static dielectric constant tensor:
#      x y z
#    x 1.589880 0.000000 0.000000 
#    y 0.000000 1.600820 0.000000 
#    z 0.000000 0.000000 1.590010 
# 
# From -- ./inp_files/37005.got.cif
#   From: 2010.05.17/outbox.cif.g08.bks.cpg/sg67_19_cif.got.tgz:37005.got - 2010.06.03 18:28:57.
