data_PCOD9502996
_publ_section_title
;
Structure prediction by ZEFSAII (Michael W. Deem and Ramdas Pophale) SiO2 
 PCOD9502996
Probable space group: C M M A
;
_chemical_formula_sum "Si O2"
_cell_formula_units_Z 96
_cell_length_a 24.196055
_cell_length_b 8.629959
_cell_length_c 25.798823
_cell_angle_alpha 90.000000
_cell_angle_beta 90.000000
_cell_angle_gamma 90.000000
_cell_volume 5387.077065
_symmetry_space_group_name_H-M "C M M A"
_symmetry_group_IT_number 67
_symmetry_cell_setting 'orthorhombic'
loop_
_space_group_symop_operation_xyz
x,y,z
-x,1/2-y,z
x,-y,-z
-x,1/2+y,-z
-x,-y,-z
x,1/2+y,-z
-x,y,z
x,1/2-y,z
1/2+x,1/2+y,z
1/2-x,-y,z
1/2+x,1/2-y,-z
1/2-x,y,-z
1/2-x,1/2-y,-z
1/2+x,y,-z
1/2-x,1/2+y,z
1/2+x,-y,z
loop_
_atom_site_type_symbol
_atom_site_label
_atom_site_fract_x
_atom_site_fract_y
_atom_site_fract_z
Si Si1 0.500000 0.564703 0.308585
Si Si2 0.615565 0.437220 0.346001
Si Si3 0.500000 0.936424 0.187241
Si Si4 0.190145 0.935362 0.942093
Si Si5 0.188370 0.436476 0.752460
Si Si6 0.689176 0.563741 0.557037
Si Si7 0.384377 0.936441 0.852083
O O1 0.500000 0.750000 0.309180
O O2 0.555006 0.503339 0.336153
O O3 0.500000 0.514239 0.247971
O O4 0.612354 0.250000 0.344892
O O5 0.654807 0.487522 0.298420
O O6 0.644701 0.482790 0.399712
O O7 0.500000 0.750000 0.185533
O O8 0.445244 0.001013 0.159970
O O9 0.192285 0.750000 0.943317
O O10 0.250000 0.000000 0.924410
O O11 0.143168 0.994194 0.903382
O O12 0.181286 0.000000 0.000000
O O13 0.190788 0.250000 0.751588
O O14 0.250000 0.500000 0.753031
O O15 0.154389 0.482647 0.803501
O O16 0.675741 0.500000 0.500000
O O17 0.692036 0.750000 0.555164
O O18 0.750000 0.500000 0.571053
O O19 0.385398 0.750000 0.855288
#
# Coordination Sequence:
#
# PCOD9502996 Si02
#       7
#     8  16   8  16  16  16  16
#     4  11  23  37  58  85 112 149 192 239 286 336
#     4  10  21  38  57  80 111 151 191 232 283 342
#     4  11  23  39  58  85 116 153 195 239 289 342
#     4  11  22  39  62  89 121 156 196 241 289 345
#     4  10  21  34  53  81 113 146 183 228 282 339
#     4  10  20  35  58  84 114 150 189 233 286 341
#     4  11  22  38  60  85 115 155 195 236 288 344
#
# _framework density 17.820425
#
# number of rings (size 3 to 8) (size 9 to 14) (size 15 to 20)
#    0.000    1.500    1.667    5.000    0.000    5.333 
#    0.000    0.833    0.000    0.000    0.000    0.000 
#    0.000    0.000    0.000    0.000    0.000    0.000 
#
# Total GULP energy -268267.198565 kJ/mol
# GULP energy per Si atom -5588.899970 kJ/mol
# Density = 1.777987 g / cm^3
# Si number density = 17.820425 Si / 1000 Ang^3
#
#
#
# Elastic Constant Matrix: (Units=GPa)
#
#
# Indices 1 2 3 4 5 6 
#
# 1 192.5198 52.0818 102.3326 0.0000 0.0000 0.0000
# 2 52.0818 70.5761 47.2940 0.0000 0.0000 0.0000
# 3 102.3326 47.2940 119.0353 0.0000 0.0000 0.0000
# 4 0.0000 0.0000 0.0000 26.0205 0.0000 0.0000
# 5 0.0000 0.0000 0.0000 0.0000 21.5987 0.0000
# 6 0.0000 0.0000 0.0000 0.0000 0.0000 33.7132
#
#
#
# Elastic Compliance Matrix: (Units=1/GPa)
#
#
# Indices 1 2 3 4 5 6 
#
# 1 0.009801 -0.002162 -0.007567 0.000000 0.000000 0.000000
# 2 -0.002162 0.019787 -0.006003 0.000000 0.000000 0.000000
# 3 -0.007567 -0.006003 0.017291 0.000000 0.000000 0.000000
# 4 0.000000 0.000000 0.000000 0.038431 0.000000 0.000000
# 5 0.000000 0.000000 0.000000 0.000000 0.046299 0.000000
# 6 0.000000 0.000000 0.000000 0.000000 0.000000 0.029662
#
#
# Mechanical properties :
#
#
# Convention : Reuss Voigt Hill
#
# Bulk Modulus (GPa) = 64.86943 87.28314 76.07629
# Shear Modulus (GPa) = 25.26848 28.29467 26.78157
#
# Velocity S-wave (km/s) = 3.76965 3.98900 3.88088
# Velocity P-wave (km/s) = 7.44499 8.38462 7.92873
#
# Compressibility (1/GPa) = 0.01541558
#
# Stress axis : x y z
#
# Youngs Moduli (GPa) = 102.02601 50.53735 57.83305
#
# Poissons Ratio (x) = 0.10927 0.43763
# Poissons Ratio (y) = 0.22060 0.34717
# Poissons Ratio (z) = 0.77204 0.30337
#
# Static dielectric constant tensor:
#      x y z
#    x 1.570380 0.000000 0.000000 
#    y 0.000000 1.602740 0.000000 
#    z 0.000000 0.000000 1.600610 
# 
# From -- ./inp_files/42586.got.cif
#   From: 2010.05.17/outbox.cif.g08.bks.cpg/sg67_22_cif.got.tgz:42586.got - 2010.06.03 18:28:57.
