data_PCOD9502865
_publ_section_title
;
Structure prediction by ZEFSAII (Michael W. Deem and Ramdas Pophale) SiO2 
 PCOD9502865
Probable space group: C M M A
;
_chemical_formula_sum "Si O2"
_cell_formula_units_Z 104
_cell_length_a 8.718346
_cell_length_b 26.448374
_cell_length_c 22.495016
_cell_angle_alpha 90.000000
_cell_angle_beta 90.000000
_cell_angle_gamma 90.000000
_cell_volume 5187.037462
_symmetry_space_group_name_H-M "C M M A"
_symmetry_group_IT_number 67
_symmetry_cell_setting 'orthorhombic'
loop_
_space_group_symop_operation_xyz
x,y,z
-x,1/2-y,z
x,-y,-z
-x,1/2+y,-z
-x,-y,-z
x,1/2+y,-z
-x,y,z
x,1/2-y,z
1/2+x,1/2+y,z
1/2-x,-y,z
1/2+x,1/2-y,-z
1/2-x,y,-z
1/2-x,1/2-y,-z
1/2+x,y,-z
1/2-x,1/2+y,z
1/2+x,-y,z
loop_
_atom_site_type_symbol
_atom_site_label
_atom_site_fract_x
_atom_site_fract_y
_atom_site_fract_z
Si Si1 0.184927 0.194618 0.116666
Si Si2 0.321018 0.657666 0.761053
Si Si3 0.314927 0.944622 0.566754
Si Si4 0.317515 0.589409 0.062315
Si Si5 0.682701 0.347251 0.632849
Si Si6 0.677225 0.548529 0.818619
Si Si7 0.183916 0.250000 0.565848
O O1 0.227102 0.250000 0.093170
O O2 0.255512 0.187399 0.182187
O O3 0.234698 0.147226 0.076572
O O4 0.000000 0.191915 0.121755
O O5 0.500000 0.670494 0.751362
O O6 0.225569 0.663247 0.701302
O O7 0.310468 0.598969 0.780201
O O8 0.500000 0.945908 0.565314
O O9 0.250000 0.934959 0.500000
O O10 0.257034 0.899540 0.609201
O O11 0.250000 0.000000 0.584428
O O12 0.500000 0.588344 0.059050
O O13 0.262701 0.558301 0.119272
O O14 0.250000 0.571990 0.000000
O O15 0.500000 0.349635 0.624893
O O16 0.753346 0.300379 0.597097
O O17 0.500000 0.539196 0.831265
O O18 0.750000 0.500000 0.787956
O O19 0.250000 0.250000 0.500000
O O20 0.000000 0.250000 0.566328
#
# Coordination Sequence:
#
# PCOD9502865 Si02
#       7
#    16  16  16  16  16  16   8
#     4   9  19  36  57  80 110 149 190 235 290 349
#     4  10  22  39  58  85 117 151 192 242 293 348
#     4  11  22  40  64  92 124 160 202 250 303 361
#     4  10  20  35  55  81 114 149 190 239 289 347
#     4  12  25  42  64  92 125 165 208 253 306 366
#     4  10  21  38  60  84 114 151 193 239 295 353
#     4  12  26  46  68  94 128 166 209 258 311 370
#
# _framework density 20.049980999999999
#
# number of rings (size 3 to 8) (size 9 to 14) (size 15 to 20)
#    0.000    1.538    0.000    5.769    1.077    4.000 
#    0.000    3.077    0.000    0.000    0.000    0.000 
#    0.000    0.000    0.000    0.000    0.000    0.000 
#
# Total GULP energy -290699.155738 kJ/mol
# GULP energy per Si atom -5590.368380 kJ/mol
# Density = 2.000435 g / cm^3
# Si number density = 20.049981 Si / 1000 Ang^3
#
#
#
# Elastic Constant Matrix: (Units=GPa)
#
#
# Indices 1 2 3 4 5 6 
#
# 1 119.9702 21.1781 27.3876 0.0000 0.0000 0.0000
# 2 21.1781 66.5969 -7.2749 0.0000 0.0000 0.0000
# 3 27.3876 -7.2749 66.5143 0.0000 0.0000 0.0000
# 4 0.0000 0.0000 0.0000 -15.6933 0.0000 0.0000
# 5 0.0000 0.0000 0.0000 0.0000 27.0241 0.0000
# 6 0.0000 0.0000 0.0000 0.0000 0.0000 31.9302
#
#
#
# Elastic Compliance Matrix: (Units=1/GPa)
#
#
# Indices 1 2 3 4 5 6 
#
# 1 0.010019 -0.003681 -0.004528 0.000000 0.000000 0.000000
# 2 -0.003681 0.016549 0.003326 0.000000 0.000000 0.000000
# 3 -0.004528 0.003326 0.017262 0.000000 0.000000 0.000000
# 4 0.000000 0.000000 0.000000 -0.063722 0.000000 0.000000
# 5 0.000000 0.000000 0.000000 0.000000 0.037004 0.000000
# 6 0.000000 0.000000 0.000000 0.000000 0.000000 0.031318
#
#
# Mechanical properties :
#
#
# Convention : Reuss Voigt Hill
#
# Bulk Modulus (GPa) = 29.35574 37.29590 33.32582
# Shear Modulus (GPa) = 71.88855 22.77158 47.33007
#
# Velocity S-wave (km/s) = 5.99437 3.37373 4.86388
# Velocity P-wave (km/s) = 7.91095 5.81532 6.94266
#
# Compressibility (1/GPa) = 0.03406488
#
# Stress axis : x y z
#
# Youngs Moduli (GPa) = 99.81250 60.42502 57.92919
#
# Poissons Ratio (x) = 0.22240 0.26229
# Poissons Ratio (y) = 0.36737 -0.19265
# Poissons Ratio (z) = 0.45194 -0.20095
#
# Static dielectric constant tensor:
#      x y z
#    x 1.673610 0.000000 0.000000 
#    y 0.000000 1.722600 0.000000 
#    z 0.000000 0.000000 1.651440 
# 
# From -- ./inp_files/37331.got.cif
#   From: 2010.05.17/outbox.cif.g08.bks.cpg/sg67_19_cif.got.tgz:37331.got - 2010.06.03 18:28:57.
