data_PCOD9502615
_publ_section_title
;
Structure prediction by ZEFSAII (Michael W. Deem and Ramdas Pophale) SiO2 
 PCOD9502615
Probable space group: C M M A
;
_chemical_formula_sum "Si O2"
_cell_formula_units_Z 96
_cell_length_a 8.812222
_cell_length_b 18.870343
_cell_length_c 31.921032
_cell_angle_alpha 90.000000
_cell_angle_beta 90.000000
_cell_angle_gamma 90.000000
_cell_volume 5308.137294
_symmetry_space_group_name_H-M "C M M A"
_symmetry_group_IT_number 67
_symmetry_cell_setting 'orthorhombic'
loop_
_space_group_symop_operation_xyz
x,y,z
-x,1/2-y,z
x,-y,-z
-x,1/2+y,-z
-x,-y,-z
x,1/2+y,-z
-x,y,z
x,1/2-y,z
1/2+x,1/2+y,z
1/2-x,-y,z
1/2+x,1/2-y,-z
1/2-x,y,-z
1/2-x,1/2-y,-z
1/2+x,y,-z
1/2-x,1/2+y,z
1/2+x,-y,z
loop_
_atom_site_type_symbol
_atom_site_label
_atom_site_fract_x
_atom_site_fract_y
_atom_site_fract_z
Si Si1 0.180939 0.166139 0.045238
Si Si2 0.675418 0.836191 0.705054
Si Si3 0.182693 0.078401 0.878136
Si Si4 0.684884 0.331671 0.202753
Si Si5 0.180249 0.578202 0.456284
Si Si6 0.822838 0.664973 0.618190
O O1 0.210330 0.250000 0.052062
O O2 0.256902 0.121426 0.081948
O O3 0.000000 0.155241 0.044868
O O4 0.250000 0.147301 0.000000
O O5 0.500000 0.858434 0.699863
O O6 0.675645 0.750000 0.706349
O O7 0.733318 0.857815 0.751081
O O8 0.770317 0.857910 0.664618
O O9 0.230792 0.119659 0.835849
O O10 0.000000 0.075986 0.879206
O O11 0.250000 0.000000 0.878346
O O12 0.500000 0.330533 0.204061
O O13 0.734270 0.250000 0.196528
O O14 0.250000 0.500000 0.449924
O O15 0.250000 0.605811 0.500000
O O16 0.226947 0.626909 0.417542
O O17 0.000000 0.572995 0.460170
O O18 0.802328 0.750000 0.615650
O O19 0.000000 0.649074 0.612074
#
# Coordination Sequence:
#
# PCOD9502615 Si02
#       6
#    16  16  16  16  16  16
#     4  10  21  38  60  85 110 137 174 219 265 316
#     4   8  14  28  51  77 103 134 175 220 266 315
#     4  11  22  36  54  78 111 147 182 220 266 316
#     4   8  15  30  54  79 101 133 179 224 265 314
#     4  11  22  38  58  78 104 138 177 218 264 318
#     4  10  20  34  53  80 112 142 176 219 265 313
#
# _framework density 18.085439999999998
#
# number of rings (size 3 to 8) (size 9 to 14) (size 15 to 20)
#    0.000    2.333    0.000    5.000    0.000    3.333 
#    0.000    4.167    0.000    6.000    0.000    0.000 
#    0.000    0.000    0.000    0.000    0.000    0.000 
#
# Total GULP energy -267865.780131 kJ/mol
# GULP energy per Si atom -5580.537086 kJ/mol
# Density = 1.804428 g / cm^3
# Si number density = 18.085440 Si / 1000 Ang^3
#
#
#
# Elastic Constant Matrix: (Units=GPa)
#
#
# Indices 1 2 3 4 5 6 
#
# 1 95.9277 43.4299 69.5238 0.0000 0.0000 0.0000
# 2 43.4299 49.5832 67.6981 0.0000 0.0000 0.0000
# 3 69.5238 67.6981 177.9903 0.0000 0.0000 0.0000
# 4 0.0000 0.0000 0.0000 -25.3374 0.0000 0.0000
# 5 0.0000 0.0000 0.0000 0.0000 25.7210 0.0000
# 6 0.0000 0.0000 0.0000 0.0000 0.0000 20.2418
#
#
#
# Elastic Compliance Matrix: (Units=1/GPa)
#
#
# Indices 1 2 3 4 5 6 
#
# 1 0.017648 -0.012577 -0.002109 0.000000 0.000000 0.000000
# 2 -0.012577 0.050920 -0.014455 0.000000 0.000000 0.000000
# 3 -0.002109 -0.014455 0.011940 0.000000 0.000000 0.000000
# 4 0.000000 0.000000 0.000000 -0.039467 0.000000 0.000000
# 5 0.000000 0.000000 0.000000 0.000000 0.038879 0.000000
# 6 0.000000 0.000000 0.000000 0.000000 0.000000 0.049403
#
#
# Mechanical properties :
#
#
# Convention : Reuss Voigt Hill
#
# Bulk Modulus (GPa) = 44.99455 76.08942 60.54199
# Shear Modulus (GPa) = 25.63934 13.64837 19.64386
#
# Velocity S-wave (km/s) = 3.76929 2.75009 3.29928
# Velocity P-wave (km/s) = 6.62392 7.22824 6.93267
#
# Compressibility (1/GPa) = 0.02222491
#
# Stress axis : x y z
#
# Youngs Moduli (GPa) = 56.66508 19.63862 83.75216
#
# Poissons Ratio (x) = 0.24700 0.17667
# Poissons Ratio (y) = 0.71270 1.21060
# Poissons Ratio (z) = 0.11953 0.28387
#
# Static dielectric constant tensor:
#      x y z
#    x 1.607890 0.000000 0.000000 
#    y 0.000000 1.597710 0.000000 
#    z 0.000000 0.000000 1.620450 
# 
# From -- ./inp_files/43494.got.cif
#   From: 2010.05.17/outbox.cif.g08.bks.cpg/sg67_22_cif.got.tgz:43494.got - 2010.06.03 18:28:57.
