data_PCOD9502979
_publ_section_title
;
Structure prediction by ZEFSAII (Michael W. Deem and Ramdas Pophale) SiO2 
 PCOD9502979
Probable space group: C M M A
;
_chemical_formula_sum "Si O2"
_cell_formula_units_Z 112
_cell_length_a 30.558372
_cell_length_b 14.654414
_cell_length_c 12.184314
_cell_angle_alpha 90.000000
_cell_angle_beta 90.000000
_cell_angle_gamma 90.000000
_cell_volume 5456.318994
_symmetry_space_group_name_H-M "C M M A"
_symmetry_group_IT_number 67
_symmetry_cell_setting 'orthorhombic'
loop_
_space_group_symop_operation_xyz
x,y,z
-x,1/2-y,z
x,-y,-z
-x,1/2+y,-z
-x,-y,-z
x,1/2+y,-z
-x,y,z
x,1/2-y,z
1/2+x,1/2+y,z
1/2-x,-y,z
1/2+x,1/2-y,-z
1/2-x,y,-z
1/2-x,1/2-y,-z
1/2+x,y,-z
1/2-x,1/2+y,z
1/2+x,-y,z
loop_
_atom_site_type_symbol
_atom_site_label
_atom_site_fract_x
_atom_site_fract_y
_atom_site_fract_z
Si Si1 0.289350 0.351823 0.413219
Si Si2 0.129805 0.410617 0.930757
Si Si3 0.048692 0.141855 0.793551
Si Si4 0.291093 0.850959 0.080095
Si Si5 0.050256 0.138853 0.546577
Si Si6 0.815860 0.994371 0.744640
Si Si7 0.366788 0.143388 0.586665
O O1 0.286625 0.250000 0.361658
O O2 0.250000 0.358922 0.500000
O O3 0.289434 0.436707 0.332212
O O4 0.334192 0.356356 0.482291
O O5 0.084779 0.370586 0.886549
O O6 0.155508 0.440349 0.821867
O O7 0.118858 0.500000 0.000000
O O8 0.164401 0.357808 0.007855
O O9 0.044779 0.250000 0.779481
O O10 0.061176 0.107518 0.671011
O O11 0.000000 0.105808 0.820609
O O12 0.288536 0.750000 0.129793
O O13 0.290767 0.928446 0.171431
O O14 0.250000 0.863478 0.000000
O O15 0.052158 0.250000 0.545795
O O16 0.086130 0.111193 0.457466
O O17 0.000000 0.113066 0.522852
O O18 0.845862 0.925677 0.673469
O O19 0.368817 0.250000 0.625360
#
# Coordination Sequence:
#
# PCOD9502979 Si02
#       7
#    16  16  16  16  16  16  16
#     4  10  23  40  58  85 119 157 199 240 288 346
#     4  10  22  36  55  83 113 149 194 245 299 350
#     4   9  17  32  56  82 109 147 194 242 293 349
#     4  10  23  43  65  89 117 151 194 244 299 358
#     4   8  15  30  54  84 117 154 195 236 281 341
#     4  11  23  39  61  87 116 154 196 242 294 351
#     4  10  20  35  57  86 121 158 195 238 289 346
#
# _framework density 20.526658000000001
#
# number of rings (size 3 to 8) (size 9 to 14) (size 15 to 20)
#    0.000    2.286    0.000    3.000    0.000    8.571 
#    0.000    3.571    0.000    7.714    0.000    8.000 
#    0.000    0.000    0.000    0.000    0.000    1.143 
#
# Total GULP energy -312768.901930 kJ/mol
# GULP energy per Si atom -5585.158963 kJ/mol
# Density = 2.047994 g / cm^3
# Si number density = 20.526658 Si / 1000 Ang^3
#
#
#
# Elastic Constant Matrix: (Units=GPa)
#
#
# Indices 1 2 3 4 5 6 
#
# 1 73.5943 12.8752 31.4773 0.0000 0.0000 0.0000
# 2 12.8752 61.9427 36.4904 0.0000 0.0000 0.0000
# 3 31.4773 36.4904 61.8679 0.0000 0.0000 0.0000
# 4 0.0000 0.0000 0.0000 -43.3178 0.0000 0.0000
# 5 0.0000 0.0000 0.0000 0.0000 25.5440 0.0000
# 6 0.0000 0.0000 0.0000 0.0000 0.0000 17.1880
#
#
#
# Elastic Compliance Matrix: (Units=1/GPa)
#
#
# Indices 1 2 3 4 5 6 
#
# 1 0.017612 0.002480 -0.010423 0.000000 0.000000 0.000000
# 2 0.002480 0.025089 -0.016059 0.000000 0.000000 0.000000
# 3 -0.010423 -0.016059 0.030939 0.000000 0.000000 0.000000
# 4 0.000000 0.000000 0.000000 -0.023085 0.000000 0.000000
# 5 0.000000 0.000000 0.000000 0.000000 0.039148 0.000000
# 6 0.000000 0.000000 0.000000 0.000000 0.000000 0.058180
#
#
# Mechanical properties :
#
#
# Convention : Reuss Voigt Hill
#
# Bulk Modulus (GPa) = 39.01093 39.89895 39.45494
# Shear Modulus (GPa) = 24.45769 7.65362 16.05566
#
# Velocity S-wave (km/s) = 3.45557 1.93306 2.79979
# Velocity P-wave (km/s) = 5.91334 4.94592 5.45113
#
# Compressibility (1/GPa) = 0.02563384
#
# Stress axis : x y z
#
# Youngs Moduli (GPa) = 56.77804 39.85784 32.32195
#
# Poissons Ratio (x) = -0.09883 0.33690
# Poissons Ratio (y) = -0.14078 0.51907
# Poissons Ratio (z) = 0.59182 0.64009
#
# Static dielectric constant tensor:
#      x y z
#    x 1.768090 0.000000 0.000000 
#    y 0.000000 1.749890 0.000000 
#    z 0.000000 0.000000 1.718080 
# 
# From -- ./inp_files/23829.got.cif
#   From: 2010.05.17/outbox.cif.g08.bks.cpg/sg67_12_cif.got.tgz:23829.got - 2010.06.03 18:28:57.
