data_PCOD9502781
_publ_section_title
;
Structure prediction by ZEFSAII (Michael W. Deem and Ramdas Pophale) SiO2 
 PCOD9502781
Probable space group: C M M A
;
_chemical_formula_sum "Si O2"
_cell_formula_units_Z 88
_cell_length_a 8.582788
_cell_length_b 31.663872
_cell_length_c 17.928362
_cell_angle_alpha 90.000000
_cell_angle_beta 90.000000
_cell_angle_gamma 90.000000
_cell_volume 4872.288760
_symmetry_space_group_name_H-M "C M M A"
_symmetry_group_IT_number 67
_symmetry_cell_setting 'orthorhombic'
loop_
_space_group_symop_operation_xyz
x,y,z
-x,1/2-y,z
x,-y,-z
-x,1/2+y,-z
-x,-y,-z
x,1/2+y,-z
-x,y,z
x,1/2-y,z
1/2+x,1/2+y,z
1/2-x,-y,z
1/2+x,1/2-y,-z
1/2-x,y,-z
1/2-x,1/2-y,-z
1/2+x,y,-z
1/2-x,1/2+y,z
1/2+x,-y,z
loop_
_atom_site_type_symbol
_atom_site_label
_atom_site_fract_x
_atom_site_fract_y
_atom_site_fract_z
Si Si1 0.812576 0.545283 0.237740
Si Si2 0.315854 0.575852 0.079746
Si Si3 0.318103 0.661882 0.865988
Si Si4 0.310941 0.797648 0.583947
Si Si5 0.183288 0.631135 0.303576
Si Si6 0.814484 0.750000 0.916631
O O1 0.750000 0.500000 0.261568
O O2 0.758819 0.554061 0.152573
O O3 0.753521 0.583833 0.290053
O O4 0.000000 0.545981 0.238065
O O5 0.500000 0.569759 0.081548
O O6 0.273231 0.625356 0.090213
O O7 0.250000 0.561332 0.000000
O O8 0.500000 0.659961 0.888047
O O9 0.307815 0.651466 0.778465
O O10 0.249939 0.707729 0.879478
O O11 0.500000 0.798569 0.583801
O O12 0.265506 0.750000 0.609275
O O13 0.250000 0.802964 0.500000
O O14 0.252105 0.835549 0.636756
O O15 0.000000 0.626188 0.322047
O O16 0.000000 0.750000 0.916269
O O17 0.750000 0.750000 0.000000
#
# Coordination Sequence:
#
# PCOD9502781 Si02
#       6
#    16  16  16  16  16   8
#     4  10  20  36  55  78 104 134 177 222 271 321
#     4  11  21  35  53  74 102 135 172 219 272 322
#     4  10  20  35  53  73  97 133 178 222 266 317
#     4   9  17  31  53  81 112 143 174 207 251 306
#     4   8  17  33  55  78 103 137 174 212 256 316
#     4  12  24  36  48  68  97 134 177 224 269 316
#
# _framework density 18.061326999999999
#
# number of rings (size 3 to 8) (size 9 to 14) (size 15 to 20)
#    0.000    2.182    0.000    5.182    1.273    0.364 
#    0.000    7.273    0.000    0.545    0.000    3.818 
#    0.000    0.000    0.000    0.000    0.000    0.000 
#
# Total GULP energy -245481.608603 kJ/mol
# GULP energy per Si atom -5579.127468 kJ/mol
# Density = 1.802022 g / cm^3
# Si number density = 18.061327 Si / 1000 Ang^3
#
#
#
# Elastic Constant Matrix: (Units=GPa)
#
#
# Indices 1 2 3 4 5 6 
#
# 1 63.4445 25.0163 15.0538 0.0000 0.0000 0.0000
# 2 25.0163 157.2374 53.2250 0.0000 0.0000 0.0000
# 3 15.0538 53.2250 60.7769 0.0000 0.0000 0.0000
# 4 0.0000 0.0000 0.0000 13.8779 0.0000 0.0000
# 5 0.0000 0.0000 0.0000 0.0000 21.2584 0.0000
# 6 0.0000 0.0000 0.0000 0.0000 0.0000 27.6955
#
#
#
# Elastic Compliance Matrix: (Units=1/GPa)
#
#
# Indices 1 2 3 4 5 6 
#
# 1 0.017109 -0.001830 -0.002635 0.000000 0.000000 0.000000
# 2 -0.001830 0.009235 -0.007634 0.000000 0.000000 0.000000
# 3 -0.002635 -0.007634 0.023792 0.000000 0.000000 0.000000
# 4 0.000000 0.000000 0.000000 0.072057 0.000000 0.000000
# 5 0.000000 0.000000 0.000000 0.000000 0.047040 0.000000
# 6 0.000000 0.000000 0.000000 0.000000 0.000000 0.036107
#
#
# Mechanical properties :
#
#
# Convention : Reuss Voigt Hill
#
# Bulk Modulus (GPa) = 38.55489 52.00546 45.28017
# Shear Modulus (GPa) = 20.99214 25.11061 23.05137
#
# Velocity S-wave (km/s) = 3.41291 3.73271 3.57639
# Velocity P-wave (km/s) = 6.07648 6.88722 6.49451
#
# Compressibility (1/GPa) = 0.02593705
#
# Stress axis : x y z
#
# Youngs Moduli (GPa) = 58.45009 108.28109 42.03078
#
# Poissons Ratio (x) = 0.19816 0.11075
# Poissons Ratio (y) = 0.10696 0.32088
# Poissons Ratio (z) = 0.15402 0.82666
#
# Static dielectric constant tensor:
#      x y z
#    x 1.611910 0.000000 0.000000 
#    y 0.000000 1.646930 0.000000 
#    z 0.000000 0.000000 1.594290 
# 
# From -- ./inp_files/32380.got.cif
#   From: 2010.05.17/outbox.cif.g08.bks.cpg/sg67_17_cif.got.tgz:32380.got - 2010.06.03 18:28:57.
