data_PCOD9502125
_publ_section_title
;
Structure prediction by ZEFSAII (Michael W. Deem and Ramdas Pophale) SiO2 
 PCOD9502125
Probable space group: C M M A
;
_chemical_formula_sum "Si O2"
_cell_formula_units_Z 112
_cell_length_a 7.411737
_cell_length_b 31.011389
_cell_length_c 23.419046
_cell_angle_alpha 90.000000
_cell_angle_beta 90.000000
_cell_angle_gamma 90.000000
_cell_volume 5382.826957
_symmetry_space_group_name_H-M "C M M A"
_symmetry_group_IT_number 67
_symmetry_cell_setting 'orthorhombic'
loop_
_space_group_symop_operation_xyz
x,y,z
-x,1/2-y,z
x,-y,-z
-x,1/2+y,-z
-x,-y,-z
x,1/2+y,-z
-x,y,z
x,1/2-y,z
1/2+x,1/2+y,z
1/2-x,-y,z
1/2+x,1/2-y,-z
1/2-x,y,-z
1/2-x,1/2-y,-z
1/2+x,y,-z
1/2-x,1/2+y,z
1/2+x,-y,z
loop_
_atom_site_type_symbol
_atom_site_label
_atom_site_fract_x
_atom_site_fract_y
_atom_site_fract_z
Si Si1 0.715706 0.701353 0.433794
Si Si2 0.220822 0.638407 0.664966
Si Si3 0.780210 0.797618 0.897550
Si Si4 0.780958 0.298283 0.234947
Si Si5 0.715721 0.950867 0.161263
Si Si6 0.784330 0.951117 0.708785
Si Si7 0.215566 0.111834 0.062919
O O1 0.500000 0.703338 0.426215
O O2 0.785172 0.750000 0.422546
O O3 0.750000 0.691151 0.500000
O O4 0.782763 0.665401 0.389918
O O5 0.276866 0.665056 0.721363
O O6 0.280419 0.588932 0.670990
O O7 0.000000 0.638398 0.663897
O O8 0.718999 0.750000 0.916064
O O9 0.728412 0.804151 0.830994
O O10 0.716070 0.839092 0.931959
O O11 0.000000 0.796846 0.899043
O O12 0.725788 0.250000 0.253244
O O13 0.000000 0.298829 0.235328
O O14 0.500000 0.944763 0.164491
O O15 0.785626 0.946239 0.226045
O O16 0.785990 0.917434 0.114567
O O17 0.750000 0.000000 0.143165
O O18 0.000000 0.947094 0.711939
O O19 0.750000 0.000000 0.689256
O O20 0.000000 0.113768 0.069829
O O21 0.250000 0.094055 0.000000
#
# Coordination Sequence:
#
# PCOD9502125 Si02
#       7
#    16  16  16  16  16  16  16
#     4   9  17  29  45  67  96 127 156 184 214 252
#     4   9  15  24  42  66  91 118 147 181 220 259
#     4   8  14  25  41  61  86 113 139 172 216 262
#     4   8  12  19  36  64  91 110 134 174 221 263
#     4   9  18  32  49  67  88 113 140 175 221 269
#     4   9  17  30  48  69  91 114 142 179 223 267
#     4  10  20  32  45  63  86 112 144 179 214 255
#
# _framework density 20.806909999999998
#
# number of rings (size 3 to 8) (size 9 to 14) (size 15 to 20)
#    0.000    3.143    0.000    2.143    0.000    6.286 
#    0.000    2.143    0.000    0.429    0.000    4.000 
#    0.000    2.286    0.000    0.000    0.000    0.000 
#
# Total GULP energy -312455.086952 kJ/mol
# GULP energy per Si atom -5579.555124 kJ/mol
# Density = 2.075955 g / cm^3
# Si number density = 20.806910 Si / 1000 Ang^3
#
#
#
# Elastic Constant Matrix: (Units=GPa)
#
#
# Indices 1 2 3 4 5 6 
#
# 1 68.6492 3.6082 -0.4024 0.0000 0.0000 0.0000
# 2 3.6082 155.5048 75.6085 0.0000 0.0000 0.0000
# 3 -0.4024 75.6085 70.0958 0.0000 0.0000 0.0000
# 4 0.0000 0.0000 0.0000 24.7219 0.0000 0.0000
# 5 0.0000 0.0000 0.0000 0.0000 7.9792 0.0000
# 6 0.0000 0.0000 0.0000 0.0000 0.0000 3.9548
#
#
#
# Elastic Compliance Matrix: (Units=1/GPa)
#
#
# Indices 1 2 3 4 5 6 
#
# 1 0.014614 -0.000799 0.000946 0.000000 0.000000 0.000000
# 2 -0.000799 0.013566 -0.014638 0.000000 0.000000 0.000000
# 3 0.000946 -0.014638 0.030061 0.000000 0.000000 0.000000
# 4 0.000000 0.000000 0.000000 0.040450 0.000000 0.000000
# 5 0.000000 0.000000 0.000000 0.000000 0.125325 0.000000
# 6 0.000000 0.000000 0.000000 0.000000 0.000000 0.252860
#
#
# Mechanical properties :
#
#
# Convention : Reuss Voigt Hill
#
# Bulk Modulus (GPa) = 34.17738 50.20869 42.19303
# Shear Modulus (GPa) = 9.69722 21.69354 15.69538
#
# Velocity S-wave (km/s) = 2.16118 3.23245 2.74950
# Velocity P-wave (km/s) = 4.76332 6.17372 5.51380
#
# Compressibility (1/GPa) = 0.02925912
#
# Stress axis : x y z
#
# Youngs Moduli (GPa) = 68.42594 73.71193 33.26605
#
# Poissons Ratio (x) = 0.05889 -0.03146
# Poissons Ratio (y) = 0.05466 0.48694
# Poissons Ratio (z) = -0.06470 1.07898
#
# Static dielectric constant tensor:
#      x y z
#    x 1.824570 0.000000 0.000000 
#    y 0.000000 1.752530 0.000000 
#    z 0.000000 0.000000 1.710970 
# 
# From -- ./inp_files/38015.got.cif
#   From: 2010.05.17/outbox.cif.g08.bks.cpg/sg67_20_cif.got.tgz:38015.got - 2010.06.03 18:28:57.
