data_PCOD9502270
_publ_section_title
;
Structure prediction by ZEFSAII (Michael W. Deem and Ramdas Pophale) SiO2 
 PCOD9502270
Probable space group: C M M A
;
_chemical_formula_sum "Si O2"
_cell_formula_units_Z 96
_cell_length_a 18.807760
_cell_length_b 14.704467
_cell_length_c 17.060223
_cell_angle_alpha 90.000000
_cell_angle_beta 90.000000
_cell_angle_gamma 90.000000
_cell_volume 4718.142624
_symmetry_space_group_name_H-M "C M M A"
_symmetry_group_IT_number 67
_symmetry_cell_setting 'orthorhombic'
loop_
_space_group_symop_operation_xyz
x,y,z
-x,1/2-y,z
x,-y,-z
-x,1/2+y,-z
-x,-y,-z
x,1/2+y,-z
-x,y,z
x,1/2-y,z
1/2+x,1/2+y,z
1/2-x,-y,z
1/2+x,1/2-y,-z
1/2-x,y,-z
1/2-x,1/2-y,-z
1/2+x,y,-z
1/2-x,1/2+y,z
1/2+x,-y,z
loop_
_atom_site_type_symbol
_atom_site_label
_atom_site_fract_x
_atom_site_fract_y
_atom_site_fract_z
Si Si1 0.203915 0.861436 0.755494
Si Si2 0.149155 0.858312 0.319134
Si Si3 0.830872 0.392609 0.505450
Si Si4 0.725424 0.138961 0.085354
Si Si5 0.079423 0.857085 0.649093
Si Si6 0.578225 0.861085 0.838248
O O1 0.202277 0.750000 0.754094
O O2 0.271607 0.891154 0.703439
O O3 0.221610 0.888763 0.844295
O O4 0.132220 0.895941 0.715233
O O5 0.151950 0.750000 0.309896
O O6 0.135103 0.874833 0.409810
O O7 0.095497 0.888996 0.251437
O O8 0.824735 0.500000 0.500000
O O9 0.750000 0.354582 0.500000
O O10 0.879639 0.362503 0.433534
O O11 0.725350 0.250000 0.085280
O O12 0.645721 0.110546 0.109647
O O13 0.750000 0.108774 0.000000
O O14 0.072570 0.750000 0.666521
O O15 0.000000 0.896620 0.645972
O O16 0.500000 0.892880 0.862391
O O17 0.577338 0.750000 0.840653
#
# Coordination Sequence:
#
# PCOD9502270 Si02
#       6
#    16  16  16  16  16  16
#     4   8  14  26  43  62  85 116 154 191 224 267
#     4   9  16  28  48  66  85 121 160 192 230 273
#     4  11  22  33  47  69  96 124 155 194 240 286
#     4   8  13  22  38  61  90 123 151 177 224 282
#     4  10  20  33  49  67  89 123 165 200 230 271
#     4   8  14  24  39  62  89 115 151 195 228 263
#
# _framework density 20.346990000000002
#
# number of rings (size 3 to 8) (size 9 to 14) (size 15 to 20)
#    0.000    3.000    1.667    2.500    0.000    1.667 
#    0.000    2.500    0.000    5.000    0.000    0.000 
#    0.000   10.667    0.000    7.500    0.000    8.333 
#
# Total GULP energy -267664.165756 kJ/mol
# GULP energy per Si atom -5576.336787 kJ/mol
# Density = 2.030068 g / cm^3
# Si number density = 20.346990 Si / 1000 Ang^3
#
#
#
# Elastic Constant Matrix: (Units=GPa)
#
#
# Indices 1 2 3 4 5 6 
#
# 1 170.0796 1.9643 100.0467 0.0000 0.0000 0.0000
# 2 1.9643 37.6197 -7.5482 0.0000 0.0000 0.0000
# 3 100.0467 -7.5482 174.9020 0.0000 0.0000 0.0000
# 4 0.0000 0.0000 0.0000 -64.7869 0.0000 0.0000
# 5 0.0000 0.0000 0.0000 0.0000 16.1351 0.0000
# 6 0.0000 0.0000 0.0000 0.0000 0.0000 9.6909
#
#
#
# Elastic Compliance Matrix: (Units=1/GPa)
#
#
# Indices 1 2 3 4 5 6 
#
# 1 0.008945 -0.001507 -0.005182 0.000000 0.000000 0.000000
# 2 -0.001507 0.027068 0.002030 0.000000 0.000000 0.000000
# 3 -0.005182 0.002030 0.008769 0.000000 0.000000 0.000000
# 4 0.000000 0.000000 0.000000 -0.015435 0.000000 0.000000
# 5 0.000000 0.000000 0.000000 0.000000 0.061977 0.000000
# 6 0.000000 0.000000 0.000000 0.000000 0.000000 0.103190
#
#
# Mechanical properties :
#
#
# Convention : Reuss Voigt Hill
#
# Bulk Modulus (GPa) = 28.19675 63.50300 45.84987
# Shear Modulus (GPa) = 23.18554 11.41706 17.30130
#
# Velocity S-wave (km/s) = 3.37932 2.37136 2.91918
# Velocity P-wave (km/s) = 5.39578 6.22700 5.82624
#
# Compressibility (1/GPa) = 0.03546508
#
# Stress axis : x y z
#
# Youngs Moduli (GPa) = 111.79310 36.94429 114.03608
#
# Poissons Ratio (x) = 0.05567 0.59091
# Poissons Ratio (y) = 0.16845 -0.23150
# Poissons Ratio (z) = 0.57929 -0.07500
#
# Static dielectric constant tensor:
#      x y z
#    x 1.713700 0.000000 0.000000 
#    y 0.000000 1.752650 0.000000 
#    z 0.000000 0.000000 1.744970 
# 
# From -- ./inp_files/34197.got.cif
#   From: 2010.05.17/outbox.cif.g08.bks.cpg/sg67_18_cif.got.tgz:34197.got - 2010.06.03 18:28:57.
