data_PCOD9502896
_publ_section_title
;
Structure prediction by ZEFSAII (Michael W. Deem and Ramdas Pophale) SiO2 
 PCOD9502896
Probable space group: C M M A
;
_chemical_formula_sum "Si O2"
_cell_formula_units_Z 80
_cell_length_a 9.140146
_cell_length_b 16.333287
_cell_length_c 26.918602
_cell_angle_alpha 90.000000
_cell_angle_beta 90.000000
_cell_angle_gamma 90.000000
_cell_volume 4018.641156
_symmetry_space_group_name_H-M "C M M A"
_symmetry_group_IT_number 67
_symmetry_cell_setting 'orthorhombic'
loop_
_space_group_symop_operation_xyz
x,y,z
-x,1/2-y,z
x,-y,-z
-x,1/2+y,-z
-x,-y,-z
x,1/2+y,-z
-x,y,z
x,1/2-y,z
1/2+x,1/2+y,z
1/2-x,-y,z
1/2+x,1/2-y,-z
1/2-x,y,-z
1/2-x,1/2-y,-z
1/2+x,y,-z
1/2-x,1/2+y,z
1/2+x,-y,z
loop_
_atom_site_type_symbol
_atom_site_label
_atom_site_fract_x
_atom_site_fract_y
_atom_site_fract_z
Si Si1 0.168901 0.649745 0.050419
Si Si2 0.673852 0.151608 0.549245
Si Si3 0.674356 0.412288 0.244382
Si Si4 0.334426 0.152306 0.851084
Si Si5 0.330780 0.848782 0.341208
O O1 0.169358 0.750000 0.050952
O O2 0.254768 0.620902 0.099352
O O3 0.000000 0.623884 0.051063
O O4 0.250000 0.624401 0.000000
O O5 0.500000 0.140343 0.545417
O O6 0.701129 0.250000 0.549631
O O7 0.750000 0.117488 0.500000
O O8 0.718651 0.121399 0.604066
O O9 0.500000 0.416302 0.242285
O O10 0.750000 0.500000 0.240831
O O11 0.739059 0.363535 0.197629
O O12 0.728549 0.375232 0.296465
O O13 0.500000 0.119476 0.845613
O O14 0.345784 0.250000 0.856918
O O15 0.500000 0.875576 0.332699
O O16 0.333763 0.750000 0.342795
#
# Coordination Sequence:
#
# PCOD9502896 Si02
#       5
#    16  16  16  16  16
#     4   9  16  27  46  75 109 141 174 213 257 304
#     4   8  14  25  44  72 105 137 167 203 249 300
#     4  12  25  39  55  75 102 137 177 220 266 315
#     4  10  20  35  56  81 109 140 174 215 262 310
#     4   9  18  34  55  79 108 140 173 212 259 309
#
# _framework density 19.907226999999999
#
# number of rings (size 3 to 8) (size 9 to 14) (size 15 to 20)
#    0.000    2.400    0.000    4.800    0.000    7.200 
#    0.000    2.000    0.000    1.200    0.000    8.400 
#    0.000    0.000    0.000    0.000    0.000    0.000 
#
# Total GULP energy -223196.547325 kJ/mol
# GULP energy per Si atom -5579.913683 kJ/mol
# Density = 1.986192 g / cm^3
# Si number density = 19.907227 Si / 1000 Ang^3
#
#
#
# Elastic Constant Matrix: (Units=GPa)
#
#
# Indices 1 2 3 4 5 6 
#
# 1 162.8382 11.0820 108.1278 0.0000 0.0000 0.0000
# 2 11.0820 6.5839 6.2670 0.0000 0.0000 0.0000
# 3 108.1278 6.2670 200.4462 0.0000 0.0000 0.0000
# 4 0.0000 0.0000 0.0000 -28.4677 0.0000 0.0000
# 5 0.0000 0.0000 0.0000 0.0000 34.5960 0.0000
# 6 0.0000 0.0000 0.0000 0.0000 0.0000 11.9553
#
#
#
# Elastic Compliance Matrix: (Units=1/GPa)
#
#
# Indices 1 2 3 4 5 6 
#
# 1 0.010501 -0.012660 -0.005269 0.000000 0.000000 0.000000
# 2 -0.012660 0.171806 0.001458 0.000000 0.000000 0.000000
# 3 -0.005269 0.001458 0.007786 0.000000 0.000000 0.000000
# 4 0.000000 0.000000 0.000000 -0.035128 0.000000 0.000000
# 5 0.000000 0.000000 0.000000 0.000000 0.028905 0.000000
# 6 0.000000 0.000000 0.000000 0.000000 0.000000 0.083645
#
#
# Mechanical properties :
#
#
# Convention : Reuss Voigt Hill
#
# Bulk Modulus (GPa) = 6.36333 68.98023 37.67178
# Shear Modulus (GPa) = 14.17065 19.90950 17.04007
#
# Velocity S-wave (km/s) = 2.67092 3.16589 2.92888
# Velocity P-wave (km/s) = 3.56583 6.93469 5.51385
#
# Compressibility (1/GPa) = 0.15715044
#
# Stress axis : x y z
#
# Youngs Moduli (GPa) = 95.22555 5.82050 128.44275
#
# Poissons Ratio (x) = 0.07369 0.67676
# Poissons Ratio (y) = 1.20559 -0.18725
# Poissons Ratio (z) = 0.50174 -0.00849
#
# Static dielectric constant tensor:
#      x y z
#    x 1.677040 0.000000 0.000000 
#    y 0.000000 1.745420 0.000000 
#    z 0.000000 0.000000 1.739920 
# 
# From -- ./inp_files/43296.got.cif
#   From: 2010.05.17/outbox.cif.g08.bks.cpg/sg67_22_cif.got.tgz:43296.got - 2010.06.03 18:28:57.
