data_PCOD9502738
_publ_section_title
;
Structure prediction by ZEFSAII (Michael W. Deem and Ramdas Pophale) SiO2 
 PCOD9502738
Probable space group: C M M A
;
_chemical_formula_sum "Si O2"
_cell_formula_units_Z 64
_cell_length_a 17.776481
_cell_length_b 10.133954
_cell_length_c 17.482254
_cell_angle_alpha 90.000000
_cell_angle_beta 90.000000
_cell_angle_gamma 90.000000
_cell_volume 3149.358841
_symmetry_space_group_name_H-M "C M M A"
_symmetry_group_IT_number 67
_symmetry_cell_setting 'orthorhombic'
loop_
_space_group_symop_operation_xyz
x,y,z
-x,1/2-y,z
x,-y,-z
-x,1/2+y,-z
-x,-y,-z
x,1/2+y,-z
-x,y,z
x,1/2-y,z
1/2+x,1/2+y,z
1/2-x,-y,z
1/2+x,1/2-y,-z
1/2-x,y,-z
1/2-x,1/2-y,-z
1/2+x,y,-z
1/2-x,1/2+y,z
1/2+x,-y,z
loop_
_atom_site_type_symbol
_atom_site_label
_atom_site_fract_x
_atom_site_fract_y
_atom_site_fract_z
Si Si1 0.908475 0.250000 0.555684
Si Si2 0.409291 0.533541 0.677286
Si Si3 0.588249 0.250000 0.885156
Si Si4 0.662924 0.023218 0.167138
Si Si5 0.591777 0.250000 0.619890
Si Si6 0.168057 0.250000 0.958266
O O1 0.886228 0.123244 0.605528
O O2 0.882551 0.250000 0.468348
O O3 0.000000 0.250000 0.552283
O O4 0.500000 0.537297 0.681186
O O5 0.376759 0.580295 0.757674
O O6 0.384766 0.383324 0.661894
O O7 0.500000 0.250000 0.868589
O O8 0.624937 0.383144 0.852319
O O9 0.606488 0.250000 0.975266
O O10 0.659755 0.122192 0.095428
O O11 0.750000 0.000000 0.184411
O O12 0.500000 0.250000 0.619109
O O13 0.250000 0.250000 0.000000
#
# Coordination Sequence:
#
# PCOD9502738 Si02
#       6
#     8  16   8  16   8   8
#     4   9  17  31  54  84 117 160 209 258 316 376
#     4  10  20  34  56  88 122 157 209 266 314 375
#     4  12  27  44  69 101 129 164 219 279 330 385
#     4  12  24  42  67  91 130 174 213 266 331 404
#     4   9  17  32  56  85 121 161 203 261 322 374
#     4  12  25  45  67  94 125 169 218 264 328 398
#
# _framework density 20.321597000000001
#
# number of rings (size 3 to 8) (size 9 to 14) (size 15 to 20)
#    0.000    1.250    2.500    3.750    0.000    7.000 
#    0.000    0.000    0.000    4.500    0.000    0.000 
#    0.000    0.000    0.000    0.000    0.000    0.000 
#
# Total GULP energy -178932.797460 kJ/mol
# GULP energy per Si atom -5591.649921 kJ/mol
# Density = 2.027534 g / cm^3
# Si number density = 20.321597 Si / 1000 Ang^3
#
#
#
# Elastic Constant Matrix: (Units=GPa)
#
#
# Indices 1 2 3 4 5 6 
#
# 1 71.2585 35.9118 21.0581 0.0000 0.0000 0.0000
# 2 35.9118 115.8740 33.7654 0.0000 0.0000 0.0000
# 3 21.0581 33.7654 127.8350 0.0000 0.0000 0.0000
# 4 0.0000 0.0000 0.0000 46.3811 0.0000 0.0000
# 5 0.0000 0.0000 0.0000 0.0000 130.0706 0.0000
# 6 0.0000 0.0000 0.0000 0.0000 0.0000 -3.4298
#
#
#
# Elastic Compliance Matrix: (Units=1/GPa)
#
#
# Indices 1 2 3 4 5 6 
#
# 1 0.016898 -0.004795 -0.001517 0.000000 0.000000 0.000000
# 2 -0.004795 0.010710 -0.002039 0.000000 0.000000 0.000000
# 3 -0.001517 -0.002039 0.008611 0.000000 0.000000 0.000000
# 4 0.000000 0.000000 0.000000 0.021561 0.000000 0.000000
# 5 0.000000 0.000000 0.000000 0.000000 0.007688 0.000000
# 6 0.000000 0.000000 0.000000 0.000000 0.000000 -0.291559
#
#
# Mechanical properties :
#
#
# Convention : Reuss Voigt Hill
#
# Bulk Modulus (GPa) = 51.23675 55.15981 53.19828
# Shear Modulus (GPa) = -24.64480 49.55318 12.45419
#
# Velocity S-wave (km/s) = -3.48622 4.94342 2.47828
# Velocity P-wave (km/s) = 3.01044 7.73212 5.86721
#
# Compressibility (1/GPa) = 0.01951724
#
# Stress axis : x y z
#
# Youngs Moduli (GPa) = 59.17761 93.36781 116.12948
#
# Poissons Ratio (x) = 0.44770 0.17618
# Poissons Ratio (y) = 0.28376 0.23680
# Poissons Ratio (z) = 0.08978 0.19038
#
# Static dielectric constant tensor:
#      x y z
#    x 1.690520 0.000000 0.000000 
#    y 0.000000 1.725520 0.000000 
#    z 0.000000 0.000000 1.696870 
# 
# From -- ./inp_files/34684.got.cif
#   From: 2010.05.17/outbox.cif.g08.bks.cpg/sg67_18_cif.got.tgz:34684.got - 2010.06.03 18:28:57.
