data_PCOD9502999
_publ_section_title
;
Structure prediction by ZEFSAII (Michael W. Deem and Ramdas Pophale) SiO2 
 PCOD9502999
Probable space group: C M M A
;
_chemical_formula_sum "Si O2"
_cell_formula_units_Z 72
_cell_length_a 9.100070
_cell_length_b 14.916773
_cell_length_c 29.372795
_cell_angle_alpha 90.000000
_cell_angle_beta 90.000000
_cell_angle_gamma 90.000000
_cell_volume 3987.171240
_symmetry_space_group_name_H-M "C M M A"
_symmetry_group_IT_number 67
_symmetry_cell_setting 'orthorhombic'
loop_
_space_group_symop_operation_xyz
x,y,z
-x,1/2-y,z
x,-y,-z
-x,1/2+y,-z
-x,-y,-z
x,1/2+y,-z
-x,y,z
x,1/2-y,z
1/2+x,1/2+y,z
1/2-x,-y,z
1/2+x,1/2-y,-z
1/2-x,y,-z
1/2-x,1/2-y,-z
1/2+x,y,-z
1/2-x,1/2+y,z
1/2+x,-y,z
loop_
_atom_site_type_symbol
_atom_site_label
_atom_site_fract_x
_atom_site_fract_y
_atom_site_fract_z
Si Si1 0.175399 0.409102 0.860192
Si Si2 0.176828 0.250000 0.306652
Si Si3 0.825190 0.250000 0.790990
Si Si4 0.176746 0.750000 0.549068
Si Si5 0.322637 0.401994 0.621611
Si Si6 0.168318 0.358492 0.045849
O O1 0.250000 0.500000 0.844678
O O2 0.209848 0.334246 0.822923
O O3 0.243959 0.385815 0.909220
O O4 0.000000 0.416367 0.864595
O O5 0.242857 0.250000 0.256624
O O6 0.219361 0.339116 0.335264
O O7 0.000000 0.250000 0.304684
O O8 0.000000 0.250000 0.782357
O O9 0.250000 0.750000 0.500000
O O10 0.216219 0.661130 0.578317
O O11 0.000000 0.750000 0.544937
O O12 0.500000 0.411952 0.622026
O O13 0.250000 0.500000 0.621361
O O14 0.164688 0.250000 0.044816
O O15 0.000000 0.391009 0.047514
O O16 0.250000 0.388584 0.000000
#
# Coordination Sequence:
#
# PCOD9502999 Si02
#       6
#    16   8   8   8  16  16
#     4  11  23  40  59  83 113 145 182 225 273 328
#     4   9  20  38  59  80 108 144 183 227 280 336
#     4  10  23  41  60  82 113 145 179 228 281 332
#     4   9  19  35  53  78 116 155 194 233 279 330
#     4   9  19  36  56  81 112 148 188 235 281 329
#     4  10  20  35  58  85 112 145 182 221 269 324
#
# _framework density 18.057915000000001
#
# number of rings (size 3 to 8) (size 9 to 14) (size 15 to 20)
#    0.000    2.222    1.111    2.667    0.000    6.222 
#    0.000   11.111    0.000    0.000    0.000    0.000 
#    0.000    0.000    0.000    0.000    0.000    0.000 
#
# Total GULP energy -200961.416249 kJ/mol
# GULP energy per Si atom -5582.261562 kJ/mol
# Density = 1.801681 g / cm^3
# Si number density = 18.057915 Si / 1000 Ang^3
#
#
#
# Elastic Constant Matrix: (Units=GPa)
#
#
# Indices 1 2 3 4 5 6 
#
# 1 76.5767 69.2975 80.0504 0.0000 0.0000 0.0000
# 2 69.2975 163.9991 95.0689 0.0000 0.0000 0.0000
# 3 80.0504 95.0689 179.7847 0.0000 0.0000 0.0000
# 4 0.0000 0.0000 0.0000 33.2377 0.0000 0.0000
# 5 0.0000 0.0000 0.0000 0.0000 38.4511 0.0000
# 6 0.0000 0.0000 0.0000 0.0000 0.0000 32.9067
#
#
#
# Elastic Compliance Matrix: (Units=1/GPa)
#
#
# Indices 1 2 3 4 5 6 
#
# 1 0.028953 -0.006865 -0.009261 0.000000 0.000000 0.000000
# 2 -0.006865 0.010421 -0.002454 0.000000 0.000000 0.000000
# 3 -0.009261 -0.002454 0.010983 0.000000 0.000000 0.000000
# 4 0.000000 0.000000 0.000000 0.030086 0.000000 0.000000
# 5 0.000000 0.000000 0.000000 0.000000 0.026007 0.000000
# 6 0.000000 0.000000 0.000000 0.000000 0.000000 0.030389
#
#
# Mechanical properties :
#
#
# Convention : Reuss Voigt Hill
#
# Bulk Modulus (GPa) = 75.77638 101.02157 88.39898
# Shear Modulus (GPa) = 28.02720 32.64868 30.33794
#
# Velocity S-wave (km/s) = 3.94391 4.25667 4.10327
# Velocity P-wave (km/s) = 7.92422 8.95676 8.45626
#
# Compressibility (1/GPa) = 0.01319672
#
# Stress axis : x y z
#
# Youngs Moduli (GPa) = 34.53911 95.96101 91.04799
#
# Poissons Ratio (x) = 0.65881 0.84320
# Poissons Ratio (y) = 0.23712 0.22340
# Poissons Ratio (z) = 0.31987 0.23545
#
# Static dielectric constant tensor:
#      x y z
#    x 1.605390 0.000000 0.000000 
#    y 0.000000 1.616520 0.000000 
#    z 0.000000 0.000000 1.588400 
# 
# From -- ./inp_files/43135.got.cif
#   From: 2010.05.17/outbox.cif.g08.bks.cpg/sg67_22_cif.got.tgz:43135.got - 2010.06.03 18:28:57.
