data_PCOD9502145
_publ_section_title
;
Structure prediction by ZEFSAII (Michael W. Deem and Ramdas Pophale) SiO2 
 PCOD9502145
Probable space group: C M M A
;
_chemical_formula_sum "Si O2"
_cell_formula_units_Z 104
_cell_length_a 9.711599
_cell_length_b 26.703795
_cell_length_c 26.914151
_cell_angle_alpha 90.000000
_cell_angle_beta 90.000000
_cell_angle_gamma 90.000000
_cell_volume 6979.823035
_symmetry_space_group_name_H-M "C M M A"
_symmetry_group_IT_number 67
_symmetry_cell_setting 'orthorhombic'
loop_
_space_group_symop_operation_xyz
x,y,z
-x,1/2-y,z
x,-y,-z
-x,1/2+y,-z
-x,-y,-z
x,1/2+y,-z
-x,y,z
x,1/2-y,z
1/2+x,1/2+y,z
1/2-x,-y,z
1/2+x,1/2-y,-z
1/2-x,y,-z
1/2-x,1/2-y,-z
1/2+x,y,-z
1/2-x,1/2+y,z
1/2+x,-y,z
loop_
_atom_site_type_symbol
_atom_site_label
_atom_site_fract_x
_atom_site_fract_y
_atom_site_fract_z
Si Si1 0.162612 0.690139 0.739791
Si Si2 0.659359 0.450553 0.907113
Si Si3 0.160748 0.810987 0.548171
Si Si4 0.659727 0.310832 0.356544
Si Si5 0.250000 0.386513 0.000000
Si Si6 0.849061 0.193909 0.925913
Si Si7 0.835771 0.355026 0.154092
O O1 0.177789 0.750000 0.749010
O O2 0.261283 0.675956 0.694250
O O3 0.197692 0.660059 0.789777
O O4 0.000000 0.682033 0.727835
O O5 0.500000 0.463557 0.900163
O O6 0.750000 0.500000 0.907266
O O7 0.702057 0.410778 0.864494
O O8 0.676104 0.421224 0.959437
O O9 0.157340 0.750000 0.548469
O O10 0.250000 0.825917 0.500000
O O11 0.245893 0.826969 0.596965
O O12 0.000000 0.827141 0.547277
O O13 0.500000 0.327624 0.358924
O O14 0.656307 0.250000 0.358260
O O15 0.341701 0.348269 0.031940
O O16 0.830886 0.250000 0.946011
O O17 0.736579 0.181872 0.884638
O O18 0.000000 0.191280 0.902194
O O19 0.000000 0.350667 0.148460
#
# Coordination Sequence:
#
# PCOD9502145 Si02
#       7
#    16  16  16  16   8  16  16
#     4   9  16  27  43  60  79 105 136 168 202 243
#     4  10  21  35  51  68  85 106 134 169 208 250
#     4   9  15  22  32  46  67  98 137 179 218 251
#     4   9  16  24  34  51  75 102 134 172 211 247
#     4  10  20  34  50  66  88 114 140 164 198 246
#     4  10  20  32  47  68  91 113 138 168 201 239
#     4   9  19  34  49  65  85 111 140 168 205 254
#
# _framework density 14.900092000000001
#
# number of rings (size 3 to 8) (size 9 to 14) (size 15 to 20)
#    0.000    2.615    0.000    2.308    0.000    9.538 
#    0.000    1.538    0.000    0.000    0.000    0.000 
#    0.000    0.000    0.000    0.000    0.000    0.769 
#
# Total GULP energy -289578.547553 kJ/mol
# GULP energy per Si atom -5568.818222 kJ/mol
# Density = 1.486618 g / cm^3
# Si number density = 14.900092 Si / 1000 Ang^3
#
#
#
# Elastic Constant Matrix: (Units=GPa)
#
#
# Indices 1 2 3 4 5 6 
#
# 1 88.0369 36.6261 65.7568 0.0000 0.0000 0.0000
# 2 36.6261 60.0706 35.3433 0.0000 0.0000 0.0000
# 3 65.7568 35.3433 123.3621 0.0000 0.0000 0.0000
# 4 0.0000 0.0000 0.0000 4.7733 0.0000 0.0000
# 5 0.0000 0.0000 0.0000 0.0000 21.1014 0.0000
# 6 0.0000 0.0000 0.0000 0.0000 0.0000 21.4800
#
#
#
# Elastic Compliance Matrix: (Units=1/GPa)
#
#
# Indices 1 2 3 4 5 6 
#
# 1 0.021436 -0.007634 -0.009239 0.000000 0.000000 0.000000
# 2 -0.007634 0.022741 -0.002446 0.000000 0.000000 0.000000
# 3 -0.009239 -0.002446 0.013732 0.000000 0.000000 0.000000
# 4 0.000000 0.000000 0.000000 0.209499 0.000000 0.000000
# 5 0.000000 0.000000 0.000000 0.000000 0.047390 0.000000
# 6 0.000000 0.000000 0.000000 0.000000 0.000000 0.046555
#
#
# Mechanical properties :
#
#
# Convention : Reuss Voigt Hill
#
# Bulk Modulus (GPa) = 51.89311 60.76912 56.33112
# Shear Modulus (GPa) = 12.30274 18.38716 15.34495
#
# Velocity S-wave (km/s) = 2.87659 3.51669 3.21262
# Velocity P-wave (km/s) = 6.77761 7.57380 7.18674
#
# Compressibility (1/GPa) = 0.01927038
#
# Stress axis : x y z
#
# Youngs Moduli (GPa) = 46.65157 43.97387 72.82418
#
# Poissons Ratio (x) = 0.33569 0.67281
# Poissons Ratio (y) = 0.35613 0.17814
# Poissons Ratio (z) = 0.43101 0.10757
#
# Static dielectric constant tensor:
#      x y z
#    x 1.508380 0.000000 0.000000 
#    y 0.000000 1.469930 0.000000 
#    z 0.000000 0.000000 1.494250 
# 
# From -- ./inp_files/43847.got.cif
#   From: 2010.05.17/outbox.cif.g08.bks.cpg/sg67_22_cif.got.tgz:43847.got - 2010.06.03 18:28:57.
