data_PCOD9502028
_publ_section_title
;
Structure prediction by ZEFSAII (Michael W. Deem and Ramdas Pophale) SiO2 
 PCOD9502028
Probable space group: C M M A
;
_chemical_formula_sum "Si O2"
_cell_formula_units_Z 116
_cell_length_a 15.537389
_cell_length_b 26.819844
_cell_length_c 11.639645
_cell_angle_alpha 90.000000
_cell_angle_beta 90.000000
_cell_angle_gamma 90.000000
_cell_volume 4850.360532
_symmetry_space_group_name_H-M "C M M A"
_symmetry_group_IT_number 67
_symmetry_cell_setting 'orthorhombic'
loop_
_space_group_symop_operation_xyz
x,y,z
-x,1/2-y,z
x,-y,-z
-x,1/2+y,-z
-x,-y,-z
x,1/2+y,-z
-x,y,z
x,1/2-y,z
1/2+x,1/2+y,z
1/2-x,-y,z
1/2+x,1/2-y,-z
1/2-x,y,-z
1/2-x,1/2-y,-z
1/2+x,y,-z
1/2-x,1/2+y,z
1/2+x,-y,z
loop_
_atom_site_type_symbol
_atom_site_label
_atom_site_fract_x
_atom_site_fract_y
_atom_site_fract_z
Si Si1 0.348392 0.585979 0.956634
Si Si2 0.324518 0.303403 0.328420
Si Si3 0.599349 0.430145 0.810874
Si Si4 0.897484 0.033251 0.723217
Si Si5 0.654522 0.303344 0.054873
Si Si6 0.500000 0.250000 0.739458
Si Si7 0.864699 0.661961 0.691520
Si Si8 0.148120 0.104147 0.527490
O O1 0.357153 0.565191 0.828065
O O2 0.385046 0.642551 0.966535
O O3 0.250000 0.585389 0.000000
O O4 0.395585 0.555178 0.055786
O O5 0.352286 0.250000 0.377576
O O6 0.337263 0.302087 0.192350
O O7 0.223374 0.312307 0.348218
O O8 0.368905 0.350417 0.384471
O O9 0.500000 0.419411 0.783560
O O10 0.633090 0.476256 0.736407
O O11 0.651697 0.379234 0.789628
O O12 0.880517 0.056044 0.598029
O O13 0.000000 0.032887 0.743247
O O14 0.613281 0.250000 0.017565
O O15 0.750000 0.303406 0.000000
O O16 0.426307 0.205528 0.731655
O O17 0.894241 0.625282 0.588331
O O18 0.250000 0.099000 0.500000
#
# Coordination Sequence:
#
# PCOD9502028 Si02
#       8
#    16  16  16  16  16   4  16  16
#     4  11  22  41  68  99 131 170 231 282 330 398
#     4  10  19  37  62  90 128 165 209 268 325 387
#     4  11  25  44  65  93 134 175 220 270 336 406
#     4  11  25  46  68  95 135 184 221 275 346 407
#     4   9  17  31  57  91 125 163 204 262 333 390
#     4  12  24  40  66  94 134 176 222 268 340 396
#     4  11  23  41  61  96 127 168 221 272 328 395
#     4  10  24  42  68  98 130 171 226 280 330 395
#
# _framework density 23.915747
#
# number of rings (size 3 to 8) (size 9 to 14) (size 15 to 20)
#    0.000    1.517    2.759    2.483    3.862    3.586 
#    1.241    3.448    0.000    2.069    0.000    0.000 
#    0.000    0.000    0.000    0.000    0.000    0.000 
#
# Total GULP energy -323545.015948 kJ/mol
# GULP energy per Si atom -5578.362344 kJ/mol
# Density = 2.386131 g / cm^3
# Si number density = 23.915747 Si / 1000 Ang^3
#
#
#
# Elastic Constant Matrix: (Units=GPa)
#
#
# Indices 1 2 3 4 5 6 
#
# 1 31.6713 10.8795 -5.1786 0.0000 0.0000 0.0000
# 2 10.8795 158.3253 25.5831 0.0000 0.0000 0.0000
# 3 -5.1786 25.5831 95.6440 0.0000 0.0000 0.0000
# 4 0.0000 0.0000 0.0000 30.1517 0.0000 0.0000
# 5 0.0000 0.0000 0.0000 0.0000 14.9752 0.0000
# 6 0.0000 0.0000 0.0000 0.0000 0.0000 20.7667
#
#
#
# Elastic Compliance Matrix: (Units=1/GPa)
#
#
# Indices 1 2 3 4 5 6 
#
# 1 0.032897 -0.002663 0.002494 0.000000 0.000000 0.000000
# 2 -0.002663 0.006817 -0.001968 0.000000 0.000000 0.000000
# 3 0.002494 -0.001968 0.011117 0.000000 0.000000 0.000000
# 4 0.000000 0.000000 0.000000 0.033166 0.000000 0.000000
# 5 0.000000 0.000000 0.000000 0.000000 0.066777 0.000000
# 6 0.000000 0.000000 0.000000 0.000000 0.000000 0.048154
#
#
# Mechanical properties :
#
#
# Convention : Reuss Voigt Hill
#
# Bulk Modulus (GPa) = 21.47961 38.68985 30.08473
# Shear Modulus (GPa) = 22.86015 30.13583 26.49799
#
# Velocity S-wave (km/s) = 3.09506 3.55362 3.33223
# Velocity P-wave (km/s) = 4.66619 5.74894 5.23563
#
# Compressibility (1/GPa) = 0.04655577
#
# Stress axis : x y z
#
# Youngs Moduli (GPa) = 30.39795 146.69039 89.95421
#
# Poissons Ratio (x) = 0.39071 -0.22431
# Poissons Ratio (y) = 0.08096 0.17700
# Poissons Ratio (z) = -0.07580 0.28864
#
# Static dielectric constant tensor:
#      x y z
#    x 1.942100 0.000000 0.000000 
#    y 0.000000 1.931440 0.000000 
#    z 0.000000 0.000000 1.978890 
# 
# From -- ./inp_files/19993.got.cif
#   From: 2010.05.17/outbox.cif.g08.bks.cpg/sg67_10_cif.got.tgz:19993.got - 2010.06.03 18:28:57.
