data_PCOD9502685
_publ_section_title
;
Structure prediction by ZEFSAII (Michael W. Deem and Ramdas Pophale) SiO2 
 PCOD9502685
Probable space group: C M M A
;
_chemical_formula_sum "Si O2"
_cell_formula_units_Z 72
_cell_length_a 8.675207
_cell_length_b 32.863594
_cell_length_c 13.841201
_cell_angle_alpha 90.000000
_cell_angle_beta 90.000000
_cell_angle_gamma 90.000000
_cell_volume 3946.105376
_symmetry_space_group_name_H-M "C M M A"
_symmetry_group_IT_number 67
_symmetry_cell_setting 'orthorhombic'
loop_
_space_group_symop_operation_xyz
x,y,z
-x,1/2-y,z
x,-y,-z
-x,1/2+y,-z
-x,-y,-z
x,1/2+y,-z
-x,y,z
x,1/2-y,z
1/2+x,1/2+y,z
1/2-x,-y,z
1/2+x,1/2-y,-z
1/2-x,y,-z
1/2-x,1/2-y,-z
1/2+x,y,-z
1/2-x,1/2+y,z
1/2+x,-y,z
loop_
_atom_site_type_symbol
_atom_site_label
_atom_site_fract_x
_atom_site_fract_y
_atom_site_fract_z
Si Si1 0.816006 0.582395 0.604447
Si Si2 0.686801 0.163732 0.305093
Si Si3 0.184683 0.626300 0.103263
Si Si4 0.814967 0.956677 0.203460
Si Si5 0.185895 0.750000 0.392269
O O1 0.750000 0.570992 0.500000
O O2 0.761178 0.628269 0.630338
O O3 0.748896 0.554714 0.690502
O O4 0.000000 0.580262 0.604118
O O5 0.500000 0.159815 0.312844
O O6 0.729771 0.154388 0.194065
O O7 0.733192 0.208487 0.338995
O O8 0.232532 0.580482 0.133629
O O9 0.000000 0.626803 0.097874
O O10 0.250000 0.638071 0.000000
O O11 0.000000 0.957633 0.207527
O O12 0.750000 0.000000 0.172323
O O13 0.250000 0.750000 0.500000
O O14 0.000000 0.750000 0.395612
#
# Coordination Sequence:
#
# PCOD9502685 Si02
#       5
#    16  16  16  16   8
#     4  11  21  34  53  76 104 141 178 216 261 314
#     4   9  19  36  54  77 107 140 176 218 263 312
#     4   9  19  35  55  76 103 137 175 216 262 311
#     4  10  21  37  54  77 106 136 173 219 264 312
#     4  10  20  34  55  80 110 142 175 214 261 310
#
# _framework density 18.245839
#
# number of rings (size 3 to 8) (size 9 to 14) (size 15 to 20)
#    0.000    2.222    0.000    4.667    0.000    8.000 
#    0.000    5.000    0.000    0.000    0.000    0.000 
#    0.000    0.000    0.000    0.000    0.000    0.000 
#
# Total GULP energy -201001.966859 kJ/mol
# GULP energy per Si atom -5583.387968 kJ/mol
# Density = 1.820431 g / cm^3
# Si number density = 18.245839 Si / 1000 Ang^3
#
#
#
# Elastic Constant Matrix: (Units=GPa)
#
#
# Indices 1 2 3 4 5 6 
#
# 1 45.2106 14.9443 13.6736 0.0000 0.0000 0.0000
# 2 14.9443 98.4998 23.4616 0.0000 0.0000 0.0000
# 3 13.6736 23.4616 98.0825 0.0000 0.0000 0.0000
# 4 0.0000 0.0000 0.0000 5.9447 0.0000 0.0000
# 5 0.0000 0.0000 0.0000 0.0000 31.2858 0.0000
# 6 0.0000 0.0000 0.0000 0.0000 0.0000 3.4689
#
#
#
# Elastic Compliance Matrix: (Units=1/GPa)
#
#
# Indices 1 2 3 4 5 6 
#
# 1 0.023902 -0.003004 -0.002614 0.000000 0.000000 0.000000
# 2 -0.003004 0.011143 -0.002247 0.000000 0.000000 0.000000
# 3 -0.002614 -0.002247 0.011097 0.000000 0.000000 0.000000
# 4 0.000000 0.000000 0.000000 0.168217 0.000000 0.000000
# 5 0.000000 0.000000 0.000000 0.000000 0.031963 0.000000
# 6 0.000000 0.000000 0.000000 0.000000 0.000000 0.288280
#
#
# Mechanical properties :
#
#
# Convention : Reuss Voigt Hill
#
# Bulk Modulus (GPa) = 32.87943 38.43910 35.65927
# Shear Modulus (GPa) = 8.92109 20.78744 14.85427
#
# Velocity S-wave (km/s) = 2.21359 3.37901 2.85637
# Velocity P-wave (km/s) = 4.95910 6.02799 5.51948
#
# Compressibility (1/GPa) = 0.03041415
#
# Stress axis : x y z
#
# Youngs Moduli (GPa) = 41.83731 89.74089 90.11214
#
# Poissons Ratio (x) = 0.26957 0.23552
# Poissons Ratio (y) = 0.12567 0.20246
# Poissons Ratio (z) = 0.10935 0.20162
#
# Static dielectric constant tensor:
#      x y z
#    x 1.626940 0.000000 0.000000 
#    y 0.000000 1.625190 0.000000 
#    z 0.000000 0.000000 1.604610 
# 
# From -- ./inp_files/25281.got.cif
#   From: 2010.05.17/outbox.cif.g08.bks.cpg/sg67_13_cif.got.tgz:25281.got - 2010.06.03 18:28:57.
