data_PCOD9502113
_publ_section_title
;
Structure prediction by ZEFSAII (Michael W. Deem and Ramdas Pophale) SiO2 
 PCOD9502113
Probable space group: C M M A
;
_chemical_formula_sum "Si O2"
_cell_formula_units_Z 104
_cell_length_a 31.154512
_cell_length_b 8.935511
_cell_length_c 23.053103
_cell_angle_alpha 90.000000
_cell_angle_beta 90.000000
_cell_angle_gamma 90.000000
_cell_volume 6417.557040
_symmetry_space_group_name_H-M "C M M A"
_symmetry_group_IT_number 67
_symmetry_cell_setting 'orthorhombic'
loop_
_space_group_symop_operation_xyz
x,y,z
-x,1/2-y,z
x,-y,-z
-x,1/2+y,-z
-x,-y,-z
x,1/2+y,-z
-x,y,z
x,1/2-y,z
1/2+x,1/2+y,z
1/2-x,-y,z
1/2+x,1/2-y,-z
1/2-x,y,-z
1/2-x,1/2-y,-z
1/2+x,y,-z
1/2-x,1/2+y,z
1/2+x,-y,z
loop_
_atom_site_type_symbol
_atom_site_label
_atom_site_fract_x
_atom_site_fract_y
_atom_site_fract_z
Si Si1 0.323192 0.927512 0.940524
Si Si2 0.592715 0.576811 0.100837
Si Si3 0.551962 0.421099 0.558801
Si Si4 0.379616 0.423328 0.765571
Si Si5 0.550152 0.429456 0.318259
Si Si6 0.704990 0.570177 0.810592
Si Si7 0.000000 0.069649 0.062936
O O1 0.319603 0.750000 0.945313
O O2 0.302446 0.974450 0.878728
O O3 0.372672 0.977556 0.932532
O O4 0.306281 0.000000 0.000000
O O5 0.596983 0.750000 0.080737
O O6 0.602916 0.574251 0.168700
O O7 0.544241 0.523906 0.092644
O O8 0.567616 0.500000 0.500000
O O9 0.500000 0.415896 0.554764
O O10 0.567206 0.250000 0.563294
O O11 0.560967 0.513096 0.617051
O O12 0.373353 0.250000 0.748453
O O13 0.415259 0.499539 0.725132
O O14 0.334240 0.508265 0.771986
O O15 0.500000 0.473157 0.305931
O O16 0.552226 0.250000 0.315859
O O17 0.705622 0.750000 0.808444
O O18 0.750000 0.500000 0.792065
O O19 0.000000 0.250000 0.060793
O O20 0.000000 0.000000 0.000000
#
# Coordination Sequence:
#
# PCOD9502113 Si02
#       7
#    16  16  16  16  16  16   8
#     4  10  20  33  50  70  93 117 146 187 236 294
#     4   9  19  33  48  64  87 118 154 195 240 288
#     4   9  16  27  44  67  97 135 176 214 251 290
#     4  10  20  34  53  73  96 127 163 205 249 295
#     4  10  20  32  47  71 104 140 176 213 248 288
#     4  10  21  37  55  74  97 123 155 196 246 302
#     4  10  20  32  44  62  84 112 151 194 235 280
#
# _framework density 16.205542999999999
#
# number of rings (size 3 to 8) (size 9 to 14) (size 15 to 20)
#    0.000    2.308    0.000    2.769    1.077    7.385 
#    0.000    1.538    0.000    0.000    0.000    0.000 
#    0.000    0.615    0.000    6.154    0.000    4.000 
#
# Total GULP energy -289964.268732 kJ/mol
# GULP energy per Si atom -5576.235937 kJ/mol
# Density = 1.616866 g / cm^3
# Si number density = 16.205543 Si / 1000 Ang^3
#
#
#
# Elastic Constant Matrix: (Units=GPa)
#
#
# Indices 1 2 3 4 5 6 
#
# 1 106.7759 38.2924 35.9055 0.0000 0.0000 0.0000
# 2 38.2924 69.5431 37.6221 0.0000 0.0000 0.0000
# 3 35.9055 37.6221 71.6089 0.0000 0.0000 0.0000
# 4 0.0000 0.0000 0.0000 28.9807 0.0000 0.0000
# 5 0.0000 0.0000 0.0000 0.0000 7.2727 0.0000
# 6 0.0000 0.0000 0.0000 0.0000 0.0000 22.2474
#
#
#
# Elastic Compliance Matrix: (Units=1/GPa)
#
#
# Indices 1 2 3 4 5 6 
#
# 1 0.012317 -0.004807 -0.003650 0.000000 0.000000 0.000000
# 2 -0.004807 0.021966 -0.009130 0.000000 0.000000 0.000000
# 3 -0.003650 -0.009130 0.020592 0.000000 0.000000 0.000000
# 4 0.000000 0.000000 0.000000 0.034506 0.000000 0.000000
# 5 0.000000 0.000000 0.000000 0.000000 0.137501 0.000000
# 6 0.000000 0.000000 0.000000 0.000000 0.000000 0.044949
#
#
# Mechanical properties :
#
#
# Convention : Reuss Voigt Hill
#
# Bulk Modulus (GPa) = 50.76282 52.39645 51.57964
# Shear Modulus (GPa) = 15.94532 20.77402 18.35967
#
# Velocity S-wave (km/s) = 3.14019 3.58426 3.36955
# Velocity P-wave (km/s) = 6.67383 7.03789 6.85828
#
# Compressibility (1/GPa) = 0.01969946
#
# Stress axis : x y z
#
# Youngs Moduli (GPa) = 81.18950 45.52510 48.56319
#
# Poissons Ratio (x) = 0.21885 0.17726
# Poissons Ratio (y) = 0.39031 0.44339
# Poissons Ratio (z) = 0.29635 0.41565
#
# Static dielectric constant tensor:
#      x y z
#    x 1.531020 0.000000 0.000000 
#    y 0.000000 1.554280 0.000000 
#    z 0.000000 0.000000 1.527920 
# 
# From -- ./inp_files/37567.got.cif
#   From: 2010.05.17/outbox.cif.g08.bks.cpg/sg67_19_cif.got.tgz:37567.got - 2010.06.03 18:28:57.
