data_PCOD9502457
_publ_section_title
;
Structure prediction by ZEFSAII (Michael W. Deem and Ramdas Pophale) SiO2 
 PCOD9502457
Probable space group: C M M A
;
_chemical_formula_sum "Si O2"
_cell_formula_units_Z 120
_cell_length_a 26.567729
_cell_length_b 23.048530
_cell_length_c 11.161058
_cell_angle_alpha 90.000000
_cell_angle_beta 90.000000
_cell_angle_gamma 90.000000
_cell_volume 6834.441487
_symmetry_space_group_name_H-M "C M M A"
_symmetry_group_IT_number 67
_symmetry_cell_setting 'orthorhombic'
loop_
_space_group_symop_operation_xyz
x,y,z
-x,1/2-y,z
x,-y,-z
-x,1/2+y,-z
-x,-y,-z
x,1/2+y,-z
-x,y,z
x,1/2-y,z
1/2+x,1/2+y,z
1/2-x,-y,z
1/2+x,1/2-y,-z
1/2-x,y,-z
1/2-x,1/2-y,-z
1/2+x,y,-z
1/2-x,1/2+y,z
1/2+x,-y,z
loop_
_atom_site_type_symbol
_atom_site_label
_atom_site_fract_x
_atom_site_fract_y
_atom_site_fract_z
Si Si1 0.057407 0.975001 0.193182
Si Si2 0.774908 0.086419 0.738867
Si Si3 0.332131 0.621730 0.345956
Si Si4 0.195934 0.816229 0.428859
Si Si5 0.849979 0.317929 0.102342
Si Si6 0.250000 0.623863 0.000000
Si Si7 0.558537 0.595486 0.046023
Si Si8 0.642840 0.998962 0.642383
O O1 0.000000 0.972670 0.233963
O O2 0.065086 0.927360 0.089692
O O3 0.095422 0.966473 0.301582
O O4 0.064594 0.037294 0.126691
O O5 0.722691 0.091430 0.666531
O O6 0.801004 0.145788 0.691308
O O7 0.808929 0.032541 0.700714
O O8 0.762835 0.087926 0.879711
O O9 0.338345 0.650442 0.474868
O O10 0.337248 0.668714 0.241793
O O11 0.366114 0.566132 0.323985
O O12 0.181572 0.750000 0.406352
O O13 0.250000 0.814537 0.500000
O O14 0.858480 0.250000 0.082904
O O15 0.800019 0.339333 0.031685
O O16 0.898834 0.356918 0.072359
O O17 0.500000 0.614881 0.061114
O O18 0.648168 0.000000 0.500000
#
# Coordination Sequence:
#
# PCOD9502457 Si02
#       8
#    16  16  16  16  16   8  16  16
#     4   9  19  36  57  79 106 140 179 225 282 343
#     4  10  21  34  51  76 106 147 184 226 273 319
#     4  10  20  34  48  76 107 143 182 223 274 331
#     4   9  17  31  50  69  96 137 186 225 265 323
#     4  11  21  35  55  80 114 148 184 230 279 338
#     4  10  23  38  51  78 120 155 187 220 280 342
#     4   9  18  36  60  81 106 142 185 235 281 332
#     4  12  21  33  56  80 110 140 180 235 285 332
#
# _framework density 17.558129000000001
#
# number of rings (size 3 to 8) (size 9 to 14) (size 15 to 20)
#    0.000    2.000    2.667    2.600    0.000    4.800 
#    0.000    2.667    0.000    0.000    0.000    0.000 
#    0.000    1.067    0.000    0.000    0.000    0.000 
#
# Total GULP energy -334307.238623 kJ/mol
# GULP energy per Si atom -5571.787310 kJ/mol
# Density = 1.751817 g / cm^3
# Si number density = 17.558129 Si / 1000 Ang^3
#
#
#
# Elastic Constant Matrix: (Units=GPa)
#
#
# Indices 1 2 3 4 5 6 
#
# 1 80.4561 32.7585 27.1688 0.0000 0.0000 0.0000
# 2 32.7585 89.4538 21.7945 0.0000 0.0000 0.0000
# 3 27.1688 21.7945 86.2384 0.0000 0.0000 0.0000
# 4 0.0000 0.0000 0.0000 10.0343 0.0000 0.0000
# 5 0.0000 0.0000 0.0000 0.0000 17.3703 0.0000
# 6 0.0000 0.0000 0.0000 0.0000 0.0000 14.6654
#
#
#
# Elastic Compliance Matrix: (Units=1/GPa)
#
#
# Indices 1 2 3 4 5 6 
#
# 1 0.015647 -0.004826 -0.003710 0.000000 0.000000 0.000000
# 2 -0.004826 0.013401 -0.001866 0.000000 0.000000 0.000000
# 3 -0.003710 -0.001866 0.013236 0.000000 0.000000 0.000000
# 4 0.000000 0.000000 0.000000 0.099658 0.000000 0.000000
# 5 0.000000 0.000000 0.000000 0.000000 0.057569 0.000000
# 6 0.000000 0.000000 0.000000 0.000000 0.000000 0.068188
#
#
# Mechanical properties :
#
#
# Convention : Reuss Voigt Hill
#
# Bulk Modulus (GPa) = 46.55574 46.62133 46.58854
# Shear Modulus (GPa) = 16.91110 20.04244 18.47677
#
# Velocity S-wave (km/s) = 3.10683 3.38226 3.24747
# Velocity P-wave (km/s) = 6.28034 6.47017 6.37596
#
# Compressibility (1/GPa) = 0.02147963
#
# Stress axis : x y z
#
# Youngs Moduli (GPa) = 63.91057 74.62124 75.55060
#
# Poissons Ratio (x) = 0.36013 0.28027
# Poissons Ratio (y) = 0.30844 0.14100
# Poissons Ratio (z) = 0.23709 0.13927
#
# Static dielectric constant tensor:
#      x y z
#    x 1.622530 0.000000 0.000000 
#    y 0.000000 1.618950 0.000000 
#    z 0.000000 0.000000 1.612250 
# 
# From -- ./inp_files/23183.got.cif
#   From: 2010.05.17/outbox.cif.g08.bks.cpg/sg67_12_cif.got.tgz:23183.got - 2010.06.03 18:28:57.
