data_PCOD9502737
_publ_section_title
;
Structure prediction by ZEFSAII (Michael W. Deem and Ramdas Pophale) SiO2 
 PCOD9502737
Probable space group: C M M A
;
_chemical_formula_sum "Si O2"
_cell_formula_units_Z 80
_cell_length_a 8.523492
_cell_length_b 29.725165
_cell_length_c 16.057515
_cell_angle_alpha 90.000000
_cell_angle_beta 90.000000
_cell_angle_gamma 90.000000
_cell_volume 4068.367425
_symmetry_space_group_name_H-M "C M M A"
_symmetry_group_IT_number 67
_symmetry_cell_setting 'orthorhombic'
loop_
_space_group_symop_operation_xyz
x,y,z
-x,1/2-y,z
x,-y,-z
-x,1/2+y,-z
-x,-y,-z
x,1/2+y,-z
-x,y,z
x,1/2-y,z
1/2+x,1/2+y,z
1/2-x,-y,z
1/2+x,1/2-y,-z
1/2-x,y,-z
1/2-x,1/2-y,-z
1/2+x,y,-z
1/2-x,1/2+y,z
1/2+x,-y,z
loop_
_atom_site_type_symbol
_atom_site_label
_atom_site_fract_x
_atom_site_fract_y
_atom_site_fract_z
Si Si1 0.310938 0.606040 0.588792
Si Si2 0.689856 0.449367 0.248640
Si Si3 0.687962 0.800156 0.151578
Si Si4 0.187214 0.607285 0.087960
Si Si5 0.689788 0.700252 0.659327
O O1 0.500000 0.605610 0.587546
O O2 0.250000 0.590024 0.500000
O O3 0.258934 0.576088 0.667179
O O4 0.258492 0.657532 0.605745
O O5 0.500000 0.449384 0.248278
O O6 0.750000 0.500000 0.246653
O O7 0.742878 0.421671 0.167247
O O8 0.500000 0.802594 0.149000
O O9 0.736672 0.750000 0.123112
O O10 0.758385 0.841445 0.101169
O O11 0.744751 0.804690 0.247216
O O12 0.000000 0.606235 0.087112
O O13 0.250000 0.590003 0.000000
O O14 0.500000 0.698902 0.664573
O O15 0.736055 0.750000 0.628150
#
# Coordination Sequence:
#
# PCOD9502737 Si02
#       5
#    16  16  16  16  16
#     4  10  21  38  58  87 120 154 197 240 289 348
#     4  10  23  43  64  86 116 151 193 243 300 356
#     4  10  20  34  56  88 122 157 199 241 285 341
#     4  11  23  41  63  89 120 155 196 241 290 351
#     4   9  17  33  57  82 116 160 198 237 288 344
#
# _framework density 19.663906000000001
#
# number of rings (size 3 to 8) (size 9 to 14) (size 15 to 20)
#    0.000    2.000    2.000    1.200    0.000    6.000 
#    0.000    4.000    0.000    0.000    0.000    0.000 
#    0.000    0.000    0.000    0.000    0.000    0.000 
#
# Total GULP energy -223391.521538 kJ/mol
# GULP energy per Si atom -5584.788038 kJ/mol
# Density = 1.961915 g / cm^3
# Si number density = 19.663906 Si / 1000 Ang^3
#
#
#
# Elastic Constant Matrix: (Units=GPa)
#
#
# Indices 1 2 3 4 5 6 
#
# 1 11.2452 23.2123 22.6720 0.0000 0.0000 0.0000
# 2 23.2123 135.0874 85.5483 0.0000 0.0000 0.0000
# 3 22.6720 85.5483 161.9423 0.0000 0.0000 0.0000
# 4 0.0000 0.0000 0.0000 -0.2304 0.0000 0.0000
# 5 0.0000 0.0000 0.0000 0.0000 27.7911 0.0000
# 6 0.0000 0.0000 0.0000 0.0000 0.0000 25.4275
#
#
#
# Elastic Compliance Matrix: (Units=1/GPa)
#
#
# Indices 1 2 3 4 5 6 
#
# 1 0.149997 -0.018747 -0.011096 0.000000 0.000000 0.000000
# 2 -0.018747 0.013467 -0.004490 0.000000 0.000000 0.000000
# 3 -0.011096 -0.004490 0.010100 0.000000 0.000000 0.000000
# 4 0.000000 0.000000 0.000000 -4.340384 0.000000 0.000000
# 5 0.000000 0.000000 0.000000 0.000000 0.035983 0.000000
# 6 0.000000 0.000000 0.000000 0.000000 0.000000 0.039328
#
#
# Mechanical properties :
#
#
# Convention : Reuss Voigt Hill
#
# Bulk Modulus (GPa) = 9.53306 63.46000 36.49653
# Shear Modulus (GPa) = -1.25380 22.38713 10.56667
#
# Velocity S-wave (km/s) = -0.79937 3.37781 2.32063
# Velocity P-wave (km/s) = 2.00163 6.89603 5.07749
#
# Compressibility (1/GPa) = 0.10489807
#
# Stress axis : x y z
#
# Youngs Moduli (GPa) = 6.66682 74.25491 99.00785
#
# Poissons Ratio (x) = 1.39206 1.09861
# Poissons Ratio (y) = 0.12498 0.44450
# Poissons Ratio (z) = 0.07398 0.33337
#
# Static dielectric constant tensor:
#      x y z
#    x 1.683030 0.000000 0.000000 
#    y 0.000000 1.686870 0.000000 
#    z 0.000000 0.000000 1.686950 
# 
# From -- ./inp_files/32116.got.cif
#   From: 2010.05.17/outbox.cif.g08.bks.cpg/sg67_17_cif.got.tgz:32116.got - 2010.06.03 18:28:57.
