data_PCOD9502007
_publ_section_title
;
Structure prediction by ZEFSAII (Michael W. Deem and Ramdas Pophale) SiO2 
 PCOD9502007
Probable space group: C M M A
;
_chemical_formula_sum "Si O2"
_cell_formula_units_Z 68
_cell_length_a 15.341402
_cell_length_b 19.201113
_cell_length_c 12.420467
_cell_angle_alpha 90.000000
_cell_angle_beta 90.000000
_cell_angle_gamma 90.000000
_cell_volume 3658.721723
_symmetry_space_group_name_H-M "C M M A"
_symmetry_group_IT_number 67
_symmetry_cell_setting 'orthorhombic'
loop_
_space_group_symop_operation_xyz
x,y,z
-x,1/2-y,z
x,-y,-z
-x,1/2+y,-z
-x,-y,-z
x,1/2+y,-z
-x,y,z
x,1/2-y,z
1/2+x,1/2+y,z
1/2-x,-y,z
1/2+x,1/2-y,-z
1/2-x,y,-z
1/2-x,1/2-y,-z
1/2+x,y,-z
1/2-x,1/2+y,z
1/2+x,-y,z
loop_
_atom_site_type_symbol
_atom_site_label
_atom_site_fract_x
_atom_site_fract_y
_atom_site_fract_z
Si Si1 0.601480 0.533845 0.890053
Si Si2 0.354689 0.329350 0.003253
Si Si3 0.158649 0.028440 0.333573
Si Si4 0.000000 0.500000 0.500000
Si Si5 0.397587 0.169324 0.754805
O O1 0.500000 0.513807 0.881742
O O2 0.646724 0.507721 0.783106
O O3 0.637655 0.500000 0.000000
O O4 0.610122 0.615829 0.911384
O O5 0.379650 0.250000 0.028321
O O6 0.388136 0.345198 0.882597
O O7 0.250000 0.333721 0.000000
O O8 0.155204 0.111506 0.310682
O O9 0.250000 0.000000 0.376701
O O10 0.077064 0.009361 0.407671
O O11 0.500000 0.163141 0.727021
O O12 0.370770 0.250000 0.737835
#
# Coordination Sequence:
#
# PCOD9502007 Si02
#       5
#    16  16  16   4  16
#     4  11  21  34  57  90 127 158 196 253 307 380
#     4  10  20  32  51  87 131 168 204 244 304 389
#     4  12  24  42  68  95 125 168 212 270 323 372
#     4  12  26  48  64  90 124 160 226 274 310 378
#     4  10  19  36  63  93 127 167 212 260 311 379
#
# _framework density 18.585726999999999
#
# number of rings (size 3 to 8) (size 9 to 14) (size 15 to 20)
#    0.000    1.176    4.706    2.471    0.000    1.412 
#    0.000    0.000    0.000    7.059    0.000    0.000 
#    0.000    0.000    0.000    0.000    0.000    0.000 
#
# Total GULP energy -189409.900717 kJ/mol
# GULP energy per Si atom -5570.879433 kJ/mol
# Density = 1.854342 g / cm^3
# Si number density = 18.585727 Si / 1000 Ang^3
#
#
#
# Elastic Constant Matrix: (Units=GPa)
#
#
# Indices 1 2 3 4 5 6 
#
# 1 117.6505 40.6574 37.7339 0.0000 0.0000 0.0000
# 2 40.6574 111.2980 43.4120 0.0000 0.0000 0.0000
# 3 37.7339 43.4120 100.1767 0.0000 0.0000 0.0000
# 4 0.0000 0.0000 0.0000 -4.1864 0.0000 0.0000
# 5 0.0000 0.0000 0.0000 0.0000 -15.6543 0.0000
# 6 0.0000 0.0000 0.0000 0.0000 0.0000 20.6137
#
#
#
# Elastic Compliance Matrix: (Units=1/GPa)
#
#
# Indices 1 2 3 4 5 6 
#
# 1 0.010304 -0.002708 -0.002708 0.000000 0.000000 0.000000
# 2 -0.002708 0.011524 -0.003974 0.000000 0.000000 0.000000
# 3 -0.002708 -0.003974 0.012724 0.000000 0.000000 0.000000
# 4 0.000000 0.000000 0.000000 -0.238868 0.000000 0.000000
# 5 0.000000 0.000000 0.000000 0.000000 -0.063880 0.000000
# 6 0.000000 0.000000 0.000000 0.000000 0.000000 0.048511
#
#
# Mechanical properties :
#
#
# Convention : Reuss Voigt Hill
#
# Bulk Modulus (GPa) = 63.39864 63.63688 63.51776
# Shear Modulus (GPa) = -25.55620 13.97606 -5.79007
#
# Velocity S-wave (km/s) = -3.71218 2.74520 -1.76694
# Velocity P-wave (km/s) = 3.97640 6.66049 5.48516
#
# Compressibility (1/GPa) = 0.01577321
#
# Stress axis : x y z
#
# Youngs Moduli (GPa) = 97.04965 86.77409 78.58869
#
# Poissons Ratio (x) = 0.23498 0.21280
# Poissons Ratio (y) = 0.26280 0.31232
# Poissons Ratio (z) = 0.26279 0.34485
#
# Static dielectric constant tensor:
#      x y z
#    x 1.706040 0.000000 0.000000 
#    y 0.000000 1.683290 0.000000 
#    z 0.000000 0.000000 1.610290 
# 
# From -- ./inp_files/17725.got.cif
#   From: 2010.05.17/outbox.cif.g08.bks.cpg/sg67_9_cif.got.tgz:17725.got - 2010.06.03 18:28:57.
