data_PCOD9502939
_publ_section_title
;
Structure prediction by ZEFSAII (Michael W. Deem and Ramdas Pophale) SiO2 
 PCOD9502939
Probable space group: C M M A
;
_chemical_formula_sum "Si O2"
_cell_formula_units_Z 72
_cell_length_a 8.901543
_cell_length_b 15.014737
_cell_length_c 29.675091
_cell_angle_alpha 90.000000
_cell_angle_beta 90.000000
_cell_angle_gamma 90.000000
_cell_volume 3966.204317
_symmetry_space_group_name_H-M "C M M A"
_symmetry_group_IT_number 67
_symmetry_cell_setting 'orthorhombic'
loop_
_space_group_symop_operation_xyz
x,y,z
-x,1/2-y,z
x,-y,-z
-x,1/2+y,-z
-x,-y,-z
x,1/2+y,-z
-x,y,z
x,1/2-y,z
1/2+x,1/2+y,z
1/2-x,-y,z
1/2+x,1/2-y,-z
1/2-x,y,-z
1/2-x,1/2-y,-z
1/2+x,y,-z
1/2-x,1/2+y,z
1/2+x,-y,z
loop_
_atom_site_type_symbol
_atom_site_label
_atom_site_fract_x
_atom_site_fract_y
_atom_site_fract_z
Si Si1 0.682735 0.750000 0.793548
Si Si2 0.319107 0.750000 0.549332
Si Si3 0.682953 0.250000 0.309245
Si Si4 0.671536 0.357797 0.953892
Si Si5 0.179769 0.907327 0.140429
Si Si6 0.318468 0.401114 0.379411
O O1 0.500000 0.750000 0.791856
O O2 0.736210 0.750000 0.742189
O O3 0.728350 0.665760 0.823271
O O4 0.500000 0.750000 0.546627
O O5 0.250000 0.750000 0.500000
O O6 0.276629 0.661467 0.577839
O O7 0.500000 0.250000 0.309367
O O8 0.726920 0.160956 0.336734
O O9 0.500000 0.390121 0.951492
O O10 0.668810 0.250000 0.954885
O O11 0.760508 0.385130 0.909410
O O12 0.750000 0.387905 0.000000
O O13 0.000000 0.910280 0.139108
O O14 0.250000 0.000000 0.154273
O O15 0.500000 0.408872 0.378958
O O16 0.250000 0.500000 0.379764
#
# Coordination Sequence:
#
# PCOD9502939 Si02
#       6
#     8   8   8  16  16  16
#     4   9  19  36  58  79 106 141 176 215 266 322
#     4   9  19  34  50  74 108 149 186 223 267 319
#     4   8  16  34  56  77 103 140 177 216 268 325
#     4  10  20  35  57  82 108 139 174 214 260 311
#     4  11  22  37  56  81 109 140 177 215 260 316
#     4   9  18  33  54  78 107 140 181 225 270 318
#
# _framework density 18.153376000000002
#
# number of rings (size 3 to 8) (size 9 to 14) (size 15 to 20)
#    0.000    2.444    1.111    2.667    0.000    3.556 
#    0.000    6.111    0.000    4.000    0.000    0.000 
#    0.000    0.000    0.000    0.000    0.000    0.000 
#
# Total GULP energy -200837.554144 kJ/mol
# GULP energy per Si atom -5578.820948 kJ/mol
# Density = 1.811206 g / cm^3
# Si number density = 18.153376 Si / 1000 Ang^3
#
#
#
# Elastic Constant Matrix: (Units=GPa)
#
#
# Indices 1 2 3 4 5 6 
#
# 1 55.9472 45.3236 46.1416 0.0000 0.0000 0.0000
# 2 45.3236 167.8942 103.6086 0.0000 0.0000 0.0000
# 3 46.1416 103.6086 192.3460 0.0000 0.0000 0.0000
# 4 0.0000 0.0000 0.0000 80.0380 0.0000 0.0000
# 5 0.0000 0.0000 0.0000 0.0000 19.9621 0.0000
# 6 0.0000 0.0000 0.0000 0.0000 0.0000 31.8257
#
#
#
# Elastic Compliance Matrix: (Units=1/GPa)
#
#
# Indices 1 2 3 4 5 6 
#
# 1 0.024307 -0.004439 -0.003440 0.000000 0.000000 0.000000
# 2 -0.004439 0.009732 -0.004178 0.000000 0.000000 0.000000
# 3 -0.003440 -0.004178 0.008274 0.000000 0.000000 0.000000
# 4 0.000000 0.000000 0.000000 0.012494 0.000000 0.000000
# 5 0.000000 0.000000 0.000000 0.000000 0.050095 0.000000
# 6 0.000000 0.000000 0.000000 0.000000 0.000000 0.031421
#
#
# Mechanical properties :
#
#
# Convention : Reuss Voigt Hill
#
# Bulk Modulus (GPa) = 54.94192 89.59278 72.26735
# Shear Modulus (GPa) = 30.02929 41.10608 35.56768
#
# Velocity S-wave (km/s) = 4.07160 4.76371 4.43119
# Velocity P-wave (km/s) = 7.24120 8.92847 8.12873
#
# Compressibility (1/GPa) = 0.01820104
#
# Stress axis : x y z
#
# Youngs Moduli (GPa) = 41.14020 102.74874 120.85391
#
# Poissons Ratio (x) = 0.45610 0.41573
# Poissons Ratio (y) = 0.18262 0.50488
# Poissons Ratio (z) = 0.14152 0.42924
#
# Static dielectric constant tensor:
#      x y z
#    x 1.621010 0.000000 0.000000 
#    y 0.000000 1.650340 0.000000 
#    z 0.000000 0.000000 1.607380 
# 
# From -- ./inp_files/45163.got.cif
#   From: 2010.05.17/outbox.cif.g08.bks.cpg/sg67_23_cif.got.tgz:45163.got - 2010.06.03 18:28:57.
