data_PCOD9502890
_publ_section_title
;
Structure prediction by ZEFSAII (Michael W. Deem and Ramdas Pophale) SiO2 
 PCOD9502890
Probable space group: C M M A
;
_chemical_formula_sum "Si O2"
_cell_formula_units_Z 112
_cell_length_a 26.342609
_cell_length_b 14.968607
_cell_length_c 13.825342
_cell_angle_alpha 90.000000
_cell_angle_beta 90.000000
_cell_angle_gamma 90.000000
_cell_volume 5451.500487
_symmetry_space_group_name_H-M "C M M A"
_symmetry_group_IT_number 67
_symmetry_cell_setting 'orthorhombic'
loop_
_space_group_symop_operation_xyz
x,y,z
-x,1/2-y,z
x,-y,-z
-x,1/2+y,-z
-x,-y,-z
x,1/2+y,-z
-x,y,z
x,1/2-y,z
1/2+x,1/2+y,z
1/2-x,-y,z
1/2+x,1/2-y,-z
1/2-x,y,-z
1/2-x,1/2-y,-z
1/2+x,y,-z
1/2-x,1/2+y,z
1/2+x,-y,z
loop_
_atom_site_type_symbol
_atom_site_label
_atom_site_fract_x
_atom_site_fract_y
_atom_site_fract_z
Si Si1 0.836283 0.403604 0.452163
Si Si2 0.857232 0.654187 0.361384
Si Si3 0.626024 0.991462 0.891188
Si Si4 0.795284 0.149068 0.836890
Si Si5 0.944888 0.352790 0.385070
Si Si6 0.181091 0.856352 0.770550
Si Si7 0.557575 0.465277 0.280780
O O1 0.828032 0.500000 0.500000
O O2 0.820842 0.346181 0.545073
O O3 0.895737 0.376084 0.446416
O O4 0.817623 0.388949 0.342599
O O5 0.883827 0.750000 0.356469
O O6 0.821756 0.644885 0.268218
O O7 0.900486 0.578652 0.351317
O O8 0.644439 0.080667 0.834225
O O9 0.581700 0.950814 0.824302
O O10 0.674611 0.925285 0.895691
O O11 0.607755 0.000000 0.000000
O O12 0.801922 0.250000 0.875732
O O13 0.736258 0.132864 0.818606
O O14 0.940661 0.250000 0.351700
O O15 0.944271 0.428804 0.303470
O O16 0.000000 0.361505 0.435110
O O17 0.168513 0.750000 0.769886
O O18 0.500000 0.431684 0.291919
#
# Coordination Sequence:
#
# PCOD9502890 Si02
#       7
#    16  16  16  16  16  16  16
#     4  12  21  35  56  85 122 158 198 242 289 349
#     4  10  20  36  57  83 118 156 197 242 289 346
#     4  11  23  40  63  90 117 150 197 255 312 366
#     4   9  21  41  60  84 119 158 199 247 302 358
#     4  10  20  35  56  80 112 154 196 241 290 341
#     4  11  23  40  62  87 121 161 202 248 303 364
#     4  10  21  39  60  85 118 154 195 244 299 359
#
# _framework density 20.544802000000001
#
# number of rings (size 3 to 8) (size 9 to 14) (size 15 to 20)
#    0.000    1.571    2.857    2.571    0.000    3.714 
#    0.000    4.286    0.000    0.000    0.000    4.000 
#    0.000    0.000    0.000    0.000    0.000    0.000 
#
# Total GULP energy -311974.334289 kJ/mol
# GULP energy per Si atom -5570.970255 kJ/mol
# Density = 2.049804 g / cm^3
# Si number density = 20.544802 Si / 1000 Ang^3
#
#
#
# Elastic Constant Matrix: (Units=GPa)
#
#
# Indices 1 2 3 4 5 6 
#
# 1 27.3045 5.7773 -20.1389 0.0000 0.0000 0.0000
# 2 5.7773 79.0229 -6.4877 0.0000 0.0000 0.0000
# 3 -20.1389 -6.4877 70.6478 0.0000 0.0000 0.0000
# 4 0.0000 0.0000 0.0000 13.2361 0.0000 0.0000
# 5 0.0000 0.0000 0.0000 0.0000 5.0056 0.0000
# 6 0.0000 0.0000 0.0000 0.0000 0.0000 22.4361
#
#
#
# Elastic Compliance Matrix: (Units=1/GPa)
#
#
# Indices 1 2 3 4 5 6 
#
# 1 0.046801 -0.002344 0.013126 0.000000 0.000000 0.000000
# 2 -0.002344 0.012868 0.000514 0.000000 0.000000 0.000000
# 3 0.013126 0.000514 0.017944 0.000000 0.000000 0.000000
# 4 0.000000 0.000000 0.000000 0.075551 0.000000 0.000000
# 5 0.000000 0.000000 0.000000 0.000000 0.199775 0.000000
# 6 0.000000 0.000000 0.000000 0.000000 0.000000 0.044571
#
#
# Mechanical properties :
#
#
# Convention : Reuss Voigt Hill
#
# Bulk Modulus (GPa) = 9.97968 15.03074 12.50521
# Shear Modulus (GPa) = 12.24531 21.32387 16.78459
#
# Velocity S-wave (km/s) = 2.44402 3.22517 2.86138
# Velocity P-wave (km/s) = 3.58223 4.60445 4.12513
#
# Compressibility (1/GPa) = 0.10020366
#
# Stress axis : x y z
#
# Youngs Moduli (GPa) = 21.36702 77.71167 55.73031
#
# Poissons Ratio (x) = 0.18215 -0.73151
# Poissons Ratio (y) = 0.05008 -0.02862
# Poissons Ratio (z) = -0.28046 -0.03991
#
# Static dielectric constant tensor:
#      x y z
#    x 1.772050 0.000000 0.000000 
#    y 0.000000 2.787310 0.000000 
#    z 0.000000 0.000000 1.756260 
# 
# From -- ./inp_files/30820.got.cif
#   From: 2010.05.17/outbox.cif.g08.bks.cpg/sg67_16_cif.got.tgz:30820.got - 2010.06.03 18:28:57.
