data_PCOD9502143
_publ_section_title
;
Structure prediction by ZEFSAII (Michael W. Deem and Ramdas Pophale) SiO2 
 PCOD9502143
Probable space group: C M M A
;
_chemical_formula_sum "Si O2"
_cell_formula_units_Z 88
_cell_length_a 30.370705
_cell_length_b 9.047366
_cell_length_c 17.489879
_cell_angle_alpha 90.000000
_cell_angle_beta 90.000000
_cell_angle_gamma 90.000000
_cell_volume 4805.779470
_symmetry_space_group_name_H-M "C M M A"
_symmetry_group_IT_number 67
_symmetry_cell_setting 'orthorhombic'
loop_
_space_group_symop_operation_xyz
x,y,z
-x,1/2-y,z
x,-y,-z
-x,1/2+y,-z
-x,-y,-z
x,1/2+y,-z
-x,y,z
x,1/2-y,z
1/2+x,1/2+y,z
1/2-x,-y,z
1/2+x,1/2-y,-z
1/2-x,y,-z
1/2-x,1/2-y,-z
1/2+x,y,-z
1/2-x,1/2+y,z
1/2+x,-y,z
loop_
_atom_site_type_symbol
_atom_site_label
_atom_site_fract_x
_atom_site_fract_y
_atom_site_fract_z
Si Si1 0.796975 0.570346 0.584278
Si Si2 0.790257 0.913790 0.174641
Si Si3 0.925743 0.418696 0.190495
Si Si4 0.348262 0.412787 0.930956
Si Si5 0.634728 0.580490 0.696969
Si Si6 0.500000 0.429019 0.086366
O O1 0.802977 0.500000 0.500000
O O2 0.794068 0.750000 0.582812
O O3 0.750000 0.500000 0.610974
O O4 0.838206 0.515171 0.635073
O O5 0.775926 0.750000 0.155525
O O6 0.830446 0.907836 0.233389
O O7 0.750000 0.000000 0.210757
O O8 0.806730 0.999138 0.100288
O O9 0.941676 0.250000 0.205271
O O10 0.882694 0.403773 0.137495
O O11 0.908356 0.501433 0.266854
O O12 0.959215 0.512272 0.138045
O O13 0.336226 0.250000 0.956622
O O14 0.369889 0.500000 0.000000
O O15 0.625848 0.750000 0.671382
O O16 0.500000 0.250000 0.079709
O O17 0.500000 0.500000 0.000000
#
# Coordination Sequence:
#
# PCOD9502143 Si02
#       6
#    16  16  16  16  16   8
#     4  11  21  34  53  80 114 151 190 232 276 323
#     4  10  20  32  47  66  91 124 165 208 251 299
#     4  10  21  37  56  79 105 136 173 215 266 326
#     4  10  20  33  49  67  91 122 160 205 254 305
#     4  10  20  35  54  77 106 140 176 217 265 321
#     4  12  24  38  58  84 113 144 179 226 280 336
#
# _framework density 18.311285000000002
#
# number of rings (size 3 to 8) (size 9 to 14) (size 15 to 20)
#    0.000    1.636    0.000    6.273    0.000    7.636 
#    0.000    1.818    0.000    0.000    0.000    0.636 
#    0.000    0.000    0.000    0.000    0.000    0.000 
#
# Total GULP energy -245234.184140 kJ/mol
# GULP energy per Si atom -5573.504185 kJ/mol
# Density = 1.826961 g / cm^3
# Si number density = 18.311285 Si / 1000 Ang^3
#
#
#
# Elastic Constant Matrix: (Units=GPa)
#
#
# Indices 1 2 3 4 5 6 
#
# 1 67.3486 51.2778 30.3893 0.0000 0.0000 0.0000
# 2 51.2778 200.3491 53.4089 0.0000 0.0000 0.0000
# 3 30.3893 53.4089 72.6394 0.0000 0.0000 0.0000
# 4 0.0000 0.0000 0.0000 8.3188 0.0000 0.0000
# 5 0.0000 0.0000 0.0000 0.0000 30.6015 0.0000
# 6 0.0000 0.0000 0.0000 0.0000 0.0000 -39.7304
#
#
#
# Elastic Compliance Matrix: (Units=1/GPa)
#
#
# Indices 1 2 3 4 5 6 
#
# 1 0.020227 -0.003633 -0.005791 0.000000 0.000000 0.000000
# 2 -0.003633 0.006861 -0.003524 0.000000 0.000000 0.000000
# 3 -0.005791 -0.003524 0.018781 0.000000 0.000000 0.000000
# 4 0.000000 0.000000 0.000000 0.120209 0.000000 0.000000
# 5 0.000000 0.000000 0.000000 0.000000 0.032678 0.000000
# 6 0.000000 0.000000 0.000000 0.000000 0.000000 -0.025170
#
#
# Mechanical properties :
#
#
# Convention : Reuss Voigt Hill
#
# Bulk Modulus (GPa) = 50.07105 67.83212 58.95158
# Shear Modulus (GPa) = 24.25526 13.52204 18.88865
#
# Velocity S-wave (km/s) = 3.64346 2.72040 3.21523
# Velocity P-wave (km/s) = 6.71591 6.85505 6.78584
#
# Compressibility (1/GPa) = 0.01997162
#
# Stress axis : x y z
#
# Youngs Moduli (GPa) = 49.43775 145.75677 53.24625
#
# Poissons Ratio (x) = 0.52958 0.30834
# Poissons Ratio (y) = 0.17962 0.18766
# Poissons Ratio (z) = 0.28629 0.51371
#
# Static dielectric constant tensor:
#      x y z
#    x 1.659260 0.000000 0.000000 
#    y 0.000000 1.673580 0.000000 
#    z 0.000000 0.000000 1.643460 
# 
# From -- ./inp_files/36198.got.cif
#   From: 2010.05.17/outbox.cif.g08.bks.cpg/sg67_19_cif.got.tgz:36198.got - 2010.06.03 18:28:57.
