data_PCOD9502508
_publ_section_title
;
Structure prediction by ZEFSAII (Michael W. Deem and Ramdas Pophale) SiO2 
 PCOD9502508
Probable space group: C M M A
;
_chemical_formula_sum "Si O2"
_cell_formula_units_Z 96
_cell_length_a 9.327091
_cell_length_b 19.472066
_cell_length_c 31.860510
_cell_angle_alpha 90.000000
_cell_angle_beta 90.000000
_cell_angle_gamma 90.000000
_cell_volume 5786.433552
_symmetry_space_group_name_H-M "C M M A"
_symmetry_group_IT_number 67
_symmetry_cell_setting 'orthorhombic'
loop_
_space_group_symop_operation_xyz
x,y,z
-x,1/2-y,z
x,-y,-z
-x,1/2+y,-z
-x,-y,-z
x,1/2+y,-z
-x,y,z
x,1/2-y,z
1/2+x,1/2+y,z
1/2-x,-y,z
1/2+x,1/2-y,-z
1/2-x,y,-z
1/2-x,1/2-y,-z
1/2+x,y,-z
1/2-x,1/2+y,z
1/2+x,-y,z
loop_
_atom_site_type_symbol
_atom_site_label
_atom_site_fract_x
_atom_site_fract_y
_atom_site_fract_z
Si Si1 0.328045 0.331975 0.634729
Si Si2 0.670869 0.928222 0.797705
Si Si3 0.828905 0.830992 0.125667
Si Si4 0.171828 0.573181 0.298673
Si Si5 0.665283 0.666284 0.041482
Si Si6 0.165524 0.833544 0.540731
O O1 0.500000 0.343843 0.638608
O O2 0.305700 0.250000 0.638769
O O3 0.240172 0.373260 0.669151
O O4 0.283639 0.353447 0.587309
O O5 0.500000 0.939088 0.800745
O O6 0.711928 0.873512 0.833098
O O7 0.699819 0.905488 0.749798
O O8 0.750000 0.000000 0.804708
O O9 0.800838 0.750000 0.132024
O O10 0.744411 0.854424 0.084275
O O11 0.000000 0.838540 0.118638
O O12 0.250000 0.500000 0.304660
O O13 0.000000 0.566843 0.304224
O O14 0.500000 0.644427 0.040654
O O15 0.666942 0.750000 0.040994
O O16 0.750000 0.643424 0.000000
O O17 0.170343 0.750000 0.540400
O O18 0.250000 0.858369 0.500000
O O19 0.000000 0.853567 0.536925
#
# Coordination Sequence:
#
# PCOD9502508 Si02
#       6
#    16  16  16  16  16  16
#     4   9  18  32  49  72 102 131 159 197 244 287
#     4   9  19  34  51  70  93 124 159 195 236 283
#     4   9  17  30  48  70  96 124 154 191 234 275
#     4  10  20  34  52  72  95 127 166 203 241 290
#     4   9  16  26  42  66  95 125 156 189 227 273
#     4   8  14  25  42  65  94 126 157 190 231 280
#
# _framework density 16.590530000000001
#
# number of rings (size 3 to 8) (size 9 to 14) (size 15 to 20)
#    0.000    3.000    0.000    2.000    0.000    5.000 
#    0.000    3.333    0.000    3.000    0.000    7.000 
#    0.000    0.000    0.000    0.000    0.000    0.000 
#
# Total GULP energy -267367.762565 kJ/mol
# GULP energy per Si atom -5570.161720 kJ/mol
# Density = 1.655277 g / cm^3
# Si number density = 16.590530 Si / 1000 Ang^3
#
#
#
# Elastic Constant Matrix: (Units=GPa)
#
#
# Indices 1 2 3 4 5 6 
#
# 1 72.1597 41.6829 92.8320 0.0000 0.0000 0.0000
# 2 41.6829 38.3813 72.6586 0.0000 0.0000 0.0000
# 3 92.8320 72.6586 192.2202 0.0000 0.0000 0.0000
# 4 0.0000 0.0000 0.0000 -10.8823 0.0000 0.0000
# 5 0.0000 0.0000 0.0000 0.0000 33.1863 0.0000
# 6 0.0000 0.0000 0.0000 0.0000 0.0000 20.9674
#
#
#
# Elastic Compliance Matrix: (Units=1/GPa)
#
#
# Indices 1 2 3 4 5 6 
#
# 1 0.042835 -0.025868 -0.010909 0.000000 0.000000 0.000000
# 2 -0.025868 0.107226 -0.028038 0.000000 0.000000 0.000000
# 3 -0.010909 -0.028038 0.021069 0.000000 0.000000 0.000000
# 4 0.000000 0.000000 0.000000 -0.091893 0.000000 0.000000
# 5 0.000000 0.000000 0.000000 0.000000 0.030133 0.000000
# 6 0.000000 0.000000 0.000000 0.000000 0.000000 0.047693
#
#
# Mechanical properties :
#
#
# Convention : Reuss Voigt Hill
#
# Bulk Modulus (GPa) = 24.09677 79.67870 51.88774
# Shear Modulus (GPa) = 16.63747 15.02680 15.83214
#
# Velocity S-wave (km/s) = 3.17018 3.01283 3.09251
# Velocity P-wave (km/s) = 5.28735 7.76104 6.64040
#
# Compressibility (1/GPa) = 0.04149934
#
# Stress axis : x y z
#
# Youngs Moduli (GPa) = 23.34543 9.32612 47.46319
#
# Poissons Ratio (x) = 0.24125 0.51777
# Poissons Ratio (y) = 0.60391 1.33077
# Poissons Ratio (z) = 0.25467 0.26148
#
# Static dielectric constant tensor:
#      x y z
#    x 1.553970 0.000000 0.000000 
#    y 0.000000 1.530890 0.000000 
#    z 0.000000 0.000000 1.563740 
# 
# From -- ./inp_files/43443.got.cif
#   From: 2010.05.17/outbox.cif.g08.bks.cpg/sg67_22_cif.got.tgz:43443.got - 2010.06.03 18:28:57.
