data_PCOD9502158
_publ_section_title
;
Structure prediction by ZEFSAII (Michael W. Deem and Ramdas Pophale) SiO2 
 PCOD9502158
Probable space group: C M M A
;
_chemical_formula_sum "Si O2"
_cell_formula_units_Z 88
_cell_length_a 27.022233
_cell_length_b 13.677698
_cell_length_c 12.339567
_cell_angle_alpha 90.000000
_cell_angle_beta 90.000000
_cell_angle_gamma 90.000000
_cell_volume 4560.727930
_symmetry_space_group_name_H-M "C M M A"
_symmetry_group_IT_number 67
_symmetry_cell_setting 'orthorhombic'
loop_
_space_group_symop_operation_xyz
x,y,z
-x,1/2-y,z
x,-y,-z
-x,1/2+y,-z
-x,-y,-z
x,1/2+y,-z
-x,y,z
x,1/2-y,z
1/2+x,1/2+y,z
1/2-x,-y,z
1/2+x,1/2-y,-z
1/2-x,y,-z
1/2-x,1/2-y,-z
1/2+x,y,-z
1/2-x,1/2+y,z
1/2+x,-y,z
loop_
_atom_site_type_symbol
_atom_site_label
_atom_site_fract_x
_atom_site_fract_y
_atom_site_fract_z
Si Si1 0.000000 0.862962 0.637750
Si Si2 0.391524 0.868576 0.103595
Si Si3 0.711686 0.366699 0.594224
Si Si4 0.000000 0.362527 0.098326
Si Si5 0.302729 0.638476 0.938508
Si Si6 0.393265 0.369306 0.645737
Si Si7 0.250000 0.500000 0.781619
O O1 0.000000 0.861136 0.769748
O O2 0.946830 0.906703 0.607520
O O3 0.000000 0.750000 0.600221
O O4 0.394131 0.750000 0.108876
O O5 0.446228 0.903685 0.067354
O O6 0.384264 0.899865 0.228776
O O7 0.347039 0.887458 0.020604
O O8 0.713497 0.250000 0.607908
O O9 0.750000 0.392288 0.500000
O O10 0.654582 0.394782 0.575338
O O11 0.727767 0.417447 0.704526
O O12 0.000000 0.250000 0.060254
O O13 0.311735 0.750000 0.896821
O O14 0.291995 0.555064 0.850926
O O15 0.250000 0.642164 0.000000
O O16 0.396604 0.250000 0.647100
#
# Coordination Sequence:
#
# PCOD9502158 Si02
#       7
#     8  16  16   8  16  16   8
#     4   7  10  18  38  69  97 123 156 193 237 286
#     4   8  13  23  41  67  99 132 164 197 233 279
#     4  10  21  36  53  73  96 123 159 207 260 305
#     4   7  10  18  36  63  94 129 165 195 227 272
#     4  10  20  32  47  71 102 134 167 200 236 281
#     4   8  13  24  44  70 100 128 157 198 243 288
#     4  12  22  34  50  70  96 132 170 206 246 296
#
# _framework density 19.295165999999998
#
# number of rings (size 3 to 8) (size 9 to 14) (size 15 to 20)
#    0.000    3.091    0.000    4.364    0.000    2.909 
#    0.000    0.000    0.000    1.091    0.000   10.182 
#    0.000    7.273    0.000    0.000    0.000    0.000 
#
# Total GULP energy -245003.110161 kJ/mol
# GULP energy per Si atom -5568.252504 kJ/mol
# Density = 1.925125 g / cm^3
# Si number density = 19.295166 Si / 1000 Ang^3
#
#
#
# Elastic Constant Matrix: (Units=GPa)
#
#
# Indices 1 2 3 4 5 6 
#
# 1 219.9987 23.2913 60.2779 0.0000 0.0000 0.0000
# 2 23.2913 67.6773 28.7822 0.0000 0.0000 0.0000
# 3 60.2779 28.7822 54.4088 0.0000 0.0000 0.0000
# 4 0.0000 0.0000 0.0000 26.4421 0.0000 0.0000
# 5 0.0000 0.0000 0.0000 0.0000 26.7702 0.0000
# 6 0.0000 0.0000 0.0000 0.0000 0.0000 -14.1982
#
#
#
# Elastic Compliance Matrix: (Units=1/GPa)
#
#
# Indices 1 2 3 4 5 6 
#
# 1 0.006587 0.001079 -0.007869 0.000000 0.000000 0.000000
# 2 0.001079 0.019242 -0.011375 0.000000 0.000000 0.000000
# 3 -0.007869 -0.011375 0.033114 0.000000 0.000000 0.000000
# 4 0.000000 0.000000 0.000000 0.037818 0.000000 0.000000
# 5 0.000000 0.000000 0.000000 0.000000 0.037355 0.000000
# 6 0.000000 0.000000 0.000000 0.000000 0.000000 -0.070431
#
#
# Mechanical properties :
#
#
# Convention : Reuss Voigt Hill
#
# Bulk Modulus (GPa) = 44.21834 62.97638 53.59736
# Shear Modulus (GPa) = 46.48880 23.11838 34.80359
#
# Velocity S-wave (km/s) = 4.91384 3.46518 4.25166
# Velocity P-wave (km/s) = 7.42704 6.97991 7.20695
#
# Compressibility (1/GPa) = 0.02261505
#
# Stress axis : x y z
#
# Youngs Moduli (GPa) = 151.81001 51.96930 30.19837
#
# Poissons Ratio (x) = -0.05610 0.23762
# Poissons Ratio (y) = -0.16388 0.34351
# Poissons Ratio (z) = 1.19456 0.59115
#
# Static dielectric constant tensor:
#      x y z
#    x 1.754750 0.000000 0.000000 
#    y 0.000000 1.686060 0.000000 
#    z 0.000000 0.000000 1.663650 
# 
# From -- ./inp_files/22847.got.cif
#   From: 2010.05.17/outbox.cif.g08.bks.cpg/sg67_12_cif.got.tgz:22847.got - 2010.06.03 18:28:57.
