data_PCOD9502500
_publ_section_title
;
Structure prediction by ZEFSAII (Michael W. Deem and Ramdas Pophale) SiO2 
 PCOD9502500
Probable space group: C M M A
;
_chemical_formula_sum "Si O2"
_cell_formula_units_Z 80
_cell_length_a 14.401380
_cell_length_b 9.645844
_cell_length_c 26.729380
_cell_angle_alpha 90.000000
_cell_angle_beta 90.000000
_cell_angle_gamma 90.000000
_cell_volume 3713.070789
_symmetry_space_group_name_H-M "C M M A"
_symmetry_group_IT_number 67
_symmetry_cell_setting 'orthorhombic'
loop_
_space_group_symop_operation_xyz
x,y,z
-x,1/2-y,z
x,-y,-z
-x,1/2+y,-z
-x,-y,-z
x,1/2+y,-z
-x,y,z
x,1/2-y,z
1/2+x,1/2+y,z
1/2-x,-y,z
1/2+x,1/2-y,-z
1/2-x,y,-z
1/2-x,1/2-y,-z
1/2+x,y,-z
1/2-x,1/2+y,z
1/2+x,-y,z
loop_
_atom_site_type_symbol
_atom_site_label
_atom_site_fract_x
_atom_site_fract_y
_atom_site_fract_z
Si Si1 0.886813 0.590379 0.046761
Si Si2 0.652756 0.417265 0.453978
Si Si3 0.886266 0.906188 0.748342
Si Si4 0.886895 0.590449 0.157892
Si Si5 0.391631 0.402159 0.339738
O O1 0.857627 0.750000 0.041455
O O2 0.859562 0.540980 0.102319
O O3 0.000000 0.589627 0.046099
O O4 0.855686 0.500000 0.000000
O O5 0.605731 0.500000 0.500000
O O6 0.659754 0.250000 0.463789
O O7 0.750000 0.500000 0.449721
O O8 0.611566 0.432743 0.398710
O O9 0.852096 0.750000 0.751197
O O10 0.000000 0.901007 0.748645
O O11 0.857778 0.994882 0.796438
O O12 0.855689 0.980865 0.697276
O O13 0.856912 0.750000 0.164331
O O14 0.000000 0.592245 0.158569
O O15 0.500000 0.390220 0.326536
O O16 0.348035 0.250000 0.331975
#
# Coordination Sequence:
#
# PCOD9502500 Si02
#       5
#    16  16  16  16  16
#     4   8  13  19  26  37  54  80 117 160 203 244
#     4  10  20  34  52  71  92 119 148 178 213 255
#     4   9  16  24  36  56  78 100 130 170 213 252
#     4   8  13  21  31  42  61  92 126 160 203 254
#     4   9  18  32  48  66  89 117 147 178 215 259
#
# _framework density 21.54551
#
# number of rings (size 3 to 8) (size 9 to 14) (size 15 to 20)
#    0.000    3.200    0.000    3.000    0.000    5.200 
#    0.000    4.000    0.000    0.000    0.000    0.000 
#    0.000    0.000    0.000    0.000    0.000    1.000 
#
# Total GULP energy -223029.977128 kJ/mol
# GULP energy per Si atom -5575.749428 kJ/mol
# Density = 2.149647 g / cm^3
# Si number density = 21.545510 Si / 1000 Ang^3
#
#
#
# Elastic Constant Matrix: (Units=GPa)
#
#
# Indices 1 2 3 4 5 6 
#
# 1 54.2937 10.7273 -2.8247 0.0000 0.0000 0.0000
# 2 10.7273 157.8683 137.3470 0.0000 0.0000 0.0000
# 3 -2.8247 137.3470 209.3146 0.0000 0.0000 0.0000
# 4 0.0000 0.0000 0.0000 40.5189 0.0000 0.0000
# 5 0.0000 0.0000 0.0000 0.0000 -500.4753 0.0000
# 6 0.0000 0.0000 0.0000 0.0000 0.0000 0.1069
#
#
#
# Elastic Compliance Matrix: (Units=1/GPa)
#
#
# Indices 1 2 3 4 5 6 
#
# 1 0.019261 -0.003577 0.002607 0.000000 0.000000 0.000000
# 2 -0.003577 0.015426 -0.010170 0.000000 0.000000 0.000000
# 3 0.002607 -0.010170 0.011486 0.000000 0.000000 0.000000
# 4 0.000000 0.000000 0.000000 0.024680 0.000000 0.000000
# 5 0.000000 0.000000 0.000000 0.000000 -0.001998 0.000000
# 6 0.000000 0.000000 0.000000 0.000000 0.000000 9.353465
#
#
# Mechanical properties :
#
#
# Convention : Reuss Voigt Hill
#
# Bulk Modulus (GPa) = 41.85458 79.10841 60.48150
# Shear Modulus (GPa) = 0.52896 -73.55477 -36.51291
#
# Velocity S-wave (km/s) = 0.49602 -5.84922 -4.12112
# Velocity P-wave (km/s) = 4.44931 2.97006 2.34255
#
# Compressibility (1/GPa) = 0.02389225
#
# Stress axis : x y z
#
# Youngs Moduli (GPa) = 51.91924 64.82742 87.06200
#
# Poissons Ratio (x) = 0.23188 -0.22697
# Poissons Ratio (y) = 0.18571 0.88543
# Poissons Ratio (z) = -0.13535 0.65930
#
# Static dielectric constant tensor:
#      x y z
#    x 1.891300 0.000000 0.000000 
#    y 0.000000 1.752850 0.000000 
#    z 0.000000 0.000000 1.785430 
# 
# From -- ./inp_files/44446.got.cif
#   From: 2010.05.17/outbox.cif.g08.bks.cpg/sg67_23_cif.got.tgz:44446.got - 2010.06.03 18:28:57.
