data_PCOD9502662
_publ_section_title
;
Structure prediction by ZEFSAII (Michael W. Deem and Ramdas Pophale) SiO2 
 PCOD9502662
Probable space group: C M M A
;
_chemical_formula_sum "Si O2"
_cell_formula_units_Z 80
_cell_length_a 18.392834
_cell_length_b 8.931038
_cell_length_c 26.387268
_cell_angle_alpha 90.000000
_cell_angle_beta 90.000000
_cell_angle_gamma 90.000000
_cell_volume 4334.559975
_symmetry_space_group_name_H-M "C M M A"
_symmetry_group_IT_number 67
_symmetry_cell_setting 'orthorhombic'
loop_
_space_group_symop_operation_xyz
x,y,z
-x,1/2-y,z
x,-y,-z
-x,1/2+y,-z
-x,-y,-z
x,1/2+y,-z
-x,y,z
x,1/2-y,z
1/2+x,1/2+y,z
1/2-x,-y,z
1/2+x,1/2-y,-z
1/2-x,y,-z
1/2-x,1/2-y,-z
1/2+x,y,-z
1/2-x,1/2+y,z
1/2+x,-y,z
loop_
_atom_site_type_symbol
_atom_site_label
_atom_site_fract_x
_atom_site_fract_y
_atom_site_fract_z
Si Si1 0.329765 0.071006 0.446899
Si Si2 0.911412 0.577424 0.948051
Si Si3 0.913344 0.072158 0.842413
Si Si4 0.085950 0.927613 0.644826
Si Si5 0.170472 0.429137 0.251590
O O1 0.324250 0.250000 0.451106
O O2 0.355896 0.000000 0.500000
O O3 0.250000 0.000000 0.437758
O O4 0.380806 0.022009 0.400945
O O5 0.888584 0.750000 0.946032
O O6 0.889841 0.491226 0.897104
O O7 0.000000 0.574998 0.949060
O O8 0.886549 0.500000 0.000000
O O9 0.902012 0.250000 0.840703
O O10 0.000000 0.043446 0.837094
O O11 0.871087 0.993175 0.797092
O O12 0.098039 0.750000 0.634829
O O13 0.125815 0.965170 0.697381
O O14 0.000000 0.952005 0.649737
O O15 0.175654 0.250000 0.247633
O O16 0.250000 0.500000 0.254890
#
# Coordination Sequence:
#
# PCOD9502662 Si02
#       5
#    16  16  16  16  16
#     4  11  22  38  61  87 117 153 192 232 276 328
#     4   9  16  27  46  74 108 144 182 225 274 327
#     4  10  20  34  54  81 112 145 184 231 279 328
#     4  10  22  40  61  86 116 148 185 231 281 332
#     4  11  23  39  59  82 110 146 186 229 279 334
#
# _framework density 18.456313999999999
#
# number of rings (size 3 to 8) (size 9 to 14) (size 15 to 20)
#    0.000    1.800    0.000    5.400    0.000    8.400 
#    0.000    0.000    0.000    0.600    0.000    4.200 
#    0.000    0.000    0.000    0.000    0.000    0.000 
#
# Total GULP energy -223505.421429 kJ/mol
# GULP energy per Si atom -5587.635536 kJ/mol
# Density = 1.841431 g / cm^3
# Si number density = 18.456314 Si / 1000 Ang^3
#
#
#
# Elastic Constant Matrix: (Units=GPa)
#
#
# Indices 1 2 3 4 5 6 
#
# 1 67.6256 70.8220 83.1765 0.0000 0.0000 0.0000
# 2 70.8220 130.7104 106.8346 0.0000 0.0000 0.0000
# 3 83.1765 106.8346 189.8894 0.0000 0.0000 0.0000
# 4 0.0000 0.0000 0.0000 35.8586 0.0000 0.0000
# 5 0.0000 0.0000 0.0000 0.0000 134.9356 0.0000
# 6 0.0000 0.0000 0.0000 0.0000 0.0000 23.5571
#
#
#
# Elastic Compliance Matrix: (Units=1/GPa)
#
#
# Indices 1 2 3 4 5 6 
#
# 1 0.043447 -0.014785 -0.010713 0.000000 0.000000 0.000000
# 2 -0.014785 0.019195 -0.004323 0.000000 0.000000 0.000000
# 3 -0.010713 -0.004323 0.012391 0.000000 0.000000 0.000000
# 4 0.000000 0.000000 0.000000 0.027887 0.000000 0.000000
# 5 0.000000 0.000000 0.000000 0.000000 0.007411 0.000000
# 6 0.000000 0.000000 0.000000 0.000000 0.000000 0.042450
#
#
# Mechanical properties :
#
#
# Convention : Reuss Voigt Hill
#
# Bulk Modulus (GPa) = 64.97119 101.09907 83.03513
# Shear Modulus (GPa) = 22.98292 47.36310 35.17301
#
# Velocity S-wave (km/s) = 3.53265 5.07129 4.37022
# Velocity P-wave (km/s) = 7.20546 9.44389 8.39957
#
# Compressibility (1/GPa) = 0.01539144
#
# Stress axis : x y z
#
# Youngs Moduli (GPa) = 23.01647 52.09798 80.70343
#
# Poissons Ratio (x) = 0.77025 0.86457
# Poissons Ratio (y) = 0.34029 0.34889
# Poissons Ratio (z) = 0.24657 0.22523
#
# Static dielectric constant tensor:
#      x y z
#    x 1.616660 0.000000 0.000000 
#    y 0.000000 1.616790 0.000000 
#    z 0.000000 0.000000 1.611880 
# 
# From -- ./inp_files/43225.got.cif
#   From: 2010.05.17/outbox.cif.g08.bks.cpg/sg67_22_cif.got.tgz:43225.got - 2010.06.03 18:28:57.
