data_PCOD9502676
_publ_section_title
;
Structure prediction by ZEFSAII (Michael W. Deem and Ramdas Pophale) SiO2 
 PCOD9502676
Probable space group: C M M A
;
_chemical_formula_sum "Si O2"
_cell_formula_units_Z 112
_cell_length_a 17.354799
_cell_length_b 24.312973
_cell_length_c 15.237334
_cell_angle_alpha 90.000000
_cell_angle_beta 90.000000
_cell_angle_gamma 90.000000
_cell_volume 6429.343705
_symmetry_space_group_name_H-M "C M M A"
_symmetry_group_IT_number 67
_symmetry_cell_setting 'orthorhombic'
loop_
_space_group_symop_operation_xyz
x,y,z
-x,1/2-y,z
x,-y,-z
-x,1/2+y,-z
-x,-y,-z
x,1/2+y,-z
-x,y,z
x,1/2-y,z
1/2+x,1/2+y,z
1/2-x,-y,z
1/2+x,1/2-y,-z
1/2-x,y,-z
1/2-x,1/2-y,-z
1/2+x,y,-z
1/2-x,1/2+y,z
1/2+x,-y,z
loop_
_atom_site_type_symbol
_atom_site_label
_atom_site_fract_x
_atom_site_fract_y
_atom_site_fract_z
Si Si1 0.839427 0.088760 0.472066
Si Si2 0.338044 0.519358 0.292531
Si Si3 0.695986 0.312724 0.272336
Si Si4 0.714150 0.315009 0.905180
Si Si5 0.410754 0.089610 0.342165
Si Si6 0.365425 0.187485 0.643849
Si Si7 0.588536 0.619427 0.190197
O O1 0.750000 0.092155 0.500000
O O2 0.844073 0.047851 0.389023
O O3 0.886814 0.074376 0.558339
O O4 0.871077 0.147161 0.438056
O O5 0.250000 0.500000 0.279895
O O6 0.389605 0.465033 0.288367
O O7 0.367609 0.565130 0.224781
O O8 0.665583 0.250000 0.276144
O O9 0.724228 0.324833 0.173051
O O10 0.640065 0.359090 0.309377
O O11 0.775229 0.313865 0.328098
O O12 0.694039 0.250000 0.899263
O O13 0.639649 0.351446 0.884007
O O14 0.750000 0.325753 0.000000
O O15 0.500000 0.102750 0.336531
O O16 0.388323 0.250000 0.627425
O O17 0.408831 0.161196 0.726644
O O18 0.500000 0.608685 0.166758
#
# Coordination Sequence:
#
# PCOD9502676 Si02
#       7
#    16  16  16  16  16  16  16
#     4  11  20  33  51  76 103 140 188 234 271 317
#     4  11  21  36  58  76 102 144 191 230 274 333
#     4   9  18  36  57  77 103 139 179 219 267 331
#     4   9  18  35  61  89 113 142 181 216 258 329
#     4  12  24  35  51  77 107 142 183 232 279 320
#     4   9  18  32  53  74 101 145 187 219 264 327
#     4  10  20  34  54  84 117 142 175 229 285 327
#
# _framework density 17.42013
#
# number of rings (size 3 to 8) (size 9 to 14) (size 15 to 20)
#    0.000    1.857    2.857    3.857    0.000    5.714 
#    0.000    0.714    0.000    6.429    0.000    5.000 
#    0.000    0.000    0.000    0.000    0.000    0.000 
#
# Total GULP energy -312542.120260 kJ/mol
# GULP energy per Si atom -5581.109290 kJ/mol
# Density = 1.738048 g / cm^3
# Si number density = 17.420130 Si / 1000 Ang^3
#
#
#
# Elastic Constant Matrix: (Units=GPa)
#
#
# Indices 1 2 3 4 5 6 
#
# 1 101.1128 49.2726 35.9902 0.0000 0.0000 0.0000
# 2 49.2726 103.9038 31.4635 0.0000 0.0000 0.0000
# 3 35.9902 31.4635 61.6321 0.0000 0.0000 0.0000
# 4 0.0000 0.0000 0.0000 22.6275 0.0000 0.0000
# 5 0.0000 0.0000 0.0000 0.0000 10.9830 0.0000
# 6 0.0000 0.0000 0.0000 0.0000 0.0000 2.3080
#
#
#
# Elastic Compliance Matrix: (Units=1/GPa)
#
#
# Indices 1 2 3 4 5 6 
#
# 1 0.014445 -0.005081 -0.005841 0.000000 0.000000 0.000000
# 2 -0.005081 0.013172 -0.003757 0.000000 0.000000 0.000000
# 3 -0.005841 -0.003757 0.021554 0.000000 0.000000 0.000000
# 4 0.000000 0.000000 0.000000 0.044194 0.000000 0.000000
# 5 0.000000 0.000000 0.000000 0.000000 0.091050 0.000000
# 6 0.000000 0.000000 0.000000 0.000000 0.000000 0.433274
#
#
# Mechanical properties :
#
#
# Convention : Reuss Voigt Hill
#
# Bulk Modulus (GPa) = 50.47433 55.56680 53.02056
# Shear Modulus (GPa) = 7.64933 17.17852 12.41392
#
# Velocity S-wave (km/s) = 2.09776 3.14368 2.67239
# Velocity P-wave (km/s) = 5.90805 6.71895 6.32651
#
# Compressibility (1/GPa) = 0.01981205
#
# Stress axis : x y z
#
# Youngs Moduli (GPa) = 69.22705 75.92122 46.39451
#
# Poissons Ratio (x) = 0.38578 0.27100
# Poissons Ratio (y) = 0.35176 0.17430
# Poissons Ratio (z) = 0.40437 0.28523
#
# Static dielectric constant tensor:
#      x y z
#    x 1.580960 0.000000 0.000000 
#    y 0.000000 1.609730 0.000000 
#    z 0.000000 0.000000 1.575480 
# 
# From -- ./inp_files/27699.got.cif
#   From: 2010.05.17/outbox.cif.g08.bks.cpg/sg67_14_cif.got.tgz:27699.got - 2010.06.03 18:28:57.
