data_PCOD9502156
_publ_section_title
;
Structure prediction by ZEFSAII (Michael W. Deem and Ramdas Pophale) SiO2 
 PCOD9502156
Probable space group: C M M A
;
_chemical_formula_sum "Si O2"
_cell_formula_units_Z 96
_cell_length_a 9.165033
_cell_length_b 19.447276
_cell_length_c 32.085047
_cell_angle_alpha 90.000000
_cell_angle_beta 90.000000
_cell_angle_gamma 90.000000
_cell_volume 5718.675987
_symmetry_space_group_name_H-M "C M M A"
_symmetry_group_IT_number 67
_symmetry_cell_setting 'orthorhombic'
loop_
_space_group_symop_operation_xyz
x,y,z
-x,1/2-y,z
x,-y,-z
-x,1/2+y,-z
-x,-y,-z
x,1/2+y,-z
-x,y,z
x,1/2-y,z
1/2+x,1/2+y,z
1/2-x,-y,z
1/2+x,1/2-y,-z
1/2-x,y,-z
1/2-x,1/2-y,-z
1/2+x,y,-z
1/2-x,1/2+y,z
1/2+x,-y,z
loop_
_atom_site_type_symbol
_atom_site_label
_atom_site_fract_x
_atom_site_fract_y
_atom_site_fract_z
Si Si1 0.825238 0.073138 0.618669
Si Si2 0.830208 0.333643 0.866782
Si Si3 0.827770 0.332427 0.217716
Si Si4 0.673347 0.832690 0.958603
Si Si5 0.825122 0.925785 0.285916
Si Si6 0.675291 0.830363 0.542682
O O1 0.793030 0.095559 0.666147
O O2 0.779739 0.126351 0.583043
O O3 0.000000 0.064816 0.616003
O O4 0.750000 0.000000 0.611834
O O5 0.827998 0.250000 0.867923
O O6 0.733684 0.354444 0.827521
O O7 0.779378 0.357704 0.912670
O O8 0.000000 0.353477 0.860909
O O9 0.805918 0.250000 0.221465
O O10 0.741021 0.372237 0.253409
O O11 0.000000 0.346252 0.220674
O O12 0.500000 0.843148 0.961521
O O13 0.698041 0.750000 0.958403
O O14 0.750000 0.860730 0.000000
O O15 0.000000 0.931323 0.281170
O O16 0.750000 0.000000 0.279599
O O17 0.500000 0.835230 0.538424
O O18 0.712706 0.750000 0.548324
O O19 0.750000 0.854698 0.500000
#
# Coordination Sequence:
#
# PCOD9502156 Si02
#       6
#    16  16  16  16  16  16
#     4   9  19  34  52  73  96 124 157 195 236 280
#     4   8  14  25  39  56  82 117 155 193 234 282
#     4  10  20  32  47  70  98 126 159 200 243 288
#     4   8  13  20  31  49  75 109 148 187 228 277
#     4  10  20  35  54  73  96 127 161 199 244 291
#     4   9  18  33  51  72  99 129 161 195 231 273
#
# _framework density 16.787102000000001
#
# number of rings (size 3 to 8) (size 9 to 14) (size 15 to 20)
#    0.000    3.000    0.000    2.000    0.000    4.000 
#    0.000    6.667    0.000    2.000    0.000    0.000 
#    0.000    0.667    0.000    7.000    0.000   10.167 
#
# Total GULP energy -267325.268122 kJ/mol
# GULP energy per Si atom -5569.276419 kJ/mol
# Density = 1.674889 g / cm^3
# Si number density = 16.787102 Si / 1000 Ang^3
#
#
#
# Elastic Constant Matrix: (Units=GPa)
#
#
# Indices 1 2 3 4 5 6 
#
# 1 52.3185 33.1624 72.5414 0.0000 0.0000 0.0000
# 2 33.1624 31.6953 65.4400 0.0000 0.0000 0.0000
# 3 72.5414 65.4400 184.0132 0.0000 0.0000 0.0000
# 4 0.0000 0.0000 0.0000 -11.3701 0.0000 0.0000
# 5 0.0000 0.0000 0.0000 0.0000 32.3477 0.0000
# 6 0.0000 0.0000 0.0000 0.0000 0.0000 20.3824
#
#
#
# Elastic Compliance Matrix: (Units=1/GPa)
#
#
# Indices 1 2 3 4 5 6 
#
# 1 0.057864 -0.050594 -0.004819 0.000000 0.000000 0.000000
# 2 -0.050594 0.162959 -0.038008 0.000000 0.000000 0.000000
# 3 -0.004819 -0.038008 0.020850 0.000000 0.000000 0.000000
# 4 0.000000 0.000000 0.000000 -0.087950 0.000000 0.000000
# 5 0.000000 0.000000 0.000000 0.000000 0.030914 0.000000
# 6 0.000000 0.000000 0.000000 0.000000 0.000000 0.049062
#
#
# Mechanical properties :
#
#
# Convention : Reuss Voigt Hill
#
# Bulk Modulus (GPa) = 18.23699 67.81276 43.02487
# Shear Modulus (GPa) = 11.39426 14.73088 13.06257
#
# Velocity S-wave (km/s) = 2.60811 2.96550 2.79253
# Velocity P-wave (km/s) = 4.46732 7.22558 6.00691
#
# Compressibility (1/GPa) = 0.05483360
#
# Stress axis : x y z
#
# Youngs Moduli (GPa) = 17.28191 6.13651 47.96060
#
# Poissons Ratio (x) = 0.31047 0.23110
# Poissons Ratio (y) = 0.87436 1.82287
# Poissons Ratio (z) = 0.08327 0.23323
#
# Static dielectric constant tensor:
#      x y z
#    x 1.558650 0.000000 0.000000 
#    y 0.000000 1.542660 0.000000 
#    z 0.000000 0.000000 1.586640 
# 
# From -- ./inp_files/43673.got.cif
#   From: 2010.05.17/outbox.cif.g08.bks.cpg/sg67_22_cif.got.tgz:43673.got - 2010.06.03 18:28:57.
