data_PCOD9502021
_publ_section_title
;
Structure prediction by ZEFSAII (Michael W. Deem and Ramdas Pophale) SiO2 
 PCOD9502021
Probable space group: C M M A
;
_chemical_formula_sum "Si O2"
_cell_formula_units_Z 112
_cell_length_a 26.330330
_cell_length_b 13.954023
_cell_length_c 13.626164
_cell_angle_alpha 90.000000
_cell_angle_beta 90.000000
_cell_angle_gamma 90.000000
_cell_volume 5006.443834
_symmetry_space_group_name_H-M "C M M A"
_symmetry_group_IT_number 67
_symmetry_cell_setting 'orthorhombic'
loop_
_space_group_symop_operation_xyz
x,y,z
-x,1/2-y,z
x,-y,-z
-x,1/2+y,-z
-x,-y,-z
x,1/2+y,-z
-x,y,z
x,1/2-y,z
1/2+x,1/2+y,z
1/2-x,-y,z
1/2+x,1/2-y,-z
1/2-x,y,-z
1/2-x,1/2-y,-z
1/2+x,y,-z
1/2-x,1/2+y,z
1/2+x,-y,z
loop_
_atom_site_type_symbol
_atom_site_label
_atom_site_fract_x
_atom_site_fract_y
_atom_site_fract_z
Si Si1 0.361859 0.364937 0.603498
Si Si2 0.444368 0.136406 0.442834
Si Si3 0.222257 0.866201 0.742497
Si Si4 0.083181 0.014180 0.739463
Si Si5 0.826728 0.366764 0.835340
Si Si6 0.668963 0.140914 0.942648
Si Si7 0.553771 0.588636 0.073447
O O1 0.367019 0.250000 0.615069
O O2 0.392913 0.387247 0.503741
O O3 0.304156 0.390355 0.637989
O O4 0.391714 0.425733 0.682966
O O5 0.500000 0.117928 0.492594
O O6 0.442314 0.250000 0.424310
O O7 0.443113 0.078291 0.342614
O O8 0.221324 0.750000 0.744597
O O9 0.280076 0.893725 0.764024
O O10 0.191415 0.899320 0.840598
O O11 0.123444 0.082677 0.794272
O O12 0.051705 0.961698 0.821780
O O13 0.832054 0.250000 0.835353
O O14 0.817559 0.398000 0.948916
O O15 0.688102 0.250000 0.945336
O O16 0.607722 0.140926 0.935121
O O17 0.500000 0.639938 0.054784
O O18 0.557271 0.500000 0.000000
#
# Coordination Sequence:
#
# PCOD9502021 Si02
#       7
#    16  16  16  16  16  16  16
#     4  10  22  40  61  88 124 158 201 261 319 376
#     4  10  23  44  68  94 122 159 210 266 325 386
#     4   9  18  36  60  89 125 164 204 259 322 377
#     4  12  22  38  64  91 124 163 212 260 309 377
#     4  10  21  36  60  92 127 165 210 259 314 376
#     4  10  19  37  60  86 122 165 210 256 308 377
#     4  11  23  38  53  81 125 165 201 252 310 366
#
# _framework density 22.371168000000001
#
# number of rings (size 3 to 8) (size 9 to 14) (size 15 to 20)
#    0.000    1.714    2.857    1.714    0.000    4.286 
#    0.000    0.714    0.000    5.143    0.000    0.000 
#    0.000    0.000    0.000    0.000    0.000    0.000 
#
# Total GULP energy -312224.332870 kJ/mol
# GULP energy per Si atom -5575.434516 kJ/mol
# Density = 2.232025 g / cm^3
# Si number density = 22.371168 Si / 1000 Ang^3
#
#
#
# Elastic Constant Matrix: (Units=GPa)
#
#
# Indices 1 2 3 4 5 6 
#
# 1 73.7277 -6.0960 -3.5005 0.0000 0.0000 0.0000
# 2 -6.0960 60.0309 10.9861 0.0000 0.0000 0.0000
# 3 -3.5005 10.9861 69.0411 0.0000 0.0000 0.0000
# 4 0.0000 0.0000 0.0000 27.8654 0.0000 0.0000
# 5 0.0000 0.0000 0.0000 0.0000 16.5523 0.0000
# 6 0.0000 0.0000 0.0000 0.0000 0.0000 34.0092
#
#
#
# Elastic Compliance Matrix: (Units=1/GPa)
#
#
# Indices 1 2 3 4 5 6 
#
# 1 0.013694 0.001301 0.000487 0.000000 0.000000 0.000000
# 2 0.001301 0.017281 -0.002684 0.000000 0.000000 0.000000
# 3 0.000487 -0.002684 0.014936 0.000000 0.000000 0.000000
# 4 0.000000 0.000000 0.000000 0.035887 0.000000 0.000000
# 5 0.000000 0.000000 0.000000 0.000000 0.060415 0.000000
# 6 0.000000 0.000000 0.000000 0.000000 0.000000 0.029404
#
#
# Mechanical properties :
#
#
# Convention : Reuss Voigt Hill
#
# Bulk Modulus (GPa) = 22.66493 22.84209 22.75351
# Shear Modulus (GPa) = 26.57959 29.11271 27.84615
#
# Velocity S-wave (km/s) = 3.45065 3.61134 3.53191
# Velocity P-wave (km/s) = 5.10189 5.25563 5.17933
#
# Compressibility (1/GPa) = 0.04412104
#
# Stress axis : x y z
#
# Youngs Moduli (GPa) = 73.02381 57.86559 66.95271
#
# Poissons Ratio (x) = -0.07531 -0.03262
# Poissons Ratio (y) = -0.09504 0.17970
# Poissons Ratio (z) = -0.03558 0.15531
#
# Static dielectric constant tensor:
#      x y z
#    x 1.882660 0.000000 0.000000 
#    y 0.000000 1.817860 0.000000 
#    z 0.000000 0.000000 1.844120 
# 
# From -- ./inp_files/30828.got.cif
#   From: 2010.05.17/outbox.cif.g08.bks.cpg/sg67_16_cif.got.tgz:30828.got - 2010.06.03 18:28:57.
