data_PCOD9502387
_publ_section_title
;
Structure prediction by ZEFSAII (Michael W. Deem and Ramdas Pophale) SiO2 
 PCOD9502387
Probable space group: C M M A
;
_chemical_formula_sum "Si O2"
_cell_formula_units_Z 112
_cell_length_a 28.418311
_cell_length_b 14.928867
_cell_length_c 15.120734
_cell_angle_alpha 90.000000
_cell_angle_beta 90.000000
_cell_angle_gamma 90.000000
_cell_volume 6415.019563
_symmetry_space_group_name_H-M "C M M A"
_symmetry_group_IT_number 67
_symmetry_cell_setting 'orthorhombic'
loop_
_space_group_symop_operation_xyz
x,y,z
-x,1/2-y,z
x,-y,-z
-x,1/2+y,-z
-x,-y,-z
x,1/2+y,-z
-x,y,z
x,1/2-y,z
1/2+x,1/2+y,z
1/2-x,-y,z
1/2+x,1/2-y,-z
1/2-x,y,-z
1/2-x,1/2-y,-z
1/2+x,y,-z
1/2-x,1/2+y,z
1/2+x,-y,z
loop_
_atom_site_type_symbol
_atom_site_label
_atom_site_fract_x
_atom_site_fract_y
_atom_site_fract_z
Si Si1 0.423862 0.149384 0.331477
Si Si2 0.445299 0.893057 0.983279
Si Si3 0.117627 0.646971 0.848018
Si Si4 0.945022 0.353501 0.473642
Si Si5 0.630140 0.651110 0.838650
Si Si6 0.696263 0.490998 0.894183
Si Si7 0.947143 0.951824 0.705917
O O1 0.445723 0.250000 0.323450
O O2 0.416300 0.136115 0.436023
O O3 0.379933 0.152063 0.265649
O O4 0.448865 0.059251 0.298328
O O5 0.500000 0.864549 0.982690
O O6 0.414250 0.854276 0.063260
O O7 0.418051 0.869439 0.892893
O O8 0.444582 0.000000 0.000000
O O9 0.123299 0.750000 0.819480
O O10 0.167075 0.597684 0.867657
O O11 0.089013 0.587978 0.776476
O O12 0.941441 0.250000 0.444480
O O13 0.933775 0.416584 0.391701
O O14 0.000000 0.370065 0.498293
O O15 0.646009 0.750000 0.866839
O O16 0.666430 0.574564 0.860265
O O17 0.750000 0.500000 0.863291
O O18 0.696049 0.500000 0.000000
O O19 0.000000 0.918059 0.725978
#
# Coordination Sequence:
#
# PCOD9502387 Si02
#       7
#    16  16  16  16  16  16  16
#     4  10  20  33  52  76 108 150 192 233 273 321
#     4  11  21  35  54  77 113 154 187 219 260 318
#     4  12  23  38  57  82 112 146 188 227 274 335
#     4   9  18  32  49  76 112 150 193 234 271 317
#     4  11  21  37  57  81 112 145 186 227 273 330
#     4  11  23  42  63  84 110 140 181 235 293 339
#     4  11  21  34  53  79 116 157 193 230 273 322
#
# _framework density 17.459026999999999
#
# number of rings (size 3 to 8) (size 9 to 14) (size 15 to 20)
#    0.000    1.286    4.286    2.143    0.000    7.429 
#    0.000    4.286    0.000    0.000    0.000    2.000 
#    0.000    4.571    0.000    0.000    0.000    0.000 
#
# Total GULP energy -312355.870761 kJ/mol
# GULP energy per Si atom -5577.783406 kJ/mol
# Density = 1.741929 g / cm^3
# Si number density = 17.459027 Si / 1000 Ang^3
#
#
#
# Elastic Constant Matrix: (Units=GPa)
#
#
# Indices 1 2 3 4 5 6 
#
# 1 102.3250 41.7434 36.6729 0.0000 0.0000 0.0000
# 2 41.7434 122.6820 31.1290 0.0000 0.0000 0.0000
# 3 36.6729 31.1290 89.9943 0.0000 0.0000 0.0000
# 4 0.0000 0.0000 0.0000 29.9560 0.0000 0.0000
# 5 0.0000 0.0000 0.0000 0.0000 23.7623 0.0000
# 6 0.0000 0.0000 0.0000 0.0000 0.0000 -7.5721
#
#
#
# Elastic Compliance Matrix: (Units=1/GPa)
#
#
# Indices 1 2 3 4 5 6 
#
# 1 0.012526 -0.003252 -0.003979 0.000000 0.000000 0.000000
# 2 -0.003252 0.009780 -0.002058 0.000000 0.000000 0.000000
# 3 -0.003979 -0.002058 0.013445 0.000000 0.000000 0.000000
# 4 0.000000 0.000000 0.000000 0.033382 0.000000 0.000000
# 5 0.000000 0.000000 0.000000 0.000000 0.042083 0.000000
# 6 0.000000 0.000000 0.000000 0.000000 0.000000 -0.132063
#
#
# Mechanical properties :
#
#
# Convention : Reuss Voigt Hill
#
# Bulk Modulus (GPa) = 58.23285 59.34354 58.78820
# Shear Modulus (GPa) = 1447.02252 22.92631 734.97441
#
# Velocity S-wave (km/s) = 28.82030 3.62767 20.53984
# Velocity P-wave (km/s) = 33.77730 7.18405 24.41840
#
# Compressibility (1/GPa) = 0.01717244
#
# Stress axis : x y z
#
# Youngs Moduli (GPa) = 79.83584 102.25123 74.37660
#
# Poissons Ratio (x) = 0.33255 0.29597
# Poissons Ratio (y) = 0.25965 0.15303
# Poissons Ratio (z) = 0.31769 0.21039
#
# Static dielectric constant tensor:
#      x y z
#    x 1.569860 0.000000 0.000000 
#    y 0.000000 1.647030 0.000000 
#    z 0.000000 0.000000 1.601300 
# 
# From -- ./inp_files/30826.got.cif
#   From: 2010.05.17/outbox.cif.g08.bks.cpg/sg67_16_cif.got.tgz:30826.got - 2010.06.03 18:28:57.
