data_PCOD9502510
_publ_section_title
;
Structure prediction by ZEFSAII (Michael W. Deem and Ramdas Pophale) SiO2 
 PCOD9502510
Probable space group: C M M A
;
_chemical_formula_sum "Si O2"
_cell_formula_units_Z 96
_cell_length_a 9.390263
_cell_length_b 19.612258
_cell_length_c 31.611870
_cell_angle_alpha 90.000000
_cell_angle_beta 90.000000
_cell_angle_gamma 90.000000
_cell_volume 5821.776666
_symmetry_space_group_name_H-M "C M M A"
_symmetry_group_IT_number 67
_symmetry_cell_setting 'orthorhombic'
loop_
_space_group_symop_operation_xyz
x,y,z
-x,1/2-y,z
x,-y,-z
-x,1/2+y,-z
-x,-y,-z
x,1/2+y,-z
-x,y,z
x,1/2-y,z
1/2+x,1/2+y,z
1/2-x,-y,z
1/2+x,1/2-y,-z
1/2-x,y,-z
1/2-x,1/2-y,-z
1/2+x,y,-z
1/2-x,1/2+y,z
1/2+x,-y,z
loop_
_atom_site_type_symbol
_atom_site_label
_atom_site_fract_x
_atom_site_fract_y
_atom_site_fract_z
Si Si1 0.830421 0.070696 0.618303
Si Si2 0.663498 0.332916 0.876739
Si Si3 0.829916 0.331284 0.219319
Si Si4 0.663402 0.833245 0.958488
Si Si5 0.829572 0.927888 0.284105
Si Si6 0.670500 0.829841 0.542609
O O1 0.803490 0.092424 0.666820
O O2 0.788431 0.126006 0.583344
O O3 0.000000 0.059502 0.614635
O O4 0.750000 0.000000 0.610920
O O5 0.500000 0.353953 0.884157
O O6 0.664078 0.250000 0.877023
O O7 0.705696 0.352341 0.829069
O O8 0.762754 0.356023 0.914979
O O9 0.805484 0.250000 0.223320
O O10 0.738303 0.373336 0.252530
O O11 0.000000 0.342610 0.225126
O O12 0.500000 0.854767 0.960857
O O13 0.665313 0.750000 0.958229
O O14 0.750000 0.854787 0.000000
O O15 0.000000 0.934751 0.278127
O O16 0.750000 0.000000 0.277613
O O17 0.500000 0.835670 0.536779
O O18 0.703681 0.750000 0.549442
O O19 0.750000 0.852380 0.500000
#
# Coordination Sequence:
#
# PCOD9502510 Si02
#       6
#    16  16  16  16  16  16
#     4   9  19  34  51  71  95 124 156 194 237 279
#     4   8  14  25  39  55  80 114 148 184 229 278
#     4   9  18  32  49  70  97 127 158 196 243 291
#     4   9  15  21  31  49  75 109 148 187 227 274
#     4  10  20  34  52  72  96 127 162 200 242 288
#     4   9  18  33  51  71  97 127 158 192 231 275
#
# _framework density 16.489812000000001
#
# number of rings (size 3 to 8) (size 9 to 14) (size 15 to 20)
#    0.000    3.000    0.000    2.000    0.000    5.333 
#    0.000    5.000    0.000    2.000    0.000    0.000 
#    0.000    0.667    0.000    7.000    0.000    9.667 
#
# Total GULP energy -267397.689056 kJ/mol
# GULP energy per Si atom -5570.785189 kJ/mol
# Density = 1.645228 g / cm^3
# Si number density = 16.489812 Si / 1000 Ang^3
#
#
#
# Elastic Constant Matrix: (Units=GPa)
#
#
# Indices 1 2 3 4 5 6 
#
# 1 83.9128 44.4982 96.7613 0.0000 0.0000 0.0000
# 2 44.4982 40.2227 70.6281 0.0000 0.0000 0.0000
# 3 96.7613 70.6281 170.8298 0.0000 0.0000 0.0000
# 4 0.0000 0.0000 0.0000 -10.1563 0.0000 0.0000
# 5 0.0000 0.0000 0.0000 0.0000 33.8447 0.0000
# 6 0.0000 0.0000 0.0000 0.0000 0.0000 20.9143
#
#
#
# Elastic Compliance Matrix: (Units=1/GPa)
#
#
# Indices 1 2 3 4 5 6 
#
# 1 0.036665 -0.014946 -0.014589 0.000000 0.000000 0.000000
# 2 -0.014946 0.096819 -0.031563 0.000000 0.000000 0.000000
# 3 -0.014589 -0.031563 0.027167 0.000000 0.000000 0.000000
# 4 0.000000 0.000000 0.000000 -0.098461 0.000000 0.000000
# 5 0.000000 0.000000 0.000000 0.000000 0.029547 0.000000
# 6 0.000000 0.000000 0.000000 0.000000 0.000000 0.047814
#
#
# Mechanical properties :
#
#
# Convention : Reuss Voigt Hill
#
# Bulk Modulus (GPa) = 26.00438 79.86003 52.93220
# Shear Modulus (GPa) = 18.21060 14.45904 16.33482
#
# Velocity S-wave (km/s) = 3.32679 2.96437 3.15080
# Velocity P-wave (km/s) = 5.52819 7.76220 6.73842
#
# Compressibility (1/GPa) = 0.03845506
#
# Stress axis : x y z
#
# Youngs Moduli (GPa) = 27.27374 10.32853 36.80999
#
# Poissons Ratio (x) = 0.15437 0.53700
# Poissons Ratio (y) = 0.40764 1.16184
# Poissons Ratio (z) = 0.39788 0.32600
#
# Static dielectric constant tensor:
#      x y z
#    x 1.549710 0.000000 0.000000 
#    y 0.000000 1.527280 0.000000 
#    z 0.000000 0.000000 1.554990 
# 
# From -- ./inp_files/43651.got.cif
#   From: 2010.05.17/outbox.cif.g08.bks.cpg/sg67_22_cif.got.tgz:43651.got - 2010.06.03 18:28:57.
