data_PCOD9502435
_publ_section_title
;
Structure prediction by ZEFSAII (Michael W. Deem and Ramdas Pophale) SiO2 
 PCOD9502435
Probable space group: C M M A
;
_chemical_formula_sum "Si O2"
_cell_formula_units_Z 96
_cell_length_a 29.352501
_cell_length_b 8.692373
_cell_length_c 21.070682
_cell_angle_alpha 90.000000
_cell_angle_beta 90.000000
_cell_angle_gamma 90.000000
_cell_volume 5376.034640
_symmetry_space_group_name_H-M "C M M A"
_symmetry_group_IT_number 67
_symmetry_cell_setting 'orthorhombic'
loop_
_space_group_symop_operation_xyz
x,y,z
-x,1/2-y,z
x,-y,-z
-x,1/2+y,-z
-x,-y,-z
x,1/2+y,-z
-x,y,z
x,1/2-y,z
1/2+x,1/2+y,z
1/2-x,-y,z
1/2+x,1/2-y,-z
1/2-x,y,-z
1/2-x,1/2-y,-z
1/2+x,y,-z
1/2-x,1/2+y,z
1/2+x,-y,z
loop_
_atom_site_type_symbol
_atom_site_label
_atom_site_fract_x
_atom_site_fract_y
_atom_site_fract_z
Si Si1 0.948359 0.433782 0.237416
Si Si2 0.300797 0.433897 0.689392
Si Si3 0.852826 0.934700 0.432612
Si Si4 0.857121 0.433934 0.807754
Si Si5 0.699481 0.565670 0.932069
Si Si6 0.050628 0.064568 0.620384
O O1 0.942828 0.250000 0.236739
O O2 0.909129 0.511995 0.196620
O O3 0.943580 0.492650 0.309824
O O4 0.000000 0.471282 0.217128
O O5 0.299627 0.250000 0.687248
O O6 0.250000 0.500000 0.695226
O O7 0.324114 0.498615 0.625725
O O8 0.330257 0.488810 0.749545
O O9 0.849735 0.750000 0.432167
O O10 0.905853 0.980072 0.421134
O O11 0.837333 0.000000 0.500000
O O12 0.854551 0.250000 0.800011
O O13 0.833298 0.476045 0.873981
O O14 0.702319 0.750000 0.936099
O O15 0.750000 0.500000 0.919800
O O16 0.684284 0.500000 0.000000
O O17 0.051542 0.250000 0.626767
O O18 0.000000 0.020448 0.596580
#
# Coordination Sequence:
#
# PCOD9502435 Si02
#       6
#    16  16  16  16  16  16
#     4  10  20  33  54  85 116 148 188 233 281 333
#     4  12  25  41  61  84 111 144 187 237 286 338
#     4  11  23  39  58  81 112 148 190 234 285 344
#     4  11  22  37  59  88 118 152 190 231 281 335
#     4  10  21  36  57  85 119 155 192 230 277 332
#     4   9  18  34  56  80 110 147 184 227 280 337
#
# _framework density 17.857026999999999
#
# number of rings (size 3 to 8) (size 9 to 14) (size 15 to 20)
#    0.000    1.500    1.667    4.500    0.000    6.333 
#    0.000    1.667    0.000    0.500    0.000    0.000 
#    0.000    0.000    0.000    0.000    0.000    0.000 
#
# Total GULP energy -268211.720788 kJ/mol
# GULP energy per Si atom -5587.744183 kJ/mol
# Density = 1.781638 g / cm^3
# Si number density = 17.857027 Si / 1000 Ang^3
#
#
#
# Elastic Constant Matrix: (Units=GPa)
#
#
# Indices 1 2 3 4 5 6 
#
# 1 112.2279 44.7357 69.8129 0.0000 0.0000 0.0000
# 2 44.7357 63.4769 47.4675 0.0000 0.0000 0.0000
# 3 69.8129 47.4675 128.4956 0.0000 0.0000 0.0000
# 4 0.0000 0.0000 0.0000 14.7598 0.0000 0.0000
# 5 0.0000 0.0000 0.0000 0.0000 0.1372 0.0000
# 6 0.0000 0.0000 0.0000 0.0000 0.0000 26.0091
#
#
#
# Elastic Compliance Matrix: (Units=1/GPa)
#
#
# Indices 1 2 3 4 5 6 
#
# 1 0.015041 -0.006203 -0.005881 0.000000 0.000000 0.000000
# 2 -0.006203 0.024325 -0.005616 0.000000 0.000000 0.000000
# 3 -0.005881 -0.005616 0.013052 0.000000 0.000000 0.000000
# 4 0.000000 0.000000 0.000000 0.067752 0.000000 0.000000
# 5 0.000000 0.000000 0.000000 0.000000 7.290809 0.000000
# 6 0.000000 0.000000 0.000000 0.000000 0.000000 0.038448
#
#
# Mechanical properties :
#
#
# Convention : Reuss Voigt Hill
#
# Bulk Modulus (GPa) = 58.75675 69.80363 64.28019
# Shear Modulus (GPa) = 0.66751 17.66016 9.16384
#
# Velocity S-wave (km/s) = 0.61206 3.14821 2.26780
# Velocity P-wave (km/s) = 5.78575 7.23810 6.55229
#
# Compressibility (1/GPa) = 0.01701932
#
# Stress axis : x y z
#
# Youngs Moduli (GPa) = 66.48461 41.11064 76.61767
#
# Poissons Ratio (x) = 0.25500 0.45056
# Poissons Ratio (y) = 0.41239 0.43026
# Poissons Ratio (z) = 0.39097 0.23086
#
# Static dielectric constant tensor:
#      x y z
#    x 1.620900 0.000000 0.000000 
#    y 0.000000 1.596690 0.000000 
#    z 0.000000 0.000000 1.579190 
# 
# From -- ./inp_files/39857.got.cif
#   From: 2010.05.17/outbox.cif.g08.bks.cpg/sg67_20_cif.got.tgz:39857.got - 2010.06.03 18:28:57.
