data_PCOD9502566
_publ_section_title
;
Structure prediction by ZEFSAII (Michael W. Deem and Ramdas Pophale) SiO2 
 PCOD9502566
Probable space group: C M M A
;
_chemical_formula_sum "Si O2"
_cell_formula_units_Z 104
_cell_length_a 8.751087
_cell_length_b 24.937155
_cell_length_c 27.870100
_cell_angle_alpha 90.000000
_cell_angle_beta 90.000000
_cell_angle_gamma 90.000000
_cell_volume 6082.014247
_symmetry_space_group_name_H-M "C M M A"
_symmetry_group_IT_number 67
_symmetry_cell_setting 'orthorhombic'
loop_
_space_group_symop_operation_xyz
x,y,z
-x,1/2-y,z
x,-y,-z
-x,1/2+y,-z
-x,-y,-z
x,1/2+y,-z
-x,y,z
x,1/2-y,z
1/2+x,1/2+y,z
1/2-x,-y,z
1/2+x,1/2-y,-z
1/2-x,y,-z
1/2-x,1/2-y,-z
1/2+x,y,-z
1/2-x,1/2+y,z
1/2+x,-y,z
loop_
_atom_site_type_symbol
_atom_site_label
_atom_site_fract_x
_atom_site_fract_y
_atom_site_fract_z
Si Si1 0.183730 0.250000 0.446643
Si Si2 0.327214 0.750000 0.794769
Si Si3 0.320754 0.750000 0.304165
Si Si4 0.822031 0.141055 0.854446
Si Si5 0.817202 0.312475 0.051923
Si Si6 0.816946 0.835523 0.373651
Si Si7 0.817439 0.941068 0.778835
Si Si8 0.183886 0.559574 0.668173
O O1 0.250000 0.250000 0.500000
O O2 0.245791 0.302085 0.417871
O O3 0.000000 0.250000 0.446545
O O4 0.500000 0.750000 0.773920
O O5 0.206817 0.750000 0.752154
O O6 0.310866 0.697790 0.827162
O O7 0.500000 0.750000 0.316173
O O8 0.241040 0.698502 0.327808
O O9 0.743853 0.150067 0.905732
O O10 0.746186 0.098375 0.819033
O O11 0.000000 0.127928 0.861059
O O12 0.771525 0.250000 0.061355
O O13 0.000000 0.314386 0.050385
O O14 0.750000 0.326834 0.000000
O O15 0.755032 0.895513 0.366340
O O16 0.000000 0.834688 0.376528
O O17 0.776593 0.925632 0.723742
O O18 0.000000 0.942586 0.781374
O O19 0.750000 0.000000 0.786551
O O20 0.250000 0.500000 0.659588
O O21 0.000000 0.558964 0.663943
#
# Coordination Sequence:
#
# PCOD9502566 Si02
#       8
#     8   8   8  16  16  16  16  16
#     4  11  22  39  61  86 115 147 186 231 279 330
#     4  10  21  33  47  72 106 141 172 208 261 320
#     4  11  21  32  48  72 105 142 179 221 267 320
#     4  11  21  34  52  75 104 136 172 214 262 317
#     4  10  20  34  53  75 101 132 168 212 262 318
#     4  11  21  35  55  80 110 146 186 227 272 322
#     4  10  21  36  54  77 106 143 184 223 265 313
#     4  10  20  35  55  81 111 147 187 229 271 318
#
# _framework density 17.099599000000001
#
# number of rings (size 3 to 8) (size 9 to 14) (size 15 to 20)
#    0.000    1.538    0.769    6.462    0.000    6.154 
#    0.000    0.000    0.000    0.923    0.000    6.462 
#    0.000    0.000    0.000    0.000    0.000    0.000 
#
# Total GULP energy -290442.025763 kJ/mol
# GULP energy per Si atom -5585.423572 kJ/mol
# Density = 1.706068 g / cm^3
# Si number density = 17.099599 Si / 1000 Ang^3
#
#
#
# Elastic Constant Matrix: (Units=GPa)
#
#
# Indices 1 2 3 4 5 6 
#
# 1 122.9243 57.1484 62.9127 0.0000 0.0000 0.0000
# 2 57.1484 109.9798 63.6948 0.0000 0.0000 0.0000
# 3 62.9127 63.6948 111.1834 0.0000 0.0000 0.0000
# 4 0.0000 0.0000 0.0000 2.6372 0.0000 0.0000
# 5 0.0000 0.0000 0.0000 0.0000 29.6034 0.0000
# 6 0.0000 0.0000 0.0000 0.0000 0.0000 27.8130
#
#
#
# Elastic Compliance Matrix: (Units=1/GPa)
#
#
# Indices 1 2 3 4 5 6 
#
# 1 0.012306 -0.003534 -0.004938 0.000000 0.000000 0.000000
# 2 -0.003534 0.014622 -0.006377 0.000000 0.000000 0.000000
# 3 -0.004938 -0.006377 0.015442 0.000000 0.000000 0.000000
# 4 0.000000 0.000000 0.000000 0.379194 0.000000 0.000000
# 5 0.000000 0.000000 0.000000 0.000000 0.033780 0.000000
# 6 0.000000 0.000000 0.000000 0.000000 0.000000 0.035954
#
#
# Mechanical properties :
#
#
# Convention : Reuss Voigt Hill
#
# Bulk Modulus (GPa) = 78.92383 79.06657 78.99520
# Shear Modulus (GPa) = 9.51980 22.69948 16.10964
#
# Velocity S-wave (km/s) = 2.36207 3.64742 3.07271
# Velocity P-wave (km/s) = 7.32767 8.00484 7.67373
#
# Compressibility (1/GPa) = 0.01267044
#
# Stress axis : x y z
#
# Youngs Moduli (GPa) = 81.26332 68.38872 64.75946
#
# Poissons Ratio (x) = 0.24170 0.31981
# Poissons Ratio (y) = 0.28721 0.41297
# Poissons Ratio (z) = 0.40131 0.43611
#
# Static dielectric constant tensor:
#      x y z
#    x 1.577480 0.000000 0.000000 
#    y 0.000000 1.573120 0.000000 
#    z 0.000000 0.000000 1.563270 
# 
# From -- ./inp_files/43777.got.cif
#   From: 2010.05.17/outbox.cif.g08.bks.cpg/sg67_22_cif.got.tgz:43777.got - 2010.06.03 18:28:57.
