data_PCOD9502046
_publ_section_title
;
Structure prediction by ZEFSAII (Michael W. Deem and Ramdas Pophale) SiO2 
 PCOD9502046
Probable space group: C M M A
;
_chemical_formula_sum "Si O2"
_cell_formula_units_Z 64
_cell_length_a 25.157589
_cell_length_b 7.753272
_cell_length_c 15.341081
_cell_angle_alpha 90.000000
_cell_angle_beta 90.000000
_cell_angle_gamma 90.000000
_cell_volume 2992.333543
_symmetry_space_group_name_H-M "C M M A"
_symmetry_group_IT_number 67
_symmetry_cell_setting 'orthorhombic'
loop_
_space_group_symop_operation_xyz
x,y,z
-x,1/2-y,z
x,-y,-z
-x,1/2+y,-z
-x,-y,-z
x,1/2+y,-z
-x,y,z
x,1/2-y,z
1/2+x,1/2+y,z
1/2-x,-y,z
1/2+x,1/2-y,-z
1/2-x,y,-z
1/2-x,1/2-y,-z
1/2+x,y,-z
1/2-x,1/2+y,z
1/2+x,-y,z
loop_
_atom_site_type_symbol
_atom_site_label
_atom_site_fract_x
_atom_site_fract_y
_atom_site_fract_z
Si Si1 0.607702 0.456291 0.101191
Si Si2 0.500000 0.520220 0.606504
Si Si3 0.500000 0.536941 0.800685
Si Si4 0.811805 0.456331 0.754050
Si Si5 0.115525 0.449172 0.405622
O O1 0.607682 0.250000 0.106712
O O2 0.552311 0.511661 0.145217
O O3 0.656554 0.519494 0.160325
O O4 0.611172 0.500000 0.000000
O O5 0.500000 0.500000 0.500000
O O6 0.500000 0.448587 0.706406
O O7 0.436735 0.564844 0.610840
O O8 0.500000 0.750000 0.785973
O O9 0.817057 0.250000 0.748929
O O10 0.750000 0.500000 0.756512
O O11 0.841756 0.530653 0.669857
O O12 0.137856 0.500000 0.500000
O O13 0.096076 0.250000 0.408814
#
# Coordination Sequence:
#
# PCOD9502046 Si02
#       5
#    16   8   8  16  16
#     4  10  22  40  64  92 123 162 204 254 313 370
#     4  10  21  36  61  97 131 164 204 245 303 364
#     4  10  19  38  64  91 128 167 202 250 307 373
#     4  11  24  43  65  90 122 163 210 261 314 366
#     4  11  23  40  63  94 129 166 207 251 305 368
#
# _framework density 21.387989999999999
#
# number of rings (size 3 to 8) (size 9 to 14) (size 15 to 20)
#    0.000    1.500    2.500    2.250    0.000    7.000 
#    0.000    5.000    0.000    0.000    0.000    0.000 
#    0.000    0.000    0.000    0.000    0.000    0.000 
#
# Total GULP energy -178137.019515 kJ/mol
# GULP energy per Si atom -5566.781860 kJ/mol
# Density = 2.133931 g / cm^3
# Si number density = 21.387990 Si / 1000 Ang^3
#
#
#
# Elastic Constant Matrix: (Units=GPa)
#
#
# Indices 1 2 3 4 5 6 
#
# 1 194.5952 13.1218 115.9119 0.0000 0.0000 0.0000
# 2 13.1218 82.9361 13.5981 0.0000 0.0000 0.0000
# 3 115.9119 13.5981 241.0247 0.0000 0.0000 0.0000
# 4 0.0000 0.0000 0.0000 13.0746 0.0000 0.0000
# 5 0.0000 0.0000 0.0000 0.0000 7.1072 0.0000
# 6 0.0000 0.0000 0.0000 0.0000 0.0000 -249.0282
#
#
#
# Elastic Compliance Matrix: (Units=1/GPa)
#
#
# Indices 1 2 3 4 5 6 
#
# 1 0.007229 -0.000579 -0.003444 0.000000 0.000000 0.000000
# 2 -0.000579 0.012216 -0.000411 0.000000 0.000000 0.000000
# 3 -0.003444 -0.000411 0.005828 0.000000 0.000000 0.000000
# 4 0.000000 0.000000 0.000000 0.076484 0.000000 0.000000
# 5 0.000000 0.000000 0.000000 0.000000 0.140702 0.000000
# 6 0.000000 0.000000 0.000000 0.000000 0.000000 -0.004016
#
#
# Mechanical properties :
#
#
# Convention : Reuss Voigt Hill
#
# Bulk Modulus (GPa) = 60.95150 89.31329 75.13239
# Shear Modulus (GPa) = 19.77993 -20.70766 -0.46386
#
# Velocity S-wave (km/s) = 3.04438 -3.11495 -0.46621
# Velocity P-wave (km/s) = 6.39668 5.37699 5.90887
#
# Compressibility (1/GPa) = 0.01640649
#
# Stress axis : x y z
#
# Youngs Moduli (GPa) = 138.32442 81.85686 171.57363
#
# Poissons Ratio (x) = 0.04741 0.59090
# Poissons Ratio (y) = 0.08011 0.07047
# Poissons Ratio (z) = 0.47639 0.03362
#
# Static dielectric constant tensor:
#      x y z
#    x 1.730450 0.000000 0.000000 
#    y 0.000000 1.865690 0.000000 
#    z 0.000000 0.000000 1.747380 
# 
# From -- ./inp_files/24860.got.cif
#   From: 2010.05.17/outbox.cif.g08.bks.cpg/sg67_13_cif.got.tgz:24860.got - 2010.06.03 18:28:57.
