data_PCOD9502230
_publ_section_title
;
Structure prediction by ZEFSAII (Michael W. Deem and Ramdas Pophale) SiO2 
 PCOD9502230
Probable space group: C M M A
;
_chemical_formula_sum "Si O2"
_cell_formula_units_Z 68
_cell_length_a 19.914332
_cell_length_b 21.402408
_cell_length_c 9.487676
_cell_angle_alpha 90.000000
_cell_angle_beta 90.000000
_cell_angle_gamma 90.000000
_cell_volume 4043.786586
_symmetry_space_group_name_H-M "C M M A"
_symmetry_group_IT_number 67
_symmetry_cell_setting 'orthorhombic'
loop_
_space_group_symop_operation_xyz
x,y,z
-x,1/2-y,z
x,-y,-z
-x,1/2+y,-z
-x,-y,-z
x,1/2+y,-z
-x,y,z
x,1/2-y,z
1/2+x,1/2+y,z
1/2-x,-y,z
1/2+x,1/2-y,-z
1/2-x,y,-z
1/2-x,1/2-y,-z
1/2+x,y,-z
1/2-x,1/2+y,z
1/2+x,-y,z
loop_
_atom_site_type_symbol
_atom_site_label
_atom_site_fract_x
_atom_site_fract_y
_atom_site_fract_z
Si Si1 0.500000 0.178266 0.119333
Si Si2 0.500000 0.062368 0.905738
Si Si3 0.352762 0.908053 0.147437
Si Si4 0.231231 0.324174 0.338237
Si Si5 0.750000 0.500000 0.000000
Si Si6 0.146109 0.822583 0.131750
O O1 0.500000 0.250000 0.062630
O O2 0.428782 0.171077 0.196675
O O3 0.500000 0.125162 0.000902
O O4 0.427751 0.065305 0.829670
O O5 0.500000 0.000000 0.000000
O O6 0.327594 0.867340 0.278489
O O7 0.299150 0.960335 0.101213
O O8 0.352052 0.863046 0.009530
O O9 0.215983 0.250000 0.323069
O O10 0.250000 0.335613 0.500000
O O11 0.295503 0.338868 0.239807
O O12 0.155713 0.750000 0.093053
#
# Coordination Sequence:
#
# PCOD9502230 Si02
#       6
#     8   8  16  16   4  16
#     4   8  16  28  47  74  99 128 170 219 274 328
#     4  10  20  32  51  80 112 142 176 233 286 337
#     4  11  20  34  53  79 107 139 183 225 276 333
#     4  10  20  34  53  78 107 139 179 227 277 330
#     4  12  20  30  56  80 104 138 186 222 268 322
#     4   9  16  30  52  75  98 129 171 223 273 322
#
# _framework density 16.815923000000002
#
# number of rings (size 3 to 8) (size 9 to 14) (size 15 to 20)
#    0.000    2.118    3.529    0.706    0.000    2.824 
#    0.000    1.765    0.000    2.824    0.000    4.941 
#    0.000    0.000    0.000    0.000    0.000    0.000 
#
# Total GULP energy -189310.434999 kJ/mol
# GULP energy per Si atom -5567.953971 kJ/mol
# Density = 1.677765 g / cm^3
# Si number density = 16.815923 Si / 1000 Ang^3
#
#
#
# Elastic Constant Matrix: (Units=GPa)
#
#
# Indices 1 2 3 4 5 6 
#
# 1 142.3300 55.0935 35.7220 0.0000 0.0000 0.0000
# 2 55.0935 60.9719 29.7103 0.0000 0.0000 0.0000
# 3 35.7220 29.7103 62.0487 0.0000 0.0000 0.0000
# 4 0.0000 0.0000 0.0000 -34.1664 0.0000 0.0000
# 5 0.0000 0.0000 0.0000 0.0000 8.9011 0.0000
# 6 0.0000 0.0000 0.0000 0.0000 0.0000 31.8791
#
#
#
# Elastic Compliance Matrix: (Units=1/GPa)
#
#
# Indices 1 2 3 4 5 6 
#
# 1 0.011002 -0.008941 -0.002053 0.000000 0.000000 0.000000
# 2 -0.008941 0.028658 -0.008575 0.000000 0.000000 0.000000
# 3 -0.002053 -0.008575 0.021404 0.000000 0.000000 0.000000
# 4 0.000000 0.000000 0.000000 -0.029269 0.000000 0.000000
# 5 0.000000 0.000000 0.000000 0.000000 0.112346 0.000000
# 6 0.000000 0.000000 0.000000 0.000000 0.000000 0.031369
#
#
# Mechanical properties :
#
#
# Convention : Reuss Voigt Hill
#
# Bulk Modulus (GPa) = 45.60574 56.26691 50.93633
# Shear Modulus (GPa) = 22.52692 10.97774 16.75233
#
# Velocity S-wave (km/s) = 3.66405 2.55780 3.15972
# Velocity P-wave (km/s) = 6.71415 6.50048 6.60818
#
# Compressibility (1/GPa) = 0.02192706
#
# Stress axis : x y z
#
# Youngs Moduli (GPa) = 90.89198 34.89384 46.72023
#
# Poissons Ratio (x) = 0.31199 0.09591
# Poissons Ratio (y) = 0.81267 0.40062
# Poissons Ratio (z) = 0.18658 0.29921
#
# Static dielectric constant tensor:
#      x y z
#    x 1.636130 0.000000 0.000000 
#    y 0.000000 1.563920 0.000000 
#    z 0.000000 0.000000 1.518070 
# 
# From -- ./inp_files/9542.got.cif
#   From: 2010.05.17/outbox.cif.g08.bks.cpg/sg67_5_cif.got.tgz:9542.got - 2010.06.03 18:28:57.
