data_PCOD9502607
_publ_section_title
;
Structure prediction by ZEFSAII (Michael W. Deem and Ramdas Pophale) SiO2 
 PCOD9502607
Probable space group: C M M A
;
_chemical_formula_sum "Si O2"
_cell_formula_units_Z 116
_cell_length_a 9.268010
_cell_length_b 29.448285
_cell_length_c 24.442436
_cell_angle_alpha 90.000000
_cell_angle_beta 90.000000
_cell_angle_gamma 90.000000
_cell_volume 6671.000727
_symmetry_space_group_name_H-M "C M M A"
_symmetry_group_IT_number 67
_symmetry_cell_setting 'orthorhombic'
loop_
_space_group_symop_operation_xyz
x,y,z
-x,1/2-y,z
x,-y,-z
-x,1/2+y,-z
-x,-y,-z
x,1/2+y,-z
-x,y,z
x,1/2-y,z
1/2+x,1/2+y,z
1/2-x,-y,z
1/2+x,1/2-y,-z
1/2-x,y,-z
1/2-x,1/2-y,-z
1/2+x,y,-z
1/2-x,1/2+y,z
1/2+x,-y,z
loop_
_atom_site_type_symbol
_atom_site_label
_atom_site_fract_x
_atom_site_fract_y
_atom_site_fract_z
Si Si1 0.170555 0.196223 0.723384
Si Si2 0.826693 0.642069 0.945164
Si Si3 0.336179 0.956400 0.607042
Si Si4 0.250000 0.500000 0.500000
Si Si5 0.672706 0.884049 0.328434
Si Si6 0.333317 0.804230 0.164316
Si Si7 0.672591 0.547174 0.104070
Si Si8 0.828443 0.047215 0.230629
O O1 0.193068 0.250000 0.713806
O O2 0.257132 0.164794 0.681387
O O3 0.233966 0.185902 0.783698
O O4 0.000000 0.186897 0.721204
O O5 0.789199 0.670778 0.891147
O O6 0.785560 0.589841 0.932860
O O7 0.000000 0.644435 0.951257
O O8 0.750000 0.658282 0.000000
O O9 0.500000 0.954200 0.627110
O O10 0.335549 0.968085 0.542311
O O11 0.247202 0.911973 0.622738
O O12 0.250000 0.000000 0.630777
O O13 0.500000 0.881912 0.334513
O O14 0.707729 0.914054 0.274200
O O15 0.500000 0.817842 0.177020
O O16 0.331598 0.750000 0.155614
O O17 0.500000 0.541143 0.100218
O O18 0.750000 0.500000 0.090656
O O19 0.705916 0.559372 0.167580
O O20 0.000000 0.040048 0.233864
O O21 0.750000 0.000000 0.242292
#
# Coordination Sequence:
#
# PCOD9502607 Si02
#       8
#    16  16  16   4  16  16  16  16
#     4  10  21  36  54  78 107 137 173 219 268 319
#     4  10  21  35  50  70  95 122 157 205 255 306
#     4  10  20  34  53  78 112 151 192 232 270 310
#     4   8  22  36  58  76 116 160 198 236 272 308
#     4  11  21  32  51  78 109 145 182 220 267 318
#     4   9  18  35  57  76  97 128 162 199 254 322
#     4   9  18  33  49  64  88 122 160 199 243 295
#     4   9  18  31  47  70  99 131 165 204 251 308
#
# _framework density 17.388694999999998
#
# number of rings (size 3 to 8) (size 9 to 14) (size 15 to 20)
#    0.414    1.931    0.000    2.690    0.000    6.897 
#    0.000    4.138    0.000    0.000    0.000    0.483 
#    0.000    0.000    0.000    0.000    0.000    0.000 
#
# Total GULP energy -323454.200620 kJ/mol
# GULP energy per Si atom -5576.796562 kJ/mol
# Density = 1.734912 g / cm^3
# Si number density = 17.388695 Si / 1000 Ang^3
#
#
#
# Elastic Constant Matrix: (Units=GPa)
#
#
# Indices 1 2 3 4 5 6 
#
# 1 76.4752 46.0104 37.1658 0.0000 0.0000 0.0000
# 2 46.0104 64.5366 40.1858 0.0000 0.0000 0.0000
# 3 37.1658 40.1858 66.7246 0.0000 0.0000 0.0000
# 4 0.0000 0.0000 0.0000 23.9553 0.0000 0.0000
# 5 0.0000 0.0000 0.0000 0.0000 21.7654 0.0000
# 6 0.0000 0.0000 0.0000 0.0000 0.0000 25.9295
#
#
#
# Elastic Compliance Matrix: (Units=1/GPa)
#
#
# Indices 1 2 3 4 5 6 
#
# 1 0.023847 -0.013969 -0.004870 0.000000 0.000000 0.000000
# 2 -0.013969 0.032976 -0.012079 0.000000 0.000000 0.000000
# 3 -0.004870 -0.012079 0.024974 0.000000 0.000000 0.000000
# 4 0.000000 0.000000 0.000000 0.041744 0.000000 0.000000
# 5 0.000000 0.000000 0.000000 0.000000 0.045945 0.000000
# 6 0.000000 0.000000 0.000000 0.000000 0.000000 0.038566
#
#
# Mechanical properties :
#
#
# Convention : Reuss Voigt Hill
#
# Bulk Modulus (GPa) = 50.09805 50.49559 50.29682
# Shear Modulus (GPa) = 18.08044 19.95500 19.01772
#
# Velocity S-wave (km/s) = 3.22806 3.39128 3.31068
# Velocity P-wave (km/s) = 6.53966 6.66609 6.60317
#
# Compressibility (1/GPa) = 0.01996086
#
# Stress axis : x y z
#
# Youngs Moduli (GPa) = 41.93381 30.32549 40.04114
#
# Poissons Ratio (x) = 0.42362 0.19499
# Poissons Ratio (y) = 0.58578 0.48366
# Poissons Ratio (z) = 0.20421 0.36631
#
# Static dielectric constant tensor:
#      x y z
#    x 1.584070 0.000000 0.000000 
#    y 0.000000 1.591050 0.000000 
#    z 0.000000 0.000000 1.599090 
# 
# From -- ./inp_files/41219.got.cif
#   From: 2010.05.17/outbox.cif.g08.bks.cpg/sg67_21_cif.got.tgz:41219.got - 2010.06.03 18:28:57.
