data_PCOD9502372
_publ_section_title
;
Structure prediction by ZEFSAII (Michael W. Deem and Ramdas Pophale) SiO2 
 PCOD9502372
Probable space group: C M M A
;
_chemical_formula_sum "Si O2"
_cell_formula_units_Z 72
_cell_length_a 15.977476
_cell_length_b 8.854576
_cell_length_c 25.556940
_cell_angle_alpha 90.000000
_cell_angle_beta 90.000000
_cell_angle_gamma 90.000000
_cell_volume 3615.636793
_symmetry_space_group_name_H-M "C M M A"
_symmetry_group_IT_number 67
_symmetry_cell_setting 'orthorhombic'
loop_
_space_group_symop_operation_xyz
x,y,z
-x,1/2-y,z
x,-y,-z
-x,1/2+y,-z
-x,-y,-z
x,1/2+y,-z
-x,y,z
x,1/2-y,z
1/2+x,1/2+y,z
1/2-x,-y,z
1/2+x,1/2-y,-z
1/2-x,y,-z
1/2-x,1/2-y,-z
1/2+x,y,-z
1/2-x,1/2+y,z
1/2+x,-y,z
loop_
_atom_site_type_symbol
_atom_site_label
_atom_site_fract_x
_atom_site_fract_y
_atom_site_fract_z
Si Si1 0.500000 0.932331 0.057642
Si Si2 0.836556 0.569499 0.876343
Si Si3 0.843276 0.569031 0.667345
Si Si4 0.597774 0.075392 0.227223
Si Si5 0.843965 0.069304 0.447914
O O1 0.500000 0.750000 0.054809
O O2 0.416617 0.977942 0.089243
O O3 0.500000 0.000000 0.000000
O O4 0.831626 0.750000 0.876444
O O5 0.750000 0.500000 0.896266
O O6 0.851980 0.511765 0.817413
O O7 0.838867 0.750000 0.672290
O O8 0.750000 0.500000 0.669067
O O9 0.890955 0.498900 0.716174
O O10 0.880420 0.534994 0.609567
O O11 0.500000 0.069778 0.213033
O O12 0.624874 0.250000 0.229119
O O13 0.838770 0.250000 0.453427
O O14 0.884749 0.000000 0.500000
O O15 0.750000 0.000000 0.446136
#
# Coordination Sequence:
#
# PCOD9502372 Si02
#       5
#     8  16  16  16  16
#     4  10  24  44  68  96 132 172 211 254 303 354
#     4  11  23  42  66  95 128 167 210 254 306 362
#     4  10  20  33  51  77 109 144 185 235 292 356
#     4  11  23  38  58  84 114 152 196 246 303 360
#     4   9  16  26  43  68  98 135 177 226 285 346
#
# _framework density 19.913505000000001
#
# number of rings (size 3 to 8) (size 9 to 14) (size 15 to 20)
#    0.000    1.778    1.111    4.000    0.000    6.222 
#    0.000    2.222    0.000    0.667    0.000    0.000 
#    0.000    0.000    0.000    0.000    0.000    0.000 
#
# Total GULP energy -201055.349602 kJ/mol
# GULP energy per Si atom -5584.870822 kJ/mol
# Density = 1.986818 g / cm^3
# Si number density = 19.913505 Si / 1000 Ang^3
#
#
#
# Elastic Constant Matrix: (Units=GPa)
#
#
# Indices 1 2 3 4 5 6 
#
# 1 93.9103 38.4403 55.1691 0.0000 0.0000 0.0000
# 2 38.4403 84.9492 51.4005 0.0000 0.0000 0.0000
# 3 55.1691 51.4005 148.3588 0.0000 0.0000 0.0000
# 4 0.0000 0.0000 0.0000 18.0203 0.0000 0.0000
# 5 0.0000 0.0000 0.0000 0.0000 -595.7592 0.0000
# 6 0.0000 0.0000 0.0000 0.0000 0.0000 23.6412
#
#
#
# Elastic Compliance Matrix: (Units=1/GPa)
#
#
# Indices 1 2 3 4 5 6 
#
# 1 0.014742 -0.004244 -0.004012 0.000000 0.000000 0.000000
# 2 -0.004244 0.016116 -0.004005 0.000000 0.000000 0.000000
# 3 -0.004012 -0.004005 0.009620 0.000000 0.000000 0.000000
# 4 0.000000 0.000000 0.000000 0.055493 0.000000 0.000000
# 5 0.000000 0.000000 0.000000 0.000000 -0.001679 0.000000
# 6 0.000000 0.000000 0.000000 0.000000 0.000000 0.042299
#
#
# Mechanical properties :
#
#
# Convention : Reuss Voigt Hill
#
# Bulk Modulus (GPa) = 62.67155 68.58201 65.62678
# Shear Modulus (GPa) = 30.04232 -98.67232 -34.31500
#
# Velocity S-wave (km/s) = 3.88834 -7.04684 -4.15565
# Velocity P-wave (km/s) = 7.19021 5.62992 3.16252
#
# Compressibility (1/GPa) = 0.01595620
#
# Stress axis : x y z
#
# Youngs Moduli (GPa) = 67.83192 62.05200 103.95012
#
# Poissons Ratio (x) = 0.26332 0.41704
# Poissons Ratio (y) = 0.28785 0.41636
# Poissons Ratio (z) = 0.27214 0.24854
#
# Static dielectric constant tensor:
#      x y z
#    x 1.737520 0.000000 0.000000 
#    y 0.000000 1.667260 0.000000 
#    z 0.000000 0.000000 1.711640 
# 
# From -- ./inp_files/42133.got.cif
#   From: 2010.05.17/outbox.cif.g08.bks.cpg/sg67_22_cif.got.tgz:42133.got - 2010.06.03 18:28:57.
