data_PCOD9502179
_publ_section_title
;
Structure prediction by ZEFSAII (Michael W. Deem and Ramdas Pophale) SiO2 
 PCOD9502179
Probable space group: C M M A
;
_chemical_formula_sum "Si O2"
_cell_formula_units_Z 96
_cell_length_a 8.675844
_cell_length_b 28.186022
_cell_length_c 24.469742
_cell_angle_alpha 90.000000
_cell_angle_beta 90.000000
_cell_angle_gamma 90.000000
_cell_volume 5983.770265
_symmetry_space_group_name_H-M "C M M A"
_symmetry_group_IT_number 67
_symmetry_cell_setting 'orthorhombic'
loop_
_space_group_symop_operation_xyz
x,y,z
-x,1/2-y,z
x,-y,-z
-x,1/2+y,-z
-x,-y,-z
x,1/2+y,-z
-x,y,z
x,1/2-y,z
1/2+x,1/2+y,z
1/2-x,-y,z
1/2+x,1/2-y,-z
1/2-x,y,-z
1/2-x,1/2-y,-z
1/2+x,y,-z
1/2-x,1/2+y,z
1/2+x,-y,z
loop_
_atom_site_type_symbol
_atom_site_label
_atom_site_fract_x
_atom_site_fract_y
_atom_site_fract_z
Si Si1 0.186891 0.853296 0.329755
Si Si2 0.315020 0.106574 0.161570
Si Si3 0.314353 0.305127 0.441598
Si Si4 0.815898 0.947582 0.940417
Si Si5 0.184874 0.051783 0.728447
Si Si6 0.315246 0.695356 0.222579
O O1 0.235205 0.835845 0.389498
O O2 0.231677 0.907095 0.314177
O O3 0.255545 0.820106 0.282415
O O4 0.000000 0.850254 0.326342
O O5 0.500000 0.105862 0.157098
O O6 0.239709 0.088142 0.106192
O O7 0.269610 0.071432 0.211602
O O8 0.259357 0.158373 0.180363
O O9 0.500000 0.306250 0.443810
O O10 0.267281 0.250000 0.433580
O O11 0.250000 0.321130 0.500000
O O12 0.000000 0.949941 0.942659
O O13 0.750000 0.000000 0.927422
O O14 0.750000 0.934629 0.000000
O O15 0.000000 0.049210 0.727753
O O16 0.250000 0.000000 0.717815
O O17 0.500000 0.690682 0.220915
O O18 0.274163 0.750000 0.211866
#
# Coordination Sequence:
#
# PCOD9502179 Si02
#       6
#    16  16  16  16  16  16
#     4   9  18  32  48  67  93 126 160 192 233 287
#     4  10  20  34  51  72  98 130 165 199 240 288
#     4   9  17  29  46  67  91 119 151 190 236 284
#     4  11  21  34  52  75 103 133 166 203 244 289
#     4   9  18  30  46  68  93 121 154 192 232 278
#     4  10  20  32  48  73 101 127 158 198 241 285
#
# _framework density 16.043396000000001
#
# number of rings (size 3 to 8) (size 9 to 14) (size 15 to 20)
#    0.000    2.333    0.000    5.000    0.000    7.333 
#    0.000    1.667    0.000    1.000    0.000    3.500 
#    0.000    0.000    0.000    0.000    0.000    0.000 
#
# Total GULP energy -267779.543867 kJ/mol
# GULP energy per Si atom -5578.740497 kJ/mol
# Density = 1.600688 g / cm^3
# Si number density = 16.043396 Si / 1000 Ang^3
#
#
#
# Elastic Constant Matrix: (Units=GPa)
#
#
# Indices 1 2 3 4 5 6 
#
# 1 55.8447 41.4515 46.6481 0.0000 0.0000 0.0000
# 2 41.4515 120.1585 86.7153 0.0000 0.0000 0.0000
# 3 46.6481 86.7153 141.6527 0.0000 0.0000 0.0000
# 4 0.0000 0.0000 0.0000 20.7268 0.0000 0.0000
# 5 0.0000 0.0000 0.0000 0.0000 26.6876 0.0000
# 6 0.0000 0.0000 0.0000 0.0000 0.0000 27.3331
#
#
#
# Elastic Compliance Matrix: (Units=1/GPa)
#
#
# Indices 1 2 3 4 5 6 
#
# 1 0.026313 -0.005059 -0.005569 0.000000 0.000000 0.000000
# 2 -0.005059 0.015881 -0.008056 0.000000 0.000000 0.000000
# 3 -0.005569 -0.008056 0.013825 0.000000 0.000000 0.000000
# 4 0.000000 0.000000 0.000000 0.048247 0.000000 0.000000
# 5 0.000000 0.000000 0.000000 0.000000 0.037471 0.000000
# 6 0.000000 0.000000 0.000000 0.000000 0.000000 0.036586
#
#
# Mechanical properties :
#
#
# Convention : Reuss Voigt Hill
#
# Bulk Modulus (GPa) = 53.61116 74.14286 63.87701
# Shear Modulus (GPa) = 22.53195 24.47222 23.50209
#
# Velocity S-wave (km/s) = 3.75165 3.90984 3.83156
# Velocity P-wave (km/s) = 7.22879 8.16681 7.71207
#
# Compressibility (1/GPa) = 0.01865283
#
# Stress axis : x y z
#
# Youngs Moduli (GPa) = 38.00378 62.96665 72.33238
#
# Poissons Ratio (x) = 0.31853 0.40278
# Poissons Ratio (y) = 0.19225 0.58273
# Poissons Ratio (z) = 0.21162 0.50727
#
# Static dielectric constant tensor:
#      x y z
#    x 1.541860 0.000000 0.000000 
#    y 0.000000 1.526740 0.000000 
#    z 0.000000 0.000000 1.522000 
# 
# From -- ./inp_files/37178.got.cif
#   From: 2010.05.17/outbox.cif.g08.bks.cpg/sg67_19_cif.got.tgz:37178.got - 2010.06.03 18:28:57.
