data_PCOD9502198
_publ_section_title
;
Structure prediction by ZEFSAII (Michael W. Deem and Ramdas Pophale) SiO2 
 PCOD9502198
Probable space group: C M M A
;
_chemical_formula_sum "Si O2"
_cell_formula_units_Z 80
_cell_length_a 24.575324
_cell_length_b 30.811259
_cell_length_c 5.245125
_cell_angle_alpha 90.000000
_cell_angle_beta 90.000000
_cell_angle_gamma 90.000000
_cell_volume 3971.591198
_symmetry_space_group_name_H-M "C M M A"
_symmetry_group_IT_number 67
_symmetry_cell_setting 'orthorhombic'
loop_
_space_group_symop_operation_xyz
x,y,z
-x,1/2-y,z
x,-y,-z
-x,1/2+y,-z
-x,-y,-z
x,1/2+y,-z
-x,y,z
x,1/2-y,z
1/2+x,1/2+y,z
1/2-x,-y,z
1/2+x,1/2-y,-z
1/2-x,y,-z
1/2-x,1/2-y,-z
1/2+x,y,-z
1/2-x,1/2+y,z
1/2+x,-y,z
loop_
_atom_site_type_symbol
_atom_site_label
_atom_site_fract_x
_atom_site_fract_y
_atom_site_fract_z
Si Si1 0.811532 0.675024 0.600011
Si Si2 0.620356 0.086024 0.613741
Si Si3 0.936338 0.613130 0.106967
Si Si4 0.725305 0.951632 0.251063
Si Si5 0.369845 0.702334 0.902682
O O1 0.750000 0.673503 0.500000
O O2 0.839707 0.627826 0.620972
O O3 0.824279 0.695349 0.876956
O O4 0.843620 0.699814 0.376672
O O5 0.594938 0.087008 0.332148
O O6 0.660961 0.048118 0.707062
O O7 0.575613 0.092243 0.831949
O O8 0.000000 0.614613 0.163554
O O9 0.911345 0.661782 0.089345
O O10 0.750000 0.930126 0.500000
O O11 0.750000 0.000000 0.246066
O O12 0.750000 0.929498 0.000000
O O13 0.394735 0.750000 0.942681
#
# Coordination Sequence:
#
# PCOD9502198 Si02
#       5
#    16  16  16  16  16
#     4  10  20  32  49  73 105 143 177 217 273 335
#     4  10  20  35  55  81 112 140 181 228 264 325
#     4  10  21  37  56  78 104 143 192 237 279 314
#     4  10  20  34  56  89 119 144 169 206 266 328
#     4  10  21  34  49  73 103 139 186 233 276 326
#
# _framework density 20.143059000000001
#
# number of rings (size 3 to 8) (size 9 to 14) (size 15 to 20)
#    0.000    2.000    0.000    3.600    0.000    6.000 
#    0.000    0.000    0.000    7.200    0.000   56.000 
#    0.000    0.000    0.000    0.000    0.000    0.000 
#
# Total GULP energy -222984.477406 kJ/mol
# GULP energy per Si atom -5574.611935 kJ/mol
# Density = 2.009721 g / cm^3
# Si number density = 20.143059 Si / 1000 Ang^3
#
#
#
# Elastic Constant Matrix: (Units=GPa)
#
#
# Indices 1 2 3 4 5 6 
#
# 1 102.5569 20.1664 19.8406 0.0000 0.0000 0.0000
# 2 20.1664 49.4798 11.3222 0.0000 0.0000 0.0000
# 3 19.8406 11.3222 144.2940 0.0000 0.0000 0.0000
# 4 0.0000 0.0000 0.0000 -121.8749 0.0000 0.0000
# 5 0.0000 0.0000 0.0000 0.0000 30.3032 0.0000
# 6 0.0000 0.0000 0.0000 0.0000 0.0000 12.7764
#
#
#
# Elastic Compliance Matrix: (Units=1/GPa)
#
#
# Indices 1 2 3 4 5 6 
#
# 1 0.010787 -0.004131 -0.001159 0.000000 0.000000 0.000000
# 2 -0.004131 0.022162 -0.001171 0.000000 0.000000 0.000000
# 3 -0.001159 -0.001171 0.007182 0.000000 0.000000 0.000000
# 4 0.000000 0.000000 0.000000 -0.008205 0.000000 0.000000
# 5 0.000000 0.000000 0.000000 0.000000 0.033000 0.000000
# 6 0.000000 0.000000 0.000000 0.000000 0.000000 0.078269
#
#
# Mechanical properties :
#
#
# Convention : Reuss Voigt Hill
#
# Bulk Modulus (GPa) = 36.75365 44.33211 40.54288
# Shear Modulus (GPa) = 30.26881 0.57439 15.42160
#
# Velocity S-wave (km/s) = 3.88066 0.53458 2.76996
# Velocity P-wave (km/s) = 6.19397 4.73682 5.51374
#
# Compressibility (1/GPa) = 0.02720818
#
# Stress axis : x y z
#
# Youngs Moduli (GPa) = 92.70170 45.12233 139.24577
#
# Poissons Ratio (x) = 0.18641 0.16140
# Poissons Ratio (y) = 0.38298 0.16304
# Poissons Ratio (z) = 0.10745 0.05283
#
# Static dielectric constant tensor:
#      x y z
#    x 1.724440 0.000000 0.000000 
#    y 0.000000 1.733020 0.000000 
#    z 0.000000 0.000000 1.743660 
# 
# From -- ./inp_files/3545.got.cif
#   From: 2010.05.17/outbox.cif.g08.bks.cpg/sg67_2_cif.got.tgz:3545.got - 2010.06.03 18:28:57.
