data_PCOD9502825
_publ_section_title
;
Structure prediction by ZEFSAII (Michael W. Deem and Ramdas Pophale) SiO2 
 PCOD9502825
Probable space group: C M M A
;
_chemical_formula_sum "Si O2"
_cell_formula_units_Z 112
_cell_length_a 14.803164
_cell_length_b 24.963332
_cell_length_c 16.265567
_cell_angle_alpha 90.000000
_cell_angle_beta 90.000000
_cell_angle_gamma 90.000000
_cell_volume 6010.717407
_symmetry_space_group_name_H-M "C M M A"
_symmetry_group_IT_number 67
_symmetry_cell_setting 'orthorhombic'
loop_
_space_group_symop_operation_xyz
x,y,z
-x,1/2-y,z
x,-y,-z
-x,1/2+y,-z
-x,-y,-z
x,1/2+y,-z
-x,y,z
x,1/2-y,z
1/2+x,1/2+y,z
1/2-x,-y,z
1/2+x,1/2-y,-z
1/2-x,y,-z
1/2-x,1/2-y,-z
1/2+x,y,-z
1/2-x,1/2+y,z
1/2+x,-y,z
loop_
_atom_site_type_symbol
_atom_site_label
_atom_site_fract_x
_atom_site_fract_y
_atom_site_fract_z
Si Si1 0.848926 0.085072 0.479223
Si Si2 0.393314 0.526809 0.313246
Si Si3 0.608785 0.310864 0.229899
Si Si4 0.740676 0.312995 0.904216
Si Si5 0.395958 0.089050 0.334457
Si Si6 0.391696 0.189484 0.614320
Si Si7 0.607816 0.631129 0.216172
O O1 0.750000 0.065114 0.500000
O O2 0.887412 0.047905 0.407211
O O3 0.896309 0.088869 0.566913
O O4 0.845497 0.144338 0.440427
O O5 0.500000 0.522634 0.295795
O O6 0.352301 0.467392 0.307245
O O7 0.360592 0.574006 0.253515
O O8 0.500000 0.314101 0.217080
O O9 0.627300 0.250000 0.259524
O O10 0.665900 0.318961 0.146716
O O11 0.640362 0.356474 0.294278
O O12 0.715040 0.250000 0.898166
O O13 0.665814 0.348999 0.859897
O O14 0.750000 0.326133 0.000000
O O15 0.500000 0.087736 0.307584
O O16 0.500000 0.185193 0.598613
O O17 0.362799 0.250000 0.598294
O O18 0.378912 0.173305 0.709244
O O19 0.500000 0.628779 0.199503
#
# Coordination Sequence:
#
# PCOD9502825 Si02
#       7
#    16  16  16  16  16  16  16
#     4  11  22  31  44  75 110 139 178 225 269 312
#     4   9  19  36  55  74 101 138 183 229 266 306
#     4   9  20  38  57  79 109 143 179 218 262 319
#     4  10  21  36  57  85 112 138 171 214 267 326
#     4  10  20  35  55  75 100 143 186 219 263 313
#     4   9  18  33  51  70  98 140 185 225 266 312
#     4   9  18  34  56  82 108 138 177 222 271 319
#
# _framework density 18.633382999999998
#
# number of rings (size 3 to 8) (size 9 to 14) (size 15 to 20)
#    0.000    2.429    0.000    3.000    4.000    4.571 
#    0.000    2.857    0.000    1.714    0.000    4.000 
#    0.000    0.000    0.000    0.000    0.000    0.000 
#
# Total GULP energy -312320.621292 kJ/mol
# GULP energy per Si atom -5577.153952 kJ/mol
# Density = 1.859097 g / cm^3
# Si number density = 18.633383 Si / 1000 Ang^3
#
#
#
# Elastic Constant Matrix: (Units=GPa)
#
#
# Indices 1 2 3 4 5 6 
#
# 1 44.0340 31.9295 28.1619 0.0000 0.0000 0.0000
# 2 31.9295 146.0715 74.8743 0.0000 0.0000 0.0000
# 3 28.1619 74.8743 107.0215 0.0000 0.0000 0.0000
# 4 0.0000 0.0000 0.0000 9.9612 0.0000 0.0000
# 5 0.0000 0.0000 0.0000 0.0000 -6.5238 0.0000
# 6 0.0000 0.0000 0.0000 0.0000 0.0000 22.3037
#
#
#
# Elastic Compliance Matrix: (Units=1/GPa)
#
#
# Indices 1 2 3 4 5 6 
#
# 1 0.028549 -0.003726 -0.004906 0.000000 0.000000 0.000000
# 2 -0.003726 0.011160 -0.006827 0.000000 0.000000 0.000000
# 3 -0.004906 -0.006827 0.015411 0.000000 0.000000 0.000000
# 4 0.000000 0.000000 0.000000 0.100390 0.000000 0.000000
# 5 0.000000 0.000000 0.000000 0.000000 -0.153285 0.000000
# 6 0.000000 0.000000 0.000000 0.000000 0.000000 0.044836
#
#
# Mechanical properties :
#
#
# Convention : Reuss Voigt Hill
#
# Bulk Modulus (GPa) = 41.31823 63.00648 52.16235
# Shear Modulus (GPa) = 58.10886 15.95897 37.03392
#
# Velocity S-wave (km/s) = 5.59044 2.92973 4.46298
# Velocity P-wave (km/s) = 7.99332 6.73287 7.39002
#
# Compressibility (1/GPa) = 0.02420239
#
# Stress axis : x y z
#
# Youngs Moduli (GPa) = 35.02770 89.60597 64.88723
#
# Poissons Ratio (x) = 0.33385 0.31832
# Poissons Ratio (y) = 0.13051 0.44301
# Poissons Ratio (z) = 0.17184 0.61177
#
# Static dielectric constant tensor:
#      x y z
#    x 1.561370 0.000000 0.000000 
#    y 0.000000 1.689960 0.000000 
#    z 0.000000 0.000000 1.600500 
# 
# From -- ./inp_files/27566.got.cif
#   From: 2010.05.17/outbox.cif.g08.bks.cpg/sg67_14_cif.got.tgz:27566.got - 2010.06.03 18:28:57.
