data_PCOD9502880
_publ_section_title
;
Structure prediction by ZEFSAII (Michael W. Deem and Ramdas Pophale) SiO2 
 PCOD9502880
Probable space group: C M M A
;
_chemical_formula_sum "Si O2"
_cell_formula_units_Z 112
_cell_length_a 14.650423
_cell_length_b 23.905444
_cell_length_c 16.567313
_cell_angle_alpha 90.000000
_cell_angle_beta 90.000000
_cell_angle_gamma 90.000000
_cell_volume 5802.284985
_symmetry_space_group_name_H-M "C M M A"
_symmetry_group_IT_number 67
_symmetry_cell_setting 'orthorhombic'
loop_
_space_group_symop_operation_xyz
x,y,z
-x,1/2-y,z
x,-y,-z
-x,1/2+y,-z
-x,-y,-z
x,1/2+y,-z
-x,y,z
x,1/2-y,z
1/2+x,1/2+y,z
1/2-x,-y,z
1/2+x,1/2-y,-z
1/2-x,y,-z
1/2-x,1/2-y,-z
1/2+x,y,-z
1/2-x,1/2+y,z
1/2+x,-y,z
loop_
_atom_site_type_symbol
_atom_site_label
_atom_site_fract_x
_atom_site_fract_y
_atom_site_fract_z
Si Si1 0.388657 0.185720 0.345446
Si Si2 0.610930 0.815363 0.474085
Si Si3 0.393441 0.635169 0.309465
Si Si4 0.347114 0.981322 0.237013
Si Si5 0.390236 0.685277 0.140377
Si Si6 0.773136 0.912604 0.911641
Si Si7 0.602604 0.103202 0.201934
O O1 0.500000 0.186330 0.346535
O O2 0.359419 0.250000 0.330174
O O3 0.358233 0.168894 0.435751
O O4 0.364147 0.142444 0.275408
O O5 0.500000 0.819936 0.476145
O O6 0.632603 0.750000 0.462130
O O7 0.645570 0.848915 0.396437
O O8 0.500000 0.650287 0.313355
O O9 0.385648 0.570014 0.287594
O O10 0.358670 0.669344 0.231688
O O11 0.325225 0.955799 0.147888
O O12 0.250000 0.000000 0.272171
O O13 0.401435 0.038566 0.230156
O O14 0.500000 0.676331 0.135784
O O15 0.371761 0.750000 0.123671
O O16 0.337124 0.642080 0.083948
O O17 0.678975 0.896381 0.866976
O O18 0.750000 0.934089 0.000000
O O19 0.500000 0.120643 0.177567
#
# Coordination Sequence:
#
# PCOD9502880 Si02
#       7
#    16  16  16  16  16  16  16
#     4   8  15  29  49  75 106 137 170 209 253 304
#     4   8  13  23  44  75 106 133 166 210 254 299
#     4   9  15  26  48  76 103 133 173 218 261 305
#     4   9  19  34  50  69  99 137 174 218 268 316
#     4   9  18  33  54  80 111 147 181 214 260 316
#     4  10  22  38  56  79 106 134 173 223 271 318
#     4  10  20  35  56  79 104 138 178 218 265 320
#
# _framework density 19.30274
#
# number of rings (size 3 to 8) (size 9 to 14) (size 15 to 20)
#    0.000    3.000    0.000    1.714    0.000    6.286 
#    0.000    1.429    0.000   15.429    0.000   19.000 
#    0.000    0.000    0.000    0.000    0.000    0.000 
#
# Total GULP energy -312133.269985 kJ/mol
# GULP energy per Si atom -5573.808393 kJ/mol
# Density = 1.925881 g / cm^3
# Si number density = 19.302740 Si / 1000 Ang^3
#
#
#
# Elastic Constant Matrix: (Units=GPa)
#
#
# Indices 1 2 3 4 5 6 
#
# 1 49.8481 12.2165 12.4364 0.0000 0.0000 0.0000
# 2 12.2165 85.2801 42.6950 0.0000 0.0000 0.0000
# 3 12.4364 42.6950 123.4118 0.0000 0.0000 0.0000
# 4 0.0000 0.0000 0.0000 6.1548 0.0000 0.0000
# 5 0.0000 0.0000 0.0000 0.0000 -7.4296 0.0000
# 6 0.0000 0.0000 0.0000 0.0000 0.0000 19.1270
#
#
#
# Elastic Compliance Matrix: (Units=1/GPa)
#
#
# Indices 1 2 3 4 5 6 
#
# 1 0.020961 -0.002353 -0.001298 0.000000 0.000000 0.000000
# 2 -0.002353 0.014447 -0.004761 0.000000 0.000000 0.000000
# 3 -0.001298 -0.004761 0.009881 0.000000 0.000000 0.000000
# 4 0.000000 0.000000 0.000000 0.162476 0.000000 0.000000
# 5 0.000000 0.000000 0.000000 0.000000 -0.134597 0.000000
# 6 0.000000 0.000000 0.000000 0.000000 0.000000 0.052282
#
#
# Mechanical properties :
#
#
# Convention : Reuss Voigt Hill
#
# Bulk Modulus (GPa) = 35.13081 43.69287 39.41184
# Shear Modulus (GPa) = 32.94628 16.31657 24.63143
#
# Velocity S-wave (km/s) = 4.13585 2.91056 3.57607
# Velocity P-wave (km/s) = 6.40675 5.82922 6.12480
#
# Compressibility (1/GPa) = 0.02846504
#
# Stress axis : x y z
#
# Youngs Moduli (GPa) = 47.70663 69.22071 101.20628
#
# Poissons Ratio (x) = 0.16286 0.13140
# Poissons Ratio (y) = 0.11224 0.48182
# Poissons Ratio (z) = 0.06194 0.32954
#
# Static dielectric constant tensor:
#      x y z
#    x 1.755040 0.000000 0.000000 
#    y 0.000000 1.664000 0.000000 
#    z 0.000000 0.000000 1.677240 
# 
# From -- ./inp_files/27515.got.cif
#   From: 2010.05.17/outbox.cif.g08.bks.cpg/sg67_14_cif.got.tgz:27515.got - 2010.06.03 18:28:57.
