data_PCOD9502562
_publ_section_title
;
Structure prediction by ZEFSAII (Michael W. Deem and Ramdas Pophale) SiO2 
 PCOD9502562
Probable space group: C M M A
;
_chemical_formula_sum "Si O2"
_cell_formula_units_Z 96
_cell_length_a 16.746962
_cell_length_b 19.361144
_cell_length_c 16.292909
_cell_angle_alpha 90.000000
_cell_angle_beta 90.000000
_cell_angle_gamma 90.000000
_cell_volume 5282.818400
_symmetry_space_group_name_H-M "C M M A"
_symmetry_group_IT_number 67
_symmetry_cell_setting 'orthorhombic'
loop_
_space_group_symop_operation_xyz
x,y,z
-x,1/2-y,z
x,-y,-z
-x,1/2+y,-z
-x,-y,-z
x,1/2+y,-z
-x,y,z
x,1/2-y,z
1/2+x,1/2+y,z
1/2-x,-y,z
1/2+x,1/2-y,-z
1/2-x,y,-z
1/2-x,1/2-y,-z
1/2+x,y,-z
1/2-x,1/2+y,z
1/2+x,-y,z
loop_
_atom_site_type_symbol
_atom_site_label
_atom_site_fract_x
_atom_site_fract_y
_atom_site_fract_z
Si Si1 0.906757 0.969339 0.083101
Si Si2 0.694222 0.827411 0.578363
Si Si3 0.405093 0.033537 0.413136
Si Si4 0.259666 0.326817 0.754809
Si Si5 0.909770 0.670438 0.156773
Si Si6 0.836760 0.531853 0.750409
O O1 0.901511 0.886413 0.086189
O O2 0.000000 0.988754 0.084541
O O3 0.871588 0.996168 0.168523
O O4 0.870176 0.000000 0.000000
O O5 0.657038 0.750000 0.572977
O O6 0.750000 0.838339 0.500000
O O7 0.634552 0.890868 0.590947
O O8 0.751124 0.826467 0.657154
O O9 0.500000 0.040760 0.415444
O O10 0.378497 0.000000 0.500000
O O11 0.383480 0.987234 0.333136
O O12 0.282940 0.250000 0.783821
O O13 0.168377 0.339325 0.786441
O O14 0.320648 0.388204 0.772827
O O15 0.907997 0.750000 0.129749
O O16 0.000000 0.659000 0.193744
O O17 0.750000 0.500000 0.734714
#
# Coordination Sequence:
#
# PCOD9502562 Si02
#       6
#    16  16  16  16  16  16
#     4  10  21  37  57  82 112 147 188 233 280 337
#     4  10  20  34  54  80 111 148 185 229 285 341
#     4  11  24  38  57  85 115 149 191 236 278 333
#     4  10  20  34  52  81 112 143 186 229 280 335
#     4   9  17  32  54  80 111 143 178 228 285 335
#     4  12  21  36  59  84 111 150 184 231 282 337
#
# _framework density 18.172118999999999
#
# number of rings (size 3 to 8) (size 9 to 14) (size 15 to 20)
#    0.000    1.667    3.333    1.500    0.000    2.667 
#    0.000    2.500    0.000    6.000    0.000    0.000 
#    0.000    0.000    0.000    0.000    0.000    0.000 
#
# Total GULP energy -267384.774058 kJ/mol
# GULP energy per Si atom -5570.516126 kJ/mol
# Density = 1.813076 g / cm^3
# Si number density = 18.172119 Si / 1000 Ang^3
#
#
#
# Elastic Constant Matrix: (Units=GPa)
#
#
# Indices 1 2 3 4 5 6 
#
# 1 32.4809 35.3896 13.1987 0.0000 0.0000 0.0000
# 2 35.3896 137.9165 34.2309 0.0000 0.0000 0.0000
# 3 13.1987 34.2309 90.6805 0.0000 0.0000 0.0000
# 4 0.0000 0.0000 0.0000 20.5660 0.0000 0.0000
# 5 0.0000 0.0000 0.0000 0.0000 -0.7857 0.0000
# 6 0.0000 0.0000 0.0000 0.0000 0.0000 20.2705
#
#
#
# Elastic Compliance Matrix: (Units=1/GPa)
#
#
# Indices 1 2 3 4 5 6 
#
# 1 0.043173 -0.010503 -0.002319 0.000000 0.000000 0.000000
# 2 -0.010503 0.010555 -0.002456 0.000000 0.000000 0.000000
# 3 -0.002319 -0.002456 0.012292 0.000000 0.000000 0.000000
# 4 0.000000 0.000000 0.000000 0.048624 0.000000 0.000000
# 5 0.000000 0.000000 0.000000 0.000000 -1.272806 0.000000
# 6 0.000000 0.000000 0.000000 0.000000 0.000000 0.049333
#
#
# Mechanical properties :
#
#
# Convention : Reuss Voigt Hill
#
# Bulk Modulus (GPa) = 28.19667 47.41290 37.80479
# Shear Modulus (GPa) = -4.68844 19.89408 7.60282
#
# Velocity S-wave (km/s) = -1.60799 3.31230 2.04765
# Velocity P-wave (km/s) = 3.47888 6.38562 5.14192
#
# Compressibility (1/GPa) = 0.03546518
#
# Stress axis : x y z
#
# Youngs Moduli (GPa) = 23.16267 94.73925 81.35133
#
# Poissons Ratio (x) = 0.99501 0.18867
# Poissons Ratio (y) = 0.24327 0.19979
# Poissons Ratio (z) = 0.05372 0.23266
#
# Static dielectric constant tensor:
#      x y z
#    x 1.619070 0.000000 0.000000 
#    y 0.000000 1.700400 0.000000 
#    z 0.000000 0.000000 1.635670 
# 
# From -- ./inp_files/27192.got.cif
#   From: 2010.05.17/outbox.cif.g08.bks.cpg/sg67_14_cif.got.tgz:27192.got - 2010.06.03 18:28:57.
