data_PCOD9502201
_publ_section_title
;
Structure prediction by ZEFSAII (Michael W. Deem and Ramdas Pophale) SiO2 
 PCOD9502201
Probable space group: C M M A
;
_chemical_formula_sum "Si O2"
_cell_formula_units_Z 112
_cell_length_a 16.066108
_cell_length_b 14.700844
_cell_length_c 24.749963
_cell_angle_alpha 90.000000
_cell_angle_beta 90.000000
_cell_angle_gamma 90.000000
_cell_volume 5845.578609
_symmetry_space_group_name_H-M "C M M A"
_symmetry_group_IT_number 67
_symmetry_cell_setting 'orthorhombic'
loop_
_space_group_symop_operation_xyz
x,y,z
-x,1/2-y,z
x,-y,-z
-x,1/2+y,-z
-x,-y,-z
x,1/2+y,-z
-x,y,z
x,1/2-y,z
1/2+x,1/2+y,z
1/2-x,-y,z
1/2+x,1/2-y,-z
1/2-x,y,-z
1/2-x,1/2-y,-z
1/2+x,y,-z
1/2-x,1/2+y,z
1/2+x,-y,z
loop_
_atom_site_type_symbol
_atom_site_label
_atom_site_fract_x
_atom_site_fract_y
_atom_site_fract_z
Si Si1 0.402772 0.010150 0.939322
Si Si2 0.370961 0.854426 0.854826
Si Si3 0.398091 0.494842 0.354128
Si Si4 0.101498 0.145724 0.436846
Si Si5 0.328120 0.854577 0.147307
Si Si6 0.898537 0.644937 0.443488
Si Si7 0.597073 0.506278 0.231607
O O1 0.500000 0.034735 0.942603
O O2 0.396320 0.915736 0.906187
O O3 0.358583 0.088257 0.904509
O O4 0.369588 0.000000 0.000000
O O5 0.400680 0.750000 0.855735
O O6 0.271198 0.852559 0.853856
O O7 0.397717 0.913161 0.802730
O O8 0.500000 0.492064 0.352860
O O9 0.372017 0.584207 0.387130
O O10 0.369647 0.412918 0.392659
O O11 0.370362 0.493465 0.292314
O O12 0.127554 0.250000 0.431032
O O13 0.127549 0.112665 0.496622
O O14 0.000000 0.144142 0.437149
O O15 0.358715 0.750000 0.148437
O O16 0.356948 0.914784 0.198330
O O17 0.874751 0.750000 0.438564
O O18 0.000000 0.640866 0.443419
O O19 0.500000 0.532383 0.234245
#
# Coordination Sequence:
#
# PCOD9502201 Si02
#       7
#    16  16  16  16  16  16  16
#     4  10  21  36  56  84 113 136 161 199 246 294
#     4  10  21  37  56  75  99 136 176 210 245 287
#     4   9  16  24  36  58  87 119 155 194 240 293
#     4   8  13  21  33  50  77 116 156 190 230 287
#     4  10  21  37  56  75  99 136 176 210 245 287
#     4   8  13  21  33  50  77 116 156 190 230 287
#     4  10  20  32  49  74 102 132 166 209 258 302
#
# _framework density 19.159780000000001
#
# number of rings (size 3 to 8) (size 9 to 14) (size 15 to 20)
#    0.000    2.714    0.000    4.714    0.000    6.857 
#    0.000    5.714    0.000    0.000    0.000    0.000 
#    0.000    9.143    0.000   25.143    0.000   20.571 
#
# Total GULP energy -312300.079946 kJ/mol
# GULP energy per Si atom -5576.787142 kJ/mol
# Density = 1.911617 g / cm^3
# Si number density = 19.159780 Si / 1000 Ang^3
#
#
#
# Elastic Constant Matrix: (Units=GPa)
#
#
# Indices 1 2 3 4 5 6 
#
# 1 32.2196 1.6333 4.2552 0.0000 0.0000 0.0000
# 2 1.6333 127.0980 80.6835 0.0000 0.0000 0.0000
# 3 4.2552 80.6835 200.0632 0.0000 0.0000 0.0000
# 4 0.0000 0.0000 0.0000 14.4276 0.0000 0.0000
# 5 0.0000 0.0000 0.0000 0.0000 -82.7065 0.0000
# 6 0.0000 0.0000 0.0000 0.0000 0.0000 111.2457
#
#
#
# Elastic Compliance Matrix: (Units=1/GPa)
#
#
# Indices 1 2 3 4 5 6 
#
# 1 0.031124 0.000027 -0.000673 0.000000 0.000000 0.000000
# 2 0.000027 0.010575 -0.004266 0.000000 0.000000 0.000000
# 3 -0.000673 -0.004266 0.006733 0.000000 0.000000 0.000000
# 4 0.000000 0.000000 0.000000 0.069311 0.000000 0.000000
# 5 0.000000 0.000000 0.000000 0.000000 -0.012091 0.000000
# 6 0.000000 0.000000 0.000000 0.000000 0.000000 0.008989
#
#
# Mechanical properties :
#
#
# Convention : Reuss Voigt Hill
#
# Bulk Modulus (GPa) = 25.89979 59.16941 42.53460
# Shear Modulus (GPa) = 36.40728 26.78063 31.59396
#
# Velocity S-wave (km/s) = 4.36385 3.74271 4.06516
# Velocity P-wave (km/s) = 6.24004 7.04459 6.65449
#
# Compressibility (1/GPa) = 0.03861034
#
# Stress axis : x y z
#
# Youngs Moduli (GPa) = 32.12905 94.55892 148.52250
#
# Poissons Ratio (x) = -0.00258 0.09995
# Poissons Ratio (y) = -0.00088 0.63353
# Poissons Ratio (z) = 0.02162 0.40335
#
# Static dielectric constant tensor:
#      x y z
#    x 1.687960 0.000000 0.000000 
#    y 0.000000 1.659930 0.000000 
#    z 0.000000 0.000000 1.658400 
# 
# From -- ./inp_files/42004.got.cif
#   From: 2010.05.17/outbox.cif.g08.bks.cpg/sg67_22_cif.got.tgz:42004.got - 2010.06.03 18:28:57.
