data_PCOD9502700
_publ_section_title
;
Structure prediction by ZEFSAII (Michael W. Deem and Ramdas Pophale) SiO2 
 PCOD9502700
Probable space group: C M M A
;
_chemical_formula_sum "Si O2"
_cell_formula_units_Z 96
_cell_length_a 29.187936
_cell_length_b 8.803305
_cell_length_c 21.056096
_cell_angle_alpha 90.000000
_cell_angle_beta 90.000000
_cell_angle_gamma 90.000000
_cell_volume 5410.370246
_symmetry_space_group_name_H-M "C M M A"
_symmetry_group_IT_number 67
_symmetry_cell_setting 'orthorhombic'
loop_
_space_group_symop_operation_xyz
x,y,z
-x,1/2-y,z
x,-y,-z
-x,1/2+y,-z
-x,-y,-z
x,1/2+y,-z
-x,y,z
x,1/2-y,z
1/2+x,1/2+y,z
1/2-x,-y,z
1/2+x,1/2-y,-z
1/2-x,y,-z
1/2-x,1/2-y,-z
1/2+x,y,-z
1/2-x,1/2+y,z
1/2+x,-y,z
loop_
_atom_site_type_symbol
_atom_site_label
_atom_site_fract_x
_atom_site_fract_y
_atom_site_fract_z
Si Si1 0.947571 0.930080 0.743569
Si Si2 0.300839 0.932649 0.192699
Si Si3 0.051809 0.931975 0.115416
Si Si4 0.140857 0.431949 0.691090
Si Si5 0.800182 0.432046 0.567883
Si Si6 0.643754 0.068767 0.934804
O O1 0.939643 0.750000 0.751755
O O2 0.000000 0.952582 0.722230
O O3 0.942914 0.009406 0.812274
O O4 0.909774 0.000004 0.697701
O O5 0.299324 0.750000 0.197643
O O6 0.326360 0.973051 0.126894
O O7 0.250000 0.000000 0.193594
O O8 0.329615 0.999147 0.251251
O O9 0.055918 0.750000 0.113978
O O10 0.000000 0.973310 0.094718
O O11 0.092545 0.006011 0.075990
O O12 0.139422 0.250000 0.697543
O O13 0.165395 0.469662 0.624788
O O14 0.814495 0.500000 0.500000
O O15 0.796429 0.250000 0.562924
O O16 0.750000 0.500000 0.582344
O O17 0.642314 0.250000 0.939169
O O18 0.662534 0.000000 0.000000
#
# Coordination Sequence:
#
# PCOD9502700 Si02
#       6
#    16  16  16  16  16  16
#     4  10  20  34  55  84 116 149 186 229 279 334
#     4  11  24  40  59  83 110 144 187 234 284 335
#     4  10  20  35  57  83 111 144 182 228 282 337
#     4  11  22  36  59  88 117 150 189 232 280 331
#     4  10  21  36  56  85 118 155 192 230 277 330
#     4  11  24  40  58  80 108 146 188 232 286 341
#
# _framework density 17.743703
#
# number of rings (size 3 to 8) (size 9 to 14) (size 15 to 20)
#    0.000    1.500    1.667    4.000    0.000    8.667 
#    0.000    1.667    0.000    0.500    0.000    0.000 
#    0.000    0.000    0.000    0.000    0.000    0.000 
#
# Total GULP energy -268263.662321 kJ/mol
# GULP energy per Si atom -5588.826298 kJ/mol
# Density = 1.770332 g / cm^3
# Si number density = 17.743703 Si / 1000 Ang^3
#
#
#
# Elastic Constant Matrix: (Units=GPa)
#
#
# Indices 1 2 3 4 5 6 
#
# 1 101.5575 42.0196 60.6174 0.0000 0.0000 0.0000
# 2 42.0196 57.7552 45.3867 0.0000 0.0000 0.0000
# 3 60.6174 45.3867 110.4322 0.0000 0.0000 0.0000
# 4 0.0000 0.0000 0.0000 26.9488 0.0000 0.0000
# 5 0.0000 0.0000 0.0000 0.0000 17.2547 0.0000
# 6 0.0000 0.0000 0.0000 0.0000 0.0000 25.6295
#
#
#
# Elastic Compliance Matrix: (Units=1/GPa)
#
#
# Indices 1 2 3 4 5 6 
#
# 1 0.016447 -0.007195 -0.006071 0.000000 0.000000 0.000000
# 2 -0.007195 0.028722 -0.007855 0.000000 0.000000 0.000000
# 3 -0.006071 -0.007855 0.015616 0.000000 0.000000 0.000000
# 4 0.000000 0.000000 0.000000 0.037107 0.000000 0.000000
# 5 0.000000 0.000000 0.000000 0.000000 0.057955 0.000000
# 6 0.000000 0.000000 0.000000 0.000000 0.000000 0.039018
#
#
# Mechanical properties :
#
#
# Convention : Reuss Voigt Hill
#
# Bulk Modulus (GPa) = 53.92842 62.86582 58.39712
# Shear Modulus (GPa) = 20.55167 22.08135 21.31651
#
# Velocity S-wave (km/s) = 3.40700 3.53152 3.46982
# Velocity P-wave (km/s) = 6.77760 7.22050 7.00255
#
# Compressibility (1/GPa) = 0.01854310
#
# Stress axis : x y z
#
# Youngs Moduli (GPa) = 60.80021 34.81624 64.03686
#
# Poissons Ratio (x) = 0.25052 0.38876
# Poissons Ratio (y) = 0.43748 0.50301
# Poissons Ratio (z) = 0.36911 0.27348
#
# Static dielectric constant tensor:
#      x y z
#    x 1.600610 0.000000 0.000000 
#    y 0.000000 1.591980 0.000000 
#    z 0.000000 0.000000 1.591110 
# 
# From -- ./inp_files/37153.got.cif
#   From: 2010.05.17/outbox.cif.g08.bks.cpg/sg67_19_cif.got.tgz:37153.got - 2010.06.03 18:28:57.
