data_PCOD9502221
_publ_section_title
;
Structure prediction by ZEFSAII (Michael W. Deem and Ramdas Pophale) SiO2 
 PCOD9502221
Probable space group: C M M A
;
_chemical_formula_sum "Si O2"
_cell_formula_units_Z 88
_cell_length_a 27.871485
_cell_length_b 9.074482
_cell_length_c 19.644619
_cell_angle_alpha 90.000000
_cell_angle_beta 90.000000
_cell_angle_gamma 90.000000
_cell_volume 4968.503069
_symmetry_space_group_name_H-M "C M M A"
_symmetry_group_IT_number 67
_symmetry_cell_setting 'orthorhombic'
loop_
_space_group_symop_operation_xyz
x,y,z
-x,1/2-y,z
x,-y,-z
-x,1/2+y,-z
-x,-y,-z
x,1/2+y,-z
-x,y,z
x,1/2-y,z
1/2+x,1/2+y,z
1/2-x,-y,z
1/2+x,1/2-y,-z
1/2-x,y,-z
1/2-x,1/2-y,-z
1/2+x,y,-z
1/2-x,1/2+y,z
1/2+x,-y,z
loop_
_atom_site_type_symbol
_atom_site_label
_atom_site_fract_x
_atom_site_fract_y
_atom_site_fract_z
Si Si1 0.000000 0.572591 0.926577
Si Si2 0.201999 0.926486 0.856908
Si Si3 0.205712 0.077139 0.708294
Si Si4 0.557426 0.916019 0.433074
Si Si5 0.595511 0.927360 0.156499
Si Si6 0.402562 0.422076 0.304285
O O1 0.951339 0.531101 0.886549
O O2 0.000000 0.750000 0.932612
O O3 0.000000 0.500000 0.000000
O O4 0.207566 0.750000 0.858496
O O5 0.147145 0.963351 0.878989
O O6 0.250000 0.000000 0.888960
O O7 0.201554 0.988756 0.779617
O O8 0.215405 0.250000 0.721432
O O9 0.153622 0.066319 0.675618
O O10 0.250000 0.000000 0.670809
O O11 0.500000 0.907783 0.439805
O O12 0.576617 0.750000 0.430100
O O13 0.575895 0.000000 0.500000
O O14 0.568343 0.999837 0.363448
O O15 0.595382 0.750000 0.166130
O O16 0.592132 0.003000 0.230427
O O17 0.414917 0.250000 0.298687
#
# Coordination Sequence:
#
# PCOD9502221 Si02
#       6
#     8  16  16  16  16  16
#     4  10  22  40  58  76 103 138 175 212 254 308
#     4   9  15  25  44  70 100 131 163 205 255 302
#     4   9  16  26  42  67  99 132 164 202 248 297
#     4  10  21  36  53  72  98 134 172 210 257 309
#     4   9  19  34  52  76 105 137 173 213 258 307
#     4  10  20  32  50  78 107 133 168 213 255 298
#
# _framework density 17.711573000000001
#
# number of rings (size 3 to 8) (size 9 to 14) (size 15 to 20)
#    0.000    2.545    0.000    3.273    1.273    4.727 
#    0.000    0.000    0.000    1.091    0.000    7.636 
#    0.000    0.000    0.000    0.000    0.000    0.000 
#
# Total GULP energy -244960.819472 kJ/mol
# GULP energy per Si atom -5567.291352 kJ/mol
# Density = 1.767126 g / cm^3
# Si number density = 17.711573 Si / 1000 Ang^3
#
#
#
# Elastic Constant Matrix: (Units=GPa)
#
#
# Indices 1 2 3 4 5 6 
#
# 1 108.1445 49.2568 47.2516 0.0000 0.0000 0.0000
# 2 49.2568 82.2948 35.5730 0.0000 0.0000 0.0000
# 3 47.2516 35.5730 68.7257 0.0000 0.0000 0.0000
# 4 0.0000 0.0000 0.0000 19.6152 0.0000 0.0000
# 5 0.0000 0.0000 0.0000 0.0000 -7.7547 0.0000
# 6 0.0000 0.0000 0.0000 0.0000 0.0000 26.0335
#
#
#
# Elastic Compliance Matrix: (Units=1/GPa)
#
#
# Indices 1 2 3 4 5 6 
#
# 1 0.015145 -0.005879 -0.007369 0.000000 0.000000 0.000000
# 2 -0.005879 0.017936 -0.005242 0.000000 0.000000 0.000000
# 3 -0.007369 -0.005242 0.022331 0.000000 0.000000 0.000000
# 4 0.000000 0.000000 0.000000 0.050981 0.000000 0.000000
# 5 0.000000 0.000000 0.000000 0.000000 -0.128954 0.000000
# 6 0.000000 0.000000 0.000000 0.000000 0.000000 0.038412
#
#
# Mechanical properties :
#
#
# Convention : Reuss Voigt Hill
#
# Bulk Modulus (GPa) = 54.25743 58.14756 56.20249
# Shear Modulus (GPa) = 84.78248 16.05103 50.41676
#
# Velocity S-wave (km/s) = 6.92621 3.01366 5.34109
# Velocity P-wave (km/s) = 9.72952 6.70903 8.35687
#
# Compressibility (1/GPa) = 0.01843065
#
# Stress axis : x y z
#
# Youngs Moduli (GPa) = 66.03019 55.75331 44.78178
#
# Poissons Ratio (x) = 0.32778 0.33001
# Poissons Ratio (y) = 0.38820 0.23474
# Poissons Ratio (z) = 0.48660 0.29225
#
# Static dielectric constant tensor:
#      x y z
#    x 1.687750 0.000000 0.000000 
#    y 0.000000 1.661110 0.000000 
#    z 0.000000 0.000000 1.551780 
# 
# From -- ./inp_files/36143.got.cif
#   From: 2010.05.17/outbox.cif.g08.bks.cpg/sg67_19_cif.got.tgz:36143.got - 2010.06.03 18:28:57.
