data_PCOD9502003
_publ_section_title
;
Structure prediction by ZEFSAII (Michael W. Deem and Ramdas Pophale) SiO2 
 PCOD9502003
Probable space group: C M M A
;
_chemical_formula_sum "Si O2"
_cell_formula_units_Z 88
_cell_length_a 14.396673
_cell_length_b 14.115794
_cell_length_c 21.126049
_cell_angle_alpha 90.000000
_cell_angle_beta 90.000000
_cell_angle_gamma 90.000000
_cell_volume 4293.245614
_symmetry_space_group_name_H-M "C M M A"
_symmetry_group_IT_number 67
_symmetry_cell_setting 'orthorhombic'
loop_
_space_group_symop_operation_xyz
x,y,z
-x,1/2-y,z
x,-y,-z
-x,1/2+y,-z
-x,-y,-z
x,1/2+y,-z
-x,y,z
x,1/2-y,z
1/2+x,1/2+y,z
1/2-x,-y,z
1/2+x,1/2-y,-z
1/2-x,y,-z
1/2-x,1/2-y,-z
1/2+x,y,-z
1/2-x,1/2+y,z
1/2+x,-y,z
loop_
_atom_site_type_symbol
_atom_site_label
_atom_site_fract_x
_atom_site_fract_y
_atom_site_fract_z
Si Si1 0.250000 0.000000 0.200576
Si Si2 0.651503 0.965432 0.601805
Si Si3 0.718827 0.648456 0.104609
Si Si4 0.605541 0.389906 0.018171
Si Si5 0.892931 0.142429 0.480278
Si Si6 0.605151 0.862977 0.727600
O O1 0.192337 0.067803 0.153572
O O2 0.319239 0.071153 0.237084
O O3 0.662814 0.898739 0.540120
O O4 0.603869 0.904982 0.656235
O O5 0.750000 0.000000 0.627194
O O6 0.609015 0.063423 0.574837
O O7 0.721603 0.750000 0.136983
O O8 0.820502 0.628888 0.073816
O O9 0.649342 0.652530 0.045533
O O10 0.500000 0.360381 0.031926
O O11 0.605231 0.500000 0.000000
O O12 0.866301 0.250000 0.462441
O O13 0.000000 0.144975 0.502513
O O14 0.500000 0.873245 0.753891
O O15 0.627345 0.750000 0.727505
#
# Coordination Sequence:
#
# PCOD9502003 Si02
#       6
#     8  16  16  16  16  16
#     4  12  24  45  62  93 126 164 214 278 316 362
#     4  11  21  37  60  89 124 164 207 264 316 379
#     4  11  22  38  62  90 126 165 202 251 313 374
#     4  10  19  36  62  92 128 165 200 245 309 378
#     4  10  20  34  57  91 128 163 202 253 317 386
#     4  11  25  46  70  92 120 168 223 269 319 380
#
# _framework density 20.497312999999998
#
# number of rings (size 3 to 8) (size 9 to 14) (size 15 to 20)
#    0.000    1.273    2.727    6.000    0.000    6.545 
#    0.000    0.000    0.000    2.727    0.000    0.000 
#    0.000    0.000    0.000    0.000    0.000    0.000 
#
# Total GULP energy -245410.736841 kJ/mol
# GULP energy per Si atom -5577.516746 kJ/mol
# Density = 2.045066 g / cm^3
# Si number density = 20.497313 Si / 1000 Ang^3
#
#
#
# Elastic Constant Matrix: (Units=GPa)
#
#
# Indices 1 2 3 4 5 6 
#
# 1 99.3344 33.1496 17.7950 0.0000 0.0000 0.0000
# 2 33.1496 199.8356 53.0264 0.0000 0.0000 0.0000
# 3 17.7950 53.0264 74.7724 0.0000 0.0000 0.0000
# 4 0.0000 0.0000 0.0000 17.8144 0.0000 0.0000
# 5 0.0000 0.0000 0.0000 0.0000 12.9150 0.0000
# 6 0.0000 0.0000 0.0000 0.0000 0.0000 22.3193
#
#
#
# Elastic Compliance Matrix: (Units=1/GPa)
#
#
# Indices 1 2 3 4 5 6 
#
# 1 0.010811 -0.001368 -0.001603 0.000000 0.000000 0.000000
# 2 -0.001368 0.006337 -0.004169 0.000000 0.000000 0.000000
# 3 -0.001603 -0.004169 0.016712 0.000000 0.000000 0.000000
# 4 0.000000 0.000000 0.000000 0.056134 0.000000 0.000000
# 5 0.000000 0.000000 0.000000 0.000000 0.077429 0.000000
# 6 0.000000 0.000000 0.000000 0.000000 0.000000 0.044804
#
#
# Mechanical properties :
#
#
# Convention : Reuss Voigt Hill
#
# Bulk Modulus (GPa) = 51.07020 64.65379 57.86200
# Shear Modulus (GPa) = 21.45620 28.60783 25.03201
#
# Velocity S-wave (km/s) = 3.23891 3.73994 3.49841
# Velocity P-wave (km/s) = 6.24156 7.08947 6.67898
#
# Compressibility (1/GPa) = 0.01958089
#
# Stress axis : x y z
#
# Youngs Moduli (GPa) = 92.50135 157.79892 59.83889
#
# Poissons Ratio (x) = 0.21588 0.09590
# Poissons Ratio (y) = 0.12655 0.24944
# Poissons Ratio (z) = 0.14824 0.65779
#
# Static dielectric constant tensor:
#      x y z
#    x 1.770930 0.000000 0.000000 
#    y 0.000000 1.776390 0.000000 
#    z 0.000000 0.000000 1.722660 
# 
# From -- ./inp_files/38312.got.cif
#   From: 2010.05.17/outbox.cif.g08.bks.cpg/sg67_20_cif.got.tgz:38312.got - 2010.06.03 18:28:57.
