data_PCOD9502944
_publ_section_title
;
Structure prediction by ZEFSAII (Michael W. Deem and Ramdas Pophale) SiO2 
 PCOD9502944
Probable space group: C M M A
;
_chemical_formula_sum "Si O2"
_cell_formula_units_Z 96
_cell_length_a 17.771957
_cell_length_b 11.995850
_cell_length_c 24.556511
_cell_angle_alpha 90.000000
_cell_angle_beta 90.000000
_cell_angle_gamma 90.000000
_cell_volume 5235.195959
_symmetry_space_group_name_H-M "C M M A"
_symmetry_group_IT_number 67
_symmetry_cell_setting 'orthorhombic'
loop_
_space_group_symop_operation_xyz
x,y,z
-x,1/2-y,z
x,-y,-z
-x,1/2+y,-z
-x,-y,-z
x,1/2+y,-z
-x,y,z
x,1/2-y,z
1/2+x,1/2+y,z
1/2-x,-y,z
1/2+x,1/2-y,-z
1/2-x,y,-z
1/2-x,1/2-y,-z
1/2+x,y,-z
1/2-x,1/2+y,z
1/2+x,-y,z
loop_
_atom_site_type_symbol
_atom_site_label
_atom_site_fract_x
_atom_site_fract_y
_atom_site_fract_z
Si Si1 0.160218 0.019266 0.062870
Si Si2 0.227059 0.623988 0.436844
Si Si3 0.909226 0.378375 0.840807
Si Si4 0.408682 0.750000 0.104818
Si Si5 0.592093 0.989999 0.267520
Si Si6 0.909260 0.250000 0.234611
Si Si7 0.585155 0.877546 0.627191
O O1 0.130606 0.140952 0.080100
O O2 0.250000 0.000000 0.067248
O O3 0.122067 0.934648 0.105015
O O4 0.139064 0.000000 0.000000
O O5 0.251633 0.750000 0.415654
O O6 0.250000 0.500000 0.415087
O O7 0.250000 0.624332 0.500000
O O8 0.138233 0.621222 0.424899
O O9 0.886571 0.250000 0.837318
O O10 0.884333 0.443646 0.786575
O O11 0.000000 0.384299 0.842446
O O12 0.500000 0.750000 0.096225
O O13 0.395672 0.750000 0.169936
O O14 0.500000 0.991790 0.267620
O O15 0.615322 0.047672 0.323467
O O16 0.618652 0.863436 0.261479
O O17 0.000000 0.250000 0.240477
O O18 0.500000 0.911217 0.614221
O O19 0.583392 0.750000 0.647806
#
# Coordination Sequence:
#
# PCOD9502944 Si02
#       7
#    16  16  16   8  16   8  16
#     4  11  26  41  58  80 116 153 191 240 305 359
#     4   9  18  35  57  79 110 152 191 230 281 334
#     4  10  20  35  57  83 109 140 186 239 288 348
#     4  11  22  41  67  87 110 150 202 248 296 365
#     4   9  16  30  52  81 113 144 180 234 295 343
#     4   9  16  30  53  81 112 143 180 232 296 348
#     4   9  17  31  55  84 112 146 192 239 284 340
#
# _framework density 18.337423999999999
#
# number of rings (size 3 to 8) (size 9 to 14) (size 15 to 20)
#    0.000    2.333    1.667    1.000    2.333    4.000 
#    1.500    2.500    0.000    1.000    0.000    0.000 
#    0.000    0.000    0.000    0.000    0.000    0.000 
#
# Total GULP energy -267238.352205 kJ/mol
# GULP energy per Si atom -5567.465671 kJ/mol
# Density = 1.829569 g / cm^3
# Si number density = 18.337424 Si / 1000 Ang^3
#
#
#
# Elastic Constant Matrix: (Units=GPa)
#
#
# Indices 1 2 3 4 5 6 
#
# 1 42.2725 43.7945 43.2782 0.0000 0.0000 0.0000
# 2 43.7945 150.3742 45.7672 0.0000 0.0000 0.0000
# 3 43.2782 45.7672 104.8489 0.0000 0.0000 0.0000
# 4 0.0000 0.0000 0.0000 21.7075 0.0000 0.0000
# 5 0.0000 0.0000 0.0000 0.0000 -4.5683 0.0000
# 6 0.0000 0.0000 0.0000 0.0000 0.0000 20.2577
#
#
#
# Elastic Compliance Matrix: (Units=1/GPa)
#
#
# Indices 1 2 3 4 5 6 
#
# 1 0.050884 -0.009718 -0.016761 0.000000 0.000000 0.000000
# 2 -0.009718 0.009525 -0.000146 0.000000 0.000000 0.000000
# 3 -0.016761 -0.000146 0.016520 0.000000 0.000000 0.000000
# 4 0.000000 0.000000 0.000000 0.046067 0.000000 0.000000
# 5 0.000000 0.000000 0.000000 0.000000 -0.218901 0.000000
# 6 0.000000 0.000000 0.000000 0.000000 0.000000 0.049364
#
#
# Mechanical properties :
#
#
# Convention : Reuss Voigt Hill
#
# Bulk Modulus (GPa) = 42.23422 62.57504 52.40463
# Shear Modulus (GPa) = 342.41017 18.45643 180.43330
#
# Velocity S-wave (km/s) = 13.67965 3.17596 9.93025
# Velocity P-wave (km/s) = 16.51037 6.90270 12.65384
#
# Compressibility (1/GPa) = 0.02367748
#
# Stress axis : x y z
#
# Youngs Moduli (GPa) = 19.65260 104.98851 60.53280
#
# Poissons Ratio (x) = 1.02027 1.01461
# Poissons Ratio (y) = 0.19098 0.00886
# Poissons Ratio (z) = 0.32940 0.01537
#
# Static dielectric constant tensor:
#      x y z
#    x 1.637950 0.000000 0.000000 
#    y 0.000000 1.681890 0.000000 
#    z 0.000000 0.000000 1.575500 
# 
# From -- ./inp_files/42170.got.cif
#   From: 2010.05.17/outbox.cif.g08.bks.cpg/sg67_22_cif.got.tgz:42170.got - 2010.06.03 18:28:57.
