data_PCOD9502839
_publ_section_title
;
Structure prediction by ZEFSAII (Michael W. Deem and Ramdas Pophale) SiO2 
 PCOD9502839
Probable space group: C M M A
;
_chemical_formula_sum "Si O2"
_cell_formula_units_Z 88
_cell_length_a 8.998597
_cell_length_b 16.298082
_cell_length_c 30.720891
_cell_angle_alpha 90.000000
_cell_angle_beta 90.000000
_cell_angle_gamma 90.000000
_cell_volume 4505.521935
_symmetry_space_group_name_H-M "C M M A"
_symmetry_group_IT_number 67
_symmetry_cell_setting 'orthorhombic'
loop_
_space_group_symop_operation_xyz
x,y,z
-x,1/2-y,z
x,-y,-z
-x,1/2+y,-z
-x,-y,-z
x,1/2+y,-z
-x,y,z
x,1/2-y,z
1/2+x,1/2+y,z
1/2-x,-y,z
1/2+x,1/2-y,-z
1/2-x,y,-z
1/2-x,1/2-y,-z
1/2+x,y,-z
1/2-x,1/2+y,z
1/2+x,-y,z
loop_
_atom_site_type_symbol
_atom_site_label
_atom_site_fract_x
_atom_site_fract_y
_atom_site_fract_z
Si Si1 0.178496 0.589765 0.276156
Si Si2 0.679250 0.750000 0.047491
Si Si3 0.821932 0.909814 0.371579
Si Si4 0.332780 0.651963 0.457129
Si Si5 0.677339 0.845105 0.817226
Si Si6 0.822279 0.084485 0.099556
O O1 0.250000 0.500000 0.273391
O O2 0.216409 0.626284 0.323704
O O3 0.220560 0.638501 0.232820
O O4 0.000000 0.581432 0.275606
O O5 0.500000 0.750000 0.044552
O O6 0.722071 0.833686 0.072777
O O7 0.750000 0.750000 0.000000
O O8 0.756209 0.864427 0.413086
O O9 0.000000 0.914369 0.375016
O O10 0.750000 0.000000 0.372108
O O11 0.500000 0.618300 0.453894
O O12 0.343134 0.750000 0.462325
O O13 0.250000 0.618957 0.500000
O O14 0.500000 0.860520 0.821522
O O15 0.704923 0.750000 0.827558
O O16 0.765434 0.900095 0.851353
O O17 0.000000 0.077550 0.098717
O O18 0.750000 0.000000 0.082995
#
# Coordination Sequence:
#
# PCOD9502839 Si02
#       6
#    16   8  16  16  16  16
#     4   9  19  34  52  77 109 146 187 231 280 338
#     4  10  24  44  66  92 128 164 206 258 309 364
#     4  10  20  35  55  78 108 143 180 226 278 332
#     4  10  21  37  56  78 104 134 173 221 274 336
#     4  10  20  35  57  86 119 157 200 245 293 350
#     4  11  23  41  63  92 126 164 207 255 308 364
#
# _framework density 19.531590000000001
#
# number of rings (size 3 to 8) (size 9 to 14) (size 15 to 20)
#    0.000    2.000    0.909    2.182    0.000    6.909 
#    0.000    5.455    0.000    0.000    0.000    0.000 
#    0.000    0.000    0.000    0.000    0.000    0.000 
#
# Total GULP energy -245572.674674 kJ/mol
# GULP energy per Si atom -5581.197152 kJ/mol
# Density = 1.948713 g / cm^3
# Si number density = 19.531590 Si / 1000 Ang^3
#
#
#
# Elastic Constant Matrix: (Units=GPa)
#
#
# Indices 1 2 3 4 5 6 
#
# 1 60.7489 36.8411 47.4955 0.0000 0.0000 0.0000
# 2 36.8411 82.8065 49.8576 0.0000 0.0000 0.0000
# 3 47.4955 49.8576 139.3619 0.0000 0.0000 0.0000
# 4 0.0000 0.0000 0.0000 37.0094 0.0000 0.0000
# 5 0.0000 0.0000 0.0000 0.0000 35.5265 0.0000
# 6 0.0000 0.0000 0.0000 0.0000 0.0000 27.9923
#
#
#
# Elastic Compliance Matrix: (Units=1/GPa)
#
#
# Indices 1 2 3 4 5 6 
#
# 1 0.025976 -0.007936 -0.006014 0.000000 0.000000 0.000000
# 2 -0.007936 0.017816 -0.003669 0.000000 0.000000 0.000000
# 3 -0.006014 -0.003669 0.010538 0.000000 0.000000 0.000000
# 4 0.000000 0.000000 0.000000 0.027020 0.000000 0.000000
# 5 0.000000 0.000000 0.000000 0.000000 0.028148 0.000000
# 6 0.000000 0.000000 0.000000 0.000000 0.000000 0.035724
#
#
# Mechanical properties :
#
#
# Convention : Reuss Voigt Hill
#
# Bulk Modulus (GPa) = 52.37763 61.25619 56.81691
# Shear Modulus (GPa) = 26.76325 30.02052 28.39189
#
# Velocity S-wave (km/s) = 3.70571 3.92474 3.81680
# Velocity P-wave (km/s) = 6.72197 7.20894 6.96971
#
# Compressibility (1/GPa) = 0.01909212
#
# Stress axis : x y z
#
# Youngs Moduli (GPa) = 38.49778 56.12822 94.89716
#
# Poissons Ratio (x) = 0.44543 0.57067
# Poissons Ratio (y) = 0.30552 0.34820
# Poissons Ratio (z) = 0.23151 0.20595
#
# Static dielectric constant tensor:
#      x y z
#    x 1.663480 0.000000 0.000000 
#    y 0.000000 1.682580 0.000000 
#    z 0.000000 0.000000 1.692630 
# 
# From -- ./inp_files/45257.got.cif
#   From: 2010.05.17/outbox.cif.g08.bks.cpg/sg67_23_cif.got.tgz:45257.got - 2010.06.03 18:28:57.
