data_PCOD9502558
_publ_section_title
;
Structure prediction by ZEFSAII (Michael W. Deem and Ramdas Pophale) SiO2 
 PCOD9502558
Probable space group: C M M A
;
_chemical_formula_sum "Si O2"
_cell_formula_units_Z 80
_cell_length_a 29.396522
_cell_length_b 16.415251
_cell_length_c 8.751320
_cell_angle_alpha 90.000000
_cell_angle_beta 90.000000
_cell_angle_gamma 90.000000
_cell_volume 4222.960730
_symmetry_space_group_name_H-M "C M M A"
_symmetry_group_IT_number 67
_symmetry_cell_setting 'orthorhombic'
loop_
_space_group_symop_operation_xyz
x,y,z
-x,1/2-y,z
x,-y,-z
-x,1/2+y,-z
-x,-y,-z
x,1/2+y,-z
-x,y,z
x,1/2-y,z
1/2+x,1/2+y,z
1/2-x,-y,z
1/2+x,1/2-y,-z
1/2-x,y,-z
1/2-x,1/2-y,-z
1/2+x,y,-z
1/2-x,1/2+y,z
1/2+x,-y,z
loop_
_atom_site_type_symbol
_atom_site_label
_atom_site_fract_x
_atom_site_fract_y
_atom_site_fract_z
Si Si1 0.803885 0.511317 0.822373
Si Si2 0.947531 0.416546 0.096872
Si Si3 0.869319 0.079583 0.600060
Si Si4 0.449476 0.656755 0.780306
Si Si5 0.364476 0.844957 0.286955
O O1 0.750000 0.500000 0.806346
O O2 0.828547 0.445896 0.712559
O O3 0.822772 0.600095 0.774737
O O4 0.816254 0.500000 0.000000
O O5 0.909835 0.390320 0.220179
O O6 0.000000 0.421590 0.154281
O O7 0.938310 0.500000 0.000000
O O8 0.945800 0.349585 0.962710
O O9 0.911615 0.103256 0.702519
O O10 0.861772 0.147438 0.470792
O O11 0.879079 0.000000 0.500000
O O12 0.500000 0.627598 0.739321
O O13 0.444617 0.750000 0.731883
O O14 0.363940 0.750000 0.241913
#
# Coordination Sequence:
#
# PCOD9502558 Si02
#       5
#    16  16  16  16  16
#     4  10  22  43  66  84 107 146 193 241 292 349
#     4  10  20  35  57  84 116 158 202 236 274 332
#     4  10  21  36  57  83 113 150 188 230 285 349
#     4  10  20  34  52  77 111 150 191 233 273 316
#     4  11  22  36  57  89 123 153 189 237 295 349
#
# _framework density 18.944056
#
# number of rings (size 3 to 8) (size 9 to 14) (size 15 to 20)
#    0.000    1.800    0.000    5.400    0.000    6.000 
#    0.000    6.000    0.000    0.000    0.000    0.000 
#    0.000    0.000    0.000    0.000    0.000    0.000 
#
# Total GULP energy -223120.197673 kJ/mol
# GULP energy per Si atom -5578.004942 kJ/mol
# Density = 1.890094 g / cm^3
# Si number density = 18.944056 Si / 1000 Ang^3
#
#
#
# Elastic Constant Matrix: (Units=GPa)
#
#
# Indices 1 2 3 4 5 6 
#
# 1 122.9095 55.9169 67.4789 0.0000 0.0000 0.0000
# 2 55.9169 83.2621 31.5403 0.0000 0.0000 0.0000
# 3 67.4789 31.5403 106.2331 0.0000 0.0000 0.0000
# 4 0.0000 0.0000 0.0000 13.6688 0.0000 0.0000
# 5 0.0000 0.0000 0.0000 0.0000 -242.2777 0.0000
# 6 0.0000 0.0000 0.0000 0.0000 0.0000 6.6068
#
#
#
# Elastic Compliance Matrix: (Units=1/GPa)
#
#
# Indices 1 2 3 4 5 6 
#
# 1 0.015968 -0.007754 -0.007841 0.000000 0.000000 0.000000
# 2 -0.007754 0.017297 -0.000210 0.000000 0.000000 0.000000
# 3 -0.007841 -0.000210 0.014456 0.000000 0.000000 0.000000
# 4 0.000000 0.000000 0.000000 0.073159 0.000000 0.000000
# 5 0.000000 0.000000 0.000000 0.000000 -0.004127 0.000000
# 6 0.000000 0.000000 0.000000 0.000000 0.000000 0.151359
#
#
# Mechanical properties :
#
#
# Convention : Reuss Voigt Hill
#
# Bulk Modulus (GPa) = 62.06673 69.14188 65.60431
# Shear Modulus (GPa) = 16.38843 -33.90251 -8.75704
#
# Velocity S-wave (km/s) = 2.94444 -4.23497 -2.15235
# Velocity P-wave (km/s) = 6.66288 3.55863 5.34125
#
# Compressibility (1/GPa) = 0.01611169
#
# Stress axis : x y z
#
# Youngs Moduli (GPa) = 62.62361 57.81284 69.17407
#
# Poissons Ratio (x) = 0.44827 0.54239
# Poissons Ratio (y) = 0.48557 0.01455
# Poissons Ratio (z) = 0.49103 0.01216
#
# Static dielectric constant tensor:
#      x y z
#    x 1.647120 0.000000 0.000000 
#    y 0.000000 1.695970 0.000000 
#    z 0.000000 0.000000 1.680530 
# 
# From -- ./inp_files/13524.got.cif
#   From: 2010.05.17/outbox.cif.g08.bks.cpg/sg67_7_cif.got.tgz:13524.got - 2010.06.03 18:28:57.
