data_PCOD9502527
_publ_section_title
;
Structure prediction by ZEFSAII (Michael W. Deem and Ramdas Pophale) SiO2 
 PCOD9502527
Probable space group: C M M A
;
_chemical_formula_sum "Si O2"
_cell_formula_units_Z 96
_cell_length_a 20.036093
_cell_length_b 8.674139
_cell_length_c 31.320527
_cell_angle_alpha 90.000000
_cell_angle_beta 90.000000
_cell_angle_gamma 90.000000
_cell_volume 5443.377791
_symmetry_space_group_name_H-M "C M M A"
_symmetry_group_IT_number 67
_symmetry_cell_setting 'orthorhombic'
loop_
_space_group_symop_operation_xyz
x,y,z
-x,1/2-y,z
x,-y,-z
-x,1/2+y,-z
-x,-y,-z
x,1/2+y,-z
-x,y,z
x,1/2-y,z
1/2+x,1/2+y,z
1/2-x,-y,z
1/2+x,1/2-y,-z
1/2-x,y,-z
1/2-x,1/2-y,-z
1/2+x,y,-z
1/2-x,1/2+y,z
1/2+x,-y,z
loop_
_atom_site_type_symbol
_atom_site_label
_atom_site_fract_x
_atom_site_fract_y
_atom_site_fract_z
Si Si1 0.076930 0.564137 0.953947
Si Si2 0.078147 0.065974 0.382942
Si Si3 0.922618 0.064504 0.709703
Si Si4 0.176412 0.933751 0.453576
Si Si5 0.175874 0.564389 0.878387
Si Si6 0.175982 0.935431 0.213965
O O1 0.078009 0.750000 0.955773
O O2 0.125303 0.515971 0.915665
O O3 0.000000 0.515445 0.946526
O O4 0.097970 0.500000 0.000000
O O5 0.084684 0.250000 0.386338
O O6 0.000000 0.025181 0.389334
O O7 0.096333 0.012357 0.335159
O O8 0.124489 0.986335 0.417819
O O9 0.918739 0.250000 0.704783
O O10 0.874592 0.019662 0.748468
O O11 0.000000 0.024831 0.718782
O O12 0.180066 0.750000 0.455952
O O13 0.157075 0.000000 0.500000
O O14 0.250000 0.000000 0.443786
O O15 0.178460 0.750000 0.876739
O O16 0.250000 0.500000 0.886703
O O17 0.154870 0.501128 0.832065
O O18 0.178842 0.750000 0.211529
O O19 0.250000 0.000000 0.222591
#
# Coordination Sequence:
#
# PCOD9502527 Si02
#       6
#    16  16  16  16  16  16
#     4   9  19  35  53  74 100 131 167 207 251 299
#     4  10  21  37  57  82 111 143 181 222 265 316
#     4   9  19  36  55  76 104 138 176 217 261 309
#     4  11  22  38  59  82 111 144 180 223 269 318
#     4  10  20  34  52  74 102 133 167 208 252 302
#     4  10  20  34  53  76 103 135 171 212 257 307
#
# _framework density 17.636108
#
# number of rings (size 3 to 8) (size 9 to 14) (size 15 to 20)
#    0.000    2.167    0.000    4.500    0.000    5.667 
#    0.000    3.333    0.000    0.000    0.000    0.000 
#    0.000    0.000    0.000    0.000    0.000    0.000 
#
# Total GULP energy -267974.103683 kJ/mol
# GULP energy per Si atom -5582.793827 kJ/mol
# Density = 1.759597 g / cm^3
# Si number density = 17.636108 Si / 1000 Ang^3
#
#
#
# Elastic Constant Matrix: (Units=GPa)
#
#
# Indices 1 2 3 4 5 6 
#
# 1 93.6080 50.2212 122.0330 0.0000 0.0000 0.0000
# 2 50.2212 71.3431 69.1335 0.0000 0.0000 0.0000
# 3 122.0330 69.1335 187.7343 0.0000 0.0000 0.0000
# 4 0.0000 0.0000 0.0000 33.9574 0.0000 0.0000
# 5 0.0000 0.0000 0.0000 0.0000 44.2685 0.0000
# 6 0.0000 0.0000 0.0000 0.0000 0.0000 24.9472
#
#
#
# Elastic Compliance Matrix: (Units=1/GPa)
#
#
# Indices 1 2 3 4 5 6 
#
# 1 0.073128 -0.008419 -0.044435 0.000000 0.000000 0.000000
# 2 -0.008419 0.022763 -0.002910 0.000000 0.000000 0.000000
# 3 -0.044435 -0.002910 0.035283 0.000000 0.000000 0.000000
# 4 0.000000 0.000000 0.000000 0.029449 0.000000 0.000000
# 5 0.000000 0.000000 0.000000 0.000000 0.022589 0.000000
# 6 0.000000 0.000000 0.000000 0.000000 0.000000 0.040085
#
#
# Mechanical properties :
#
#
# Convention : Reuss Voigt Hill
#
# Bulk Modulus (GPa) = 50.90211 92.82898 71.86555
# Shear Modulus (GPa) = 14.64674 28.05447 21.35060
#
# Velocity S-wave (km/s) = 2.88496 3.99274 3.48317
# Velocity P-wave (km/s) = 6.32633 8.60267 7.55077
#
# Compressibility (1/GPa) = 0.01964555
#
# Stress axis : x y z
#
# Youngs Moduli (GPa) = 13.67465 43.93097 28.34256
#
# Poissons Ratio (x) = 0.36984 1.25941
# Poissons Ratio (y) = 0.11512 0.08248
# Poissons Ratio (z) = 0.60764 0.12785
#
# Static dielectric constant tensor:
#      x y z
#    x 1.586340 0.000000 0.000000 
#    y 0.000000 1.596200 0.000000 
#    z 0.000000 0.000000 1.574340 
# 
# From -- ./inp_files/43506.got.cif
#   From: 2010.05.17/outbox.cif.g08.bks.cpg/sg67_22_cif.got.tgz:43506.got - 2010.06.03 18:28:57.
