data_PCOD9502459
_publ_section_title
;
Structure prediction by ZEFSAII (Michael W. Deem and Ramdas Pophale) SiO2 
 PCOD9502459
Probable space group: C M M A
;
_chemical_formula_sum "Si O2"
_cell_formula_units_Z 104
_cell_length_a 26.682593
_cell_length_b 23.801656
_cell_length_c 8.913572
_cell_angle_alpha 90.000000
_cell_angle_beta 90.000000
_cell_angle_gamma 90.000000
_cell_volume 5660.919548
_symmetry_space_group_name_H-M "C M M A"
_symmetry_group_IT_number 67
_symmetry_cell_setting 'orthorhombic'
loop_
_space_group_symop_operation_xyz
x,y,z
-x,1/2-y,z
x,-y,-z
-x,1/2+y,-z
-x,-y,-z
x,1/2+y,-z
-x,y,z
x,1/2-y,z
1/2+x,1/2+y,z
1/2-x,-y,z
1/2+x,1/2-y,-z
1/2-x,y,-z
1/2-x,1/2-y,-z
1/2+x,y,-z
1/2-x,1/2+y,z
1/2+x,-y,z
loop_
_atom_site_type_symbol
_atom_site_label
_atom_site_fract_x
_atom_site_fract_y
_atom_site_fract_z
Si Si1 0.327913 0.500000 0.500000
Si Si2 0.734426 0.558978 0.232694
Si Si3 0.840558 0.606621 0.338445
Si Si4 0.298652 0.334768 0.906917
Si Si5 0.393972 0.685550 0.892543
Si Si6 0.944747 0.681831 0.809875
Si Si7 0.150718 0.686680 0.615062
O O1 0.294693 0.461844 0.615950
O O2 0.356985 0.545431 0.600071
O O3 0.750000 0.500000 0.163251
O O4 0.785416 0.593765 0.268615
O O5 0.702055 0.598165 0.124319
O O6 0.879145 0.639257 0.230514
O O7 0.834613 0.647698 0.479052
O O8 0.305612 0.312084 0.739378
O O9 0.250000 0.319350 0.000000
O O10 0.344874 0.313344 0.002438
O O11 0.403355 0.750000 0.838111
O O12 0.435491 0.667783 0.014983
O O13 0.943061 0.750000 0.805826
O O14 0.898808 0.664006 0.702850
O O15 0.000000 0.663384 0.760910
O O16 0.140530 0.750000 0.563475
#
# Coordination Sequence:
#
# PCOD9502459 Si02
#       7
#     8  16  16  16  16  16  16
#     4  10  21  36  54  68 103 148 193 228 252 284
#     4  10  20  34  50  66 100 144 186 225 251 282
#     4  11  19  35  51  74 105 136 178 225 261 295
#     4  11  20  34  46  71 106 141 179 209 255 313
#     4  10  21  34  51  79 111 137 169 216 265 327
#     4   8  16  35  58  77 102 135 167 210 269 324
#     4  10  21  33  51  78 106 136 174 215 262 328
#
# _framework density 18.371573999999999
#
# number of rings (size 3 to 8) (size 9 to 14) (size 15 to 20)
#    0.000    2.000    3.077    3.923    0.000    1.538 
#    0.000    1.538    0.000    3.692    0.000    3.231 
#    0.000    0.000    0.000    0.000    0.000    0.000 
#
# Total GULP energy -289577.442569 kJ/mol
# GULP energy per Si atom -5568.796972 kJ/mol
# Density = 1.832976 g / cm^3
# Si number density = 18.371574 Si / 1000 Ang^3
#
#
#
# Elastic Constant Matrix: (Units=GPa)
#
#
# Indices 1 2 3 4 5 6 
#
# 1 55.4033 13.2445 12.3206 0.0000 0.0000 0.0000
# 2 13.2445 100.6544 24.6434 0.0000 0.0000 0.0000
# 3 12.3206 24.6434 66.5592 0.0000 0.0000 0.0000
# 4 0.0000 0.0000 0.0000 32.3007 0.0000 0.0000
# 5 0.0000 0.0000 0.0000 0.0000 9.2384 0.0000
# 6 0.0000 0.0000 0.0000 0.0000 0.0000 2.1741
#
#
#
# Elastic Compliance Matrix: (Units=1/GPa)
#
#
# Indices 1 2 3 4 5 6 
#
# 1 0.019121 -0.001814 -0.002868 0.000000 0.000000 0.000000
# 2 -0.001814 0.011097 -0.003773 0.000000 0.000000 0.000000
# 3 -0.002868 -0.003773 0.016952 0.000000 0.000000 0.000000
# 4 0.000000 0.000000 0.000000 0.030959 0.000000 0.000000
# 5 0.000000 0.000000 0.000000 0.000000 0.108244 0.000000
# 6 0.000000 0.000000 0.000000 0.000000 0.000000 0.459970
#
#
# Mechanical properties :
#
#
# Convention : Reuss Voigt Hill
#
# Bulk Modulus (GPa) = 33.04602 35.89266 34.46934
# Shear Modulus (GPa) = 7.42567 20.23651 13.83109
#
# Velocity S-wave (km/s) = 2.01264 3.32250 2.74679
# Velocity P-wave (km/s) = 4.84020 5.85647 5.37242
#
# Compressibility (1/GPa) = 0.03026083
#
# Stress axis : x y z
#
# Youngs Moduli (GPa) = 52.29904 90.11107 58.98991
#
# Poissons Ratio (x) = 0.16345 0.16917
# Poissons Ratio (y) = 0.09486 0.22257
# Poissons Ratio (z) = 0.14998 0.33999
#
# Static dielectric constant tensor:
#      x y z
#    x 1.647220 0.000000 0.000000 
#    y 0.000000 1.673820 0.000000 
#    z 0.000000 0.000000 1.696160 
# 
# From -- ./inp_files/13977.got.cif
#   From: 2010.05.17/outbox.cif.g08.bks.cpg/sg67_7_cif.got.tgz:13977.got - 2010.06.03 18:28:57.
