data_PCOD9502355
_publ_section_title
;
Structure prediction by ZEFSAII (Michael W. Deem and Ramdas Pophale) SiO2 
 PCOD9502355
Probable space group: C M M A
;
_chemical_formula_sum "Si O2"
_cell_formula_units_Z 88
_cell_length_a 15.235427
_cell_length_b 8.919414
_cell_length_c 32.002324
_cell_angle_alpha 90.000000
_cell_angle_beta 90.000000
_cell_angle_gamma 90.000000
_cell_volume 4348.830399
_symmetry_space_group_name_H-M "C M M A"
_symmetry_group_IT_number 67
_symmetry_cell_setting 'orthorhombic'
loop_
_space_group_symop_operation_xyz
x,y,z
-x,1/2-y,z
x,-y,-z
-x,1/2+y,-z
-x,-y,-z
x,1/2+y,-z
-x,y,z
x,1/2-y,z
1/2+x,1/2+y,z
1/2-x,-y,z
1/2+x,1/2-y,-z
1/2-x,y,-z
1/2-x,1/2-y,-z
1/2+x,y,-z
1/2-x,1/2+y,z
1/2+x,-y,z
loop_
_atom_site_type_symbol
_atom_site_label
_atom_site_fract_x
_atom_site_fract_y
_atom_site_fract_z
Si Si1 0.103572 0.583948 0.540465
Si Si2 0.151545 0.070058 0.716225
Si Si3 0.000000 0.568432 0.954143
Si Si4 0.152036 0.929655 0.799131
Si Si5 0.346547 0.430132 0.891931
Si Si6 0.846521 0.428980 0.624965
O O1 0.141293 0.500000 0.500000
O O2 0.142771 0.750000 0.545271
O O3 0.111135 0.494029 0.583413
O O4 0.000000 0.600458 0.532607
O O5 0.156968 0.250000 0.720428
O O6 0.112031 0.035301 0.670497
O O7 0.250000 0.000000 0.714885
O O8 0.109294 0.000726 0.757838
O O9 0.914328 0.522445 0.927552
O O10 0.000000 0.750000 0.956528
O O11 0.000000 0.500000 0.000000
O O12 0.156243 0.750000 0.794214
O O13 0.116189 0.964122 0.845354
O O14 0.250000 0.000000 0.800674
O O15 0.337459 0.250000 0.893682
O O16 0.250000 0.500000 0.896619
O O17 0.841864 0.250000 0.622136
O O18 0.750000 0.500000 0.625492
#
# Coordination Sequence:
#
# PCOD9502355 Si02
#       6
#    16  16   8  16  16  16
#     4  10  21  37  56  75  96 126 166 210 257 312
#     4   9  16  26  43  70 102 135 167 205 251 302
#     4  10  22  40  58  80 112 148 186 230 283 334
#     4   9  15  25  45  72  99 133 171 211 253 303
#     4   9  19  35  56  81 110 145 185 230 277 330
#     4  10  20  33  51  76 105 136 168 208 256 306
#
# _framework density 20.235326000000001
#
# number of rings (size 3 to 8) (size 9 to 14) (size 15 to 20)
#    0.000    2.545    0.000    3.273    0.000    5.455 
#    0.000    3.636    2.000    0.000    0.000    0.000 
#    0.000    0.000    0.000    0.000    0.000    0.000 
#
# Total GULP energy -245272.481995 kJ/mol
# GULP energy per Si atom -5574.374591 kJ/mol
# Density = 2.018927 g / cm^3
# Si number density = 20.235326 Si / 1000 Ang^3
#
#
#
# Elastic Constant Matrix: (Units=GPa)
#
#
# Indices 1 2 3 4 5 6 
#
# 1 54.8783 19.0394 47.6890 0.0000 0.0000 0.0000
# 2 19.0394 88.8210 81.8939 0.0000 0.0000 0.0000
# 3 47.6890 81.8939 233.4134 0.0000 0.0000 0.0000
# 4 0.0000 0.0000 0.0000 -432.6427 0.0000 0.0000
# 5 0.0000 0.0000 0.0000 0.0000 66.2418 0.0000
# 6 0.0000 0.0000 0.0000 0.0000 0.0000 12.6901
#
#
#
# Elastic Compliance Matrix: (Units=1/GPa)
#
#
# Indices 1 2 3 4 5 6 
#
# 1 0.022199 -0.000853 -0.004236 0.000000 0.000000 0.000000
# 2 -0.000853 0.016675 -0.005676 0.000000 0.000000 0.000000
# 3 -0.004236 -0.005676 0.007141 0.000000 0.000000 0.000000
# 4 0.000000 0.000000 0.000000 -0.002311 0.000000 0.000000
# 5 0.000000 0.000000 0.000000 0.000000 0.015096 0.000000
# 6 0.000000 0.000000 0.000000 0.000000 0.000000 0.078802
#
#
# Mechanical properties :
#
#
# Convention : Reuss Voigt Hill
#
# Bulk Modulus (GPa) = 40.84110 74.92860 57.88485
# Shear Modulus (GPa) = 29.88744 -55.50946 -12.81101
#
# Velocity S-wave (km/s) = 3.84734 -5.24323 -2.51888
# Velocity P-wave (km/s) = 6.32162 0.67353 4.49536
#
# Compressibility (1/GPa) = 0.02448514
#
# Stress axis : x y z
#
# Youngs Moduli (GPa) = 45.04627 59.97020 140.02946
#
# Poissons Ratio (x) = 0.05112 0.59323
# Poissons Ratio (y) = 0.03840 0.79485
# Poissons Ratio (z) = 0.19084 0.34041
#
# Static dielectric constant tensor:
#      x y z
#    x 1.702430 0.000000 0.000000 
#    y 0.000000 1.697610 0.000000 
#    z 0.000000 0.000000 1.769240 
# 
# From -- ./inp_files/45790.got.cif
#   From: 2010.05.17/outbox.cif.g08.bks.cpg/sg67_23_cif.got.tgz:45790.got - 2010.06.03 18:28:57.
