data_PCOD9502573
_publ_section_title
;
Structure prediction by ZEFSAII (Michael W. Deem and Ramdas Pophale) SiO2 
 PCOD9502573
Probable space group: C M M A
;
_chemical_formula_sum "Si O2"
_cell_formula_units_Z 80
_cell_length_a 17.321715
_cell_length_b 9.167793
_cell_length_c 26.748529
_cell_angle_alpha 90.000000
_cell_angle_beta 90.000000
_cell_angle_gamma 90.000000
_cell_volume 4247.717161
_symmetry_space_group_name_H-M "C M M A"
_symmetry_group_IT_number 67
_symmetry_cell_setting 'orthorhombic'
loop_
_space_group_symop_operation_xyz
x,y,z
-x,1/2-y,z
x,-y,-z
-x,1/2+y,-z
-x,-y,-z
x,1/2+y,-z
-x,y,z
x,1/2-y,z
1/2+x,1/2+y,z
1/2-x,-y,z
1/2+x,1/2-y,-z
1/2-x,y,-z
1/2-x,1/2-y,-z
1/2+x,y,-z
1/2-x,1/2+y,z
1/2+x,-y,z
loop_
_atom_site_type_symbol
_atom_site_label
_atom_site_fract_x
_atom_site_fract_y
_atom_site_fract_z
Si Si1 0.907130 0.583084 0.248432
Si Si2 0.905692 0.081551 0.550448
Si Si3 0.405651 0.581515 0.348571
Si Si4 0.332608 0.574615 0.155682
Si Si5 0.090652 0.424232 0.050188
O O1 0.878849 0.750000 0.244726
O O2 0.879940 0.506164 0.299487
O O3 0.883211 0.489580 0.200583
O O4 0.000000 0.587750 0.250609
O O5 0.881378 0.250000 0.550983
O O6 0.000000 0.080768 0.550399
O O7 0.880820 0.000000 0.500000
O O8 0.881019 0.997263 0.600399
O O9 0.500000 0.580622 0.348443
O O10 0.381343 0.750000 0.346988
O O11 0.328616 0.750000 0.159037
O O12 0.250000 0.500000 0.160202
O O13 0.367474 0.535487 0.101466
O O14 0.096087 0.250000 0.044193
O O15 0.000000 0.462665 0.055114
O O16 0.121115 0.500000 0.000000
#
# Coordination Sequence:
#
# PCOD9502573 Si02
#       5
#    16  16  16  16  16
#     4  10  20  34  53  76 101 132 172 216 261 311
#     4   9  15  22  33  52  82 120 160 202 250 305
#     4   9  16  26  41  62  89 123 163 206 253 305
#     4  11  23  38  55  77 107 140 175 215 260 309
#     4   9  19  36  58  82 107 137 173 212 254 302
#
# _framework density 18.833646000000002
#
# number of rings (size 3 to 8) (size 9 to 14) (size 15 to 20)
#    0.000    2.400    0.000    3.000    0.000    8.800 
#    0.000    4.000    0.000    0.000    0.000    0.000 
#    0.000    0.800    0.000    8.000    0.000   12.400 
#
# Total GULP energy -223235.863578 kJ/mol
# GULP energy per Si atom -5580.896589 kJ/mol
# Density = 1.879078 g / cm^3
# Si number density = 18.833646 Si / 1000 Ang^3
#
#
#
# Elastic Constant Matrix: (Units=GPa)
#
#
# Indices 1 2 3 4 5 6 
#
# 1 7.3926 16.0897 16.1597 0.0000 0.0000 0.0000
# 2 16.0897 132.8232 89.3815 0.0000 0.0000 0.0000
# 3 16.1597 89.3815 184.7906 0.0000 0.0000 0.0000
# 4 0.0000 0.0000 0.0000 41.1721 0.0000 0.0000
# 5 0.0000 0.0000 0.0000 0.0000 -11.2860 0.0000
# 6 0.0000 0.0000 0.0000 0.0000 0.0000 15.0072
#
#
#
# Elastic Compliance Matrix: (Units=1/GPa)
#
#
# Indices 1 2 3 4 5 6 
#
# 1 0.191738 -0.017706 -0.008203 0.000000 0.000000 0.000000
# 2 -0.017706 0.012797 -0.004641 0.000000 0.000000 0.000000
# 3 -0.008203 -0.004641 0.008374 0.000000 0.000000 0.000000
# 4 0.000000 0.000000 0.000000 0.024288 0.000000 0.000000
# 5 0.000000 0.000000 0.000000 0.000000 -0.088605 0.000000
# 6 0.000000 0.000000 0.000000 0.000000 0.000000 0.066635
#
#
# Mechanical properties :
#
#
# Convention : Reuss Voigt Hill
#
# Bulk Modulus (GPa) = 6.58727 63.14091 34.86409
# Shear Modulus (GPa) = 15.29376 22.53704 18.91540
#
# Velocity S-wave (km/s) = 2.85273 3.46300 3.17257
# Velocity P-wave (km/s) = 3.78893 7.04189 5.65438
#
# Compressibility (1/GPa) = 0.15180789
#
# Stress axis : x y z
#
# Youngs Moduli (GPa) = 5.21544 78.14295 119.41908
#
# Poissons Ratio (x) = 1.38363 0.97958
# Poissons Ratio (y) = 0.09235 0.55427
# Poissons Ratio (z) = 0.04278 0.36269
#
# Static dielectric constant tensor:
#      x y z
#    x 1.657280 0.000000 0.000000 
#    y 0.000000 1.635410 0.000000 
#    z 0.000000 0.000000 1.629700 
# 
# From -- ./inp_files/43271.got.cif
#   From: 2010.05.17/outbox.cif.g08.bks.cpg/sg67_22_cif.got.tgz:43271.got - 2010.06.03 18:28:57.
