data_PCOD9502176
_publ_section_title
;
Structure prediction by ZEFSAII (Michael W. Deem and Ramdas Pophale) SiO2 
 PCOD9502176
Probable space group: C M M A
;
_chemical_formula_sum "Si O2"
_cell_formula_units_Z 104
_cell_length_a 8.811283
_cell_length_b 31.377903
_cell_length_c 23.555436
_cell_angle_alpha 90.000000
_cell_angle_beta 90.000000
_cell_angle_gamma 90.000000
_cell_volume 6512.597129
_symmetry_space_group_name_H-M "C M M A"
_symmetry_group_IT_number 67
_symmetry_cell_setting 'orthorhombic'
loop_
_space_group_symop_operation_xyz
x,y,z
-x,1/2-y,z
x,-y,-z
-x,1/2+y,-z
-x,-y,-z
x,1/2+y,-z
-x,y,z
x,1/2-y,z
1/2+x,1/2+y,z
1/2-x,-y,z
1/2+x,1/2-y,-z
1/2-x,y,-z
1/2-x,1/2-y,-z
1/2+x,y,-z
1/2-x,1/2+y,z
1/2+x,-y,z
loop_
_atom_site_type_symbol
_atom_site_label
_atom_site_fract_x
_atom_site_fract_y
_atom_site_fract_z
Si Si1 0.317408 0.840808 0.108653
Si Si2 0.181772 0.750000 0.938375
Si Si3 0.317819 0.575970 0.940863
Si Si4 0.318314 0.299853 0.679177
Si Si5 0.681962 0.044769 0.185068
Si Si6 0.182637 0.364773 0.770441
Si Si7 0.673171 0.698439 0.558080
O O1 0.500000 0.845366 0.107037
O O2 0.272564 0.793344 0.091781
O O3 0.242828 0.875947 0.067875
O O4 0.254083 0.848190 0.171201
O O5 0.000000 0.750000 0.941375
O O6 0.250000 0.750000 0.000000
O O7 0.500000 0.575371 0.944095
O O8 0.271041 0.553931 0.880946
O O9 0.250000 0.558686 0.000000
O O10 0.500000 0.301465 0.683990
O O11 0.272280 0.250000 0.691034
O O12 0.245388 0.334750 0.720761
O O13 0.266951 0.310296 0.615009
O O14 0.500000 0.042341 0.184323
O O15 0.723105 0.084742 0.225543
O O16 0.750000 0.000000 0.203387
O O17 0.000000 0.361882 0.771698
O O18 0.500000 0.683245 0.563332
O O19 0.667851 0.750000 0.553956
O O20 0.750000 0.682782 0.500000
#
# Coordination Sequence:
#
# PCOD9502176 Si02
#       7
#    16   8  16  16  16  16  16
#     4  10  20  34  49  66  89 120 153 195 240 285
#     4  10  22  34  46  64  86 112 151 194 233 278
#     4  10  20  34  50  71  94 117 147 187 234 293
#     4  10  20  32  48  72 102 137 175 211 243 283
#     4   9  20  36  53  72  95 120 153 194 242 298
#     4  10  21  36  51  72  98 126 160 200 243 291
#     4   9  16  27  44  67  98 136 175 212 248 285
#
# _framework density 15.969051
#
# number of rings (size 3 to 8) (size 9 to 14) (size 15 to 20)
#    0.000    2.308    0.000    3.692    1.077    9.231 
#    0.000    1.538    0.000    0.000    0.000    0.000 
#    0.000    0.615    0.000    6.462    0.000    3.846 
#
# Total GULP energy -289855.947230 kJ/mol
# GULP energy per Si atom -5574.152831 kJ/mol
# Density = 1.593270 g / cm^3
# Si number density = 15.969051 Si / 1000 Ang^3
#
#
#
# Elastic Constant Matrix: (Units=GPa)
#
#
# Indices 1 2 3 4 5 6 
#
# 1 42.8052 27.0358 22.5815 0.0000 0.0000 0.0000
# 2 27.0358 104.1935 41.5451 0.0000 0.0000 0.0000
# 3 22.5815 41.5451 85.5753 0.0000 0.0000 0.0000
# 4 0.0000 0.0000 0.0000 5.0541 0.0000 0.0000
# 5 0.0000 0.0000 0.0000 0.0000 29.7987 0.0000
# 6 0.0000 0.0000 0.0000 0.0000 0.0000 22.5232
#
#
#
# Elastic Compliance Matrix: (Units=1/GPa)
#
#
# Indices 1 2 3 4 5 6 
#
# 1 0.029611 -0.005664 -0.005064 0.000000 0.000000 0.000000
# 2 -0.005664 0.012985 -0.004809 0.000000 0.000000 0.000000
# 3 -0.005064 -0.004809 0.015357 0.000000 0.000000 0.000000
# 4 0.000000 0.000000 0.000000 0.197858 0.000000 0.000000
# 5 0.000000 0.000000 0.000000 0.000000 0.033558 0.000000
# 6 0.000000 0.000000 0.000000 0.000000 0.000000 0.044399
#
#
# Mechanical properties :
#
#
# Convention : Reuss Voigt Hill
#
# Bulk Modulus (GPa) = 37.20560 46.09987 41.65273
# Shear Modulus (GPa) = 13.37612 20.90266 17.13939
#
# Velocity S-wave (km/s) = 2.89732 3.62186 3.27966
# Velocity P-wave (km/s) = 5.87722 6.81333 6.36252
#
# Compressibility (1/GPa) = 0.02687767
#
# Stress axis : x y z
#
# Youngs Moduli (GPa) = 33.77180 77.01295 65.11853
#
# Poissons Ratio (x) = 0.43621 0.32974
# Poissons Ratio (y) = 0.19129 0.31317
# Poissons Ratio (z) = 0.17101 0.37037
#
# Static dielectric constant tensor:
#      x y z
#    x 1.538140 0.000000 0.000000 
#    y 0.000000 1.539920 0.000000 
#    z 0.000000 0.000000 1.525720 
# 
# From -- ./inp_files/40193.got.cif
#   From: 2010.05.17/outbox.cif.g08.bks.cpg/sg67_21_cif.got.tgz:40193.got - 2010.06.03 18:28:57.
