data_PCOD9502373
_publ_section_title
;
Structure prediction by ZEFSAII (Michael W. Deem and Ramdas Pophale) SiO2 
 PCOD9502373
Probable space group: C M M A
;
_chemical_formula_sum "Si O2"
_cell_formula_units_Z 80
_cell_length_a 13.966230
_cell_length_b 25.422172
_cell_length_c 10.446865
_cell_angle_alpha 90.000000
_cell_angle_beta 90.000000
_cell_angle_gamma 90.000000
_cell_volume 3709.179280
_symmetry_space_group_name_H-M "C M M A"
_symmetry_group_IT_number 67
_symmetry_cell_setting 'orthorhombic'
loop_
_space_group_symop_operation_xyz
x,y,z
-x,1/2-y,z
x,-y,-z
-x,1/2+y,-z
-x,-y,-z
x,1/2+y,-z
-x,y,z
x,1/2-y,z
1/2+x,1/2+y,z
1/2-x,-y,z
1/2+x,1/2-y,-z
1/2-x,y,-z
1/2-x,1/2-y,-z
1/2+x,y,-z
1/2-x,1/2+y,z
1/2+x,-y,z
loop_
_atom_site_type_symbol
_atom_site_label
_atom_site_fract_x
_atom_site_fract_y
_atom_site_fract_z
Si Si1 0.269200 0.356895 0.865077
Si Si2 0.114276 0.808799 0.636285
Si Si3 0.885275 0.544411 0.814300
Si Si4 0.115138 0.569836 0.244774
Si Si5 0.385883 0.581693 0.469933
O O1 0.326440 0.322059 0.763554
O O2 0.333147 0.409589 0.890579
O O3 0.171980 0.380038 0.805176
O O4 0.250000 0.330089 0.000000
O O5 0.134124 0.750000 0.589774
O O6 0.135611 0.856155 0.538906
O O7 0.000000 0.812643 0.664165
O O8 0.862134 0.483269 0.833967
O O9 0.857819 0.557292 0.666015
O O10 0.000000 0.550064 0.827840
O O11 0.145956 0.560830 0.393166
O O12 0.000000 0.576758 0.241511
O O13 0.500000 0.574331 0.471346
#
# Coordination Sequence:
#
# PCOD9502373 Si02
#       5
#    16  16  16  16  16
#     4  11  23  36  51  75 109 143 185 230 262 299
#     4   9  19  38  63  84 102 132 175 224 279 334
#     4   9  18  33  53  76 104 142 182 219 261 315
#     4  10  20  33  51  77 110 144 174 210 266 326
#     4   8  15  31  54  80 107 132 167 219 274 327
#
# _framework density 21.568113
#
# number of rings (size 3 to 8) (size 9 to 14) (size 15 to 20)
#    0.000    2.600    0.000    3.000    0.000    9.200 
#    0.000    8.000    0.000    1.800    0.000    0.000 
#    0.000    0.000    0.000    0.000    0.000    0.000 
#
# Total GULP energy -223366.151006 kJ/mol
# GULP energy per Si atom -5584.153775 kJ/mol
# Density = 2.151902 g / cm^3
# Si number density = 21.568113 Si / 1000 Ang^3
#
#
#
# Elastic Constant Matrix: (Units=GPa)
#
#
# Indices 1 2 3 4 5 6 
#
# 1 88.7138 6.5318 -2.4155 0.0000 0.0000 0.0000
# 2 6.5318 80.9651 -14.9176 0.0000 0.0000 0.0000
# 3 -2.4155 -14.9176 31.6052 0.0000 0.0000 0.0000
# 4 0.0000 0.0000 0.0000 13.5123 0.0000 0.0000
# 5 0.0000 0.0000 0.0000 0.0000 28.0213 0.0000
# 6 0.0000 0.0000 0.0000 0.0000 0.0000 18.3333
#
#
#
# Elastic Compliance Matrix: (Units=1/GPa)
#
#
# Indices 1 2 3 4 5 6 
#
# 1 0.011346 -0.000828 0.000477 0.000000 0.000000 0.000000
# 2 -0.000828 0.013588 0.006350 0.000000 0.000000 0.000000
# 3 0.000477 0.006350 0.034674 0.000000 0.000000 0.000000
# 4 0.000000 0.000000 0.000000 0.074007 0.000000 0.000000
# 5 0.000000 0.000000 0.000000 0.000000 0.035687 0.000000
# 6 0.000000 0.000000 0.000000 0.000000 0.000000 0.054546
#
#
# Mechanical properties :
#
#
# Convention : Reuss Voigt Hill
#
# Bulk Modulus (GPa) = 13.96523 19.96459 16.96491
# Shear Modulus (GPa) = 21.21181 26.11241 23.66211
#
# Velocity S-wave (km/s) = 3.13945 3.48328 3.31582
# Velocity P-wave (km/s) = 4.43064 5.04522 4.74788
#
# Compressibility (1/GPa) = 0.07160640
#
# Stress axis : x y z
#
# Youngs Moduli (GPa) = 88.13596 73.59558 28.83999
#
# Poissons Ratio (x) = 0.06090 -0.01374
# Poissons Ratio (y) = 0.07294 -0.18314
# Poissons Ratio (z) = -0.04200 -0.46735
#
# Static dielectric constant tensor:
#      x y z
#    x 1.830960 0.000000 0.000000 
#    y 0.000000 1.770920 0.000000 
#    z 0.000000 0.000000 1.787360 
# 
# From -- ./inp_files/17921.got.cif
#   From: 2010.05.17/outbox.cif.g08.bks.cpg/sg67_9_cif.got.tgz:17921.got - 2010.06.03 18:28:57.
