data_PCOD9502855
_publ_section_title
;
Structure prediction by ZEFSAII (Michael W. Deem and Ramdas Pophale) SiO2 
 PCOD9502855
Probable space group: C M M A
;
_chemical_formula_sum "Si O2"
_cell_formula_units_Z 96
_cell_length_a 7.958141
_cell_length_b 29.049596
_cell_length_c 19.546299
_cell_angle_alpha 90.000000
_cell_angle_beta 90.000000
_cell_angle_gamma 90.000000
_cell_volume 4518.728668
_symmetry_space_group_name_H-M "C M M A"
_symmetry_group_IT_number 67
_symmetry_cell_setting 'orthorhombic'
loop_
_space_group_symop_operation_xyz
x,y,z
-x,1/2-y,z
x,-y,-z
-x,1/2+y,-z
-x,-y,-z
x,1/2+y,-z
-x,y,z
x,1/2-y,z
1/2+x,1/2+y,z
1/2-x,-y,z
1/2+x,1/2-y,-z
1/2-x,y,-z
1/2-x,1/2-y,-z
1/2+x,y,-z
1/2-x,1/2+y,z
1/2+x,-y,z
loop_
_atom_site_type_symbol
_atom_site_label
_atom_site_fract_x
_atom_site_fract_y
_atom_site_fract_z
Si Si1 0.703115 0.803081 0.575988
Si Si2 0.199550 0.050594 0.421058
Si Si3 0.296320 0.051873 0.210226
Si Si4 0.308805 0.124444 0.319336
Si Si5 0.299068 0.700410 0.080236
Si Si6 0.302690 0.400337 0.078927
O O1 0.500000 0.804290 0.579259
O O2 0.759555 0.750000 0.578797
O O3 0.750000 0.821361 0.500000
O O4 0.768247 0.831441 0.641812
O O5 0.250000 0.052761 0.500000
O O6 0.305263 0.087726 0.380561
O O7 0.000000 0.057930 0.412872
O O8 0.250000 0.000000 0.396020
O O9 0.500000 0.054075 0.212940
O O10 0.232218 0.093770 0.258267
O O11 0.233180 0.063418 0.133583
O O12 0.250000 0.000000 0.230311
O O13 0.500000 0.136528 0.298998
O O14 0.500000 0.699202 0.085098
O O15 0.239777 0.750000 0.109091
O O16 0.232612 0.651601 0.105764
O O17 0.250000 0.700892 0.000000
O O18 0.500000 0.406485 0.078272
O O19 0.250000 0.404459 0.000000
#
# Coordination Sequence:
#
# PCOD9502855 Si02
#       6
#    16  16  16  16  16  16
#     4   9  18  33  55  82 112 146 182 220 260 304
#     4  11  21  33  50  75 105 138 176 216 260 307
#     4  10  23  40  57  78 105 139 179 225 279 338
#     4  10  20  36  55  77 107 140 177 220 266 319
#     4   9  16  27  47  76 107 137 168 205 254 312
#     4  10  20  35  55  80 107 138 180 228 280 337
#
# _framework density 21.244913
#
# number of rings (size 3 to 8) (size 9 to 14) (size 15 to 20)
#    0.000    2.167    0.000    5.000    0.000    6.667 
#    0.000    2.500    0.000    3.000    0.000    2.333 
#    0.000    0.000    0.000    0.000    0.000    0.000 
#
# Total GULP energy -267527.667850 kJ/mol
# GULP energy per Si atom -5573.493080 kJ/mol
# Density = 2.119656 g / cm^3
# Si number density = 21.244913 Si / 1000 Ang^3
#
#
#
# Elastic Constant Matrix: (Units=GPa)
#
#
# Indices 1 2 3 4 5 6 
#
# 1 41.6899 -7.3457 8.6140 0.0000 0.0000 0.0000
# 2 -7.3457 85.6824 56.4295 0.0000 0.0000 0.0000
# 3 8.6140 56.4295 99.9488 0.0000 0.0000 0.0000
# 4 0.0000 0.0000 0.0000 41.8062 0.0000 0.0000
# 5 0.0000 0.0000 0.0000 0.0000 13.5004 0.0000
# 6 0.0000 0.0000 0.0000 0.0000 0.0000 14.9734
#
#
#
# Elastic Compliance Matrix: (Units=1/GPa)
#
#
# Indices 1 2 3 4 5 6 
#
# 1 0.026193 0.005942 -0.005612 0.000000 0.000000 0.000000
# 2 0.005942 0.019927 -0.011763 0.000000 0.000000 0.000000
# 3 -0.005612 -0.011763 0.017130 0.000000 0.000000 0.000000
# 4 0.000000 0.000000 0.000000 0.023920 0.000000 0.000000
# 5 0.000000 0.000000 0.000000 0.000000 0.074072 0.000000
# 6 0.000000 0.000000 0.000000 0.000000 0.000000 0.066785
#
#
# Mechanical properties :
#
#
# Convention : Reuss Voigt Hill
#
# Bulk Modulus (GPa) = 24.76234 38.07964 31.42099
# Shear Modulus (GPa) = 18.91404 25.36422 22.13913
#
# Velocity S-wave (km/s) = 2.98700 3.45903 3.23165
# Velocity P-wave (km/s) = 4.85564 5.82376 5.36160
#
# Compressibility (1/GPa) = 0.04038391
#
# Stress axis : x y z
#
# Youngs Moduli (GPa) = 38.17811 50.18291 58.37801
#
# Poissons Ratio (x) = -0.29816 0.32761
# Poissons Ratio (y) = -0.22684 0.68668
# Poissons Ratio (z) = 0.21425 0.59028
#
# Static dielectric constant tensor:
#      x y z
#    x 1.791610 0.000000 0.000000 
#    y 0.000000 1.810770 0.000000 
#    z 0.000000 0.000000 1.801140 
# 
# From -- ./inp_files/37172.got.cif
#   From: 2010.05.17/outbox.cif.g08.bks.cpg/sg67_19_cif.got.tgz:37172.got - 2010.06.03 18:28:57.
