data_PCOD9502799
_publ_section_title
;
Structure prediction by ZEFSAII (Michael W. Deem and Ramdas Pophale) SiO2 
 PCOD9502799
Probable space group: C M M A
;
_chemical_formula_sum "Si O2"
_cell_formula_units_Z 96
_cell_length_a 18.723454
_cell_length_b 9.011796
_cell_length_c 32.352838
_cell_angle_alpha 90.000000
_cell_angle_beta 90.000000
_cell_angle_gamma 90.000000
_cell_volume 5458.957375
_symmetry_space_group_name_H-M "C M M A"
_symmetry_group_IT_number 67
_symmetry_cell_setting 'orthorhombic'
loop_
_space_group_symop_operation_xyz
x,y,z
-x,1/2-y,z
x,-y,-z
-x,1/2+y,-z
-x,-y,-z
x,1/2+y,-z
-x,y,z
x,1/2-y,z
1/2+x,1/2+y,z
1/2-x,-y,z
1/2+x,1/2-y,-z
1/2-x,y,-z
1/2-x,1/2-y,-z
1/2+x,y,-z
1/2-x,1/2+y,z
1/2+x,-y,z
loop_
_atom_site_type_symbol
_atom_site_label
_atom_site_fract_x
_atom_site_fract_y
_atom_site_fract_z
Si Si1 0.587102 0.579045 0.541954
Si Si2 0.417085 0.572261 0.042189
Si Si3 0.414371 0.072933 0.717633
Si Si4 0.086810 0.922422 0.625372
Si Si5 0.671741 0.070814 0.876107
Si Si6 0.671363 0.571988 0.791352
O O1 0.611390 0.500000 0.500000
O O2 0.500000 0.569060 0.542282
O O3 0.606625 0.750000 0.540321
O O4 0.612280 0.508616 0.585017
O O5 0.500000 0.526953 0.046780
O O6 0.414793 0.750000 0.037665
O O7 0.374196 0.534344 0.083460
O O8 0.388798 0.500000 0.000000
O O9 0.500000 0.054969 0.720524
O O10 0.399716 0.250000 0.722102
O O11 0.391123 0.026696 0.671182
O O12 0.375621 0.980550 0.752846
O O13 0.106031 0.750000 0.621167
O O14 0.000000 0.929559 0.625492
O O15 0.675944 0.250000 0.871691
O O16 0.750000 0.000000 0.881344
O O17 0.641899 0.998122 0.834084
O O18 0.676081 0.750000 0.794181
O O19 0.750000 0.500000 0.786509
#
# Coordination Sequence:
#
# PCOD9502799 Si02
#       6
#    16  16  16  16  16  16
#     4   9  15  21  31  49  76 112 152 192 234 282
#     4   9  19  35  54  76 102 133 166 200 240 286
#     4   9  18  33  52  73  99 131 164 201 249 302
#     4   8  14  25  40  58  83 116 152 190 235 287
#     4  10  20  35  54  75 100 130 165 203 246 294
#     4  11  22  36  54  75 101 132 168 209 252 297
#
# _framework density 17.585775999999999
#
# number of rings (size 3 to 8) (size 9 to 14) (size 15 to 20)
#    0.000    2.667    0.000    4.500    0.000    5.333 
#    0.000    5.000    0.000    0.000    0.000    0.000 
#    0.000    0.667    0.000    7.000    0.000    9.667 
#
# Total GULP energy -267521.980455 kJ/mol
# GULP energy per Si atom -5573.374593 kJ/mol
# Density = 1.754575 g / cm^3
# Si number density = 17.585776 Si / 1000 Ang^3
#
#
#
# Elastic Constant Matrix: (Units=GPa)
#
#
# Indices 1 2 3 4 5 6 
#
# 1 18.0487 27.1455 46.9658 0.0000 0.0000 0.0000
# 2 27.1455 96.7416 99.0542 0.0000 0.0000 0.0000
# 3 46.9658 99.0542 217.5379 0.0000 0.0000 0.0000
# 4 0.0000 0.0000 0.0000 37.3343 0.0000 0.0000
# 5 0.0000 0.0000 0.0000 0.0000 -30.3175 0.0000
# 6 0.0000 0.0000 0.0000 0.0000 0.0000 18.8522
#
#
#
# Elastic Compliance Matrix: (Units=1/GPa)
#
#
# Indices 1 2 3 4 5 6 
#
# 1 0.137619 -0.015351 -0.022722 0.000000 0.000000 0.000000
# 2 -0.015351 0.021078 -0.006283 0.000000 0.000000 0.000000
# 3 -0.022722 -0.006283 0.012364 0.000000 0.000000 0.000000
# 4 0.000000 0.000000 0.000000 0.026785 0.000000 0.000000
# 5 0.000000 0.000000 0.000000 0.000000 -0.032984 0.000000
# 6 0.000000 0.000000 0.000000 0.000000 0.000000 0.053044
#
#
# Mechanical properties :
#
#
# Convention : Reuss Voigt Hill
#
# Bulk Modulus (GPa) = 12.14350 75.40660 43.77505
# Shear Modulus (GPa) = 14.96706 15.78466 15.37586
#
# Velocity S-wave (km/s) = 2.92051 2.99922 2.96012
# Velocity P-wave (km/s) = 4.27701 7.41391 6.05223
#
# Compressibility (1/GPa) = 0.08234857
#
# Stress axis : x y z
#
# Youngs Moduli (GPa) = 7.26643 47.44309 80.88280
#
# Poissons Ratio (x) = 0.72829 1.83779
# Poissons Ratio (y) = 0.11155 0.50822
# Poissons Ratio (z) = 0.16511 0.29811
#
# Static dielectric constant tensor:
#      x y z
#    x 1.588390 0.000000 0.000000 
#    y 0.000000 1.588670 0.000000 
#    z 0.000000 0.000000 1.614680 
# 
# From -- ./inp_files/43436.got.cif
#   From: 2010.05.17/outbox.cif.g08.bks.cpg/sg67_22_cif.got.tgz:43436.got - 2010.06.03 18:28:57.
