data_PCOD9502062
_publ_section_title
;
Structure prediction by ZEFSAII (Michael W. Deem and Ramdas Pophale) SiO2 
 PCOD9502062
Probable space group: C M M A
;
_chemical_formula_sum "Si O2"
_cell_formula_units_Z 80
_cell_length_a 24.336711
_cell_length_b 8.738291
_cell_length_c 20.921601
_cell_angle_alpha 90.000000
_cell_angle_beta 90.000000
_cell_angle_gamma 90.000000
_cell_volume 4449.214086
_symmetry_space_group_name_H-M "C M M A"
_symmetry_group_IT_number 67
_symmetry_cell_setting 'orthorhombic'
loop_
_space_group_symop_operation_xyz
x,y,z
-x,1/2-y,z
x,-y,-z
-x,1/2+y,-z
-x,-y,-z
x,1/2+y,-z
-x,y,z
x,1/2-y,z
1/2+x,1/2+y,z
1/2-x,-y,z
1/2+x,1/2-y,-z
1/2-x,y,-z
1/2-x,1/2-y,-z
1/2+x,y,-z
1/2-x,1/2+y,z
1/2+x,-y,z
loop_
_atom_site_type_symbol
_atom_site_label
_atom_site_fract_x
_atom_site_fract_y
_atom_site_fract_z
Si Si1 0.883023 0.065483 0.069136
Si Si2 0.500000 0.564918 0.126967
Si Si3 0.000000 0.068128 0.729896
Si Si4 0.689880 0.066277 0.569399
Si Si5 0.385801 0.934510 0.311217
Si Si6 0.689110 0.434667 0.809787
O O1 0.882285 0.250000 0.066359
O O2 0.841092 0.017108 0.124830
O O3 0.944580 0.018386 0.090316
O O4 0.869353 0.000000 0.000000
O O5 0.500000 0.750000 0.132033
O O6 0.500000 0.499165 0.198241
O O7 0.000000 0.250000 0.732919
O O8 0.945183 0.008913 0.695450
O O9 0.693758 0.250000 0.565677
O O10 0.646475 0.025368 0.624166
O O11 0.674940 0.000000 0.500000
O O12 0.750000 0.000000 0.585851
O O13 0.391864 0.750000 0.308879
O O14 0.348520 0.980410 0.250407
O O15 0.691895 0.250000 0.809505
O O16 0.750000 0.500000 0.804817
#
# Coordination Sequence:
#
# PCOD9502062 Si02
#       6
#    16   8   8  16  16  16
#     4  10  21  36  57  80 108 146 184 231 282 335
#     4  10  19  39  61  77 109 149 184 227 282 348
#     4  12  24  35  58  91 115 141 183 241 286 326
#     4  10  20  35  60  89 120 157 191 232 278 328
#     4  10  21  40  61  81 113 155 191 225 280 342
#     4  10  21  37  57  80 108 146 188 230 279 333
#
# _framework density 17.980702999999998
#
# number of rings (size 3 to 8) (size 9 to 14) (size 15 to 20)
#    0.000    1.800    2.000    3.000    0.000    4.400 
#    0.000    2.500    0.000    0.000    0.000    0.000 
#    0.000    0.000    0.000    0.000    0.000    0.000 
#
# Total GULP energy -223460.874680 kJ/mol
# GULP energy per Si atom -5586.521867 kJ/mol
# Density = 1.793978 g / cm^3
# Si number density = 17.980703 Si / 1000 Ang^3
#
#
#
# Elastic Constant Matrix: (Units=GPa)
#
#
# Indices 1 2 3 4 5 6 
#
# 1 165.5671 40.5348 97.7472 0.0000 0.0000 0.0000
# 2 40.5348 24.8190 41.4079 0.0000 0.0000 0.0000
# 3 97.7472 41.4079 147.6682 0.0000 0.0000 0.0000
# 4 0.0000 0.0000 0.0000 15.5318 0.0000 0.0000
# 5 0.0000 0.0000 0.0000 0.0000 32.1238 0.0000
# 6 0.0000 0.0000 0.0000 0.0000 0.0000 31.6080
#
#
#
# Elastic Compliance Matrix: (Units=1/GPa)
#
#
# Indices 1 2 3 4 5 6 
#
# 1 0.011387 -0.011316 -0.004364 0.000000 0.000000 0.000000
# 2 -0.011316 0.086959 -0.016894 0.000000 0.000000 0.000000
# 3 -0.004364 -0.016894 0.014398 0.000000 0.000000 0.000000
# 4 0.000000 0.000000 0.000000 0.064384 0.000000 0.000000
# 5 0.000000 0.000000 0.000000 0.000000 0.031130 0.000000
# 6 0.000000 0.000000 0.000000 0.000000 0.000000 0.031638
#
#
# Mechanical properties :
#
#
# Convention : Reuss Voigt Hill
#
# Bulk Modulus (GPa) = 21.01037 77.49268 49.25153
# Shear Modulus (GPa) = 15.58080 26.41033 20.99557
#
# Velocity S-wave (km/s) = 2.94688 3.83667 3.42083
# Velocity P-wave (km/s) = 4.82588 7.92578 6.56152
#
# Compressibility (1/GPa) = 0.04759554
#
# Stress axis : x y z
#
# Youngs Moduli (GPa) = 87.82110 11.49973 69.45379
#
# Poissons Ratio (x) = 0.13013 0.30311
# Poissons Ratio (y) = 0.99376 1.17334
# Poissons Ratio (z) = 0.38327 0.19428
#
# Static dielectric constant tensor:
#      x y z
#    x 1.590650 0.000000 0.000000 
#    y 0.000000 1.610050 0.000000 
#    z 0.000000 0.000000 1.597890 
# 
# From -- ./inp_files/39529.got.cif
#   From: 2010.05.17/outbox.cif.g08.bks.cpg/sg67_20_cif.got.tgz:39529.got - 2010.06.03 18:28:57.
