data_PCOD9502283
_publ_section_title
;
Structure prediction by ZEFSAII (Michael W. Deem and Ramdas Pophale) SiO2 
 PCOD9502283
Probable space group: C M M A
;
_chemical_formula_sum "Si O2"
_cell_formula_units_Z 104
_cell_length_a 7.496496
_cell_length_b 27.047802
_cell_length_c 22.985243
_cell_angle_alpha 90.000000
_cell_angle_beta 90.000000
_cell_angle_gamma 90.000000
_cell_volume 4660.573824
_symmetry_space_group_name_H-M "C M M A"
_symmetry_group_IT_number 67
_symmetry_cell_setting 'orthorhombic'
loop_
_space_group_symop_operation_xyz
x,y,z
-x,1/2-y,z
x,-y,-z
-x,1/2+y,-z
-x,-y,-z
x,1/2+y,-z
-x,y,z
x,1/2-y,z
1/2+x,1/2+y,z
1/2-x,-y,z
1/2+x,1/2-y,-z
1/2-x,y,-z
1/2-x,1/2-y,-z
1/2+x,y,-z
1/2-x,1/2+y,z
1/2+x,-y,z
loop_
_atom_site_type_symbol
_atom_site_label
_atom_site_fract_x
_atom_site_fract_y
_atom_site_fract_z
Si Si1 0.287099 0.160492 0.063211
Si Si2 0.217619 0.303948 0.811483
Si Si3 0.213519 0.555270 0.350986
Si Si4 0.286650 0.250000 0.430728
Si Si5 0.287008 0.554744 0.900044
Si Si6 0.285611 0.143041 0.431375
Si Si7 0.282291 0.411772 0.225951
O O1 0.500000 0.159122 0.068648
O O2 0.225048 0.188349 0.121186
O O3 0.218826 0.103580 0.066891
O O4 0.250000 0.182082 0.000000
O O5 0.276599 0.250000 0.790234
O O6 0.271024 0.353995 0.778421
O O7 0.000000 0.303718 0.810227
O O8 0.250000 0.500000 0.371282
O O9 0.283281 0.597442 0.393940
O O10 0.280999 0.563622 0.285314
O O11 0.000000 0.560844 0.348471
O O12 0.500000 0.250000 0.421612
O O13 0.250000 0.250000 0.500000
O O14 0.217885 0.196818 0.410178
O O15 0.500000 0.558971 0.899071
O O16 0.250000 0.500000 0.922812
O O17 0.223099 0.561081 0.833163
O O18 0.500000 0.144187 0.425319
O O19 0.250000 0.137442 0.500000
O O20 0.500000 0.412847 0.225459
#
# Coordination Sequence:
#
# PCOD9502283 Si02
#       7
#    16  16  16   8  16  16  16
#     4   9  18  30  43  63  91 118 147 184 223 269
#     4   8  14  27  47  69  92 118 147 184 232 280
#     4  10  20  33  49  72 100 128 160 199 238 282
#     4   8  14  28  48  68  92 122 154 192 233 272
#     4   9  17  29  45  63  85 115 149 186 226 269
#     4   9  18  32  50  72  99 129 162 199 239 283
#     4   8  15  29  46  66  92 118 149 189 232 276
#
# _framework density 22.314848999999999
#
# number of rings (size 3 to 8) (size 9 to 14) (size 15 to 20)
#    0.000    3.231    0.000    2.308    0.000    2.154 
#    1.385    3.077    0.000    0.923    0.000    0.000 
#    0.000    0.000    0.000    0.000    0.000    0.000 
#
# Total GULP energy -290027.075933 kJ/mol
# GULP energy per Si atom -5577.443768 kJ/mol
# Density = 2.226406 g / cm^3
# Si number density = 22.314849 Si / 1000 Ang^3
#
#
#
# Elastic Constant Matrix: (Units=GPa)
#
#
# Indices 1 2 3 4 5 6 
#
# 1 60.1270 -2.6942 -2.2160 0.0000 0.0000 0.0000
# 2 -2.6942 146.9349 29.6643 0.0000 0.0000 0.0000
# 3 -2.2160 29.6643 56.9180 0.0000 0.0000 0.0000
# 4 0.0000 0.0000 0.0000 -1.6919 0.0000 0.0000
# 5 0.0000 0.0000 0.0000 0.0000 7.2923 0.0000
# 6 0.0000 0.0000 0.0000 0.0000 0.0000 6.3911
#
#
#
# Elastic Compliance Matrix: (Units=1/GPa)
#
#
# Indices 1 2 3 4 5 6 
#
# 1 0.016660 0.000195 0.000547 0.000000 0.000000 0.000000
# 2 0.000195 0.007608 -0.003958 0.000000 0.000000 0.000000
# 3 0.000547 -0.003958 0.019653 0.000000 0.000000 0.000000
# 4 0.000000 0.000000 0.000000 -0.591056 0.000000 0.000000
# 5 0.000000 0.000000 0.000000 0.000000 0.137132 0.000000
# 6 0.000000 0.000000 0.000000 0.000000 0.000000 0.156467
#
#
# Mechanical properties :
#
#
# Convention : Reuss Voigt Hill
#
# Bulk Modulus (GPa) = 26.67346 34.83201 30.75273
# Shear Modulus (GPa) = -21.31224 18.34669 -1.48278
#
# Velocity S-wave (km/s) = -3.09377 2.87047 -0.81604
# Velocity P-wave (km/s) = 0.88472 5.16036 3.59490
#
# Compressibility (1/GPa) = 0.03749045
#
# Stress axis : x y z
#
# Youngs Moduli (GPa) = 60.02273 131.43512 50.88267
#
# Poissons Ratio (x) = -0.02564 -0.02783
# Poissons Ratio (y) = -0.01171 0.20138
# Poissons Ratio (z) = -0.03283 0.52018
#
# Static dielectric constant tensor:
#      x y z
#    x 1.779760 0.000000 0.000000 
#    y 0.000000 1.844330 0.000000 
#    z 0.000000 0.000000 1.793400 
# 
# From -- ./inp_files/41039.got.cif
#   From: 2010.05.17/outbox.cif.g08.bks.cpg/sg67_21_cif.got.tgz:41039.got - 2010.06.03 18:28:57.
