data_PCOD9502729
_publ_section_title
;
Structure prediction by ZEFSAII (Michael W. Deem and Ramdas Pophale) SiO2 
 PCOD9502729
Probable space group: C M M A
;
_chemical_formula_sum "Si O2"
_cell_formula_units_Z 64
_cell_length_a 18.417239
_cell_length_b 14.586221
_cell_length_c 11.267458
_cell_angle_alpha 90.000000
_cell_angle_beta 90.000000
_cell_angle_gamma 90.000000
_cell_volume 3026.866461
_symmetry_space_group_name_H-M "C M M A"
_symmetry_group_IT_number 67
_symmetry_cell_setting 'orthorhombic'
loop_
_space_group_symop_operation_xyz
x,y,z
-x,1/2-y,z
x,-y,-z
-x,1/2+y,-z
-x,-y,-z
x,1/2+y,-z
-x,y,z
x,1/2-y,z
1/2+x,1/2+y,z
1/2-x,-y,z
1/2+x,1/2-y,-z
1/2-x,y,-z
1/2-x,1/2-y,-z
1/2+x,y,-z
1/2-x,1/2+y,z
1/2+x,-y,z
loop_
_atom_site_type_symbol
_atom_site_label
_atom_site_fract_x
_atom_site_fract_y
_atom_site_fract_z
Si Si1 0.916471 0.356094 0.532147
Si Si2 0.226309 0.893544 0.126465
Si Si3 0.083415 0.544214 0.221400
Si Si4 0.143889 0.148100 0.279984
O O1 0.910767 0.250000 0.572234
O O2 0.905385 0.422456 0.642757
O O3 0.864100 0.368671 0.420535
O O4 0.000000 0.369747 0.489132
O O5 0.140574 0.896945 0.146004
O O6 0.273727 0.852655 0.232812
O O7 0.250000 0.000000 0.126330
O O8 0.250000 0.854398 0.000000
O O9 0.103173 0.436391 0.216811
O O10 0.000000 0.559393 0.189488
O O11 0.113011 0.250000 0.257637
#
# Coordination Sequence:
#
# PCOD9502729 Si02
#       4
#    16  16  16  16
#     4   9  18  33  54  84 120 151 183 228 281 337
#     4   9  20  39  56  77 110 149 194 236 277 326
#     4  10  20  36  60  85 112 148 188 232 281 334
#     4  10  20  34  56  85 117 151 184 225 280 337
#
# _framework density 21.143979999999999
#
# number of rings (size 3 to 8) (size 9 to 14) (size 15 to 20)
#    0.000    2.500    0.000    1.500    0.000    6.000 
#    0.000   17.500    0.000    0.000    0.000    0.000 
#    0.000    0.000    0.000    0.000    0.000    0.000 
#
# Total GULP energy -178547.127826 kJ/mol
# GULP energy per Si atom -5579.597745 kJ/mol
# Density = 2.109586 g / cm^3
# Si number density = 21.143980 Si / 1000 Ang^3
#
#
#
# Elastic Constant Matrix: (Units=GPa)
#
#
# Indices 1 2 3 4 5 6 
#
# 1 156.2538 37.1045 74.1052 0.0000 0.0000 0.0000
# 2 37.1045 91.5294 31.2581 0.0000 0.0000 0.0000
# 3 74.1052 31.2581 64.0805 0.0000 0.0000 0.0000
# 4 0.0000 0.0000 0.0000 -26.4224 0.0000 0.0000
# 5 0.0000 0.0000 0.0000 0.0000 -396.7353 0.0000
# 6 0.0000 0.0000 0.0000 0.0000 0.0000 12.4701
#
#
#
# Elastic Compliance Matrix: (Units=1/GPa)
#
#
# Indices 1 2 3 4 5 6 
#
# 1 0.014176 -0.000178 -0.016307 0.000000 0.000000 0.000000
# 2 -0.000178 0.013112 -0.006190 0.000000 0.000000 0.000000
# 3 -0.016307 -0.006190 0.037482 0.000000 0.000000 0.000000
# 4 0.000000 0.000000 0.000000 -0.037847 0.000000 0.000000
# 5 0.000000 0.000000 0.000000 0.000000 -0.002521 0.000000
# 6 0.000000 0.000000 0.000000 0.000000 0.000000 0.080192
#
#
# Mechanical properties :
#
#
# Convention : Reuss Voigt Hill
#
# Bulk Modulus (GPa) = 51.49161 66.31105 58.90133
# Shear Modulus (GPa) = 31.96583 -70.84449 -19.43933
#
# Velocity S-wave (km/s) = 3.89243 -5.79469 -3.03542
# Velocity P-wave (km/s) = 6.67885 3.65261 3.95383
#
# Compressibility (1/GPa) = 0.01942064
#
# Stress axis : x y z
#
# Youngs Moduli (GPa) = 70.54360 76.26885 26.67913
#
# Poissons Ratio (x) = 0.01355 0.43505
# Poissons Ratio (y) = 0.01254 0.16515
# Poissons Ratio (z) = 1.15032 0.47212
#
# Static dielectric constant tensor:
#      x y z
#    x 1.767260 0.000000 0.000000 
#    y 0.000000 1.791770 0.000000 
#    z 0.000000 0.000000 1.762360 
# 
# From -- ./inp_files/17489.got.cif
#   From: 2010.05.17/outbox.cif.g08.bks.cpg/sg67_9_cif.got.tgz:17489.got - 2010.06.03 18:28:57.
