data_PCOD9502245
_publ_section_title
;
Structure prediction by ZEFSAII (Michael W. Deem and Ramdas Pophale) SiO2 
 PCOD9502245
Probable space group: C M M A
;
_chemical_formula_sum "Si O2"
_cell_formula_units_Z 72
_cell_length_a 19.777309
_cell_length_b 18.642581
_cell_length_c 9.121233
_cell_angle_alpha 90.000000
_cell_angle_beta 90.000000
_cell_angle_gamma 90.000000
_cell_volume 3362.999382
_symmetry_space_group_name_H-M "C M M A"
_symmetry_group_IT_number 67
_symmetry_cell_setting 'orthorhombic'
loop_
_space_group_symop_operation_xyz
x,y,z
-x,1/2-y,z
x,-y,-z
-x,1/2+y,-z
-x,-y,-z
x,1/2+y,-z
-x,y,z
x,1/2-y,z
1/2+x,1/2+y,z
1/2-x,-y,z
1/2+x,1/2-y,-z
1/2-x,y,-z
1/2-x,1/2-y,-z
1/2+x,y,-z
1/2-x,1/2+y,z
1/2+x,-y,z
loop_
_atom_site_type_symbol
_atom_site_label
_atom_site_fract_x
_atom_site_fract_y
_atom_site_fract_z
Si Si1 0.500000 0.162529 0.220123
Si Si2 0.750000 0.500000 0.739773
Si Si3 0.180224 0.750000 0.911954
Si Si4 0.854724 0.394830 0.739943
Si Si5 0.273191 0.250000 0.334048
Si Si6 0.355989 0.908762 0.078842
Si Si7 0.500000 0.924021 0.079037
O O1 0.500000 0.250000 0.230275
O O2 0.432337 0.126894 0.288595
O O3 0.500000 0.136768 0.048952
O O4 0.808496 0.454286 0.658772
O O5 0.708465 0.440217 0.836228
O O6 0.201562 0.750000 0.745461
O O7 0.144640 0.823403 0.941535
O O8 0.250000 0.750000 0.000000
O O9 0.814571 0.320141 0.717488
O O10 0.855539 0.429242 0.906125
O O11 0.250000 0.250000 0.500000
O O12 0.427600 0.922890 0.157142
O O13 0.500000 0.000000 0.000000
#
# Coordination Sequence:
#
# PCOD9502245 Si02
#       7
#     8   8   8  16   8  16   8
#     4  10  20  32  58  84 119 158 209 252 291 353
#     4  12  21  32  59  92 125 160 195 252 315 372
#     4  12  20  35  59  87 113 155 195 251 293 354
#     4  11  20  36  57  91 120 154 201 251 304 353
#     4  12  24  39  59  89 121 155 202 258 305 356
#     4  11  20  32  57  84 124 157 197 240 304 355
#     4  10  22  32  46  86 132 157 187 245 310 367
#
# _framework density 21.409458999999998
#
# number of rings (size 3 to 8) (size 9 to 14) (size 15 to 20)
#    0.000    0.889    5.556    4.667    4.667    0.000 
#    0.000    0.556    0.000    2.667    0.000    1.556 
#    0.000    0.000    0.000    0.000    0.000    0.000 
#
# Total GULP energy -200522.240118 kJ/mol
# GULP energy per Si atom -5570.062226 kJ/mol
# Density = 2.136073 g / cm^3
# Si number density = 21.409459 Si / 1000 Ang^3
#
#
#
# Elastic Constant Matrix: (Units=GPa)
#
#
# Indices 1 2 3 4 5 6 
#
# 1 177.7496 52.8366 -0.5316 0.0000 0.0000 0.0000
# 2 52.8366 119.5574 -12.9906 0.0000 0.0000 0.0000
# 3 -0.5316 -12.9906 37.2420 0.0000 0.0000 0.0000
# 4 0.0000 0.0000 0.0000 3.3024 0.0000 0.0000
# 5 0.0000 0.0000 0.0000 0.0000 6.1080 0.0000
# 6 0.0000 0.0000 0.0000 0.0000 0.0000 33.3869
#
#
#
# Elastic Compliance Matrix: (Units=1/GPa)
#
#
# Indices 1 2 3 4 5 6 
#
# 1 0.006509 -0.002979 -0.000946 0.000000 0.000000 0.000000
# 2 -0.002979 0.010057 0.003466 0.000000 0.000000 0.000000
# 3 -0.000946 0.003466 0.028047 0.000000 0.000000 0.000000
# 4 0.000000 0.000000 0.000000 0.302808 0.000000 0.000000
# 5 0.000000 0.000000 0.000000 0.000000 0.163719 0.000000
# 6 0.000000 0.000000 0.000000 0.000000 0.000000 0.029952
#
#
# Mechanical properties :
#
#
# Convention : Reuss Voigt Hill
#
# Bulk Modulus (GPa) = 22.88694 45.90866 34.39780
# Shear Modulus (GPa) = 8.98351 28.24177 18.61264
#
# Velocity S-wave (km/s) = 2.05065 3.63592 2.95170
# Velocity P-wave (km/s) = 4.03983 6.25430 5.26481
#
# Compressibility (1/GPa) = 0.04369304
#
# Stress axis : x y z
#
# Youngs Moduli (GPa) = 153.64185 99.42962 35.65472
#
# Poissons Ratio (x) = 0.29622 0.03374
# Poissons Ratio (y) = 0.45773 -0.12357
# Poissons Ratio (z) = 0.14539 -0.34459
#
# Static dielectric constant tensor:
#      x y z
#    x 1.862760 0.000000 0.000000 
#    y 0.000000 1.865970 0.000000 
#    z 0.000000 0.000000 1.847900 
# 
# From -- ./inp_files/11020.got.cif
#   From: 2010.05.17/outbox.cif.g08.bks.cpg/sg67_6_cif.got.tgz:11020.got - 2010.06.03 18:28:57.
