data_PCOD9502651
_publ_section_title
;
Structure prediction by ZEFSAII (Michael W. Deem and Ramdas Pophale) SiO2 
 PCOD9502651
Probable space group: C M M A
;
_chemical_formula_sum "Si O2"
_cell_formula_units_Z 96
_cell_length_a 26.359010
_cell_length_b 8.694305
_cell_length_c 24.023349
_cell_angle_alpha 90.000000
_cell_angle_beta 90.000000
_cell_angle_gamma 90.000000
_cell_volume 5505.509505
_symmetry_space_group_name_H-M "C M M A"
_symmetry_group_IT_number 67
_symmetry_cell_setting 'orthorhombic'
loop_
_space_group_symop_operation_xyz
x,y,z
-x,1/2-y,z
x,-y,-z
-x,1/2+y,-z
-x,-y,-z
x,1/2+y,-z
-x,y,z
x,1/2-y,z
1/2+x,1/2+y,z
1/2-x,-y,z
1/2+x,1/2-y,-z
1/2-x,y,-z
1/2-x,1/2-y,-z
1/2+x,y,-z
1/2-x,1/2+y,z
1/2+x,-y,z
loop_
_atom_site_type_symbol
_atom_site_label
_atom_site_fract_x
_atom_site_fract_y
_atom_site_fract_z
Si Si1 0.695284 0.435120 0.131346
Si Si2 0.000000 0.935732 0.133823
Si Si3 0.694705 0.065322 0.260652
Si Si4 0.000000 0.564641 0.742023
Si Si5 0.400210 0.934705 0.327173
Si Si6 0.059537 0.065847 0.560146
Si Si7 0.097711 0.436012 0.938073
O O1 0.697401 0.250000 0.129578
O O2 0.750000 0.500000 0.114885
O O3 0.685454 0.479192 0.195804
O O4 0.649624 0.486784 0.091894
O O5 0.049896 0.983316 0.099618
O O6 0.000000 0.750000 0.137343
O O7 0.000000 0.001001 0.195763
O O8 0.695278 0.250000 0.263883
O O9 0.750000 0.000000 0.275906
O O10 0.650203 0.999231 0.298597
O O11 0.050537 0.515724 0.708941
O O12 0.000000 0.750000 0.743882
O O13 0.398695 0.750000 0.327834
O O14 0.408705 0.996706 0.389271
O O15 0.063210 0.250000 0.559830
O O16 0.000000 0.023722 0.568814
O O17 0.074492 0.000000 0.500000
O O18 0.097773 0.250000 0.940365
O O19 0.093542 0.500000 0.000000
#
# Coordination Sequence:
#
# PCOD9502651 Si02
#       7
#    16   8  16   8  16  16  16
#     4   9  19  35  54  76 103 132 169 215 266 319
#     4  10  21  37  55  73 101 136 173 216 264 318
#     4  10  20  36  57  81 108 143 183 225 273 327
#     4  10  22  35  52  81 113 142 176 220 273 322
#     4  11  21  35  54  81 116 148 182 227 271 321
#     4  10  20  34  54  80 112 151 190 228 272 320
#     4  10  21  36  53  75 100 132 171 214 261 316
#
# _framework density 17.437079000000001
#
# number of rings (size 3 to 8) (size 9 to 14) (size 15 to 20)
#    0.000    2.000    0.833    2.750    0.000    5.667 
#    0.000    1.667    0.000    0.500    0.000    3.500 
#    0.000    0.000    0.000    0.000    0.000    0.000 
#
# Total GULP energy -268081.806013 kJ/mol
# GULP energy per Si atom -5585.037625 kJ/mol
# Density = 1.739739 g / cm^3
# Si number density = 17.437079 Si / 1000 Ang^3
#
#
#
# Elastic Constant Matrix: (Units=GPa)
#
#
# Indices 1 2 3 4 5 6 
#
# 1 129.1744 33.5844 91.6844 0.0000 0.0000 0.0000
# 2 33.5844 30.6880 33.8837 0.0000 0.0000 0.0000
# 3 91.6844 33.8837 146.7649 0.0000 0.0000 0.0000
# 4 0.0000 0.0000 0.0000 30.6342 0.0000 0.0000
# 5 0.0000 0.0000 0.0000 0.0000 1.2098 0.0000
# 6 0.0000 0.0000 0.0000 0.0000 0.0000 27.6355
#
#
#
# Elastic Compliance Matrix: (Units=1/GPa)
#
#
# Indices 1 2 3 4 5 6 
#
# 1 0.015348 -0.008335 -0.007664 0.000000 0.000000 0.000000
# 2 -0.008335 0.048261 -0.005935 0.000000 0.000000 0.000000
# 3 -0.007664 -0.005935 0.012971 0.000000 0.000000 0.000000
# 4 0.000000 0.000000 0.000000 0.032643 0.000000 0.000000
# 5 0.000000 0.000000 0.000000 0.000000 0.826608 0.000000
# 6 0.000000 0.000000 0.000000 0.000000 0.000000 0.036185
#
#
# Mechanical properties :
#
#
# Convention : Reuss Voigt Hill
#
# Bulk Modulus (GPa) = 30.56914 69.43693 50.00303
# Shear Modulus (GPa) = 4.86956 21.72756 13.29856
#
# Velocity S-wave (km/s) = 1.67293 3.53378 2.76463
# Velocity P-wave (km/s) = 4.61528 7.52051 6.23934
#
# Compressibility (1/GPa) = 0.03271273
#
# Stress axis : x y z
#
# Youngs Moduli (GPa) = 65.15576 20.72079 77.09306
#
# Poissons Ratio (x) = 0.17270 0.59081
# Poissons Ratio (y) = 0.54306 0.45756
# Poissons Ratio (z) = 0.49933 0.12298
#
# Static dielectric constant tensor:
#      x y z
#    x 1.574510 0.000000 0.000000 
#    y 0.000000 1.587540 0.000000 
#    z 0.000000 0.000000 1.562270 
# 
# From -- ./inp_files/40820.got.cif
#   From: 2010.05.17/outbox.cif.g08.bks.cpg/sg67_21_cif.got.tgz:40820.got - 2010.06.03 18:28:57.
