data_PCOD9502365
_publ_section_title
;
Structure prediction by ZEFSAII (Michael W. Deem and Ramdas Pophale) SiO2 
 PCOD9502365
Probable space group: C M M A
;
_chemical_formula_sum "Si O2"
_cell_formula_units_Z 96
_cell_length_a 9.175332
_cell_length_b 19.170731
_cell_length_c 31.828642
_cell_angle_alpha 90.000000
_cell_angle_beta 90.000000
_cell_angle_gamma 90.000000
_cell_volume 5598.588793
_symmetry_space_group_name_H-M "C M M A"
_symmetry_group_IT_number 67
_symmetry_cell_setting 'orthorhombic'
loop_
_space_group_symop_operation_xyz
x,y,z
-x,1/2-y,z
x,-y,-z
-x,1/2+y,-z
-x,-y,-z
x,1/2+y,-z
-x,y,z
x,1/2-y,z
1/2+x,1/2+y,z
1/2-x,-y,z
1/2+x,1/2-y,-z
1/2-x,y,-z
1/2-x,1/2-y,-z
1/2+x,y,-z
1/2-x,1/2+y,z
1/2+x,-y,z
loop_
_atom_site_type_symbol
_atom_site_label
_atom_site_fract_x
_atom_site_fract_y
_atom_site_fract_z
Si Si1 0.326936 0.925380 0.295563
Si Si2 0.326245 0.924912 0.198420
Si Si3 0.325386 0.666875 0.634784
Si Si4 0.171666 0.833861 0.128346
Si Si5 0.168278 0.334961 0.042279
Si Si6 0.330557 0.334830 0.458385
O O1 0.500000 0.932061 0.301836
O O2 0.302453 0.903374 0.247047
O O3 0.257957 0.872617 0.328676
O O4 0.250000 0.000000 0.300952
O O5 0.500000 0.930473 0.191566
O O6 0.254107 0.871391 0.166232
O O7 0.250000 0.000000 0.192859
O O8 0.500000 0.655063 0.637729
O O9 0.302275 0.750000 0.637987
O O10 0.276740 0.643559 0.587867
O O11 0.185682 0.750000 0.132023
O O12 0.245276 0.855285 0.084225
O O13 0.000000 0.850780 0.128466
O O14 0.167668 0.250000 0.041464
O O15 0.000000 0.357696 0.043326
O O16 0.250000 0.358216 0.000000
O O17 0.500000 0.353314 0.461347
O O18 0.322231 0.250000 0.458416
O O19 0.250000 0.360363 0.500000
#
# Coordination Sequence:
#
# PCOD9502365 Si02
#       6
#    16  16  16  16  16  16
#     4  10  21  36  54  74  97 129 168 207 249 300
#     4  10  21  37  55  74  98 130 168 208 251 301
#     4   9  18  32  50  74 104 134 164 202 248 294
#     4  10  20  33  51  77 106 135 169 208 250 295
#     4   9  16  27  45  70 101 135 169 206 248 293
#     4   8  14  25  42  66  96 129 162 196 237 286
#
# _framework density 17.147179000000001
#
# number of rings (size 3 to 8) (size 9 to 14) (size 15 to 20)
#    0.000    2.667    0.000    3.000    0.000    6.667 
#    0.000    5.000    0.000    1.000    0.000    7.000 
#    0.000    0.000    0.000    0.000    0.000    0.000 
#
# Total GULP energy -267584.003091 kJ/mol
# GULP energy per Si atom -5574.666731 kJ/mol
# Density = 1.710815 g / cm^3
# Si number density = 17.147179 Si / 1000 Ang^3
#
#
#
# Elastic Constant Matrix: (Units=GPa)
#
#
# Indices 1 2 3 4 5 6 
#
# 1 124.8746 44.2137 111.5862 0.0000 0.0000 0.0000
# 2 44.2137 26.8052 61.7706 0.0000 0.0000 0.0000
# 3 111.5862 61.7706 183.6027 0.0000 0.0000 0.0000
# 4 0.0000 0.0000 0.0000 -20.0423 0.0000 0.0000
# 5 0.0000 0.0000 0.0000 0.0000 38.0114 0.0000
# 6 0.0000 0.0000 0.0000 0.0000 0.0000 25.7553
#
#
#
# Elastic Compliance Matrix: (Units=1/GPa)
#
#
# Indices 1 2 3 4 5 6 
#
# 1 0.020134 -0.022303 -0.004733 0.000000 0.000000 0.000000
# 2 -0.022303 0.190726 -0.050612 0.000000 0.000000 0.000000
# 3 -0.004733 -0.050612 0.025351 0.000000 0.000000 0.000000
# 4 0.000000 0.000000 0.000000 -0.049894 0.000000 0.000000
# 5 0.000000 0.000000 0.000000 0.000000 0.026308 0.000000
# 6 0.000000 0.000000 0.000000 0.000000 0.000000 0.038827
#
#
# Mechanical properties :
#
#
# Convention : Reuss Voigt Hill
#
# Bulk Modulus (GPa) = 12.35878 85.60263 48.98071
# Shear Modulus (GPa) = 11.52818 16.59233 14.06026
#
# Velocity S-wave (km/s) = 2.59570 3.11407 2.86663
# Velocity P-wave (km/s) = 4.02575 7.93477 6.29155
#
# Compressibility (1/GPa) = 0.08091413
#
# Stress axis : x y z
#
# Youngs Moduli (GPa) = 49.66641 5.24314 39.44597
#
# Poissons Ratio (x) = 0.11694 0.18671
# Poissons Ratio (y) = 1.10770 1.99645
# Poissons Ratio (z) = 0.23509 0.26537
#
# Static dielectric constant tensor:
#      x y z
#    x 1.570120 0.000000 0.000000 
#    y 0.000000 1.555250 0.000000 
#    z 0.000000 0.000000 1.582940 
# 
# From -- ./inp_files/43444.got.cif
#   From: 2010.05.17/outbox.cif.g08.bks.cpg/sg67_22_cif.got.tgz:43444.got - 2010.06.03 18:28:57.
