data_PCOD9502363
_publ_section_title
;
Structure prediction by ZEFSAII (Michael W. Deem and Ramdas Pophale) SiO2 
 PCOD9502363
Probable space group: C M M A
;
_chemical_formula_sum "Si O2"
_cell_formula_units_Z 116
_cell_length_a 26.200399
_cell_length_b 7.496080
_cell_length_c 26.106200
_cell_angle_alpha 90.000000
_cell_angle_beta 90.000000
_cell_angle_gamma 90.000000
_cell_volume 5127.265171
_symmetry_space_group_name_H-M "C M M A"
_symmetry_group_IT_number 67
_symmetry_cell_setting 'orthorhombic'
loop_
_space_group_symop_operation_xyz
x,y,z
-x,1/2-y,z
x,-y,-z
-x,1/2+y,-z
-x,-y,-z
x,1/2+y,-z
-x,y,z
x,1/2-y,z
1/2+x,1/2+y,z
1/2-x,-y,z
1/2+x,1/2-y,-z
1/2-x,y,-z
1/2-x,1/2-y,-z
1/2+x,y,-z
1/2-x,1/2+y,z
1/2+x,-y,z
loop_
_atom_site_type_symbol
_atom_site_label
_atom_site_fract_x
_atom_site_fract_y
_atom_site_fract_z
Si Si1 0.500000 0.250000 0.901210
Si Si2 0.194242 0.461469 0.295782
Si Si3 0.667294 0.541954 0.183623
Si Si4 0.587709 0.953055 0.665329
Si Si5 0.943715 0.533403 0.222396
Si Si6 0.807386 0.555400 0.072747
Si Si7 0.442037 0.536198 0.554974
Si Si8 0.921024 0.034211 0.941939
O O1 0.455560 0.408624 0.906939
O O2 0.185004 0.250000 0.294762
O O3 0.250000 0.500000 0.316449
O O4 0.190325 0.526230 0.237058
O O5 0.148168 0.546877 0.326261
O O6 0.679880 0.750000 0.177284
O O7 0.606197 0.523802 0.191183
O O8 0.688693 0.444090 0.134433
O O9 0.567873 0.750000 0.664276
O O10 0.564899 0.028834 0.718393
O O11 0.577681 0.033466 0.609573
O O12 0.943376 0.750000 0.221898
O O13 0.000000 0.471451 0.205304
O O14 0.812371 0.750000 0.049409
O O15 0.750000 0.500000 0.059635
O O16 0.861791 0.468639 0.059332
O O17 0.416192 0.500000 0.500000
O O18 0.500000 0.468638 0.551305
O O19 0.442497 0.750000 0.558612
O O20 0.923868 0.250000 0.930140
O O21 0.939266 0.000000 0.000000
#
# Coordination Sequence:
#
# PCOD9502363 Si02
#       8
#     4  16  16  16  16  16  16  16
#     4  12  24  44  78  96 144 170 214 270 314 382
#     4  10  20  33  51  77 101 131 173 221 267 323
#     4  10  21  36  56  80 112 150 194 231 287 345
#     4   9  17  30  49  71  97 133 171 213 264 322
#     4   9  17  31  51  74 106 143 184 232 280 334
#     4  11  25  43  65  92 128 163 208 258 307 371
#     4   9  17  29  46  70  99 130 167 204 248 306
#     4  11  25  43  70 106 132 171 219 262 320 376
#
# _framework density 22.624146
#
# number of rings (size 3 to 8) (size 9 to 14) (size 15 to 20)
#    0.000    2.069    0.690    2.483    1.931    5.517 
#    1.241    1.379    0.000    2.897    0.000    2.897 
#    0.000    0.000    0.000    0.000    0.000    0.000 
#
# Total GULP energy -323322.396608 kJ/mol
# GULP energy per Si atom -5574.524079 kJ/mol
# Density = 2.257265 g / cm^3
# Si number density = 22.624146 Si / 1000 Ang^3
#
#
#
# Elastic Constant Matrix: (Units=GPa)
#
#
# Indices 1 2 3 4 5 6 
#
# 1 155.9598 9.7492 24.0098 0.0000 0.0000 0.0000
# 2 9.7492 99.7316 -1.3145 0.0000 0.0000 0.0000
# 3 24.0098 -1.3145 104.6990 0.0000 0.0000 0.0000
# 4 0.0000 0.0000 0.0000 -4.1680 0.0000 0.0000
# 5 0.0000 0.0000 0.0000 0.0000 -25.7380 0.0000
# 6 0.0000 0.0000 0.0000 0.0000 0.0000 28.1730
#
#
#
# Elastic Compliance Matrix: (Units=1/GPa)
#
#
# Indices 1 2 3 4 5 6 
#
# 1 0.006692 -0.000674 -0.001543 0.000000 0.000000 0.000000
# 2 -0.000674 0.010097 0.000281 0.000000 0.000000 0.000000
# 3 -0.001543 0.000281 0.009909 0.000000 0.000000 0.000000
# 4 0.000000 0.000000 0.000000 -0.239925 0.000000 0.000000
# 5 0.000000 0.000000 0.000000 0.000000 -0.038853 0.000000
# 6 0.000000 0.000000 0.000000 0.000000 0.000000 0.035495
#
#
# Mechanical properties :
#
#
# Convention : Reuss Voigt Hill
#
# Bulk Modulus (GPa) = 43.81228 47.25327 45.53277
# Shear Modulus (GPa) = -24.37767 21.51647 -1.43060
#
# Velocity S-wave (km/s) = -3.28610 3.08724 -0.79606
# Velocity P-wave (km/s) = 2.23816 5.79997 4.39596
#
# Compressibility (1/GPa) = 0.02282465
#
# Stress axis : x y z
#
# Youngs Moduli (GPa) = 149.44071 99.04373 100.92274
#
# Poissons Ratio (x) = 0.06680 0.15572
# Poissons Ratio (y) = 0.10079 -0.02840
# Poissons Ratio (z) = 0.23059 -0.02787
#
# Static dielectric constant tensor:
#      x y z
#    x 1.843100 0.000000 0.000000 
#    y 0.000000 1.768090 0.000000 
#    z 0.000000 0.000000 1.891090 
# 
# From -- ./inp_files/44901.got.cif
#   From: 2010.05.17/outbox.cif.g08.bks.cpg/sg67_23_cif.got.tgz:44901.got - 2010.06.03 18:28:57.
