data_PCOD9502093
_publ_section_title
;
Structure prediction by ZEFSAII (Michael W. Deem and Ramdas Pophale) SiO2 
 PCOD9502093
Probable space group: C M M A
;
_chemical_formula_sum "Si O2"
_cell_formula_units_Z 80
_cell_length_a 15.858618
_cell_length_b 20.367150
_cell_length_c 13.774871
_cell_angle_alpha 90.000000
_cell_angle_beta 90.000000
_cell_angle_gamma 90.000000
_cell_volume 4449.212414
_symmetry_space_group_name_H-M "C M M A"
_symmetry_group_IT_number 67
_symmetry_cell_setting 'orthorhombic'
loop_
_space_group_symop_operation_xyz
x,y,z
-x,1/2-y,z
x,-y,-z
-x,1/2+y,-z
-x,-y,-z
x,1/2+y,-z
-x,y,z
x,1/2-y,z
1/2+x,1/2+y,z
1/2-x,-y,z
1/2+x,1/2-y,-z
1/2-x,y,-z
1/2-x,1/2-y,-z
1/2+x,y,-z
1/2-x,1/2+y,z
1/2+x,-y,z
loop_
_atom_site_type_symbol
_atom_site_label
_atom_site_fract_x
_atom_site_fract_y
_atom_site_fract_z
Si Si1 0.328826 0.534277 0.779238
Si Si2 0.851701 0.675994 0.506672
Si Si3 0.000000 0.457134 0.904764
Si Si4 0.847396 0.323341 0.714941
Si Si5 0.500000 0.818048 0.866738
Si Si6 0.599552 0.959193 0.403246
O O1 0.250000 0.500000 0.831232
O O2 0.415055 0.533842 0.841279
O O3 0.303954 0.608328 0.745304
O O4 0.349274 0.490694 0.684537
O O5 0.874922 0.750000 0.538094
O O6 0.750000 0.672487 0.500000
O O7 0.881312 0.667321 0.394837
O O8 0.882847 0.617013 0.573472
O O9 0.000000 0.380727 0.933399
O O10 0.000000 0.500000 0.000000
O O11 0.805341 0.250000 0.714693
O O12 0.921457 0.319659 0.793524
O O13 0.500000 0.750000 0.922360
O O14 0.500000 0.968234 0.384502
O O15 0.621399 0.000000 0.500000
#
# Coordination Sequence:
#
# PCOD9502093 Si02
#       6
#    16  16   8  16   8  16
#     4  11  21  36  58  83 109 148 186 223 280 338
#     4  10  20  31  45  69 104 149 192 225 258 303
#     4  10  22  40  60  84 113 131 174 238 290 335
#     4   9  17  30  49  75 106 137 181 233 268 304
#     4   8  16  30  55  81 100 128 167 221 282 323
#     4  11  22  32  49  77 112 147 183 217 269 322
#
# _framework density 17.980710999999999
#
# number of rings (size 3 to 8) (size 9 to 14) (size 15 to 20)
#    0.000    2.000    3.000    1.200    1.400    0.800 
#    0.000    0.000    0.000    2.400    0.000    5.600 
#    0.000    0.000    0.000    0.000    0.000    0.000 
#
# Total GULP energy -222850.366077 kJ/mol
# GULP energy per Si atom -5571.259152 kJ/mol
# Density = 1.793979 g / cm^3
# Si number density = 17.980711 Si / 1000 Ang^3
#
#
#
# Elastic Constant Matrix: (Units=GPa)
#
#
# Indices 1 2 3 4 5 6 
#
# 1 57.9226 30.1418 12.8003 0.0000 0.0000 0.0000
# 2 30.1418 170.3350 45.0720 0.0000 0.0000 0.0000
# 3 12.8003 45.0720 46.6035 0.0000 0.0000 0.0000
# 4 0.0000 0.0000 0.0000 28.5655 0.0000 0.0000
# 5 0.0000 0.0000 0.0000 0.0000 1.1462 0.0000
# 6 0.0000 0.0000 0.0000 0.0000 0.0000 21.7773
#
#
#
# Elastic Compliance Matrix: (Units=1/GPa)
#
#
# Indices 1 2 3 4 5 6 
#
# 1 0.019261 -0.002699 -0.002680 0.000000 0.000000 0.000000
# 2 -0.002699 0.008268 -0.007255 0.000000 0.000000 0.000000
# 3 -0.002680 -0.007255 0.029210 0.000000 0.000000 0.000000
# 4 0.000000 0.000000 0.000000 0.035007 0.000000 0.000000
# 5 0.000000 0.000000 0.000000 0.000000 0.872432 0.000000
# 6 0.000000 0.000000 0.000000 0.000000 0.000000 0.045919
#
#
# Mechanical properties :
#
#
# Convention : Reuss Voigt Hill
#
# Bulk Modulus (GPa) = 31.77482 50.09883 40.93683
# Shear Modulus (GPa) = 4.78077 22.75427 13.76752
#
# Velocity S-wave (km/s) = 1.63236 3.56122 2.77010
# Velocity P-wave (km/s) = 4.61116 6.69573 5.74872
#
# Compressibility (1/GPa) = 0.03147146
#
# Stress axis : x y z
#
# Youngs Moduli (GPa) = 51.91759 120.94537 34.23444
#
# Poissons Ratio (x) = 0.32647 0.09174
# Poissons Ratio (y) = 0.14014 0.24837
# Poissons Ratio (z) = 0.13913 0.87747
#
# Static dielectric constant tensor:
#      x y z
#    x 1.679160 0.000000 0.000000 
#    y 0.000000 1.678000 0.000000 
#    z 0.000000 0.000000 1.571380 
# 
# From -- ./inp_files/19373.got.cif
#   From: 2010.05.17/outbox.cif.g08.bks.cpg/sg67_10_cif.got.tgz:19373.got - 2010.06.03 18:28:57.
