data_PCOD9502598
_publ_section_title
;
Structure prediction by ZEFSAII (Michael W. Deem and Ramdas Pophale) SiO2 
 PCOD9502598
Probable space group: C M M A
;
_chemical_formula_sum "Si O2"
_cell_formula_units_Z 96
_cell_length_a 8.597335
_cell_length_b 19.488748
_cell_length_c 32.100680
_cell_angle_alpha 90.000000
_cell_angle_beta 90.000000
_cell_angle_gamma 90.000000
_cell_volume 5378.510514
_symmetry_space_group_name_H-M "C M M A"
_symmetry_group_IT_number 67
_symmetry_cell_setting 'orthorhombic'
loop_
_space_group_symop_operation_xyz
x,y,z
-x,1/2-y,z
x,-y,-z
-x,1/2+y,-z
-x,-y,-z
x,1/2+y,-z
-x,y,z
x,1/2-y,z
1/2+x,1/2+y,z
1/2-x,-y,z
1/2+x,1/2-y,-z
1/2-x,y,-z
1/2-x,1/2-y,-z
1/2+x,y,-z
1/2-x,1/2+y,z
1/2+x,-y,z
loop_
_atom_site_type_symbol
_atom_site_label
_atom_site_fract_x
_atom_site_fract_y
_atom_site_fract_z
Si Si1 0.809879 0.828887 0.711620
Si Si2 0.814086 0.422079 0.457568
Si Si3 0.187857 0.077548 0.365547
Si Si4 0.687706 0.923848 0.212345
Si Si5 0.186021 0.329761 0.955516
Si Si6 0.186469 0.076190 0.117513
O O1 0.758280 0.750000 0.710691
O O2 0.759794 0.872628 0.671377
O O3 0.760591 0.869273 0.753200
O O4 0.000000 0.828254 0.711411
O O5 0.750000 0.500000 0.457072
O O6 0.750000 0.388901 0.500000
O O7 0.769189 0.395034 0.411781
O O8 0.000000 0.423870 0.460375
O O9 0.000000 0.073713 0.364282
O O10 0.250000 0.000000 0.360328
O O11 0.500000 0.926689 0.213404
O O12 0.734261 0.905556 0.165003
O O13 0.750000 0.000000 0.221773
O O14 0.234060 0.250000 0.951344
O O15 0.249438 0.372703 0.916991
O O16 0.000000 0.333018 0.956232
O O17 0.250000 0.355087 0.000000
O O18 0.000000 0.075482 0.115850
O O19 0.250000 0.000000 0.109412
#
# Coordination Sequence:
#
# PCOD9502598 Si02
#       6
#    16  16  16  16  16  16
#     4   9  17  30  48  70  95 123 158 197 234 277
#     4   9  15  23  37  60  87 113 145 185 230 275
#     4   9  17  28  45  68  91 119 154 192 234 279
#     4   9  18  32  52  75  98 127 160 197 240 285
#     4  10  21  37  56  78 105 137 172 209 249 293
#     4  10  20  34  53  78 106 134 167 206 248 295
#
# _framework density 17.848807999999998
#
# number of rings (size 3 to 8) (size 9 to 14) (size 15 to 20)
#    0.000    2.667    0.000    2.500    0.000    3.333 
#    0.000    3.333    0.000    2.500    0.000    0.000 
#    0.000    0.000    0.000    0.000    0.000    4.500 
#
# Total GULP energy -267555.198790 kJ/mol
# GULP energy per Si atom -5574.066641 kJ/mol
# Density = 1.780818 g / cm^3
# Si number density = 17.848808 Si / 1000 Ang^3
#
#
#
# Elastic Constant Matrix: (Units=GPa)
#
#
# Indices 1 2 3 4 5 6 
#
# 1 21.1765 19.5183 34.0771 0.0000 0.0000 0.0000
# 2 19.5183 96.2183 108.9905 0.0000 0.0000 0.0000
# 3 34.0771 108.9905 191.3027 0.0000 0.0000 0.0000
# 4 0.0000 0.0000 0.0000 -7.4959 0.0000 0.0000
# 5 0.0000 0.0000 0.0000 0.0000 59.3307 0.0000
# 6 0.0000 0.0000 0.0000 0.0000 0.0000 20.1335
#
#
#
# Elastic Compliance Matrix: (Units=1/GPa)
#
#
# Indices 1 2 3 4 5 6 
#
# 1 0.066199 -0.000201 -0.011678 0.000000 0.000000 0.000000
# 2 -0.000201 0.029306 -0.016661 0.000000 0.000000 0.000000
# 3 -0.011678 -0.016661 0.016800 0.000000 0.000000 0.000000
# 4 0.000000 0.000000 0.000000 -0.133406 0.000000 0.000000
# 5 0.000000 0.000000 0.000000 0.000000 0.016855 0.000000
# 6 0.000000 0.000000 0.000000 0.000000 0.000000 0.049668
#
#
# Mechanical properties :
#
#
# Convention : Reuss Voigt Hill
#
# Bulk Modulus (GPa) = 18.10740 70.42993 44.26867
# Shear Modulus (GPa) = 41.35342 24.13444 32.74393
#
# Velocity S-wave (km/s) = 4.81861 3.68116 4.28777
# Velocity P-wave (km/s) = 6.41293 7.59031 7.02632
#
# Compressibility (1/GPa) = 0.05522603
#
# Stress axis : x y z
#
# Youngs Moduli (GPa) = 15.10594 34.12268 59.52549
#
# Poissons Ratio (x) = 0.00686 0.69512
# Poissons Ratio (y) = 0.00304 0.99173
# Poissons Ratio (z) = 0.17640 0.56851
#
# Static dielectric constant tensor:
#      x y z
#    x 1.603800 0.000000 0.000000 
#    y 0.000000 1.572430 0.000000 
#    z 0.000000 0.000000 1.644680 
# 
# From -- ./inp_files/43438.got.cif
#   From: 2010.05.17/outbox.cif.g08.bks.cpg/sg67_22_cif.got.tgz:43438.got - 2010.06.03 18:28:57.
