data_PCOD9502796
_publ_section_title
;
Structure prediction by ZEFSAII (Michael W. Deem and Ramdas Pophale) SiO2 
 PCOD9502796
Probable space group: C M M A
;
_chemical_formula_sum "Si O2"
_cell_formula_units_Z 96
_cell_length_a 18.640120
_cell_length_b 8.959343
_cell_length_c 32.467227
_cell_angle_alpha 90.000000
_cell_angle_beta 90.000000
_cell_angle_gamma 90.000000
_cell_volume 5422.131734
_symmetry_space_group_name_H-M "C M M A"
_symmetry_group_IT_number 67
_symmetry_cell_setting 'orthorhombic'
loop_
_space_group_symop_operation_xyz
x,y,z
-x,1/2-y,z
x,-y,-z
-x,1/2+y,-z
-x,-y,-z
x,1/2+y,-z
-x,y,z
x,1/2-y,z
1/2+x,1/2+y,z
1/2-x,-y,z
1/2+x,1/2-y,-z
1/2-x,y,-z
1/2-x,1/2-y,-z
1/2+x,y,-z
1/2-x,1/2+y,z
1/2+x,-y,z
loop_
_atom_site_type_symbol
_atom_site_label
_atom_site_fract_x
_atom_site_fract_y
_atom_site_fract_z
Si Si1 0.587352 0.576928 0.957916
Si Si2 0.085804 0.572384 0.541513
Si Si3 0.329182 0.428610 0.292926
Si Si4 0.913679 0.572386 0.632811
Si Si5 0.671153 0.429983 0.791656
Si Si6 0.416511 0.428720 0.873482
O O1 0.500000 0.564866 0.957845
O O2 0.606158 0.750000 0.958336
O O3 0.611923 0.501785 0.915471
O O4 0.612560 0.500000 0.000000
O O5 0.116120 0.500000 0.500000
O O6 0.094470 0.750000 0.538902
O O7 0.111669 0.525089 0.586868
O O8 0.000000 0.541908 0.541899
O O9 0.324280 0.250000 0.289899
O O10 0.250000 0.500000 0.297809
O O11 0.376350 0.479937 0.331454
O O12 0.359039 0.498526 0.250356
O O13 0.898583 0.750000 0.637623
O O14 0.000000 0.555831 0.634587
O O15 0.674921 0.250000 0.787521
O O16 0.750000 0.500000 0.796431
O O17 0.625914 0.467649 0.832205
O O18 0.500000 0.471599 0.868588
O O19 0.413631 0.250000 0.878426
#
# Coordination Sequence:
#
# PCOD9502796 Si02
#       6
#    16  16  16  16  16  16
#     4   9  16  26  43  68  98 130 161 195 236 282
#     4   8  14  25  43  68  98 131 163 196 237 287
#     4  11  22  36  54  74  98 130 169 209 250 299
#     4   9  18  33  52  75 104 135 166 203 249 296
#     4  10  20  35  54  73  96 129 165 201 245 297
#     4   9  18  32  50  73  99 127 161 199 240 286
#
# _framework density 17.705213000000001
#
# number of rings (size 3 to 8) (size 9 to 14) (size 15 to 20)
#    0.000    2.667    0.000    4.500    0.000    5.000 
#    0.000    3.333    0.000    1.000    0.000    7.000 
#    0.000    0.000    0.000    0.000    0.000    0.000 
#
# Total GULP energy -267512.150441 kJ/mol
# GULP energy per Si atom -5573.169801 kJ/mol
# Density = 1.766491 g / cm^3
# Si number density = 17.705213 Si / 1000 Ang^3
#
#
#
# Elastic Constant Matrix: (Units=GPa)
#
#
# Indices 1 2 3 4 5 6 
#
# 1 15.5095 19.4149 41.2244 0.0000 0.0000 0.0000
# 2 19.4149 66.9862 76.0657 0.0000 0.0000 0.0000
# 3 41.2244 76.0657 210.7570 0.0000 0.0000 0.0000
# 4 0.0000 0.0000 0.0000 37.4973 0.0000 0.0000
# 5 0.0000 0.0000 0.0000 0.0000 -28.3572 0.0000
# 6 0.0000 0.0000 0.0000 0.0000 0.0000 19.2379
#
#
#
# Elastic Compliance Matrix: (Units=1/GPa)
#
#
# Indices 1 2 3 4 5 6 
#
# 1 0.144395 -0.016569 -0.022264 0.000000 0.000000 0.000000
# 2 -0.016569 0.027197 -0.006575 0.000000 0.000000 0.000000
# 3 -0.022264 -0.006575 0.011473 0.000000 0.000000 0.000000
# 4 0.000000 0.000000 0.000000 0.026669 0.000000 0.000000
# 5 0.000000 0.000000 0.000000 0.000000 -0.035264 0.000000
# 6 0.000000 0.000000 0.000000 0.000000 0.000000 0.051981
#
#
# Mechanical properties :
#
#
# Convention : Reuss Voigt Hill
#
# Bulk Modulus (GPa) = 10.84023 62.96254 36.90138
# Shear Modulus (GPa) = 14.36721 16.11211 15.23966
#
# Velocity S-wave (km/s) = 2.85172 3.01993 2.93703
# Velocity P-wave (km/s) = 4.12055 6.91366 5.69112
#
# Compressibility (1/GPa) = 0.09224899
#
# Stress axis : x y z
#
# Youngs Moduli (GPa) = 6.92543 36.76915 87.16408
#
# Poissons Ratio (x) = 0.60923 1.94061
# Poissons Ratio (y) = 0.11475 0.57309
# Poissons Ratio (z) = 0.15419 0.24175
#
# Static dielectric constant tensor:
#      x y z
#    x 1.592420 0.000000 0.000000 
#    y 0.000000 1.591110 0.000000 
#    z 0.000000 0.000000 1.627130 
# 
# From -- ./inp_files/43499.got.cif
#   From: 2010.05.17/outbox.cif.g08.bks.cpg/sg67_22_cif.got.tgz:43499.got - 2010.06.03 18:28:57.
