data_PCOD9502379
_publ_section_title
;
Structure prediction by ZEFSAII (Michael W. Deem and Ramdas Pophale) SiO2 
 PCOD9502379
Probable space group: C M M A
;
_chemical_formula_sum "Si O2"
_cell_formula_units_Z 116
_cell_length_a 23.753020
_cell_length_b 14.592415
_cell_length_c 14.659058
_cell_angle_alpha 90.000000
_cell_angle_beta 90.000000
_cell_angle_gamma 90.000000
_cell_volume 5081.033635
_symmetry_space_group_name_H-M "C M M A"
_symmetry_group_IT_number 67
_symmetry_cell_setting 'orthorhombic'
loop_
_space_group_symop_operation_xyz
x,y,z
-x,1/2-y,z
x,-y,-z
-x,1/2+y,-z
-x,-y,-z
x,1/2+y,-z
-x,y,z
x,1/2-y,z
1/2+x,1/2+y,z
1/2-x,-y,z
1/2+x,1/2-y,-z
1/2-x,y,-z
1/2-x,1/2-y,-z
1/2+x,y,-z
1/2-x,1/2+y,z
1/2+x,-y,z
loop_
_atom_site_type_symbol
_atom_site_label
_atom_site_fract_x
_atom_site_fract_y
_atom_site_fract_z
Si Si1 0.500000 0.250000 0.930250
Si Si2 0.632323 0.115126 0.318610
Si Si3 0.909305 0.400623 0.125080
Si Si4 0.315571 0.612128 0.494199
Si Si5 0.831166 0.144997 0.973309
Si Si6 0.759327 0.143645 0.807226
Si Si7 0.937396 0.887347 0.153438
Si Si8 0.650984 0.097029 0.701875
O O1 0.451304 0.169414 0.921481
O O2 0.646307 0.144573 0.421254
O O3 0.686701 0.141197 0.258852
O O4 0.578570 0.140523 0.257168
O O5 0.630562 0.005158 0.318808
O O6 0.933912 0.502300 0.139245
O O7 0.891803 0.362978 0.224407
O O8 0.853202 0.407528 0.062269
O O9 0.314918 0.500000 0.500000
O O10 0.250000 0.639978 0.500000
O O11 0.338744 0.641246 0.395852
O O12 0.818621 0.250000 0.999161
O O13 0.781202 0.112037 0.906537
O O14 0.886359 0.147317 0.908204
O O15 0.741462 0.250000 0.814455
O O16 0.710049 0.090862 0.755836
O O17 0.000000 0.855992 0.128138
#
# Coordination Sequence:
#
# PCOD9502379 Si02
#       8
#     4  16  16  16  16  16  16  16
#     4  12  24  40  62  74 114 154 200 242 286 324
#     4   9  18  35  55  81 113 143 182 228 279 330
#     4  11  23  38  57  81 110 151 193 241 282 333
#     4   9  15  29  58  85 107 140 180 224 270 332
#     4  10  22  37  55  83 113 149 188 232 291 338
#     4  10  20  33  51  80 116 143 176 228 277 339
#     4  10  21  36  58  84 110 144 193 242 283 329
#     4  10  20  34  58  82 108 147 187 220 280 338
#
# _framework density 22.830000999999999
#
# number of rings (size 3 to 8) (size 9 to 14) (size 15 to 20)
#    0.000    2.069    2.759    0.828    1.931    1.379 
#    0.000    2.759    1.517    7.034    0.000    0.000 
#    0.000    0.000    0.000    0.000    0.000    0.000 
#
# Total GULP energy -323574.001774 kJ/mol
# GULP energy per Si atom -5578.862100 kJ/mol
# Density = 2.277804 g / cm^3
# Si number density = 22.830001 Si / 1000 Ang^3
#
#
#
# Elastic Constant Matrix: (Units=GPa)
#
#
# Indices 1 2 3 4 5 6 
#
# 1 59.4867 -3.8501 25.7342 0.0000 0.0000 0.0000
# 2 -3.8501 85.7186 -2.1157 0.0000 0.0000 0.0000
# 3 25.7342 -2.1157 172.1456 0.0000 0.0000 0.0000
# 4 0.0000 0.0000 0.0000 -72.3140 0.0000 0.0000
# 5 0.0000 0.0000 0.0000 0.0000 21.5370 0.0000
# 6 0.0000 0.0000 0.0000 0.0000 0.0000 23.6058
#
#
#
# Elastic Compliance Matrix: (Units=1/GPa)
#
#
# Indices 1 2 3 4 5 6 
#
# 1 0.018020 0.000743 -0.002685 0.000000 0.000000 0.000000
# 2 0.000743 0.011700 0.000033 0.000000 0.000000 0.000000
# 3 -0.002685 0.000033 0.006211 0.000000 0.000000 0.000000
# 4 0.000000 0.000000 0.000000 -0.013829 0.000000 0.000000
# 5 0.000000 0.000000 0.000000 0.000000 0.046432 0.000000
# 6 0.000000 0.000000 0.000000 0.000000 0.000000 0.042362
#
#
# Mechanical properties :
#
#
# Convention : Reuss Voigt Hill
#
# Bulk Modulus (GPa) = 31.13974 39.65419 35.39697
# Shear Modulus (GPa) = 39.86647 14.40460 27.13554
#
# Velocity S-wave (km/s) = 4.18333 2.51460 3.45134
# Velocity P-wave (km/s) = 6.08302 5.08311 5.60540
#
# Compressibility (1/GPa) = 0.03211331
#
# Stress axis : x y z
#
# Youngs Moduli (GPa) = 55.49393 85.46812 161.01050
#
# Poissons Ratio (x) = -0.06351 0.43226
# Poissons Ratio (y) = -0.04124 -0.00527
# Poissons Ratio (z) = 0.14898 -0.00280
#
# Static dielectric constant tensor:
#      x y z
#    x 1.841390 0.000000 0.000000 
#    y 0.000000 1.893370 0.000000 
#    z 0.000000 0.000000 1.885920 
# 
# From -- ./inp_files/28746.got.cif
#   From: 2010.05.17/outbox.cif.g08.bks.cpg/sg67_15_cif.got.tgz:28746.got - 2010.06.03 18:28:57.
