data_PCOD9502290
_publ_section_title
;
Structure prediction by ZEFSAII (Michael W. Deem and Ramdas Pophale) SiO2 
 PCOD9502290
Probable space group: C M M A
;
_chemical_formula_sum "Si O2"
_cell_formula_units_Z 96
_cell_length_a 24.279233
_cell_length_b 7.403884
_cell_length_c 27.234436
_cell_angle_alpha 90.000000
_cell_angle_beta 90.000000
_cell_angle_gamma 90.000000
_cell_volume 4895.679230
_symmetry_space_group_name_H-M "C M M A"
_symmetry_group_IT_number 67
_symmetry_cell_setting 'orthorhombic'
loop_
_space_group_symop_operation_xyz
x,y,z
-x,1/2-y,z
x,-y,-z
-x,1/2+y,-z
-x,-y,-z
x,1/2+y,-z
-x,y,z
x,1/2-y,z
1/2+x,1/2+y,z
1/2-x,-y,z
1/2+x,1/2-y,-z
1/2-x,y,-z
1/2-x,1/2-y,-z
1/2+x,y,-z
1/2-x,1/2+y,z
1/2+x,-y,z
loop_
_atom_site_type_symbol
_atom_site_label
_atom_site_fract_x
_atom_site_fract_y
_atom_site_fract_z
Si Si1 0.878720 0.465884 0.946622
Si Si2 0.435134 0.970201 0.660538
Si Si3 0.112174 0.529669 0.238938
Si Si4 0.000000 0.969810 0.072764
Si Si5 0.185417 0.465855 0.849880
Si Si6 0.062928 0.965403 0.447130
Si Si7 0.000000 0.968611 0.186351
O O1 0.881944 0.250000 0.941016
O O2 0.941688 0.536137 0.947607
O O3 0.846464 0.534268 0.898551
O O4 0.852700 0.500000 0.000000
O O5 0.500000 0.022031 0.667554
O O6 0.435625 0.750000 0.661856
O O7 0.395803 0.030234 0.704844
O O8 0.416160 0.028196 0.606022
O O9 0.114622 0.750000 0.240208
O O10 0.159897 0.467897 0.201810
O O11 0.055240 0.474514 0.213004
O O12 0.000000 0.750000 0.068655
O O13 0.000000 0.019019 0.129916
O O14 0.177102 0.250000 0.849717
O O15 0.250000 0.500000 0.853453
O O16 0.059895 0.750000 0.443446
O O17 0.000000 0.036474 0.450152
O O18 0.090211 0.000000 0.500000
O O19 0.000000 0.750000 0.187832
#
# Coordination Sequence:
#
# PCOD9502290 Si02
#       7
#    16  16  16   8  16  16   8
#     4  10  20  33  50  71  92 114 141 174 213 257
#     4   8  12  18  33  59  86 108 136 177 216 246
#     4   9  14  23  42  67  89 108 137 179 223 258
#     4   9  15  27  46  70  96 113 133 170 215 260
#     4  10  21  35  50  67  87 114 146 178 215 258
#     4   8  13  20  30  48  78 114 145 169 196 236
#     4   9  12  19  41  68  89 107 131 174 221 256
#
# _framework density 19.609128999999999
#
# number of rings (size 3 to 8) (size 9 to 14) (size 15 to 20)
#    0.000    3.000    2.500    1.250    0.000    1.000 
#    0.000    1.667    0.000    1.000    0.000    0.583 
#    0.000    0.667    0.000    8.333    0.000    0.333 
#
# Total GULP energy -267384.180837 kJ/mol
# GULP energy per Si atom -5570.503767 kJ/mol
# Density = 1.956450 g / cm^3
# Si number density = 19.609129 Si / 1000 Ang^3
#
#
#
# Elastic Constant Matrix: (Units=GPa)
#
#
# Indices 1 2 3 4 5 6 
#
# 1 86.3103 0.2765 69.6386 0.0000 0.0000 0.0000
# 2 0.2765 64.7179 4.8377 0.0000 0.0000 0.0000
# 3 69.6386 4.8377 228.4536 0.0000 0.0000 0.0000
# 4 0.0000 0.0000 0.0000 10.3105 0.0000 0.0000
# 5 0.0000 0.0000 0.0000 0.0000 11.4740 0.0000
# 6 0.0000 0.0000 0.0000 0.0000 0.0000 493.9729
#
#
#
# Elastic Compliance Matrix: (Units=1/GPa)
#
#
# Indices 1 2 3 4 5 6 
#
# 1 0.015370 0.000285 -0.004691 0.000000 0.000000 0.000000
# 2 0.000285 0.015481 -0.000415 0.000000 0.000000 0.000000
# 3 -0.004691 -0.000415 0.005816 0.000000 0.000000 0.000000
# 4 0.000000 0.000000 0.000000 0.096989 0.000000 0.000000
# 5 0.000000 0.000000 0.000000 0.000000 0.087154 0.000000
# 6 0.000000 0.000000 0.000000 0.000000 0.000000 0.002024
#
#
# Mechanical properties :
#
#
# Convention : Reuss Voigt Hill
#
# Bulk Modulus (GPa) = 37.00165 58.77638 47.88902
# Shear Modulus (GPa) = 20.70520 123.46673 72.08597
#
# Velocity S-wave (km/s) = 3.25298 7.94359 6.06970
# Velocity P-wave (km/s) = 5.74628 10.68519 8.57884
#
# Compressibility (1/GPa) = 0.02702582
#
# Stress axis : x y z
#
# Youngs Moduli (GPa) = 65.06045 64.59341 171.93743
#
# Poissons Ratio (x) = -0.01841 0.80661
# Poissons Ratio (y) = -0.01854 0.07130
# Poissons Ratio (z) = 0.30522 0.02679
#
# Static dielectric constant tensor:
#      x y z
#    x 1.644450 0.000000 0.000000 
#    y 0.000000 1.785710 0.000000 
#    z 0.000000 0.000000 1.755810 
# 
# From -- ./inp_files/44750.got.cif
#   From: 2010.05.17/outbox.cif.g08.bks.cpg/sg67_23_cif.got.tgz:44750.got - 2010.06.03 18:28:57.
