data_PCOD9502949
_publ_section_title
;
Structure prediction by ZEFSAII (Michael W. Deem and Ramdas Pophale) SiO2 
 PCOD9502949
Probable space group: C M M A
;
_chemical_formula_sum "Si O2"
_cell_formula_units_Z 96
_cell_length_a 15.101626
_cell_length_b 24.105760
_cell_length_c 11.159400
_cell_angle_alpha 90.000000
_cell_angle_beta 90.000000
_cell_angle_gamma 90.000000
_cell_volume 4062.425257
_symmetry_space_group_name_H-M "C M M A"
_symmetry_group_IT_number 67
_symmetry_cell_setting 'orthorhombic'
loop_
_space_group_symop_operation_xyz
x,y,z
-x,1/2-y,z
x,-y,-z
-x,1/2+y,-z
-x,-y,-z
x,1/2+y,-z
-x,y,z
x,1/2-y,z
1/2+x,1/2+y,z
1/2-x,-y,z
1/2+x,1/2-y,-z
1/2-x,y,-z
1/2-x,1/2-y,-z
1/2+x,y,-z
1/2-x,1/2+y,z
1/2+x,-y,z
loop_
_atom_site_type_symbol
_atom_site_label
_atom_site_fract_x
_atom_site_fract_y
_atom_site_fract_z
Si Si1 0.393657 0.912969 0.578457
Si Si2 0.896650 0.417580 0.315424
Si Si3 0.659095 0.812828 0.188151
Si Si4 0.637360 0.812797 0.733756
Si Si5 0.600338 0.381410 0.033001
Si Si6 0.891686 0.479913 0.815846
O O1 0.500000 0.919877 0.573887
O O2 0.357154 0.927120 0.447291
O O3 0.374965 0.849691 0.615774
O O4 0.364650 0.949915 0.691121
O O5 0.888896 0.353809 0.279910
O O6 0.861804 0.457227 0.208987
O O7 0.000000 0.432129 0.324793
O O8 0.624656 0.750000 0.179664
O O9 0.759669 0.810837 0.231751
O O10 0.651809 0.844020 0.061367
O O11 0.604943 0.750000 0.722748
O O12 0.594720 0.846413 0.843739
O O13 0.500000 0.389104 0.984754
O O14 0.638157 0.440933 0.074976
O O15 0.000000 0.477968 0.827383
#
# Coordination Sequence:
#
# PCOD9502949 Si02
#       6
#    16  16  16  16  16  16
#     4   9  18  34  58  86 112 141 185 238 284 333
#     4  10  20  35  57  83 113 149 186 229 283 340
#     4  11  24  38  52  77 116 157 193 231 279 334
#     4  10  21  37  56  78 109 151 194 234 280 334
#     4  10  20  36  60  86 110 139 184 240 289 339
#     4   8  16  33  58  86 110 136 178 233 289 340
#
# _framework density 23.631204
#
# number of rings (size 3 to 8) (size 9 to 14) (size 15 to 20)
#    0.000    2.333    0.000    3.500    0.000    8.667 
#    0.000    9.167    0.000    8.000    0.000    0.000 
#    0.000    0.000    0.000    0.000    0.000    0.000 
#
# Total GULP energy -268204.749992 kJ/mol
# GULP energy per Si atom -5587.598958 kJ/mol
# Density = 2.357742 g / cm^3
# Si number density = 23.631204 Si / 1000 Ang^3
#
#
#
# Elastic Constant Matrix: (Units=GPa)
#
#
# Indices 1 2 3 4 5 6 
#
# 1 32.1804 5.0444 -0.7466 0.0000 0.0000 0.0000
# 2 5.0444 144.5694 30.6710 0.0000 0.0000 0.0000
# 3 -0.7466 30.6710 89.5818 0.0000 0.0000 0.0000
# 4 0.0000 0.0000 0.0000 27.7398 0.0000 0.0000
# 5 0.0000 0.0000 0.0000 0.0000 -11.5796 0.0000
# 6 0.0000 0.0000 0.0000 0.0000 0.0000 26.4216
#
#
#
# Elastic Compliance Matrix: (Units=1/GPa)
#
#
# Indices 1 2 3 4 5 6 
#
# 1 0.031285 -0.001237 0.000684 0.000000 0.000000 0.000000
# 2 -0.001237 0.007508 -0.002581 0.000000 0.000000 0.000000
# 3 0.000684 -0.002581 0.012052 0.000000 0.000000 0.000000
# 4 0.000000 0.000000 0.000000 0.036049 0.000000 0.000000
# 5 0.000000 0.000000 0.000000 0.000000 -0.086359 0.000000
# 6 0.000000 0.000000 0.000000 0.000000 0.000000 0.037848
#
#
# Mechanical properties :
#
#
# Convention : Reuss Voigt Hill
#
# Bulk Modulus (GPa) = 22.43267 37.36327 29.89797
# Shear Modulus (GPa) = 84.02047 23.94053 53.98050
#
# Velocity S-wave (km/s) = 5.96926 3.18636 4.78461
# Velocity P-wave (km/s) = 7.55135 5.42056 6.57287
#
# Compressibility (1/GPa) = 0.04457783
#
# Stress axis : x y z
#
# Youngs Moduli (GPa) = 31.96463 133.19519 82.97172
#
# Poissons Ratio (x) = 0.16473 -0.05677
# Poissons Ratio (y) = 0.03953 0.21414
# Poissons Ratio (z) = -0.02187 0.34375
#
# Static dielectric constant tensor:
#      x y z
#    x 1.926500 0.000000 0.000000 
#    y 0.000000 1.917180 0.000000 
#    z 0.000000 0.000000 1.897530 
# 
# From -- ./inp_files/19624.got.cif
#   From: 2010.05.17/outbox.cif.g08.bks.cpg/sg67_10_cif.got.tgz:19624.got - 2010.06.03 18:28:57.
