data_PCOD9502427
_publ_section_title
;
Structure prediction by ZEFSAII (Michael W. Deem and Ramdas Pophale) SiO2 
 PCOD9502427
Probable space group: C M M A
;
_chemical_formula_sum "Si O2"
_cell_formula_units_Z 68
_cell_length_a 18.399983
_cell_length_b 15.018346
_cell_length_c 12.779036
_cell_angle_alpha 90.000000
_cell_angle_beta 90.000000
_cell_angle_gamma 90.000000
_cell_volume 3531.324447
_symmetry_space_group_name_H-M "C M M A"
_symmetry_group_IT_number 67
_symmetry_cell_setting 'orthorhombic'
loop_
_space_group_symop_operation_xyz
x,y,z
-x,1/2-y,z
x,-y,-z
-x,1/2+y,-z
-x,-y,-z
x,1/2+y,-z
-x,y,z
x,1/2-y,z
1/2+x,1/2+y,z
1/2-x,-y,z
1/2+x,1/2-y,-z
1/2-x,y,-z
1/2-x,1/2-y,-z
1/2+x,y,-z
1/2-x,1/2+y,z
1/2+x,-y,z
loop_
_atom_site_type_symbol
_atom_site_label
_atom_site_fract_x
_atom_site_fract_y
_atom_site_fract_z
Si Si1 0.418174 0.645256 0.005528
Si Si2 0.083023 0.436148 0.776302
Si Si3 0.750000 0.000000 0.500000
Si Si4 0.799877 0.848712 0.344634
Si Si5 0.193504 0.923709 0.826564
O O1 0.500000 0.626676 0.050351
O O2 0.416007 0.750000 0.980161
O O3 0.351423 0.623287 0.081784
O O4 0.412444 0.589392 0.899109
O O5 0.122526 0.359890 0.710979
O O6 0.131660 0.523675 0.762406
O O7 0.000000 0.448268 0.747752
O O8 0.791936 0.930255 0.425381
O O9 0.791686 0.750000 0.389261
O O10 0.740180 0.863568 0.252299
O O11 0.250000 0.000000 0.864828
#
# Coordination Sequence:
#
# PCOD9502427 Si02
#       5
#    16  16   4  16  16
#     4  10  20  33  53  83 121 162 198 230 272 336
#     4  10  20  37  58  85 122 159 196 232 280 346
#     4  12  22  48  62  92 108 144 196 248 312 356
#     4  11  23  40  66  89 114 150 191 247 297 347
#     4  10  20  36  54  86 120 155 197 232 284 339
#
# _framework density 19.256231
#
# number of rings (size 3 to 8) (size 9 to 14) (size 15 to 20)
#    0.000    1.647    3.529    3.176    0.000    9.882 
#    0.000    6.471    0.000    0.000    0.000    0.000 
#    0.000    0.000    0.000    0.000    0.000    0.000 
#
# Total GULP energy -189691.394203 kJ/mol
# GULP energy per Si atom -5579.158653 kJ/mol
# Density = 1.921240 g / cm^3
# Si number density = 19.256231 Si / 1000 Ang^3
#
#
#
# Elastic Constant Matrix: (Units=GPa)
#
#
# Indices 1 2 3 4 5 6 
#
# 1 138.4486 22.1431 21.8414 0.0000 0.0000 0.0000
# 2 22.1431 84.1545 -0.5412 0.0000 0.0000 0.0000
# 3 21.8414 -0.5412 43.8049 0.0000 0.0000 0.0000
# 4 0.0000 0.0000 0.0000 15.0986 0.0000 0.0000
# 5 0.0000 0.0000 0.0000 0.0000 4.7044 0.0000
# 6 0.0000 0.0000 0.0000 0.0000 0.0000 12.9654
#
#
#
# Elastic Compliance Matrix: (Units=1/GPa)
#
#
# Indices 1 2 3 4 5 6 
#
# 1 0.008224 -0.002191 -0.004128 0.000000 0.000000 0.000000
# 2 -0.002191 0.012467 0.001246 0.000000 0.000000 0.000000
# 3 -0.004128 0.001246 0.024902 0.000000 0.000000 0.000000
# 4 0.000000 0.000000 0.000000 0.066231 0.000000 0.000000
# 5 0.000000 0.000000 0.000000 0.000000 0.212569 0.000000
# 6 0.000000 0.000000 0.000000 0.000000 0.000000 0.077128
#
#
# Mechanical properties :
#
#
# Convention : Reuss Voigt Hill
#
# Bulk Modulus (GPa) = 28.20910 39.25494 33.73202
# Shear Modulus (GPa) = 11.80686 21.41800 16.61243
#
# Velocity S-wave (km/s) = 2.47886 3.33868 2.94037
# Velocity P-wave (km/s) = 4.78269 5.94072 5.39288
#
# Compressibility (1/GPa) = 0.03544956
#
# Stress axis : x y z
#
# Youngs Moduli (GPa) = 121.58866 80.20974 40.15729
#
# Poissons Ratio (x) = 0.17571 0.16576
# Poissons Ratio (y) = 0.26635 -0.05005
# Poissons Ratio (z) = 0.50190 -0.09996
#
# Static dielectric constant tensor:
#      x y z
#    x 1.685790 0.000000 0.000000 
#    y 0.000000 1.703720 0.000000 
#    z 0.000000 0.000000 1.684760 
# 
# From -- ./inp_files/19136.got.cif
#   From: 2010.05.17/outbox.cif.g08.bks.cpg/sg67_10_cif.got.tgz:19136.got - 2010.06.03 18:28:57.
