data_PCOD9502360
_publ_section_title
;
Structure prediction by ZEFSAII (Michael W. Deem and Ramdas Pophale) SiO2 
 PCOD9502360
Probable space group: C M M A
;
_chemical_formula_sum "Si O2"
_cell_formula_units_Z 80
_cell_length_a 15.041081
_cell_length_b 25.222481
_cell_length_c 10.611366
_cell_angle_alpha 90.000000
_cell_angle_beta 90.000000
_cell_angle_gamma 90.000000
_cell_volume 4025.669783
_symmetry_space_group_name_H-M "C M M A"
_symmetry_group_IT_number 67
_symmetry_cell_setting 'orthorhombic'
loop_
_space_group_symop_operation_xyz
x,y,z
-x,1/2-y,z
x,-y,-z
-x,1/2+y,-z
-x,-y,-z
x,1/2+y,-z
-x,y,z
x,1/2-y,z
1/2+x,1/2+y,z
1/2-x,-y,z
1/2+x,1/2-y,-z
1/2-x,y,-z
1/2-x,1/2-y,-z
1/2+x,y,-z
1/2-x,1/2+y,z
1/2+x,-y,z
loop_
_atom_site_type_symbol
_atom_site_label
_atom_site_fract_x
_atom_site_fract_y
_atom_site_fract_z
Si Si1 0.341274 0.469821 0.293224
Si Si2 0.604189 0.689711 0.836166
Si Si3 0.604278 0.418035 0.036054
Si Si4 0.900292 0.578102 0.746180
Si Si5 0.227432 0.864110 0.364136
O O1 0.250000 0.500000 0.312717
O O2 0.348228 0.447942 0.150181
O O3 0.405574 0.519258 0.313822
O O4 0.336588 0.416535 0.375616
O O5 0.500000 0.684110 0.795100
O O6 0.616416 0.750000 0.878938
O O7 0.618199 0.644664 0.941487
O O8 0.673387 0.674955 0.726403
O O9 0.500000 0.429888 0.054594
O O10 0.625240 0.431667 0.893099
O O11 0.820753 0.613911 0.692053
O O12 0.000000 0.601802 0.742399
O O13 0.250000 0.841486 0.500000
#
# Coordination Sequence:
#
# PCOD9502360 Si02
#       5
#    16  16  16  16  16
#     4   9  18  29  47  74 104 140 178 214 257 312
#     4   9  19  37  61  84 104 133 175 224 279 332
#     4   9  17  31  51  77 106 132 167 218 272 326
#     4  10  20  33  51  76 108 143 175 211 264 325
#     4  10  22  37  52  75 108 142 183 228 263 302
#
# _framework density 19.87247
#
# number of rings (size 3 to 8) (size 9 to 14) (size 15 to 20)
#    0.000    2.600    0.000    1.200    0.000   16.800 
#    0.000    3.000    0.000    1.800    0.000    0.000 
#    0.000    0.000    0.000    0.000    0.000    0.000 
#
# Total GULP energy -222816.361192 kJ/mol
# GULP energy per Si atom -5570.409030 kJ/mol
# Density = 1.982724 g / cm^3
# Si number density = 19.872470 Si / 1000 Ang^3
#
#
#
# Elastic Constant Matrix: (Units=GPa)
#
#
# Indices 1 2 3 4 5 6 
#
# 1 63.4982 13.9967 -0.2300 0.0000 0.0000 0.0000
# 2 13.9967 84.9757 -10.3711 0.0000 0.0000 0.0000
# 3 -0.2300 -10.3711 17.2186 0.0000 0.0000 0.0000
# 4 0.0000 0.0000 0.0000 7.5079 0.0000 0.0000
# 5 0.0000 0.0000 0.0000 0.0000 93.3658 0.0000
# 6 0.0000 0.0000 0.0000 0.0000 0.0000 0.7375
#
#
#
# Elastic Compliance Matrix: (Units=1/GPa)
#
#
# Indices 1 2 3 4 5 6 
#
# 1 0.016378 -0.002883 -0.001518 0.000000 0.000000 0.000000
# 2 -0.002883 0.013209 0.007918 0.000000 0.000000 0.000000
# 3 -0.001518 0.007918 0.062826 0.000000 0.000000 0.000000
# 4 0.000000 0.000000 0.000000 0.133193 0.000000 0.000000
# 5 0.000000 0.000000 0.000000 0.000000 0.010711 0.000000
# 6 0.000000 0.000000 0.000000 0.000000 0.000000 1.355936
#
#
# Mechanical properties :
#
#
# Convention : Reuss Voigt Hill
#
# Bulk Modulus (GPa) = 10.05557 19.16486 14.61021
# Shear Modulus (GPa) = 3.08953 31.14204 17.11579
#
# Velocity S-wave (km/s) = 1.24822 3.96295 2.93794
# Velocity P-wave (km/s) = 2.67366 5.53216 4.34472
#
# Compressibility (1/GPa) = 0.09944740
#
# Stress axis : x y z
#
# Youngs Moduli (GPa) = 61.05580 75.70435 15.91707
#
# Poissons Ratio (x) = 0.21826 0.02416
# Poissons Ratio (y) = 0.17602 -0.12603
# Poissons Ratio (z) = 0.09266 -0.59941
#
# Static dielectric constant tensor:
#      x y z
#    x 1.758740 0.000000 0.000000 
#    y 0.000000 1.711610 0.000000 
#    z 0.000000 0.000000 1.693970 
# 
# From -- ./inp_files/17895.got.cif
#   From: 2010.05.17/outbox.cif.g08.bks.cpg/sg67_9_cif.got.tgz:17895.got - 2010.06.03 18:28:57.
