data_PCOD9502045
_publ_section_title
;
Structure prediction by ZEFSAII (Michael W. Deem and Ramdas Pophale) SiO2 
 PCOD9502045
Probable space group: C M M A
;
_chemical_formula_sum "Si O2"
_cell_formula_units_Z 92
_cell_length_a 15.462773
_cell_length_b 14.018147
_cell_length_c 22.578833
_cell_angle_alpha 90.000000
_cell_angle_beta 90.000000
_cell_angle_gamma 90.000000
_cell_volume 4894.174857
_symmetry_space_group_name_H-M "C M M A"
_symmetry_group_IT_number 67
_symmetry_cell_setting 'orthorhombic'
loop_
_space_group_symop_operation_xyz
x,y,z
-x,1/2-y,z
x,-y,-z
-x,1/2+y,-z
-x,-y,-z
x,1/2+y,-z
-x,y,z
x,1/2-y,z
1/2+x,1/2+y,z
1/2-x,-y,z
1/2+x,1/2-y,-z
1/2-x,y,-z
1/2-x,1/2-y,-z
1/2+x,y,-z
1/2-x,1/2+y,z
1/2+x,-y,z
loop_
_atom_site_type_symbol
_atom_site_label
_atom_site_fract_x
_atom_site_fract_y
_atom_site_fract_z
Si Si1 0.000000 0.864074 0.660668
Si Si2 0.808659 0.636637 0.706038
Si Si3 0.172425 0.865355 0.401045
Si Si4 0.250000 0.500000 0.191528
Si Si5 0.903336 0.021386 0.898999
Si Si6 0.750000 0.500000 0.500000
Si Si7 0.500000 0.025009 0.428204
Si Si8 0.353063 0.139931 0.991164
O O1 0.908375 0.889991 0.691256
O O2 0.000000 0.750000 0.652833
O O3 0.000000 0.919825 0.599331
O O4 0.807454 0.750000 0.714139
O O5 0.739862 0.616140 0.652957
O O6 0.778795 0.584288 0.765021
O O7 0.167706 0.750000 0.408654
O O8 0.078912 0.914641 0.399595
O O9 0.205274 0.924605 0.457039
O O10 0.170329 0.529479 0.149911
O O11 0.000000 0.018563 0.874263
O O12 0.884949 0.926535 0.937931
O O13 0.895349 0.104589 0.947875
O O14 0.500000 0.000000 0.500000
O O15 0.370661 0.250000 0.979395
O O16 0.250000 0.126179 0.000000
#
# Coordination Sequence:
#
# PCOD9502045 Si02
#       8
#     8  16  16   8  16   4   8  16
#     4  10  22  43  68  93 121 160 213 261 305 375
#     4  10  24  44  65  88 120 165 208 254 310 363
#     4  11  24  42  62  91 129 165 208 256 307 376
#     4  12  23  41  62  89 125 158 206 262 302 362
#     4  11  23  38  60  92 123 158 204 255 308 364
#     4  12  20  38  64  94 118 162 202 256 320 366
#     4  12  23  39  62  98 129 164 203 246 316 377
#     4  10  19  38  63  86 124 167 200 246 311 375
#
# _framework density 18.797855999999999
#
# number of rings (size 3 to 8) (size 9 to 14) (size 15 to 20)
#    0.000    1.217    2.609    4.696    1.217    3.478 
#    1.565    0.000    0.000    0.000    0.000    0.000 
#    0.000    0.000    0.000    0.000    0.000    0.000 
#
# Total GULP energy -256479.170142 kJ/mol
# GULP energy per Si atom -5575.634134 kJ/mol
# Density = 1.875507 g / cm^3
# Si number density = 18.797856 Si / 1000 Ang^3
#
#
#
# Elastic Constant Matrix: (Units=GPa)
#
#
# Indices 1 2 3 4 5 6 
#
# 1 168.6523 32.2607 72.0877 0.0000 0.0000 0.0000
# 2 32.2607 63.1573 28.4215 0.0000 0.0000 0.0000
# 3 72.0877 28.4215 109.7501 0.0000 0.0000 0.0000
# 4 0.0000 0.0000 0.0000 6.5475 0.0000 0.0000
# 5 0.0000 0.0000 0.0000 0.0000 16.4756 0.0000
# 6 0.0000 0.0000 0.0000 0.0000 0.0000 -16.4189
#
#
#
# Elastic Compliance Matrix: (Units=1/GPa)
#
#
# Indices 1 2 3 4 5 6 
#
# 1 0.008475 -0.002065 -0.005032 0.000000 0.000000 0.000000
# 2 -0.002065 0.018425 -0.003415 0.000000 0.000000 0.000000
# 3 -0.005032 -0.003415 0.013301 0.000000 0.000000 0.000000
# 4 0.000000 0.000000 0.000000 0.152730 0.000000 0.000000
# 5 0.000000 0.000000 0.000000 0.000000 0.060696 0.000000
# 6 0.000000 0.000000 0.000000 0.000000 0.000000 -0.060905
#
#
# Mechanical properties :
#
#
# Convention : Reuss Voigt Hill
#
# Bulk Modulus (GPa) = 52.14470 67.45548 59.80009
# Shear Modulus (GPa) = 22.71301 15.24018 18.97660
#
# Velocity S-wave (km/s) = 3.47980 2.85044 3.18072
# Velocity P-wave (km/s) = 6.62912 6.84075 6.73577
#
# Compressibility (1/GPa) = 0.01917741
#
# Stress axis : x y z
#
# Youngs Moduli (GPa) = 117.99146 54.27399 75.18039
#
# Poissons Ratio (x) = 0.11205 0.37832
# Poissons Ratio (y) = 0.24361 0.25677
# Poissons Ratio (z) = 0.59375 0.18536
#
# Static dielectric constant tensor:
#      x y z
#    x 1.983720 0.000000 0.000000 
#    y 0.000000 1.632200 0.000000 
#    z 0.000000 0.000000 -13.025790 
# 
# From -- ./inp_files/38575.got.cif
#   From: 2010.05.17/outbox.cif.g08.bks.cpg/sg67_20_cif.got.tgz:38575.got - 2010.06.03 18:28:57.
