data_PCOD9502785
_publ_section_title
;
Structure prediction by ZEFSAII (Michael W. Deem and Ramdas Pophale) SiO2 
 PCOD9502785
Probable space group: C M M A
;
_chemical_formula_sum "Si O2"
_cell_formula_units_Z 96
_cell_length_a 7.651708
_cell_length_b 29.140576
_cell_length_c 19.516934
_cell_angle_alpha 90.000000
_cell_angle_beta 90.000000
_cell_angle_gamma 90.000000
_cell_volume 4351.791842
_symmetry_space_group_name_H-M "C M M A"
_symmetry_group_IT_number 67
_symmetry_cell_setting 'orthorhombic'
loop_
_space_group_symop_operation_xyz
x,y,z
-x,1/2-y,z
x,-y,-z
-x,1/2+y,-z
-x,-y,-z
x,1/2+y,-z
-x,y,z
x,1/2-y,z
1/2+x,1/2+y,z
1/2-x,-y,z
1/2+x,1/2-y,-z
1/2-x,y,-z
1/2-x,1/2-y,-z
1/2+x,y,-z
1/2-x,1/2+y,z
1/2+x,-y,z
loop_
_atom_site_type_symbol
_atom_site_label
_atom_site_fract_x
_atom_site_fract_y
_atom_site_fract_z
Si Si1 0.295181 0.051351 0.079667
Si Si2 0.210153 0.948021 0.711280
Si Si3 0.710579 0.197342 0.923193
Si Si4 0.290228 0.299124 0.581225
Si Si5 0.709917 0.100012 0.579766
Si Si6 0.196053 0.625153 0.817951
O O1 0.500000 0.059958 0.089794
O O2 0.187409 0.087997 0.121380
O O3 0.250000 0.000000 0.102502
O O4 0.250000 0.054113 0.000000
O O5 0.270844 0.937865 0.633717
O O6 0.278651 0.905922 0.758054
O O7 0.000000 0.944519 0.714779
O O8 0.250000 0.000000 0.732415
O O9 0.500000 0.197196 0.917684
O O10 0.772984 0.250000 0.921170
O O11 0.778301 0.168129 0.858402
O O12 0.750000 0.178904 0.000000
O O13 0.500000 0.299050 0.590295
O O14 0.224061 0.250000 0.609416
O O15 0.250000 0.298444 0.500000
O O16 0.224672 0.349251 0.603014
O O17 0.500000 0.101541 0.583929
O O18 0.750000 0.092179 0.500000
O O19 0.000000 0.638965 0.794982
#
# Coordination Sequence:
#
# PCOD9502785 Si02
#       6
#    16  16  16  16  16  16
#     4  11  21  33  50  74 103 134 170 210 252 298
#     4  10  22  38  54  73 100 134 172 217 268 321
#     4   9  18  33  54  80 109 141 176 213 253 298
#     4   8  13  23  42  68  96 123 151 187 235 292
#     4   9  18  33  52  75 101 130 168 214 264 317
#     4  10  20  35  53  74 103 137 173 213 257 307
#
# _framework density 22.059878999999999
#
# number of rings (size 3 to 8) (size 9 to 14) (size 15 to 20)
#    0.000    2.500    0.000    3.000    0.000    5.000 
#    0.000    2.500    0.000    5.000    0.000    0.000 
#    0.000    9.333    0.000    0.000    0.000    0.000 
#
# Total GULP energy -267506.356914 kJ/mol
# GULP energy per Si atom -5573.049102 kJ/mol
# Density = 2.200967 g / cm^3
# Si number density = 22.059879 Si / 1000 Ang^3
#
#
#
# Elastic Constant Matrix: (Units=GPa)
#
#
# Indices 1 2 3 4 5 6 
#
# 1 66.9207 -3.0556 0.5426 0.0000 0.0000 0.0000
# 2 -3.0556 90.1293 58.2310 0.0000 0.0000 0.0000
# 3 0.5426 58.2310 105.3830 0.0000 0.0000 0.0000
# 4 0.0000 0.0000 0.0000 33.5689 0.0000 0.0000
# 5 0.0000 0.0000 0.0000 0.0000 11.5653 0.0000
# 6 0.0000 0.0000 0.0000 0.0000 0.0000 14.1862
#
#
#
# Elastic Compliance Matrix: (Units=1/GPa)
#
#
# Indices 1 2 3 4 5 6 
#
# 1 0.014987 0.000868 -0.000557 0.000000 0.000000 0.000000
# 2 0.000868 0.017306 -0.009567 0.000000 0.000000 0.000000
# 3 -0.000557 -0.009567 0.014778 0.000000 0.000000 0.000000
# 4 0.000000 0.000000 0.000000 0.029789 0.000000 0.000000
# 5 0.000000 0.000000 0.000000 0.000000 0.086466 0.000000
# 6 0.000000 0.000000 0.000000 0.000000 0.000000 0.070491
#
#
# Mechanical properties :
#
#
# Convention : Reuss Voigt Hill
#
# Bulk Modulus (GPa) = 35.01460 41.54100 38.27780
# Shear Modulus (GPa) = 19.09498 25.64508 22.37003
#
# Velocity S-wave (km/s) = 2.94530 3.41328 3.18788
# Velocity P-wave (km/s) = 5.24150 5.86565 5.56234
#
# Compressibility (1/GPa) = 0.02855952
#
# Stress axis : x y z
#
# Youngs Moduli (GPa) = 66.72367 57.78467 67.66622
#
# Poissons Ratio (x) = -0.05014 0.03767
# Poissons Ratio (y) = -0.05790 0.64736
# Poissons Ratio (z) = 0.03714 0.55282
#
# Static dielectric constant tensor:
#      x y z
#    x 1.875110 0.000000 0.000000 
#    y 0.000000 1.851270 0.000000 
#    z 0.000000 0.000000 1.774190 
# 
# From -- ./inp_files/37173.got.cif
#   From: 2010.05.17/outbox.cif.g08.bks.cpg/sg67_19_cif.got.tgz:37173.got - 2010.06.03 18:28:57.
