data_PCOD9502415
_publ_section_title
;
Structure prediction by ZEFSAII (Michael W. Deem and Ramdas Pophale) SiO2 
 PCOD9502415
Probable space group: C M M A
;
_chemical_formula_sum "Si O2"
_cell_formula_units_Z 104
_cell_length_a 28.095040
_cell_length_b 19.868939
_cell_length_c 10.689646
_cell_angle_alpha 90.000000
_cell_angle_beta 90.000000
_cell_angle_gamma 90.000000
_cell_volume 5967.159609
_symmetry_space_group_name_H-M "C M M A"
_symmetry_group_IT_number 67
_symmetry_cell_setting 'orthorhombic'
loop_
_space_group_symop_operation_xyz
x,y,z
-x,1/2-y,z
x,-y,-z
-x,1/2+y,-z
-x,-y,-z
x,1/2+y,-z
-x,y,z
x,1/2-y,z
1/2+x,1/2+y,z
1/2-x,-y,z
1/2+x,1/2-y,-z
1/2-x,y,-z
1/2-x,1/2-y,-z
1/2+x,y,-z
1/2-x,1/2+y,z
1/2+x,-y,z
loop_
_atom_site_type_symbol
_atom_site_label
_atom_site_fract_x
_atom_site_fract_y
_atom_site_fract_z
Si Si1 0.123946 0.823523 0.411515
Si Si2 0.839586 0.825068 0.140606
Si Si3 0.293966 0.953912 0.219246
Si Si4 0.113141 0.033593 0.865636
Si Si5 0.556546 0.049753 0.383116
Si Si6 0.208084 0.825547 0.602090
Si Si7 0.250000 0.876062 0.000000
O O1 0.100610 0.750000 0.404787
O O2 0.158696 0.828305 0.291027
O O3 0.085987 0.882311 0.407439
O O4 0.158062 0.826179 0.529741
O O5 0.856483 0.750000 0.103776
O O6 0.872686 0.888550 0.105728
O O7 0.786979 0.835391 0.085302
O O8 0.294991 0.888203 0.305525
O O9 0.250000 0.000000 0.261818
O O10 0.340906 0.998381 0.200006
O O11 0.281702 0.924351 0.084231
O O12 0.073509 0.027820 0.756474
O O13 0.102416 0.000000 0.000000
O O14 0.500000 0.059935 0.383084
O O15 0.567855 0.000000 0.500000
O O16 0.214622 0.750000 0.658242
O O17 0.250000 0.834336 0.500000
#
# Coordination Sequence:
#
# PCOD9502415 Si02
#       7
#    16  16  16  16  16  16   8
#     4   9  19  38  58  80 111 144 182 232 283 334
#     4  10  20  33  53  77 106 148 188 226 272 329
#     4  12  22  35  51  77 111 152 197 230 274 334
#     4  11  21  39  58  80 118 149 183 241 291 339
#     4  10  22  39  62  89 111 141 189 238 288 348
#     4  10  22  37  52  77 113 152 192 234 278 333
#     4  12  20  34  50  72 108 150 192 228 260 324
#
# _framework density 17.428726999999999
#
# number of rings (size 3 to 8) (size 9 to 14) (size 15 to 20)
#    0.000    1.538    3.077    2.308    2.154    3.385 
#    0.000    0.000    0.000    0.000    0.000    0.000 
#    0.000    0.000    0.000    0.000    0.000    0.000 
#
# Total GULP energy -289930.196402 kJ/mol
# GULP energy per Si atom -5575.580700 kJ/mol
# Density = 1.738906 g / cm^3
# Si number density = 17.428727 Si / 1000 Ang^3
#
#
#
# Elastic Constant Matrix: (Units=GPa)
#
#
# Indices 1 2 3 4 5 6 
#
# 1 82.6458 50.0316 41.0421 0.0000 0.0000 0.0000
# 2 50.0316 142.6754 62.6180 0.0000 0.0000 0.0000
# 3 41.0421 62.6180 77.2156 0.0000 0.0000 0.0000
# 4 0.0000 0.0000 0.0000 16.7311 0.0000 0.0000
# 5 0.0000 0.0000 0.0000 0.0000 27.1276 0.0000
# 6 0.0000 0.0000 0.0000 0.0000 0.0000 22.2747
#
#
#
# Elastic Compliance Matrix: (Units=1/GPa)
#
#
# Indices 1 2 3 4 5 6 
#
# 1 0.017308 -0.003154 -0.006641 0.000000 0.000000 0.000000
# 2 -0.003154 0.011457 -0.007614 0.000000 0.000000 0.000000
# 3 -0.006641 -0.007614 0.022656 0.000000 0.000000 0.000000
# 4 0.000000 0.000000 0.000000 0.059769 0.000000 0.000000
# 5 0.000000 0.000000 0.000000 0.000000 0.036863 0.000000
# 6 0.000000 0.000000 0.000000 0.000000 0.000000 0.044894
#
#
# Mechanical properties :
#
#
# Convention : Reuss Voigt Hill
#
# Bulk Modulus (GPa) = 60.24122 67.76889 64.00506
# Shear Modulus (GPa) = 21.43174 23.14971 22.29073
#
# Velocity S-wave (km/s) = 3.51048 3.64847 3.58014
# Velocity P-wave (km/s) = 7.14637 7.53102 7.34122
#
# Compressibility (1/GPa) = 0.01659993
#
# Stress axis : x y z
#
# Youngs Moduli (GPa) = 57.77841 87.28396 44.13917
#
# Poissons Ratio (x) = 0.27533 0.29314
# Poissons Ratio (y) = 0.18226 0.33609
# Poissons Ratio (z) = 0.38373 0.66461
#
# Static dielectric constant tensor:
#      x y z
#    x 1.569710 0.000000 0.000000 
#    y 0.000000 1.629700 0.000000 
#    z 0.000000 0.000000 1.593660 
# 
# From -- ./inp_files/22986.got.cif
#   From: 2010.05.17/outbox.cif.g08.bks.cpg/sg67_12_cif.got.tgz:22986.got - 2010.06.03 18:28:57.
