data_PCOD9502806
_publ_section_title
;
Structure prediction by ZEFSAII (Michael W. Deem and Ramdas Pophale) SiO2 
 PCOD9502806
Probable space group: C M M A
;
_chemical_formula_sum "Si O2"
_cell_formula_units_Z 96
_cell_length_a 20.250799
_cell_length_b 8.719109
_cell_length_c 30.939819
_cell_angle_alpha 90.000000
_cell_angle_beta 90.000000
_cell_angle_gamma 90.000000
_cell_volume 5463.010544
_symmetry_space_group_name_H-M "C M M A"
_symmetry_group_IT_number 67
_symmetry_cell_setting 'orthorhombic'
loop_
_space_group_symop_operation_xyz
x,y,z
-x,1/2-y,z
x,-y,-z
-x,1/2+y,-z
-x,-y,-z
x,1/2+y,-z
-x,y,z
x,1/2-y,z
1/2+x,1/2+y,z
1/2-x,-y,z
1/2+x,1/2-y,-z
1/2-x,y,-z
1/2-x,1/2-y,-z
1/2+x,y,-z
1/2-x,1/2+y,z
1/2+x,-y,z
loop_
_atom_site_type_symbol
_atom_site_label
_atom_site_fract_x
_atom_site_fract_y
_atom_site_fract_z
Si Si1 0.423001 0.565747 0.284120
Si Si2 0.576012 0.434863 0.953322
Si Si3 0.322424 0.067345 0.215315
Si Si4 0.923095 0.065724 0.384387
Si Si5 0.322342 0.067389 0.453105
Si Si6 0.822713 0.565221 0.878546
O O1 0.500000 0.528888 0.275758
O O2 0.415734 0.750000 0.279565
O O3 0.374510 0.482710 0.251359
O O4 0.408877 0.527233 0.334258
O O5 0.500000 0.482642 0.944982
O O6 0.577149 0.250000 0.955490
O O7 0.625127 0.481866 0.915156
O O8 0.595696 0.500000 0.000000
O O9 0.317948 0.250000 0.212110
O O10 0.250000 0.000000 0.225715
O O11 0.341521 0.998289 0.168616
O O12 0.916108 0.250000 0.388845
O O13 0.000000 0.028084 0.392758
O O14 0.874559 0.983309 0.417226
O O15 0.318044 0.250000 0.456012
O O16 0.341196 0.000000 0.500000
O O17 0.250000 0.000000 0.442655
O O18 0.819875 0.750000 0.876698
O O19 0.750000 0.500000 0.888438
#
# Coordination Sequence:
#
# PCOD9502806 Si02
#       6
#    16  16  16  16  16  16
#     4   9  19  37  59  81 108 142 177 217 266 317
#     4   9  19  35  54  76 102 134 171 211 256 307
#     4  11  22  36  55  79 108 141 179 222 266 314
#     4   9  19  37  59  82 109 141 178 219 264 316
#     4  11  22  37  57  80 109 143 180 223 268 316
#     4  10  20  35  54  76 104 137 174 215 261 313
#
# _framework density 17.572728000000001
#
# number of rings (size 3 to 8) (size 9 to 14) (size 15 to 20)
#    0.000    2.167    0.000    6.000    0.000    4.667 
#    0.000    5.000    0.000    0.000    0.000    0.000 
#    0.000    0.000    0.000    0.000    0.000    0.000 
#
# Total GULP energy -267992.079262 kJ/mol
# GULP energy per Si atom -5583.168318 kJ/mol
# Density = 1.753273 g / cm^3
# Si number density = 17.572728 Si / 1000 Ang^3
#
#
#
# Elastic Constant Matrix: (Units=GPa)
#
#
# Indices 1 2 3 4 5 6 
#
# 1 108.9141 65.2767 120.6623 0.0000 0.0000 0.0000
# 2 65.2767 91.9036 75.6496 0.0000 0.0000 0.0000
# 3 120.6623 75.6496 150.8149 0.0000 0.0000 0.0000
# 4 0.0000 0.0000 0.0000 30.1558 0.0000 0.0000
# 5 0.0000 0.0000 0.0000 0.0000 43.2284 0.0000
# 6 0.0000 0.0000 0.0000 0.0000 0.0000 27.9794
#
#
#
# Elastic Compliance Matrix: (Units=1/GPa)
#
#
# Indices 1 2 3 4 5 6 
#
# 1 0.083630 -0.007365 -0.063215 0.000000 0.000000 0.000000
# 2 -0.007365 0.019182 -0.003729 0.000000 0.000000 0.000000
# 3 -0.063215 -0.003729 0.059078 0.000000 0.000000 0.000000
# 4 0.000000 0.000000 0.000000 0.033161 0.000000 0.000000
# 5 0.000000 0.000000 0.000000 0.000000 0.023133 0.000000
# 6 0.000000 0.000000 0.000000 0.000000 0.000000 0.035741
#
#
# Mechanical properties :
#
#
# Convention : Reuss Voigt Hill
#
# Bulk Modulus (GPa) = 75.35531 97.20111 86.27821
# Shear Modulus (GPa) = 12.28600 26.27563 19.28082
#
# Velocity S-wave (km/s) = 2.64702 3.87104 3.31600
# Velocity P-wave (km/s) = 7.23307 8.68410 7.99159
#
# Compressibility (1/GPa) = 0.01327047
#
# Stress axis : x y z
#
# Youngs Moduli (GPa) = 11.95743 52.13282 16.92680
#
# Poissons Ratio (x) = 0.38396 1.07004
# Poissons Ratio (y) = 0.08807 0.06312
# Poissons Ratio (z) = 0.75589 0.19441
#
# Static dielectric constant tensor:
#      x y z
#    x 1.579420 0.000000 0.000000 
#    y 0.000000 1.590310 0.000000 
#    z 0.000000 0.000000 1.574590 
# 
# From -- ./inp_files/43446.got.cif
#   From: 2010.05.17/outbox.cif.g08.bks.cpg/sg67_22_cif.got.tgz:43446.got - 2010.06.03 18:28:57.
