data_PCOD9502079
_publ_section_title
;
Structure prediction by ZEFSAII (Michael W. Deem and Ramdas Pophale) SiO2 
 PCOD9502079
Probable space group: C M M A
;
_chemical_formula_sum "Si O2"
_cell_formula_units_Z 112
_cell_length_a 24.405836
_cell_length_b 14.611960
_cell_length_c 16.574864
_cell_angle_alpha 90.000000
_cell_angle_beta 90.000000
_cell_angle_gamma 90.000000
_cell_volume 5910.879923
_symmetry_space_group_name_H-M "C M M A"
_symmetry_group_IT_number 67
_symmetry_cell_setting 'orthorhombic'
loop_
_space_group_symop_operation_xyz
x,y,z
-x,1/2-y,z
x,-y,-z
-x,1/2+y,-z
-x,-y,-z
x,1/2+y,-z
-x,y,z
x,1/2-y,z
1/2+x,1/2+y,z
1/2-x,-y,z
1/2+x,1/2-y,-z
1/2-x,y,-z
1/2-x,1/2-y,-z
1/2+x,y,-z
1/2-x,1/2+y,z
1/2+x,-y,z
loop_
_atom_site_type_symbol
_atom_site_label
_atom_site_fract_x
_atom_site_fract_y
_atom_site_fract_z
Si Si1 0.339006 0.021491 0.590612
Si Si2 0.651833 0.640496 0.713221
Si Si3 0.618321 0.140652 0.814696
Si Si4 0.777534 0.358784 0.282063
Si Si5 0.438265 0.144222 0.159500
Si Si6 0.439019 0.894565 0.019970
Si Si7 0.436783 0.140025 0.647628
O O1 0.294419 0.080435 0.640916
O O2 0.393785 0.084044 0.594224
O O3 0.322286 0.000000 0.500000
O O4 0.351828 0.926691 0.637002
O O5 0.644560 0.750000 0.695943
O O6 0.714665 0.629746 0.742171
O O7 0.607803 0.607870 0.780024
O O8 0.617933 0.250000 0.817553
O O9 0.679053 0.112908 0.786577
O O10 0.598581 0.111617 0.902112
O O11 0.578311 0.115328 0.740569
O O12 0.786047 0.250000 0.299648
O O13 0.500000 0.102440 0.163782
O O14 0.443866 0.250000 0.182976
O O15 0.420277 0.144780 0.065980
O O16 0.500000 0.856875 0.038455
O O17 0.444347 0.000000 0.000000
O O18 0.500000 0.119199 0.630764
O O19 0.428768 0.250000 0.639039
#
# Coordination Sequence:
#
# PCOD9502079 Si02
#       7
#    16  16  16  16  16  16  16
#     4  11  23  37  58  86 114 143 184 233 287 343
#     4  10  22  39  58  81 112 151 191 229 278 341
#     4   9  17  32  55  79 105 142 186 232 281 327
#     4   9  20  39  60  82 109 143 187 240 289 335
#     4   9  19  36  55  76 108 149 186 222 268 328
#     4  10  20  30  47  80 114 143 181 228 276 325
#     4   9  19  36  59  86 116 151 190 234 283 332
#
# _framework density 18.948108999999999
#
# number of rings (size 3 to 8) (size 9 to 14) (size 15 to 20)
#    0.000    2.429    0.000    2.571    4.000    4.571 
#    0.000    2.143    0.000    6.000    0.000    0.000 
#    0.000    0.000    0.000    0.000    0.000    0.000 
#
# Total GULP energy -312163.362648 kJ/mol
# GULP energy per Si atom -5574.345762 kJ/mol
# Density = 1.890498 g / cm^3
# Si number density = 18.948109 Si / 1000 Ang^3
#
#
#
# Elastic Constant Matrix: (Units=GPa)
#
#
# Indices 1 2 3 4 5 6 
#
# 1 99.9347 34.4962 54.7543 0.0000 0.0000 0.0000
# 2 34.4962 64.0513 28.9933 0.0000 0.0000 0.0000
# 3 54.7543 28.9933 133.6750 0.0000 0.0000 0.0000
# 4 0.0000 0.0000 0.0000 -25.1625 0.0000 0.0000
# 5 0.0000 0.0000 0.0000 0.0000 3.8024 0.0000
# 6 0.0000 0.0000 0.0000 0.0000 0.0000 26.2865
#
#
#
# Elastic Compliance Matrix: (Units=1/GPa)
#
#
# Indices 1 2 3 4 5 6 
#
# 1 0.014567 -0.005705 -0.004729 0.000000 0.000000 0.000000
# 2 -0.005705 0.019546 -0.001903 0.000000 0.000000 0.000000
# 3 -0.004729 -0.001903 0.009831 0.000000 0.000000 0.000000
# 4 0.000000 0.000000 0.000000 -0.039742 0.000000 0.000000
# 5 0.000000 0.000000 0.000000 0.000000 0.262993 0.000000
# 6 0.000000 0.000000 0.000000 0.000000 0.000000 0.038042
#
#
# Mechanical properties :
#
#
# Convention : Reuss Voigt Hill
#
# Bulk Modulus (GPa) = 51.89352 59.34984 55.62168
# Shear Modulus (GPa) = 14.86617 12.94644 13.90630
#
# Velocity S-wave (km/s) = 2.80406 2.61675 2.71203
# Velocity P-wave (km/s) = 6.15876 6.36555 6.26301
#
# Compressibility (1/GPa) = 0.01927023
#
# Stress axis : x y z
#
# Youngs Moduli (GPa) = 68.64867 51.16109 101.72152
#
# Poissons Ratio (x) = 0.29185 0.48109
# Poissons Ratio (y) = 0.39161 0.19356
# Poissons Ratio (z) = 0.32467 0.09735
#
# Static dielectric constant tensor:
#      x y z
#    x 1.701730 0.000000 0.000000 
#    y 0.000000 1.697690 0.000000 
#    z 0.000000 0.000000 1.651640 
# 
# From -- ./inp_files/27484.got.cif
#   From: 2010.05.17/outbox.cif.g08.bks.cpg/sg67_14_cif.got.tgz:27484.got - 2010.06.03 18:28:57.
