data_PCOD9502226
_publ_section_title
;
Structure prediction by ZEFSAII (Michael W. Deem and Ramdas Pophale) SiO2 
 PCOD9502226
Probable space group: C M M A
;
_chemical_formula_sum "Si O2"
_cell_formula_units_Z 96
_cell_length_a 26.445869
_cell_length_b 10.013634
_cell_length_c 22.520199
_cell_angle_alpha 90.000000
_cell_angle_beta 90.000000
_cell_angle_gamma 90.000000
_cell_volume 5963.782276
_symmetry_space_group_name_H-M "C M M A"
_symmetry_group_IT_number 67
_symmetry_cell_setting 'orthorhombic'
loop_
_space_group_symop_operation_xyz
x,y,z
-x,1/2-y,z
x,-y,-z
-x,1/2+y,-z
-x,-y,-z
x,1/2+y,-z
-x,y,z
x,1/2-y,z
1/2+x,1/2+y,z
1/2-x,-y,z
1/2+x,1/2-y,-z
1/2-x,y,-z
1/2-x,1/2-y,-z
1/2+x,y,-z
1/2-x,1/2+y,z
1/2+x,-y,z
loop_
_atom_site_type_symbol
_atom_site_label
_atom_site_fract_x
_atom_site_fract_y
_atom_site_fract_z
Si Si1 0.652592 0.491706 0.863515
Si Si2 0.677572 0.750000 0.056710
Si Si3 0.058693 0.908122 0.209084
Si Si4 0.297406 0.750000 0.919612
Si Si5 0.596742 0.092756 0.685298
Si Si6 0.295869 0.902216 0.258636
Si Si7 0.060922 0.904673 0.553367
O O1 0.652282 0.380485 0.914633
O O2 0.597808 0.538229 0.840221
O O3 0.683561 0.619126 0.885994
O O4 0.681432 0.430656 0.806661
O O5 0.736863 0.750000 0.075132
O O6 0.678847 0.750000 0.985658
O O7 0.068528 0.750000 0.219446
O O8 0.000000 0.922845 0.192086
O O9 0.069301 0.995587 0.268074
O O10 0.583291 0.250000 0.695960
O O11 0.656479 0.080080 0.697775
O O12 0.582894 0.060087 0.617775
O O13 0.278219 0.750000 0.261160
O O14 0.250000 0.000000 0.270976
O O15 0.073621 0.750000 0.540850
O O16 0.000000 0.914112 0.557744
O O17 0.077709 0.000000 0.500000
#
# Coordination Sequence:
#
# PCOD9502226 Si02
#       7
#    16   8  16   8  16  16  16
#     4  11  21  36  53  78 104 134 169 211 257 307
#     4  11  22  36  55  79 105 131 173 204 254 312
#     4  10  21  36  54  76 104 137 171 212 259 304
#     4  11  22  36  55  77 105 139 161 208 258 308
#     4   9  19  34  51  77 105 134 173 213 253 299
#     4  10  20  32  51  75 104 135 167 209 255 306
#     4   9  17  30  49  73 102 134 166 205 253 300
#
# _framework density 16.097168
#
# number of rings (size 3 to 8) (size 9 to 14) (size 15 to 20)
#    0.000    2.000    1.667    2.500    2.333    3.667 
#    0.000    1.667    0.000    3.500    0.000    3.500 
#    0.000    0.000    0.000    0.000    0.000    0.000 
#
# Total GULP energy -267858.485976 kJ/mol
# GULP energy per Si atom -5580.385124 kJ/mol
# Density = 1.606053 g / cm^3
# Si number density = 16.097168 Si / 1000 Ang^3
#
#
#
# Elastic Constant Matrix: (Units=GPa)
#
#
# Indices 1 2 3 4 5 6 
#
# 1 66.8370 48.3941 35.8585 0.0000 0.0000 0.0000
# 2 48.3941 96.8940 40.7122 0.0000 0.0000 0.0000
# 3 35.8585 40.7122 91.1126 0.0000 0.0000 0.0000
# 4 0.0000 0.0000 0.0000 -17.3663 0.0000 0.0000
# 5 0.0000 0.0000 0.0000 0.0000 23.9591 0.0000
# 6 0.0000 0.0000 0.0000 0.0000 0.0000 19.1045
#
#
#
# Elastic Compliance Matrix: (Units=1/GPa)
#
#
# Indices 1 2 3 4 5 6 
#
# 1 0.025374 -0.010437 -0.005323 0.000000 0.000000 0.000000
# 2 -0.010437 0.016999 -0.003488 0.000000 0.000000 0.000000
# 3 -0.005323 -0.003488 0.014629 0.000000 0.000000 0.000000
# 4 0.000000 0.000000 0.000000 -0.057583 0.000000 0.000000
# 5 0.000000 0.000000 0.000000 0.000000 0.041738 0.000000
# 6 0.000000 0.000000 0.000000 0.000000 0.000000 0.052344
#
#
# Mechanical properties :
#
#
# Convention : Reuss Voigt Hill
#
# Bulk Modulus (GPa) = 54.03493 56.08591 55.06042
# Shear Modulus (GPa) = 36.18857 13.79808 24.99333
#
# Velocity S-wave (km/s) = 4.74659 2.93093 3.94465
# Velocity P-wave (km/s) = 7.98004 6.80966 7.41797
#
# Compressibility (1/GPa) = 0.01850655
#
# Stress axis : x y z
#
# Youngs Moduli (GPa) = 39.40978 58.82741 68.35771
#
# Poissons Ratio (x) = 0.61397 0.36386
# Poissons Ratio (y) = 0.41131 0.23844
# Poissons Ratio (z) = 0.20977 0.20520
#
# Static dielectric constant tensor:
#      x y z
#    x 1.523010 0.000000 0.000000 
#    y 0.000000 1.544120 0.000000 
#    z 0.000000 0.000000 1.516650 
# 
# From -- ./inp_files/42710.got.cif
#   From: 2010.05.17/outbox.cif.g08.bks.cpg/sg67_22_cif.got.tgz:42710.got - 2010.06.03 18:28:57.
