data_PCOD9502295
_publ_section_title
;
Structure prediction by ZEFSAII (Michael W. Deem and Ramdas Pophale) SiO2 
 PCOD9502295
Probable space group: C M M A
;
_chemical_formula_sum "Si O2"
_cell_formula_units_Z 80
_cell_length_a 8.799037
_cell_length_b 27.924327
_cell_length_c 18.984867
_cell_angle_alpha 90.000000
_cell_angle_beta 90.000000
_cell_angle_gamma 90.000000
_cell_volume 4664.718256
_symmetry_space_group_name_H-M "C M M A"
_symmetry_group_IT_number 67
_symmetry_cell_setting 'orthorhombic'
loop_
_space_group_symop_operation_xyz
x,y,z
-x,1/2-y,z
x,-y,-z
-x,1/2+y,-z
-x,-y,-z
x,1/2+y,-z
-x,y,z
x,1/2-y,z
1/2+x,1/2+y,z
1/2-x,-y,z
1/2+x,1/2-y,-z
1/2-x,y,-z
1/2-x,1/2-y,-z
1/2+x,y,-z
1/2-x,1/2+y,z
1/2+x,-y,z
loop_
_atom_site_type_symbol
_atom_site_label
_atom_site_fract_x
_atom_site_fract_y
_atom_site_fract_z
Si Si1 0.817329 0.194944 0.280748
Si Si2 0.181515 0.552267 0.354217
Si Si3 0.318776 0.855874 0.426167
Si Si4 0.180817 0.395424 0.792546
Si Si5 0.818517 0.947009 0.925370
O O1 0.775752 0.250000 0.268606
O O2 0.781416 0.179020 0.360900
O O3 0.734496 0.157239 0.230514
O O4 0.000000 0.190023 0.272201
O O5 0.250000 0.500000 0.365920
O O6 0.251696 0.592309 0.405261
O O7 0.215935 0.570378 0.274585
O O8 0.000000 0.551334 0.362553
O O9 0.500000 0.859197 0.431603
O O10 0.250000 0.839737 0.500000
O O11 0.266782 0.414033 0.861091
O O12 0.000000 0.396715 0.803997
O O13 0.000000 0.950057 0.929896
O O14 0.750000 0.000000 0.913043
O O15 0.750000 0.930276 0.000000
#
# Coordination Sequence:
#
# PCOD9502295 Si02
#       5
#    16  16  16  16  16
#     4   9  19  36  56  77 101 132 170 212 260 310
#     4  10  20  33  50  72  99 132 170 209 250 300
#     4  10  20  34  51  72 100 131 166 209 256 307
#     4  10  20  34  53  78 106 136 172 213 256 303
#     4  11  21  34  53  79 112 146 178 211 249 296
#
# _framework density 17.150017999999999
#
# number of rings (size 3 to 8) (size 9 to 14) (size 15 to 20)
#    0.000    2.000    0.000    4.800    0.000    6.000 
#    0.000    2.000    0.000    0.600    0.000    0.000 
#    0.000    0.000    0.000    0.000    0.000    0.000 
#
# Total GULP energy -223405.524745 kJ/mol
# GULP energy per Si atom -5585.138119 kJ/mol
# Density = 1.711098 g / cm^3
# Si number density = 17.150018 Si / 1000 Ang^3
#
#
#
# Elastic Constant Matrix: (Units=GPa)
#
#
# Indices 1 2 3 4 5 6 
#
# 1 78.6301 22.9347 48.9887 0.0000 0.0000 0.0000
# 2 22.9347 55.5037 18.4335 0.0000 0.0000 0.0000
# 3 48.9887 18.4335 99.1893 0.0000 0.0000 0.0000
# 4 0.0000 0.0000 0.0000 9.3707 0.0000 0.0000
# 5 0.0000 0.0000 0.0000 0.0000 31.8011 0.0000
# 6 0.0000 0.0000 0.0000 0.0000 0.0000 26.1030
#
#
#
# Elastic Compliance Matrix: (Units=1/GPa)
#
#
# Indices 1 2 3 4 5 6 
#
# 1 0.019700 -0.005232 -0.008757 0.000000 0.000000 0.000000
# 2 -0.005232 0.020591 -0.001243 0.000000 0.000000 0.000000
# 3 -0.008757 -0.001243 0.014638 0.000000 0.000000 0.000000
# 4 0.000000 0.000000 0.000000 0.106715 0.000000 0.000000
# 5 0.000000 0.000000 0.000000 0.000000 0.031445 0.000000
# 6 0.000000 0.000000 0.000000 0.000000 0.000000 0.038310
#
#
# Mechanical properties :
#
#
# Convention : Reuss Voigt Hill
#
# Bulk Modulus (GPa) = 40.87417 46.00410 43.43914
# Shear Modulus (GPa) = 18.51725 22.98605 20.75165
#
# Velocity S-wave (km/s) = 3.28948 3.66497 3.48229
# Velocity P-wave (km/s) = 6.18972 6.69269 6.44611
#
# Compressibility (1/GPa) = 0.02446533
#
# Stress axis : x y z
#
# Youngs Moduli (GPa) = 50.76202 48.56397 68.31620
#
# Poissons Ratio (x) = 0.25407 0.59826
# Poissons Ratio (y) = 0.26557 0.08490
# Poissons Ratio (z) = 0.44454 0.06036
#
# Static dielectric constant tensor:
#      x y z
#    x 1.570940 0.000000 0.000000 
#    y 0.000000 1.551670 0.000000 
#    z 0.000000 0.000000 1.574200 
# 
# From -- ./inp_files/32120.got.cif
#   From: 2010.05.17/outbox.cif.g08.bks.cpg/sg67_17_cif.got.tgz:32120.got - 2010.06.03 18:28:57.
