data_PCOD9502619
_publ_section_title
;
Structure prediction by ZEFSAII (Michael W. Deem and Ramdas Pophale) SiO2 
 PCOD9502619
Probable space group: C M M A
;
_chemical_formula_sum "Si O2"
_cell_formula_units_Z 104
_cell_length_a 8.486842
_cell_length_b 22.033414
_cell_length_c 29.788887
_cell_angle_alpha 90.000000
_cell_angle_beta 90.000000
_cell_angle_gamma 90.000000
_cell_volume 5570.346214
_symmetry_space_group_name_H-M "C M M A"
_symmetry_group_IT_number 67
_symmetry_cell_setting 'orthorhombic'
loop_
_space_group_symop_operation_xyz
x,y,z
-x,1/2-y,z
x,-y,-z
-x,1/2+y,-z
-x,-y,-z
x,1/2+y,-z
-x,y,z
x,1/2-y,z
1/2+x,1/2+y,z
1/2-x,-y,z
1/2+x,1/2-y,-z
1/2-x,y,-z
1/2-x,1/2-y,-z
1/2+x,y,-z
1/2-x,1/2+y,z
1/2+x,-y,z
loop_
_atom_site_type_symbol
_atom_site_label
_atom_site_fract_x
_atom_site_fract_y
_atom_site_fract_z
Si Si1 0.678699 0.823392 0.546906
Si Si2 0.811537 0.066245 0.700763
Si Si3 0.813222 0.820118 0.643863
Si Si4 0.809400 0.066485 0.804947
Si Si5 0.817872 0.851700 0.117358
Si Si6 0.690257 0.432156 0.954229
Si Si7 0.684614 0.750000 0.051233
O O1 0.500000 0.845141 0.552572
O O2 0.673918 0.750000 0.543406
O O3 0.750000 0.846075 0.500000
O O4 0.775745 0.835522 0.591902
O O5 0.756931 0.125719 0.673747
O O6 0.760784 0.072632 0.752973
O O7 0.000000 0.064022 0.699630
O O8 0.750000 0.000000 0.684730
O O9 0.754524 0.750000 0.652154
O O10 0.000000 0.819080 0.650555
O O11 0.756913 0.124845 0.834389
O O12 0.000000 0.065736 0.807650
O O13 0.750000 0.000000 0.820476
O O14 0.791618 0.910821 0.087745
O O15 0.732191 0.804937 0.084353
O O16 0.000000 0.833153 0.121613
O O17 0.500000 0.426858 0.949824
O O18 0.750000 0.500000 0.958290
O O19 0.750000 0.399651 0.000000
O O20 0.500000 0.750000 0.045056
O O21 0.750000 0.750000 0.000000
#
# Coordination Sequence:
#
# PCOD9502619 Si02
#       7
#    16  16  16  16  16  16   8
#     4   9  16  27  46  74 109 149 193 242 296 351
#     4  10  20  37  59  84 113 151 195 239 291 351
#     4  10  20  34  53  81 116 153 196 246 298 348
#     4   9  20  37  60  86 112 142 178 222 274 328
#     4  11  22  39  59  81 108 139 175 217 264 316
#     4  11  21  34  52  78 107 135 167 206 254 305
#     4  12  26  44  62  82 108 146 186 222 265 322
#
# _framework density 18.670293999999998
#
# number of rings (size 3 to 8) (size 9 to 14) (size 15 to 20)
#    0.000    1.846    0.000    5.308    0.000    5.846 
#    1.385    0.000    0.000    0.462    0.000    3.231 
#    0.000    0.000    0.000    0.000    0.000    0.000 
#
# Total GULP energy -289493.450654 kJ/mol
# GULP energy per Si atom -5567.181743 kJ/mol
# Density = 1.862780 g / cm^3
# Si number density = 18.670294 Si / 1000 Ang^3
#
#
#
# Elastic Constant Matrix: (Units=GPa)
#
#
# Indices 1 2 3 4 5 6 
#
# 1 62.4156 24.7254 20.9828 0.0000 0.0000 0.0000
# 2 24.7254 105.1272 63.8874 0.0000 0.0000 0.0000
# 3 20.9828 63.8874 102.6647 0.0000 0.0000 0.0000
# 4 0.0000 0.0000 0.0000 14.2212 0.0000 0.0000
# 5 0.0000 0.0000 0.0000 0.0000 23.4059 0.0000
# 6 0.0000 0.0000 0.0000 0.0000 0.0000 30.2451
#
#
#
# Elastic Compliance Matrix: (Units=1/GPa)
#
#
# Indices 1 2 3 4 5 6 
#
# 1 0.017843 -0.003185 -0.001665 0.000000 0.000000 0.000000
# 2 -0.003185 0.015866 -0.009222 0.000000 0.000000 0.000000
# 3 -0.001665 -0.009222 0.015820 0.000000 0.000000 0.000000
# 4 0.000000 0.000000 0.000000 0.070318 0.000000 0.000000
# 5 0.000000 0.000000 0.000000 0.000000 0.042724 0.000000
# 6 0.000000 0.000000 0.000000 0.000000 0.000000 0.033063
#
#
# Mechanical properties :
#
#
# Convention : Reuss Voigt Hill
#
# Bulk Modulus (GPa) = 46.76275 54.37764 50.57019
# Shear Modulus (GPa) = 21.65386 24.28189 22.96787
#
# Velocity S-wave (km/s) = 3.40928 3.61024 3.51120
# Velocity P-wave (km/s) = 6.37170 6.82400 6.60172
#
# Compressibility (1/GPa) = 0.02138454
#
# Stress axis : x y z
#
# Youngs Moduli (GPa) = 56.04444 63.02849 63.21244
#
# Poissons Ratio (x) = 0.20073 0.10524
# Poissons Ratio (y) = 0.17849 0.58296
# Poissons Ratio (z) = 0.09331 0.58127
#
# Static dielectric constant tensor:
#      x y z
#    x 1.648190 0.000000 0.000000 
#    y 0.000000 1.731140 0.000000 
#    z 0.000000 0.000000 1.678520 
# 
# From -- ./inp_files/43614.got.cif
#   From: 2010.05.17/outbox.cif.g08.bks.cpg/sg67_22_cif.got.tgz:43614.got - 2010.06.03 18:28:57.
