data_PCOD9502207
_publ_section_title
;
Structure prediction by ZEFSAII (Michael W. Deem and Ramdas Pophale) SiO2 
 PCOD9502207
Probable space group: C M M A
;
_chemical_formula_sum "Si O2"
_cell_formula_units_Z 96
_cell_length_a 8.775131
_cell_length_b 24.179405
_cell_length_c 26.585683
_cell_angle_alpha 90.000000
_cell_angle_beta 90.000000
_cell_angle_gamma 90.000000
_cell_volume 5640.882329
_symmetry_space_group_name_H-M "C M M A"
_symmetry_group_IT_number 67
_symmetry_cell_setting 'orthorhombic'
loop_
_space_group_symop_operation_xyz
x,y,z
-x,1/2-y,z
x,-y,-z
-x,1/2+y,-z
-x,-y,-z
x,1/2+y,-z
-x,y,z
x,1/2-y,z
1/2+x,1/2+y,z
1/2-x,-y,z
1/2+x,1/2-y,-z
1/2-x,y,-z
1/2-x,1/2-y,-z
1/2+x,y,-z
1/2-x,1/2+y,z
1/2+x,-y,z
loop_
_atom_site_type_symbol
_atom_site_label
_atom_site_fract_x
_atom_site_fract_y
_atom_site_fract_z
Si Si1 0.316612 0.869784 0.253648
Si Si2 0.815865 0.250000 0.289654
Si Si3 0.682189 0.061848 0.162095
Si Si4 0.683024 0.938790 0.354032
Si Si5 0.816702 0.250000 0.598132
Si Si6 0.316904 0.631212 0.554404
Si Si7 0.817901 0.562072 0.050399
O O1 0.500000 0.871251 0.248498
O O2 0.268550 0.806304 0.261953
O O3 0.244056 0.899204 0.205760
O O4 0.277294 0.903547 0.304284
O O5 0.753381 0.250000 0.346304
O O6 0.000000 0.250000 0.292681
O O7 0.500000 0.057376 0.165326
O O8 0.720308 0.084354 0.105959
O O9 0.750000 0.000000 0.167474
O O10 0.500000 0.940848 0.358013
O O11 0.751542 0.908497 0.402583
O O12 0.750000 0.000000 0.349455
O O13 0.772024 0.194114 0.569203
O O14 0.000000 0.250000 0.602671
O O15 0.500000 0.627735 0.553518
O O16 0.250000 0.617371 0.500000
O O17 0.750000 0.500000 0.051566
O O18 0.000000 0.559292 0.045530
O O19 0.750000 0.589242 0.000000
#
# Coordination Sequence:
#
# PCOD9502207 Si02
#       7
#    16   8  16  16   8  16  16
#     4  10  21  36  56  80 106 137 174 214 262 312
#     4  10  20  37  59  82 106 135 170 213 261 313
#     4  10  20  32  49  75 109 144 180 218 260 309
#     4  11  23  39  58  80 107 140 175 214 259 311
#     4  10  21  37  59  86 110 135 169 211 260 311
#     4  11  23  39  59  84 110 138 173 212 258 311
#     4   9  16  26  42  67  99 138 177 216 258 303
#
# _framework density 17.018613999999999
#
# number of rings (size 3 to 8) (size 9 to 14) (size 15 to 20)
#    0.000    1.833    1.667    3.250    0.000    6.333 
#    0.000    1.667    0.000    0.000    0.000    0.583 
#    0.000    0.000    0.000    0.000    0.000    0.000 
#
# Total GULP energy -267914.714581 kJ/mol
# GULP energy per Si atom -5581.556554 kJ/mol
# Density = 1.697988 g / cm^3
# Si number density = 17.018614 Si / 1000 Ang^3
#
#
#
# Elastic Constant Matrix: (Units=GPa)
#
#
# Indices 1 2 3 4 5 6 
#
# 1 47.3113 39.3875 59.7505 0.0000 0.0000 0.0000
# 2 39.3875 118.2897 77.9877 0.0000 0.0000 0.0000
# 3 59.7505 77.9877 190.2252 0.0000 0.0000 0.0000
# 4 0.0000 0.0000 0.0000 -7.2112 0.0000 0.0000
# 5 0.0000 0.0000 0.0000 0.0000 36.3150 0.0000
# 6 0.0000 0.0000 0.0000 0.0000 0.0000 13.3114
#
#
#
# Elastic Compliance Matrix: (Units=1/GPa)
#
#
# Indices 1 2 3 4 5 6 
#
# 1 0.038499 -0.006642 -0.009370 0.000000 0.000000 0.000000
# 2 -0.006642 0.012731 -0.003133 0.000000 0.000000 0.000000
# 3 -0.009370 -0.003133 0.009485 0.000000 0.000000 0.000000
# 4 0.000000 0.000000 0.000000 -0.138674 0.000000 0.000000
# 5 0.000000 0.000000 0.000000 0.000000 0.027537 0.000000
# 6 0.000000 0.000000 0.000000 0.000000 0.000000 0.075123
#
#
# Mechanical properties :
#
#
# Convention : Reuss Voigt Hill
#
# Bulk Modulus (GPa) = 44.59246 78.89751 61.74499
# Shear Modulus (GPa) = 70.95559 20.39643 45.67601
#
# Velocity S-wave (km/s) = 6.46401 3.46566 5.18624
# Velocity P-wave (km/s) = 9.05375 7.90409 8.49838
#
# Compressibility (1/GPa) = 0.02242531
#
# Stress axis : x y z
#
# Youngs Moduli (GPa) = 25.97440 78.54789 105.43448
#
# Poissons Ratio (x) = 0.52170 0.98790
# Poissons Ratio (y) = 0.17252 0.33035
# Poissons Ratio (z) = 0.24338 0.24611
#
# Static dielectric constant tensor:
#      x y z
#    x 1.568850 0.000000 0.000000 
#    y 0.000000 1.554700 0.000000 
#    z 0.000000 0.000000 1.583180 
# 
# From -- ./inp_files/40851.got.cif
#   From: 2010.05.17/outbox.cif.g08.bks.cpg/sg67_21_cif.got.tgz:40851.got - 2010.06.03 18:28:57.
