data_PCOD9502293
_publ_section_title
;
Structure prediction by ZEFSAII (Michael W. Deem and Ramdas Pophale) SiO2 
 PCOD9502293
Probable space group: C M M A
;
_chemical_formula_sum "Si O2"
_cell_formula_units_Z 96
_cell_length_a 7.563259
_cell_length_b 19.090170
_cell_length_c 32.231341
_cell_angle_alpha 90.000000
_cell_angle_beta 90.000000
_cell_angle_gamma 90.000000
_cell_volume 4653.686718
_symmetry_space_group_name_H-M "C M M A"
_symmetry_group_IT_number 67
_symmetry_cell_setting 'orthorhombic'
loop_
_space_group_symop_operation_xyz
x,y,z
-x,1/2-y,z
x,-y,-z
-x,1/2+y,-z
-x,-y,-z
x,1/2+y,-z
-x,y,z
x,1/2-y,z
1/2+x,1/2+y,z
1/2-x,-y,z
1/2+x,1/2-y,-z
1/2-x,y,-z
1/2-x,1/2-y,-z
1/2+x,y,-z
1/2-x,1/2+y,z
1/2+x,-y,z
loop_
_atom_site_type_symbol
_atom_site_label
_atom_site_fract_x
_atom_site_fract_y
_atom_site_fract_z
Si Si1 0.787852 0.917799 0.624944
Si Si2 0.712077 0.330039 0.546875
Si Si3 0.216666 0.669033 0.705112
Si Si4 0.212176 0.670165 0.954319
Si Si5 0.287807 0.418052 0.784274
Si Si6 0.787745 0.081636 0.123229
O O1 0.720834 0.881056 0.582852
O O2 0.724082 0.875601 0.665313
O O3 0.000000 0.910795 0.624856
O O4 0.750000 0.000000 0.626954
O O5 0.500000 0.326811 0.550800
O O6 0.779130 0.250000 0.551580
O O7 0.750000 0.353680 0.500000
O O8 0.270789 0.750000 0.702764
O O9 0.276926 0.630925 0.747212
O O10 0.000000 0.668411 0.705198
O O11 0.280185 0.750000 0.953421
O O12 0.280866 0.626605 0.915263
O O13 0.000000 0.673010 0.950697
O O14 0.250000 0.640111 0.000000
O O15 0.500000 0.410786 0.785318
O O16 0.250000 0.500000 0.776146
O O17 0.220442 0.400312 0.830538
O O18 0.000000 0.090411 0.124336
O O19 0.750000 0.000000 0.116416
#
# Coordination Sequence:
#
# PCOD9502293 Si02
#       6
#    16  16  16  16  16  16
#     4  10  20  33  50  72  98 127 158 194 235 278
#     4   9  18  33  52  72  95 125 160 197 236 277
#     4   9  17  30  50  74  96 121 157 196 231 272
#     4   9  18  32  48  66  90 120 154 192 232 273
#     4   9  17  30  49  71  95 123 153 187 229 276
#     4   9  18  31  47  69  95 122 152 188 230 274
#
# _framework density 20.628806000000001
#
# number of rings (size 3 to 8) (size 9 to 14) (size 15 to 20)
#    0.000    2.833    0.000    1.000    0.000    4.667 
#    0.000    6.667    0.000    3.000    0.000    4.667 
#    0.000    0.000    0.000    0.000    0.000    0.000 
#
# Total GULP energy -267857.875289 kJ/mol
# GULP energy per Si atom -5580.372402 kJ/mol
# Density = 2.058185 g / cm^3
# Si number density = 20.628806 Si / 1000 Ang^3
#
#
#
# Elastic Constant Matrix: (Units=GPa)
#
#
# Indices 1 2 3 4 5 6 
#
# 1 48.9667 0.1501 7.7957 0.0000 0.0000 0.0000
# 2 0.1501 139.7012 148.2644 0.0000 0.0000 0.0000
# 3 7.7957 148.2644 243.9836 0.0000 0.0000 0.0000
# 4 0.0000 0.0000 0.0000 49.0119 0.0000 0.0000
# 5 0.0000 0.0000 0.0000 0.0000 8.4119 0.0000
# 6 0.0000 0.0000 0.0000 0.0000 0.0000 20.9752
#
#
#
# Elastic Compliance Matrix: (Units=1/GPa)
#
#
# Indices 1 2 3 4 5 6 
#
# 1 0.020707 0.001915 -0.001825 0.000000 0.000000 0.000000
# 2 0.001915 0.020337 -0.012420 0.000000 0.000000 0.000000
# 3 -0.001825 -0.012420 0.011704 0.000000 0.000000 0.000000
# 4 0.000000 0.000000 0.000000 0.020403 0.000000 0.000000
# 5 0.000000 0.000000 0.000000 0.000000 0.118879 0.000000
# 6 0.000000 0.000000 0.000000 0.000000 0.000000 0.047675
#
#
# Mechanical properties :
#
#
# Convention : Reuss Voigt Hill
#
# Bulk Modulus (GPa) = 35.60245 82.78577 59.19411
# Shear Modulus (GPa) = 18.26631 34.10921 26.18776
#
# Velocity S-wave (km/s) = 2.97892 4.07071 3.56684
# Velocity P-wave (km/s) = 5.39704 7.89382 6.76168
#
# Compressibility (1/GPa) = 0.02808796
#
# Stress axis : x y z
#
# Youngs Moduli (GPa) = 48.29335 49.17176 85.44030
#
# Poissons Ratio (x) = -0.09416 0.15595
# Poissons Ratio (y) = -0.09248 1.06113
# Poissons Ratio (z) = 0.08815 0.61069
#
# Static dielectric constant tensor:
#      x y z
#    x 1.799560 0.000000 0.000000 
#    y 0.000000 1.690660 0.000000 
#    z 0.000000 0.000000 1.741390 
# 
# From -- ./inp_files/43453.got.cif
#   From: 2010.05.17/outbox.cif.g08.bks.cpg/sg67_22_cif.got.tgz:43453.got - 2010.06.03 18:28:57.
