data_PCOD9502276
_publ_section_title
;
Structure prediction by ZEFSAII (Michael W. Deem and Ramdas Pophale) SiO2 
 PCOD9502276
Probable space group: C M M A
;
_chemical_formula_sum "Si O2"
_cell_formula_units_Z 80
_cell_length_a 14.677483
_cell_length_b 9.145291
_cell_length_c 27.109120
_cell_angle_alpha 90.000000
_cell_angle_beta 90.000000
_cell_angle_gamma 90.000000
_cell_volume 3638.853198
_symmetry_space_group_name_H-M "C M M A"
_symmetry_group_IT_number 67
_symmetry_cell_setting 'orthorhombic'
loop_
_space_group_symop_operation_xyz
x,y,z
-x,1/2-y,z
x,-y,-z
-x,1/2+y,-z
-x,-y,-z
x,1/2+y,-z
-x,y,z
x,1/2-y,z
1/2+x,1/2+y,z
1/2-x,-y,z
1/2+x,1/2-y,-z
1/2-x,y,-z
1/2-x,1/2-y,-z
1/2+x,y,-z
1/2-x,1/2+y,z
1/2+x,-y,z
loop_
_atom_site_type_symbol
_atom_site_label
_atom_site_fract_x
_atom_site_fract_y
_atom_site_fract_z
Si Si1 0.111374 0.582993 0.049536
Si Si2 0.848376 0.075315 0.343505
Si Si3 0.611735 0.583061 0.148873
Si Si4 0.850435 0.574406 0.547998
Si Si5 0.606366 0.912540 0.755244
O O1 0.142842 0.750000 0.049604
O O2 0.138850 0.500184 0.099214
O O3 0.000000 0.585028 0.049369
O O4 0.139640 0.500000 0.000000
O O5 0.842473 0.250000 0.337771
O O6 0.891701 0.048128 0.397620
O O7 0.750000 0.000000 0.345612
O O8 0.890256 0.003119 0.295226
O O9 0.500000 0.586178 0.149275
O O10 0.643101 0.750000 0.148623
O O11 0.643621 0.500284 0.198035
O O12 0.894436 0.500000 0.500000
O O13 0.843358 0.750000 0.541288
O O14 0.750000 0.500000 0.550287
O O15 0.500000 0.894517 0.766494
O O16 0.647250 0.750000 0.749206
#
# Coordination Sequence:
#
# PCOD9502276 Si02
#       5
#    16  16  16  16  16
#     4   9  15  22  33  51  77 109 145 185 229 276
#     4  10  20  33  50  73  99 126 157 195 237 280
#     4   9  16  26  40  58  82 114 151 189 230 278
#     4   9  16  26  43  67  93 120 150 186 229 276
#     4  10  20  33  49  69  94 126 162 198 237 283
#
# _framework density 21.984947999999999
#
# number of rings (size 3 to 8) (size 9 to 14) (size 15 to 20)
#    0.000    2.600    0.000    3.600    0.000    8.400 
#    0.000    0.000    0.000    0.600    0.000    0.000 
#    0.000    0.800    0.000    8.000    0.000   12.400 
#
# Total GULP energy -223263.576198 kJ/mol
# GULP energy per Si atom -5581.589405 kJ/mol
# Density = 2.193491 g / cm^3
# Si number density = 21.984948 Si / 1000 Ang^3
#
#
#
# Elastic Constant Matrix: (Units=GPa)
#
#
# Indices 1 2 3 4 5 6 
#
# 1 50.5326 12.0099 9.9079 0.0000 0.0000 0.0000
# 2 12.0099 214.9872 146.0453 0.0000 0.0000 0.0000
# 3 9.9079 146.0453 256.0159 0.0000 0.0000 0.0000
# 4 0.0000 0.0000 0.0000 37.6259 0.0000 0.0000
# 5 0.0000 0.0000 0.0000 0.0000 -276.3885 0.0000
# 6 0.0000 0.0000 0.0000 0.0000 0.0000 7.1315
#
#
#
# Elastic Compliance Matrix: (Units=1/GPa)
#
#
# Indices 1 2 3 4 5 6 
#
# 1 0.020063 -0.000969 -0.000224 0.000000 0.000000 0.000000
# 2 -0.000969 0.007641 -0.004321 0.000000 0.000000 0.000000
# 3 -0.000224 -0.004321 0.006380 0.000000 0.000000 0.000000
# 4 0.000000 0.000000 0.000000 0.026577 0.000000 0.000000
# 5 0.000000 0.000000 0.000000 0.000000 -0.003618 0.000000
# 6 0.000000 0.000000 0.000000 0.000000 0.000000 0.140224
#
#
# Mechanical properties :
#
#
# Convention : Reuss Voigt Hill
#
# Bulk Modulus (GPa) = 43.37209 95.27357 69.32283
# Shear Modulus (GPa) = 23.15017 -22.75471 0.19773
#
# Velocity S-wave (km/s) = 3.24852 -3.22065 0.30022
# Velocity P-wave (km/s) = 5.81734 5.44057 5.63210
#
# Compressibility (1/GPa) = 0.02305630
#
# Stress axis : x y z
#
# Youngs Moduli (GPa) = 49.84220 130.86903 156.74291
#
# Poissons Ratio (x) = 0.12678 0.03508
# Poissons Ratio (y) = 0.04828 0.67736
# Poissons Ratio (z) = 0.01116 0.56555
#
# Static dielectric constant tensor:
#      x y z
#    x 1.718420 0.000000 0.000000 
#    y 0.000000 1.757590 0.000000 
#    z 0.000000 0.000000 1.809060 
# 
# From -- ./inp_files/43216.got.cif
#   From: 2010.05.17/outbox.cif.g08.bks.cpg/sg67_22_cif.got.tgz:43216.got - 2010.06.03 18:28:57.
