data_PCOD9502668
_publ_section_title
;
Structure prediction by ZEFSAII (Michael W. Deem and Ramdas Pophale) SiO2 
 PCOD9502668
Probable space group: C M M A
;
_chemical_formula_sum "Si O2"
_cell_formula_units_Z 104
_cell_length_a 20.006074
_cell_length_b 8.465078
_cell_length_c 30.989487
_cell_angle_alpha 90.000000
_cell_angle_beta 90.000000
_cell_angle_gamma 90.000000
_cell_volume 5248.161876
_symmetry_space_group_name_H-M "C M M A"
_symmetry_group_IT_number 67
_symmetry_cell_setting 'orthorhombic'
loop_
_space_group_symop_operation_xyz
x,y,z
-x,1/2-y,z
x,-y,-z
-x,1/2+y,-z
-x,-y,-z
x,1/2+y,-z
-x,y,z
x,1/2-y,z
1/2+x,1/2+y,z
1/2-x,-y,z
1/2+x,1/2-y,-z
1/2-x,y,-z
1/2-x,1/2-y,-z
1/2+x,y,-z
1/2-x,1/2+y,z
1/2+x,-y,z
loop_
_atom_site_type_symbol
_atom_site_label
_atom_site_fract_x
_atom_site_fract_y
_atom_site_fract_z
Si Si1 0.146999 0.559019 0.048675
Si Si2 0.000000 0.061115 0.951713
Si Si3 0.077125 0.057180 0.789895
Si Si4 0.580991 0.429737 0.454708
Si Si5 0.817662 0.940620 0.140604
Si Si6 0.673724 0.938465 0.711808
Si Si7 0.922518 0.937199 0.638184
O O1 0.151142 0.750000 0.046058
O O2 0.072034 0.510101 0.063111
O O3 0.184120 0.500987 0.091155
O O4 0.162271 0.500000 0.000000
O O5 0.000000 0.250000 0.949213
O O6 0.000000 0.000000 0.000000
O O7 0.074831 0.250000 0.788972
O O8 0.116063 0.011269 0.833560
O O9 0.125898 0.005069 0.751135
O O10 0.000000 0.002856 0.786946
O O11 0.605657 0.500000 0.500000
O O12 0.500000 0.427090 0.457573
O O13 0.604039 0.250000 0.449400
O O14 0.595447 0.527015 0.411566
O O15 0.817113 0.750000 0.139770
O O16 0.750000 0.000000 0.162929
O O17 0.677694 0.750000 0.714980
O O18 0.750000 0.000000 0.712477
O O19 0.631728 0.984446 0.669278
O O20 0.922145 0.750000 0.645424
O O21 0.000000 0.993695 0.645567
#
# Coordination Sequence:
#
# PCOD9502668 Si02
#       7
#    16   8  16  16  16  16  16
#     4   9  18  31  50  75 102 136 174 216 261 309
#     4   8  14  26  44  68  94 122 160 206 252 296
#     4   9  19  36  60  86 108 135 177 225 271 325
#     4   9  16  27  46  75 112 153 196 243 292 339
#     4  10  21  36  55  79 108 142 177 216 264 319
#     4  11  22  37  58  83 112 146 183 227 280 339
#     4  10  20  34  54  82 115 151 193 241 289 338
#
# _framework density 19.816462999999999
#
# number of rings (size 3 to 8) (size 9 to 14) (size 15 to 20)
#    0.000    2.462    0.000    2.308    1.077    4.308 
#    0.000    2.308    0.000    2.769    0.000    3.231 
#    0.000    0.000    0.000    0.000    0.000    0.000 
#
# Total GULP energy -289559.913632 kJ/mol
# GULP energy per Si atom -5568.459878 kJ/mol
# Density = 1.977136 g / cm^3
# Si number density = 19.816463 Si / 1000 Ang^3
#
#
#
# Elastic Constant Matrix: (Units=GPa)
#
#
# Indices 1 2 3 4 5 6 
#
# 1 167.0814 18.2659 73.9659 0.0000 0.0000 0.0000
# 2 18.2659 20.7391 12.8796 0.0000 0.0000 0.0000
# 3 73.9659 12.8796 130.8541 0.0000 0.0000 0.0000
# 4 0.0000 0.0000 0.0000 11.9759 0.0000 0.0000
# 5 0.0000 0.0000 0.0000 0.0000 5.6708 0.0000
# 6 0.0000 0.0000 0.0000 0.0000 0.0000 21.1356
#
#
#
# Elastic Compliance Matrix: (Units=1/GPa)
#
#
# Indices 1 2 3 4 5 6 
#
# 1 0.008398 -0.004738 -0.004281 0.000000 0.000000 0.000000
# 2 -0.004738 0.054031 -0.002640 0.000000 0.000000 0.000000
# 3 -0.004281 -0.002640 0.010322 0.000000 0.000000 0.000000
# 4 0.000000 0.000000 0.000000 0.083501 0.000000 0.000000
# 5 0.000000 0.000000 0.000000 0.000000 0.176341 0.000000
# 6 0.000000 0.000000 0.000000 0.000000 0.000000 0.047313
#
#
# Mechanical properties :
#
#
# Convention : Reuss Voigt Hill
#
# Bulk Modulus (GPa) = 20.22944 58.76639 39.49791
# Shear Modulus (GPa) = 11.91323 21.99401 16.95362
#
# Velocity S-wave (km/s) = 2.45455 3.33511 2.92812
# Velocity P-wave (km/s) = 4.27360 6.67460 5.60419
#
# Compressibility (1/GPa) = 0.04943290
#
# Stress axis : x y z
#
# Youngs Moduli (GPa) = 119.07381 18.50805 96.88394
#
# Poissons Ratio (x) = 0.08769 0.41473
# Poissons Ratio (y) = 0.56419 0.25575
# Poissons Ratio (z) = 0.50972 0.04886
#
# Static dielectric constant tensor:
#      x y z
#    x 1.571770 0.000000 0.000000 
#    y 0.000000 1.705420 0.000000 
#    z 0.000000 0.000000 1.709660 
# 
# From -- ./inp_files/44673.got.cif
#   From: 2010.05.17/outbox.cif.g08.bks.cpg/sg67_23_cif.got.tgz:44673.got - 2010.06.03 18:28:57.
