data_PCOD9502549
_publ_section_title
;
Structure prediction by ZEFSAII (Michael W. Deem and Ramdas Pophale) SiO2 
 PCOD9502549
Probable space group: C M M A
;
_chemical_formula_sum "Si O2"
_cell_formula_units_Z 104
_cell_length_a 8.630624
_cell_length_b 25.364184
_cell_length_c 28.366843
_cell_angle_alpha 90.000000
_cell_angle_beta 90.000000
_cell_angle_gamma 90.000000
_cell_volume 6209.749722
_symmetry_space_group_name_H-M "C M M A"
_symmetry_group_IT_number 67
_symmetry_cell_setting 'orthorhombic'
loop_
_space_group_symop_operation_xyz
x,y,z
-x,1/2-y,z
x,-y,-z
-x,1/2+y,-z
-x,-y,-z
x,1/2+y,-z
-x,y,z
x,1/2-y,z
1/2+x,1/2+y,z
1/2-x,-y,z
1/2+x,1/2-y,-z
1/2-x,y,-z
1/2-x,1/2-y,-z
1/2+x,y,-z
1/2-x,1/2+y,z
1/2+x,-y,z
loop_
_atom_site_type_symbol
_atom_site_label
_atom_site_fract_x
_atom_site_fract_y
_atom_site_fract_z
Si Si1 0.686778 0.188835 0.448808
Si Si2 0.814587 0.644618 0.351376
Si Si3 0.685541 0.058267 0.719345
Si Si4 0.314347 0.250000 0.947634
Si Si5 0.683170 0.250000 0.694521
Si Si6 0.312058 0.666631 0.130501
Si Si7 0.313730 0.441904 0.827382
Si Si8 0.183218 0.750000 0.202851
O O1 0.500000 0.188745 0.450199
O O2 0.735287 0.250000 0.439491
O O3 0.750000 0.173897 0.500000
O O4 0.736216 0.151190 0.405924
O O5 0.745854 0.597900 0.320170
O O6 0.761321 0.698655 0.327319
O O7 0.000000 0.640652 0.350582
O O8 0.500000 0.057942 0.718362
O O9 0.733598 0.072361 0.773346
O O10 0.750000 0.000000 0.710520
O O11 0.500000 0.250000 0.950095
O O12 0.269065 0.301916 0.917177
O O13 0.250000 0.250000 0.000000
O O14 0.500000 0.250000 0.685697
O O15 0.718958 0.250000 0.749726
O O16 0.500000 0.670723 0.135425
O O17 0.268862 0.605506 0.137529
O O18 0.232312 0.699618 0.172028
O O19 0.500000 0.445181 0.827695
O O20 0.250000 0.500000 0.838371
O O21 0.000000 0.750000 0.212591
#
# Coordination Sequence:
#
# PCOD9502549 Si02
#       8
#    16  16  16   8   8  16  16   8
#     4   9  18  33  51  72  99 128 160 202 254 309
#     4  11  21  35  52  74 103 131 165 213 258 300
#     4  10  20  34  52  76 103 138 175 208 249 303
#     4   9  18  32  52  75 102 135 172 213 259 304
#     4  12  23  33  47  71 103 139 170 200 248 312
#     4   9  18  34  52  72 101 137 170 207 255 306
#     4   9  18  32  51  73 100 131 168 207 246 294
#     4  11  21  31  47  72 101 132 166 209 252 296
#
# _framework density 16.747857
#
# number of rings (size 3 to 8) (size 9 to 14) (size 15 to 20)
#    0.000    2.154    0.769    3.692    0.000    4.923 
#    0.000    0.000    0.000    0.923    0.000    6.462 
#    0.000    0.000    0.000    0.000    0.000    0.000 
#
# Total GULP energy -290016.821241 kJ/mol
# GULP energy per Si atom -5577.246562 kJ/mol
# Density = 1.670974 g / cm^3
# Si number density = 16.747857 Si / 1000 Ang^3
#
#
#
# Elastic Constant Matrix: (Units=GPa)
#
#
# Indices 1 2 3 4 5 6 
#
# 1 23.9398 25.9334 18.9604 0.0000 0.0000 0.0000
# 2 25.9334 127.2654 77.1041 0.0000 0.0000 0.0000
# 3 18.9604 77.1041 121.8275 0.0000 0.0000 0.0000
# 4 0.0000 0.0000 0.0000 163.3301 0.0000 0.0000
# 5 0.0000 0.0000 0.0000 0.0000 26.5567 0.0000
# 6 0.0000 0.0000 0.0000 0.0000 0.0000 27.0635
#
#
#
# Elastic Compliance Matrix: (Units=1/GPa)
#
#
# Indices 1 2 3 4 5 6 
#
# 1 0.054011 -0.009591 -0.002336 0.000000 0.000000 0.000000
# 2 -0.009591 0.014447 -0.007651 0.000000 0.000000 0.000000
# 3 -0.002336 -0.007651 0.013414 0.000000 0.000000 0.000000
# 4 0.000000 0.000000 0.000000 0.006123 0.000000 0.000000
# 5 0.000000 0.000000 0.000000 0.000000 0.037655 0.000000
# 6 0.000000 0.000000 0.000000 0.000000 0.000000 0.036950
#
#
# Mechanical properties :
#
#
# Convention : Reuss Voigt Hill
#
# Bulk Modulus (GPa) = 23.40985 57.44759 40.42872
# Shear Modulus (GPa) = 23.14867 53.45904 38.30385
#
# Velocity S-wave (km/s) = 3.72181 5.65590 4.78754
# Velocity P-wave (km/s) = 5.69889 8.77657 7.39951
#
# Compressibility (1/GPa) = 0.04271706
#
# Stress axis : x y z
#
# Youngs Moduli (GPa) = 18.51473 69.21689 74.54814
#
# Poissons Ratio (x) = 0.66385 0.17414
# Poissons Ratio (y) = 0.17757 0.57037
# Poissons Ratio (z) = 0.04325 0.52958
#
# Static dielectric constant tensor:
#      x y z
#    x 1.569920 0.000000 0.000000 
#    y 0.000000 1.554540 0.000000 
#    z 0.000000 0.000000 1.572860 
# 
# From -- ./inp_files/43761.got.cif
#   From: 2010.05.17/outbox.cif.g08.bks.cpg/sg67_22_cif.got.tgz:43761.got - 2010.06.03 18:28:57.
