data_PCOD9502733
_publ_section_title
;
Structure prediction by ZEFSAII (Michael W. Deem and Ramdas Pophale) SiO2 
 PCOD9502733
Probable space group: C M M A
;
_chemical_formula_sum "Si O2"
_cell_formula_units_Z 96
_cell_length_a 8.625594
_cell_length_b 29.290470
_cell_length_c 20.950433
_cell_angle_alpha 90.000000
_cell_angle_beta 90.000000
_cell_angle_gamma 90.000000
_cell_volume 5293.078759
_symmetry_space_group_name_H-M "C M M A"
_symmetry_group_IT_number 67
_symmetry_cell_setting 'orthorhombic'
loop_
_space_group_symop_operation_xyz
x,y,z
-x,1/2-y,z
x,-y,-z
-x,1/2+y,-z
-x,-y,-z
x,1/2+y,-z
-x,y,z
x,1/2-y,z
1/2+x,1/2+y,z
1/2-x,-y,z
1/2+x,1/2-y,-z
1/2-x,y,-z
1/2-x,1/2-y,-z
1/2+x,y,-z
1/2-x,1/2+y,z
1/2+x,-y,z
loop_
_atom_site_type_symbol
_atom_site_label
_atom_site_fract_x
_atom_site_fract_y
_atom_site_fract_z
Si Si1 0.184790 0.697954 0.236330
Si Si2 0.314359 0.948803 0.692141
Si Si3 0.185280 0.050513 0.930030
Si Si4 0.315682 0.606894 0.186901
Si Si5 0.813818 0.102316 0.432014
Si Si6 0.813067 0.699322 0.620128
O O1 0.218910 0.750000 0.216379
O O2 0.268976 0.659551 0.195484
O O3 0.240781 0.693606 0.309631
O O4 0.000000 0.690902 0.234076
O O5 0.500000 0.949086 0.693450
O O6 0.251403 0.919476 0.751488
O O7 0.254978 0.926026 0.626748
O O8 0.250000 0.000000 0.697059
O O9 0.242902 0.084922 0.876132
O O10 0.000000 0.048732 0.931921
O O11 0.250000 0.000000 0.914604
O O12 0.250000 0.062568 0.000000
O O13 0.500000 0.601704 0.185839
O O14 0.750000 0.086522 0.500000
O O15 0.768241 0.155550 0.421312
O O16 0.000000 0.099081 0.430670
O O17 0.768429 0.750000 0.596022
O O18 0.000000 0.698482 0.626538
#
# Coordination Sequence:
#
# PCOD9502733 Si02
#       6
#    16  16  16  16  16  16
#     4  10  20  34  56  87 119 152 193 240 290 343
#     4  12  25  42  62  85 113 146 191 244 295 349
#     4  11  22  39  61  90 126 163 201 242 289 344
#     4  12  23  38  61  90 122 158 197 239 289 344
#     4  11  23  39  58  82 113 151 193 239 292 353
#     4   9  18  34  56  81 112 149 188 233 287 347
#
# _framework density 18.136893000000001
#
# number of rings (size 3 to 8) (size 9 to 14) (size 15 to 20)
#    0.000    1.167    1.667    6.500    0.000    2.333 
#    0.000    1.667    0.000    0.500    0.000    0.000 
#    0.000    0.000    0.000    0.000    0.000    0.000 
#
# Total GULP energy -268378.102057 kJ/mol
# GULP energy per Si atom -5591.210460 kJ/mol
# Density = 1.809561 g / cm^3
# Si number density = 18.136893 Si / 1000 Ang^3
#
#
#
# Elastic Constant Matrix: (Units=GPa)
#
#
# Indices 1 2 3 4 5 6 
#
# 1 122.1004 53.2606 45.3673 0.0000 0.0000 0.0000
# 2 53.2606 99.9888 56.5206 0.0000 0.0000 0.0000
# 3 45.3673 56.5206 95.3818 0.0000 0.0000 0.0000
# 4 0.0000 0.0000 0.0000 -87.3434 0.0000 0.0000
# 5 0.0000 0.0000 0.0000 0.0000 30.0701 0.0000
# 6 0.0000 0.0000 0.0000 0.0000 0.0000 25.4311
#
#
#
# Elastic Compliance Matrix: (Units=1/GPa)
#
#
# Indices 1 2 3 4 5 6 
#
# 1 0.011104 -0.004405 -0.002671 0.000000 0.000000 0.000000
# 2 -0.004405 0.016786 -0.007852 0.000000 0.000000 0.000000
# 3 -0.002671 -0.007852 0.016407 0.000000 0.000000 0.000000
# 4 0.000000 0.000000 0.000000 -0.011449 0.000000 0.000000
# 5 0.000000 0.000000 0.000000 0.000000 0.033256 0.000000
# 6 0.000000 0.000000 0.000000 0.000000 0.000000 0.039322
#
#
# Mechanical properties :
#
#
# Convention : Reuss Voigt Hill
#
# Bulk Modulus (GPa) = 69.24432 69.75200 69.49816
# Shear Modulus (GPa) = 35.69015 4.45306 20.07161
#
# Velocity S-wave (km/s) = 4.44083 1.56862 3.33028
# Velocity P-wave (km/s) = 8.03468 6.46706 7.29311
#
# Compressibility (1/GPa) = 0.01444162
#
# Stress axis : x y z
#
# Youngs Moduli (GPa) = 90.05884 59.57477 60.94775
#
# Poissons Ratio (x) = 0.26240 0.16281
# Poissons Ratio (y) = 0.39667 0.47854
# Poissons Ratio (z) = 0.24058 0.46776
#
# Static dielectric constant tensor:
#      x y z
#    x 1.604070 0.000000 0.000000 
#    y 0.000000 1.632920 0.000000 
#    z 0.000000 0.000000 1.583800 
# 
# From -- ./inp_files/37134.got.cif
#   From: 2010.05.17/outbox.cif.g08.bks.cpg/sg67_19_cif.got.tgz:37134.got - 2010.06.03 18:28:57.
