data_PCOD9502025
_publ_section_title
;
Structure prediction by ZEFSAII (Michael W. Deem and Ramdas Pophale) SiO2 
 PCOD9502025
Probable space group: C M M A
;
_chemical_formula_sum "Si O2"
_cell_formula_units_Z 88
_cell_length_a 17.560484
_cell_length_b 19.545007
_cell_length_c 11.980771
_cell_angle_alpha 90.000000
_cell_angle_beta 90.000000
_cell_angle_gamma 90.000000
_cell_volume 4112.037619
_symmetry_space_group_name_H-M "C M M A"
_symmetry_group_IT_number 67
_symmetry_cell_setting 'orthorhombic'
loop_
_space_group_symop_operation_xyz
x,y,z
-x,1/2-y,z
x,-y,-z
-x,1/2+y,-z
-x,-y,-z
x,1/2+y,-z
-x,y,z
x,1/2-y,z
1/2+x,1/2+y,z
1/2-x,-y,z
1/2+x,1/2-y,-z
1/2-x,y,-z
1/2-x,1/2-y,-z
1/2+x,y,-z
1/2-x,1/2+y,z
1/2+x,-y,z
loop_
_atom_site_type_symbol
_atom_site_label
_atom_site_fract_x
_atom_site_fract_y
_atom_site_fract_z
Si Si1 0.586621 0.135124 0.674295
Si Si2 0.166807 0.133078 0.553619
Si Si3 0.088547 0.527345 0.292157
Si Si4 0.856492 0.375160 0.889023
Si Si5 0.131553 0.250000 0.736392
Si Si6 0.317960 0.670300 0.118298
O O1 0.500000 0.156030 0.694264
O O2 0.610415 0.149901 0.548084
O O3 0.642370 0.168509 0.762958
O O4 0.593766 0.053674 0.695167
O O5 0.250000 0.127640 0.500000
O O6 0.139657 0.063944 0.614349
O O7 0.160047 0.190666 0.647670
O O8 0.115743 0.556710 0.172592
O O9 0.000000 0.547199 0.309106
O O10 0.892666 0.310774 0.825084
O O11 0.765264 0.363671 0.873662
O O12 0.865784 0.367763 0.021999
O O13 0.307726 0.750000 0.086847
#
# Coordination Sequence:
#
# PCOD9502025 Si02
#       6
#    16  16  16  16   8  16
#     4  11  25  42  60  89 131 169 202 251 312 369
#     4  11  23  37  65  94 124 159 210 257 308 364
#     4  10  23  43  63  87 126 171 209 250 302 362
#     4  10  20  40  68  91 121 159 211 254 305 364
#     4  10  19  37  61  90 119 159 198 248 304 364
#     4  11  22  39  67  94 126 161 199 258 317 363
#
# _framework density 21.400582
#
# number of rings (size 3 to 8) (size 9 to 14) (size 15 to 20)
#    0.000    1.455    1.818    4.091    1.273    6.909 
#    0.000   14.545    0.000    0.000    0.000    0.000 
#    0.000    0.000    0.000    0.000    0.000    0.000 
#
# Total GULP energy -244950.376453 kJ/mol
# GULP energy per Si atom -5567.054010 kJ/mol
# Density = 2.135187 g / cm^3
# Si number density = 21.400582 Si / 1000 Ang^3
#
#
#
# Elastic Constant Matrix: (Units=GPa)
#
#
# Indices 1 2 3 4 5 6 
#
# 1 20.9880 9.6805 -14.2039 0.0000 0.0000 0.0000
# 2 9.6805 37.4964 6.0598 0.0000 0.0000 0.0000
# 3 -14.2039 6.0598 75.5201 0.0000 0.0000 0.0000
# 4 0.0000 0.0000 0.0000 6.6843 0.0000 0.0000
# 5 0.0000 0.0000 0.0000 0.0000 4.5909 0.0000
# 6 0.0000 0.0000 0.0000 0.0000 0.0000 -10.0844
#
#
#
# Elastic Compliance Matrix: (Units=1/GPa)
#
#
# Indices 1 2 3 4 5 6 
#
# 1 0.065993 -0.019294 0.013960 0.000000 0.000000 0.000000
# 2 -0.019294 0.032660 -0.006249 0.000000 0.000000 0.000000
# 3 0.013960 -0.006249 0.016369 0.000000 0.000000 0.000000
# 4 0.000000 0.000000 0.000000 0.149605 0.000000 0.000000
# 5 0.000000 0.000000 0.000000 0.000000 0.217825 0.000000
# 6 0.000000 0.000000 0.000000 0.000000 0.000000 -0.099163
#
#
# Mechanical properties :
#
#
# Convention : Reuss Voigt Hill
#
# Bulk Modulus (GPa) = 10.88658 15.23078 13.05868
# Shear Modulus (GPa) = 11.43975 9.06935 10.25455
#
# Velocity S-wave (km/s) = 2.31455 2.06085 2.19137
# Velocity P-wave (km/s) = 3.49871 3.57704 3.53809
#
# Compressibility (1/GPa) = 0.09185623
#
# Stress axis : x y z
#
# Youngs Moduli (GPa) = 15.15312 30.61825 61.09252
#
# Poissons Ratio (x) = 0.59073 -0.85286
# Poissons Ratio (y) = 0.29236 0.38179
# Poissons Ratio (z) = -0.21154 0.19135
#
# Static dielectric constant tensor:
#      x y z
#    x 1.798970 0.000000 0.000000 
#    y 0.000000 1.748620 0.000000 
#    z 0.000000 0.000000 1.776380 
# 
# From -- ./inp_files/19447.got.cif
#   From: 2010.05.17/outbox.cif.g08.bks.cpg/sg67_10_cif.got.tgz:19447.got - 2010.06.03 18:28:57.
