data_PCOD9502052
_publ_section_title
;
Structure prediction by ZEFSAII (Michael W. Deem and Ramdas Pophale) SiO2 
 PCOD9502052
Probable space group: C M M A
;
_chemical_formula_sum "Si O2"
_cell_formula_units_Z 116
_cell_length_a 18.245773
_cell_length_b 21.826551
_cell_length_c 13.190570
_cell_angle_alpha 90.000000
_cell_angle_beta 90.000000
_cell_angle_gamma 90.000000
_cell_volume 5253.042868
_symmetry_space_group_name_H-M "C M M A"
_symmetry_group_IT_number 67
_symmetry_cell_setting 'orthorhombic'
loop_
_space_group_symop_operation_xyz
x,y,z
-x,1/2-y,z
x,-y,-z
-x,1/2+y,-z
-x,-y,-z
x,1/2+y,-z
-x,y,z
x,1/2-y,z
1/2+x,1/2+y,z
1/2-x,-y,z
1/2+x,1/2-y,-z
1/2-x,y,-z
1/2-x,1/2-y,-z
1/2+x,y,-z
1/2-x,1/2+y,z
1/2+x,-y,z
loop_
_atom_site_type_symbol
_atom_site_label
_atom_site_fract_x
_atom_site_fract_y
_atom_site_fract_z
Si Si1 0.500000 0.250000 0.231524
Si Si2 0.917064 0.178532 0.076468
Si Si3 0.326765 0.992950 0.292388
Si Si4 0.184931 0.126574 0.422477
Si Si5 0.781845 0.821706 0.791220
Si Si6 0.115646 0.150890 0.843958
Si Si7 0.081516 0.934777 0.439653
Si Si8 0.415971 0.490292 0.111888
O O1 0.564725 0.304575 0.223473
O O2 0.922216 0.250000 0.105939
O O3 0.847628 0.153333 0.138285
O O4 0.000000 0.152604 0.090040
O O5 0.896762 0.175899 0.958196
O O6 0.308808 0.941651 0.375463
O O7 0.250000 0.000000 0.236513
O O8 0.360023 0.050793 0.352155
O O9 0.383424 0.973850 0.207212
O O10 0.250000 0.139725 0.500000
O O11 0.191945 0.168877 0.324589
O O12 0.110676 0.119087 0.487754
O O13 0.773302 0.750000 0.813609
O O14 0.701050 0.848625 0.811535
O O15 0.091008 0.080582 0.855726
O O16 0.000000 0.922450 0.400900
O O17 0.077534 0.000000 0.500000
O O18 0.500000 0.507414 0.103538
O O19 0.382162 0.500000 0.000000
#
# Coordination Sequence:
#
# PCOD9502052 Si02
#       8
#     4  16  16  16  16  16  16  16
#     4  12  20  40  76  96 128 200 238 280 322 396
#     4  10  19  38  65  97 130 174 222 275 328 395
#     4  11  21  40  64  93 125 175 223 266 331 406
#     4  11  23  41  66  91 124 172 217 282 345 398
#     4  11  25  40  66 103 133 173 230 285 345 415
#     4  12  21  42  66  99 138 180 238 275 331 406
#     4   9  19  36  63  92 118 156 221 277 319 393
#     4  11  26  43  63  99 146 183 216 279 349 413
#
# _framework density 22.082439000000001
#
# number of rings (size 3 to 8) (size 9 to 14) (size 15 to 20)
#    0.000    1.241    4.138    1.655    1.931    2.759 
#    2.483    0.000    0.000    0.000    0.000    0.000 
#    0.000    0.000    0.000    0.000    0.000    0.000 
#
# Total GULP energy -323135.133294 kJ/mol
# GULP energy per Si atom -5571.295402 kJ/mol
# Density = 2.203218 g / cm^3
# Si number density = 22.082439 Si / 1000 Ang^3
#
#
#
# Elastic Constant Matrix: (Units=GPa)
#
#
# Indices 1 2 3 4 5 6 
#
# 1 158.5416 5.0563 36.5058 0.0000 0.0000 0.0000
# 2 5.0563 58.5358 -24.9352 0.0000 0.0000 0.0000
# 3 36.5058 -24.9352 60.5957 0.0000 0.0000 0.0000
# 4 0.0000 0.0000 0.0000 5.8378 0.0000 0.0000
# 5 0.0000 0.0000 0.0000 0.0000 -122.7299 0.0000
# 6 0.0000 0.0000 0.0000 0.0000 0.0000 11.3698
#
#
#
# Elastic Compliance Matrix: (Units=1/GPa)
#
#
# Indices 1 2 3 4 5 6 
#
# 1 0.007800 -0.003244 -0.006034 0.000000 0.000000 0.000000
# 2 -0.003244 0.022064 0.011034 0.000000 0.000000 0.000000
# 3 -0.006034 0.011034 0.024679 0.000000 0.000000 0.000000
# 4 0.000000 0.000000 0.000000 0.171296 0.000000 0.000000
# 5 0.000000 0.000000 0.000000 0.000000 -0.008148 0.000000
# 6 0.000000 0.000000 0.000000 0.000000 0.000000 0.087952
#
#
# Mechanical properties :
#
#
# Convention : Reuss Voigt Hill
#
# Bulk Modulus (GPa) = 17.22546 34.54744 25.88645
# Shear Modulus (GPa) = 15.55284 -3.70137 5.92573
#
# Velocity S-wave (km/s) = 2.65676 -1.29607 1.63990
# Velocity P-wave (km/s) = 4.15074 3.66592 3.91584
#
# Compressibility (1/GPa) = 0.05805359
#
# Stress axis : x y z
#
# Youngs Moduli (GPa) = 128.19765 45.32255 40.52068
#
# Poissons Ratio (x) = 0.14704 0.24452
# Poissons Ratio (y) = 0.41592 -0.44710
# Poissons Ratio (z) = 0.77360 -0.50009
#
# Static dielectric constant tensor:
#      x y z
#    x 1.846650 0.000000 0.000000 
#    y 0.000000 1.845340 0.000000 
#    z 0.000000 0.000000 1.818820 
# 
# From -- ./inp_files/19963.got.cif
#   From: 2010.05.17/outbox.cif.g08.bks.cpg/sg67_10_cif.got.tgz:19963.got - 2010.06.03 18:28:57.
