data_PCOD9502029
_publ_section_title
;
Structure prediction by ZEFSAII (Michael W. Deem and Ramdas Pophale) SiO2 
 PCOD9502029
Probable space group: C M M A
;
_chemical_formula_sum "Si O2"
_cell_formula_units_Z 52
_cell_length_a 18.144690
_cell_length_b 20.670593
_cell_length_c 5.773297
_cell_angle_alpha 90.000000
_cell_angle_beta 90.000000
_cell_angle_gamma 90.000000
_cell_volume 2165.341445
_symmetry_space_group_name_H-M "C M M A"
_symmetry_group_IT_number 67
_symmetry_cell_setting 'orthorhombic'
loop_
_space_group_symop_operation_xyz
x,y,z
-x,1/2-y,z
x,-y,-z
-x,1/2+y,-z
-x,-y,-z
x,1/2+y,-z
-x,y,z
x,1/2-y,z
1/2+x,1/2+y,z
1/2-x,-y,z
1/2+x,1/2-y,-z
1/2-x,y,-z
1/2-x,1/2-y,-z
1/2+x,y,-z
1/2-x,1/2+y,z
1/2+x,-y,z
loop_
_atom_site_type_symbol
_atom_site_label
_atom_site_fract_x
_atom_site_fract_y
_atom_site_fract_z
Si Si1 0.666368 0.877959 0.637429
Si Si2 0.250000 0.500000 0.500000
Si Si3 0.000000 0.408021 0.130962
Si Si4 0.500000 0.918021 0.627927
Si Si5 0.349357 0.826646 0.136515
O O1 0.697356 0.951722 0.644213
O O2 0.577100 0.878894 0.626918
O O3 0.683143 0.842881 0.880778
O O4 0.686727 0.851426 0.379109
O O5 0.927877 0.362979 0.133486
O O6 0.000000 0.443913 0.887751
O O7 0.000000 0.447618 0.370051
O O8 0.356305 0.750000 0.154849
#
# Coordination Sequence:
#
# PCOD9502029 Si02
#       5
#    16   4   8   8  16
#     4  10  23  39  63  89 121 160 198 244 296 352
#     4  12  28  48  62  82 120 164 212 252 296 348
#     4   8  15  28  56  91 126 151 180 234 299 360
#     4   8  16  35  57  88 116 150 199 239 288 348
#     4  10  19  37  62  94 124 154 193 243 301 361
#
# _framework density 24.014688
#
# number of rings (size 3 to 8) (size 9 to 14) (size 15 to 20)
#    0.000    2.462    0.000    1.385    0.000    4.308 
#    0.000   13.846    0.000   11.077    0.000    0.000 
#    0.000    0.000    0.000    0.000    0.000    0.000 
#
# Total GULP energy -144875.126585 kJ/mol
# GULP energy per Si atom -5572.120253 kJ/mol
# Density = 2.396003 g / cm^3
# Si number density = 24.014688 Si / 1000 Ang^3
#
#
#
# Elastic Constant Matrix: (Units=GPa)
#
#
# Indices 1 2 3 4 5 6 
#
# 1 84.3800 12.7498 68.9822 0.0000 0.0000 0.0000
# 2 12.7498 136.5139 107.1771 0.0000 0.0000 0.0000
# 3 68.9822 107.1771 338.0335 0.0000 0.0000 0.0000
# 4 0.0000 0.0000 0.0000 32.6239 0.0000 0.0000
# 5 0.0000 0.0000 0.0000 0.0000 61.2431 0.0000
# 6 0.0000 0.0000 0.0000 0.0000 0.0000 26.1013
#
#
#
# Elastic Compliance Matrix: (Units=1/GPa)
#
#
# Indices 1 2 3 4 5 6 
#
# 1 0.014390 0.001280 -0.003343 0.000000 0.000000 0.000000
# 2 0.001280 0.009867 -0.003390 0.000000 0.000000 0.000000
# 3 -0.003343 -0.003390 0.004715 0.000000 0.000000 0.000000
# 4 0.000000 0.000000 0.000000 0.030652 0.000000 0.000000
# 5 0.000000 0.000000 0.000000 0.000000 0.016328 0.000000
# 6 0.000000 0.000000 0.000000 0.000000 0.000000 0.038312
#
#
# Mechanical properties :
#
#
# Convention : Reuss Voigt Hill
#
# Bulk Modulus (GPa) = 55.34527 104.08286 79.71406
# Shear Modulus (GPa) = 38.11206 48.66153 43.38680
#
# Velocity S-wave (km/s) = 3.98808 4.50635 4.25511
# Velocity P-wave (km/s) = 6.65604 8.39713 7.57676
#
# Compressibility (1/GPa) = 0.01806839
#
# Stress axis : x y z
#
# Youngs Moduli (GPa) = 69.49134 101.34873 212.08357
#
# Poissons Ratio (x) = -0.12975 0.70889
# Poissons Ratio (y) = -0.08896 0.71889
# Poissons Ratio (z) = 0.23228 0.34354
#
# Static dielectric constant tensor:
#      x y z
#    x 2.032860 0.000000 0.000000 
#    y 0.000000 1.833090 0.000000 
#    z 0.000000 0.000000 1.941950 
# 
# From -- ./inp_files/2598.got.cif
#   From: 2010.05.17/outbox.cif.g08.bks.cpg/sg67_2_cif.got.tgz:2598.got - 2010.06.03 18:28:57.
