data_PCOD9502451
_publ_section_title
;
Structure prediction by ZEFSAII (Michael W. Deem and Ramdas Pophale) SiO2 
 PCOD9502451
Probable space group: C M M A
;
_chemical_formula_sum "Si O2"
_cell_formula_units_Z 52
_cell_length_a 14.408221
_cell_length_b 29.551142
_cell_length_c 5.277744
_cell_angle_alpha 90.000000
_cell_angle_beta 90.000000
_cell_angle_gamma 90.000000
_cell_volume 2247.154593
_symmetry_space_group_name_H-M "C M M A"
_symmetry_group_IT_number 67
_symmetry_cell_setting 'orthorhombic'
loop_
_space_group_symop_operation_xyz
x,y,z
-x,1/2-y,z
x,-y,-z
-x,1/2+y,-z
-x,-y,-z
x,1/2+y,-z
-x,y,z
x,1/2-y,z
1/2+x,1/2+y,z
1/2-x,-y,z
1/2+x,1/2-y,-z
1/2-x,y,-z
1/2-x,1/2-y,-z
1/2+x,y,-z
1/2-x,1/2+y,z
1/2+x,-y,z
loop_
_atom_site_type_symbol
_atom_site_label
_atom_site_fract_x
_atom_site_fract_y
_atom_site_fract_z
Si Si1 0.750000 0.250000 0.000000
Si Si2 0.104692 0.203084 0.348734
Si Si3 0.636845 0.947762 0.008151
Si Si4 0.138881 0.395672 0.510574
O O1 0.683476 0.288964 0.860705
O O2 0.113940 0.250000 0.513144
O O3 0.115913 0.157201 0.499330
O O4 0.000000 0.202647 0.241830
O O5 0.606179 0.920347 0.762137
O O6 0.750000 0.947861 0.000000
O O7 0.606419 0.921977 0.260600
O O8 0.608194 0.000000 0.000000
O O9 0.250000 0.398679 0.500000
#
# Coordination Sequence:
#
# PCOD9502451 Si02
#       4
#     4  16  16  16
#     4   8  18  36  70  86 134 176 228 276 338 410
#     4   9  20  38  62  95 135 178 229 285 342 408
#     4   9  18  33  56  90 125 166 217 276 330 399
#     4  10  20  33  61  89 126 170 217 275 339 396
#
# _framework density 23.140374999999999
#
# number of rings (size 3 to 8) (size 9 to 14) (size 15 to 20)
#    0.923    1.846    0.000    0.923    6.462    4.308 
#    0.000    3.077    0.000   10.154    0.000    0.000 
#    0.000    0.000    0.000    0.000    0.000    0.000 
#
# Total GULP energy -144739.718533 kJ/mol
# GULP energy per Si atom -5566.912251 kJ/mol
# Density = 2.308771 g / cm^3
# Si number density = 23.140375 Si / 1000 Ang^3
#
#
#
# Elastic Constant Matrix: (Units=GPa)
#
#
# Indices 1 2 3 4 5 6 
#
# 1 114.7843 36.0658 31.5500 0.0000 0.0000 0.0000
# 2 36.0658 262.3021 132.0416 0.0000 0.0000 0.0000
# 3 31.5500 132.0416 167.1719 0.0000 0.0000 0.0000
# 4 0.0000 0.0000 0.0000 44.4399 0.0000 0.0000
# 5 0.0000 0.0000 0.0000 0.0000 -26.7017 0.0000
# 6 0.0000 0.0000 0.0000 0.0000 0.0000 -82.7155
#
#
#
# Elastic Compliance Matrix: (Units=1/GPa)
#
#
# Indices 1 2 3 4 5 6 
#
# 1 0.009256 -0.000653 -0.001231 0.000000 0.000000 0.000000
# 2 -0.000653 0.006375 -0.004912 0.000000 0.000000 0.000000
# 3 -0.001231 -0.004912 0.010094 0.000000 0.000000 0.000000
# 4 0.000000 0.000000 0.000000 0.022502 0.000000 0.000000
# 5 0.000000 0.000000 0.000000 0.000000 -0.037451 0.000000
# 6 0.000000 0.000000 0.000000 0.000000 0.000000 -0.012090
#
#
# Mechanical properties :
#
#
# Convention : Reuss Voigt Hill
#
# Bulk Modulus (GPa) = 82.42390 104.84145 93.63267
# Shear Modulus (GPa) = 306.33174 9.97794 158.15484
#
# Velocity S-wave (km/s) = 11.51812 2.07877 8.27612
# Velocity P-wave (km/s) = 14.58033 7.15310 11.48374
#
# Compressibility (1/GPa) = 0.01213240
#
# Stress axis : x y z
#
# Youngs Moduli (GPa) = 108.04369 156.86687 99.06918
#
# Poissons Ratio (x) = 0.10242 0.12196
# Poissons Ratio (y) = 0.07054 0.48663
# Poissons Ratio (z) = 0.13301 0.77053
#
# Static dielectric constant tensor:
#      x y z
#    x 2.069690 0.000000 0.000000 
#    y 0.000000 1.841540 0.000000 
#    z 0.000000 0.000000 1.876440 
# 
# From -- ./inp_files/1974.got.cif
#   From: 2010.05.17/outbox.cif.g08.bks.cpg/sg67_1_cif.got.tgz:1974.got - 2010.06.03 18:28:57.
