data_PCOD9502684
_publ_section_title
;
Structure prediction by ZEFSAII (Michael W. Deem and Ramdas Pophale) SiO2 
 PCOD9502684
Probable space group: C M M A
;
_chemical_formula_sum "Si O2"
_cell_formula_units_Z 88
_cell_length_a 16.451587
_cell_length_b 9.001397
_cell_length_c 31.244708
_cell_angle_alpha 90.000000
_cell_angle_beta 90.000000
_cell_angle_gamma 90.000000
_cell_volume 4626.943381
_symmetry_space_group_name_H-M "C M M A"
_symmetry_group_IT_number 67
_symmetry_cell_setting 'orthorhombic'
loop_
_space_group_symop_operation_xyz
x,y,z
-x,1/2-y,z
x,-y,-z
-x,1/2+y,-z
-x,-y,-z
x,1/2+y,-z
-x,y,z
x,1/2-y,z
1/2+x,1/2+y,z
1/2-x,-y,z
1/2+x,1/2-y,-z
1/2-x,y,-z
1/2-x,1/2-y,-z
1/2+x,y,-z
1/2-x,1/2+y,z
1/2+x,-y,z
loop_
_atom_site_type_symbol
_atom_site_label
_atom_site_fract_x
_atom_site_fract_y
_atom_site_fract_z
Si Si1 0.337463 0.573647 0.801773
Si Si2 0.660058 0.429201 0.101211
Si Si3 0.000000 0.070020 0.953142
Si Si4 0.339062 0.073311 0.457923
Si Si5 0.902452 0.078936 0.374590
Si Si6 0.403103 0.082103 0.719872
O O1 0.332116 0.750000 0.800143
O O2 0.250000 0.500000 0.797837
O O3 0.365961 0.533724 0.849811
O O4 0.385503 0.516097 0.760912
O O5 0.669511 0.250000 0.098298
O O6 0.750000 0.500000 0.092969
O O7 0.584195 0.473224 0.071102
O O8 0.000000 0.250000 0.955199
O O9 0.000000 0.000000 0.000000
O O10 0.335069 0.250000 0.462902
O O11 0.379934 0.000000 0.500000
O O12 0.250000 0.000000 0.456157
O O13 0.378341 0.026270 0.413268
O O14 0.874253 0.250000 0.381933
O O15 0.873194 0.031145 0.327098
O O16 0.000000 0.083264 0.373678
O O17 0.500000 0.091367 0.716278
O O18 0.371442 0.250000 0.726937
#
# Coordination Sequence:
#
# PCOD9502684 Si02
#       6
#    16  16   8  16  16  16
#     4  10  20  34  55  80 109 145 185 228 275 329
#     4   9  20  38  59  83 117 154 193 242 294 345
#     4  10  22  40  60  86 118 154 196 242 293 352
#     4  11  22  37  57  79 104 134 173 219 268 322
#     4   9  19  37  57  77 106 141 176 217 267 320
#     4   9  19  35  54  78 109 143 178 221 270 320
#
# _framework density 19.019034999999999
#
# number of rings (size 3 to 8) (size 9 to 14) (size 15 to 20)
#    0.000    2.364    0.000    3.818    1.273    4.364 
#    0.000    3.636    0.000    0.000    0.000    0.000 
#    0.000    0.000    0.000    0.000    0.000    0.000 
#
# Total GULP energy -245194.168951 kJ/mol
# GULP energy per Si atom -5572.594749 kJ/mol
# Density = 1.897575 g / cm^3
# Si number density = 19.019035 Si / 1000 Ang^3
#
#
#
# Elastic Constant Matrix: (Units=GPa)
#
#
# Indices 1 2 3 4 5 6 
#
# 1 57.8266 35.5097 72.3476 0.0000 0.0000 0.0000
# 2 35.5097 84.7909 75.2726 0.0000 0.0000 0.0000
# 3 72.3476 75.2726 176.0944 0.0000 0.0000 0.0000
# 4 0.0000 0.0000 0.0000 23.4171 0.0000 0.0000
# 5 0.0000 0.0000 0.0000 0.0000 39.7392 0.0000
# 6 0.0000 0.0000 0.0000 0.0000 0.0000 24.2812
#
#
#
# Elastic Compliance Matrix: (Units=1/GPa)
#
#
# Indices 1 2 3 4 5 6 
#
# 1 0.036096 -0.003145 -0.013486 0.000000 0.000000 0.000000
# 2 -0.003145 0.019280 -0.006949 0.000000 0.000000 0.000000
# 3 -0.013486 -0.006949 0.014190 0.000000 0.000000 0.000000
# 4 0.000000 0.000000 0.000000 0.042704 0.000000 0.000000
# 5 0.000000 0.000000 0.000000 0.000000 0.025164 0.000000
# 6 0.000000 0.000000 0.000000 0.000000 0.000000 0.041184
#
#
# Mechanical properties :
#
#
# Convention : Reuss Voigt Hill
#
# Bulk Modulus (GPa) = 44.63023 76.10798 60.36910
# Shear Modulus (GPa) = 21.43650 26.52630 23.98140
#
# Velocity S-wave (km/s) = 3.36088 3.73865 3.55479
# Velocity P-wave (km/s) = 6.21110 7.66422 6.97560
#
# Compressibility (1/GPa) = 0.02240634
#
# Stress axis : x y z
#
# Youngs Moduli (GPa) = 27.70352 51.86731 70.47301
#
# Poissons Ratio (x) = 0.16312 0.95038
# Poissons Ratio (y) = 0.08713 0.48973
# Poissons Ratio (z) = 0.37360 0.36044
#
# Static dielectric constant tensor:
#      x y z
#    x 1.664250 0.000000 0.000000 
#    y 0.000000 1.646560 0.000000 
#    z 0.000000 0.000000 1.718760 
# 
# From -- ./inp_files/45787.got.cif
#   From: 2010.05.17/outbox.cif.g08.bks.cpg/sg67_23_cif.got.tgz:45787.got - 2010.06.03 18:28:57.
