data_PCOD9502560
_publ_section_title
;
Structure prediction by ZEFSAII (Michael W. Deem and Ramdas Pophale) SiO2 
 PCOD9502560
Probable space group: C M M A
;
_chemical_formula_sum "Si O2"
_cell_formula_units_Z 72
_cell_length_a 26.667632
_cell_length_b 9.943111
_cell_length_c 14.468937
_cell_angle_alpha 90.000000
_cell_angle_beta 90.000000
_cell_angle_gamma 90.000000
_cell_volume 3836.572123
_symmetry_space_group_name_H-M "C M M A"
_symmetry_group_IT_number 67
_symmetry_cell_setting 'orthorhombic'
loop_
_space_group_symop_operation_xyz
x,y,z
-x,1/2-y,z
x,-y,-z
-x,1/2+y,-z
-x,-y,-z
x,1/2+y,-z
-x,y,z
x,1/2-y,z
1/2+x,1/2+y,z
1/2-x,-y,z
1/2+x,1/2-y,-z
1/2-x,y,-z
1/2-x,1/2-y,-z
1/2+x,y,-z
1/2-x,1/2+y,z
1/2+x,-y,z
loop_
_atom_site_type_symbol
_atom_site_label
_atom_site_fract_x
_atom_site_fract_y
_atom_site_fract_z
Si Si1 0.185984 0.250000 0.389051
Si Si2 0.409811 0.410553 0.231391
Si Si3 0.694520 0.750000 0.592865
Si Si4 0.500000 0.592076 0.910417
Si Si5 0.809082 0.491899 0.730979
Si Si6 0.060550 0.588815 0.589642
O O1 0.245405 0.250000 0.409397
O O2 0.167968 0.250000 0.494454
O O3 0.176906 0.375068 0.324105
O O4 0.411121 0.250000 0.254049
O O5 0.451271 0.433289 0.153111
O O6 0.353537 0.453271 0.199295
O O7 0.423813 0.503067 0.319746
O O8 0.683869 0.620328 0.652681
O O9 0.500000 0.750000 0.935727
O O10 0.500000 0.500000 0.000000
O O11 0.750000 0.500000 0.759730
O O12 0.077692 0.500000 0.500000
O O13 0.075006 0.750000 0.592999
O O14 0.000000 0.589852 0.586410
#
# Coordination Sequence:
#
# PCOD9502560 Si02
#       6
#     8  16   8   8  16  16
#     4   9  18  28  48  73 109 154 220 251 292 322
#     4  11  22  40  62  87 122 162 201 249 306 366
#     4   9  16  32  46  69 109 164 206 261 284 336
#     4  10  24  46  73  96 117 146 189 248 316 380
#     4  10  20  34  52  78 114 159 204 249 299 346
#     4  10  21  36  55  83 121 166 210 252 295 349
#
# _framework density 18.766753000000001
#
# number of rings (size 3 to 8) (size 9 to 14) (size 15 to 20)
#    0.000    2.000    2.222    1.333    1.556    6.222 
#    0.000    0.000    0.000    0.667    0.000    3.111 
#    0.000    0.000    0.000    0.000    0.000    0.000 
#
# Total GULP energy -200507.961290 kJ/mol
# GULP energy per Si atom -5569.665591 kJ/mol
# Density = 1.872404 g / cm^3
# Si number density = 18.766753 Si / 1000 Ang^3
#
#
#
# Elastic Constant Matrix: (Units=GPa)
#
#
# Indices 1 2 3 4 5 6 
#
# 1 144.0057 52.4249 57.8595 0.0000 0.0000 0.0000
# 2 52.4249 164.7233 60.8358 0.0000 0.0000 0.0000
# 3 57.8595 60.8358 86.2187 0.0000 0.0000 0.0000
# 4 0.0000 0.0000 0.0000 33.1974 0.0000 0.0000
# 5 0.0000 0.0000 0.0000 0.0000 6.5145 0.0000
# 6 0.0000 0.0000 0.0000 0.0000 0.0000 34.7784
#
#
#
# Elastic Compliance Matrix: (Units=1/GPa)
#
#
# Indices 1 2 3 4 5 6 
#
# 1 0.009609 -0.000915 -0.005802 0.000000 0.000000 0.000000
# 2 -0.000915 0.008297 -0.005241 0.000000 0.000000 0.000000
# 3 -0.005802 -0.005241 0.019190 0.000000 0.000000 0.000000
# 4 0.000000 0.000000 0.000000 0.030123 0.000000 0.000000
# 5 0.000000 0.000000 0.000000 0.000000 0.153503 0.000000
# 6 0.000000 0.000000 0.000000 0.000000 0.000000 0.028754
#
#
# Mechanical properties :
#
#
# Convention : Reuss Voigt Hill
#
# Bulk Modulus (GPa) = 75.87309 81.90980 78.89144
# Shear Modulus (GPa) = 17.99951 29.81990 23.90970
#
# Velocity S-wave (km/s) = 3.10032 3.99052 3.57325
# Velocity P-wave (km/s) = 7.30296 8.06060 7.69112
#
# Compressibility (1/GPa) = 0.01317990
#
# Stress axis : x y z
#
# Youngs Moduli (GPa) = 104.07285 120.51840 52.11022
#
# Poissons Ratio (x) = 0.11028 0.30237
# Poissons Ratio (y) = 0.09523 0.27309
# Poissons Ratio (z) = 0.60388 0.63159
#
# Static dielectric constant tensor:
#      x y z
#    x 1.775640 0.000000 0.000000 
#    y 0.000000 1.489100 0.000000 
#    z 0.000000 0.000000 1.608970 
# 
# From -- ./inp_files/30563.got.cif
#   From: 2010.05.17/outbox.cif.g08.bks.cpg/sg67_16_cif.got.tgz:30563.got - 2010.06.03 18:28:57.
