data_PCOD9502128
_publ_section_title
;
Structure prediction by ZEFSAII (Michael W. Deem and Ramdas Pophale) SiO2 
 PCOD9502128
Probable space group: C M M A
;
_chemical_formula_sum "Si O2"
_cell_formula_units_Z 72
_cell_length_a 8.710035
_cell_length_b 37.548281
_cell_length_c 14.704783
_cell_angle_alpha 90.000000
_cell_angle_beta 90.000000
_cell_angle_gamma 90.000000
_cell_volume 4809.152838
_symmetry_space_group_name_H-M "C M M A"
_symmetry_group_IT_number 67
_symmetry_cell_setting 'orthorhombic'
loop_
_space_group_symop_operation_xyz
x,y,z
-x,1/2-y,z
x,-y,-z
-x,1/2+y,-z
-x,-y,-z
x,1/2+y,-z
-x,y,z
x,1/2-y,z
1/2+x,1/2+y,z
1/2-x,-y,z
1/2+x,1/2-y,-z
1/2-x,y,-z
1/2-x,1/2-y,-z
1/2+x,y,-z
1/2-x,1/2+y,z
1/2+x,-y,z
loop_
_atom_site_type_symbol
_atom_site_label
_atom_site_fract_x
_atom_site_fract_y
_atom_site_fract_z
Si Si1 0.315617 0.384902 0.897422
Si Si2 0.684483 0.208569 0.403865
Si Si3 0.315941 0.250000 0.898252
Si Si4 0.316892 0.535843 0.102339
Si Si5 0.184918 0.181972 0.791332
O O1 0.500000 0.381419 0.901750
O O2 0.278988 0.424798 0.861071
O O3 0.245107 0.354254 0.835455
O O4 0.250000 0.381609 0.000000
O O5 0.500000 0.208317 0.408890
O O6 0.733230 0.250000 0.391598
O O7 0.750000 0.195847 0.500000
O O8 0.730040 0.186894 0.314304
O O9 0.500000 0.250000 0.900342
O O10 0.254603 0.215151 0.846453
O O11 0.250000 0.250000 0.000000
O O12 0.500000 0.532546 0.097797
O O13 0.250000 0.500000 0.146925
O O14 0.250000 0.536583 0.000000
O O15 0.000000 0.183660 0.797411
#
# Coordination Sequence:
#
# PCOD9502128 Si02
#       5
#    16  16   8  16  16
#     4  10  20  32  45  66  93 125 159 192 228 269
#     4   9  18  33  51  70  90 112 144 187 233 277
#     4  12  24  36  49  64  87 122 159 194 228 266
#     4   9  16  26  42  62  87 116 152 189 224 266
#     4  11  21  35  50  67  92 120 153 192 229 271
#
# _framework density 14.971451
#
# number of rings (size 3 to 8) (size 9 to 14) (size 15 to 20)
#    0.000    2.000    1.111    4.333    0.000    4.444 
#    0.000    0.000    0.000    0.000    0.000    0.000 
#    0.000    0.889    0.000    9.778    0.000    7.111 
#
# Total GULP energy -200734.493797 kJ/mol
# GULP energy per Si atom -5575.958161 kJ/mol
# Density = 1.493738 g / cm^3
# Si number density = 14.971451 Si / 1000 Ang^3
#
#
#
# Elastic Constant Matrix: (Units=GPa)
#
#
# Indices 1 2 3 4 5 6 
#
# 1 67.7747 53.6832 38.2344 0.0000 0.0000 0.0000
# 2 53.6832 148.2894 67.3257 0.0000 0.0000 0.0000
# 3 38.2344 67.3257 107.9413 0.0000 0.0000 0.0000
# 4 0.0000 0.0000 0.0000 0.6465 0.0000 0.0000
# 5 0.0000 0.0000 0.0000 0.0000 21.9424 0.0000
# 6 0.0000 0.0000 0.0000 0.0000 0.0000 24.9667
#
#
#
# Elastic Compliance Matrix: (Units=1/GPa)
#
#
# Indices 1 2 3 4 5 6 
#
# 1 0.021807 -0.006121 -0.003907 0.000000 0.000000 0.000000
# 2 -0.006121 0.011126 -0.004771 0.000000 0.000000 0.000000
# 3 -0.003907 -0.004771 0.013624 0.000000 0.000000 0.000000
# 4 0.000000 0.000000 0.000000 1.546897 0.000000 0.000000
# 5 0.000000 0.000000 0.000000 0.000000 0.045574 0.000000
# 6 0.000000 0.000000 0.000000 0.000000 0.000000 0.040053
#
#
# Mechanical properties :
#
#
# Convention : Reuss Voigt Hill
#
# Bulk Modulus (GPa) = 58.96517 71.38800 65.17659
# Shear Modulus (GPa) = 2.91659 20.49525 11.70592
#
# Velocity S-wave (km/s) = 1.39726 3.70395 2.79925
# Velocity P-wave (km/s) = 6.48642 8.12888 7.35365
#
# Compressibility (1/GPa) = 0.01695917
#
# Stress axis : x y z
#
# Youngs Moduli (GPa) = 45.85727 89.88274 73.39966
#
# Poissons Ratio (x) = 0.55015 0.28675
# Poissons Ratio (y) = 0.28068 0.35021
# Poissons Ratio (z) = 0.17915 0.42885
#
# Static dielectric constant tensor:
#      x y z
#    x 1.502600 0.000000 0.000000 
#    y 0.000000 1.521920 0.000000 
#    z 0.000000 0.000000 1.468970 
# 
# From -- ./inp_files/25328.got.cif
#   From: 2010.05.17/outbox.cif.g08.bks.cpg/sg67_13_cif.got.tgz:25328.got - 2010.06.03 18:28:57.
