data_PCOD9502846
_publ_section_title
;
Structure prediction by ZEFSAII (Michael W. Deem and Ramdas Pophale) SiO2 
 PCOD9502846
Probable space group: C M M A
;
_chemical_formula_sum "Si O2"
_cell_formula_units_Z 68
_cell_length_a 18.843061
_cell_length_b 31.720833
_cell_length_c 6.951842
_cell_angle_alpha 90.000000
_cell_angle_beta 90.000000
_cell_angle_gamma 90.000000
_cell_volume 4155.238255
_symmetry_space_group_name_H-M "C M M A"
_symmetry_group_IT_number 67
_symmetry_cell_setting 'orthorhombic'
loop_
_space_group_symop_operation_xyz
x,y,z
-x,1/2-y,z
x,-y,-z
-x,1/2+y,-z
-x,-y,-z
x,1/2+y,-z
-x,y,z
x,1/2-y,z
1/2+x,1/2+y,z
1/2-x,-y,z
1/2+x,1/2-y,-z
1/2-x,y,-z
1/2-x,1/2-y,-z
1/2+x,y,-z
1/2-x,1/2+y,z
1/2+x,-y,z
loop_
_atom_site_type_symbol
_atom_site_label
_atom_site_fract_x
_atom_site_fract_y
_atom_site_fract_z
Si Si1 0.819116 0.081407 0.388605
Si Si2 0.250000 0.500000 0.500000
Si Si3 0.416105 0.201056 0.662211
Si Si4 0.083765 0.869529 0.344300
Si Si5 0.669124 0.144725 0.953970
O O1 0.750000 0.100484 0.500000
O O2 0.884918 0.092676 0.525342
O O3 0.798996 0.032158 0.379502
O O4 0.828516 0.104026 0.186166
O O5 0.500000 0.197657 0.709382
O O6 0.399390 0.250000 0.630089
O O7 0.404337 0.172407 0.473618
O O8 0.370586 0.180845 0.833075
O O9 0.126454 0.865577 0.147023
O O10 0.000000 0.874163 0.310669
O O11 0.750000 0.156476 0.000000
#
# Coordination Sequence:
#
# PCOD9502846 Si02
#       5
#    16   4  16  16  16
#     4   9  18  35  57  79 103 138 176 213 257 319
#     4   8  16  36  60  80 102 142 174 208 266 312
#     4   9  20  36  52  74 106 143 182 221 263 312
#     4  10  20  35  55  79 108 142 177 220 265 308
#     4  11  19  32  55  79 106 139 179 221 261 314
#
# _framework density 16.364885999999998
#
# number of rings (size 3 to 8) (size 9 to 14) (size 15 to 20)
#    0.706    1.647    2.353    0.706    0.000    2.353 
#    0.000    9.412    0.000    1.412    0.000    0.000 
#    0.000    0.000    0.000    0.000    0.000    0.000 
#
# Total GULP energy -189339.042331 kJ/mol
# GULP energy per Si atom -5568.795363 kJ/mol
# Density = 1.632764 g / cm^3
# Si number density = 16.364886 Si / 1000 Ang^3
#
#
#
# Elastic Constant Matrix: (Units=GPa)
#
#
# Indices 1 2 3 4 5 6 
#
# 1 101.8155 45.5132 70.4142 0.0000 0.0000 0.0000
# 2 45.5132 121.2522 47.6445 0.0000 0.0000 0.0000
# 3 70.4142 47.6445 117.4016 0.0000 0.0000 0.0000
# 4 0.0000 0.0000 0.0000 5.4524 0.0000 0.0000
# 5 0.0000 0.0000 0.0000 0.0000 36.7393 0.0000
# 6 0.0000 0.0000 0.0000 0.0000 0.0000 27.2891
#
#
#
# Elastic Compliance Matrix: (Units=1/GPa)
#
#
# Indices 1 2 3 4 5 6 
#
# 1 0.017616 -0.002927 -0.009377 0.000000 0.000000 0.000000
# 2 -0.002927 0.010298 -0.002424 0.000000 0.000000 0.000000
# 3 -0.009377 -0.002424 0.015126 0.000000 0.000000 0.000000
# 4 0.000000 0.000000 0.000000 0.183406 0.000000 0.000000
# 5 0.000000 0.000000 0.000000 0.000000 0.027219 0.000000
# 6 0.000000 0.000000 0.000000 0.000000 0.000000 0.036645
#
#
# Mechanical properties :
#
#
# Convention : Reuss Voigt Hill
#
# Bulk Modulus (GPa) = 73.62190 74.17926 73.90058
# Shear Modulus (GPa) = 15.41817 25.68932 20.55374
#
# Velocity S-wave (km/s) = 3.07278 3.96635 3.54781
# Velocity P-wave (km/s) = 7.59438 8.14878 7.87646
#
# Compressibility (1/GPa) = 0.01358291
#
# Stress axis : x y z
#
# Youngs Moduli (GPa) = 56.76819 97.10216 66.11350
#
# Poissons Ratio (x) = 0.28427 0.61996
# Poissons Ratio (y) = 0.16619 0.16023
# Poissons Ratio (z) = 0.53233 0.23533
#
# Static dielectric constant tensor:
#      x y z
#    x 1.557760 0.000000 0.000000 
#    y 0.000000 1.539880 0.000000 
#    z 0.000000 0.000000 1.531130 
# 
# From -- ./inp_files/3021.got.cif
#   From: 2010.05.17/outbox.cif.g08.bks.cpg/sg67_2_cif.got.tgz:3021.got - 2010.06.03 18:28:57.
