data_PCOD9502754
_publ_section_title
;
Structure prediction by ZEFSAII (Michael W. Deem and Ramdas Pophale) SiO2 
 PCOD9502754
Probable space group: C M M A
;
_chemical_formula_sum "Si O2"
_cell_formula_units_Z 112
_cell_length_a 14.903766
_cell_length_b 30.543388
_cell_length_c 11.901183
_cell_angle_alpha 90.000000
_cell_angle_beta 90.000000
_cell_angle_gamma 90.000000
_cell_volume 5417.555456
_symmetry_space_group_name_H-M "C M M A"
_symmetry_group_IT_number 67
_symmetry_cell_setting 'orthorhombic'
loop_
_space_group_symop_operation_xyz
x,y,z
-x,1/2-y,z
x,-y,-z
-x,1/2+y,-z
-x,-y,-z
x,1/2+y,-z
-x,y,z
x,1/2-y,z
1/2+x,1/2+y,z
1/2-x,-y,z
1/2+x,1/2-y,-z
1/2-x,y,-z
1/2-x,1/2-y,-z
1/2+x,y,-z
1/2-x,1/2+y,z
1/2+x,-y,z
loop_
_atom_site_type_symbol
_atom_site_label
_atom_site_fract_x
_atom_site_fract_y
_atom_site_fract_z
Si Si1 0.600577 0.558896 0.296787
Si Si2 0.787926 0.329645 0.842282
Si Si3 0.103552 0.198440 0.060926
Si Si4 0.763713 0.068961 0.870146
Si Si5 0.644195 0.113994 0.490138
Si Si6 0.399024 0.200144 0.368036
Si Si7 0.603998 0.038231 0.308160
O O1 0.500000 0.558578 0.250920
O O2 0.672038 0.566330 0.199724
O O3 0.608786 0.594844 0.393414
O O4 0.616870 0.511117 0.353370
O O5 0.681716 0.320663 0.858762
O O6 0.798864 0.381374 0.858802
O O7 0.825858 0.312331 0.725331
O O8 0.849841 0.308186 0.939080
O O9 0.099023 0.250000 0.083157
O O10 0.000000 0.181412 0.066400
O O11 0.835334 0.040508 0.802477
O O12 0.750000 0.057908 0.000000
O O13 0.750000 0.119095 0.500000
O O14 0.605331 0.161131 0.457814
O O15 0.627248 0.077174 0.394173
O O16 0.500000 0.198862 0.317990
O O17 0.384584 0.250000 0.409007
O O18 0.500000 0.043687 0.279540
#
# Coordination Sequence:
#
# PCOD9502754 Si02
#       7
#    16  16  16  16  16  16  16
#     4  11  25  44  68  99 133 174 221 277 340 401
#     4  11  20  38  58  90 129 176 226 273 330 398
#     4  10  20  34  57  88 124 172 231 290 338 389
#     4  12  25  43  64  97 136 179 222 274 334 396
#     4  12  23  42  70 101 134 172 219 278 339 397
#     4  11  23  39  65 100 136 175 219 271 332 402
#     4  11  24  43  70  99 131 174 225 280 335 398
#
# _framework density 20.673532000000002
#
# number of rings (size 3 to 8) (size 9 to 14) (size 15 to 20)
#    0.000    0.857    4.286    4.286    0.000    6.000 
#    0.000    1.429    0.000    0.000    0.000    4.000 
#    0.000    0.000    0.000    0.000    0.000    0.000 
#
# Total GULP energy -312890.977325 kJ/mol
# GULP energy per Si atom -5587.338881 kJ/mol
# Density = 2.062648 g / cm^3
# Si number density = 20.673532 Si / 1000 Ang^3
#
#
#
# Elastic Constant Matrix: (Units=GPa)
#
#
# Indices 1 2 3 4 5 6 
#
# 1 137.5302 26.4750 46.4389 0.0000 0.0000 0.0000
# 2 26.4750 103.9359 42.8659 0.0000 0.0000 0.0000
# 3 46.4389 42.8659 109.0400 0.0000 0.0000 0.0000
# 4 0.0000 0.0000 0.0000 23.5213 0.0000 0.0000
# 5 0.0000 0.0000 0.0000 0.0000 -6.3983 0.0000
# 6 0.0000 0.0000 0.0000 0.0000 0.0000 29.1331
#
#
#
# Elastic Compliance Matrix: (Units=1/GPa)
#
#
# Indices 1 2 3 4 5 6 
#
# 1 0.008549 -0.000807 -0.003324 0.000000 0.000000 0.000000
# 2 -0.000807 0.011559 -0.004201 0.000000 0.000000 0.000000
# 3 -0.003324 -0.004201 0.012238 0.000000 0.000000 0.000000
# 4 0.000000 0.000000 0.000000 0.042515 0.000000 0.000000
# 5 0.000000 0.000000 0.000000 0.000000 -0.156293 0.000000
# 6 0.000000 0.000000 0.000000 0.000000 0.000000 0.034325
#
#
# Mechanical properties :
#
#
# Convention : Reuss Voigt Hill
#
# Bulk Modulus (GPa) = 63.76042 64.67400 64.21721
# Shear Modulus (GPa) = -198.27705 24.89966 -86.68870
#
# Velocity S-wave (km/s) = -9.80392 3.47424 -6.48253
# Velocity P-wave (km/s) = 9.86140 6.88805 4.99009
#
# Compressibility (1/GPa) = 0.01568371
#
# Stress axis : x y z
#
# Youngs Moduli (GPa) = 116.97671 86.51077 81.71416
#
# Poissons Ratio (x) = 0.06980 0.27159
# Poissons Ratio (y) = 0.09438 0.34325
# Poissons Ratio (z) = 0.38879 0.36340
#
# Static dielectric constant tensor:
#      x y z
#    x 1.722270 0.000000 0.000000 
#    y 0.000000 1.769970 0.000000 
#    z 0.000000 0.000000 1.733660 
# 
# From -- ./inp_files/18660.got.cif
#   From: 2010.05.17/outbox.cif.g08.bks.cpg/sg67_10_cif.got.tgz:18660.got - 2010.06.03 18:28:57.
