data_PCOD9502517
_publ_section_title
;
Structure prediction by ZEFSAII (Michael W. Deem and Ramdas Pophale) SiO2 
 PCOD9502517
Probable space group: C M M A
;
_chemical_formula_sum "Si O2"
_cell_formula_units_Z 96
_cell_length_a 8.581784
_cell_length_b 19.051663
_cell_length_c 31.753960
_cell_angle_alpha 90.000000
_cell_angle_beta 90.000000
_cell_angle_gamma 90.000000
_cell_volume 5191.685350
_symmetry_space_group_name_H-M "C M M A"
_symmetry_group_IT_number 67
_symmetry_cell_setting 'orthorhombic'
loop_
_space_group_symop_operation_xyz
x,y,z
-x,1/2-y,z
x,-y,-z
-x,1/2+y,-z
-x,-y,-z
x,1/2+y,-z
-x,y,z
x,1/2-y,z
1/2+x,1/2+y,z
1/2-x,-y,z
1/2+x,1/2-y,-z
1/2-x,y,-z
1/2-x,1/2-y,-z
1/2+x,y,-z
1/2-x,1/2+y,z
1/2+x,-y,z
loop_
_atom_site_type_symbol
_atom_site_label
_atom_site_fract_x
_atom_site_fract_y
_atom_site_fract_z
Si Si1 0.311519 0.078927 0.703981
Si Si2 0.687852 0.168783 0.125076
Si Si3 0.312700 0.579049 0.955429
Si Si4 0.812030 0.668653 0.784434
Si Si5 0.188464 0.331446 0.377720
Si Si6 0.814223 0.577375 0.453482
O O1 0.500000 0.077144 0.704299
O O2 0.259567 0.119564 0.746171
O O3 0.263241 0.123648 0.663090
O O4 0.250000 0.000000 0.702251
O O5 0.500000 0.166496 0.126853
O O6 0.735785 0.250000 0.119841
O O7 0.738295 0.123791 0.084937
O O8 0.752791 0.144271 0.170006
O O9 0.500000 0.577786 0.956951
O O10 0.250000 0.500000 0.951296
O O11 0.250000 0.607388 0.000000
O O12 0.761482 0.750000 0.778313
O O13 0.000000 0.668605 0.784722
O O14 0.233733 0.250000 0.373631
O O15 0.257657 0.367093 0.419193
O O16 0.000000 0.334158 0.380206
O O17 0.750000 0.500000 0.442069
O O18 0.750000 0.594046 0.500000
O O19 0.000000 0.574385 0.454954
#
# Coordination Sequence:
#
# PCOD9502517 Si02
#       6
#    16  16  16  16  16  16
#     4  10  21  36  55  80 109 141 178 220 265 315
#     4   9  19  35  53  75 103 134 168 209 258 308
#     4  10  20  34  52  73 100 133 169 210 255 305
#     4   9  18  34  55  77 102 135 175 215 256 307
#     4  10  21  38  59  82 111 147 184 225 274 323
#     4  11  22  38  60  85 114 147 185 227 272 323
#
# _framework density 18.491105999999998
#
# number of rings (size 3 to 8) (size 9 to 14) (size 15 to 20)
#    0.000    2.167    0.000    4.000    0.000    7.667 
#    0.000    3.333    0.000    3.000    0.000    0.000 
#    0.000    0.000    0.000    0.000    0.000    0.000 
#
# Total GULP energy -268018.801039 kJ/mol
# GULP energy per Si atom -5583.725022 kJ/mol
# Density = 1.844902 g / cm^3
# Si number density = 18.491106 Si / 1000 Ang^3
#
#
#
# Elastic Constant Matrix: (Units=GPa)
#
#
# Indices 1 2 3 4 5 6 
#
# 1 35.0450 34.5708 40.6772 0.0000 0.0000 0.0000
# 2 34.5708 128.2679 118.1687 0.0000 0.0000 0.0000
# 3 40.6772 118.1687 171.2205 0.0000 0.0000 0.0000
# 4 0.0000 0.0000 0.0000 43.0841 0.0000 0.0000
# 5 0.0000 0.0000 0.0000 0.0000 29.7202 0.0000
# 6 0.0000 0.0000 0.0000 0.0000 0.0000 24.3803
#
#
#
# Elastic Compliance Matrix: (Units=1/GPa)
#
#
# Indices 1 2 3 4 5 6 
#
# 1 0.040854 -0.005682 -0.005784 0.000000 0.000000 0.000000
# 2 -0.005682 0.022198 -0.013970 0.000000 0.000000 0.000000
# 3 -0.005784 -0.013970 0.016856 0.000000 0.000000 0.000000
# 4 0.000000 0.000000 0.000000 0.023210 0.000000 0.000000
# 5 0.000000 0.000000 0.000000 0.000000 0.033647 0.000000
# 6 0.000000 0.000000 0.000000 0.000000 0.000000 0.041017
#
#
# Mechanical properties :
#
#
# Convention : Reuss Voigt Hill
#
# Bulk Modulus (GPa) = 34.44123 80.15187 57.29655
# Shear Modulus (GPa) = 20.97911 28.84469 24.91190
#
# Velocity S-wave (km/s) = 3.37196 3.95387 3.67445
# Velocity P-wave (km/s) = 5.81605 8.01776 7.00396
#
# Compressibility (1/GPa) = 0.02903497
#
# Stress axis : x y z
#
# Youngs Moduli (GPa) = 24.47751 45.04998 59.32641
#
# Poissons Ratio (x) = 0.25599 0.34315
# Poissons Ratio (y) = 0.13909 0.82878
# Poissons Ratio (z) = 0.14158 0.62934
#
# Static dielectric constant tensor:
#      x y z
#    x 1.631760 0.000000 0.000000 
#    y 0.000000 1.615350 0.000000 
#    z 0.000000 0.000000 1.624550 
# 
# From -- ./inp_files/43520.got.cif
#   From: 2010.05.17/outbox.cif.g08.bks.cpg/sg67_22_cif.got.tgz:43520.got - 2010.06.03 18:28:57.
