data_PCOD9502434
_publ_section_title
;
Structure prediction by ZEFSAII (Michael W. Deem and Ramdas Pophale) SiO2 
 PCOD9502434
Probable space group: C M M A
;
_chemical_formula_sum "Si O2"
_cell_formula_units_Z 96
_cell_length_a 8.731478
_cell_length_b 29.142331
_cell_length_c 21.071400
_cell_angle_alpha 90.000000
_cell_angle_beta 90.000000
_cell_angle_gamma 90.000000
_cell_volume 5361.736193
_symmetry_space_group_name_H-M "C M M A"
_symmetry_group_IT_number 67
_symmetry_cell_setting 'orthorhombic'
loop_
_space_group_symop_operation_xyz
x,y,z
-x,1/2-y,z
x,-y,-z
-x,1/2+y,-z
-x,-y,-z
x,1/2+y,-z
-x,y,z
x,1/2-y,z
1/2+x,1/2+y,z
1/2-x,-y,z
1/2+x,1/2-y,-z
1/2-x,y,-z
1/2-x,1/2-y,-z
1/2+x,y,-z
1/2-x,1/2+y,z
1/2+x,-y,z
loop_
_atom_site_type_symbol
_atom_site_label
_atom_site_fract_x
_atom_site_fract_y
_atom_site_fract_z
Si Si1 0.815924 0.889032 0.310629
Si Si2 0.315929 0.449419 0.431511
Si Si3 0.683684 0.948967 0.813229
Si Si4 0.681602 0.604700 0.066400
Si Si5 0.680158 0.697664 0.250748
Si Si6 0.317817 0.302383 0.111054
O O1 0.773478 0.914682 0.375415
O O2 0.774912 0.920979 0.250419
O O3 0.736359 0.840400 0.299554
O O4 0.000000 0.883087 0.309914
O O5 0.500000 0.452349 0.434908
O O6 0.250000 0.500000 0.417296
O O7 0.250000 0.435645 0.500000
O O8 0.500000 0.950651 0.817296
O O9 0.748473 0.922466 0.874198
O O10 0.750000 0.000000 0.810382
O O11 0.500000 0.600265 0.066486
O O12 0.729179 0.657925 0.074647
O O13 0.750000 0.587640 0.000000
O O14 0.500000 0.691411 0.236440
O O15 0.702355 0.750000 0.272979
O O16 0.773852 0.692323 0.185251
O O17 0.500000 0.308620 0.103316
O O18 0.277650 0.250000 0.092718
#
# Coordination Sequence:
#
# PCOD9502434 Si02
#       6
#    16  16  16  16  16  16
#     4  10  21  36  58  85 116 151 189 230 280 334
#     4  10  20  35  55  84 118 156 193 231 278 331
#     4  11  23  40  60  84 112 144 186 234 283 336
#     4  12  25  41  60  82 110 147 188 234 286 341
#     4  10  20  33  54  85 116 147 186 230 278 333
#     4  10  20  36  58  83 113 147 183 228 282 338
#
# _framework density 17.904647000000001
#
# number of rings (size 3 to 8) (size 9 to 14) (size 15 to 20)
#    0.000    1.500    1.667    4.500    0.000    4.667 
#    0.000    1.667    0.000    0.500    0.000    0.000 
#    0.000    0.000    0.000    0.000    0.000    0.000 
#
# Total GULP energy -268283.116352 kJ/mol
# GULP energy per Si atom -5589.231591 kJ/mol
# Density = 1.786390 g / cm^3
# Si number density = 17.904647 Si / 1000 Ang^3
#
#
#
# Elastic Constant Matrix: (Units=GPa)
#
#
# Indices 1 2 3 4 5 6 
#
# 1 70.5441 40.9108 40.2747 0.0000 0.0000 0.0000
# 2 40.9108 94.8217 55.1373 0.0000 0.0000 0.0000
# 3 40.2747 55.1373 107.2553 0.0000 0.0000 0.0000
# 4 0.0000 0.0000 0.0000 21.4006 0.0000 0.0000
# 5 0.0000 0.0000 0.0000 0.0000 23.7050 0.0000
# 6 0.0000 0.0000 0.0000 0.0000 0.0000 35.0933
#
#
#
# Elastic Compliance Matrix: (Units=1/GPa)
#
#
# Indices 1 2 3 4 5 6 
#
# 1 0.020293 -0.006168 -0.004449 0.000000 0.000000 0.000000
# 2 -0.006168 0.016918 -0.006381 0.000000 0.000000 0.000000
# 3 -0.004449 -0.006381 0.014274 0.000000 0.000000 0.000000
# 4 0.000000 0.000000 0.000000 0.046728 0.000000 0.000000
# 5 0.000000 0.000000 0.000000 0.000000 0.042185 0.000000
# 6 0.000000 0.000000 0.000000 0.000000 0.000000 0.028495
#
#
# Mechanical properties :
#
#
# Convention : Reuss Voigt Hill
#
# Bulk Modulus (GPa) = 57.17985 60.58518 58.88251
# Shear Modulus (GPa) = 23.95567 25.12633 24.54100
#
# Velocity S-wave (km/s) = 3.66178 3.75018 3.70625
# Velocity P-wave (km/s) = 7.06281 7.25693 7.16053
#
# Compressibility (1/GPa) = 0.01748868
#
# Stress axis : x y z
#
# Youngs Moduli (GPa) = 49.27880 59.10958 70.05562
#
# Poissons Ratio (x) = 0.36460 0.31168
# Poissons Ratio (y) = 0.30396 0.44701
# Poissons Ratio (z) = 0.21924 0.37717
#
# Static dielectric constant tensor:
#      x y z
#    x 1.599640 0.000000 0.000000 
#    y 0.000000 1.606850 0.000000 
#    z 0.000000 0.000000 1.596950 
# 
# From -- ./inp_files/37152.got.cif
#   From: 2010.05.17/outbox.cif.g08.bks.cpg/sg67_19_cif.got.tgz:37152.got - 2010.06.03 18:28:57.
