data_PCOD9502098
_publ_section_title
;
Structure prediction by ZEFSAII (Michael W. Deem and Ramdas Pophale) SiO2 
 PCOD9502098
Probable space group: C M M A
;
_chemical_formula_sum "Si O2"
_cell_formula_units_Z 96
_cell_length_a 17.119259
_cell_length_b 22.528280
_cell_length_c 9.415323
_cell_angle_alpha 90.000000
_cell_angle_beta 90.000000
_cell_angle_gamma 90.000000
_cell_volume 3631.183708
_symmetry_space_group_name_H-M "C M M A"
_symmetry_group_IT_number 67
_symmetry_cell_setting 'orthorhombic'
loop_
_space_group_symop_operation_xyz
x,y,z
-x,1/2-y,z
x,-y,-z
-x,1/2+y,-z
-x,-y,-z
x,1/2+y,-z
-x,y,z
x,1/2-y,z
1/2+x,1/2+y,z
1/2-x,-y,z
1/2+x,1/2-y,-z
1/2-x,y,-z
1/2-x,1/2-y,-z
1/2+x,y,-z
1/2-x,1/2+y,z
1/2+x,-y,z
loop_
_atom_site_type_symbol
_atom_site_label
_atom_site_fract_x
_atom_site_fract_y
_atom_site_fract_z
Si Si1 0.084545 0.818745 0.063040
Si Si2 0.406867 0.436092 0.555377
Si Si3 0.714992 0.599339 0.837597
Si Si4 0.910929 0.497236 0.828042
Si Si5 0.343362 0.815688 0.245226
Si Si6 0.590023 0.684509 0.543428
O O1 0.081150 0.750000 0.099621
O O2 0.112556 0.822515 0.902177
O O3 0.000000 0.846669 0.076433
O O4 0.146873 0.851865 0.154812
O O5 0.379131 0.500000 0.500000
O O6 0.500000 0.431916 0.530257
O O7 0.401969 0.444615 0.727879
O O8 0.374170 0.382337 0.456832
O O9 0.667471 0.540572 0.799377
O O10 0.779656 0.632511 0.743720
O O11 0.750000 0.592569 0.000000
O O12 0.000000 0.475577 0.791086
O O13 0.911340 0.500000 0.000000
O O14 0.304372 0.750000 0.241950
O O15 0.405427 0.813591 0.371026
O O16 0.500000 0.683962 0.594172
O O17 0.623466 0.750000 0.585566
#
# Coordination Sequence:
#
# PCOD9502098 Si02
#       6
#    16  16  16  16  16  16
#     4   9  16  26  43  67 100 144 191 236 285 344
#     4   9  19  37  62  90 120 153 192 245 304 356
#     4  10  20  31  46  73 107 154 190 236 285 355
#     4  10  22  38  57  82 114 152 196 244 297 357
#     4   9  17  29  46  74 110 147 189 239 294 344
#     4   9  17  31  56  88 115 146 196 249 293 347
#
# _framework density 26.437660999999999
#
# number of rings (size 3 to 8) (size 9 to 14) (size 15 to 20)
#    0.000    2.667    0.000    1.500    4.667    4.333 
#    0.000    0.000    0.000    4.000    0.000    9.333 
#    0.000    0.000    0.000    0.000    0.000    0.000 
#
# Total GULP energy -267671.838789 kJ/mol
# GULP energy per Si atom -5576.496641 kJ/mol
# Density = 2.637749 g / cm^3
# Si number density = 26.437661 Si / 1000 Ang^3
#
#
#
# Elastic Constant Matrix: (Units=GPa)
#
#
# Indices 1 2 3 4 5 6 
#
# 1 135.5002 45.0061 3.2349 0.0000 0.0000 0.0000
# 2 45.0061 157.5432 20.1281 0.0000 0.0000 0.0000
# 3 3.2349 20.1281 109.4576 0.0000 0.0000 0.0000
# 4 0.0000 0.0000 0.0000 20.3762 0.0000 0.0000
# 5 0.0000 0.0000 0.0000 0.0000 3.2396 0.0000
# 6 0.0000 0.0000 0.0000 0.0000 0.0000 37.3948
#
#
#
# Elastic Compliance Matrix: (Units=1/GPa)
#
#
# Indices 1 2 3 4 5 6 
#
# 1 0.008158 -0.002355 0.000192 0.000000 0.000000 0.000000
# 2 -0.002355 0.007180 -0.001251 0.000000 0.000000 0.000000
# 3 0.000192 -0.001251 0.009360 0.000000 0.000000 0.000000
# 4 0.000000 0.000000 0.000000 0.049077 0.000000 0.000000
# 5 0.000000 0.000000 0.000000 0.000000 0.308682 0.000000
# 6 0.000000 0.000000 0.000000 0.000000 0.000000 0.026742
#
#
# Mechanical properties :
#
#
# Convention : Reuss Voigt Hill
#
# Bulk Modulus (GPa) = 55.95814 59.91547 57.93680
# Shear Modulus (GPa) = 11.84883 34.47757 23.16320
#
# Velocity S-wave (km/s) = 2.11932 3.61516 2.96318
# Velocity P-wave (km/s) = 5.21543 6.33545 5.80253
#
# Compressibility (1/GPa) = 0.01787050
#
# Stress axis : x y z
#
# Youngs Moduli (GPa) = 122.58388 139.27548 106.83442
#
# Poissons Ratio (x) = 0.32799 -0.02051
# Poissons Ratio (y) = 0.28868 0.13362
# Poissons Ratio (z) = -0.02353 0.17420
#
# Static dielectric constant tensor:
#      x y z
#    x 2.014920 0.000000 0.000000 
#    y 0.000000 2.286990 0.000000 
#    z 0.000000 0.000000 2.101160 
# 
# From -- ./inp_files/19651.got.cif
#   From: 2010.05.17/outbox.cif.g08.bks.cpg/sg67_10_cif.got.tgz:19651.got - 2010.06.03 18:28:57.
