data_PCOD9502756
_publ_section_title
;
Structure prediction by ZEFSAII (Michael W. Deem and Ramdas Pophale) SiO2 
 PCOD9502756
Probable space group: C M M A
;
_chemical_formula_sum "Si O2"
_cell_formula_units_Z 96
_cell_length_a 14.736022
_cell_length_b 15.481341
_cell_length_c 20.162520
_cell_angle_alpha 90.000000
_cell_angle_beta 90.000000
_cell_angle_gamma 90.000000
_cell_volume 4599.743868
_symmetry_space_group_name_H-M "C M M A"
_symmetry_group_IT_number 67
_symmetry_cell_setting 'orthorhombic'
loop_
_space_group_symop_operation_xyz
x,y,z
-x,1/2-y,z
x,-y,-z
-x,1/2+y,-z
-x,-y,-z
x,1/2+y,-z
-x,y,z
x,1/2-y,z
1/2+x,1/2+y,z
1/2-x,-y,z
1/2+x,1/2-y,-z
1/2-x,y,-z
1/2-x,1/2-y,-z
1/2+x,y,-z
1/2-x,1/2+y,z
1/2+x,-y,z
loop_
_atom_site_type_symbol
_atom_site_label
_atom_site_fract_x
_atom_site_fract_y
_atom_site_fract_z
Si Si1 0.108103 0.657923 0.603799
Si Si2 0.153491 0.975535 0.331906
Si Si3 0.395790 0.594740 0.533042
Si Si4 0.899593 0.648092 0.217451
Si Si5 0.603407 0.900782 0.020555
Si Si6 0.731000 0.150045 0.100075
O O1 0.140337 0.750000 0.632907
O O2 0.119032 0.569831 0.645082
O O3 0.142985 0.648908 0.528076
O O4 0.000000 0.663056 0.595205
O O5 0.159611 0.918715 0.399602
O O6 0.102640 0.916122 0.279597
O O7 0.250000 0.000000 0.302804
O O8 0.401804 0.500000 0.500000
O O9 0.500000 0.620800 0.550457
O O10 0.886576 0.750000 0.235670
O O11 0.822513 0.621811 0.165367
O O12 0.000000 0.642500 0.185914
O O13 0.500000 0.868352 0.031374
O O14 0.674918 0.895863 0.081146
O O15 0.658696 0.856382 0.960427
O O16 0.596641 0.000000 0.000000
O O17 0.754830 0.250000 0.108377
#
# Coordination Sequence:
#
# PCOD9502756 Si02
#       6
#    16  16  16  16  16  16
#     4   9  18  34  57  83 110 142 184 237 295 355
#     4  11  22  34  53  80 113 151 189 236 295 361
#     4   8  15  30  50  73 102 137 180 225 274 338
#     4  10  22  40  60  81 109 152 206 256 298 346
#     4  10  20  34  57  89 123 156 189 230 283 343
#     4  10  20  35  58  87 119 152 191 240 287 337
#
# _framework density 20.870726000000001
#
# number of rings (size 3 to 8) (size 9 to 14) (size 15 to 20)
#    0.000    2.333    0.000    5.000    0.000    7.667 
#    0.000    2.500    0.000    2.000    0.000    0.000 
#    0.000    0.000    0.000    0.000    0.000    0.000 
#
# Total GULP energy -267372.296273 kJ/mol
# GULP energy per Si atom -5570.256172 kJ/mol
# Density = 2.082322 g / cm^3
# Si number density = 20.870726 Si / 1000 Ang^3
#
#
#
# Elastic Constant Matrix: (Units=GPa)
#
#
# Indices 1 2 3 4 5 6 
#
# 1 124.9279 31.8187 40.8814 0.0000 0.0000 0.0000
# 2 31.8187 95.3527 44.6900 0.0000 0.0000 0.0000
# 3 40.8814 44.6900 84.1410 0.0000 0.0000 0.0000
# 4 0.0000 0.0000 0.0000 21.9729 0.0000 0.0000
# 5 0.0000 0.0000 0.0000 0.0000 3.9894 0.0000
# 6 0.0000 0.0000 0.0000 0.0000 0.0000 30.0761
#
#
#
# Elastic Compliance Matrix: (Units=1/GPa)
#
#
# Indices 1 2 3 4 5 6 
#
# 1 0.009649 -0.001361 -0.003965 0.000000 0.000000 0.000000
# 2 -0.001361 0.014155 -0.006857 0.000000 0.000000 0.000000
# 3 -0.003965 -0.006857 0.017453 0.000000 0.000000 0.000000
# 4 0.000000 0.000000 0.000000 0.045511 0.000000 0.000000
# 5 0.000000 0.000000 0.000000 0.000000 0.250665 0.000000
# 6 0.000000 0.000000 0.000000 0.000000 0.000000 0.033249
#
#
# Mechanical properties :
#
#
# Convention : Reuss Voigt Hill
#
# Bulk Modulus (GPa) = 59.20384 59.91131 59.55758
# Shear Modulus (GPa) = 12.47882 23.67645 18.07763
#
# Velocity S-wave (km/s) = 2.44787 3.37179 2.94627
# Velocity P-wave (km/s) = 6.03473 6.62773 6.33817
#
# Compressibility (1/GPa) = 0.01689080
#
# Stress axis : x y z
#
# Youngs Moduli (GPa) = 103.63906 70.64444 57.29622
#
# Poissons Ratio (x) = 0.09618 0.22718
# Poissons Ratio (y) = 0.14110 0.39287
# Poissons Ratio (z) = 0.41092 0.48440
#
# Static dielectric constant tensor:
#      x y z
#    x 1.825130 0.000000 0.000000 
#    y 0.000000 1.794170 0.000000 
#    z 0.000000 0.000000 1.752400 
# 
# From -- ./inp_files/38448.got.cif
#   From: 2010.05.17/outbox.cif.g08.bks.cpg/sg67_20_cif.got.tgz:38448.got - 2010.06.03 18:28:57.
