data_PCOD9502442
_publ_section_title
;
Structure prediction by ZEFSAII (Michael W. Deem and Ramdas Pophale) SiO2 
 PCOD9502442
Probable space group: C M M A
;
_chemical_formula_sum "Si O2"
_cell_formula_units_Z 112
_cell_length_a 19.263372
_cell_length_b 27.508033
_cell_length_c 11.958928
_cell_angle_alpha 90.000000
_cell_angle_beta 90.000000
_cell_angle_gamma 90.000000
_cell_volume 6337.005723
_symmetry_space_group_name_H-M "C M M A"
_symmetry_group_IT_number 67
_symmetry_cell_setting 'orthorhombic'
loop_
_space_group_symop_operation_xyz
x,y,z
-x,1/2-y,z
x,-y,-z
-x,1/2+y,-z
-x,-y,-z
x,1/2+y,-z
-x,y,z
x,1/2-y,z
1/2+x,1/2+y,z
1/2-x,-y,z
1/2+x,1/2-y,-z
1/2-x,y,-z
1/2-x,1/2-y,-z
1/2+x,y,-z
1/2-x,1/2+y,z
1/2+x,-y,z
loop_
_atom_site_type_symbol
_atom_site_label
_atom_site_fract_x
_atom_site_fract_y
_atom_site_fract_z
Si Si1 0.919385 0.558532 0.998307
Si Si2 0.420510 0.193664 0.545598
Si Si3 0.808750 0.303951 0.267049
Si Si4 0.179720 0.911017 0.802346
Si Si5 0.831641 0.485894 0.376399
Si Si6 0.301930 0.144562 0.406863
Si Si7 0.831861 0.567926 0.211888
O O1 0.879486 0.576371 0.889010
O O2 0.000000 0.571940 0.996862
O O3 0.913841 0.500000 0.000000
O O4 0.881308 0.578672 0.108712
O O5 0.500000 0.176890 0.552330
O O6 0.420618 0.250000 0.508327
O O7 0.380506 0.193404 0.663796
O O8 0.371316 0.163211 0.464494
O O9 0.802775 0.250000 0.216530
O O10 0.807667 0.353138 0.195579
O O11 0.745441 0.312479 0.354655
O O12 0.161733 0.932134 0.677657
O O13 0.252607 0.937377 0.832175
O O14 0.859274 0.500000 0.500000
O O15 0.750000 0.500000 0.381282
O O16 0.859447 0.521094 0.278848
O O17 0.250000 0.121417 0.500000
O O18 0.322382 0.108409 0.307886
#
# Coordination Sequence:
#
# PCOD9502442 Si02
#       7
#    16  16  16  16  16  16  16
#     4  11  23  39  56  76 108 144 182 225 272 321
#     4   9  17  29  47  72 105 146 186 220 260 321
#     4   9  18  32  52  79 108 137 179 233 277 314
#     4  10  20  35  58  82 105 143 186 227 270 321
#     4   9  18  28  50  81 112 139 169 220 268 321
#     4   9  18  30  52  79 110 141 176 218 274 324
#     4  10  20  33  56  81 108 138 182 220 262 328
#
# _framework density 17.673963000000001
#
# number of rings (size 3 to 8) (size 9 to 14) (size 15 to 20)
#    0.000    2.429    1.429    0.857    8.000    3.429 
#    0.000    0.000    0.000    8.571    0.000    0.000 
#    0.000    0.000    0.000    0.000    0.000    0.000 
#
# Total GULP energy -311894.666231 kJ/mol
# GULP energy per Si atom -5569.547611 kJ/mol
# Density = 1.763374 g / cm^3
# Si number density = 17.673963 Si / 1000 Ang^3
#
#
#
# Elastic Constant Matrix: (Units=GPa)
#
#
# Indices 1 2 3 4 5 6 
#
# 1 98.0301 18.5162 33.6580 0.0000 0.0000 0.0000
# 2 18.5162 82.1738 28.3430 0.0000 0.0000 0.0000
# 3 33.6580 28.3430 84.2111 0.0000 0.0000 0.0000
# 4 0.0000 0.0000 0.0000 14.3776 0.0000 0.0000
# 5 0.0000 0.0000 0.0000 0.0000 9.4233 0.0000
# 6 0.0000 0.0000 0.0000 0.0000 0.0000 16.3411
#
#
#
# Elastic Compliance Matrix: (Units=1/GPa)
#
#
# Indices 1 2 3 4 5 6 
#
# 1 0.011924 -0.001180 -0.004369 0.000000 0.000000 0.000000
# 2 -0.001180 0.013884 -0.004201 0.000000 0.000000 0.000000
# 3 -0.004369 -0.004201 0.015035 0.000000 0.000000 0.000000
# 4 0.000000 0.000000 0.000000 0.069553 0.000000 0.000000
# 5 0.000000 0.000000 0.000000 0.000000 0.106120 0.000000
# 6 0.000000 0.000000 0.000000 0.000000 0.000000 0.061196
#
#
# Mechanical properties :
#
#
# Convention : Reuss Voigt Hill
#
# Bulk Modulus (GPa) = 46.85353 47.27217 47.06285
# Shear Modulus (GPa) = 16.42977 20.28824 18.35900
#
# Velocity S-wave (km/s) = 3.05225 3.39177 3.22648
# Velocity P-wave (km/s) = 6.24412 6.49181 6.36917
#
# Compressibility (1/GPa) = 0.02134311
#
# Stress axis : x y z
#
# Youngs Moduli (GPa) = 83.86617 72.02346 66.51107
#
# Poissons Ratio (x) = 0.08499 0.29056
# Poissons Ratio (y) = 0.09896 0.27944
# Poissons Ratio (z) = 0.36638 0.30260
#
# Static dielectric constant tensor:
#      x y z
#    x 1.588830 0.000000 0.000000 
#    y 0.000000 1.666320 0.000000 
#    z 0.000000 0.000000 1.620730 
# 
# From -- ./inp_files/21233.got.cif
#   From: 2010.05.17/outbox.cif.g08.bks.cpg/sg67_11_cif.got.tgz:21233.got - 2010.06.03 18:28:57.
