data_PCOD9502237
_publ_section_title
;
Structure prediction by ZEFSAII (Michael W. Deem and Ramdas Pophale) SiO2 
 PCOD9502237
Probable space group: C M M A
;
_chemical_formula_sum "Si O2"
_cell_formula_units_Z 112
_cell_length_a 27.693568
_cell_length_b 15.610033
_cell_length_c 13.808363
_cell_angle_alpha 90.000000
_cell_angle_beta 90.000000
_cell_angle_gamma 90.000000
_cell_volume 5969.320947
_symmetry_space_group_name_H-M "C M M A"
_symmetry_group_IT_number 67
_symmetry_cell_setting 'orthorhombic'
loop_
_space_group_symop_operation_xyz
x,y,z
-x,1/2-y,z
x,-y,-z
-x,1/2+y,-z
-x,-y,-z
x,1/2+y,-z
-x,y,z
x,1/2-y,z
1/2+x,1/2+y,z
1/2-x,-y,z
1/2+x,1/2-y,-z
1/2-x,y,-z
1/2-x,1/2-y,-z
1/2+x,y,-z
1/2-x,1/2+y,z
1/2+x,-y,z
loop_
_atom_site_type_symbol
_atom_site_label
_atom_site_fract_x
_atom_site_fract_y
_atom_site_fract_z
Si Si1 0.375992 0.151305 0.182122
Si Si2 0.772988 0.353925 0.900482
Si Si3 0.639890 0.607231 0.396736
Si Si4 0.556956 0.652355 0.252241
Si Si5 0.338756 0.093977 0.387676
Si Si6 0.258133 0.850107 0.309218
Si Si7 0.557835 0.503184 0.888196
O O1 0.388543 0.250000 0.162733
O O2 0.329294 0.126927 0.117021
O O3 0.359507 0.140959 0.293457
O O4 0.417970 0.084958 0.160748
O O5 0.769324 0.250000 0.902819
O O6 0.746466 0.381802 0.801650
O O7 0.750000 0.386782 0.000000
O O8 0.591704 0.638078 0.343721
O O9 0.644457 0.504490 0.386333
O O10 0.643894 0.630368 0.509808
O O11 0.687578 0.642758 0.344950
O O12 0.500000 0.640635 0.275766
O O13 0.563083 0.750000 0.217259
O O14 0.570595 0.582757 0.170921
O O15 0.280740 0.100546 0.375327
O O16 0.243492 0.750000 0.311501
O O17 0.500000 0.510814 0.885783
O O18 0.573117 0.500000 0.000000
#
# Coordination Sequence:
#
# PCOD9502237 Si02
#       7
#    16  16  16  16  16  16  16
#     4  10  20  37  61  86 120 159 194 241 295 350
#     4   8  16  32  52  79 116 155 193 235 284 340
#     4  11  21  36  60  84 114 161 205 246 296 359
#     4  10  22  41  63  88 119 153 196 252 303 348
#     4  10  21  37  55  85 120 159 196 244 299 351
#     4  10  20  32  52  83 120 158 198 245 292 349
#     4  10  22  41  63  88 119 152 193 244 295 351
#
# _framework density 18.762602000000001
#
# number of rings (size 3 to 8) (size 9 to 14) (size 15 to 20)
#    0.000    2.143    1.429    2.571    0.000    6.000 
#    0.000    5.000    0.000    0.000    0.000    0.000 
#    0.000    0.571    0.000    0.000    0.000    0.000 
#
# Total GULP energy -312576.334185 kJ/mol
# GULP energy per Si atom -5581.720253 kJ/mol
# Density = 1.871990 g / cm^3
# Si number density = 18.762602 Si / 1000 Ang^3
#
#
#
# Elastic Constant Matrix: (Units=GPa)
#
#
# Indices 1 2 3 4 5 6 
#
# 1 55.9142 37.4788 54.0457 0.0000 0.0000 0.0000
# 2 37.4788 84.4276 37.3744 0.0000 0.0000 0.0000
# 3 54.0457 37.3744 123.8363 0.0000 0.0000 0.0000
# 4 0.0000 0.0000 0.0000 14.5471 0.0000 0.0000
# 5 0.0000 0.0000 0.0000 0.0000 27.9230 0.0000
# 6 0.0000 0.0000 0.0000 0.0000 0.0000 25.5632
#
#
#
# Elastic Compliance Matrix: (Units=1/GPa)
#
#
# Indices 1 2 3 4 5 6 
#
# 1 0.038166 -0.011044 -0.013323 0.000000 0.000000 0.000000
# 2 -0.011044 0.016867 -0.000270 0.000000 0.000000 0.000000
# 3 -0.013323 -0.000270 0.013971 0.000000 0.000000 0.000000
# 4 0.000000 0.000000 0.000000 0.068742 0.000000 0.000000
# 5 0.000000 0.000000 0.000000 0.000000 0.035813 0.000000
# 6 0.000000 0.000000 0.000000 0.000000 0.000000 0.039119
#
#
# Mechanical properties :
#
#
# Convention : Reuss Voigt Hill
#
# Bulk Modulus (GPa) = 50.68998 57.99732 54.34365
# Shear Modulus (GPa) = 18.61990 22.62527 20.62258
#
# Velocity S-wave (km/s) = 3.15365 3.47633 3.31891
# Velocity P-wave (km/s) = 6.35105 6.86232 6.61163
#
# Compressibility (1/GPa) = 0.01972776
#
# Stress axis : x y z
#
# Youngs Moduli (GPa) = 26.20162 59.28749 71.57441
#
# Poissons Ratio (x) = 0.65479 0.95361
# Poissons Ratio (y) = 0.28938 0.01936
# Poissons Ratio (z) = 0.34909 0.01604
#
# Static dielectric constant tensor:
#      x y z
#    x 1.624880 0.000000 0.000000 
#    y 0.000000 1.671700 0.000000 
#    z 0.000000 0.000000 1.651440 
# 
# From -- ./inp_files/30196.got.cif
#   From: 2010.05.17/outbox.cif.g08.bks.cpg/sg67_16_cif.got.tgz:30196.got - 2010.06.03 18:28:57.
