data_PCOD9502334
_publ_section_title
;
Structure prediction by ZEFSAII (Michael W. Deem and Ramdas Pophale) SiO2 
 PCOD9502334
Probable space group: C M M A
;
_chemical_formula_sum "Si O2"
_cell_formula_units_Z 104
_cell_length_a 21.982785
_cell_length_b 8.967027
_cell_length_c 28.544506
_cell_angle_alpha 90.000000
_cell_angle_beta 90.000000
_cell_angle_gamma 90.000000
_cell_volume 5626.699492
_symmetry_space_group_name_H-M "C M M A"
_symmetry_group_IT_number 67
_symmetry_cell_setting 'orthorhombic'
loop_
_space_group_symop_operation_xyz
x,y,z
-x,1/2-y,z
x,-y,-z
-x,1/2+y,-z
-x,-y,-z
x,1/2+y,-z
-x,y,z
x,1/2-y,z
1/2+x,1/2+y,z
1/2-x,-y,z
1/2+x,1/2-y,-z
1/2-x,y,-z
1/2-x,1/2-y,-z
1/2+x,y,-z
1/2-x,1/2+y,z
1/2+x,-y,z
loop_
_atom_site_type_symbol
_atom_site_label
_atom_site_fract_x
_atom_site_fract_y
_atom_site_fract_z
Si Si1 0.814769 0.576150 0.544822
Si Si2 0.591823 0.075377 0.619297
Si Si3 0.068712 0.931491 0.726799
Si Si4 0.813679 0.427689 0.215517
Si Si5 0.185135 0.571856 0.896274
Si Si6 0.500000 0.575578 0.550260
Si Si7 0.930809 0.429433 0.948170
O O1 0.847998 0.500000 0.500000
O O2 0.811662 0.750000 0.533499
O O3 0.750000 0.500000 0.546790
O O4 0.842092 0.564354 0.596726
O O5 0.573100 0.250000 0.616050
O O6 0.582035 0.029169 0.672647
O O7 0.554916 0.978094 0.582690
O O8 0.068168 0.750000 0.729346
O O9 0.125171 0.982748 0.758595
O O10 0.000000 0.981504 0.739478
O O11 0.809386 0.250000 0.223167
O O12 0.750000 0.500000 0.231355
O O13 0.819379 0.452692 0.159757
O O14 0.186025 0.750000 0.905119
O O15 0.250000 0.500000 0.911625
O O16 0.125626 0.498508 0.919652
O O17 0.500000 0.750000 0.543303
O O18 0.500000 0.500000 0.500000
O O19 0.924610 0.250000 0.950416
O O20 0.000000 0.461789 0.929893
O O21 0.928090 0.500000 0.000000
#
# Coordination Sequence:
#
# PCOD9502334 Si02
#       7
#    16  16  16  16  16   8  16
#     4  10  20  33  51  73  99 130 166 204 251 303
#     4  10  20  36  56  77 102 136 173 212 259 313
#     4   9  17  33  58  81 106 141 182 224 267 324
#     4   9  19  35  57  84 111 147 189 233 285 335
#     4  10  20  35  56  83 116 151 196 246 292 345
#     4  12  24  36  54  78 104 134 170 212 261 314
#     4  10  21  37  57  83 117 156 197 241 295 351
#
# _framework density 18.483305000000001
#
# number of rings (size 3 to 8) (size 9 to 14) (size 15 to 20)
#    0.000    2.154    0.769    3.000    0.000    5.538 
#    0.000    3.846    0.000    0.000    0.000    0.000 
#    0.000    0.000    0.000    0.000    0.000    0.000 
#
# Total GULP energy -289749.133223 kJ/mol
# GULP energy per Si atom -5572.098716 kJ/mol
# Density = 1.844124 g / cm^3
# Si number density = 18.483305 Si / 1000 Ang^3
#
#
#
# Elastic Constant Matrix: (Units=GPa)
#
#
# Indices 1 2 3 4 5 6 
#
# 1 177.2406 58.7993 76.7548 0.0000 0.0000 0.0000
# 2 58.7993 76.7554 42.7702 0.0000 0.0000 0.0000
# 3 76.7548 42.7702 66.5928 0.0000 0.0000 0.0000
# 4 0.0000 0.0000 0.0000 10.5116 0.0000 0.0000
# 5 0.0000 0.0000 0.0000 0.0000 30.7935 0.0000
# 6 0.0000 0.0000 0.0000 0.0000 0.0000 26.1711
#
#
#
# Elastic Compliance Matrix: (Units=1/GPa)
#
#
# Indices 1 2 3 4 5 6 
#
# 1 0.011502 -0.002218 -0.011833 0.000000 0.000000 0.000000
# 2 -0.002218 0.020717 -0.010750 0.000000 0.000000 0.000000
# 3 -0.011833 -0.010750 0.035560 0.000000 0.000000 0.000000
# 4 0.000000 0.000000 0.000000 0.095133 0.000000 0.000000
# 5 0.000000 0.000000 0.000000 0.000000 0.032474 0.000000
# 6 0.000000 0.000000 0.000000 0.000000 0.000000 0.038210
#
#
# Mechanical properties :
#
#
# Convention : Reuss Voigt Hill
#
# Bulk Modulus (GPa) = 55.01186 75.24861 65.13023
# Shear Modulus (GPa) = 17.28567 22.97954 20.13260
#
# Velocity S-wave (km/s) = 3.06143 3.52981 3.30393
# Velocity P-wave (km/s) = 6.50570 7.57712 7.06176
#
# Compressibility (1/GPa) = 0.01817790
#
# Stress axis : x y z
#
# Youngs Moduli (GPa) = 86.94099 48.26842 28.12175
#
# Poissons Ratio (x) = 0.10704 0.33276
# Poissons Ratio (y) = 0.19280 0.30231
# Poissons Ratio (z) = 1.02877 0.51889
#
# Static dielectric constant tensor:
#      x y z
#    x 1.747860 0.000000 0.000000 
#    y 0.000000 1.634000 0.000000 
#    z 0.000000 0.000000 1.624320 
# 
# From -- ./inp_files/45895.got.cif
#   From: 2010.05.17/outbox.cif.g08.bks.cpg/sg67_23_cif.got.tgz:45895.got - 2010.06.03 18:28:57.
