data_PCOD9502065
_publ_section_title
;
Structure prediction by ZEFSAII (Michael W. Deem and Ramdas Pophale) SiO2 
 PCOD9502065
Probable space group: C M M A
;
_chemical_formula_sum "Si O2"
_cell_formula_units_Z 68
_cell_length_a 21.363570
_cell_length_b 9.325026
_cell_length_c 17.150551
_cell_angle_alpha 90.000000
_cell_angle_beta 90.000000
_cell_angle_gamma 90.000000
_cell_volume 3416.661522
_symmetry_space_group_name_H-M "C M M A"
_symmetry_group_IT_number 67
_symmetry_cell_setting 'orthorhombic'
loop_
_space_group_symop_operation_xyz
x,y,z
-x,1/2-y,z
x,-y,-z
-x,1/2+y,-z
-x,-y,-z
x,1/2+y,-z
-x,y,z
x,1/2-y,z
1/2+x,1/2+y,z
1/2-x,-y,z
1/2+x,1/2-y,-z
1/2-x,y,-z
1/2-x,1/2-y,-z
1/2+x,y,-z
1/2-x,1/2+y,z
1/2+x,-y,z
loop_
_atom_site_type_symbol
_atom_site_label
_atom_site_fract_x
_atom_site_fract_y
_atom_site_fract_z
Si Si1 0.000000 0.250000 0.590180
Si Si2 0.687782 0.422775 0.083545
Si Si3 0.104624 0.975881 0.361721
Si Si4 0.340674 0.250000 0.565466
Si Si5 0.202919 0.250000 0.614130
Si Si6 0.930096 0.079172 0.805165
O O1 0.054673 0.373661 0.597413
O O2 0.696953 0.250000 0.075527
O O3 0.750000 0.500000 0.117108
O O4 0.626315 0.446132 0.135754
O O5 0.678583 0.500000 0.000000
O O6 0.119371 0.112146 0.413297
O O7 0.169521 0.888672 0.350552
O O8 0.079431 0.005858 0.275044
O O9 0.277246 0.250000 0.616958
O O10 0.317325 0.250000 0.476911
O O11 0.928662 0.250000 0.783268
O O12 0.000000 0.051775 0.836884
#
# Coordination Sequence:
#
# PCOD9502065 Si02
#       6
#     4  16  16   8   8  16
#     4  10  20  40  66  74 124 168 198 240 312 372
#     4  10  21  38  62  90 125 160 198 249 302 362
#     4  11  20  40  63  85 121 164 205 253 309 370
#     4  11  24  37  61  95 122 150 210 265 313 361
#     4  10  22  42  61  85 124 164 193 256 324 386
#     4  10  19  39  65  84 118 168 207 243 302 371
#
# _framework density 19.902469
#
# number of rings (size 3 to 8) (size 9 to 14) (size 15 to 20)
#    0.000    1.647    3.529    2.824    0.000    4.706 
#    4.235    9.412    0.000    0.000    0.000    0.000 
#    0.000    0.000    0.000    0.000    0.000    0.000 
#
# Total GULP energy -189338.672496 kJ/mol
# GULP energy per Si atom -5568.784485 kJ/mol
# Density = 1.985717 g / cm^3
# Si number density = 19.902469 Si / 1000 Ang^3
#
#
#
# Elastic Constant Matrix: (Units=GPa)
#
#
# Indices 1 2 3 4 5 6 
#
# 1 171.0849 59.3720 47.8694 0.0000 0.0000 0.0000
# 2 59.3720 115.0224 24.5557 0.0000 0.0000 0.0000
# 3 47.8694 24.5557 49.6001 0.0000 0.0000 0.0000
# 4 0.0000 0.0000 0.0000 -175.1577 0.0000 0.0000
# 5 0.0000 0.0000 0.0000 0.0000 -22.1127 0.0000
# 6 0.0000 0.0000 0.0000 0.0000 0.0000 13.5250
#
#
#
# Elastic Compliance Matrix: (Units=1/GPa)
#
#
# Indices 1 2 3 4 5 6 
#
# 1 0.008888 -0.003082 -0.007052 0.000000 0.000000 0.000000
# 2 -0.003082 0.010790 -0.002367 0.000000 0.000000 0.000000
# 3 -0.007052 -0.002367 0.028139 0.000000 0.000000 0.000000
# 4 0.000000 0.000000 0.000000 -0.005709 0.000000 0.000000
# 5 0.000000 0.000000 0.000000 0.000000 -0.045223 0.000000
# 6 0.000000 0.000000 0.000000 0.000000 0.000000 0.073937
#
#
# Mechanical properties :
#
#
# Convention : Reuss Voigt Hill
#
# Bulk Modulus (GPa) = 43.83188 66.58907 55.21048
# Shear Modulus (GPa) = 48.34207 -23.15506 12.59351
#
# Velocity S-wave (km/s) = 4.93378 -3.41460 2.51820
# Velocity P-wave (km/s) = 7.38427 4.24079 6.02128
#
# Compressibility (1/GPa) = 0.02281444
#
# Stress axis : x y z
#
# Youngs Moduli (GPa) = 112.51461 92.67567 35.53801
#
# Poissons Ratio (x) = 0.28565 0.25060
# Poissons Ratio (y) = 0.34679 0.08413
# Poissons Ratio (z) = 0.79342 0.21940
#
# Static dielectric constant tensor:
#      x y z
#    x 1.710420 0.000000 0.000000 
#    y 0.000000 1.694030 0.000000 
#    z 0.000000 0.000000 1.724590 
# 
# From -- ./inp_files/34719.got.cif
#   From: 2010.05.17/outbox.cif.g08.bks.cpg/sg67_18_cif.got.tgz:34719.got - 2010.06.03 18:28:57.
