data_PCOD9502089
_publ_section_title
;
Structure prediction by ZEFSAII (Michael W. Deem and Ramdas Pophale) SiO2 
 PCOD9502089
Probable space group: C M M A
;
_chemical_formula_sum "Si O2"
_cell_formula_units_Z 104
_cell_length_a 9.158249
_cell_length_b 27.205549
_cell_length_c 24.407805
_cell_angle_alpha 90.000000
_cell_angle_beta 90.000000
_cell_angle_gamma 90.000000
_cell_volume 6081.331339
_symmetry_space_group_name_H-M "C M M A"
_symmetry_group_IT_number 67
_symmetry_cell_setting 'orthorhombic'
loop_
_space_group_symop_operation_xyz
x,y,z
-x,1/2-y,z
x,-y,-z
-x,1/2+y,-z
-x,-y,-z
x,1/2+y,-z
-x,y,z
x,1/2-y,z
1/2+x,1/2+y,z
1/2-x,-y,z
1/2+x,1/2-y,-z
1/2-x,y,-z
1/2-x,1/2-y,-z
1/2+x,y,-z
1/2-x,1/2+y,z
1/2+x,-y,z
loop_
_atom_site_type_symbol
_atom_site_label
_atom_site_fract_x
_atom_site_fract_y
_atom_site_fract_z
Si Si1 0.167631 0.310022 0.944654
Si Si2 0.823193 0.750000 0.559409
Si Si3 0.173823 0.653360 0.390424
Si Si4 0.170568 0.147939 0.740808
Si Si5 0.330381 0.550553 0.398190
Si Si6 0.836898 0.191901 0.162577
Si Si7 0.832552 0.951464 0.735165
O O1 0.168007 0.250000 0.944082
O O2 0.247355 0.327553 0.889491
O O3 0.000000 0.325731 0.945448
O O4 0.250000 0.325016 0.000000
O O5 0.750000 0.750000 0.500000
O O6 0.761461 0.799702 0.587300
O O7 0.000000 0.750000 0.558225
O O8 0.187083 0.655860 0.324282
O O9 0.243494 0.601319 0.410444
O O10 0.000000 0.655364 0.403866
O O11 0.255205 0.184536 0.780221
O O12 0.241160 0.095364 0.752934
O O13 0.000000 0.149171 0.753273
O O14 0.500000 0.552369 0.416655
O O15 0.250000 0.500000 0.416638
O O16 0.333236 0.548261 0.331605
O O17 0.848900 0.250000 0.153438
O O18 0.000000 0.170917 0.165122
O O19 0.000000 0.949481 0.752937
O O20 0.750000 0.000000 0.753536
#
# Coordination Sequence:
#
# PCOD9502089 Si02
#       7
#    16   8  16  16  16  16  16
#     4   9  16  27  43  61  83 116 159 204 247 292
#     4  12  26  44  64  82 104 136 177 220 259 302
#     4  10  21  37  56  80 107 138 175 215 259 309
#     4  10  20  32  48  71 101 133 165 202 247 297
#     4   9  16  28  49  78 108 138 170 208 254 305
#     4  10  20  31  43  63  93 129 166 205 247 293
#     4   9  16  27  44  66  95 128 163 199 240 291
#
# _framework density 17.101517999999999
#
# number of rings (size 3 to 8) (size 9 to 14) (size 15 to 20)
#    0.000    2.308    0.000    3.462    1.077    8.308 
#    0.000    0.000    0.000    0.462    0.000    3.231 
#    0.000    0.615    0.000    6.154    0.000    4.308 
#
# Total GULP energy -289839.030006 kJ/mol
# GULP energy per Si atom -5573.827500 kJ/mol
# Density = 1.706259 g / cm^3
# Si number density = 17.101518 Si / 1000 Ang^3
#
#
#
# Elastic Constant Matrix: (Units=GPa)
#
#
# Indices 1 2 3 4 5 6 
#
# 1 184.0814 63.9793 51.0536 0.0000 0.0000 0.0000
# 2 63.9793 85.7301 27.1789 0.0000 0.0000 0.0000
# 3 51.0536 27.1789 27.4732 0.0000 0.0000 0.0000
# 4 0.0000 0.0000 0.0000 -7.3080 0.0000 0.0000
# 5 0.0000 0.0000 0.0000 0.0000 8.3070 0.0000
# 6 0.0000 0.0000 0.0000 0.0000 0.0000 28.3075
#
#
#
# Elastic Compliance Matrix: (Units=1/GPa)
#
#
# Indices 1 2 3 4 5 6 
#
# 1 0.011611 -0.002659 -0.018947 0.000000 0.000000 0.000000
# 2 -0.002659 0.017603 -0.012474 0.000000 0.000000 0.000000
# 3 -0.018947 -0.012474 0.083949 0.000000 0.000000 0.000000
# 4 0.000000 0.000000 0.000000 -0.136836 0.000000 0.000000
# 5 0.000000 0.000000 0.000000 0.000000 0.120381 0.000000
# 6 0.000000 0.000000 0.000000 0.000000 0.000000 0.035326
#
#
# Mechanical properties :
#
#
# Convention : Reuss Voigt Hill
#
# Bulk Modulus (GPa) = 22.22033 64.63425 43.42729
# Shear Modulus (GPa) = 23.23464 16.19949 19.71706
#
# Velocity S-wave (km/s) = 3.68996 3.08109 3.39918
# Velocity P-wave (km/s) = 5.58353 7.10873 6.39178
#
# Compressibility (1/GPa) = 0.04500383
#
# Stress axis : x y z
#
# Youngs Moduli (GPa) = 86.12357 56.80775 11.91195
#
# Poissons Ratio (x) = 0.15102 0.22570
# Poissons Ratio (y) = 0.22896 0.14859
# Poissons Ratio (z) = 1.63180 0.70864
#
# Static dielectric constant tensor:
#      x y z
#    x 1.582260 0.000000 0.000000 
#    y 0.000000 1.573620 0.000000 
#    z 0.000000 0.000000 1.574690 
# 
# From -- ./inp_files/41045.got.cif
#   From: 2010.05.17/outbox.cif.g08.bks.cpg/sg67_21_cif.got.tgz:41045.got - 2010.06.03 18:28:57.
