data_PCOD9502701
_publ_section_title
;
Structure prediction by ZEFSAII (Michael W. Deem and Ramdas Pophale) SiO2 
 PCOD9502701
Probable space group: C M M A
;
_chemical_formula_sum "Si O2"
_cell_formula_units_Z 80
_cell_length_a 14.359384
_cell_length_b 21.458566
_cell_length_c 12.078190
_cell_angle_alpha 90.000000
_cell_angle_beta 90.000000
_cell_angle_gamma 90.000000
_cell_volume 3721.674296
_symmetry_space_group_name_H-M "C M M A"
_symmetry_group_IT_number 67
_symmetry_cell_setting 'orthorhombic'
loop_
_space_group_symop_operation_xyz
x,y,z
-x,1/2-y,z
x,-y,-z
-x,1/2+y,-z
-x,-y,-z
x,1/2+y,-z
-x,y,z
x,1/2-y,z
1/2+x,1/2+y,z
1/2-x,-y,z
1/2+x,1/2-y,-z
1/2-x,y,-z
1/2-x,1/2-y,-z
1/2+x,y,-z
1/2-x,1/2+y,z
1/2+x,-y,z
loop_
_atom_site_type_symbol
_atom_site_label
_atom_site_fract_x
_atom_site_fract_y
_atom_site_fract_z
Si Si1 0.142966 0.567578 0.534660
Si Si2 0.110778 0.478309 0.233194
Si Si3 0.213306 0.679230 0.143829
Si Si4 0.105640 0.385292 0.686630
Si Si5 0.612555 0.381332 0.942477
O O1 0.102860 0.500000 0.500000
O O2 0.250000 0.567071 0.500000
O O3 0.132335 0.569272 0.665984
O O4 0.101364 0.614699 0.446246
O O5 0.144388 0.546814 0.270408
O O6 0.136051 0.447765 0.115732
O O7 0.000000 0.484822 0.230437
O O8 0.192570 0.750000 0.111332
O O9 0.174725 0.665257 0.264611
O O10 0.322563 0.665681 0.128463
O O11 0.154546 0.632300 0.063819
O O12 0.000000 0.377041 0.728580
O O13 0.500000 0.373259 0.940219
#
# Coordination Sequence:
#
# PCOD9502701 Si02
#       5
#    16  16  16  16  16
#     4   9  16  28  50  80 113 146 177 214 269 332
#     4   9  18  33  55  85 114 141 178 222 277 337
#     4  11  24  39  57  81 107 145 193 228 265 324
#     4  10  20  34  55  84 118 150 180 223 274 325
#     4  10  21  38  60  82 107 140 180 231 282 326
#
# _framework density 21.495701
#
# number of rings (size 3 to 8) (size 9 to 14) (size 15 to 20)
#    0.000    2.200    0.000    3.600    0.000    8.400 
#    0.000    5.000    0.000    6.600    0.000    8.400 
#    0.000    0.000    0.000    0.000    0.000    0.000 
#
# Total GULP energy -222845.149372 kJ/mol
# GULP energy per Si atom -5571.128734 kJ/mol
# Density = 2.144678 g / cm^3
# Si number density = 21.495701 Si / 1000 Ang^3
#
#
#
# Elastic Constant Matrix: (Units=GPa)
#
#
# Indices 1 2 3 4 5 6 
#
# 1 104.0091 11.0982 11.5187 0.0000 0.0000 0.0000
# 2 11.0982 39.7269 25.9901 0.0000 0.0000 0.0000
# 3 11.5187 25.9901 70.9663 0.0000 0.0000 0.0000
# 4 0.0000 0.0000 0.0000 17.1738 0.0000 0.0000
# 5 0.0000 0.0000 0.0000 0.0000 27.3777 0.0000
# 6 0.0000 0.0000 0.0000 0.0000 0.0000 11.9850
#
#
#
# Elastic Compliance Matrix: (Units=1/GPa)
#
#
# Indices 1 2 3 4 5 6 
#
# 1 0.009943 -0.002264 -0.000785 0.000000 0.000000 0.000000
# 2 -0.002264 0.033619 -0.011945 0.000000 0.000000 0.000000
# 3 -0.000785 -0.011945 0.018593 0.000000 0.000000 0.000000
# 4 0.000000 0.000000 0.000000 0.058228 0.000000 0.000000
# 5 0.000000 0.000000 0.000000 0.000000 0.036526 0.000000
# 6 0.000000 0.000000 0.000000 0.000000 0.000000 0.083438
#
#
# Mechanical properties :
#
#
# Convention : Reuss Voigt Hill
#
# Bulk Modulus (GPa) = 31.08725 34.65737 32.87231
# Shear Modulus (GPa) = 17.78994 22.38030 20.08512
#
# Velocity S-wave (km/s) = 2.87993 3.23019 3.06008
# Velocity P-wave (km/s) = 5.05491 5.48362 5.27363
#
# Compressibility (1/GPa) = 0.03216753
#
# Stress axis : x y z
#
# Youngs Moduli (GPa) = 100.57270 29.74505 53.78329
#
# Poissons Ratio (x) = 0.06736 0.04220
# Poissons Ratio (y) = 0.22774 0.64243
# Poissons Ratio (z) = 0.07891 0.35530
#
# Static dielectric constant tensor:
#      x y z
#    x 1.815250 0.000000 0.000000 
#    y 0.000000 1.784440 0.000000 
#    z 0.000000 0.000000 1.847700 
# 
# From -- ./inp_files/17948.got.cif
#   From: 2010.05.17/outbox.cif.g08.bks.cpg/sg67_9_cif.got.tgz:17948.got - 2010.06.03 18:28:57.
