data_PCOD9502235
_publ_section_title
;
Structure prediction by ZEFSAII (Michael W. Deem and Ramdas Pophale) SiO2 
 PCOD9502235
Probable space group: C M M A
;
_chemical_formula_sum "Si O2"
_cell_formula_units_Z 116
_cell_length_a 8.120884
_cell_length_b 31.926530
_cell_length_c 22.124426
_cell_angle_alpha 90.000000
_cell_angle_beta 90.000000
_cell_angle_gamma 90.000000
_cell_volume 5736.236360
_symmetry_space_group_name_H-M "C M M A"
_symmetry_group_IT_number 67
_symmetry_cell_setting 'orthorhombic'
loop_
_space_group_symop_operation_xyz
x,y,z
-x,1/2-y,z
x,-y,-z
-x,1/2+y,-z
-x,-y,-z
x,1/2+y,-z
-x,y,z
x,1/2-y,z
1/2+x,1/2+y,z
1/2-x,-y,z
1/2+x,1/2-y,-z
1/2-x,y,-z
1/2-x,1/2-y,-z
1/2+x,y,-z
1/2-x,1/2+y,z
1/2+x,-y,z
loop_
_atom_site_type_symbol
_atom_site_label
_atom_site_fract_x
_atom_site_fract_y
_atom_site_fract_z
Si Si1 0.197741 0.360694 0.829245
Si Si2 0.800397 0.046131 0.805323
Si Si3 0.695442 0.296915 0.727987
Si Si4 0.186024 0.405431 0.435603
Si Si5 0.000000 0.250000 0.547590
Si Si6 0.690194 0.043017 0.330600
Si Si7 0.691077 0.307414 0.583269
Si Si8 0.198936 0.297415 0.931392
O O1 0.256568 0.408985 0.831928
O O2 0.234397 0.335007 0.767526
O O3 0.261125 0.331443 0.883620
O O4 0.000000 0.362547 0.833950
O O5 0.734065 0.047887 0.735927
O O6 0.000000 0.046906 0.807247
O O7 0.750000 0.000000 0.829526
O O8 0.500000 0.296518 0.738971
O O9 0.761400 0.250000 0.743835
O O10 0.716262 0.302713 0.655867
O O11 0.250000 0.420770 0.500000
O O12 0.282606 0.420411 0.377254
O O13 0.190602 0.355513 0.434696
O O14 0.000000 0.420042 0.427205
O O15 0.150214 0.214591 0.554183
O O16 0.500000 0.038474 0.318756
O O17 0.750000 0.000000 0.359493
O O18 0.500000 0.292299 0.570574
O O19 0.256113 0.250000 0.916704
O O20 0.000000 0.297143 0.928678
O O21 0.250000 0.306686 0.000000
#
# Coordination Sequence:
#
# PCOD9502235 Si02
#       8
#    16  16  16  16   4  16  16  16
#     4  10  20  32  52  82 109 140 187 229 274 331
#     4   9  19  35  55  82 112 141 173 220 270 332
#     4  10  20  34  51  77 115 144 175 223 275 330
#     4  11  24  41  61  81 112 143 182 236 281 334
#     4  12  22  36  70  78 106 154 192 226 298 338
#     4  10  20  36  59  86 114 143 181 218 276 346
#     4  10  23  40  58  84 114 145 189 235 285 346
#     4   9  18  33  51  74 108 148 188 233 274 321
#
# _framework density 20.222318000000001
#
# number of rings (size 3 to 8) (size 9 to 14) (size 15 to 20)
#    0.000    2.069    0.690    2.276    2.897    2.759 
#    0.000    3.103    0.000    0.414    0.000    2.897 
#    0.000    0.000    0.000    0.000    0.000    0.000 
#
# Total GULP energy -323018.949654 kJ/mol
# GULP energy per Si atom -5569.292235 kJ/mol
# Density = 2.017629 g / cm^3
# Si number density = 20.222318 Si / 1000 Ang^3
#
#
#
# Elastic Constant Matrix: (Units=GPa)
#
#
# Indices 1 2 3 4 5 6 
#
# 1 60.6343 29.1916 18.1721 0.0000 0.0000 0.0000
# 2 29.1916 131.8776 54.5283 0.0000 0.0000 0.0000
# 3 18.1721 54.5283 72.3567 0.0000 0.0000 0.0000
# 4 0.0000 0.0000 0.0000 229.0906 0.0000 0.0000
# 5 0.0000 0.0000 0.0000 0.0000 22.1394 0.0000
# 6 0.0000 0.0000 0.0000 0.0000 0.0000 27.5373
#
#
#
# Elastic Compliance Matrix: (Units=1/GPa)
#
#
# Indices 1 2 3 4 5 6 
#
# 1 0.018718 -0.003195 -0.002293 0.000000 0.000000 0.000000
# 2 -0.003195 0.011560 -0.007910 0.000000 0.000000 0.000000
# 3 -0.002293 -0.007910 0.020357 0.000000 0.000000 0.000000
# 4 0.000000 0.000000 0.000000 0.004365 0.000000 0.000000
# 5 0.000000 0.000000 0.000000 0.000000 0.045168 0.000000
# 6 0.000000 0.000000 0.000000 0.000000 0.000000 0.036314
#
#
# Mechanical properties :
#
#
# Convention : Reuss Voigt Hill
#
# Bulk Modulus (GPa) = 41.94668 52.07250 47.00959
# Shear Modulus (GPa) = 29.20132 66.61856 47.90994
#
# Velocity S-wave (km/s) = 3.80414 5.74583 4.87268
# Velocity P-wave (km/s) = 6.33112 8.35616 7.41311
#
# Compressibility (1/GPa) = 0.02383979
#
# Stress axis : x y z
#
# Youngs Moduli (GPa) = 53.42508 86.50171 49.12317
#
# Poissons Ratio (x) = 0.27638 0.11264
# Poissons Ratio (y) = 0.17070 0.38854
# Poissons Ratio (z) = 0.12250 0.68419
#
# Static dielectric constant tensor:
#      x y z
#    x 1.717270 0.000000 0.000000 
#    y 0.000000 1.753730 0.000000 
#    z 0.000000 0.000000 1.669360 
# 
# From -- ./inp_files/41214.got.cif
#   From: 2010.05.17/outbox.cif.g08.bks.cpg/sg67_21_cif.got.tgz:41214.got - 2010.06.03 18:28:57.
