data_PCOD9502257
_publ_section_title
;
Structure prediction by ZEFSAII (Michael W. Deem and Ramdas Pophale) SiO2 
 PCOD9502257
Probable space group: C M M A
;
_chemical_formula_sum "Si O2"
_cell_formula_units_Z 112
_cell_length_a 25.530330
_cell_length_b 14.264089
_cell_length_c 18.449229
_cell_angle_alpha 90.000000
_cell_angle_beta 90.000000
_cell_angle_gamma 90.000000
_cell_volume 6718.598520
_symmetry_space_group_name_H-M "C M M A"
_symmetry_group_IT_number 67
_symmetry_cell_setting 'orthorhombic'
loop_
_space_group_symop_operation_xyz
x,y,z
-x,1/2-y,z
x,-y,-z
-x,1/2+y,-z
-x,-y,-z
x,1/2+y,-z
-x,y,z
x,1/2-y,z
1/2+x,1/2+y,z
1/2-x,-y,z
1/2+x,1/2-y,-z
1/2-x,y,-z
1/2-x,1/2-y,-z
1/2+x,y,-z
1/2-x,1/2+y,z
1/2+x,-y,z
loop_
_atom_site_type_symbol
_atom_site_label
_atom_site_fract_x
_atom_site_fract_y
_atom_site_fract_z
Si Si1 0.711617 0.862280 0.159776
Si Si2 0.161831 0.862191 0.989356
Si Si3 0.831309 0.637793 0.155141
Si Si4 0.385101 0.969729 0.223943
Si Si5 0.063428 0.145353 0.518522
Si Si6 0.936642 0.974259 0.620335
Si Si7 0.440815 0.861378 0.098975
O O1 0.702761 0.750000 0.162767
O O2 0.771585 0.879798 0.179856
O O3 0.668851 0.913389 0.208875
O O4 0.700415 0.891411 0.075805
O O5 0.169122 0.750000 0.994541
O O6 0.167368 0.895579 0.071170
O O7 0.103446 0.881650 0.960517
O O8 0.841195 0.750000 0.158335
O O9 0.871835 0.575884 0.200233
O O10 0.426268 0.922435 0.168781
O O11 0.406964 0.962898 0.304523
O O12 0.083361 0.250000 0.529788
O O13 0.078054 0.071756 0.580704
O O14 0.000000 0.147319 0.519694
O O15 0.076955 0.104479 0.439496
O O16 0.000000 0.972697 0.631105
O O17 0.500000 0.878714 0.074594
O O18 0.436012 0.750000 0.116455
#
# Coordination Sequence:
#
# PCOD9502257 Si02
#       7
#    16  16  16  16  16  16  16
#     4   9  18  32  49  69  92 120 160 213 261 289
#     4   8  15  30  50  68  88 120 164 210 251 289
#     4  10  20  33  47  65  92 126 165 208 252 292
#     4  11  20  30  46  72 101 128 157 190 235 292
#     4   8  15  30  52  74  95 123 156 186 219 261
#     4   9  18  31  47  72 104 129 151 183 221 270
#     4   9  18  32  48  67  94 127 161 200 244 286
#
# _framework density 16.670144000000001
#
# number of rings (size 3 to 8) (size 9 to 14) (size 15 to 20)
#    0.000    2.857    0.000    3.429    0.000    5.714 
#    0.000    6.429    0.000    3.000    0.000    8.000 
#    0.000   13.714    0.000    0.000    0.000    0.000 
#
# Total GULP energy -312137.284492 kJ/mol
# GULP energy per Si atom -5573.880080 kJ/mol
# Density = 1.663220 g / cm^3
# Si number density = 16.670144 Si / 1000 Ang^3
#
#
#
# Elastic Constant Matrix: (Units=GPa)
#
#
# Indices 1 2 3 4 5 6 
#
# 1 36.9534 4.2578 5.6285 0.0000 0.0000 0.0000
# 2 4.2578 57.4684 2.1247 0.0000 0.0000 0.0000
# 3 5.6285 2.1247 65.7630 0.0000 0.0000 0.0000
# 4 0.0000 0.0000 0.0000 12.8033 0.0000 0.0000
# 5 0.0000 0.0000 0.0000 0.0000 12.6633 0.0000
# 6 0.0000 0.0000 0.0000 0.0000 0.0000 20.3793
#
#
#
# Elastic Compliance Matrix: (Units=1/GPa)
#
#
# Indices 1 2 3 4 5 6 
#
# 1 0.027638 -0.001963 -0.002302 0.000000 0.000000 0.000000
# 2 -0.001963 0.017561 -0.000399 0.000000 0.000000 0.000000
# 3 -0.002302 -0.000399 0.015416 0.000000 0.000000 0.000000
# 4 0.000000 0.000000 0.000000 0.078105 0.000000 0.000000
# 5 0.000000 0.000000 0.000000 0.000000 0.078969 0.000000
# 6 0.000000 0.000000 0.000000 0.000000 0.000000 0.049070
#
#
# Mechanical properties :
#
#
# Convention : Reuss Voigt Hill
#
# Bulk Modulus (GPa) = 19.49815 20.46742 19.98279
# Shear Modulus (GPa) = 17.05429 19.04742 18.05086
#
# Velocity S-wave (km/s) = 3.20198 3.38391 3.29420
# Velocity P-wave (km/s) = 5.03905 5.25094 5.14609
#
# Compressibility (1/GPa) = 0.05128691
#
# Stress axis : x y z
#
# Youngs Moduli (GPa) = 36.18229 56.94423 64.86746
#
# Poissons Ratio (x) = 0.11176 0.14933
# Poissons Ratio (y) = 0.07101 0.02591
# Poissons Ratio (z) = 0.08329 0.02274
#
# Static dielectric constant tensor:
#      x y z
#    x 1.553870 0.000000 0.000000 
#    y 0.000000 1.620250 0.000000 
#    z 0.000000 0.000000 1.531370 
# 
# From -- ./inp_files/30793.got.cif
#   From: 2010.05.17/outbox.cif.g08.bks.cpg/sg67_16_cif.got.tgz:30793.got - 2010.06.03 18:28:57.
