data_PCOD9502529
_publ_section_title
;
Structure prediction by ZEFSAII (Michael W. Deem and Ramdas Pophale) SiO2 
 PCOD9502529
Probable space group: C M M A
;
_chemical_formula_sum "Si O2"
_cell_formula_units_Z 96
_cell_length_a 8.617147
_cell_length_b 18.973563
_cell_length_c 31.847143
_cell_angle_alpha 90.000000
_cell_angle_beta 90.000000
_cell_angle_gamma 90.000000
_cell_volume 5206.943597
_symmetry_space_group_name_H-M "C M M A"
_symmetry_group_IT_number 67
_symmetry_cell_setting 'orthorhombic'
loop_
_space_group_symop_operation_xyz
x,y,z
-x,1/2-y,z
x,-y,-z
-x,1/2+y,-z
-x,-y,-z
x,1/2+y,-z
-x,y,z
x,1/2-y,z
1/2+x,1/2+y,z
1/2-x,-y,z
1/2+x,1/2-y,-z
1/2-x,y,-z
1/2-x,1/2-y,-z
1/2+x,y,-z
1/2-x,1/2+y,z
1/2+x,-y,z
loop_
_atom_site_type_symbol
_atom_site_label
_atom_site_fract_x
_atom_site_fract_y
_atom_site_fract_z
Si Si1 0.313628 0.079092 0.704311
Si Si2 0.687003 0.168419 0.125000
Si Si3 0.313393 0.579238 0.955746
Si Si4 0.812976 0.668365 0.785075
Si Si5 0.312378 0.331550 0.373579
Si Si6 0.813795 0.578322 0.454344
O O1 0.500000 0.076946 0.704004
O O2 0.261782 0.119326 0.746734
O O3 0.256086 0.123831 0.664623
O O4 0.250000 0.000000 0.702712
O O5 0.500000 0.166003 0.126954
O O6 0.734529 0.250000 0.119882
O O7 0.736642 0.123712 0.084746
O O8 0.752489 0.143660 0.169675
O O9 0.500000 0.577774 0.957463
O O10 0.250000 0.500000 0.951763
O O11 0.250000 0.608123 0.000000
O O12 0.761905 0.750000 0.778895
O O13 0.000000 0.668357 0.785833
O O14 0.500000 0.333642 0.370901
O O15 0.263273 0.250000 0.371757
O O16 0.268022 0.368366 0.417469
O O17 0.750000 0.500000 0.445082
O O18 0.750000 0.599228 0.500000
O O19 0.000000 0.574839 0.456319
#
# Coordination Sequence:
#
# PCOD9502529 Si02
#       6
#    16  16  16  16  16  16
#     4  11  23  38  57  82 111 143 182 225 269 320
#     4   9  19  35  54  77 104 135 172 213 258 310
#     4  10  20  34  52  74 102 135 172 213 257 307
#     4   9  19  36  56  78 105 137 174 216 262 314
#     4  10  22  39  58  82 112 145 182 225 273 324
#     4  10  20  35  56  81 110 144 182 224 269 319
#
# _framework density 18.436920000000001
#
# number of rings (size 3 to 8) (size 9 to 14) (size 15 to 20)
#    0.000    2.167    0.000    3.500    0.000    7.667 
#    0.000    5.000    0.000    0.000    0.000    0.000 
#    0.000    0.000    0.000    0.000    0.000    0.000 
#
# Total GULP energy -268012.110046 kJ/mol
# GULP energy per Si atom -5583.585626 kJ/mol
# Density = 1.839496 g / cm^3
# Si number density = 18.436920 Si / 1000 Ang^3
#
#
#
# Elastic Constant Matrix: (Units=GPa)
#
#
# Indices 1 2 3 4 5 6 
#
# 1 29.8723 32.5220 44.3987 0.0000 0.0000 0.0000
# 2 32.5220 124.0574 124.0243 0.0000 0.0000 0.0000
# 3 44.3987 124.0243 206.3744 0.0000 0.0000 0.0000
# 4 0.0000 0.0000 0.0000 42.6309 0.0000 0.0000
# 5 0.0000 0.0000 0.0000 0.0000 25.9526 0.0000
# 6 0.0000 0.0000 0.0000 0.0000 0.0000 17.0562
#
#
#
# Elastic Compliance Matrix: (Units=1/GPa)
#
#
# Indices 1 2 3 4 5 6 
#
# 1 0.050938 -0.006007 -0.007349 0.000000 0.000000 0.000000
# 2 -0.006007 0.020901 -0.011269 0.000000 0.000000 0.000000
# 3 -0.007349 -0.011269 0.013199 0.000000 0.000000 0.000000
# 4 0.000000 0.000000 0.000000 0.023457 0.000000 0.000000
# 5 0.000000 0.000000 0.000000 0.000000 0.038532 0.000000
# 6 0.000000 0.000000 0.000000 0.000000 0.000000 0.058630
#
#
# Mechanical properties :
#
#
# Convention : Reuss Voigt Hill
#
# Bulk Modulus (GPa) = 27.94130 84.68823 56.31477
# Shear Modulus (GPa) = 18.73825 27.75186 23.24506
#
# Velocity S-wave (km/s) = 3.19147 3.88394 3.55461
# Velocity P-wave (km/s) = 5.36364 8.13309 6.88897
#
# Compressibility (1/GPa) = 0.03578931
#
# Stress axis : x y z
#
# Youngs Moduli (GPa) = 19.63184 47.84452 75.76553
#
# Poissons Ratio (x) = 0.28738 0.55678
# Poissons Ratio (y) = 0.11792 0.85377
# Poissons Ratio (z) = 0.14427 0.53914
#
# Static dielectric constant tensor:
#      x y z
#    x 1.626830 0.000000 0.000000 
#    y 0.000000 1.615350 0.000000 
#    z 0.000000 0.000000 1.622130 
# 
# From -- ./inp_files/43522.got.cif
#   From: 2010.05.17/outbox.cif.g08.bks.cpg/sg67_22_cif.got.tgz:43522.got - 2010.06.03 18:28:57.
