data_PCOD9502666
_publ_section_title
;
Structure prediction by ZEFSAII (Michael W. Deem and Ramdas Pophale) SiO2 
 PCOD9502666
Probable space group: C M M A
;
_chemical_formula_sum "Si O2"
_cell_formula_units_Z 104
_cell_length_a 28.271271
_cell_length_b 9.156836
_cell_length_c 21.505448
_cell_angle_alpha 90.000000
_cell_angle_beta 90.000000
_cell_angle_gamma 90.000000
_cell_volume 5567.231282
_symmetry_space_group_name_H-M "C M M A"
_symmetry_group_IT_number 67
_symmetry_cell_setting 'orthorhombic'
loop_
_space_group_symop_operation_xyz
x,y,z
-x,1/2-y,z
x,-y,-z
-x,1/2+y,-z
-x,-y,-z
x,1/2+y,-z
-x,y,z
x,1/2-y,z
1/2+x,1/2+y,z
1/2-x,-y,z
1/2+x,1/2-y,-z
1/2-x,y,-z
1/2-x,1/2-y,-z
1/2+x,y,-z
1/2-x,1/2+y,z
1/2+x,-y,z
loop_
_atom_site_type_symbol
_atom_site_label
_atom_site_fract_x
_atom_site_fract_y
_atom_site_fract_z
Si Si1 0.124920 0.000000 0.000000
Si Si2 0.135057 0.076601 0.659064
Si Si3 0.553288 0.419798 0.107086
Si Si4 0.198976 0.075310 0.438217
Si Si5 0.134456 0.426047 0.805493
Si Si6 0.445955 0.423350 0.436648
Si Si7 0.298214 0.916641 0.099286
O O1 0.161887 0.917370 0.954960
O O2 0.087992 0.074194 0.952516
O O3 0.146688 0.250000 0.650510
O O4 0.134350 0.046840 0.732192
O O5 0.085780 0.049372 0.623569
O O6 0.171073 0.974205 0.622463
O O7 0.500000 0.481969 0.098106
O O8 0.547103 0.250000 0.121558
O O9 0.585504 0.481289 0.162913
O O10 0.201587 0.250000 0.445194
O O11 0.177340 0.000000 0.500000
O O12 0.250000 0.000000 0.433126
O O13 0.137909 0.250000 0.814940
O O14 0.177107 0.501740 0.842701
O O15 0.429661 0.500000 0.500000
O O16 0.500000 0.469510 0.425569
O O17 0.444990 0.250000 0.447808
O O18 0.286521 0.750000 0.114605
O O19 0.250000 0.000000 0.081176
#
# Coordination Sequence:
#
# PCOD9502666 Si02
#       7
#     8  16  16  16  16  16  16
#     4  10  20  34  54  82 114 142 176 218 268 320
#     4  10  20  35  55  79 108 144 184 226 271 319
#     4   9  17  31  53  80 109 142 180 220 262 311
#     4  11  22  37  57  81 109 140 177 223 275 330
#     4   9  20  37  55  78 110 145 184 226 267 318
#     4   9  18  32  51  77 108 141 179 223 270 320
#     4  11  23  38  58  81 109 144 181 223 271 322
#
# _framework density 18.68074
#
# number of rings (size 3 to 8) (size 9 to 14) (size 15 to 20)
#    0.000    2.154    0.000    3.692    0.000    6.154 
#    0.000    3.077    0.000    4.154    0.000    4.308 
#    0.000    0.000    0.000    0.000    0.000    0.000 
#
# Total GULP energy -289711.208536 kJ/mol
# GULP energy per Si atom -5571.369395 kJ/mol
# Density = 1.863822 g / cm^3
# Si number density = 18.680740 Si / 1000 Ang^3
#
#
#
# Elastic Constant Matrix: (Units=GPa)
#
#
# Indices 1 2 3 4 5 6 
#
# 1 134.9505 50.4026 50.3964 0.0000 0.0000 0.0000
# 2 50.4026 78.1949 53.2113 0.0000 0.0000 0.0000
# 3 50.3964 53.2113 130.0173 0.0000 0.0000 0.0000
# 4 0.0000 0.0000 0.0000 12.0565 0.0000 0.0000
# 5 0.0000 0.0000 0.0000 0.0000 17.7472 0.0000
# 6 0.0000 0.0000 0.0000 0.0000 0.0000 20.9632
#
#
#
# Elastic Compliance Matrix: (Units=1/GPa)
#
#
# Indices 1 2 3 4 5 6 
#
# 1 0.010030 -0.005294 -0.001721 0.000000 0.000000 0.000000
# 2 -0.005294 0.020519 -0.006346 0.000000 0.000000 0.000000
# 3 -0.001721 -0.006346 0.010956 0.000000 0.000000 0.000000
# 4 0.000000 0.000000 0.000000 0.082943 0.000000 0.000000
# 5 0.000000 0.000000 0.000000 0.000000 0.056347 0.000000
# 6 0.000000 0.000000 0.000000 0.000000 0.000000 0.047703
#
#
# Mechanical properties :
#
#
# Convention : Reuss Voigt Hill
#
# Bulk Modulus (GPa) = 67.64490 72.35368 69.99929
# Shear Modulus (GPa) = 19.21992 22.76353 20.99172
#
# Velocity S-wave (km/s) = 3.21107 3.49457 3.35581
# Velocity P-wave (km/s) = 7.07373 7.42283 7.25038
#
# Compressibility (1/GPa) = 0.01478308
#
# Stress axis : x y z
#
# Youngs Moduli (GPa) = 99.69973 48.73501 91.27819
#
# Poissons Ratio (x) = 0.25800 0.15711
# Poissons Ratio (y) = 0.52780 0.57923
# Poissons Ratio (z) = 0.17160 0.30926
#
# Static dielectric constant tensor:
#      x y z
#    x 1.695170 0.000000 0.000000 
#    y 0.000000 1.640080 0.000000 
#    z 0.000000 0.000000 1.642200 
# 
# From -- ./inp_files/39978.got.cif
#   From: 2010.05.17/outbox.cif.g08.bks.cpg/sg67_20_cif.got.tgz:39978.got - 2010.06.03 18:28:57.
