data_PCOD9502391
_publ_section_title
;
Structure prediction by ZEFSAII (Michael W. Deem and Ramdas Pophale) SiO2 
 PCOD9502391
Probable space group: C M M A
;
_chemical_formula_sum "Si O2"
_cell_formula_units_Z 88
_cell_length_a 26.917074
_cell_length_b 7.961119
_cell_length_c 18.896892
_cell_angle_alpha 90.000000
_cell_angle_beta 90.000000
_cell_angle_gamma 90.000000
_cell_volume 4049.415539
_symmetry_space_group_name_H-M "C M M A"
_symmetry_group_IT_number 67
_symmetry_cell_setting 'orthorhombic'
loop_
_space_group_symop_operation_xyz
x,y,z
-x,1/2-y,z
x,-y,-z
-x,1/2+y,-z
-x,-y,-z
x,1/2+y,-z
-x,y,z
x,1/2-y,z
1/2+x,1/2+y,z
1/2-x,-y,z
1/2+x,1/2-y,-z
1/2-x,y,-z
1/2-x,1/2-y,-z
1/2+x,y,-z
1/2-x,1/2+y,z
1/2+x,-y,z
loop_
_atom_site_type_symbol
_atom_site_label
_atom_site_fract_x
_atom_site_fract_y
_atom_site_fract_z
Si Si1 0.500000 0.047501 0.917036
Si Si2 0.407700 0.451099 0.422242
Si Si3 0.445791 0.546215 0.727439
Si Si4 0.158729 0.942324 0.784439
Si Si5 0.610331 0.453492 0.918267
Si Si6 0.304477 0.054670 0.363854
O O1 0.500000 0.250000 0.908695
O O2 0.445072 0.983733 0.895132
O O3 0.500000 0.000000 0.000000
O O4 0.424117 0.500000 0.500000
O O5 0.404911 0.250000 0.421316
O O6 0.442266 0.494999 0.356106
O O7 0.352451 0.522260 0.403441
O O8 0.500000 0.497977 0.755323
O O9 0.439846 0.750000 0.734890
O O10 0.398783 0.453977 0.759983
O O11 0.175710 0.750000 0.787118
O O12 0.153007 0.013327 0.863887
O O13 0.188162 0.027792 0.720611
O O14 0.609532 0.250000 0.913609
O O15 0.618250 0.500000 0.000000
O O16 0.307036 0.250000 0.377391
O O17 0.250000 0.000000 0.386177
#
# Coordination Sequence:
#
# PCOD9502391 Si02
#       6
#     8  16  16  16  16  16
#     4   8  14  26  40  60  92 128 163 200 239 282
#     4   9  19  34  52  76 106 136 169 210 253 303
#     4   9  19  35  51  71 103 143 182 217 255 300
#     4  10  20  33  52  78 105 135 173 217 261 308
#     4   9  18  30  47  70 101 136 172 213 255 301
#     4  10  21  38  58  79 104 133 167 209 258 313
#
# _framework density 21.731532000000001
#
# number of rings (size 3 to 8) (size 9 to 14) (size 15 to 20)
#    0.000    2.727    0.000    2.182    1.273    6.182 
#    0.000    1.818    0.000    0.545    0.000    3.818 
#    0.000    0.000    0.000    0.000    0.000    0.000 
#
# Total GULP energy -245254.308747 kJ/mol
# GULP energy per Si atom -5573.961562 kJ/mol
# Density = 2.168207 g / cm^3
# Si number density = 21.731532 Si / 1000 Ang^3
#
#
#
# Elastic Constant Matrix: (Units=GPa)
#
#
# Indices 1 2 3 4 5 6 
#
# 1 32.7220 0.3168 -21.5867 0.0000 0.0000 0.0000
# 2 0.3168 17.3004 -13.5413 0.0000 0.0000 0.0000
# 3 -21.5867 -13.5413 68.2189 0.0000 0.0000 0.0000
# 4 0.0000 0.0000 0.0000 24.5429 0.0000 0.0000
# 5 0.0000 0.0000 0.0000 0.0000 5.0671 0.0000
# 6 0.0000 0.0000 0.0000 0.0000 0.0000 13.3679
#
#
#
# Elastic Compliance Matrix: (Units=1/GPa)
#
#
# Indices 1 2 3 4 5 6 
#
# 1 0.040300 0.010944 0.014925 0.000000 0.000000 0.000000
# 2 0.010944 0.071407 0.017637 0.000000 0.000000 0.000000
# 3 0.014925 0.017637 0.022882 0.000000 0.000000 0.000000
# 4 0.000000 0.000000 0.000000 0.040745 0.000000 0.000000
# 5 0.000000 0.000000 0.000000 0.000000 0.197353 0.000000
# 6 0.000000 0.000000 0.000000 0.000000 0.000000 0.074806
#
#
# Mechanical properties :
#
#
# Convention : Reuss Voigt Hill
#
# Bulk Modulus (GPa) = 4.51263 5.40210 4.95736
# Shear Modulus (GPa) = 11.51147 18.79906 15.15526
#
# Velocity S-wave (km/s) = 2.30405 2.94438 2.64367
# Velocity P-wave (km/s) = 3.02642 3.74839 3.40658
#
# Compressibility (1/GPa) = 0.22160037
#
# Stress axis : x y z
#
# Youngs Moduli (GPa) = 24.81370 14.00429 43.70198
#
# Poissons Ratio (x) = -0.15326 -0.65224
# Poissons Ratio (y) = -0.27156 -0.77077
# Poissons Ratio (z) = -0.37034 -0.24699
#
# Static dielectric constant tensor:
#      x y z
#    x 1.812220 0.000000 0.000000 
#    y 0.000000 1.762330 0.000000 
#    z 0.000000 0.000000 1.819090 
# 
# From -- ./inp_files/36181.got.cif
#   From: 2010.05.17/outbox.cif.g08.bks.cpg/sg67_19_cif.got.tgz:36181.got - 2010.06.03 18:28:57.
