data_PCOD9502340
_publ_section_title
;
Structure prediction by ZEFSAII (Michael W. Deem and Ramdas Pophale) SiO2 
 PCOD9502340
Probable space group: C M M A
;
_chemical_formula_sum "Si O2"
_cell_formula_units_Z 120
_cell_length_a 8.601770
_cell_length_b 27.314743
_cell_length_c 28.850745
_cell_angle_alpha 90.000000
_cell_angle_beta 90.000000
_cell_angle_gamma 90.000000
_cell_volume 6778.630741
_symmetry_space_group_name_H-M "C M M A"
_symmetry_group_IT_number 67
_symmetry_cell_setting 'orthorhombic'
loop_
_space_group_symop_operation_xyz
x,y,z
-x,1/2-y,z
x,-y,-z
-x,1/2+y,-z
-x,-y,-z
x,1/2+y,-z
-x,y,z
x,1/2-y,z
1/2+x,1/2+y,z
1/2-x,-y,z
1/2+x,1/2-y,-z
1/2-x,y,-z
1/2-x,1/2-y,-z
1/2+x,y,-z
1/2-x,1/2+y,z
1/2+x,-y,z
loop_
_atom_site_type_symbol
_atom_site_label
_atom_site_fract_x
_atom_site_fract_y
_atom_site_fract_z
Si Si1 0.811846 0.357367 0.052367
Si Si2 0.813775 0.054224 0.118375
Si Si3 0.187289 0.692909 0.548502
Si Si4 0.188087 0.305613 0.255983
Si Si5 0.185542 0.552928 0.312532
Si Si6 0.312713 0.850624 0.354279
Si Si7 0.185914 0.902697 0.213383
Si Si8 0.187603 0.250000 0.052637
O O1 0.759458 0.403586 0.082647
O O2 0.764292 0.303387 0.071990
O O3 0.000000 0.358130 0.051222
O O4 0.750000 0.361117 0.000000
O O5 0.761287 0.072331 0.168951
O O6 0.000000 0.052162 0.116719
O O7 0.750000 0.000000 0.108571
O O8 0.232798 0.750000 0.550601
O O9 0.250000 0.672238 0.500000
O O10 0.242918 0.668512 0.596104
O O11 0.000000 0.690509 0.547531
O O12 0.234039 0.250000 0.244908
O O13 0.235138 0.318907 0.309067
O O14 0.257457 0.347296 0.222897
O O15 0.000000 0.308575 0.253640
O O16 0.250000 0.500000 0.323948
O O17 0.255340 0.594914 0.344676
O O18 0.230187 0.567550 0.259848
O O19 0.000000 0.553665 0.315303
O O20 0.500000 0.849213 0.354847
O O21 0.000000 0.903469 0.208783
O O22 0.000000 0.250000 0.052188
O O23 0.250000 0.250000 0.000000
#
# Coordination Sequence:
#
# PCOD9502340 Si02
#       8
#    16  16  16  16  16  16  16   8
#     4   9  19  35  57  82 107 135 171 212 258 308
#     4  11  23  38  55  78 106 140 178 217 261 312
#     4   9  17  29  46  70 100 133 167 202 241 290
#     4   9  17  31  52  76 103 137 174 212 255 306
#     4  10  20  33  51  74  97 125 163 208 256 303
#     4   9  17  30  49  72  99 131 168 208 250 298
#     4  10  21  36  53  75 104 137 172 213 258 306
#     4   8  14  30  54  78 102 128 160 204 248 294
#
# _framework density 17.702691000000002
#
# number of rings (size 3 to 8) (size 9 to 14) (size 15 to 20)
#    0.000    2.533    0.000    2.000    0.000    6.400 
#    1.200    1.333    0.000    2.800    0.000    2.800 
#    0.000    0.000    0.000    0.000    0.000    0.000 
#
# Total GULP energy -334545.444786 kJ/mol
# GULP energy per Si atom -5575.757413 kJ/mol
# Density = 1.766240 g / cm^3
# Si number density = 17.702691 Si / 1000 Ang^3
#
#
#
# Elastic Constant Matrix: (Units=GPa)
#
#
# Indices 1 2 3 4 5 6 
#
# 1 10.0868 21.2870 14.6159 0.0000 0.0000 0.0000
# 2 21.2870 151.9523 58.2787 0.0000 0.0000 0.0000
# 3 14.6159 58.2787 78.9600 0.0000 0.0000 0.0000
# 4 0.0000 0.0000 0.0000 21.4923 0.0000 0.0000
# 5 0.0000 0.0000 0.0000 0.0000 23.8532 0.0000
# 6 0.0000 0.0000 0.0000 0.0000 0.0000 26.0668
#
#
#
# Elastic Compliance Matrix: (Units=1/GPa)
#
#
# Indices 1 2 3 4 5 6 
#
# 1 0.157000 -0.015132 -0.017893 0.000000 0.000000 0.000000
# 2 -0.015132 0.010638 -0.005051 0.000000 0.000000 0.000000
# 3 -0.017893 -0.005051 0.019705 0.000000 0.000000 0.000000
# 4 0.000000 0.000000 0.000000 0.046528 0.000000 0.000000
# 5 0.000000 0.000000 0.000000 0.000000 0.041923 0.000000
# 6 0.000000 0.000000 0.000000 0.000000 0.000000 0.038363
#
#
# Mechanical properties :
#
#
# Convention : Reuss Voigt Hill
#
# Bulk Modulus (GPa) = 8.99347 47.70693 28.35020
# Shear Modulus (GPa) = 11.69941 24.07029 17.88485
#
# Velocity S-wave (km/s) = 2.57355 3.69141 3.18195
# Velocity P-wave (km/s) = 3.73125 6.72132 5.43591
#
# Compressibility (1/GPa) = 0.11119175
#
# Stress axis : x y z
#
# Youngs Moduli (GPa) = 6.36942 94.00351 50.74965
#
# Poissons Ratio (x) = 1.42242 0.90808
# Poissons Ratio (y) = 0.09638 0.25632
# Poissons Ratio (z) = 0.11397 0.47478
#
# Static dielectric constant tensor:
#      x y z
#    x 1.603380 0.000000 0.000000 
#    y 0.000000 1.608440 0.000000 
#    z 0.000000 0.000000 1.663050 
# 
# From -- ./inp_files/43903.got.cif
#   From: 2010.05.17/outbox.cif.g08.bks.cpg/sg67_22_cif.got.tgz:43903.got - 2010.06.03 18:28:57.
