data_PCOD9502320
_publ_section_title
;
Structure prediction by ZEFSAII (Michael W. Deem and Ramdas Pophale) SiO2 
 PCOD9502320
Probable space group: C M M A
;
_chemical_formula_sum "Si O2"
_cell_formula_units_Z 104
_cell_length_a 27.899718
_cell_length_b 9.131568
_cell_length_c 23.220566
_cell_angle_alpha 90.000000
_cell_angle_beta 90.000000
_cell_angle_gamma 90.000000
_cell_volume 5915.861155
_symmetry_space_group_name_H-M "C M M A"
_symmetry_group_IT_number 67
_symmetry_cell_setting 'orthorhombic'
loop_
_space_group_symop_operation_xyz
x,y,z
-x,1/2-y,z
x,-y,-z
-x,1/2+y,-z
-x,-y,-z
x,1/2+y,-z
-x,y,z
x,1/2-y,z
1/2+x,1/2+y,z
1/2-x,-y,z
1/2+x,1/2-y,-z
1/2-x,y,-z
1/2-x,1/2-y,-z
1/2+x,y,-z
1/2-x,1/2+y,z
1/2+x,-y,z
loop_
_atom_site_type_symbol
_atom_site_label
_atom_site_fract_x
_atom_site_fract_y
_atom_site_fract_z
Si Si1 0.750000 0.000000 0.160010
Si Si2 0.812319 0.412318 0.945054
Si Si3 0.347884 0.580974 0.220581
Si Si4 0.556784 0.575109 0.561802
Si Si5 0.095658 0.925883 0.121468
Si Si6 0.000000 0.925096 0.860972
Si Si7 0.000000 0.072483 0.735478
Si Si8 0.090578 0.924957 0.672706
O O1 0.720687 0.092825 0.112122
O O2 0.792653 0.061215 0.200426
O O3 0.818610 0.250000 0.966453
O O4 0.863304 0.469235 0.923399
O O5 0.796212 0.500000 0.000000
O O6 0.361219 0.750000 0.207686
O O7 0.381381 0.475721 0.182399
O O8 0.362318 0.555200 0.287151
O O9 0.564379 0.500000 0.500000
O O10 0.500000 0.552686 0.576532
O O11 0.564617 0.750000 0.559661
O O12 0.589360 0.497800 0.609922
O O13 0.088573 0.750000 0.121230
O O14 0.047794 0.014977 0.109600
O O15 0.000000 0.750000 0.854171
O O16 0.000000 0.008505 0.799651
O O17 0.000000 0.250000 0.734199
O O18 0.046878 0.005997 0.705063
O O19 0.081522 0.750000 0.668646
#
# Coordination Sequence:
#
# PCOD9502320 Si02
#       8
#     8  16  16  16  16   8   8  16
#     4  10  21  38  60  84 111 140 176 222 274 330
#     4  10  22  38  58  82 107 138 176 219 269 326
#     4  10  21  36  55  80 110 143 180 224 276 332
#     4  10  20  33  50  74 109 152 194 233 273 315
#     4  10  21  36  54  78 108 141 179 222 268 323
#     4  12  22  34  53  78 107 144 183 221 268 321
#     4  12  22  32  49  76 111 148 186 225 266 319
#     4  11  21  33  52  79 112 148 188 229 271 324
#
# _framework density 17.579858999999999
#
# number of rings (size 3 to 8) (size 9 to 14) (size 15 to 20)
#    0.000    1.538    2.308    3.462    0.000    6.154 
#    0.000    0.385    0.000    0.000    0.000    0.538 
#    0.000    3.692    0.000    0.000    0.000    0.000 
#
# Total GULP energy -289786.020103 kJ/mol
# GULP energy per Si atom -5572.808079 kJ/mol
# Density = 1.753985 g / cm^3
# Si number density = 17.579859 Si / 1000 Ang^3
#
#
#
# Elastic Constant Matrix: (Units=GPa)
#
#
# Indices 1 2 3 4 5 6 
#
# 1 109.4278 44.8365 50.4139 0.0000 0.0000 0.0000
# 2 44.8365 93.1953 52.5484 0.0000 0.0000 0.0000
# 3 50.4139 52.5484 111.9202 0.0000 0.0000 0.0000
# 4 0.0000 0.0000 0.0000 9.2099 0.0000 0.0000
# 5 0.0000 0.0000 0.0000 0.0000 -3.2235 0.0000
# 6 0.0000 0.0000 0.0000 0.0000 0.0000 36.0163
#
#
#
# Elastic Compliance Matrix: (Units=1/GPa)
#
#
# Indices 1 2 3 4 5 6 
#
# 1 0.012472 -0.003852 -0.003809 0.000000 0.000000 0.000000
# 2 -0.003852 0.015784 -0.005675 0.000000 0.000000 0.000000
# 3 -0.003809 -0.005675 0.013315 0.000000 0.000000 0.000000
# 4 0.000000 0.000000 0.000000 0.108579 0.000000 0.000000
# 5 0.000000 0.000000 0.000000 0.000000 -0.310224 0.000000
# 6 0.000000 0.000000 0.000000 0.000000 0.000000 0.027765
#
#
# Mechanical properties :
#
#
# Convention : Reuss Voigt Hill
#
# Bulk Modulus (GPa) = 67.12736 67.79344 67.46040
# Shear Modulus (GPa) = -49.66748 19.51683 -15.07532
#
# Velocity S-wave (km/s) = -5.32107 3.33555 -2.93154
# Velocity P-wave (km/s) = 0.71790 7.31310 5.19600
#
# Compressibility (1/GPa) = 0.01489705
#
# Stress axis : x y z
#
# Youngs Moduli (GPa) = 80.18095 63.35670 75.10104
#
# Poissons Ratio (x) = 0.24408 0.28606
# Poissons Ratio (y) = 0.30889 0.42623
# Poissons Ratio (z) = 0.30541 0.35957
#
# Static dielectric constant tensor:
#      x y z
#    x 1.630880 0.000000 0.000000 
#    y 0.000000 1.604070 0.000000 
#    z 0.000000 0.000000 1.597200 
# 
# From -- ./inp_files/42957.got.cif
#   From: 2010.05.17/outbox.cif.g08.bks.cpg/sg67_22_cif.got.tgz:42957.got - 2010.06.03 18:28:57.
