data_PCOD9502208
_publ_section_title
;
Structure prediction by ZEFSAII (Michael W. Deem and Ramdas Pophale) SiO2 
 PCOD9502208
Probable space group: C M M A
;
_chemical_formula_sum "Si O2"
_cell_formula_units_Z 68
_cell_length_a 30.645093
_cell_length_b 15.258532
_cell_length_c 7.249051
_cell_angle_alpha 90.000000
_cell_angle_beta 90.000000
_cell_angle_gamma 90.000000
_cell_volume 3389.649957
_symmetry_space_group_name_H-M "C M M A"
_symmetry_group_IT_number 67
_symmetry_cell_setting 'orthorhombic'
loop_
_space_group_symop_operation_xyz
x,y,z
-x,1/2-y,z
x,-y,-z
-x,1/2+y,-z
-x,-y,-z
x,1/2+y,-z
-x,y,z
x,1/2-y,z
1/2+x,1/2+y,z
1/2-x,-y,z
1/2+x,1/2-y,-z
1/2-x,y,-z
1/2-x,1/2-y,-z
1/2+x,y,-z
1/2-x,1/2+y,z
1/2+x,-y,z
loop_
_atom_site_type_symbol
_atom_site_label
_atom_site_fract_x
_atom_site_fract_y
_atom_site_fract_z
Si Si1 0.750000 0.500000 0.500000
Si Si2 0.406737 0.907516 0.089977
Si Si3 0.547960 0.354830 0.549229
Si Si4 0.182501 0.013833 0.210798
Si Si5 0.374377 0.650588 0.710728
O O1 0.782014 0.451953 0.354754
O O2 0.440459 0.873754 0.238955
O O3 0.360565 0.926556 0.192216
O O4 0.395443 0.848139 0.915156
O O5 0.420452 0.000000 0.000000
O O6 0.500000 0.389403 0.500149
O O7 0.547195 0.250000 0.522974
O O8 0.587704 0.386264 0.422339
O O9 0.164806 0.919070 0.279801
O O10 0.198235 0.000000 0.000000
O O11 0.362118 0.750000 0.657550
#
# Coordination Sequence:
#
# PCOD9502208 Si02
#       5
#     4  16  16  16  16
#     4  12  18  32  58  74 102 132 154 206 260 298
#     4   9  19  35  52  73 101 135 175 209 246 298
#     4  10  20  32  49  76 105 134 173 215 252 294
#     4   9  20  34  52  78  99 127 170 204 245 306
#     4   9  18  35  55  73 101 138 170 206 252 299
#
# _framework density 20.061067999999999
#
# number of rings (size 3 to 8) (size 9 to 14) (size 15 to 20)
#    0.000    3.059    0.000    2.471    0.000    4.235 
#    0.000   11.176    0.000   13.412    0.000    0.000 
#    0.000    0.000    0.000    0.000    0.000    0.000 
#
# Total GULP energy -189453.542078 kJ/mol
# GULP energy per Si atom -5572.163002 kJ/mol
# Density = 2.001541 g / cm^3
# Si number density = 20.061068 Si / 1000 Ang^3
#
#
#
# Elastic Constant Matrix: (Units=GPa)
#
#
# Indices 1 2 3 4 5 6 
#
# 1 67.9536 13.1412 51.1875 0.0000 0.0000 0.0000
# 2 13.1412 34.0928 1.4170 0.0000 0.0000 0.0000
# 3 51.1875 1.4170 104.2248 0.0000 0.0000 0.0000
# 4 0.0000 0.0000 0.0000 11.8114 0.0000 0.0000
# 5 0.0000 0.0000 0.0000 0.0000 -29.2561 0.0000
# 6 0.0000 0.0000 0.0000 0.0000 0.0000 -7.4574
#
#
#
# Elastic Compliance Matrix: (Units=1/GPa)
#
#
# Indices 1 2 3 4 5 6 
#
# 1 0.026131 -0.009544 -0.012704 0.000000 0.000000 0.000000
# 2 -0.009544 0.032834 0.004241 0.000000 0.000000 0.000000
# 3 -0.012704 0.004241 0.015776 0.000000 0.000000 0.000000
# 4 0.000000 0.000000 0.000000 0.084664 0.000000 0.000000
# 5 0.000000 0.000000 0.000000 0.000000 -0.034181 0.000000
# 6 0.000000 0.000000 0.000000 0.000000 0.000000 -0.134094
#
#
# Mechanical properties :
#
#
# Convention : Reuss Voigt Hill
#
# Bulk Modulus (GPa) = 25.82159 37.52920 31.67539
# Shear Modulus (GPa) = 124.83234 4.38794 64.61014
#
# Velocity S-wave (km/s) = 7.89691 1.48055 5.68125
# Velocity P-wave (km/s) = 9.80040 4.65519 7.67198
#
# Compressibility (1/GPa) = 0.03872729
#
# Stress axis : x y z
#
# Youngs Moduli (GPa) = 38.26849 30.45592 63.38659
#
# Poissons Ratio (x) = 0.29068 0.80526
# Poissons Ratio (y) = 0.36525 -0.26883
# Poissons Ratio (z) = 0.48616 -0.12917
#
# Static dielectric constant tensor:
#      x y z
#    x 1.737560 0.000000 0.000000 
#    y 0.000000 1.727190 0.000000 
#    z 0.000000 0.000000 1.733720 
# 
# From -- ./inp_files/14538.got.cif
#   From: 2010.05.17/outbox.cif.g08.bks.cpg/sg67_8_cif.got.tgz:14538.got - 2010.06.03 18:28:57.
