data_PCOD9502151
_publ_section_title
;
Structure prediction by ZEFSAII (Michael W. Deem and Ramdas Pophale) SiO2 
 PCOD9502151
Probable space group: C M M A
;
_chemical_formula_sum "Si O2"
_cell_formula_units_Z 120
_cell_length_a 8.010850
_cell_length_b 27.878051
_cell_length_c 29.225557
_cell_angle_alpha 90.000000
_cell_angle_beta 90.000000
_cell_angle_gamma 90.000000
_cell_volume 6526.852603
_symmetry_space_group_name_H-M "C M M A"
_symmetry_group_IT_number 67
_symmetry_cell_setting 'orthorhombic'
loop_
_space_group_symop_operation_xyz
x,y,z
-x,1/2-y,z
x,-y,-z
-x,1/2+y,-z
-x,-y,-z
x,1/2+y,-z
-x,y,z
x,1/2-y,z
1/2+x,1/2+y,z
1/2-x,-y,z
1/2+x,1/2-y,-z
1/2-x,y,-z
1/2-x,1/2-y,-z
1/2+x,y,-z
1/2-x,1/2+y,z
1/2+x,-y,z
loop_
_atom_site_type_symbol
_atom_site_label
_atom_site_fract_x
_atom_site_fract_y
_atom_site_fract_z
Si Si1 0.200721 0.896541 0.307971
Si Si2 0.798204 0.144372 0.946745
Si Si3 0.798639 0.554184 0.217697
Si Si4 0.201734 0.445516 0.886492
Si Si5 0.300107 0.802350 0.642224
Si Si6 0.800637 0.648252 0.551651
Si Si7 0.701095 0.250000 0.053475
Si Si8 0.801196 0.052890 0.398595
O O1 0.264316 0.911839 0.258258
O O2 0.267261 0.846118 0.327355
O O3 0.238705 0.935195 0.347460
O O4 0.000000 0.893128 0.304890
O O5 0.738058 0.097941 0.918618
O O6 0.740453 0.197410 0.929336
O O7 0.000000 0.144525 0.944162
O O8 0.750000 0.140054 0.000000
O O9 0.750000 0.500000 0.229789
O O10 0.738995 0.562814 0.165829
O O11 0.000000 0.557486 0.216636
O O12 0.250000 0.500000 0.900020
O O13 0.000000 0.444173 0.886503
O O14 0.500000 0.801551 0.648371
O O15 0.232601 0.750000 0.653742
O O16 0.266384 0.815110 0.589457
O O17 0.750000 0.658335 0.500000
O O18 0.739231 0.595594 0.568384
O O19 0.000000 0.648733 0.554416
O O20 0.500000 0.250000 0.057421
O O21 0.750000 0.250000 0.000000
O O22 0.000000 0.055231 0.397665
O O23 0.750000 0.000000 0.413205
#
# Coordination Sequence:
#
# PCOD9502151 Si02
#       8
#    16  16  16  16  16  16   8  16
#     4   9  17  30  49  70  92 118 149 188 226 266
#     4   9  17  29  46  66  90 120 156 197 237 279
#     4   9  17  29  46  67  92 121 152 185 223 267
#     4   9  18  31  45  64  93 126 157 191 232 280
#     4   9  18  33  52  71  92 119 150 185 227 271
#     4  10  21  35  50  69  93 121 154 188 223 266
#     4   8  14  26  44  64  84 110 148 190 232 272
#     4  10  20  32  47  69  95 121 150 184 223 269
#
# _framework density 18.385583
#
# number of rings (size 3 to 8) (size 9 to 14) (size 15 to 20)
#    0.000    2.800    0.000    1.200    0.000    4.800 
#    0.000    2.667    1.467    0.000    0.000    0.000 
#    0.000    0.000    0.000    0.000    0.000    0.000 
#
# Total GULP energy -334317.114769 kJ/mol
# GULP energy per Si atom -5571.951913 kJ/mol
# Density = 1.834374 g / cm^3
# Si number density = 18.385583 Si / 1000 Ang^3
#
#
#
# Elastic Constant Matrix: (Units=GPa)
#
#
# Indices 1 2 3 4 5 6 
#
# 1 14.0092 4.8441 1.6655 0.0000 0.0000 0.0000
# 2 4.8441 123.3333 64.1008 0.0000 0.0000 0.0000
# 3 1.6655 64.1008 88.0900 0.0000 0.0000 0.0000
# 4 0.0000 0.0000 0.0000 9.4379 0.0000 0.0000
# 5 0.0000 0.0000 0.0000 0.0000 12.0675 0.0000
# 6 0.0000 0.0000 0.0000 0.0000 0.0000 3.6455
#
#
#
# Elastic Compliance Matrix: (Units=1/GPa)
#
#
# Indices 1 2 3 4 5 6 
#
# 1 0.072434 -0.003431 0.001127 0.000000 0.000000 0.000000
# 2 -0.003431 0.013202 -0.009542 0.000000 0.000000 0.000000
# 3 0.001127 -0.009542 0.018274 0.000000 0.000000 0.000000
# 4 0.000000 0.000000 0.000000 0.105955 0.000000 0.000000
# 5 0.000000 0.000000 0.000000 0.000000 0.082867 0.000000
# 6 0.000000 0.000000 0.000000 0.000000 0.000000 0.274314
#
#
# Mechanical properties :
#
#
# Convention : Reuss Voigt Hill
#
# Bulk Modulus (GPa) = 12.46590 40.73925 26.60258
# Shear Modulus (GPa) = 8.09746 15.35166 11.72456
#
# Velocity S-wave (km/s) = 2.10091 2.89274 2.52802
# Velocity P-wave (km/s) = 3.56091 5.77613 4.79811
#
# Compressibility (1/GPa) = 0.08021882
#
# Stress axis : x y z
#
# Youngs Moduli (GPa) = 13.80567 75.74507 54.72202
#
# Poissons Ratio (x) = 0.25985 -0.06166
# Poissons Ratio (y) = 0.04736 0.52216
# Poissons Ratio (z) = -0.01556 0.72276
#
# Static dielectric constant tensor:
#      x y z
#    x 1.656300 0.000000 0.000000 
#    y 0.000000 1.712280 0.000000 
#    z 0.000000 0.000000 1.617800 
# 
# From -- ./inp_files/43937.got.cif
#   From: 2010.05.17/outbox.cif.g08.bks.cpg/sg67_22_cif.got.tgz:43937.got - 2010.06.03 18:28:57.
