data_PCOD9502747
_publ_section_title
;
Structure prediction by ZEFSAII (Michael W. Deem and Ramdas Pophale) SiO2 
 PCOD9502747
Probable space group: C M M A
;
_chemical_formula_sum "Si O2"
_cell_formula_units_Z 112
_cell_length_a 29.873592
_cell_length_b 13.867593
_cell_length_c 12.342632
_cell_angle_alpha 90.000000
_cell_angle_beta 90.000000
_cell_angle_gamma 90.000000
_cell_volume 5113.241592
_symmetry_space_group_name_H-M "C M M A"
_symmetry_group_IT_number 67
_symmetry_cell_setting 'orthorhombic'
loop_
_space_group_symop_operation_xyz
x,y,z
-x,1/2-y,z
x,-y,-z
-x,1/2+y,-z
-x,-y,-z
x,1/2+y,-z
-x,y,z
x,1/2-y,z
1/2+x,1/2+y,z
1/2-x,-y,z
1/2+x,1/2-y,-z
1/2-x,y,-z
1/2-x,1/2-y,-z
1/2+x,y,-z
1/2-x,1/2+y,z
1/2+x,-y,z
loop_
_atom_site_type_symbol
_atom_site_label
_atom_site_fract_x
_atom_site_fract_y
_atom_site_fract_z
Si Si1 0.293465 0.366906 0.430225
Si Si2 0.866886 0.632674 0.042308
Si Si3 0.639240 0.365382 0.609758
Si Si4 0.450495 0.523093 0.372908
Si Si5 0.051917 0.136211 0.807496
Si Si6 0.781198 0.632385 0.183013
Si Si7 0.318485 0.367269 0.833471
O O1 0.293696 0.250000 0.426538
O O2 0.250000 0.393752 0.500000
O O3 0.337810 0.395467 0.496586
O O4 0.288776 0.398938 0.306927
O O5 0.867911 0.750000 0.041079
O O6 0.912833 0.604571 0.100867
O O7 0.823677 0.603545 0.112593
O O8 0.855583 0.600972 0.920310
O O9 0.637339 0.250000 0.607134
O O10 0.590664 0.405293 0.636685
O O11 0.670395 0.393836 0.710651
O O12 0.452227 0.500000 0.500000
O O13 0.500000 0.560653 0.341294
O O14 0.442011 0.428781 0.299370
O O15 0.059641 0.250000 0.783106
O O16 0.000000 0.126444 0.842026
O O17 0.780765 0.750000 0.182126
O O18 0.732270 0.602573 0.141199
O O19 0.318538 0.250000 0.837022
#
# Coordination Sequence:
#
# PCOD9502747 Si02
#       7
#    16  16  16  16  16  16  16
#     4   9  15  26  46  77 114 154 193 228 274 333
#     4   9  17  28  50  82 112 148 195 239 287 343
#     4  10  20  34  57  85 119 157 191 231 284 349
#     4  10  23  41  59  83 115 148 189 242 296 351
#     4   9  19  38  61  83 109 145 195 253 303 348
#     4   9  15  24  44  77 116 151 190 235 277 331
#     4   9  16  29  48  79 120 156 187 228 281 339
#
# _framework density 21.903912999999999
#
# number of rings (size 3 to 8) (size 9 to 14) (size 15 to 20)
#    0.000    2.714    1.429    0.429    2.000    2.571 
#    0.000    2.857    0.000    7.286    0.000    2.000 
#    0.000    0.571    0.000    0.000    0.000    0.000 
#
# Total GULP energy -312947.919811 kJ/mol
# GULP energy per Si atom -5588.355711 kJ/mol
# Density = 2.185406 g / cm^3
# Si number density = 21.903913 Si / 1000 Ang^3
#
#
#
# Elastic Constant Matrix: (Units=GPa)
#
#
# Indices 1 2 3 4 5 6 
#
# 1 114.4270 33.5281 21.3646 0.0000 0.0000 0.0000
# 2 33.5281 75.5709 5.8269 0.0000 0.0000 0.0000
# 3 21.3646 5.8269 72.3301 0.0000 0.0000 0.0000
# 4 0.0000 0.0000 0.0000 8.1648 0.0000 0.0000
# 5 0.0000 0.0000 0.0000 0.0000 25.8160 0.0000
# 6 0.0000 0.0000 0.0000 0.0000 0.0000 -12.9900
#
#
#
# Elastic Compliance Matrix: (Units=1/GPa)
#
#
# Indices 1 2 3 4 5 6 
#
# 1 0.010566 -0.004475 -0.002760 0.000000 0.000000 0.000000
# 2 -0.004475 0.015210 0.000096 0.000000 0.000000 0.000000
# 3 -0.002760 0.000096 0.014633 0.000000 0.000000 0.000000
# 4 0.000000 0.000000 0.000000 0.122477 0.000000 0.000000
# 5 0.000000 0.000000 0.000000 0.000000 0.038736 0.000000
# 6 0.000000 0.000000 0.000000 0.000000 0.000000 -0.076982
#
#
# Mechanical properties :
#
#
# Convention : Reuss Voigt Hill
#
# Bulk Modulus (GPa) = 38.26766 42.64081 40.45423
# Shear Modulus (GPa) = 33.86895 17.63873 25.75384
#
# Velocity S-wave (km/s) = 3.93651 2.84082 3.43266
# Velocity P-wave (km/s) = 6.17819 5.50180 5.84978
#
# Compressibility (1/GPa) = 0.02613173
#
# Stress axis : x y z
#
# Youngs Moduli (GPa) = 94.64560 65.74417 68.33832
#
# Poissons Ratio (x) = 0.29419 0.18864
# Poissons Ratio (y) = 0.42352 -0.00659
# Poissons Ratio (z) = 0.26126 -0.00634
#
# Static dielectric constant tensor:
#      x y z
#    x 1.790680 0.000000 0.000000 
#    y 0.000000 1.861790 0.000000 
#    z 0.000000 0.000000 1.777420 
# 
# From -- ./inp_files/18564.got.cif
#   From: 2010.05.17/outbox.cif.g08.bks.cpg/sg67_10_cif.got.tgz:18564.got - 2010.06.03 18:28:57.
