data_PCOD9502503
_publ_section_title
;
Structure prediction by ZEFSAII (Michael W. Deem and Ramdas Pophale) SiO2 
 PCOD9502503
Probable space group: C M M A
;
_chemical_formula_sum "Si O2"
_cell_formula_units_Z 96
_cell_length_a 9.377582
_cell_length_b 14.204781
_cell_length_c 31.818893
_cell_angle_alpha 90.000000
_cell_angle_beta 90.000000
_cell_angle_gamma 90.000000
_cell_volume 4238.483326
_symmetry_space_group_name_H-M "C M M A"
_symmetry_group_IT_number 67
_symmetry_cell_setting 'orthorhombic'
loop_
_space_group_symop_operation_xyz
x,y,z
-x,1/2-y,z
x,-y,-z
-x,1/2+y,-z
-x,-y,-z
x,1/2+y,-z
-x,y,z
x,1/2-y,z
1/2+x,1/2+y,z
1/2-x,-y,z
1/2+x,1/2-y,-z
1/2-x,y,-z
1/2-x,1/2-y,-z
1/2+x,y,-z
1/2-x,1/2+y,z
1/2+x,-y,z
loop_
_atom_site_type_symbol
_atom_site_label
_atom_site_fract_x
_atom_site_fract_y
_atom_site_fract_z
Si Si1 0.337315 0.135126 0.624142
Si Si2 0.338052 0.635207 0.706459
Si Si3 0.171150 0.399797 0.960229
Si Si4 0.159926 0.635006 0.787771
Si Si5 0.837082 0.135138 0.541410
Si Si6 0.657214 0.640625 0.864191
O O1 0.500000 0.101215 0.622396
O O2 0.342378 0.250000 0.624013
O O3 0.257759 0.107557 0.666812
O O4 0.246633 0.107689 0.583412
O O5 0.500000 0.601050 0.702970
O O6 0.342989 0.750000 0.706070
O O7 0.264695 0.608025 0.750115
O O8 0.250000 0.500000 0.957505
O O9 0.192066 0.360245 0.913558
O O10 0.000000 0.405085 0.967606
O O11 0.250000 0.353037 0.000000
O O12 0.152406 0.750000 0.787101
O O13 0.223637 0.604373 0.832570
O O14 0.000000 0.599925 0.781125
O O15 0.842302 0.250000 0.541363
O O16 0.750000 0.107691 0.500000
O O17 0.000000 0.101229 0.540890
O O18 0.500000 0.596190 0.858921
O O19 0.643396 0.750000 0.852448
#
# Coordination Sequence:
#
# PCOD9502503 Si02
#       6
#    16  16  16  16  16  16
#     4   9  15  21  28  38  52  71  99 136 177 224
#     4   9  15  22  32  45  63  88 115 144 182 231
#     4  10  20  34  52  71  93 121 151 183 218 258
#     4   9  16  25  38  57  79 102 128 160 199 242
#     4   9  15  21  27  34  45  63  90 127 174 226
#     4   9  18  32  48  67  91 118 147 179 217 260
#
# _framework density 22.649609999999999
#
# number of rings (size 3 to 8) (size 9 to 14) (size 15 to 20)
#    0.000    2.833    0.000    3.000    0.000    9.667 
#    0.000    0.000    0.000    0.000    0.000    0.000 
#    0.000    0.000    0.000    0.000    0.000    0.000 
#
# Total GULP energy -268158.419947 kJ/mol
# GULP energy per Si atom -5586.633749 kJ/mol
# Density = 2.259806 g / cm^3
# Si number density = 22.649610 Si / 1000 Ang^3
#
#
#
# Elastic Constant Matrix: (Units=GPa)
#
#
# Indices 1 2 3 4 5 6 
#
# 1 230.7069 8.9832 129.9089 0.0000 0.0000 0.0000
# 2 8.9832 67.0197 -9.8729 0.0000 0.0000 0.0000
# 3 129.9089 -9.8729 182.4519 0.0000 0.0000 0.0000
# 4 0.0000 0.0000 0.0000 149.8811 0.0000 0.0000
# 5 0.0000 0.0000 0.0000 0.0000 43.5441 0.0000
# 6 0.0000 0.0000 0.0000 0.0000 0.0000 0.5039
#
#
#
# Elastic Compliance Matrix: (Units=1/GPa)
#
#
# Indices 1 2 3 4 5 6 
#
# 1 0.007443 -0.001793 -0.005397 0.000000 0.000000 0.000000
# 2 -0.001793 0.015473 0.002114 0.000000 0.000000 0.000000
# 3 -0.005397 0.002114 0.009438 0.000000 0.000000 0.000000
# 4 0.000000 0.000000 0.000000 0.006672 0.000000 0.000000
# 5 0.000000 0.000000 0.000000 0.000000 0.022965 0.000000
# 6 0.000000 0.000000 0.000000 0.000000 0.000000 1.984649
#
#
# Mechanical properties :
#
#
# Convention : Reuss Voigt Hill
#
# Bulk Modulus (GPa) = 45.04044 82.02408 63.53226
# Shear Modulus (GPa) = 2.42226 62.19642 32.30934
#
# Velocity S-wave (km/s) = 1.03526 5.24594 3.78098
# Velocity P-wave (km/s) = 4.62147 8.54319 6.86819
#
# Compressibility (1/GPa) = 0.02220227
#
# Stress axis : x y z
#
# Youngs Moduli (GPa) = 134.35284 64.63025 105.95741
#
# Poissons Ratio (x) = 0.11586 0.57181
# Poissons Ratio (y) = 0.24085 -0.22396
# Poissons Ratio (z) = 0.72505 -0.13661
#
# Static dielectric constant tensor:
#      x y z
#    x 1.790680 0.000000 0.000000 
#    y 0.000000 2.018720 0.000000 
#    z 0.000000 0.000000 1.806740 
# 
# From -- ./inp_files/43672.got.cif
#   From: 2010.05.17/outbox.cif.g08.bks.cpg/sg67_22_cif.got.tgz:43672.got - 2010.06.03 18:28:57.
