data_PCOD9502331
_publ_section_title
;
Structure prediction by ZEFSAII (Michael W. Deem and Ramdas Pophale) SiO2 
 PCOD9502331
Probable space group: C M M A
;
_chemical_formula_sum "Si O2"
_cell_formula_units_Z 96
_cell_length_a 24.145744
_cell_length_b 8.753655
_cell_length_c 26.539538
_cell_angle_alpha 90.000000
_cell_angle_beta 90.000000
_cell_angle_gamma 90.000000
_cell_volume 5609.489977
_symmetry_space_group_name_H-M "C M M A"
_symmetry_group_IT_number 67
_symmetry_cell_setting 'orthorhombic'
loop_
_space_group_symop_operation_xyz
x,y,z
-x,1/2-y,z
x,-y,-z
-x,1/2+y,-z
-x,-y,-z
x,1/2+y,-z
-x,y,z
x,1/2-y,z
1/2+x,1/2+y,z
1/2-x,-y,z
1/2+x,1/2-y,-z
1/2-x,y,-z
1/2-x,1/2-y,-z
1/2+x,y,-z
1/2-x,1/2+y,z
1/2+x,-y,z
loop_
_atom_site_type_symbol
_atom_site_label
_atom_site_fract_x
_atom_site_fract_y
_atom_site_fract_z
Si Si1 0.885691 0.566327 0.054285
Si Si2 0.000000 0.432917 0.215387
Si Si3 0.312296 0.066646 0.662890
Si Si4 0.688823 0.433743 0.148884
Si Si5 0.812132 0.432154 0.449550
Si Si6 0.383341 0.566348 0.753757
Si Si7 0.000000 0.566699 0.903939
O O1 0.888163 0.750000 0.052236
O O2 0.842208 0.520343 0.097580
O O3 0.945422 0.502181 0.070590
O O4 0.870527 0.500000 0.000000
O O5 0.944758 0.500681 0.239994
O O6 0.000000 0.250000 0.219779
O O7 0.000000 0.471628 0.155627
O O8 0.309183 0.250000 0.667902
O O9 0.334269 0.031455 0.606250
O O10 0.250000 0.000000 0.667924
O O11 0.351568 0.997039 0.705202
O O12 0.692100 0.250000 0.149438
O O13 0.750000 0.500000 0.152295
O O14 0.651774 0.480489 0.196719
O O15 0.839506 0.500000 0.500000
O O16 0.809170 0.250000 0.454651
O O17 0.750000 0.500000 0.448413
O O18 0.385289 0.750000 0.752067
O O19 0.000000 0.750000 0.909286
#
# Coordination Sequence:
#
# PCOD9502331 Si02
#       7
#    16   8  16  16  16  16   8
#     4  11  23  40  59  82 110 140 175 219 265 318
#     4  11  23  38  60  85 108 137 174 221 270 323
#     4  10  20  33  50  78 113 149 186 227 271 319
#     4  10  23  39  57  79 107 141 176 216 262 313
#     4   9  16  26  43  68 103 143 184 225 267 313
#     4  11  22  38  58  81 108 142 180 222 271 323
#     4  11  22  38  61  87 108 137 173 215 268 319
#
# _framework density 17.113855000000001
#
# number of rings (size 3 to 8) (size 9 to 14) (size 15 to 20)
#    0.000    1.667    1.667    3.750    0.000    7.000 
#    0.000    1.667    0.000    0.000    0.000    0.583 
#    0.000    0.000    0.000    0.000    0.000    0.000 
#
# Total GULP energy -268014.014482 kJ/mol
# GULP energy per Si atom -5583.625302 kJ/mol
# Density = 1.707490 g / cm^3
# Si number density = 17.113855 Si / 1000 Ang^3
#
#
#
# Elastic Constant Matrix: (Units=GPa)
#
#
# Indices 1 2 3 4 5 6 
#
# 1 122.8294 37.0628 79.6206 0.0000 0.0000 0.0000
# 2 37.0628 59.8528 62.2721 0.0000 0.0000 0.0000
# 3 79.6206 62.2721 185.7737 0.0000 0.0000 0.0000
# 4 0.0000 0.0000 0.0000 30.3674 0.0000 0.0000
# 5 0.0000 0.0000 0.0000 0.0000 -14.7984 0.0000
# 6 0.0000 0.0000 0.0000 0.0000 0.0000 27.9218
#
#
#
# Elastic Compliance Matrix: (Units=1/GPa)
#
#
# Indices 1 2 3 4 5 6 
#
# 1 0.011635 -0.003097 -0.003949 0.000000 0.000000 0.000000
# 2 -0.003097 0.026479 -0.007549 0.000000 0.000000 0.000000
# 3 -0.003949 -0.007549 0.009606 0.000000 0.000000 0.000000
# 4 0.000000 0.000000 0.000000 0.032930 0.000000 0.000000
# 5 0.000000 0.000000 0.000000 0.000000 -0.067575 0.000000
# 6 0.000000 0.000000 0.000000 0.000000 0.000000 0.035814
#
#
# Mechanical properties :
#
#
# Convention : Reuss Voigt Hill
#
# Bulk Modulus (GPa) = 53.96111 80.70741 67.33426
# Shear Modulus (GPa) = 59.34360 21.33152 40.33756
#
# Velocity S-wave (km/s) = 5.89500 3.53434 4.86017
# Velocity P-wave (km/s) = 8.82801 7.99480 8.42172
#
# Compressibility (1/GPa) = 0.01853187
#
# Stress axis : x y z
#
# Youngs Moduli (GPa) = 85.94410 37.76576 104.10505
#
# Poissons Ratio (x) = 0.11695 0.41109
# Poissons Ratio (y) = 0.26613 0.78586
# Poissons Ratio (z) = 0.33938 0.28508
#
# Static dielectric constant tensor:
#      x y z
#    x 1.533660 0.000000 0.000000 
#    y 0.000000 1.573440 0.000000 
#    z 0.000000 0.000000 1.608350 
# 
# From -- ./inp_files/40836.got.cif
#   From: 2010.05.17/outbox.cif.g08.bks.cpg/sg67_21_cif.got.tgz:40836.got - 2010.06.03 18:28:57.
