data_PCOD9502044
_publ_section_title
;
Structure prediction by ZEFSAII (Michael W. Deem and Ramdas Pophale) SiO2 
 PCOD9502044
Probable space group: C M M A
;
_chemical_formula_sum "Si O2"
_cell_formula_units_Z 80
_cell_length_a 26.314990
_cell_length_b 25.091307
_cell_length_c 5.727027
_cell_angle_alpha 90.000000
_cell_angle_beta 90.000000
_cell_angle_gamma 90.000000
_cell_volume 3781.427029
_symmetry_space_group_name_H-M "C M M A"
_symmetry_group_IT_number 67
_symmetry_cell_setting 'orthorhombic'
loop_
_space_group_symop_operation_xyz
x,y,z
-x,1/2-y,z
x,-y,-z
-x,1/2+y,-z
-x,-y,-z
x,1/2+y,-z
-x,y,z
x,1/2-y,z
1/2+x,1/2+y,z
1/2-x,-y,z
1/2+x,1/2-y,-z
1/2-x,y,-z
1/2-x,1/2-y,-z
1/2+x,y,-z
1/2-x,1/2+y,z
1/2+x,-y,z
loop_
_atom_site_type_symbol
_atom_site_label
_atom_site_fract_x
_atom_site_fract_y
_atom_site_fract_z
Si Si1 0.388896 0.364108 0.115266
Si Si2 0.803196 0.750000 0.756457
Si Si3 0.288978 0.364006 0.811815
Si Si4 0.653702 0.940246 0.491881
Si Si5 0.863962 0.250000 0.740158
Si Si6 0.944066 0.053661 0.155802
O O1 0.366030 0.409843 0.281358
O O2 0.394052 0.306515 0.238135
O O3 0.344894 0.356346 0.923373
O O4 0.436913 0.392727 0.998164
O O5 0.771687 0.804668 0.746226
O O6 0.837662 0.750000 0.518398
O O7 0.829627 0.750000 0.018140
O O8 0.301916 0.403159 0.605686
O O9 0.250000 0.386351 0.000000
O O10 0.603311 0.945382 0.330216
O O11 0.673429 0.000000 0.500000
O O12 0.000000 0.053515 0.267869
O O13 0.940397 0.000000 0.000000
#
# Coordination Sequence:
#
# PCOD9502044 Si02
#       6
#    16   8  16  16   8  16
#     4  10  21  39  59  86 122 160 204 258 316 387
#     4  10  19  38  62  94 120 162 219 277 314 368
#     4  10  22  38  58  86 124 165 213 263 318 377
#     4  11  21  37  60  84 122 159 207 261 320 384
#     4  10  20  38  64  90 127 170 210 261 326 378
#     4  10  21  37  62  91 117 150 201 263 325 382
#
# _framework density 21.156033999999998
#
# number of rings (size 3 to 8) (size 9 to 14) (size 15 to 20)
#    0.000    1.800    4.000    0.300    0.000    2.000 
#    0.000    5.500    0.000    0.000    0.000    0.000 
#    0.000    0.000    0.000    0.000    0.000    0.000 
#
# Total GULP energy -222956.063356 kJ/mol
# GULP energy per Si atom -5573.901584 kJ/mol
# Density = 2.110788 g / cm^3
# Si number density = 21.156034 Si / 1000 Ang^3
#
#
#
# Elastic Constant Matrix: (Units=GPa)
#
#
# Indices 1 2 3 4 5 6 
#
# 1 71.6292 4.2775 8.2587 0.0000 0.0000 0.0000
# 2 4.2775 130.9077 10.3449 0.0000 0.0000 0.0000
# 3 8.2587 10.3449 62.0174 0.0000 0.0000 0.0000
# 4 0.0000 0.0000 0.0000 23.8949 0.0000 0.0000
# 5 0.0000 0.0000 0.0000 0.0000 22.4841 0.0000
# 6 0.0000 0.0000 0.0000 0.0000 0.0000 56.0430
#
#
#
# Elastic Compliance Matrix: (Units=1/GPa)
#
#
# Indices 1 2 3 4 5 6 
#
# 1 0.014192 -0.000319 -0.001837 0.000000 0.000000 0.000000
# 2 -0.000319 0.007748 -0.001250 0.000000 0.000000 0.000000
# 3 -0.001837 -0.001250 0.016578 0.000000 0.000000 0.000000
# 4 0.000000 0.000000 0.000000 0.041850 0.000000 0.000000
# 5 0.000000 0.000000 0.000000 0.000000 0.044476 0.000000
# 6 0.000000 0.000000 0.000000 0.000000 0.000000 0.017843
#
#
# Mechanical properties :
#
#
# Convention : Reuss Voigt Hill
#
# Bulk Modulus (GPa) = 31.53905 34.47962 33.00933
# Shear Modulus (GPa) = 31.23706 36.59592 33.91649
#
# Velocity S-wave (km/s) = 3.84670 4.16361 4.00829
# Velocity P-wave (km/s) = 5.88810 6.28071 6.08757
#
# Compressibility (1/GPa) = 0.03170673
#
# Stress axis : x y z
#
# Youngs Moduli (GPa) = 70.46427 129.06284 60.32238
#
# Poissons Ratio (x) = 0.04112 0.11079
# Poissons Ratio (y) = 0.02245 0.07540
# Poissons Ratio (z) = 0.12942 0.16133
#
# Static dielectric constant tensor:
#      x y z
#    x 1.742360 0.000000 0.000000 
#    y 0.000000 1.951440 0.000000 
#    z 0.000000 0.000000 2.243220 
# 
# From -- ./inp_files/3571.got.cif
#   From: 2010.05.17/outbox.cif.g08.bks.cpg/sg67_2_cif.got.tgz:3571.got - 2010.06.03 18:28:57.
