data_PCOD9502677
_publ_section_title
;
Structure prediction by ZEFSAII (Michael W. Deem and Ramdas Pophale) SiO2 
 PCOD9502677
Probable space group: C M M A
;
_chemical_formula_sum "Si O2"
_cell_formula_units_Z 64
_cell_length_a 13.812818
_cell_length_b 18.626627
_cell_length_c 13.181681
_cell_angle_alpha 90.000000
_cell_angle_beta 90.000000
_cell_angle_gamma 90.000000
_cell_volume 3391.464729
_symmetry_space_group_name_H-M "C M M A"
_symmetry_group_IT_number 67
_symmetry_cell_setting 'orthorhombic'
loop_
_space_group_symop_operation_xyz
x,y,z
-x,1/2-y,z
x,-y,-z
-x,1/2+y,-z
-x,-y,-z
x,1/2+y,-z
-x,y,z
x,1/2-y,z
1/2+x,1/2+y,z
1/2-x,-y,z
1/2+x,1/2-y,-z
1/2-x,y,-z
1/2-x,1/2-y,-z
1/2+x,y,-z
1/2-x,1/2+y,z
1/2+x,-y,z
loop_
_atom_site_type_symbol
_atom_site_label
_atom_site_fract_x
_atom_site_fract_y
_atom_site_fract_z
Si Si1 0.500000 0.668366 0.850498
Si Si2 0.000000 0.670816 0.390035
Si Si3 0.362538 0.081298 0.519118
Si Si4 0.389559 0.835965 0.269531
Si Si5 0.716731 0.162977 0.113412
O O1 0.500000 0.750000 0.894864
O O2 0.500000 0.673697 0.729504
O O3 0.394196 0.635625 0.874737
O O4 0.908909 0.629941 0.433126
O O5 0.000000 0.750000 0.433985
O O6 0.250000 0.081903 0.500000
O O7 0.384741 0.116356 0.628340
O O8 0.396015 0.000000 0.500000
O O9 0.500000 0.844267 0.227122
O O10 0.378495 0.750000 0.292127
O O11 0.301120 0.857389 0.194188
O O12 0.710891 0.250000 0.122781
O O13 0.750000 0.145375 0.000000
#
# Coordination Sequence:
#
# PCOD9502677 Si02
#       5
#     8   8  16  16  16
#     4   9  18  31  48  75 107 141 181 226 282 340
#     4  11  21  35  56  81 113 151 189 238 292 348
#     4  11  23  37  55  82 117 154 197 236 288 352
#     4  10  20  34  54  84 117 152 194 242 294 348
#     4   9  18  31  51  79 113 148 186 238 293 345
#
# _framework density 18.870901
#
# number of rings (size 3 to 8) (size 9 to 14) (size 15 to 20)
#    0.000    2.000    1.250    2.625    1.750    4.000 
#    0.000    0.000    0.000    0.000    0.000   15.750 
#    0.000    0.000    0.000    0.000    0.000    0.250 
#
# Total GULP energy -178217.470817 kJ/mol
# GULP energy per Si atom -5569.295963 kJ/mol
# Density = 1.882795 g / cm^3
# Si number density = 18.870901 Si / 1000 Ang^3
#
#
#
# Elastic Constant Matrix: (Units=GPa)
#
#
# Indices 1 2 3 4 5 6 
#
# 1 196.0601 34.2746 57.8328 0.0000 0.0000 0.0000
# 2 34.2746 69.9706 19.4275 0.0000 0.0000 0.0000
# 3 57.8328 19.4275 86.6214 0.0000 0.0000 0.0000
# 4 0.0000 0.0000 0.0000 -3.6818 0.0000 0.0000
# 5 0.0000 0.0000 0.0000 0.0000 32.4098 0.0000
# 6 0.0000 0.0000 0.0000 0.0000 0.0000 -9.8329
#
#
#
# Elastic Compliance Matrix: (Units=1/GPa)
#
#
# Indices 1 2 3 4 5 6 
#
# 1 0.006643 -0.002157 -0.003952 0.000000 0.000000 0.000000
# 2 -0.002157 0.015941 -0.002135 0.000000 0.000000 0.000000
# 3 -0.003952 -0.002135 0.014662 0.000000 0.000000 0.000000
# 4 0.000000 0.000000 0.000000 -0.271607 0.000000 0.000000
# 5 0.000000 0.000000 0.000000 0.000000 0.030855 0.000000
# 6 0.000000 0.000000 0.000000 0.000000 0.000000 -0.101699
#
#
# Mechanical properties :
#
#
# Convention : Reuss Voigt Hill
#
# Bulk Modulus (GPa) = 48.17300 63.96912 56.07106
# Shear Modulus (GPa) = -17.74316 19.85350 1.05517
#
# Velocity S-wave (km/s) = -3.06966 3.24708 0.74858
# Velocity P-wave (km/s) = 3.60823 6.93036 5.52491
#
# Compressibility (1/GPa) = 0.02075852
#
# Stress axis : x y z
#
# Youngs Moduli (GPa) = 150.53092 62.73084 68.20529
#
# Poissons Ratio (x) = 0.13531 0.26952
# Poissons Ratio (y) = 0.32469 0.14563
# Poissons Ratio (z) = 0.59483 0.13394
#
# Static dielectric constant tensor:
#      x y z
#    x 1.698900 0.000000 0.000000 
#    y 0.000000 1.663060 0.000000 
#    z 0.000000 0.000000 1.621700 
# 
# From -- ./inp_files/17519.got.cif
#   From: 2010.05.17/outbox.cif.g08.bks.cpg/sg67_9_cif.got.tgz:17519.got - 2010.06.03 18:28:57.
