data_PCOD9502383
_publ_section_title
;
Structure prediction by ZEFSAII (Michael W. Deem and Ramdas Pophale) SiO2 
 PCOD9502383
Probable space group: C M M A
;
_chemical_formula_sum "Si O2"
_cell_formula_units_Z 80
_cell_length_a 10.222216
_cell_length_b 26.644779
_cell_length_c 16.946322
_cell_angle_alpha 90.000000
_cell_angle_beta 90.000000
_cell_angle_gamma 90.000000
_cell_volume 4615.647459
_symmetry_space_group_name_H-M "C M M A"
_symmetry_group_IT_number 67
_symmetry_cell_setting 'orthorhombic'
loop_
_space_group_symop_operation_xyz
x,y,z
-x,1/2-y,z
x,-y,-z
-x,1/2+y,-z
-x,-y,-z
x,1/2+y,-z
-x,y,z
x,1/2-y,z
1/2+x,1/2+y,z
1/2-x,-y,z
1/2+x,1/2-y,-z
1/2-x,y,-z
1/2-x,1/2-y,-z
1/2+x,y,-z
1/2-x,1/2+y,z
1/2+x,-y,z
loop_
_atom_site_type_symbol
_atom_site_label
_atom_site_fract_x
_atom_site_fract_y
_atom_site_fract_z
Si Si1 0.500000 0.553241 0.392042
Si Si2 0.655371 0.307480 0.242024
Si Si3 0.348794 0.848288 0.930510
Si Si4 0.500000 0.065819 0.424346
Si Si5 0.848245 0.455675 0.849218
Si Si6 0.264132 0.093546 0.316020
O O1 0.500000 0.493219 0.402297
O O2 0.500000 0.572883 0.481964
O O3 0.627940 0.571651 0.346041
O O4 0.500000 0.318302 0.255665
O O5 0.681270 0.250000 0.262993
O O6 0.675877 0.316529 0.148801
O O7 0.738272 0.348666 0.288607
O O8 0.500000 0.840733 0.953982
O O9 0.333661 0.906499 0.903815
O O10 0.250000 0.836151 0.000000
O O11 0.371164 0.088186 0.384403
O O12 0.750000 0.500000 0.871448
O O13 0.814279 0.437255 0.760521
O O14 0.000000 0.471747 0.851644
#
# Coordination Sequence:
#
# PCOD9502383 Si02
#       6
#     8  16  16   8  16  16
#     4  11  24  32  55  85 118 147 173 221 279 317
#     4   9  18  37  63  81 101 145 192 226 270 326
#     4   9  19  35  52  78 110 138 177 225 271 323
#     4  11  20  38  55  81 114 151 183 211 263 337
#     4  10  20  33  52  75 105 147 188 222 262 322
#     4  11  20  36  55  81 111 144 186 229 266 321
#
# _framework density 17.332345
#
# number of rings (size 3 to 8) (size 9 to 14) (size 15 to 20)
#    0.000    2.000    2.000    3.600    1.400    3.200 
#    5.400    2.500    0.000    3.600    0.000    0.000 
#    0.000    0.000    0.000    0.000    0.000    0.000 
#
# Total GULP energy -223335.363236 kJ/mol
# GULP energy per Si atom -5583.384081 kJ/mol
# Density = 1.729290 g / cm^3
# Si number density = 17.332345 Si / 1000 Ang^3
#
#
#
# Elastic Constant Matrix: (Units=GPa)
#
#
# Indices 1 2 3 4 5 6 
#
# 1 91.2281 21.9564 31.7105 0.0000 0.0000 0.0000
# 2 21.9564 65.8443 7.7432 0.0000 0.0000 0.0000
# 3 31.7105 7.7432 57.7283 0.0000 0.0000 0.0000
# 4 0.0000 0.0000 0.0000 6.3053 0.0000 0.0000
# 5 0.0000 0.0000 0.0000 0.0000 9.1992 0.0000
# 6 0.0000 0.0000 0.0000 0.0000 0.0000 11.4955
#
#
#
# Elastic Compliance Matrix: (Units=1/GPa)
#
#
# Indices 1 2 3 4 5 6 
#
# 1 0.014498 -0.003961 -0.007433 0.000000 0.000000 0.000000
# 2 -0.003961 0.016513 -0.000039 0.000000 0.000000 0.000000
# 3 -0.007433 -0.000039 0.021411 0.000000 0.000000 0.000000
# 4 0.000000 0.000000 0.000000 0.158598 0.000000 0.000000
# 5 0.000000 0.000000 0.000000 0.000000 0.108705 0.000000
# 6 0.000000 0.000000 0.000000 0.000000 0.000000 0.086991
#
#
# Mechanical properties :
#
#
# Convention : Reuss Voigt Hill
#
# Bulk Modulus (GPa) = 33.83364 37.51344 35.67354
# Shear Modulus (GPa) = 11.37829 15.62602 13.50216
#
# Velocity S-wave (km/s) = 2.56496 3.00584 2.79411
# Velocity P-wave (km/s) = 5.32306 5.80839 5.57101
#
# Compressibility (1/GPa) = 0.02955638
#
# Stress axis : x y z
#
# Youngs Moduli (GPa) = 68.97336 60.55966 46.70558
#
# Poissons Ratio (x) = 0.23985 0.34715
# Poissons Ratio (y) = 0.27317 0.00184
# Poissons Ratio (z) = 0.51267 0.00238
#
# Static dielectric constant tensor:
#      x y z
#    x 1.564490 0.000000 0.000000 
#    y 0.000000 1.588740 0.000000 
#    z 0.000000 0.000000 1.576660 
# 
# From -- ./inp_files/32175.got.cif
#   From: 2010.05.17/outbox.cif.g08.bks.cpg/sg67_17_cif.got.tgz:32175.got - 2010.06.03 18:28:57.
