data_PCOD9502627
_publ_section_title
;
Structure prediction by ZEFSAII (Michael W. Deem and Ramdas Pophale) SiO2 
 PCOD9502627
Probable space group: C M M A
;
_chemical_formula_sum "Si O2"
_cell_formula_units_Z 104
_cell_length_a 8.901502
_cell_length_b 20.087108
_cell_length_c 29.613980
_cell_angle_alpha 90.000000
_cell_angle_beta 90.000000
_cell_angle_gamma 90.000000
_cell_volume 5295.140488
_symmetry_space_group_name_H-M "C M M A"
_symmetry_group_IT_number 67
_symmetry_cell_setting 'orthorhombic'
loop_
_space_group_symop_operation_xyz
x,y,z
-x,1/2-y,z
x,-y,-z
-x,1/2+y,-z
-x,-y,-z
x,1/2+y,-z
-x,y,z
x,1/2-y,z
1/2+x,1/2+y,z
1/2-x,-y,z
1/2+x,1/2-y,-z
1/2-x,y,-z
1/2-x,1/2-y,-z
1/2+x,y,-z
1/2-x,1/2+y,z
1/2+x,-y,z
loop_
_atom_site_type_symbol
_atom_site_label
_atom_site_fract_x
_atom_site_fract_y
_atom_site_fract_z
Si Si1 0.819186 0.930160 0.449869
Si Si2 0.320148 0.074293 0.704619
Si Si3 0.680379 0.171209 0.619228
Si Si4 0.818278 0.173956 0.776291
Si Si5 0.825882 0.844176 0.120091
Si Si6 0.825909 0.429762 0.956765
Si Si7 0.324146 0.750000 0.048636
O O1 0.750000 0.923960 0.500000
O O2 0.766135 0.866710 0.421005
O O3 0.000000 0.935096 0.451320
O O4 0.750000 0.000000 0.431078
O O5 0.500000 0.067093 0.708107
O O6 0.288175 0.124278 0.662597
O O7 0.255510 0.115885 0.746962
O O8 0.250000 0.000000 0.700130
O O9 0.500000 0.168915 0.611294
O O10 0.720414 0.250000 0.624647
O O11 0.777288 0.250000 0.762120
O O12 0.775124 0.165695 0.829018
O O13 0.000000 0.168651 0.773390
O O14 0.821671 0.915081 0.097047
O O15 0.730175 0.808713 0.081448
O O16 0.000000 0.821613 0.118461
O O17 0.750000 0.500000 0.958113
O O18 0.000000 0.427629 0.968575
O O19 0.750000 0.392306 0.000000
O O20 0.500000 0.750000 0.042525
O O21 0.250000 0.750000 0.000000
#
# Coordination Sequence:
#
# PCOD9502627 Si02
#       7
#    16  16  16  16  16  16   8
#     4  11  22  38  62  92 129 174 223 273 325 385
#     4  11  24  42  65  93 125 161 208 261 315 376
#     4  10  22  41  64  92 128 168 211 267 327 382
#     4  10  21  40  65  89 121 159 195 243 308 372
#     4  10  21  39  59  82 113 147 183 230 288 346
#     4  10  20  34  54  76 105 141 179 223 272 330
#     4  12  24  36  56  84 114 150 190 234 281 338
#
# _framework density 19.640649
#
# number of rings (size 3 to 8) (size 9 to 14) (size 15 to 20)
#    0.000    1.538    0.769    5.308    0.000    7.692 
#    0.000    1.538    0.000    0.000    0.000    0.000 
#    0.000    0.000    0.000    0.000    0.000    0.000 
#
# Total GULP energy -289555.183795 kJ/mol
# GULP energy per Si atom -5568.368919 kJ/mol
# Density = 1.959595 g / cm^3
# Si number density = 19.640649 Si / 1000 Ang^3
#
#
#
# Elastic Constant Matrix: (Units=GPa)
#
#
# Indices 1 2 3 4 5 6 
#
# 1 88.9629 54.3414 58.5507 0.0000 0.0000 0.0000
# 2 54.3414 162.7190 76.0550 0.0000 0.0000 0.0000
# 3 58.5507 76.0550 117.9351 0.0000 0.0000 0.0000
# 4 0.0000 0.0000 0.0000 87.6394 0.0000 0.0000
# 5 0.0000 0.0000 0.0000 0.0000 30.6991 0.0000
# 6 0.0000 0.0000 0.0000 0.0000 0.0000 18.9436
#
#
#
# Elastic Compliance Matrix: (Units=1/GPa)
#
#
# Indices 1 2 3 4 5 6 
#
# 1 0.017399 -0.002538 -0.007001 0.000000 0.000000 0.000000
# 2 -0.002538 0.009168 -0.004652 0.000000 0.000000 0.000000
# 3 -0.007001 -0.004652 0.014955 0.000000 0.000000 0.000000
# 4 0.000000 0.000000 0.000000 0.011410 0.000000 0.000000
# 5 0.000000 0.000000 0.000000 0.000000 0.032574 0.000000
# 6 0.000000 0.000000 0.000000 0.000000 0.000000 0.052788
#
#
# Mechanical properties :
#
#
# Convention : Reuss Voigt Hill
#
# Bulk Modulus (GPa) = 76.10929 83.05680 79.58305
# Shear Modulus (GPa) = 29.23018 39.50107 34.36563
#
# Velocity S-wave (km/s) = 3.86197 4.48949 4.18750
# Velocity P-wave (km/s) = 7.66299 8.32190 7.99924
#
# Compressibility (1/GPa) = 0.01313900
#
# Stress axis : x y z
#
# Youngs Moduli (GPa) = 57.47533 109.08084 66.86737
#
# Poissons Ratio (x) = 0.27687 0.46814
# Poissons Ratio (y) = 0.14588 0.31106
# Poissons Ratio (z) = 0.40239 0.50743
#
# Static dielectric constant tensor:
#      x y z
#    x 1.674460 0.000000 0.000000 
#    y 0.000000 1.486080 0.000000 
#    z 0.000000 0.000000 1.694640 
# 
# From -- ./inp_files/43613.got.cif
#   From: 2010.05.17/outbox.cif.g08.bks.cpg/sg67_22_cif.got.tgz:43613.got - 2010.06.03 18:28:57.
