data_PCOD9502280
_publ_section_title
;
Structure prediction by ZEFSAII (Michael W. Deem and Ramdas Pophale) SiO2 
 PCOD9502280
Probable space group: C M M A
;
_chemical_formula_sum "Si O2"
_cell_formula_units_Z 120
_cell_length_a 27.171049
_cell_length_b 8.969684
_cell_length_c 30.241682
_cell_angle_alpha 90.000000
_cell_angle_beta 90.000000
_cell_angle_gamma 90.000000
_cell_volume 7370.373408
_symmetry_space_group_name_H-M "C M M A"
_symmetry_group_IT_number 67
_symmetry_cell_setting 'orthorhombic'
loop_
_space_group_symop_operation_xyz
x,y,z
-x,1/2-y,z
x,-y,-z
-x,1/2+y,-z
-x,-y,-z
x,1/2+y,-z
-x,y,z
x,1/2-y,z
1/2+x,1/2+y,z
1/2-x,-y,z
1/2+x,1/2-y,-z
1/2-x,y,-z
1/2-x,1/2-y,-z
1/2+x,y,-z
1/2-x,1/2+y,z
1/2+x,-y,z
loop_
_atom_site_type_symbol
_atom_site_label
_atom_site_fract_x
_atom_site_fract_y
_atom_site_fract_z
Si Si1 0.697546 0.427368 0.118869
Si Si2 0.802059 0.927669 0.224645
Si Si3 0.604330 0.929322 0.270852
Si Si4 0.000000 0.929983 0.951701
Si Si5 0.942559 0.579678 0.190502
Si Si6 0.940127 0.921864 0.454917
Si Si7 0.597337 0.071667 0.896020
Si Si8 0.942592 0.428967 0.363328
O O1 0.699121 0.250000 0.112234
O O2 0.750000 0.500000 0.106486
O O3 0.690958 0.454765 0.171867
O O4 0.650213 0.497423 0.094502
O O5 0.801817 0.750000 0.231362
O O6 0.750000 0.000000 0.236496
O O7 0.844528 0.004781 0.253107
O O8 0.603796 0.750000 0.267048
O O9 0.589780 0.970035 0.320842
O O10 0.565319 0.002476 0.237457
O O11 0.050474 0.973274 0.926223
O O12 0.000000 0.750000 0.954042
O O13 0.000000 0.000000 0.000000
O O14 0.922977 0.750000 0.190845
O O15 0.916756 0.483034 0.152985
O O16 0.000000 0.585446 0.180089
O O17 0.925513 0.750000 0.454752
O O18 0.000000 0.928352 0.455458
O O19 0.923062 0.000000 0.500000
O O20 0.925269 0.000692 0.409392
O O21 0.601924 0.250000 0.897446
O O22 0.941769 0.250000 0.367597
O O23 0.000000 0.472427 0.355804
#
# Coordination Sequence:
#
# PCOD9502280 Si02
#       8
#    16  16  16   8  16  16  16  16
#     4  10  20  34  54  81 110 142 177 218 265 309
#     4  10  20  33  49  70  98 130 170 210 252 299
#     4  11  21  32  48  68  97 135 170 207 253 300
#     4  10  24  42  62  88 114 146 180 218 267 314
#     4  11  22  33  47  71 102 138 176 212 250 295
#     4   9  16  26  42  62  84 115 156 203 251 296
#     4  11  21  36  57  82 110 140 177 217 259 311
#     4   9  18  31  44  62  91 128 167 203 244 295
#
# _framework density 16.281400999999999
#
# number of rings (size 3 to 8) (size 9 to 14) (size 15 to 20)
#    0.000    1.867    2.000    2.800    0.000    6.133 
#    0.000    1.333    0.000    0.400    0.000    2.800 
#    0.000    0.533    0.000    5.600    0.000    2.667 
#
# Total GULP energy -334712.828841 kJ/mol
# GULP energy per Si atom -5578.547147 kJ/mol
# Density = 1.624434 g / cm^3
# Si number density = 16.281401 Si / 1000 Ang^3
#
#
#
# Elastic Constant Matrix: (Units=GPa)
#
#
# Indices 1 2 3 4 5 6 
#
# 1 112.1956 45.4419 35.3129 0.0000 0.0000 0.0000
# 2 45.4419 64.6090 37.2141 0.0000 0.0000 0.0000
# 3 35.3129 37.2141 77.4794 0.0000 0.0000 0.0000
# 4 0.0000 0.0000 0.0000 25.9160 0.0000 0.0000
# 5 0.0000 0.0000 0.0000 0.0000 9.5996 0.0000
# 6 0.0000 0.0000 0.0000 0.0000 0.0000 26.5315
#
#
#
# Elastic Compliance Matrix: (Units=1/GPa)
#
#
# Indices 1 2 3 4 5 6 
#
# 1 0.012699 -0.007739 -0.002071 0.000000 0.000000 0.000000
# 2 -0.007739 0.026114 -0.009015 0.000000 0.000000 0.000000
# 3 -0.002071 -0.009015 0.018181 0.000000 0.000000 0.000000
# 4 0.000000 0.000000 0.000000 0.038586 0.000000 0.000000
# 5 0.000000 0.000000 0.000000 0.000000 0.104171 0.000000
# 6 0.000000 0.000000 0.000000 0.000000 0.000000 0.037691
#
#
# Mechanical properties :
#
#
# Convention : Reuss Voigt Hill
#
# Bulk Modulus (GPa) = 51.69823 54.46906 53.08364
# Shear Modulus (GPa) = 17.75947 21.49711 19.62829
#
# Velocity S-wave (km/s) = 3.30628 3.63760 3.47589
# Velocity P-wave (km/s) = 6.81155 7.15334 6.98454
#
# Compressibility (1/GPa) = 0.01934302
#
# Stress axis : x y z
#
# Youngs Moduli (GPa) = 78.74443 38.29410 55.00358
#
# Poissons Ratio (x) = 0.29636 0.11390
# Poissons Ratio (y) = 0.60941 0.49588
# Poissons Ratio (z) = 0.16306 0.34524
#
# Static dielectric constant tensor:
#      x y z
#    x 1.566690 0.000000 0.000000 
#    y 0.000000 1.546760 0.000000 
#    z 0.000000 0.000000 1.524360 
# 
# From -- ./inp_files/44997.got.cif
#   From: 2010.05.17/outbox.cif.g08.bks.cpg/sg67_23_cif.got.tgz:44997.got - 2010.06.03 18:28:57.
