data_PCOD9502284
_publ_section_title
;
Structure prediction by ZEFSAII (Michael W. Deem and Ramdas Pophale) SiO2 
 PCOD9502284
Probable space group: C M M A
;
_chemical_formula_sum "Si O2"
_cell_formula_units_Z 80
_cell_length_a 8.952571
_cell_length_b 14.800417
_cell_length_c 27.615425
_cell_angle_alpha 90.000000
_cell_angle_beta 90.000000
_cell_angle_gamma 90.000000
_cell_volume 3659.093079
_symmetry_space_group_name_H-M "C M M A"
_symmetry_group_IT_number 67
_symmetry_cell_setting 'orthorhombic'
loop_
_space_group_symop_operation_xyz
x,y,z
-x,1/2-y,z
x,-y,-z
-x,1/2+y,-z
-x,-y,-z
x,1/2+y,-z
-x,y,z
x,1/2-y,z
1/2+x,1/2+y,z
1/2-x,-y,z
1/2+x,1/2-y,-z
1/2-x,y,-z
1/2-x,1/2-y,-z
1/2+x,y,-z
1/2-x,1/2+y,z
1/2+x,-y,z
loop_
_atom_site_type_symbol
_atom_site_label
_atom_site_fract_x
_atom_site_fract_y
_atom_site_fract_z
Si Si1 0.665043 0.856392 0.145499
Si Si2 0.174002 0.139573 0.549269
Si Si3 0.181258 0.357194 0.653538
Si Si4 0.173894 0.639086 0.241341
Si Si5 0.177694 0.599232 0.047729
O O1 0.500000 0.895145 0.134672
O O2 0.648382 0.750000 0.153968
O O3 0.733948 0.893282 0.195099
O O4 0.772297 0.863355 0.099406
O O5 0.182420 0.250000 0.549695
O O6 0.250000 0.108381 0.500000
O O7 0.237049 0.108227 0.601459
O O8 0.000000 0.115758 0.547309
O O9 0.213342 0.250000 0.653540
O O10 0.233052 0.391511 0.705921
O O11 0.000000 0.365645 0.653449
O O12 0.176020 0.750000 0.241857
O O13 0.000000 0.613557 0.236247
O O14 0.250000 0.500000 0.048642
O O15 0.000000 0.597432 0.042740
O O16 0.250000 0.644381 0.000000
#
# Coordination Sequence:
#
# PCOD9502284 Si02
#       5
#    16  16  16  16  16
#     4  10  20  33  49  72 101 128 156 193 234 274
#     4   8  12  17  24  35  53  80 117 162 208 252
#     4   7  10  17  29  43  61  89 126 167 211 259
#     4   8  13  23  39  57  77 105 142 181 222 268
#     4  11  22  38  58  77  99 126 157 190 227 273
#
# _framework density 21.863340999999998
#
# number of rings (size 3 to 8) (size 9 to 14) (size 15 to 20)
#    0.000    3.200    0.000    5.400    0.000    1.600 
#    0.000    1.000    0.000    6.000    0.000    0.000 
#    0.000    0.000    0.000    0.000    0.000    1.000 
#
# Total GULP energy -222888.310179 kJ/mol
# GULP energy per Si atom -5572.207754 kJ/mol
# Density = 2.181358 g / cm^3
# Si number density = 21.863341 Si / 1000 Ang^3
#
#
#
# Elastic Constant Matrix: (Units=GPa)
#
#
# Indices 1 2 3 4 5 6 
#
# 1 109.7836 3.7177 87.7752 0.0000 0.0000 0.0000
# 2 3.7177 47.4617 9.4320 0.0000 0.0000 0.0000
# 3 87.7752 9.4320 251.0106 0.0000 0.0000 0.0000
# 4 0.0000 0.0000 0.0000 -4.4848 0.0000 0.0000
# 5 0.0000 0.0000 0.0000 0.0000 25.6846 0.0000
# 6 0.0000 0.0000 0.0000 0.0000 0.0000 5.0883
#
#
#
# Elastic Compliance Matrix: (Units=1/GPa)
#
#
# Indices 1 2 3 4 5 6 
#
# 1 0.012644 -0.000113 -0.004417 0.000000 0.000000 0.000000
# 2 -0.000113 0.021229 -0.000758 0.000000 0.000000 0.000000
# 3 -0.004417 -0.000758 0.005557 0.000000 0.000000 0.000000
# 4 0.000000 0.000000 0.000000 -0.222973 0.000000 0.000000
# 5 0.000000 0.000000 0.000000 0.000000 0.038934 0.000000
# 6 0.000000 0.000000 0.000000 0.000000 0.000000 0.196529
#
#
# Mechanical properties :
#
#
# Convention : Reuss Voigt Hill
#
# Bulk Modulus (GPa) = 34.65716 67.78954 51.22335
# Shear Modulus (GPa) = 69.33360 25.74634 47.53997
#
# Velocity S-wave (km/s) = 5.63747 3.43535 4.66812
# Velocity P-wave (km/s) = 7.63289 6.84170 7.24809
#
# Compressibility (1/GPa) = 0.02885407
#
# Stress axis : x y z
#
# Youngs Moduli (GPa) = 79.08597 47.10508 179.95019
#
# Poissons Ratio (x) = 0.00530 0.79491
# Poissons Ratio (y) = 0.00890 0.13646
# Poissons Ratio (z) = 0.34935 0.03572
#
# Static dielectric constant tensor:
#      x y z
#    x 1.769840 0.000000 0.000000 
#    y 0.000000 1.985540 0.000000 
#    z 0.000000 0.000000 1.874360 
# 
# From -- ./inp_files/43319.got.cif
#   From: 2010.05.17/outbox.cif.g08.bks.cpg/sg67_22_cif.got.tgz:43319.got - 2010.06.03 18:28:57.
