data_PCOD9502697
_publ_section_title
;
Structure prediction by ZEFSAII (Michael W. Deem and Ramdas Pophale) SiO2 
 PCOD9502697
Probable space group: C M M A
;
_chemical_formula_sum "Si O2"
_cell_formula_units_Z 112
_cell_length_a 19.046707
_cell_length_b 21.214401
_cell_length_c 15.679104
_cell_angle_alpha 90.000000
_cell_angle_beta 90.000000
_cell_angle_gamma 90.000000
_cell_volume 6335.369005
_symmetry_space_group_name_H-M "C M M A"
_symmetry_group_IT_number 67
_symmetry_cell_setting 'orthorhombic'
loop_
_space_group_symop_operation_xyz
x,y,z
-x,1/2-y,z
x,-y,-z
-x,1/2+y,-z
-x,-y,-z
x,1/2+y,-z
-x,y,z
x,1/2-y,z
1/2+x,1/2+y,z
1/2-x,-y,z
1/2+x,1/2-y,-z
1/2-x,y,-z
1/2-x,1/2-y,-z
1/2+x,y,-z
1/2-x,1/2+y,z
1/2+x,-y,z
loop_
_atom_site_type_symbol
_atom_site_label
_atom_site_fract_x
_atom_site_fract_y
_atom_site_fract_z
Si Si1 0.921184 0.490905 0.272726
Si Si2 0.418061 0.120771 0.860995
Si Si3 0.331511 0.425654 0.017628
Si Si4 0.198891 0.320914 0.253015
Si Si5 0.201068 0.937342 0.205043
Si Si6 0.825367 0.319821 0.455953
Si Si7 0.918419 0.436136 0.457592
O O1 0.914532 0.446014 0.190023
O O2 0.858400 0.540643 0.270862
O O3 0.914609 0.447193 0.355970
O O4 0.000000 0.518198 0.274214
O O5 0.500000 0.138445 0.866399
O O6 0.370546 0.166912 0.803788
O O7 0.382042 0.110962 0.953009
O O8 0.339103 0.418210 0.118525
O O9 0.340303 0.500000 0.000000
O O10 0.250000 0.409015 0.000000
O O11 0.226093 0.250000 0.234571
O O12 0.250947 0.378840 0.232336
O O13 0.182717 0.323336 0.353608
O O14 0.250000 0.000000 0.189258
O O15 0.852582 0.250000 0.477224
O O16 0.750000 0.326859 0.500000
O O17 0.875682 0.375494 0.483998
O O18 0.890820 0.500000 0.500000
O O19 0.000000 0.429536 0.481349
#
# Coordination Sequence:
#
# PCOD9502697 Si02
#       7
#    16  16  16  16  16  16  16
#     4  10  20  34  55  84 115 145 188 237 286 341
#     4  11  21  35  55  85 119 150 190 239 292 343
#     4  11  17  31  51  81 115 149 190 238 283 332
#     4  11  23  39  59  84 113 152 192 236 286 339
#     4  12  19  34  59  82 114 154 193 235 285 345
#     4  10  22  39  57  84 117 148 192 238 278 334
#     4  10  21  37  56  84 118 150 185 230 286 344
#
# _framework density 17.678528
#
# number of rings (size 3 to 8) (size 9 to 14) (size 15 to 20)
#    0.000    1.286    7.143    0.000    2.000    1.714 
#    0.000    2.857    0.000    0.429    0.000    0.000 
#    0.000    0.000    0.000    0.000    0.000    0.000 
#
# Total GULP energy -312371.721118 kJ/mol
# GULP energy per Si atom -5578.066449 kJ/mol
# Density = 1.763829 g / cm^3
# Si number density = 17.678528 Si / 1000 Ang^3
#
#
#
# Elastic Constant Matrix: (Units=GPa)
#
#
# Indices 1 2 3 4 5 6 
#
# 1 88.2694 60.7661 23.0191 0.0000 0.0000 0.0000
# 2 60.7661 127.4836 26.0676 0.0000 0.0000 0.0000
# 3 23.0191 26.0676 35.7893 0.0000 0.0000 0.0000
# 4 0.0000 0.0000 0.0000 7.0278 0.0000 0.0000
# 5 0.0000 0.0000 0.0000 0.0000 20.7057 0.0000
# 6 0.0000 0.0000 0.0000 0.0000 0.0000 21.9261
#
#
#
# Elastic Compliance Matrix: (Units=1/GPa)
#
#
# Indices 1 2 3 4 5 6 
#
# 1 0.017979 -0.007291 -0.006253 0.000000 0.000000 0.000000
# 2 -0.007291 0.012174 -0.004177 0.000000 0.000000 0.000000
# 3 -0.006253 -0.004177 0.035006 0.000000 0.000000 0.000000
# 4 0.000000 0.000000 0.000000 0.142291 0.000000 0.000000
# 5 0.000000 0.000000 0.000000 0.000000 0.048296 0.000000
# 6 0.000000 0.000000 0.000000 0.000000 0.000000 0.045608
#
#
# Mechanical properties :
#
#
# Convention : Reuss Voigt Hill
#
# Bulk Modulus (GPa) = 33.65276 52.36089 43.00683
# Shear Modulus (GPa) = 14.42160 19.37789 16.89974
#
# Velocity S-wave (km/s) = 2.85927 3.31437 3.09519
# Velocity P-wave (km/s) = 5.47520 6.65803 6.09538
#
# Compressibility (1/GPa) = 0.02971524
#
# Stress axis : x y z
#
# Youngs Moduli (GPa) = 55.62011 82.14401 28.56660
#
# Poissons Ratio (x) = 0.59893 0.17863
# Poissons Ratio (y) = 0.40554 0.11933
# Poissons Ratio (z) = 0.34781 0.34314
#
# Static dielectric constant tensor:
#      x y z
#    x 1.606110 0.000000 0.000000 
#    y 0.000000 1.597690 0.000000 
#    z 0.000000 0.000000 1.628270 
# 
# From -- ./inp_files/34464.got.cif
#   From: 2010.05.17/outbox.cif.g08.bks.cpg/sg67_18_cif.got.tgz:34464.got - 2010.06.03 18:28:57.
