data_PCOD9502399
_publ_section_title
;
Structure prediction by ZEFSAII (Michael W. Deem and Ramdas Pophale) SiO2 
 PCOD9502399
Probable space group: C M M A
;
_chemical_formula_sum "Si O2"
_cell_formula_units_Z 80
_cell_length_a 26.778917
_cell_length_b 8.701067
_cell_length_c 19.758327
_cell_angle_alpha 90.000000
_cell_angle_beta 90.000000
_cell_angle_gamma 90.000000
_cell_volume 4603.791966
_symmetry_space_group_name_H-M "C M M A"
_symmetry_group_IT_number 67
_symmetry_cell_setting 'orthorhombic'
loop_
_space_group_symop_operation_xyz
x,y,z
-x,1/2-y,z
x,-y,-z
-x,1/2+y,-z
-x,-y,-z
x,1/2+y,-z
-x,y,z
x,1/2-y,z
1/2+x,1/2+y,z
1/2-x,-y,z
1/2+x,1/2-y,-z
1/2-x,y,-z
1/2-x,1/2-y,-z
1/2+x,y,-z
1/2-x,1/2+y,z
1/2+x,-y,z
loop_
_atom_site_type_symbol
_atom_site_label
_atom_site_fract_x
_atom_site_fract_y
_atom_site_fract_z
Si Si1 0.000000 0.426589 0.832284
Si Si2 0.196077 0.565342 0.425317
Si Si3 0.303261 0.065286 0.924626
Si Si4 0.392017 0.436710 0.323555
Si Si5 0.605672 0.066092 0.827093
Si Si6 0.500000 0.926925 0.667577
O O1 0.051709 0.506737 0.852296
O O2 0.000000 0.250000 0.854329
O O3 0.000000 0.427376 0.749814
O O4 0.185421 0.500000 0.500000
O O5 0.198708 0.750000 0.428808
O O6 0.250000 0.500000 0.404483
O O7 0.153032 0.520946 0.372714
O O8 0.300350 0.250000 0.927676
O O9 0.349136 0.021016 0.876419
O O10 0.250000 0.000000 0.900089
O O11 0.310990 0.000000 0.000000
O O12 0.394506 0.250000 0.319709
O O13 0.385388 0.498922 0.247822
O O14 0.446076 0.494043 0.350868
O O15 0.604025 0.250000 0.822858
O O16 0.500000 0.750000 0.644001
#
# Coordination Sequence:
#
# PCOD9502399 Si02
#       6
#     8  16  16  16  16   8
#     4   9  17  31  52  75 102 137 169 201 249 303
#     4  10  20  34  51  71  97 131 169 207 250 300
#     4  10  21  36  54  75 101 135 171 209 254 303
#     4   9  18  32  52  75  98 129 167 204 246 299
#     4  10  20  33  52  79 106 131 166 212 254 295
#     4   7  12  27  48  69  93 121 155 193 234 283
#
# _framework density 17.37698
#
# number of rings (size 3 to 8) (size 9 to 14) (size 15 to 20)
#    0.000    2.600    0.000    4.500    0.000    5.600 
#    0.000    5.000    0.000    0.000    0.000    0.000 
#    0.000    0.000    0.000    0.000    0.000    0.000 
#
# Total GULP energy -222954.411008 kJ/mol
# GULP energy per Si atom -5573.860275 kJ/mol
# Density = 1.733743 g / cm^3
# Si number density = 17.376980 Si / 1000 Ang^3
#
#
#
# Elastic Constant Matrix: (Units=GPa)
#
#
# Indices 1 2 3 4 5 6 
#
# 1 214.8538 53.4622 97.7593 0.0000 0.0000 0.0000
# 2 53.4622 43.1400 26.8904 0.0000 0.0000 0.0000
# 3 97.7593 26.8904 61.9408 0.0000 0.0000 0.0000
# 4 0.0000 0.0000 0.0000 22.4466 0.0000 0.0000
# 5 0.0000 0.0000 0.0000 0.0000 -33.0882 0.0000
# 6 0.0000 0.0000 0.0000 0.0000 0.0000 26.9567
#
#
#
# Elastic Compliance Matrix: (Units=1/GPa)
#
#
# Indices 1 2 3 4 5 6 
#
# 1 0.017636 -0.006178 -0.025152 0.000000 0.000000 0.000000
# 2 -0.006178 0.033944 -0.004986 0.000000 0.000000 0.000000
# 3 -0.025152 -0.004986 0.058007 0.000000 0.000000 0.000000
# 4 0.000000 0.000000 0.000000 0.044550 0.000000 0.000000
# 5 0.000000 0.000000 0.000000 0.000000 -0.030222 0.000000
# 6 0.000000 0.000000 0.000000 0.000000 0.000000 0.037097
#
#
# Mechanical properties :
#
#
# Convention : Reuss Voigt Hill
#
# Bulk Modulus (GPa) = 27.06073 75.12870 51.09472
# Shear Modulus (GPa) = 20.32838 12.71788 16.52313
#
# Velocity S-wave (km/s) = 3.42401 2.70826 3.08695
# Velocity P-wave (km/s) = 5.58913 7.28753 6.49409
#
# Compressibility (1/GPa) = 0.03695392
#
# Stress axis : x y z
#
# Youngs Moduli (GPa) = 56.70245 29.46018 17.23945
#
# Poissons Ratio (x) = 0.18199 0.43361
# Poissons Ratio (y) = 0.35028 0.08596
# Poissons Ratio (z) = 1.42620 0.14690
#
# Static dielectric constant tensor:
#      x y z
#    x 1.617930 0.000000 0.000000 
#    y 0.000000 1.593750 0.000000 
#    z 0.000000 0.000000 1.555130 
# 
# From -- ./inp_files/35778.got.cif
#   From: 2010.05.17/outbox.cif.g08.bks.cpg/sg67_18_cif.got.tgz:35778.got - 2010.06.03 18:28:57.
