data_PCOD9502613
_publ_section_title
;
Structure prediction by ZEFSAII (Michael W. Deem and Ramdas Pophale) SiO2 
 PCOD9502613
Probable space group: C M M A
;
_chemical_formula_sum "Si O2"
_cell_formula_units_Z 80
_cell_length_a 27.853241
_cell_length_b 8.762829
_cell_length_c 19.101367
_cell_angle_alpha 90.000000
_cell_angle_beta 90.000000
_cell_angle_gamma 90.000000
_cell_volume 4662.131538
_symmetry_space_group_name_H-M "C M M A"
_symmetry_group_IT_number 67
_symmetry_cell_setting 'orthorhombic'
loop_
_space_group_symop_operation_xyz
x,y,z
-x,1/2-y,z
x,-y,-z
-x,1/2+y,-z
-x,-y,-z
x,1/2+y,-z
-x,y,z
x,1/2-y,z
1/2+x,1/2+y,z
1/2-x,-y,z
1/2+x,1/2-y,-z
1/2-x,y,-z
1/2-x,1/2-y,-z
1/2+x,y,-z
1/2-x,1/2+y,z
1/2+x,-y,z
loop_
_atom_site_type_symbol
_atom_site_label
_atom_site_fract_x
_atom_site_fract_y
_atom_site_fract_z
Si Si1 0.443067 0.068026 0.075516
Si Si2 0.350165 0.932787 0.574396
Si Si3 0.945737 0.434397 0.651612
Si Si4 0.395978 0.432219 0.787081
Si Si5 0.198141 0.433471 0.719546
O O1 0.500000 0.037856 0.085706
O O2 0.436072 0.250000 0.075948
O O3 0.414364 0.991999 0.138633
O O4 0.429642 0.000000 0.000000
O O5 0.349465 0.750000 0.569590
O O6 0.404311 0.980191 0.596865
O O7 0.316563 0.976894 0.639715
O O8 0.336299 0.000000 0.500000
O O9 0.943316 0.250000 0.658662
O O10 0.931131 0.505877 0.725964
O O11 0.000000 0.476245 0.631818
O O12 0.394968 0.250000 0.785425
O O13 0.343824 0.499334 0.767907
O O14 0.197829 0.250000 0.724113
O O15 0.250000 0.500000 0.736528
#
# Coordination Sequence:
#
# PCOD9502613 Si02
#       5
#    16  16  16  16  16
#     4  10  20  34  53  79 112 147 179 212 251 295
#     4   9  19  33  49  71 100 132 167 209 257 310
#     4   9  18  33  50  69  98 137 176 213 256 304
#     4  11  21  33  52  78 106 136 172 213 256 304
#     4  10  21  38  57  77 100 129 168 213 262 311
#
# _framework density 17.159533
#
# number of rings (size 3 to 8) (size 9 to 14) (size 15 to 20)
#    0.000    2.200    0.000    4.800    0.000    8.800 
#    0.000    2.000    0.000    0.600    0.000    4.200 
#    0.000    0.000    0.000    0.000    0.000    0.000 
#
# Total GULP energy -223290.243534 kJ/mol
# GULP energy per Si atom -5582.256088 kJ/mol
# Density = 1.712048 g / cm^3
# Si number density = 17.159533 Si / 1000 Ang^3
#
#
#
# Elastic Constant Matrix: (Units=GPa)
#
#
# Indices 1 2 3 4 5 6 
#
# 1 58.5033 21.9506 10.6722 0.0000 0.0000 0.0000
# 2 21.9506 46.4771 26.9573 0.0000 0.0000 0.0000
# 3 10.6722 26.9573 90.7979 0.0000 0.0000 0.0000
# 4 0.0000 0.0000 0.0000 31.9194 0.0000 0.0000
# 5 0.0000 0.0000 0.0000 0.0000 7.8044 0.0000
# 6 0.0000 0.0000 0.0000 0.0000 0.0000 17.9085
#
#
#
# Elastic Compliance Matrix: (Units=1/GPa)
#
#
# Indices 1 2 3 4 5 6 
#
# 1 0.020799 -0.010154 0.000570 0.000000 0.000000 0.000000
# 2 -0.010154 0.030949 -0.007995 0.000000 0.000000 0.000000
# 3 0.000570 -0.007995 0.013320 0.000000 0.000000 0.000000
# 4 0.000000 0.000000 0.000000 0.031329 0.000000 0.000000
# 5 0.000000 0.000000 0.000000 0.000000 0.128133 0.000000
# 6 0.000000 0.000000 0.000000 0.000000 0.000000 0.055839
#
#
# Mechanical properties :
#
#
# Convention : Reuss Voigt Hill
#
# Bulk Modulus (GPa) = 33.43348 34.99316 34.21332
# Shear Modulus (GPa) = 15.36118 20.60634 17.98376
#
# Velocity S-wave (km/s) = 2.99523 3.46911 3.24085
# Velocity P-wave (km/s) = 5.61142 6.04015 5.82973
#
# Compressibility (1/GPa) = 0.02991014
#
# Stress axis : x y z
#
# Youngs Moduli (GPa) = 48.07984 32.31164 75.07418
#
# Poissons Ratio (x) = 0.32808 -0.04278
# Poissons Ratio (y) = 0.48818 0.60022
# Poissons Ratio (z) = -0.02740 0.25833
#
# Static dielectric constant tensor:
#      x y z
#    x 1.576500 0.000000 0.000000 
#    y 0.000000 1.594970 0.000000 
#    z 0.000000 0.000000 1.555300 
# 
# From -- ./inp_files/32105.got.cif
#   From: 2010.05.17/outbox.cif.g08.bks.cpg/sg67_17_cif.got.tgz:32105.got - 2010.06.03 18:28:57.
