data_PCOD9502531
_publ_section_title
;
Structure prediction by ZEFSAII (Michael W. Deem and Ramdas Pophale) SiO2 
 PCOD9502531
Probable space group: C M M A
;
_chemical_formula_sum "Si O2"
_cell_formula_units_Z 80
_cell_length_a 19.293238
_cell_length_b 8.637449
_cell_length_c 26.404945
_cell_angle_alpha 90.000000
_cell_angle_beta 90.000000
_cell_angle_gamma 90.000000
_cell_volume 4400.235141
_symmetry_space_group_name_H-M "C M M A"
_symmetry_group_IT_number 67
_symmetry_cell_setting 'orthorhombic'
loop_
_space_group_symop_operation_xyz
x,y,z
-x,1/2-y,z
x,-y,-z
-x,1/2+y,-z
-x,-y,-z
x,1/2+y,-z
-x,y,z
x,1/2-y,z
1/2+x,1/2+y,z
1/2-x,-y,z
1/2+x,1/2-y,-z
1/2-x,y,-z
1/2-x,1/2-y,-z
1/2+x,y,-z
1/2-x,1/2+y,z
1/2+x,-y,z
loop_
_atom_site_type_symbol
_atom_site_label
_atom_site_fract_x
_atom_site_fract_y
_atom_site_fract_z
Si Si1 0.919901 0.563396 0.242108
Si Si2 0.827745 0.936255 0.553699
Si Si3 0.419865 0.563416 0.350939
Si Si4 0.327662 0.436088 0.146675
Si Si5 0.080369 0.435575 0.055886
O O1 0.919821 0.750000 0.243197
O O2 0.896652 0.502378 0.296842
O O3 0.870622 0.512714 0.196443
O O4 0.000000 0.512493 0.233985
O O5 0.825901 0.750000 0.551531
O O6 0.873808 0.985481 0.601473
O O7 0.854699 0.000000 0.500000
O O8 0.750000 0.000000 0.559702
O O9 0.500000 0.515995 0.358197
O O10 0.417733 0.750000 0.348406
O O11 0.325901 0.250000 0.146036
O O12 0.250000 0.500000 0.147585
O O13 0.368958 0.495115 0.097667
O O14 0.085669 0.250000 0.055466
O O15 0.000000 0.477495 0.067446
O O16 0.096092 0.500000 0.000000
#
# Coordination Sequence:
#
# PCOD9502531 Si02
#       5
#    16  16  16  16  16
#     4   9  19  36  57  79 104 138 178 219 265 317
#     4  10  20  34  52  74 102 136 173 212 257 310
#     4   9  19  35  54  77 104 134 171 216 263 311
#     4  11  23  38  56  81 114 147 183 226 271 320
#     4  10  21  38  61  87 113 144 183 224 269 322
#
# _framework density 18.180848000000001
#
# number of rings (size 3 to 8) (size 9 to 14) (size 15 to 20)
#    0.000    2.200    0.000    3.000    0.000    6.800 
#    0.000    8.000    0.000    0.000    0.000    0.000 
#    0.000    0.000    0.000    0.000    0.000    0.000 
#
# Total GULP energy -223335.738257 kJ/mol
# GULP energy per Si atom -5583.393456 kJ/mol
# Density = 1.813947 g / cm^3
# Si number density = 18.180848 Si / 1000 Ang^3
#
#
#
# Elastic Constant Matrix: (Units=GPa)
#
#
# Indices 1 2 3 4 5 6 
#
# 1 110.1327 37.2470 123.4588 0.0000 0.0000 0.0000
# 2 37.2470 40.3235 46.5777 0.0000 0.0000 0.0000
# 3 123.4588 46.5777 200.9752 0.0000 0.0000 0.0000
# 4 0.0000 0.0000 0.0000 33.5817 0.0000 0.0000
# 5 0.0000 0.0000 0.0000 0.0000 -295.2950 0.0000
# 6 0.0000 0.0000 0.0000 0.0000 0.0000 23.5386
#
#
#
# Elastic Compliance Matrix: (Units=1/GPa)
#
#
# Indices 1 2 3 4 5 6 
#
# 1 0.031479 -0.009205 -0.017204 0.000000 0.000000 0.000000
# 2 -0.009205 0.036557 -0.002818 0.000000 0.000000 0.000000
# 3 -0.017204 -0.002818 0.016197 0.000000 0.000000 0.000000
# 4 0.000000 0.000000 0.000000 0.029778 0.000000 0.000000
# 5 0.000000 0.000000 0.000000 0.000000 -0.003386 0.000000
# 6 0.000000 0.000000 0.000000 0.000000 0.000000 0.042483
#
#
# Mechanical properties :
#
#
# Convention : Reuss Voigt Hill
#
# Bulk Modulus (GPa) = 38.79050 85.11093 61.95071
# Shear Modulus (GPa) = 22.71128 -38.02510 -7.65691
#
# Velocity S-wave (km/s) = 3.53822 -4.57824 -2.05443
# Velocity P-wave (km/s) = 6.17043 4.35523 5.34052
#
# Compressibility (1/GPa) = 0.02577951
#
# Stress axis : x y z
#
# Youngs Moduli (GPa) = 31.76736 27.35464 61.73862
#
# Poissons Ratio (x) = 0.25179 1.06216
# Poissons Ratio (y) = 0.29241 0.17398
# Poissons Ratio (z) = 0.54653 0.07708
#
# Static dielectric constant tensor:
#      x y z
#    x 1.607290 0.000000 0.000000 
#    y 0.000000 1.616550 0.000000 
#    z 0.000000 0.000000 1.602790 
# 
# From -- ./inp_files/43230.got.cif
#   From: 2010.05.17/outbox.cif.g08.bks.cpg/sg67_22_cif.got.tgz:43230.got - 2010.06.03 18:28:57.
