data_PCOD9502181
_publ_section_title
;
Structure prediction by ZEFSAII (Michael W. Deem and Ramdas Pophale) SiO2 
 PCOD9502181
Probable space group: C M M A
;
_chemical_formula_sum "Si O2"
_cell_formula_units_Z 104
_cell_length_a 28.362563
_cell_length_b 7.724997
_cell_length_c 24.899987
_cell_angle_alpha 90.000000
_cell_angle_beta 90.000000
_cell_angle_gamma 90.000000
_cell_volume 5455.604932
_symmetry_space_group_name_H-M "C M M A"
_symmetry_group_IT_number 67
_symmetry_cell_setting 'orthorhombic'
loop_
_space_group_symop_operation_xyz
x,y,z
-x,1/2-y,z
x,-y,-z
-x,1/2+y,-z
-x,-y,-z
x,1/2+y,-z
-x,y,z
x,1/2-y,z
1/2+x,1/2+y,z
1/2-x,-y,z
1/2+x,1/2-y,-z
1/2-x,y,-z
1/2-x,1/2-y,-z
1/2+x,y,-z
1/2-x,1/2+y,z
1/2+x,-y,z
loop_
_atom_site_type_symbol
_atom_site_label
_atom_site_fract_x
_atom_site_fract_y
_atom_site_fract_z
Si Si1 0.051750 0.039154 0.729496
Si Si2 0.646558 0.460603 0.332816
Si Si3 0.104234 0.041383 0.562444
Si Si4 0.803008 0.957983 0.228506
Si Si5 0.604985 0.043204 0.167155
Si Si6 0.946907 0.954919 0.939442
Si Si7 0.000000 0.042531 0.563245
O O1 0.050284 0.250000 0.728129
O O2 0.096039 0.991813 0.693090
O O3 0.065608 0.983497 0.789858
O O4 0.000000 0.977253 0.713332
O O5 0.649777 0.250000 0.333644
O O6 0.642997 0.519599 0.394468
O O7 0.684662 0.521493 0.289093
O O8 0.102378 0.250000 0.565533
O O9 0.051718 0.978076 0.580239
O O10 0.112371 0.000000 0.500000
O O11 0.806676 0.750000 0.229721
O O12 0.844264 0.021857 0.188422
O O13 0.750000 0.000000 0.212739
O O14 0.606563 0.250000 0.172482
O O15 0.588918 0.006586 0.107112
O O16 0.950686 0.750000 0.936705
O O17 0.000000 0.029354 0.930730
O O18 0.932191 0.000000 0.000000
O O19 0.000000 0.250000 0.572738
O O20 0.000000 0.000000 0.500000
#
# Coordination Sequence:
#
# PCOD9502181 Si02
#       7
#    16  16  16  16  16  16   8
#     4   8  13  21  38  64  90 116 147 184 225 269
#     4   8  15  26  41  63  89 115 147 187 228 275
#     4   9  16  26  40  59  85 116 149 185 223 269
#     4   9  18  33  52  73  94 118 152 197 248 296
#     4   9  17  30  48  71  97 124 158 199 240 282
#     4  10  20  32  48  73 105 141 174 199 225 263
#     4   8  14  22  34  54  78 110 146 176 209 252
#
# _framework density 19.062963
#
# number of rings (size 3 to 8) (size 9 to 14) (size 15 to 20)
#    0.000    3.231    0.000    2.769    1.077    2.154 
#    0.000    0.769    0.000    1.846    0.000    6.462 
#    0.000    0.000    0.000    0.000    0.000    0.000 
#
# Total GULP energy -289519.238217 kJ/mol
# GULP energy per Si atom -5567.677658 kJ/mol
# Density = 1.901958 g / cm^3
# Si number density = 19.062963 Si / 1000 Ang^3
#
#
#
# Elastic Constant Matrix: (Units=GPa)
#
#
# Indices 1 2 3 4 5 6 
#
# 1 67.0381 2.9865 33.2741 0.0000 0.0000 0.0000
# 2 2.9865 27.1524 -0.5808 0.0000 0.0000 0.0000
# 3 33.2741 -0.5808 111.8169 0.0000 0.0000 0.0000
# 4 0.0000 0.0000 0.0000 11.0992 0.0000 0.0000
# 5 0.0000 0.0000 0.0000 0.0000 21.8344 0.0000
# 6 0.0000 0.0000 0.0000 0.0000 0.0000 12.4757
#
#
#
# Elastic Compliance Matrix: (Units=1/GPa)
#
#
# Indices 1 2 3 4 5 6 
#
# 1 0.017615 -0.002050 -0.005253 0.000000 0.000000 0.000000
# 2 -0.002050 0.037072 0.000803 0.000000 0.000000 0.000000
# 3 -0.005253 0.000803 0.010510 0.000000 0.000000 0.000000
# 4 0.000000 0.000000 0.000000 0.090097 0.000000 0.000000
# 5 0.000000 0.000000 0.000000 0.000000 0.045799 0.000000
# 6 0.000000 0.000000 0.000000 0.000000 0.000000 0.080156
#
#
# Mechanical properties :
#
#
# Convention : Reuss Voigt Hill
#
# Bulk Modulus (GPa) = 19.15791 30.81857 24.98824
# Shear Modulus (GPa) = 16.04375 20.43703 18.24039
#
# Velocity S-wave (km/s) = 2.90421 3.27782 3.09665
# Velocity P-wave (km/s) = 4.61710 5.52515 5.09141
#
# Compressibility (1/GPa) = 0.05219775
#
# Stress axis : x y z
#
# Youngs Moduli (GPa) = 56.76880 26.97468 95.14387
#
# Poissons Ratio (x) = 0.05529 0.49975
# Poissons Ratio (y) = 0.11637 -0.07636
# Poissons Ratio (z) = 0.29818 -0.02165
#
# Static dielectric constant tensor:
#      x y z
#    x 1.683250 0.000000 0.000000 
#    y 0.000000 1.718840 0.000000 
#    z 0.000000 0.000000 1.731170 
# 
# From -- ./inp_files/42933.got.cif
#   From: 2010.05.17/outbox.cif.g08.bks.cpg/sg67_22_cif.got.tgz:42933.got - 2010.06.03 18:28:57.
