data_PCOD9502724
_publ_section_title
;
Structure prediction by ZEFSAII (Michael W. Deem and Ramdas Pophale) SiO2 
 PCOD9502724
Probable space group: C M M A
;
_chemical_formula_sum "Si O2"
_cell_formula_units_Z 80
_cell_length_a 9.409223
_cell_length_b 15.385009
_cell_length_c 24.887888
_cell_angle_alpha 90.000000
_cell_angle_beta 90.000000
_cell_angle_gamma 90.000000
_cell_volume 3602.795070
_symmetry_space_group_name_H-M "C M M A"
_symmetry_group_IT_number 67
_symmetry_cell_setting 'orthorhombic'
loop_
_space_group_symop_operation_xyz
x,y,z
-x,1/2-y,z
x,-y,-z
-x,1/2+y,-z
-x,-y,-z
x,1/2+y,-z
-x,y,z
x,1/2-y,z
1/2+x,1/2+y,z
1/2-x,-y,z
1/2+x,1/2-y,-z
1/2-x,y,-z
1/2-x,1/2-y,-z
1/2+x,y,-z
1/2-x,1/2+y,z
1/2+x,-y,z
loop_
_atom_site_type_symbol
_atom_site_label
_atom_site_fract_x
_atom_site_fract_y
_atom_site_fract_z
Si Si1 0.337310 0.588415 0.255625
Si Si2 0.291837 0.853828 0.373720
Si Si3 0.662554 0.147044 0.949293
Si Si4 0.173231 0.405021 0.843668
Si Si5 0.000000 0.642981 0.411728
Si Si6 0.500000 0.356503 0.534941
O O1 0.500000 0.575579 0.236063
O O2 0.250000 0.500000 0.264485
O O3 0.346876 0.629008 0.314524
O O4 0.242248 0.636532 0.210384
O O5 0.292241 0.750000 0.379563
O O6 0.134526 0.888572 0.379332
O O7 0.370899 0.885066 0.427276
O O8 0.500000 0.111795 0.943100
O O9 0.646923 0.250000 0.958461
O O10 0.760982 0.136579 0.896990
O O11 0.750000 0.109893 0.000000
O O12 0.250000 0.500000 0.844034
O O13 0.000000 0.406326 0.843188
O O14 0.000000 0.750000 0.412171
O O15 0.000000 0.614463 0.473673
O O16 0.500000 0.250000 0.532026
#
# Coordination Sequence:
#
# PCOD9502724 Si02
#       6
#    16  16  16  16   8   8
#     4  11  23  39  59  80 111 152 189 234 289 343
#     4  10  20  34  56  84 110 141 185 233 281 338
#     4  10  21  39  63  92 127 162 196 237 288 340
#     4  11  23  40  62  87 116 153 200 245 289 344
#     4   9  18  30  53  83 113 141 176 229 284 335
#     4   9  16  32  53  81 111 141 180 227 282 337
#
# _framework density 22.204982999999999
#
# number of rings (size 3 to 8) (size 9 to 14) (size 15 to 20)
#    0.000    1.800    1.000    4.800    2.800    4.800 
#    0.000    2.000    0.000    3.600    0.000    0.000 
#    0.000    0.000    0.000    0.000    0.000    0.000 
#
# Total GULP energy -222971.547221 kJ/mol
# GULP energy per Si atom -5574.288681 kJ/mol
# Density = 2.215444 g / cm^3
# Si number density = 22.204983 Si / 1000 Ang^3
#
#
#
# Elastic Constant Matrix: (Units=GPa)
#
#
# Indices 1 2 3 4 5 6 
#
# 1 241.3710 7.1415 80.1147 0.0000 0.0000 0.0000
# 2 7.1415 13.8059 -1.7934 0.0000 0.0000 0.0000
# 3 80.1147 -1.7934 160.8324 0.0000 0.0000 0.0000
# 4 0.0000 0.0000 0.0000 32.1417 0.0000 0.0000
# 5 0.0000 0.0000 0.0000 0.0000 33.4651 0.0000
# 6 0.0000 0.0000 0.0000 0.0000 0.0000 27.3502
#
#
#
# Elastic Compliance Matrix: (Units=1/GPa)
#
#
# Indices 1 2 3 4 5 6 
#
# 1 0.005082 -0.002962 -0.002564 0.000000 0.000000 0.000000
# 2 -0.002962 0.074264 0.002303 0.000000 0.000000 0.000000
# 3 -0.002564 0.002303 0.007521 0.000000 0.000000 0.000000
# 4 0.000000 0.000000 0.000000 0.031112 0.000000 0.000000
# 5 0.000000 0.000000 0.000000 0.000000 0.029882 0.000000
# 6 0.000000 0.000000 0.000000 0.000000 0.000000 0.036563
#
#
# Mechanical properties :
#
#
# Convention : Reuss Voigt Hill
#
# Bulk Modulus (GPa) = 12.43456 65.21500 38.82478
# Shear Modulus (GPa) = 22.96992 40.62784 31.79888
#
# Velocity S-wave (km/s) = 3.21977 4.28211 3.78836
# Velocity P-wave (km/s) = 4.40847 7.34043 6.05461
#
# Compressibility (1/GPa) = 0.08042100
#
# Stress axis : x y z
#
# Youngs Moduli (GPa) = 196.78093 13.46547 132.96578
#
# Poissons Ratio (x) = 0.03988 0.34098
# Poissons Ratio (y) = 0.58283 -0.30628
# Poissons Ratio (z) = 0.50462 -0.03102
#
# Static dielectric constant tensor:
#      x y z
#    x 1.846020 0.000000 0.000000 
#    y 0.000000 1.871730 0.000000 
#    z 0.000000 0.000000 1.827940 
# 
# From -- ./inp_files/43361.got.cif
#   From: 2010.05.17/outbox.cif.g08.bks.cpg/sg67_22_cif.got.tgz:43361.got - 2010.06.03 18:28:57.
