data_PCOD9502766
_publ_section_title
;
Structure prediction by ZEFSAII (Michael W. Deem and Ramdas Pophale) SiO2 
 PCOD9502766
Probable space group: C M M A
;
_chemical_formula_sum "Si O2"
_cell_formula_units_Z 68
_cell_length_a 20.306449
_cell_length_b 15.555018
_cell_length_c 10.926150
_cell_angle_alpha 90.000000
_cell_angle_beta 90.000000
_cell_angle_gamma 90.000000
_cell_volume 3451.212186
_symmetry_space_group_name_H-M "C M M A"
_symmetry_group_IT_number 67
_symmetry_cell_setting 'orthorhombic'
loop_
_space_group_symop_operation_xyz
x,y,z
-x,1/2-y,z
x,-y,-z
-x,1/2+y,-z
-x,-y,-z
x,1/2+y,-z
-x,y,z
x,1/2-y,z
1/2+x,1/2+y,z
1/2-x,-y,z
1/2+x,1/2-y,-z
1/2-x,y,-z
1/2-x,1/2-y,-z
1/2+x,y,-z
1/2-x,1/2+y,z
1/2+x,-y,z
loop_
_atom_site_type_symbol
_atom_site_label
_atom_site_fract_x
_atom_site_fract_y
_atom_site_fract_z
Si Si1 0.640610 0.909422 0.566200
Si Si2 0.179958 0.916542 0.931022
Si Si3 0.000000 0.597426 0.446756
Si Si4 0.250000 0.500000 0.711095
Si Si5 0.373233 0.750000 0.171622
Si Si6 0.000000 0.750000 0.649272
Si Si7 0.314856 0.250000 0.581662
O O1 0.569100 0.891645 0.625765
O O2 0.707460 0.927415 0.641257
O O3 0.649472 0.835284 0.466920
O O4 0.634169 0.000000 0.500000
O O5 0.199021 0.950733 0.797148
O O6 0.135146 0.833953 0.912213
O O7 0.250000 0.896664 0.000000
O O8 0.151360 0.000000 0.000000
O O9 0.000000 0.500000 0.500000
O O10 0.000000 0.666684 0.558757
O O11 0.437005 0.750000 0.259459
O O12 0.313511 0.750000 0.272060
O O13 0.250000 0.250000 0.500000
#
# Coordination Sequence:
#
# PCOD9502766 Si02
#       7
#    16  16   8   8   8   4   8
#     4  11  20  34  51  81 124 158 199 237 291 359
#     4   9  21  40  61  90 118 147 204 268 327 360
#     4  10  22  36  54  79 130 170 193 241 289 354
#     4  10  20  34  58  88 124 162 200 250 296 374
#     4  12  21  38  65  84 119 163 206 252 315 363
#     4  12  24  42  58  96 118 172 218 232 282 394
#     4  12  22  31  55  89 120 157 208 246 292 358
#
# _framework density 19.703220999999999
#
# number of rings (size 3 to 8) (size 9 to 14) (size 15 to 20)
#    0.000    1.647    2.353    4.941    3.294    0.000 
#    0.000    1.765    0.000    4.235    0.000    0.824 
#    0.000    0.000    0.000    0.000    0.000    0.000 
#
# Total GULP energy -189312.671765 kJ/mol
# GULP energy per Si atom -5568.019758 kJ/mol
# Density = 1.965838 g / cm^3
# Si number density = 19.703221 Si / 1000 Ang^3
#
#
#
# Elastic Constant Matrix: (Units=GPa)
#
#
# Indices 1 2 3 4 5 6 
#
# 1 81.9399 29.8549 25.2647 0.0000 0.0000 0.0000
# 2 29.8549 171.4419 40.9883 0.0000 0.0000 0.0000
# 3 25.2647 40.9883 60.7219 0.0000 0.0000 0.0000
# 4 0.0000 0.0000 0.0000 25.0353 0.0000 0.0000
# 5 0.0000 0.0000 0.0000 0.0000 10.0762 0.0000
# 6 0.0000 0.0000 0.0000 0.0000 0.0000 97.0889
#
#
#
# Elastic Compliance Matrix: (Units=1/GPa)
#
#
# Indices 1 2 3 4 5 6 
#
# 1 0.014227 -0.001267 -0.005064 0.000000 0.000000 0.000000
# 2 -0.001267 0.007068 -0.004244 0.000000 0.000000 0.000000
# 3 -0.005064 -0.004244 0.021441 0.000000 0.000000 0.000000
# 4 0.000000 0.000000 0.000000 0.039944 0.000000 0.000000
# 5 0.000000 0.000000 0.000000 0.000000 0.099244 0.000000
# 6 0.000000 0.000000 0.000000 0.000000 0.000000 0.010300
#
#
# Mechanical properties :
#
#
# Convention : Reuss Voigt Hill
#
# Bulk Modulus (GPa) = 46.32782 56.25773 51.29278
# Shear Modulus (GPa) = 22.66868 40.97313 31.82091
#
# Velocity S-wave (km/s) = 3.39559 4.56512 4.02308
# Velocity P-wave (km/s) = 6.23997 7.51010 6.90430
#
# Compressibility (1/GPa) = 0.02158530
#
# Stress axis : x y z
#
# Youngs Moduli (GPa) = 70.28820 141.48009 46.64066
#
# Poissons Ratio (x) = 0.17921 0.23621
# Poissons Ratio (y) = 0.08903 0.19795
# Poissons Ratio (z) = 0.35597 0.60045
#
# Static dielectric constant tensor:
#      x y z
#    x 1.871780 0.000000 0.000000 
#    y 0.000000 1.718320 0.000000 
#    z 0.000000 0.000000 1.695070 
# 
# From -- ./inp_files/20475.got.cif
#   From: 2010.05.17/outbox.cif.g08.bks.cpg/sg67_11_cif.got.tgz:20475.got - 2010.06.03 18:28:57.
