data_PCOD9502160
_publ_section_title
;
Structure prediction by ZEFSAII (Michael W. Deem and Ramdas Pophale) SiO2 
 PCOD9502160
Probable space group: C M M A
;
_chemical_formula_sum "Si O2"
_cell_formula_units_Z 104
_cell_length_a 25.370668
_cell_length_b 8.601677
_cell_length_c 27.165286
_cell_angle_alpha 90.000000
_cell_angle_beta 90.000000
_cell_angle_gamma 90.000000
_cell_volume 5928.288280
_symmetry_space_group_name_H-M "C M M A"
_symmetry_group_IT_number 67
_symmetry_cell_setting 'orthorhombic'
loop_
_space_group_symop_operation_xyz
x,y,z
-x,1/2-y,z
x,-y,-z
-x,1/2+y,-z
-x,-y,-z
x,1/2+y,-z
-x,y,z
x,1/2-y,z
1/2+x,1/2+y,z
1/2-x,-y,z
1/2+x,1/2-y,-z
1/2-x,y,-z
1/2-x,1/2-y,-z
1/2+x,y,-z
1/2-x,1/2+y,z
1/2+x,-y,z
loop_
_atom_site_type_symbol
_atom_site_label
_atom_site_fract_x
_atom_site_fract_y
_atom_site_fract_z
Si Si1 0.614596 0.062278 0.141046
Si Si2 0.915101 0.937544 0.365279
Si Si3 0.500000 0.939887 0.828587
Si Si4 0.500000 0.939152 0.714883
Si Si5 0.307401 0.936998 0.945128
Si Si6 0.500000 0.437291 0.445139
Si Si7 0.693960 0.064654 0.664545
Si Si8 0.193397 0.436240 0.221051
O O1 0.614870 0.250000 0.141835
O O2 0.554048 0.010097 0.145292
O O3 0.647201 0.013158 0.092803
O O4 0.646969 0.003185 0.188026
O O5 0.912861 0.750000 0.364433
O O6 0.948871 0.986870 0.316975
O O7 0.949271 0.985130 0.412739
O O8 0.856807 0.003882 0.363887
O O9 0.500000 0.750000 0.828122
O O10 0.500000 0.991212 0.771312
O O11 0.500000 0.750000 0.715409
O O12 0.305105 0.750000 0.946436
O O13 0.250000 0.000000 0.929303
O O14 0.317072 0.000000 0.000000
O O15 0.500000 0.250000 0.446559
O O16 0.500000 0.500000 0.500000
O O17 0.695513 0.250000 0.663393
O O18 0.687652 0.014931 0.721888
O O19 0.750000 0.000000 0.646904
O O20 0.193678 0.250000 0.218515
O O21 0.250000 0.500000 0.203578
#
# Coordination Sequence:
#
# PCOD9502160 Si02
#       8
#    16  16   8   8  16   8  16  16
#     4  10  20  33  51  73  97 128 165 201 240 288
#     4   9  17  31  51  75 101 132 171 210 247 290
#     4   9  17  30  48  71  99 132 166 195 228 280
#     4   8  14  26  48  73  97 129 166 202 238 277
#     4  10  20  34  53  75  94 116 150 196 248 298
#     4   9  19  34  54  80 106 133 168 211 259 303
#     4  10  20  32  47  71 102 137 171 203 243 293
#     4  10  20  32  48  72 102 133 166 203 245 292
#
# _framework density 17.543005000000001
#
# number of rings (size 3 to 8) (size 9 to 14) (size 15 to 20)
#    0.000    2.462    0.000    4.154    0.000    6.154 
#    0.000    1.923    0.000    5.077    0.000    3.231 
#    0.000    0.000    0.000    0.000    0.000    0.000 
#
# Total GULP energy -290146.032823 kJ/mol
# GULP energy per Si atom -5579.731400 kJ/mol
# Density = 1.750308 g / cm^3
# Si number density = 17.543005 Si / 1000 Ang^3
#
#
#
# Elastic Constant Matrix: (Units=GPa)
#
#
# Indices 1 2 3 4 5 6 
#
# 1 193.9858 30.7322 84.6594 0.0000 0.0000 0.0000
# 2 30.7322 15.9901 22.5411 0.0000 0.0000 0.0000
# 3 84.6594 22.5411 101.3697 0.0000 0.0000 0.0000
# 4 0.0000 0.0000 0.0000 20.8188 0.0000 0.0000
# 5 0.0000 0.0000 0.0000 0.0000 13.2522 0.0000
# 6 0.0000 0.0000 0.0000 0.0000 0.0000 22.1965
#
#
#
# Elastic Compliance Matrix: (Units=1/GPa)
#
#
# Indices 1 2 3 4 5 6 
#
# 1 0.009061 -0.009828 -0.005382 0.000000 0.000000 0.000000
# 2 -0.009828 0.101753 -0.014419 0.000000 0.000000 0.000000
# 3 -0.005382 -0.014419 0.017566 0.000000 0.000000 0.000000
# 4 0.000000 0.000000 0.000000 0.048033 0.000000 0.000000
# 5 0.000000 0.000000 0.000000 0.000000 0.075459 0.000000
# 6 0.000000 0.000000 0.000000 0.000000 0.000000 0.045052
#
#
# Mechanical properties :
#
#
# Convention : Reuss Voigt Hill
#
# Bulk Modulus (GPa) = 14.46691 65.24565 39.85628
# Shear Modulus (GPa) = 13.18490 22.81435 17.99963
#
# Velocity S-wave (km/s) = 2.74446 3.61013 3.20664
# Velocity P-wave (km/s) = 4.27869 7.39256 6.03975
#
# Compressibility (1/GPa) = 0.06912327
#
# Stress axis : x y z
#
# Youngs Moduli (GPa) = 110.36734 9.82771 56.92917
#
# Poissons Ratio (x) = 0.09658 0.30638
# Poissons Ratio (y) = 1.08465 0.82085
# Poissons Ratio (z) = 0.59397 0.14170
#
# Static dielectric constant tensor:
#      x y z
#    x 1.597340 0.000000 0.000000 
#    y 0.000000 1.595750 0.000000 
#    z 0.000000 0.000000 1.586930 
# 
# From -- ./inp_files/44887.got.cif
#   From: 2010.05.17/outbox.cif.g08.bks.cpg/sg67_23_cif.got.tgz:44887.got - 2010.06.03 18:28:57.
