data_PCOD9502644
_publ_section_title
;
Structure prediction by ZEFSAII (Michael W. Deem and Ramdas Pophale) SiO2 
 PCOD9502644
Probable space group: C M M A
;
_chemical_formula_sum "Si O2"
_cell_formula_units_Z 72
_cell_length_a 32.298337
_cell_length_b 9.284119
_cell_length_c 13.999846
_cell_angle_alpha 90.000000
_cell_angle_beta 90.000000
_cell_angle_gamma 90.000000
_cell_volume 4198.016280
_symmetry_space_group_name_H-M "C M M A"
_symmetry_group_IT_number 67
_symmetry_cell_setting 'orthorhombic'
loop_
_space_group_symop_operation_xyz
x,y,z
-x,1/2-y,z
x,-y,-z
-x,1/2+y,-z
-x,-y,-z
x,1/2+y,-z
-x,y,z
x,1/2-y,z
1/2+x,1/2+y,z
1/2-x,-y,z
1/2+x,1/2-y,-z
1/2-x,y,-z
1/2-x,1/2-y,-z
1/2+x,y,-z
1/2-x,1/2+y,z
1/2+x,-y,z
loop_
_atom_site_type_symbol
_atom_site_label
_atom_site_fract_x
_atom_site_fract_y
_atom_site_fract_z
Si Si1 0.793835 0.426959 0.103117
Si Si2 0.838231 0.522338 0.711476
Si Si3 0.500000 0.424466 0.395013
Si Si4 0.812184 0.250000 0.594879
Si Si5 0.919394 0.582731 0.600068
Si Si6 0.786299 0.750000 0.614099
O O1 0.791035 0.250000 0.098927
O O2 0.750000 0.500000 0.134751
O O3 0.829948 0.476036 0.175985
O O4 0.801300 0.500000 0.000000
O O5 0.832208 0.380238 0.650343
O O6 0.881448 0.583660 0.673857
O O7 0.799760 0.615464 0.674666
O O8 0.500000 0.250000 0.396220
O O9 0.500000 0.500000 0.500000
O O10 0.542439 0.492113 0.355162
O O11 0.815367 0.250000 0.480434
O O12 0.762396 0.250000 0.601186
O O13 0.908475 0.500000 0.500000
O O14 0.930670 0.750000 0.578624
#
# Coordination Sequence:
#
# PCOD9502644 Si02
#       6
#    16  16   8   8  16   8
#     4  11  23  40  59  81 106 142 190 243 292 333
#     4  12  24  35  56  80 110 146 192 234 277 332
#     4  10  20  34  54  80 109 146 185 226 273 331
#     4  11  24  32  55  72 114 150 192 218 275 317
#     4  11  21  36  55  80 113 149 185 228 276 333
#     4  11  20  40  47  78 108 154 184 230 261 331
#
# _framework density 17.150957999999999
#
# number of rings (size 3 to 8) (size 9 to 14) (size 15 to 20)
#    0.000    0.889    2.222    8.333    6.222    1.778 
#    0.000    0.000    0.000    0.000    0.000    0.778 
#    0.000    0.000    0.000    0.000    0.000    0.000 
#
# Total GULP energy -200560.949413 kJ/mol
# GULP energy per Si atom -5571.137484 kJ/mol
# Density = 1.711192 g / cm^3
# Si number density = 17.150958 Si / 1000 Ang^3
#
#
#
# Elastic Constant Matrix: (Units=GPa)
#
#
# Indices 1 2 3 4 5 6 
#
# 1 85.0397 19.0958 37.7474 0.0000 0.0000 0.0000
# 2 19.0958 110.9827 22.8342 0.0000 0.0000 0.0000
# 3 37.7474 22.8342 84.4733 0.0000 0.0000 0.0000
# 4 0.0000 0.0000 0.0000 22.2861 0.0000 0.0000
# 5 0.0000 0.0000 0.0000 0.0000 21.1322 0.0000
# 6 0.0000 0.0000 0.0000 0.0000 0.0000 16.0996
#
#
#
# Elastic Compliance Matrix: (Units=1/GPa)
#
#
# Indices 1 2 3 4 5 6 
#
# 1 0.014833 -0.001258 -0.006288 0.000000 0.000000 0.000000
# 2 -0.001258 0.009648 -0.002046 0.000000 0.000000 0.000000
# 3 -0.006288 -0.002046 0.015201 0.000000 0.000000 0.000000
# 4 0.000000 0.000000 0.000000 0.044871 0.000000 0.000000
# 5 0.000000 0.000000 0.000000 0.000000 0.047321 0.000000
# 6 0.000000 0.000000 0.000000 0.000000 0.000000 0.062113
#
#
# Mechanical properties :
#
#
# Convention : Reuss Voigt Hill
#
# Bulk Modulus (GPa) = 48.78641 48.87228 48.82934
# Shear Modulus (GPa) = 22.72688 25.29145 24.00917
#
# Velocity S-wave (km/s) = 3.64415 3.84427 3.74555
# Velocity P-wave (km/s) = 6.79805 6.94707 6.87296
#
# Compressibility (1/GPa) = 0.02049751
#
# Stress axis : x y z
#
# Youngs Moduli (GPa) = 67.41757 103.65047 65.78577
#
# Poissons Ratio (x) = 0.13044 0.41366
# Poissons Ratio (y) = 0.08484 0.13457
# Poissons Ratio (z) = 0.42392 0.21203
#
# Static dielectric constant tensor:
#      x y z
#    x 1.629780 0.000000 0.000000 
#    y 0.000000 1.592210 0.000000 
#    z 0.000000 0.000000 1.613630 
# 
# From -- ./inp_files/31008.got.cif
#   From: 2010.05.17/outbox.cif.g08.bks.cpg/sg67_16_cif.got.tgz:31008.got - 2010.06.03 18:28:57.
