data_PCOD9502049
_publ_section_title
;
Structure prediction by ZEFSAII (Michael W. Deem and Ramdas Pophale) SiO2 
 PCOD9502049
Probable space group: C M M A
;
_chemical_formula_sum "Si O2"
_cell_formula_units_Z 112
_cell_length_a 14.650970
_cell_length_b 23.078367
_cell_length_c 17.343655
_cell_angle_alpha 90.000000
_cell_angle_beta 90.000000
_cell_angle_gamma 90.000000
_cell_volume 5864.244651
_symmetry_space_group_name_H-M "C M M A"
_symmetry_group_IT_number 67
_symmetry_cell_setting 'orthorhombic'
loop_
_space_group_symop_operation_xyz
x,y,z
-x,1/2-y,z
x,-y,-z
-x,1/2+y,-z
-x,-y,-z
x,1/2+y,-z
-x,y,z
x,1/2-y,z
1/2+x,1/2+y,z
1/2-x,-y,z
1/2+x,1/2-y,-z
1/2-x,y,-z
1/2-x,1/2-y,-z
1/2+x,y,-z
1/2-x,1/2+y,z
1/2+x,-y,z
loop_
_atom_site_type_symbol
_atom_site_label
_atom_site_fract_x
_atom_site_fract_y
_atom_site_fract_z
Si Si1 0.766746 0.817247 0.730872
Si Si2 0.607154 0.997248 0.627161
Si Si3 0.604871 0.858786 0.830462
Si Si4 0.640306 0.684214 0.000989
Si Si5 0.394409 0.887089 0.151819
Si Si6 0.106872 0.988505 0.188087
Si Si7 0.245947 0.901923 0.586724
O O1 0.789499 0.750000 0.719562
O O2 0.669681 0.822992 0.774261
O O3 0.837837 0.848253 0.788627
O O4 0.762465 0.853398 0.651981
O O5 0.500000 0.996432 0.606772
O O6 0.614751 0.997720 0.720145
O O7 0.663550 0.940995 0.600440
O O8 0.661440 0.052989 0.595577
O O9 0.500000 0.859504 0.802977
O O10 0.642450 0.924821 0.831410
O O11 0.608115 0.834009 0.916479
O O12 0.611334 0.750000 0.018155
O O13 0.609000 0.641649 0.068096
O O14 0.750000 0.683101 0.000000
O O15 0.500000 0.890033 0.177876
O O16 0.356738 0.952864 0.150184
O O17 0.000000 0.985488 0.166555
O O18 0.250000 0.878762 0.500000
#
# Coordination Sequence:
#
# PCOD9502049 Si02
#       7
#    16  16  16  16  16  16  16
#     4  12  25  41  62  86 120 164 208 252 292 355
#     4  10  19  38  65  94 124 154 195 248 305 367
#     4  11  23  41  64  90 121 159 203 252 306 358
#     4  11  23  40  59  87 126 164 207 252 290 344
#     4  11  23  41  64  90 121 159 203 252 306 358
#     4   9  19  36  63  92 118 152 195 246 303 363
#     4  11  24  39  62  95 124 158 200 245 306 368
#
# _framework density 19.098794000000002
#
# number of rings (size 3 to 8) (size 9 to 14) (size 15 to 20)
#    0.000    1.286    4.286    2.143    0.000    5.429 
#    0.000    2.857    0.000    0.000    0.000    4.000 
#    0.000    0.000    0.000    0.000    0.000    0.000 
#
# Total GULP energy -312910.825316 kJ/mol
# GULP energy per Si atom -5587.693309 kJ/mol
# Density = 1.905532 g / cm^3
# Si number density = 19.098794 Si / 1000 Ang^3
#
#
#
# Elastic Constant Matrix: (Units=GPa)
#
#
# Indices 1 2 3 4 5 6 
#
# 1 89.7047 -4.0588 -13.0864 0.0000 0.0000 0.0000
# 2 -4.0588 87.9436 11.2341 0.0000 0.0000 0.0000
# 3 -13.0864 11.2341 65.3428 0.0000 0.0000 0.0000
# 4 0.0000 0.0000 0.0000 111.8551 0.0000 0.0000
# 5 0.0000 0.0000 0.0000 0.0000 17.4450 0.0000
# 6 0.0000 0.0000 0.0000 0.0000 0.0000 13.6912
#
#
#
# Elastic Compliance Matrix: (Units=1/GPa)
#
#
# Indices 1 2 3 4 5 6 
#
# 1 0.011488 0.000242 0.002259 0.000000 0.000000 0.000000
# 2 0.000242 0.011631 -0.001951 0.000000 0.000000 0.000000
# 3 0.002259 -0.001951 0.016092 0.000000 0.000000 0.000000
# 4 0.000000 0.000000 0.000000 0.008940 0.000000 0.000000
# 5 0.000000 0.000000 0.000000 0.000000 0.057323 0.000000
# 6 0.000000 0.000000 0.000000 0.000000 0.000000 0.073040
#
#
# Mechanical properties :
#
#
# Convention : Reuss Voigt Hill
#
# Bulk Modulus (GPa) = 24.80750 25.68545 25.24647
# Shear Modulus (GPa) = 26.19828 45.19172 35.69500
#
# Velocity S-wave (km/s) = 3.70770 4.86965 4.32784
# Velocity P-wave (km/s) = 5.59880 6.71534 6.18233
#
# Compressibility (1/GPa) = 0.04031039
#
# Stress axis : x y z
#
# Youngs Moduli (GPa) = 87.04582 85.97459 62.14327
#
# Poissons Ratio (x) = -0.02077 -0.14040
# Poissons Ratio (y) = -0.02103 0.12126
# Poissons Ratio (z) = -0.19666 0.16777
#
# Static dielectric constant tensor:
#      x y z
#    x 1.699330 0.000000 0.000000 
#    y 0.000000 1.663110 0.000000 
#    z 0.000000 0.000000 1.632660 
# 
# From -- ./inp_files/27469.got.cif
#   From: 2010.05.17/outbox.cif.g08.bks.cpg/sg67_14_cif.got.tgz:27469.got - 2010.06.03 18:28:57.
