data_PCOD9502304
_publ_section_title
;
Structure prediction by ZEFSAII (Michael W. Deem and Ramdas Pophale) SiO2 
 PCOD9502304
Probable space group: C M M A
;
_chemical_formula_sum "Si O2"
_cell_formula_units_Z 80
_cell_length_a 30.699305
_cell_length_b 15.408009
_cell_length_c 7.467550
_cell_angle_alpha 90.000000
_cell_angle_beta 90.000000
_cell_angle_gamma 90.000000
_cell_volume 3532.264416
_symmetry_space_group_name_H-M "C M M A"
_symmetry_group_IT_number 67
_symmetry_cell_setting 'orthorhombic'
loop_
_space_group_symop_operation_xyz
x,y,z
-x,1/2-y,z
x,-y,-z
-x,1/2+y,-z
-x,-y,-z
x,1/2+y,-z
-x,y,z
x,1/2-y,z
1/2+x,1/2+y,z
1/2-x,-y,z
1/2+x,1/2-y,-z
1/2-x,y,-z
1/2-x,1/2-y,-z
1/2+x,y,-z
1/2-x,1/2+y,z
1/2+x,-y,z
loop_
_atom_site_type_symbol
_atom_site_label
_atom_site_fract_x
_atom_site_fract_y
_atom_site_fract_z
Si Si1 0.359875 0.152517 0.737360
Si Si2 0.639794 0.652027 0.841219
Si Si3 0.548137 0.595290 0.409781
Si Si4 0.300396 0.003370 0.220443
Si Si5 0.046337 0.651674 0.200208
O O1 0.353672 0.250000 0.662298
O O2 0.409654 0.122374 0.701784
O O3 0.326971 0.075123 0.688929
O O4 0.350962 0.159774 0.949269
O O5 0.637098 0.750000 0.767465
O O6 0.674581 0.593063 0.742391
O O7 0.592065 0.607671 0.839938
O O8 0.552843 0.500000 0.500000
O O9 0.500000 0.599389 0.321112
O O10 0.546342 0.655439 0.585039
O O11 0.250000 0.000000 0.270509
O O12 0.302156 0.000000 0.000000
O O13 0.047901 0.750000 0.125493
O O14 0.000000 0.611567 0.146018
#
# Coordination Sequence:
#
# PCOD9502304 Si02
#       5
#    16  16  16  16  16
#     4  10  20  33  52  80 108 134 171 218 263 305
#     4   9  18  32  52  78 105 135 173 215 258 306
#     4  10  20  33  50  73 102 138 176 210 250 304
#     4   9  18  33  52  74 102 135 171 215 265 313
#     4   9  17  30  48  70  98 133 168 199 240 299
#
# _framework density 22.64836
#
# number of rings (size 3 to 8) (size 9 to 14) (size 15 to 20)
#    0.000    2.600    0.000    1.800    0.000    2.800 
#    0.000    6.000    0.000   12.600    0.000    8.400 
#    0.000    0.000    0.000    0.000    0.000    0.000 
#
# Total GULP energy -222923.640227 kJ/mol
# GULP energy per Si atom -5573.091006 kJ/mol
# Density = 2.259681 g / cm^3
# Si number density = 22.648360 Si / 1000 Ang^3
#
#
#
# Elastic Constant Matrix: (Units=GPa)
#
#
# Indices 1 2 3 4 5 6 
#
# 1 174.5099 76.2409 -9.6164 0.0000 0.0000 0.0000
# 2 76.2409 130.6395 1.4276 0.0000 0.0000 0.0000
# 3 -9.6164 1.4276 47.1619 0.0000 0.0000 0.0000
# 4 0.0000 0.0000 0.0000 8.7939 0.0000 0.0000
# 5 0.0000 0.0000 0.0000 0.0000 41.3711 0.0000
# 6 0.0000 0.0000 0.0000 0.0000 0.0000 13.8772
#
#
#
# Elastic Compliance Matrix: (Units=1/GPa)
#
#
# Indices 1 2 3 4 5 6 
#
# 1 0.007831 -0.004589 0.001736 0.000000 0.000000 0.000000
# 2 -0.004589 0.010346 -0.001249 0.000000 0.000000 0.000000
# 3 0.001736 -0.001249 0.021595 0.000000 0.000000 0.000000
# 4 0.000000 0.000000 0.000000 0.113715 0.000000 0.000000
# 5 0.000000 0.000000 0.000000 0.000000 0.024171 0.000000
# 6 0.000000 0.000000 0.000000 0.000000 0.000000 0.072061
#
#
# Mechanical properties :
#
#
# Convention : Reuss Voigt Hill
#
# Bulk Modulus (GPa) = 31.67765 54.26837 42.97301
# Shear Modulus (GPa) = 18.62569 31.75907 25.19238
#
# Velocity S-wave (km/s) = 2.87084 3.74875 3.33877
# Velocity P-wave (km/s) = 5.00060 6.53841 5.82052
#
# Compressibility (1/GPa) = 0.03156800
#
# Stress axis : x y z
#
# Youngs Moduli (GPa) = 127.69990 96.65156 46.30640
#
# Poissons Ratio (x) = 0.44354 -0.08037
# Poissons Ratio (y) = 0.58602 0.05783
# Poissons Ratio (z) = -0.22164 0.12071
#
# Static dielectric constant tensor:
#      x y z
#    x 1.847580 0.000000 0.000000 
#    y 0.000000 1.904350 0.000000 
#    z 0.000000 0.000000 1.869930 
# 
# From -- ./inp_files/10116.got.cif
#   From: 2010.05.17/outbox.cif.g08.bks.cpg/sg67_6_cif.got.tgz:10116.got - 2010.06.03 18:28:57.
