data_PCOD9502469
_publ_section_title
;
Structure prediction by ZEFSAII (Michael W. Deem and Ramdas Pophale) SiO2 
 PCOD9502469
Probable space group: C M M A
;
_chemical_formula_sum "Si O2"
_cell_formula_units_Z 112
_cell_length_a 19.575796
_cell_length_b 18.512865
_cell_length_c 17.406669
_cell_angle_alpha 90.000000
_cell_angle_beta 90.000000
_cell_angle_gamma 90.000000
_cell_volume 6308.247667
_symmetry_space_group_name_H-M "C M M A"
_symmetry_group_IT_number 67
_symmetry_cell_setting 'orthorhombic'
loop_
_space_group_symop_operation_xyz
x,y,z
-x,1/2-y,z
x,-y,-z
-x,1/2+y,-z
-x,-y,-z
x,1/2+y,-z
-x,y,z
x,1/2-y,z
1/2+x,1/2+y,z
1/2-x,-y,z
1/2+x,1/2-y,-z
1/2-x,y,-z
1/2-x,1/2-y,-z
1/2+x,y,-z
1/2-x,1/2+y,z
1/2+x,-y,z
loop_
_atom_site_type_symbol
_atom_site_label
_atom_site_fract_x
_atom_site_fract_y
_atom_site_fract_z
Si Si1 0.686740 0.334577 0.265163
Si Si2 0.580054 0.451746 0.216948
Si Si3 0.672227 0.477828 0.911737
Si Si4 0.803504 0.336657 0.563128
Si Si5 0.174570 0.666492 0.826010
Si Si6 0.918758 0.083674 0.482134
Si Si7 0.919847 0.899372 0.695081
O O1 0.668586 0.250000 0.267917
O O2 0.622200 0.383041 0.244976
O O3 0.713791 0.356299 0.349600
O O4 0.748280 0.342913 0.205106
O O5 0.500000 0.437733 0.204975
O O6 0.617838 0.480838 0.140983
O O7 0.586315 0.517240 0.278135
O O8 0.750000 0.500000 0.889833
O O9 0.663421 0.392914 0.892226
O O10 0.663271 0.500000 0.000000
O O11 0.804316 0.250000 0.558230
O O12 0.750000 0.364478 0.500000
O O13 0.876705 0.367621 0.540381
O O14 0.164538 0.750000 0.848499
O O15 0.125477 0.646739 0.754014
O O16 0.900457 0.104845 0.394393
O O17 0.000000 0.092741 0.490517
O O18 0.902968 0.000000 0.500000
O O19 0.000000 0.879424 0.702343
#
# Coordination Sequence:
#
# PCOD9502469 Si02
#       7
#    16  16  16  16  16  16  16
#     4  10  20  34  53  77 105 143 188 230 275 326
#     4  10  20  36  57  81 110 145 182 223 272 328
#     4  10  20  38  62  87 115 143 179 221 266 331
#     4  10  21  35  50  72 104 141 183 232 280 326
#     4  10  20  36  58  84 113 145 181 227 278 330
#     4  10  20  34  50  73 105 141 186 235 281 329
#     4   9  19  33  53  78 105 143 187 233 282 331
#
# _framework density 17.754535000000001
#
# number of rings (size 3 to 8) (size 9 to 14) (size 15 to 20)
#    0.000    2.143    1.429    1.714    0.000    4.857 
#    0.000    7.857    0.000    0.000    0.000    0.000 
#    0.000    0.000    0.000    0.000    0.000    0.000 
#
# Total GULP energy -312445.477960 kJ/mol
# GULP energy per Si atom -5579.383535 kJ/mol
# Density = 1.771412 g / cm^3
# Si number density = 17.754535 Si / 1000 Ang^3
#
#
#
# Elastic Constant Matrix: (Units=GPa)
#
#
# Indices 1 2 3 4 5 6 
#
# 1 59.6157 32.0892 15.4749 0.0000 0.0000 0.0000
# 2 32.0892 75.0253 45.5474 0.0000 0.0000 0.0000
# 3 15.4749 45.5474 72.3425 0.0000 0.0000 0.0000
# 4 0.0000 0.0000 0.0000 13.6162 0.0000 0.0000
# 5 0.0000 0.0000 0.0000 0.0000 22.3364 0.0000
# 6 0.0000 0.0000 0.0000 0.0000 0.0000 25.7135
#
#
#
# Elastic Compliance Matrix: (Units=1/GPa)
#
#
# Indices 1 2 3 4 5 6 
#
# 1 0.021963 -0.010589 0.001969 0.000000 0.000000 0.000000
# 2 -0.010589 0.026681 -0.014534 0.000000 0.000000 0.000000
# 3 0.001969 -0.014534 0.022552 0.000000 0.000000 0.000000
# 4 0.000000 0.000000 0.000000 0.073442 0.000000 0.000000
# 5 0.000000 0.000000 0.000000 0.000000 0.044770 0.000000
# 6 0.000000 0.000000 0.000000 0.000000 0.000000 0.038890
#
#
# Mechanical properties :
#
#
# Convention : Reuss Voigt Hill
#
# Bulk Modulus (GPa) = 40.17859 43.68962 41.93411
# Shear Modulus (GPa) = 17.67397 19.92468 18.79933
#
# Velocity S-wave (km/s) = 3.15852 3.35361 3.25752
# Velocity P-wave (km/s) = 5.99840 6.29735 6.14969
#
# Compressibility (1/GPa) = 0.02488887
#
# Stress axis : x y z
#
# Youngs Moduli (GPa) = 45.53160 37.47976 44.34122
#
# Poissons Ratio (x) = 0.39687 -0.08730
# Poissons Ratio (y) = 0.48213 0.64443
# Poissons Ratio (z) = -0.08964 0.54471
#
# Static dielectric constant tensor:
#      x y z
#    x 1.592720 0.000000 0.000000 
#    y 0.000000 1.595380 0.000000 
#    z 0.000000 0.000000 1.603170 
# 
# From -- ./inp_files/35121.got.cif
#   From: 2010.05.17/outbox.cif.g08.bks.cpg/sg67_18_cif.got.tgz:35121.got - 2010.06.03 18:28:57.
