data_PCOD9502551
_publ_section_title
;
Structure prediction by ZEFSAII (Michael W. Deem and Ramdas Pophale) SiO2 
 PCOD9502551
Probable space group: C M M A
;
_chemical_formula_sum "Si O2"
_cell_formula_units_Z 84
_cell_length_a 11.291002
_cell_length_b 14.160145
_cell_length_c 30.167470
_cell_angle_alpha 90.000000
_cell_angle_beta 90.000000
_cell_angle_gamma 90.000000
_cell_volume 4823.242242
_symmetry_space_group_name_H-M "C M M A"
_symmetry_group_IT_number 67
_symmetry_cell_setting 'orthorhombic'
loop_
_space_group_symop_operation_xyz
x,y,z
-x,1/2-y,z
x,-y,-z
-x,1/2+y,-z
-x,-y,-z
x,1/2+y,-z
-x,y,z
x,1/2-y,z
1/2+x,1/2+y,z
1/2-x,-y,z
1/2+x,1/2-y,-z
1/2-x,y,-z
1/2-x,1/2-y,-z
1/2+x,y,-z
1/2-x,1/2+y,z
1/2+x,-y,z
loop_
_atom_site_type_symbol
_atom_site_label
_atom_site_fract_x
_atom_site_fract_y
_atom_site_fract_z
Si Si1 0.858280 0.856736 0.830596
Si Si2 0.138175 0.433487 0.592797
Si Si3 0.640846 0.643478 0.691735
Si Si4 0.250000 0.000000 0.000000
Si Si5 0.132846 0.750000 0.469860
Si Si6 0.141920 0.856873 0.930745
Si Si7 0.250000 0.000000 0.238252
O O1 0.815505 0.750000 0.819805
O O2 0.816084 0.880111 0.880642
O O3 0.824285 0.933373 0.794456
O O4 0.000000 0.852693 0.832348
O O5 0.250000 0.500000 0.580342
O O6 0.163693 0.398023 0.642821
O O7 0.137767 0.342713 0.560936
O O8 0.000000 0.471677 0.591681
O O9 0.500000 0.650556 0.695337
O O10 0.690999 0.750000 0.695859
O O11 0.683322 0.572143 0.729293
O O12 0.321504 0.931583 0.032669
O O13 0.250000 0.750000 0.500000
O O14 0.000000 0.750000 0.491558
O O15 0.183597 0.750000 0.941055
O O16 0.000000 0.854376 0.929326
#
# Coordination Sequence:
#
# PCOD9502551 Si02
#       7
#    16  16  16   4   8  16   8
#     4   9  19  35  50  68 100 137 169 207 258 316
#     4  10  20  38  60  84 113 151 187 229 277 332
#     4  10  20  34  52  76 108 142 175 214 271 325
#     4  12  18  28  52  80  92 116 172 218 252 308
#     4  10  22  40  64  86 118 156 194 230 282 339
#     4   9  19  34  49  68  99 133 162 203 262 317
#     4  12  19  30  54  81  99 128 180 225 256 298
#
# _framework density 17.415671
#
# number of rings (size 3 to 8) (size 9 to 14) (size 15 to 20)
#    0.000    2.095    1.905    3.429    0.000    1.143 
#    0.000    1.905    0.000    1.143    0.000   16.000 
#    0.000    0.000    0.000    0.000    0.000    0.000 
#
# Total GULP energy -233896.163236 kJ/mol
# GULP energy per Si atom -5568.956268 kJ/mol
# Density = 1.737603 g / cm^3
# Si number density = 17.415671 Si / 1000 Ang^3
#
#
#
# Elastic Constant Matrix: (Units=GPa)
#
#
# Indices 1 2 3 4 5 6 
#
# 1 70.6172 51.4776 41.9956 0.0000 0.0000 0.0000
# 2 51.4776 99.4176 41.9808 0.0000 0.0000 0.0000
# 3 41.9956 41.9808 90.6779 0.0000 0.0000 0.0000
# 4 0.0000 0.0000 0.0000 8.5438 0.0000 0.0000
# 5 0.0000 0.0000 0.0000 0.0000 27.6889 0.0000
# 6 0.0000 0.0000 0.0000 0.0000 0.0000 29.5486
#
#
#
# Elastic Compliance Matrix: (Units=1/GPa)
#
#
# Indices 1 2 3 4 5 6 
#
# 1 0.026085 -0.010448 -0.007244 0.000000 0.000000 0.000000
# 2 -0.010448 0.016687 -0.002887 0.000000 0.000000 0.000000
# 3 -0.007244 -0.002887 0.015719 0.000000 0.000000 0.000000
# 4 0.000000 0.000000 0.000000 0.117043 0.000000 0.000000
# 5 0.000000 0.000000 0.000000 0.000000 0.036116 0.000000
# 6 0.000000 0.000000 0.000000 0.000000 0.000000 0.033843
#
#
# Mechanical properties :
#
#
# Convention : Reuss Voigt Hill
#
# Bulk Modulus (GPa) = 57.68785 59.06897 58.37841
# Shear Modulus (GPa) = 17.09824 21.50685 19.30254
#
# Velocity S-wave (km/s) = 3.13673 3.51795 3.33279
# Velocity P-wave (km/s) = 6.80549 7.10577 6.95725
#
# Compressibility (1/GPa) = 0.01733467
#
# Stress axis : x y z
#
# Youngs Moduli (GPa) = 38.33684 59.92543 63.61562
#
# Poissons Ratio (x) = 0.62608 0.46081
# Poissons Ratio (y) = 0.40053 0.18367
# Poissons Ratio (z) = 0.27770 0.17301
#
# Static dielectric constant tensor:
#      x y z
#    x 1.584500 0.000000 0.000000 
#    y 0.000000 1.606140 0.000000 
#    z 0.000000 0.000000 1.589040 
# 
# From -- ./inp_files/41423.got.cif
#   From: 2010.05.17/outbox.cif.g08.bks.cpg/sg67_21_cif.got.tgz:41423.got - 2010.06.03 18:28:57.
