data_PCOD9502126
_publ_section_title
;
Structure prediction by ZEFSAII (Michael W. Deem and Ramdas Pophale) SiO2 
 PCOD9502126
Probable space group: C M M A
;
_chemical_formula_sum "Si O2"
_cell_formula_units_Z 116
_cell_length_a 9.085348
_cell_length_b 30.039056
_cell_length_c 23.980474
_cell_angle_alpha 90.000000
_cell_angle_beta 90.000000
_cell_angle_gamma 90.000000
_cell_volume 6544.637713
_symmetry_space_group_name_H-M "C M M A"
_symmetry_group_IT_number 67
_symmetry_cell_setting 'orthorhombic'
loop_
_space_group_symop_operation_xyz
x,y,z
-x,1/2-y,z
x,-y,-z
-x,1/2+y,-z
-x,-y,-z
x,1/2+y,-z
-x,y,z
x,1/2-y,z
1/2+x,1/2+y,z
1/2-x,-y,z
1/2+x,1/2-y,-z
1/2-x,y,-z
1/2-x,1/2-y,-z
1/2+x,y,-z
1/2-x,1/2+y,z
1/2+x,-y,z
loop_
_atom_site_type_symbol
_atom_site_label
_atom_site_fract_x
_atom_site_fract_y
_atom_site_fract_z
Si Si1 0.665655 0.174767 0.336713
Si Si2 0.666647 0.543287 0.890632
Si Si3 0.675589 0.043746 0.602259
Si Si4 0.676001 0.109890 0.819835
Si Si5 0.174775 0.642594 0.557925
Si Si6 0.822566 0.700629 0.215878
Si Si7 0.750000 0.500000 0.000000
Si Si8 0.167889 0.925618 0.288547
O O1 0.500000 0.189484 0.351067
O O2 0.765698 0.172240 0.391002
O O3 0.718196 0.200232 0.281663
O O4 0.657402 0.124176 0.313873
O O5 0.500000 0.547606 0.870307
O O6 0.750000 0.500000 0.865793
O O7 0.761178 0.586143 0.874831
O O8 0.665063 0.531494 0.956475
O O9 0.500000 0.038726 0.604015
O O10 0.710311 0.090535 0.571847
O O11 0.741821 0.048444 0.664529
O O12 0.750000 0.000000 0.576337
O O13 0.500000 0.109509 0.817453
O O14 0.738800 0.159770 0.812583
O O15 0.745529 0.080899 0.769060
O O16 0.250000 0.654676 0.500000
O O17 0.000000 0.646178 0.554116
O O18 0.793034 0.750000 0.193048
O O19 0.000000 0.692638 0.213684
O O20 0.500000 0.057878 0.281173
#
# Coordination Sequence:
#
# PCOD9502126 Si02
#       8
#    16  16  16  16  16  16   4  16
#     4   8  15  29  49  70  92 120 154 195 246 305
#     4  10  20  35  55  79 110 146 188 232 274 315
#     4  10  20  32  45  63  87 118 156 200 255 314
#     4  11  21  32  50  79 113 146 182 223 269 317
#     4  10  20  32  47  65  86 115 155 204 255 310
#     4   9  18  34  56  81 110 144 179 216 265 325
#     4   8  22  36  62  80 112 148 194 240 276 316
#     4   9  17  31  48  65  90 124 162 203 250 306
#
# _framework density 17.724435
#
# number of rings (size 3 to 8) (size 9 to 14) (size 15 to 20)
#    0.414    2.069    0.000    3.931    0.000    6.069 
#    0.000    4.138    0.000    0.414    0.000    0.483 
#    0.000    0.000    0.000    0.000    0.000    0.000 
#
# Total GULP energy -323089.915636 kJ/mol
# GULP energy per Si atom -5570.515787 kJ/mol
# Density = 1.768409 g / cm^3
# Si number density = 17.724435 Si / 1000 Ang^3
#
#
#
# Elastic Constant Matrix: (Units=GPa)
#
#
# Indices 1 2 3 4 5 6 
#
# 1 95.4599 33.3890 34.2827 0.0000 0.0000 0.0000
# 2 33.3890 73.5281 24.1839 0.0000 0.0000 0.0000
# 3 34.2827 24.1839 70.5634 0.0000 0.0000 0.0000
# 4 0.0000 0.0000 0.0000 15.5492 0.0000 0.0000
# 5 0.0000 0.0000 0.0000 0.0000 21.1931 0.0000
# 6 0.0000 0.0000 0.0000 0.0000 0.0000 10.5902
#
#
#
# Elastic Compliance Matrix: (Units=1/GPa)
#
#
# Indices 1 2 3 4 5 6 
#
# 1 0.013961 -0.004631 -0.005196 0.000000 0.000000 0.000000
# 2 -0.004631 0.016864 -0.003530 0.000000 0.000000 0.000000
# 3 -0.005196 -0.003530 0.017906 0.000000 0.000000 0.000000
# 4 0.000000 0.000000 0.000000 0.064312 0.000000 0.000000
# 5 0.000000 0.000000 0.000000 0.000000 0.047185 0.000000
# 6 0.000000 0.000000 0.000000 0.000000 0.000000 0.094427
#
#
# Mechanical properties :
#
#
# Convention : Reuss Voigt Hill
#
# Bulk Modulus (GPa) = 45.41742 47.02918 46.22330
# Shear Modulus (GPa) = 17.31856 19.31291 18.31573
#
# Velocity S-wave (km/s) = 3.12925 3.30452 3.21808
# Velocity P-wave (km/s) = 6.22383 6.41490 6.32009
#
# Compressibility (1/GPa) = 0.02201798
#
# Stress axis : x y z
#
# Youngs Moduli (GPa) = 71.62629 59.29747 55.84768
#
# Poissons Ratio (x) = 0.27460 0.29018
# Poissons Ratio (y) = 0.33169 0.19714
# Poissons Ratio (z) = 0.37216 0.20931
#
# Static dielectric constant tensor:
#      x y z
#    x 1.602360 0.000000 0.000000 
#    y 0.000000 1.633960 0.000000 
#    z 0.000000 0.000000 1.612780 
# 
# From -- ./inp_files/41220.got.cif
#   From: 2010.05.17/outbox.cif.g08.bks.cpg/sg67_21_cif.got.tgz:41220.got - 2010.06.03 18:28:57.
