data_PCOD9502773
_publ_section_title
;
Structure prediction by ZEFSAII (Michael W. Deem and Ramdas Pophale) SiO2 
 PCOD9502773
Probable space group: C M M A
;
_chemical_formula_sum "Si O2"
_cell_formula_units_Z 104
_cell_length_a 17.407082
_cell_length_b 21.461536
_cell_length_c 13.265054
_cell_angle_alpha 90.000000
_cell_angle_beta 90.000000
_cell_angle_gamma 90.000000
_cell_volume 4955.594914
_symmetry_space_group_name_H-M "C M M A"
_symmetry_group_IT_number 67
_symmetry_cell_setting 'orthorhombic'
loop_
_space_group_symop_operation_xyz
x,y,z
-x,1/2-y,z
x,-y,-z
-x,1/2+y,-z
-x,-y,-z
x,1/2+y,-z
-x,y,z
x,1/2-y,z
1/2+x,1/2+y,z
1/2-x,-y,z
1/2+x,1/2-y,-z
1/2-x,y,-z
1/2-x,1/2-y,-z
1/2+x,y,-z
1/2-x,1/2+y,z
1/2+x,-y,z
loop_
_atom_site_type_symbol
_atom_site_label
_atom_site_fract_x
_atom_site_fract_y
_atom_site_fract_z
Si Si1 0.176353 0.031866 0.264285
Si Si2 0.407471 0.355554 0.634044
Si Si3 0.209518 0.136723 0.108970
Si Si4 0.906966 0.820155 0.403361
Si Si5 0.408358 0.321415 0.032263
Si Si6 0.188229 0.750000 0.758113
Si Si7 0.592416 0.593277 0.778592
O O1 0.126025 0.077620 0.333091
O O2 0.209406 0.073942 0.172900
O O3 0.250000 0.000000 0.316588
O O4 0.124990 0.975773 0.222659
O O5 0.500000 0.352036 0.648448
O O6 0.390744 0.341810 0.516474
O O7 0.362165 0.304336 0.698560
O O8 0.232449 0.194873 0.177308
O O9 0.250000 0.133832 0.000000
O O10 0.122495 0.153447 0.073607
O O11 0.876297 0.750000 0.386023
O O12 0.879753 0.868402 0.319369
O O13 0.000000 0.816911 0.394217
O O14 0.500000 0.319769 0.031902
O O15 0.381349 0.250000 0.044257
O O16 0.385880 0.367108 0.123037
O O17 0.500000 0.590656 0.774927
#
# Coordination Sequence:
#
# PCOD9502773 Si02
#       7
#    16  16  16  16  16   8  16
#     4  11  25  42  58  84 121 169 210 255 305 366
#     4  10  20  37  65  96 124 157 201 257 318 376
#     4  11  23  40  62  87 118 166 210 251 312 380
#     4   9  17  34  64  96 123 156 201 255 315 380
#     4  10  21  36  57  89 121 153 198 258 317 358
#     4  10  20  34  60  96 124 144 191 262 317 360
#     4  10  21  38  60  87 122 163 209 254 304 374
#
# _framework density 20.98638
#
# number of rings (size 3 to 8) (size 9 to 14) (size 15 to 20)
#    0.000    1.846    1.538    2.308    0.000    8.308 
#    0.000    5.385    1.692    0.923    0.000    0.000 
#    0.000    0.000    0.000    0.000    0.000    0.000 
#
# Total GULP energy -289492.792237 kJ/mol
# GULP energy per Si atom -5567.169081 kJ/mol
# Density = 2.093861 g / cm^3
# Si number density = 20.986380 Si / 1000 Ang^3
#
#
#
# Elastic Constant Matrix: (Units=GPa)
#
#
# Indices 1 2 3 4 5 6 
#
# 1 40.0279 23.7407 15.3307 0.0000 0.0000 0.0000
# 2 23.7407 166.3394 43.3068 0.0000 0.0000 0.0000
# 3 15.3307 43.3068 60.1226 0.0000 0.0000 0.0000
# 4 0.0000 0.0000 0.0000 7.6555 0.0000 0.0000
# 5 0.0000 0.0000 0.0000 0.0000 18.2025 0.0000
# 6 0.0000 0.0000 0.0000 0.0000 0.0000 24.3180
#
#
#
# Elastic Compliance Matrix: (Units=1/GPa)
#
#
# Indices 1 2 3 4 5 6 
#
# 1 0.028632 -0.002690 -0.005363 0.000000 0.000000 0.000000
# 2 -0.002690 0.007652 -0.004826 0.000000 0.000000 0.000000
# 3 -0.005363 -0.004826 0.021476 0.000000 0.000000 0.000000
# 4 0.000000 0.000000 0.000000 0.130625 0.000000 0.000000
# 5 0.000000 0.000000 0.000000 0.000000 0.054937 0.000000
# 6 0.000000 0.000000 0.000000 0.000000 0.000000 0.041122
#
#
# Mechanical properties :
#
#
# Convention : Reuss Voigt Hill
#
# Bulk Modulus (GPa) = 31.24789 47.91627 39.58208
# Shear Modulus (GPa) = 15.58256 22.30930 18.94593
#
# Velocity S-wave (km/s) = 2.72786 3.26396 3.00788
# Velocity P-wave (km/s) = 4.98433 6.08985 5.56461
#
# Compressibility (1/GPa) = 0.03200216
#
# Stress axis : x y z
#
# Youngs Moduli (GPa) = 34.92562 130.68106 46.56268
#
# Poissons Ratio (x) = 0.35156 0.24972
# Poissons Ratio (y) = 0.09396 0.22471
# Poissons Ratio (z) = 0.18731 0.63066
#
# Static dielectric constant tensor:
#      x y z
#    x 1.827950 0.000000 0.000000 
#    y 0.000000 1.712250 0.000000 
#    z 0.000000 0.000000 1.739990 
# 
# From -- ./inp_files/28658.got.cif
#   From: 2010.05.17/outbox.cif.g08.bks.cpg/sg67_15_cif.got.tgz:28658.got - 2010.06.03 18:28:57.
