data_PCOD9502327
_publ_section_title
;
Structure prediction by ZEFSAII (Michael W. Deem and Ramdas Pophale) SiO2 
 PCOD9502327
Probable space group: C M M A
;
_chemical_formula_sum "Si O2"
_cell_formula_units_Z 96
_cell_length_a 25.743820
_cell_length_b 22.709038
_cell_length_c 9.176723
_cell_angle_alpha 90.000000
_cell_angle_beta 90.000000
_cell_angle_gamma 90.000000
_cell_volume 5364.871818
_symmetry_space_group_name_H-M "C M M A"
_symmetry_group_IT_number 67
_symmetry_cell_setting 'orthorhombic'
loop_
_space_group_symop_operation_xyz
x,y,z
-x,1/2-y,z
x,-y,-z
-x,1/2+y,-z
-x,-y,-z
x,1/2+y,-z
-x,y,z
x,1/2-y,z
1/2+x,1/2+y,z
1/2-x,-y,z
1/2+x,1/2-y,-z
1/2-x,y,-z
1/2-x,1/2-y,-z
1/2+x,y,-z
1/2-x,1/2+y,z
1/2+x,-y,z
loop_
_atom_site_type_symbol
_atom_site_label
_atom_site_fract_x
_atom_site_fract_y
_atom_site_fract_z
Si Si1 0.149095 0.622359 0.857633
Si Si2 0.359845 0.680134 0.541659
Si Si3 0.687519 0.508778 0.328878
Si Si4 0.672464 0.613807 0.803762
Si Si5 0.228100 0.817804 0.682183
Si Si6 0.939145 0.679429 0.713361
O O1 0.167672 0.567514 0.754446
O O2 0.180935 0.678111 0.796383
O O3 0.089262 0.639545 0.833991
O O4 0.164036 0.615923 0.024976
O O5 0.359378 0.750000 0.553411
O O6 0.364751 0.651559 0.699038
O O7 0.303662 0.664134 0.465748
O O8 0.406193 0.664481 0.432371
O O9 0.673590 0.500000 0.500000
O O10 0.750000 0.500000 0.321121
O O11 0.665987 0.453100 0.243474
O O12 0.728478 0.640151 0.752849
O O13 0.245817 0.750000 0.670640
O O14 0.933232 0.750000 0.739705
O O15 0.000000 0.667499 0.698844
#
# Coordination Sequence:
#
# PCOD9502327 Si02
#       6
#    16  16  16  16  16  16
#     4  11  22  36  54  82 117 147 186 234 286 341
#     4   9  19  34  54  81 110 145 192 232 274 333
#     4  11  23  37  56  77 109 155 200 230 269 335
#     4  12  22  32  53  80 118 149 181 233 283 338
#     4  10  20  33  50  75 113 156 188 218 267 341
#     4   9  19  39  64  84 108 147 193 239 285 336
#
# _framework density 17.894183000000002
#
# number of rings (size 3 to 8) (size 9 to 14) (size 15 to 20)
#    0.000    1.667    1.667    5.500    2.333    5.333 
#    0.000    0.833    0.000    8.500    0.000    0.000 
#    0.000    0.000    0.000    0.000    0.000    0.000 
#
# Total GULP energy -267468.908708 kJ/mol
# GULP energy per Si atom -5572.268931 kJ/mol
# Density = 1.785345 g / cm^3
# Si number density = 17.894183 Si / 1000 Ang^3
#
#
#
# Elastic Constant Matrix: (Units=GPa)
#
#
# Indices 1 2 3 4 5 6 
#
# 1 101.9528 38.1864 36.5826 0.0000 0.0000 0.0000
# 2 38.1864 74.2981 47.9396 0.0000 0.0000 0.0000
# 3 36.5826 47.9396 153.9777 0.0000 0.0000 0.0000
# 4 0.0000 0.0000 0.0000 20.3371 0.0000 0.0000
# 5 0.0000 0.0000 0.0000 0.0000 11.8350 0.0000
# 6 0.0000 0.0000 0.0000 0.0000 0.0000 18.1376
#
#
#
# Elastic Compliance Matrix: (Units=1/GPa)
#
#
# Indices 1 2 3 4 5 6 
#
# 1 0.012320 -0.005561 -0.001196 0.000000 0.000000 0.000000
# 2 -0.005561 0.019352 -0.004704 0.000000 0.000000 0.000000
# 3 -0.001196 -0.004704 0.008243 0.000000 0.000000 0.000000
# 4 0.000000 0.000000 0.000000 0.049171 0.000000 0.000000
# 5 0.000000 0.000000 0.000000 0.000000 0.084495 0.000000
# 6 0.000000 0.000000 0.000000 0.000000 0.000000 0.055134
#
#
# Mechanical properties :
#
#
# Convention : Reuss Voigt Hill
#
# Bulk Modulus (GPa) = 58.84147 63.96065 61.40106
# Shear Modulus (GPa) = 19.43236 23.89658 21.66447
#
# Velocity S-wave (km/s) = 3.29897 3.65833 3.48329
# Velocity P-wave (km/s) = 6.88951 7.32570 7.11095
#
# Compressibility (1/GPa) = 0.01699482
#
# Stress axis : x y z
#
# Youngs Moduli (GPa) = 81.16707 51.67301 121.31276
#
# Poissons Ratio (x) = 0.28733 0.14508
# Poissons Ratio (y) = 0.45133 0.57067
# Poissons Ratio (z) = 0.09707 0.24308
#
# Static dielectric constant tensor:
#      x y z
#    x 1.648930 0.000000 0.000000 
#    y 0.000000 1.638160 0.000000 
#    z 0.000000 0.000000 1.657970 
# 
# From -- ./inp_files/12656.got.cif
#   From: 2010.05.17/outbox.cif.g08.bks.cpg/sg67_7_cif.got.tgz:12656.got - 2010.06.03 18:28:57.
