data_PCOD9502056
_publ_section_title
;
Structure prediction by ZEFSAII (Michael W. Deem and Ramdas Pophale) SiO2 
 PCOD9502056
Probable space group: C M M A
;
_chemical_formula_sum "Si O2"
_cell_formula_units_Z 72
_cell_length_a 15.653925
_cell_length_b 19.016065
_cell_length_c 11.056863
_cell_angle_alpha 90.000000
_cell_angle_beta 90.000000
_cell_angle_gamma 90.000000
_cell_volume 3291.363362
_symmetry_space_group_name_H-M "C M M A"
_symmetry_group_IT_number 67
_symmetry_cell_setting 'orthorhombic'
loop_
_space_group_symop_operation_xyz
x,y,z
-x,1/2-y,z
x,-y,-z
-x,1/2+y,-z
-x,-y,-z
x,1/2+y,-z
-x,y,z
x,1/2-y,z
1/2+x,1/2+y,z
1/2-x,-y,z
1/2+x,1/2-y,-z
1/2-x,y,-z
1/2-x,1/2-y,-z
1/2+x,y,-z
1/2-x,1/2+y,z
1/2+x,-y,z
loop_
_atom_site_type_symbol
_atom_site_label
_atom_site_fract_x
_atom_site_fract_y
_atom_site_fract_z
Si Si1 0.649678 0.750000 0.451414
Si Si2 0.500000 0.856826 0.428752
Si Si3 0.000000 0.427938 0.663559
Si Si4 0.724203 0.750000 0.201462
Si Si5 0.853602 0.872600 0.167070
Si Si6 0.500000 0.566781 0.182988
Si Si7 0.634704 0.500000 0.000000
Si Si8 0.089056 0.250000 0.000020
O O1 0.750000 0.750000 0.500000
O O2 0.585857 0.815498 0.472259
O O3 0.659667 0.750000 0.308911
O O4 0.500000 0.922084 0.520465
O O5 0.500000 0.870074 0.282453
O O6 0.084035 0.393303 0.724500
O O7 0.000000 0.504080 0.721223
O O8 0.778534 0.821401 0.209760
O O9 0.672463 0.750000 0.079154
O O10 0.824982 0.941751 0.091011
O O11 0.905867 0.819680 0.080558
O O12 0.421238 0.549859 0.091473
O O13 0.000000 0.250000 0.068961
#
# Coordination Sequence:
#
# PCOD9502056 Si02
#       8
#     8   8   8   8  16   8   8   8
#     4  11  26  44  63  98 131 169 221 279 320 387
#     4  11  24  41  72  94 123 177 220 267 333 383
#     4  10  19  38  68  93 123 171 219 263 318 392
#     4  11  25  39  60  89 135 165 214 272 333 384
#     4  10  20  39  62  93 125 172 209 265 324 390
#     4   9  20  37  62 101 128 170 213 270 321 390
#     4   9  20  36  67  92 137 167 220 265 327 388
#     4  11  23  37  61  90 122 166 214 266 336 394
#
# _framework density 21.875433999999998
#
# number of rings (size 3 to 8) (size 9 to 14) (size 15 to 20)
#    0.000    1.778    1.111    3.667    4.667    2.667 
#    0.000    2.222    0.000   10.667    0.000    0.000 
#    0.000    0.000    0.000    0.000    0.000    0.000 
#
# Total GULP energy -200459.560408 kJ/mol
# GULP energy per Si atom -5568.321122 kJ/mol
# Density = 2.182564 g / cm^3
# Si number density = 21.875434 Si / 1000 Ang^3
#
#
#
# Elastic Constant Matrix: (Units=GPa)
#
#
# Indices 1 2 3 4 5 6 
#
# 1 88.6406 19.0279 16.0018 0.0000 0.0000 0.0000
# 2 19.0279 109.7278 26.3221 0.0000 0.0000 0.0000
# 3 16.0018 26.3221 108.4862 0.0000 0.0000 0.0000
# 4 0.0000 0.0000 0.0000 33.9162 0.0000 0.0000
# 5 0.0000 0.0000 0.0000 0.0000 41.6295 0.0000
# 6 0.0000 0.0000 0.0000 0.0000 0.0000 28.1324
#
#
#
# Elastic Compliance Matrix: (Units=1/GPa)
#
#
# Indices 1 2 3 4 5 6 
#
# 1 0.011896 -0.001743 -0.001332 0.000000 0.000000 0.000000
# 2 -0.001743 0.009932 -0.002153 0.000000 0.000000 0.000000
# 3 -0.001332 -0.002153 0.009936 0.000000 0.000000 0.000000
# 4 0.000000 0.000000 0.000000 0.029484 0.000000 0.000000
# 5 0.000000 0.000000 0.000000 0.000000 0.024021 0.000000
# 6 0.000000 0.000000 0.000000 0.000000 0.000000 0.035546
#
#
# Mechanical properties :
#
#
# Convention : Reuss Voigt Hill
#
# Bulk Modulus (GPa) = 46.92809 47.72867 47.32838
# Shear Modulus (GPa) = 36.13353 37.10248 36.61800
#
# Velocity S-wave (km/s) = 4.06863 4.12282 4.09581
# Velocity P-wave (km/s) = 6.60080 6.67302 6.63701
#
# Compressibility (1/GPa) = 0.02130920
#
# Stress axis : x y z
#
# Youngs Moduli (GPa) = 84.06063 100.68265 100.63916
#
# Poissons Ratio (x) = 0.17554 0.13402
# Poissons Ratio (y) = 0.14656 0.21665
# Poissons Ratio (z) = 0.11194 0.21674
#
# Static dielectric constant tensor:
#      x y z
#    x 1.859970 0.000000 0.000000 
#    y 0.000000 1.883210 0.000000 
#    z 0.000000 0.000000 1.771020 
# 
# From -- ./inp_files/19236.got.cif
#   From: 2010.05.17/outbox.cif.g08.bks.cpg/sg67_10_cif.got.tgz:19236.got - 2010.06.03 18:28:57.
