data_PCOD9502344
_publ_section_title
;
Structure prediction by ZEFSAII (Michael W. Deem and Ramdas Pophale) SiO2 
 PCOD9502344
Probable space group: C M M A
;
_chemical_formula_sum "Si O2"
_cell_formula_units_Z 80
_cell_length_a 17.327956
_cell_length_b 9.312850
_cell_length_c 26.909397
_cell_angle_alpha 90.000000
_cell_angle_beta 90.000000
_cell_angle_gamma 90.000000
_cell_volume 4342.440839
_symmetry_space_group_name_H-M "C M M A"
_symmetry_group_IT_number 67
_symmetry_cell_setting 'orthorhombic'
loop_
_space_group_symop_operation_xyz
x,y,z
-x,1/2-y,z
x,-y,-z
-x,1/2+y,-z
-x,-y,-z
x,1/2+y,-z
-x,y,z
x,1/2-y,z
1/2+x,1/2+y,z
1/2-x,-y,z
1/2+x,1/2-y,-z
1/2-x,y,-z
1/2-x,1/2-y,-z
1/2+x,y,-z
1/2-x,1/2+y,z
1/2+x,-y,z
loop_
_atom_site_type_symbol
_atom_site_label
_atom_site_fract_x
_atom_site_fract_y
_atom_site_fract_z
Si Si1 0.092922 0.914035 0.755591
Si Si2 0.909234 0.420932 0.950857
Si Si3 0.668332 0.077455 0.154328
Si Si4 0.093685 0.918425 0.451503
Si Si5 0.094152 0.917512 0.341493
O O1 0.120760 0.750000 0.761317
O O2 0.000000 0.910205 0.753608
O O3 0.117148 0.012405 0.801593
O O4 0.120895 0.985059 0.704071
O O5 0.903248 0.250000 0.958230
O O6 0.867194 0.457509 0.899674
O O7 0.000000 0.457232 0.945453
O O8 0.879218 0.500000 0.000000
O O9 0.673716 0.250000 0.158585
O O10 0.750000 0.000000 0.158313
O O11 0.110972 0.750000 0.455600
O O12 0.119393 0.967184 0.396546
O O13 0.000000 0.932056 0.451630
O O14 0.123361 0.000000 0.500000
O O15 0.115776 0.750000 0.334701
O O16 0.000000 0.920494 0.341440
#
# Coordination Sequence:
#
# PCOD9502344 Si02
#       5
#    16  16  16  16  16
#     4  10  20  33  51  75 100 129 169 214 257 303
#     4   9  19  36  58  82 106 135 170 206 246 293
#     4  11  23  38  55  76 105 138 172 210 254 303
#     4   8  13  20  31  50  79 116 155 194 240 294
#     4   8  14  25  40  59  86 122 162 202 247 299
#
# _framework density 18.422820000000002
#
# number of rings (size 3 to 8) (size 9 to 14) (size 15 to 20)
#    0.000    2.800    0.000    3.000    0.000    4.800 
#    0.000    8.000    0.000    0.000    0.000    0.000 
#    0.000    0.800    0.000    8.400    0.000   12.200 
#
# Total GULP energy -222957.998196 kJ/mol
# GULP energy per Si atom -5573.949955 kJ/mol
# Density = 1.838089 g / cm^3
# Si number density = 18.422820 Si / 1000 Ang^3
#
#
#
# Elastic Constant Matrix: (Units=GPa)
#
#
# Indices 1 2 3 4 5 6 
#
# 1 10.0151 15.5968 17.5069 0.0000 0.0000 0.0000
# 2 15.5968 76.5624 80.1802 0.0000 0.0000 0.0000
# 3 17.5069 80.1802 178.4167 0.0000 0.0000 0.0000
# 4 0.0000 0.0000 0.0000 38.8973 0.0000 0.0000
# 5 0.0000 0.0000 0.0000 0.0000 -10.5738 0.0000
# 6 0.0000 0.0000 0.0000 0.0000 0.0000 15.2034
#
#
#
# Elastic Compliance Matrix: (Units=1/GPa)
#
#
# Indices 1 2 3 4 5 6 
#
# 1 0.146558 -0.027950 -0.001820 0.000000 0.000000 0.000000
# 2 -0.027950 0.030004 -0.010741 0.000000 0.000000 0.000000
# 3 -0.001820 -0.010741 0.010610 0.000000 0.000000 0.000000
# 4 0.000000 0.000000 0.000000 0.025709 0.000000 0.000000
# 5 0.000000 0.000000 0.000000 0.000000 -0.094574 0.000000
# 6 0.000000 0.000000 0.000000 0.000000 0.000000 0.065775
#
#
# Mechanical properties :
#
#
# Convention : Reuss Voigt Hill
#
# Bulk Modulus (GPa) = 9.42061 54.61800 32.01930
# Shear Modulus (GPa) = 16.63963 18.81939 17.72951
#
# Velocity S-wave (km/s) = 3.00860 3.19960 3.10557
# Velocity P-wave (km/s) = 4.14651 6.58492 5.50249
#
# Compressibility (1/GPa) = 0.10615026
#
# Stress axis : x y z
#
# Youngs Moduli (GPa) = 6.82323 33.32934 94.24636
#
# Poissons Ratio (x) = 0.93154 0.17155
# Poissons Ratio (y) = 0.19071 1.01231
# Poissons Ratio (z) = 0.01242 0.35799
#
# Static dielectric constant tensor:
#      x y z
#    x 1.638730 0.000000 0.000000 
#    y 0.000000 1.619890 0.000000 
#    z 0.000000 0.000000 1.640740 
# 
# From -- ./inp_files/43258.got.cif
#   From: 2010.05.17/outbox.cif.g08.bks.cpg/sg67_22_cif.got.tgz:43258.got - 2010.06.03 18:28:57.
