data_PCOD9502086
_publ_section_title
;
Structure prediction by ZEFSAII (Michael W. Deem and Ramdas Pophale) SiO2 
 PCOD9502086
Probable space group: C M M A
;
_chemical_formula_sum "Si O2"
_cell_formula_units_Z 96
_cell_length_a 9.455197
_cell_length_b 26.748551
_cell_length_c 25.476149
_cell_angle_alpha 90.000000
_cell_angle_beta 90.000000
_cell_angle_gamma 90.000000
_cell_volume 6443.244665
_symmetry_space_group_name_H-M "C M M A"
_symmetry_group_IT_number 67
_symmetry_cell_setting 'orthorhombic'
loop_
_space_group_symop_operation_xyz
x,y,z
-x,1/2-y,z
x,-y,-z
-x,1/2+y,-z
-x,-y,-z
x,1/2+y,-z
-x,y,z
x,1/2-y,z
1/2+x,1/2+y,z
1/2-x,-y,z
1/2+x,1/2-y,-z
1/2-x,y,-z
1/2-x,1/2-y,-z
1/2+x,y,-z
1/2-x,1/2+y,z
1/2+x,-y,z
loop_
_atom_site_type_symbol
_atom_site_label
_atom_site_fract_x
_atom_site_fract_y
_atom_site_fract_z
Si Si1 0.666451 0.691085 0.758549
Si Si2 0.837627 0.689328 0.654090
Si Si3 0.664333 0.354549 0.130720
Si Si4 0.163633 0.810940 0.448204
Si Si5 0.845704 0.691075 0.953312
Si Si6 0.170602 0.949091 0.055329
O O1 0.500000 0.688756 0.744292
O O2 0.694252 0.750000 0.772618
O O3 0.761681 0.677192 0.708848
O O4 0.689409 0.654198 0.807728
O O5 0.840393 0.750000 0.651739
O O6 0.745476 0.672590 0.604219
O O7 0.000000 0.672054 0.651646
O O8 0.500000 0.340895 0.121300
O O9 0.767290 0.317372 0.100677
O O10 0.687562 0.407191 0.100772
O O11 0.162502 0.750000 0.447852
O O12 0.250000 0.826210 0.500000
O O13 0.000000 0.826969 0.449316
O O14 0.859785 0.750000 0.961975
O O15 0.000000 0.667421 0.954195
O O16 0.750000 0.671076 0.000000
O O17 0.000000 0.955331 0.047162
O O18 0.250000 0.000000 0.072282
O O19 0.250000 0.936902 0.000000
#
# Coordination Sequence:
#
# PCOD9502086 Si02
#       6
#    16  16  16  16  16  16
#     4   9  17  29  43  58  79 108 138 167 200 238
#     4   9  16  25  36  51  73 101 134 171 206 239
#     4  10  20  32  47  65  83 105 134 166 201 243
#     4   9  15  22  33  49  69  95 130 172 214 249
#     4  10  20  31  43  60  82 107 133 161 195 235
#     4  10  20  34  51  69  86 104 128 161 204 252
#
# _framework density 14.899326
#
# number of rings (size 3 to 8) (size 9 to 14) (size 15 to 20)
#    0.000    2.500    0.000    3.500    0.000    9.000 
#    0.000    1.667    0.000    0.000    0.000    0.000 
#    0.000    0.000    0.000    0.000    0.000    0.833 
#
# Total GULP energy -267233.430391 kJ/mol
# GULP energy per Si atom -5567.363133 kJ/mol
# Density = 1.486541 g / cm^3
# Si number density = 14.899326 Si / 1000 Ang^3
#
#
#
# Elastic Constant Matrix: (Units=GPa)
#
#
# Indices 1 2 3 4 5 6 
#
# 1 129.8835 25.8033 91.9945 0.0000 0.0000 0.0000
# 2 25.8033 34.3435 19.5113 0.0000 0.0000 0.0000
# 3 91.9945 19.5113 118.1830 0.0000 0.0000 0.0000
# 4 0.0000 0.0000 0.0000 7.0719 0.0000 0.0000
# 5 0.0000 0.0000 0.0000 0.0000 25.9384 0.0000
# 6 0.0000 0.0000 0.0000 0.0000 0.0000 -317.9105
#
#
#
# Elastic Compliance Matrix: (Units=1/GPa)
#
#
# Indices 1 2 3 4 5 6 
#
# 1 0.018297 -0.006241 -0.013212 0.000000 0.000000 0.000000
# 2 -0.006241 0.034260 -0.000798 0.000000 0.000000 0.000000
# 3 -0.013212 -0.000798 0.018878 0.000000 0.000000 0.000000
# 4 0.000000 0.000000 0.000000 0.141405 0.000000 0.000000
# 5 0.000000 0.000000 0.000000 0.000000 0.038553 0.000000
# 6 0.000000 0.000000 0.000000 0.000000 0.000000 -0.003146
#
#
# Mechanical properties :
#
#
# Convention : Reuss Voigt Hill
#
# Bulk Modulus (GPa) = 32.32874 61.89201 47.11037
# Shear Modulus (GPa) = 16.71901 -47.30664 -15.29382
#
# Velocity S-wave (km/s) = 3.35346 -5.64090 -3.20734
# Velocity P-wave (km/s) = 6.06131 0.89223 4.23930
#
# Compressibility (1/GPa) = 0.03093223
#
# Stress axis : x y z
#
# Youngs Moduli (GPa) = 54.65352 29.18851 52.97251
#
# Poissons Ratio (x) = 0.18216 0.69989
# Poissons Ratio (y) = 0.34109 0.04228
# Poissons Ratio (z) = 0.72210 0.02330
#
# Static dielectric constant tensor:
#      x y z
#    x 1.506980 0.000000 0.000000 
#    y 0.000000 1.489070 0.000000 
#    z 0.000000 0.000000 1.500950 
# 
# From -- ./inp_files/40919.got.cif
#   From: 2010.05.17/outbox.cif.g08.bks.cpg/sg67_21_cif.got.tgz:40919.got - 2010.06.03 18:28:57.
