data_PCOD9502104
_publ_section_title
;
Structure prediction by ZEFSAII (Michael W. Deem and Ramdas Pophale) SiO2 
 PCOD9502104
Probable space group: C M M A
;
_chemical_formula_sum "Si O2"
_cell_formula_units_Z 104
_cell_length_a 28.793276
_cell_length_b 20.560848
_cell_length_c 9.030698
_cell_angle_alpha 90.000000
_cell_angle_beta 90.000000
_cell_angle_gamma 90.000000
_cell_volume 5346.301192
_symmetry_space_group_name_H-M "C M M A"
_symmetry_group_IT_number 67
_symmetry_cell_setting 'orthorhombic'
loop_
_space_group_symop_operation_xyz
x,y,z
-x,1/2-y,z
x,-y,-z
-x,1/2+y,-z
-x,-y,-z
x,1/2+y,-z
-x,y,z
x,1/2-y,z
1/2+x,1/2+y,z
1/2-x,-y,z
1/2+x,1/2-y,-z
1/2-x,y,-z
1/2-x,1/2-y,-z
1/2+x,y,-z
1/2-x,1/2+y,z
1/2+x,-y,z
loop_
_atom_site_type_symbol
_atom_site_label
_atom_site_fract_x
_atom_site_fract_y
_atom_site_fract_z
Si Si1 0.072669 0.995792 0.177083
Si Si2 0.446323 0.360747 0.324466
Si Si3 0.446530 0.129206 0.661326
Si Si4 0.111099 0.750000 0.164283
Si Si5 0.557114 0.750000 0.144271
Si Si6 0.276070 0.250000 0.160016
Si Si7 0.819564 0.002524 0.178618
Si Si8 0.250537 0.109220 0.818677
O O1 0.052553 0.929301 0.239947
O O2 0.127208 0.994895 0.213790
O O3 0.054935 0.060277 0.257506
O O4 0.065833 0.000000 0.000000
O O5 0.500000 0.335138 0.321111
O O6 0.429683 0.372612 0.492984
O O7 0.409806 0.312553 0.248612
O O8 0.500000 0.148147 0.644633
O O9 0.427425 0.186265 0.764365
O O10 0.167341 0.750000 0.149423
O O11 0.085116 0.750000 0.007289
O O12 0.500000 0.750000 0.120291
O O13 0.259354 0.182247 0.232641
O O14 0.250000 0.250000 0.000000
O O15 0.789211 0.941439 0.230964
O O16 0.797685 0.071682 0.224964
O O17 0.815774 0.000000 0.000000
O O18 0.250000 0.111297 0.000000
#
# Coordination Sequence:
#
# PCOD9502104 Si02
#       8
#    16  16  16   8   8   8  16  16
#     4  11  21  33  55  87 117 149 195 252 299 342
#     4  11  23  39  58  82 119 163 202 239 289 355
#     4  10  22  39  56  78 114 160 199 235 290 358
#     4  12  23  37  61  92 118 148 198 250 297 349
#     4  10  21  38  59  84 115 150 193 244 295 348
#     4  10  20  31  50  84 118 142 178 240 296 343
#     4   8  15  28  46  71 104 141 178 223 282 340
#     4   8  14  27  45  68 104 143 174 217 282 346
#
# _framework density 19.452701999999999
#
# number of rings (size 3 to 8) (size 9 to 14) (size 15 to 20)
#    0.000    2.154    0.000    4.846    0.000    9.846 
#    0.000    0.000    0.000    0.000    0.000   30.154 
#    0.000    0.000    0.000    0.000    0.000    0.000 
#
# Total GULP energy -289839.698180 kJ/mol
# GULP energy per Si atom -5573.840350 kJ/mol
# Density = 1.940843 g / cm^3
# Si number density = 19.452702 Si / 1000 Ang^3
#
#
#
# Elastic Constant Matrix: (Units=GPa)
#
#
# Indices 1 2 3 4 5 6 
#
# 1 95.8911 36.1680 23.3193 0.0000 0.0000 0.0000
# 2 36.1680 154.6334 45.2575 0.0000 0.0000 0.0000
# 3 23.3193 45.2575 101.0442 0.0000 0.0000 0.0000
# 4 0.0000 0.0000 0.0000 18.8329 0.0000 0.0000
# 5 0.0000 0.0000 0.0000 0.0000 -5.3215 0.0000
# 6 0.0000 0.0000 0.0000 0.0000 0.0000 22.5746
#
#
#
# Elastic Compliance Matrix: (Units=1/GPa)
#
#
# Indices 1 2 3 4 5 6 
#
# 1 0.011684 -0.002237 -0.001695 0.000000 0.000000 0.000000
# 2 -0.002237 0.007871 -0.003009 0.000000 0.000000 0.000000
# 3 -0.001695 -0.003009 0.011636 0.000000 0.000000 0.000000
# 4 0.000000 0.000000 0.000000 0.053099 0.000000 0.000000
# 5 0.000000 0.000000 0.000000 0.000000 -0.187918 0.000000
# 6 0.000000 0.000000 0.000000 0.000000 0.000000 0.044298
#
#
# Mechanical properties :
#
#
# Convention : Reuss Voigt Hill
#
# Bulk Modulus (GPa) = 57.77218 62.33981 60.05599
# Shear Modulus (GPa) = -126.00918 23.67212 -51.16853
#
# Velocity S-wave (km/s) = -8.05716 3.49220 -5.13431
# Velocity P-wave (km/s) = 7.53617 6.95536 2.05144
#
# Compressibility (1/GPa) = 0.01730937
#
# Stress axis : x y z
#
# Youngs Moduli (GPa) = 85.58478 127.05194 85.94383
#
# Poissons Ratio (x) = 0.28421 0.14564
# Poissons Ratio (y) = 0.19145 0.25861
# Poissons Ratio (z) = 0.14503 0.38231
#
# Static dielectric constant tensor:
#      x y z
#    x 1.715350 0.000000 0.000000 
#    y 0.000000 1.691030 0.000000 
#    z 0.000000 0.000000 1.682350 
# 
# From -- ./inp_files/14795.got.cif
#   From: 2010.05.17/outbox.cif.g08.bks.cpg/sg67_8_cif.got.tgz:14795.got - 2010.06.03 18:28:57.
