data_PCOD9502323
_publ_section_title
;
Structure prediction by ZEFSAII (Michael W. Deem and Ramdas Pophale) SiO2 
 PCOD9502323
Probable space group: C M M A
;
_chemical_formula_sum "Si O2"
_cell_formula_units_Z 104
_cell_length_a 27.315485
_cell_length_b 8.821829
_cell_length_c 24.842675
_cell_angle_alpha 90.000000
_cell_angle_beta 90.000000
_cell_angle_gamma 90.000000
_cell_volume 5986.402439
_symmetry_space_group_name_H-M "C M M A"
_symmetry_group_IT_number 67
_symmetry_cell_setting 'orthorhombic'
loop_
_space_group_symop_operation_xyz
x,y,z
-x,1/2-y,z
x,-y,-z
-x,1/2+y,-z
-x,-y,-z
x,1/2+y,-z
-x,y,z
x,1/2-y,z
1/2+x,1/2+y,z
1/2-x,-y,z
1/2+x,1/2-y,-z
1/2-x,y,-z
1/2-x,1/2-y,-z
1/2+x,y,-z
1/2-x,1/2+y,z
1/2+x,-y,z
loop_
_atom_site_type_symbol
_atom_site_label
_atom_site_fract_x
_atom_site_fract_y
_atom_site_fract_z
Si Si1 0.802175 0.568789 0.726299
Si Si2 0.942723 0.423106 0.232129
Si Si3 0.302546 0.430761 0.854035
Si Si4 0.443108 0.932364 0.557217
Si Si5 0.604470 0.067806 0.331602
Si Si6 0.500000 0.433495 0.059503
Si Si7 0.096999 0.569365 0.125861
O O1 0.802346 0.750000 0.720754
O O2 0.750000 0.500000 0.710828
O O3 0.809079 0.533252 0.790040
O O4 0.844325 0.495444 0.690302
O O5 0.923404 0.250000 0.231522
O O6 0.934103 0.497531 0.289792
O O7 0.917030 0.520593 0.186292
O O8 0.000000 0.418973 0.220078
O O9 0.300942 0.250000 0.859397
O O10 0.250000 0.500000 0.870234
O O11 0.350007 0.495614 0.884708
O O12 0.500000 0.977522 0.566639
O O13 0.442018 0.750000 0.553786
O O14 0.410188 0.977983 0.607996
O O15 0.427633 0.000000 0.500000
O O16 0.603710 0.250000 0.328398
O O17 0.500000 0.250000 0.058375
O O18 0.449723 0.480316 0.089890
O O19 0.500000 0.500000 0.000000
O O20 0.101276 0.750000 0.121899
#
# Coordination Sequence:
#
# PCOD9502323 Si02
#       7
#    16  16  16  16  16   8  16
#     4  10  20  33  50  75 108 142 180 218 267 326
#     4  11  22  33  48  76 111 146 181 220 272 327
#     4  10  20  34  54  82 115 152 190 230 280 336
#     4   9  19  35  53  74 100 135 178 220 266 319
#     4  11  21  33  52  76 106 141 177 220 273 329
#     4  10  24  42  62  88 116 156 199 234 279 330
#     4  11  21  36  57  83 115 150 188 231 279 331
#
# _framework density 17.372703999999999
#
# number of rings (size 3 to 8) (size 9 to 14) (size 15 to 20)
#    0.000    1.692    2.308    2.769    0.000    5.231 
#    0.000    1.538    0.000    0.923    0.000    6.462 
#    0.000    0.000    0.000    0.000    0.000    0.000 
#
# Total GULP energy -290231.910071 kJ/mol
# GULP energy per Si atom -5581.382886 kJ/mol
# Density = 1.733316 g / cm^3
# Si number density = 17.372704 Si / 1000 Ang^3
#
#
#
# Elastic Constant Matrix: (Units=GPa)
#
#
# Indices 1 2 3 4 5 6 
#
# 1 139.2007 42.8450 41.7795 0.0000 0.0000 0.0000
# 2 42.8450 46.2629 23.6421 0.0000 0.0000 0.0000
# 3 41.7795 23.6421 68.9238 0.0000 0.0000 0.0000
# 4 0.0000 0.0000 0.0000 25.0053 0.0000 0.0000
# 5 0.0000 0.0000 0.0000 0.0000 13.6468 0.0000
# 6 0.0000 0.0000 0.0000 0.0000 0.0000 31.5573
#
#
#
# Elastic Compliance Matrix: (Units=1/GPa)
#
#
# Indices 1 2 3 4 5 6 
#
# 1 0.010803 -0.008074 -0.003779 0.000000 0.000000 0.000000
# 2 -0.008074 0.032244 -0.006166 0.000000 0.000000 0.000000
# 3 -0.003779 -0.006166 0.018915 0.000000 0.000000 0.000000
# 4 0.000000 0.000000 0.000000 0.039991 0.000000 0.000000
# 5 0.000000 0.000000 0.000000 0.000000 0.073277 0.000000
# 6 0.000000 0.000000 0.000000 0.000000 0.000000 0.031688
#
#
# Mechanical properties :
#
#
# Convention : Reuss Voigt Hill
#
# Bulk Modulus (GPa) = 38.57473 52.32450 45.44961
# Shear Modulus (GPa) = 19.87297 23.78329 21.82813
#
# Velocity S-wave (km/s) = 3.38586 3.70402 3.54851
# Velocity P-wave (km/s) = 6.12681 6.96256 6.55801
#
# Compressibility (1/GPa) = 0.02592371
#
# Stress axis : x y z
#
# Youngs Moduli (GPa) = 92.56548 31.01354 52.86899
#
# Poissons Ratio (x) = 0.25040 0.19980
# Poissons Ratio (y) = 0.74735 0.32600
# Poissons Ratio (z) = 0.34982 0.19124
#
# Static dielectric constant tensor:
#      x y z
#    x 1.625520 0.000000 0.000000 
#    y 0.000000 1.587040 0.000000 
#    z 0.000000 0.000000 1.559520 
# 
# From -- ./inp_files/37269.got.cif
#   From: 2010.05.17/outbox.cif.g08.bks.cpg/sg67_19_cif.got.tgz:37269.got - 2010.06.03 18:28:57.
