data_PCOD9502431
_publ_section_title
;
Structure prediction by ZEFSAII (Michael W. Deem and Ramdas Pophale) SiO2 
 PCOD9502431
Probable space group: C M M A
;
_chemical_formula_sum "Si O2"
_cell_formula_units_Z 96
_cell_length_a 18.276033
_cell_length_b 22.750881
_cell_length_c 12.272231
_cell_angle_alpha 90.000000
_cell_angle_beta 90.000000
_cell_angle_gamma 90.000000
_cell_volume 5102.742744
_symmetry_space_group_name_H-M "C M M A"
_symmetry_group_IT_number 67
_symmetry_cell_setting 'orthorhombic'
loop_
_space_group_symop_operation_xyz
x,y,z
-x,1/2-y,z
x,-y,-z
-x,1/2+y,-z
-x,-y,-z
x,1/2+y,-z
-x,y,z
x,1/2-y,z
1/2+x,1/2+y,z
1/2-x,-y,z
1/2+x,1/2-y,-z
1/2-x,y,-z
1/2-x,1/2-y,-z
1/2+x,y,-z
1/2-x,1/2+y,z
1/2+x,-y,z
loop_
_atom_site_type_symbol
_atom_site_label
_atom_site_fract_x
_atom_site_fract_y
_atom_site_fract_z
Si Si1 0.085096 0.871372 0.912965
Si Si2 0.366200 0.118187 0.157435
Si Si3 0.413516 0.681970 0.622338
Si Si4 0.666199 0.991581 0.130564
Si Si5 0.177411 0.316524 0.427983
Si Si6 0.718720 0.681724 0.189429
O O1 0.121492 0.930921 0.861437
O O2 0.142260 0.822432 0.873639
O O3 0.000000 0.865143 0.882088
O O4 0.091377 0.871699 0.044477
O O5 0.391313 0.152024 0.264936
O O6 0.282280 0.140657 0.139429
O O7 0.372906 0.048748 0.178320
O O8 0.500000 0.681974 0.614031
O O9 0.387225 0.750000 0.627017
O O10 0.380109 0.655289 0.511223
O O11 0.750000 0.000000 0.170009
O O12 0.669688 0.000000 0.000000
O O13 0.151003 0.250000 0.402261
O O14 0.250000 0.313338 0.500000
O O15 0.200766 0.341080 0.311449
O O16 0.743614 0.750000 0.192904
#
# Coordination Sequence:
#
# PCOD9502431 Si02
#       6
#    16  16  16  16  16  16
#     4  11  24  38  54  83 120 153 186 232 286 338
#     4  11  20  35  60  83 112 145 189 236 283 332
#     4  10  20  33  53  85 118 145 182 235 290 338
#     4   9  18  35  58  80 104 140 188 236 272 323
#     4   9  17  33  55  78 106 144 189 234 275 327
#     4  11  22  36  58  84 114 154 195 229 273 341
#
# _framework density 18.813412
#
# number of rings (size 3 to 8) (size 9 to 14) (size 15 to 20)
#    0.000    1.833    3.333    1.500    0.000    6.667 
#    0.000    1.667    0.000    1.000    0.000    2.333 
#    0.000    0.000    0.000    0.000    0.000    0.000 
#
# Total GULP energy -267286.807262 kJ/mol
# GULP energy per Si atom -5568.475151 kJ/mol
# Density = 1.877059 g / cm^3
# Si number density = 18.813412 Si / 1000 Ang^3
#
#
#
# Elastic Constant Matrix: (Units=GPa)
#
#
# Indices 1 2 3 4 5 6 
#
# 1 96.4282 9.8317 8.8165 0.0000 0.0000 0.0000
# 2 9.8317 58.1459 7.5882 0.0000 0.0000 0.0000
# 3 8.8165 7.5882 47.2400 0.0000 0.0000 0.0000
# 4 0.0000 0.0000 0.0000 -0.3996 0.0000 0.0000
# 5 0.0000 0.0000 0.0000 0.0000 27.0848 0.0000
# 6 0.0000 0.0000 0.0000 0.0000 0.0000 13.3213
#
#
#
# Elastic Compliance Matrix: (Units=1/GPa)
#
#
# Indices 1 2 3 4 5 6 
#
# 1 0.010691 -0.001580 -0.001741 0.000000 0.000000 0.000000
# 2 -0.001580 0.017800 -0.002564 0.000000 0.000000 0.000000
# 3 -0.001741 -0.002564 0.021905 0.000000 0.000000 0.000000
# 4 0.000000 0.000000 0.000000 -2.502541 0.000000 0.000000
# 5 0.000000 0.000000 0.000000 0.000000 0.036921 0.000000
# 6 0.000000 0.000000 0.000000 0.000000 0.000000 0.075068
#
#
# Mechanical properties :
#
#
# Convention : Reuss Voigt Hill
#
# Bulk Modulus (GPa) = 25.89061 28.25410 27.07235
# Shear Modulus (GPa) = -2.15935 19.70650 8.77357
#
# Velocity S-wave (km/s) = -1.07250 3.23998 2.16185
# Velocity P-wave (km/s) = 3.50114 5.38955 4.54451
#
# Compressibility (1/GPa) = 0.03862404
#
# Stress axis : x y z
#
# Youngs Moduli (GPa) = 93.53875 56.17986 45.65081
#
# Poissons Ratio (x) = 0.08879 0.07950
# Poissons Ratio (y) = 0.14783 0.11706
# Poissons Ratio (z) = 0.16289 0.14406
#
# Static dielectric constant tensor:
#      x y z
#    x 1.687410 0.000000 0.000000 
#    y 0.000000 1.695340 0.000000 
#    z 0.000000 0.000000 1.667640 
# 
# From -- ./inp_files/19649.got.cif
#   From: 2010.05.17/outbox.cif.g08.bks.cpg/sg67_10_cif.got.tgz:19649.got - 2010.06.03 18:28:57.
