data_PCOD9502822
_publ_section_title
;
Structure prediction by ZEFSAII (Michael W. Deem and Ramdas Pophale) SiO2 
 PCOD9502822
Probable space group: C M M A
;
_chemical_formula_sum "Si O2"
_cell_formula_units_Z 112
_cell_length_a 13.892040
_cell_length_b 24.034254
_cell_length_c 15.516935
_cell_angle_alpha 90.000000
_cell_angle_beta 90.000000
_cell_angle_gamma 90.000000
_cell_volume 5180.869017
_symmetry_space_group_name_H-M "C M M A"
_symmetry_group_IT_number 67
_symmetry_cell_setting 'orthorhombic'
loop_
_space_group_symop_operation_xyz
x,y,z
-x,1/2-y,z
x,-y,-z
-x,1/2+y,-z
-x,-y,-z
x,1/2+y,-z
-x,y,z
x,1/2-y,z
1/2+x,1/2+y,z
1/2-x,-y,z
1/2+x,1/2-y,-z
1/2-x,y,-z
1/2-x,1/2-y,-z
1/2+x,y,-z
1/2-x,1/2+y,z
1/2+x,-y,z
loop_
_atom_site_type_symbol
_atom_site_label
_atom_site_fract_x
_atom_site_fract_y
_atom_site_fract_z
Si Si1 0.609625 0.186354 0.717152
Si Si2 0.211561 0.581642 0.097207
Si Si3 0.892006 0.025861 0.170802
Si Si4 0.195234 0.686776 0.197708
Si Si5 0.610671 0.497328 0.371485
Si Si6 0.383176 0.388783 0.556097
Si Si7 0.116422 0.371087 0.632462
O O1 0.500000 0.171627 0.743019
O O2 0.607633 0.250000 0.684019
O O3 0.688959 0.186048 0.791268
O O4 0.641999 0.146124 0.640263
O O5 0.139599 0.531520 0.123211
O O6 0.308405 0.568822 0.150409
O O7 0.168987 0.640411 0.127375
O O8 0.250000 0.579775 0.000000
O O9 0.000000 0.041210 0.144009
O O10 0.890945 0.018974 0.273607
O O11 0.164519 0.750000 0.179684
O O12 0.155464 0.666400 0.290482
O O13 0.500000 0.488501 0.399488
O O14 0.649306 0.547042 0.431525
O O15 0.650912 0.435334 0.360778
O O16 0.500000 0.391170 0.555927
O O17 0.356229 0.359202 0.466722
O O18 0.000000 0.369580 0.639811
#
# Coordination Sequence:
#
# PCOD9502822 Si02
#       7
#    16  16  16  16  16  16  16
#     4   9  19  37  58  79 107 145 194 249 293 333
#     4  11  24  40  61  91 120 148 193 248 305 374
#     4  10  20  38  65  93 123 154 186 234 302 371
#     4  11  24  41  61  83 114 160 207 250 298 353
#     4   9  16  30  55  83 116 155 190 234 288 340
#     4   9  17  30  53  84 116 154 199 242 291 340
#     4  10  20  35  54  82 122 161 200 243 285 345
#
# _framework density 21.617996000000002
#
# number of rings (size 3 to 8) (size 9 to 14) (size 15 to 20)
#    0.000    2.143    1.429    2.143    0.000    6.286 
#    0.000    2.857    0.000    1.714    0.000    4.000 
#    0.000    0.000    0.000    0.000    0.000    0.000 
#
# Total GULP energy -312633.362595 kJ/mol
# GULP energy per Si atom -5582.738618 kJ/mol
# Density = 2.156879 g / cm^3
# Si number density = 21.617996 Si / 1000 Ang^3
#
#
#
# Elastic Constant Matrix: (Units=GPa)
#
#
# Indices 1 2 3 4 5 6 
#
# 1 71.0598 -6.4561 -14.6554 0.0000 0.0000 0.0000
# 2 -6.4561 117.8490 7.9068 0.0000 0.0000 0.0000
# 3 -14.6554 7.9068 50.3053 0.0000 0.0000 0.0000
# 4 0.0000 0.0000 0.0000 5.5744 0.0000 0.0000
# 5 0.0000 0.0000 0.0000 0.0000 16.8783 0.0000
# 6 0.0000 0.0000 0.0000 0.0000 0.0000 13.5439
#
#
#
# Elastic Compliance Matrix: (Units=1/GPa)
#
#
# Indices 1 2 3 4 5 6 
#
# 1 0.015005 0.000534 0.004288 0.000000 0.000000 0.000000
# 2 0.000534 0.008595 -0.001195 0.000000 0.000000 0.000000
# 3 0.004288 -0.001195 0.021316 0.000000 0.000000 0.000000
# 4 0.000000 0.000000 0.000000 0.179390 0.000000 0.000000
# 5 0.000000 0.000000 0.000000 0.000000 0.059248 0.000000
# 6 0.000000 0.000000 0.000000 0.000000 0.000000 0.073834
#
#
# Mechanical properties :
#
#
# Convention : Reuss Voigt Hill
#
# Bulk Modulus (GPa) = 19.16835 23.64496 21.40666
# Shear Modulus (GPa) = 13.60454 24.02725 18.81590
#
# Velocity S-wave (km/s) = 2.51134 3.33745 2.95342
# Velocity P-wave (km/s) = 4.15875 5.08063 4.64263
#
# Compressibility (1/GPa) = 0.05216932
#
# Stress axis : x y z
#
# Youngs Moduli (GPa) = 66.64235 116.34810 46.91407
#
# Poissons Ratio (x) = -0.06217 -0.20115
# Poissons Ratio (y) = -0.03561 0.05607
# Poissons Ratio (z) = -0.28573 0.13906
#
# Static dielectric constant tensor:
#      x y z
#    x 1.872880 0.000000 0.000000 
#    y 0.000000 1.802480 0.000000 
#    z 0.000000 0.000000 1.811090 
# 
# From -- ./inp_files/27505.got.cif
#   From: 2010.05.17/outbox.cif.g08.bks.cpg/sg67_14_cif.got.tgz:27505.got - 2010.06.03 18:28:57.
