data_PCOD9502265
_publ_section_title
;
Structure prediction by ZEFSAII (Michael W. Deem and Ramdas Pophale) SiO2 
 PCOD9502265
Probable space group: C M M A
;
_chemical_formula_sum "Si O2"
_cell_formula_units_Z 88
_cell_length_a 31.542685
_cell_length_b 8.720874
_cell_length_c 18.159639
_cell_angle_alpha 90.000000
_cell_angle_beta 90.000000
_cell_angle_gamma 90.000000
_cell_volume 4995.349528
_symmetry_space_group_name_H-M "C M M A"
_symmetry_group_IT_number 67
_symmetry_cell_setting 'orthorhombic'
loop_
_space_group_symop_operation_xyz
x,y,z
-x,1/2-y,z
x,-y,-z
-x,1/2+y,-z
-x,-y,-z
x,1/2+y,-z
-x,y,z
x,1/2-y,z
1/2+x,1/2+y,z
1/2-x,-y,z
1/2+x,1/2-y,-z
1/2-x,y,-z
1/2-x,1/2-y,-z
1/2+x,y,-z
1/2-x,1/2+y,z
1/2+x,-y,z
loop_
_atom_site_type_symbol
_atom_site_label
_atom_site_fract_x
_atom_site_fract_y
_atom_site_fract_z
Si Si1 0.845312 0.570047 0.579855
Si Si2 0.000000 0.565590 0.585477
Si Si3 0.710480 0.578046 0.689549
Si Si4 0.203561 0.433644 0.082131
Si Si5 0.863910 0.924420 0.191437
Si Si6 0.420318 0.934298 0.676831
O O1 0.843264 0.500000 0.500000
O O2 0.854019 0.750000 0.578987
O O3 0.802518 0.531395 0.623026
O O4 0.881860 0.482020 0.623921
O O5 0.000000 0.500000 0.500000
O O6 0.960278 0.509400 0.635353
O O7 0.000000 0.750000 0.579172
O O8 0.719178 0.750000 0.664255
O O9 0.750000 0.500000 0.727895
O O10 0.671905 0.584983 0.745656
O O11 0.206899 0.250000 0.081650
O O12 0.250000 0.500000 0.106303
O O13 0.161869 0.482088 0.129464
O O14 0.197645 0.500000 0.000000
O O15 0.872659 0.750000 0.165274
O O16 0.904969 0.980688 0.239565
O O17 0.425344 0.750000 0.678359
#
# Coordination Sequence:
#
# PCOD9502265 Si02
#       6
#    16   8  16  16  16  16
#     4  11  21  34  50  68  93 125 163 208 256 307
#     4  12  24  38  58  84 113 142 177 222 272 328
#     4  10  20  33  48  68  93 126 167 210 254 302
#     4  11  21  33  52  78 112 148 186 226 267 313
#     4   9  19  35  54  75 103 136 172 213 259 312
#     4  10  21  38  57  78 104 135 171 212 262 320
#
# _framework density 17.616385000000001
#
# number of rings (size 3 to 8) (size 9 to 14) (size 15 to 20)
#    0.000    1.636    0.000    7.909    0.000    6.182 
#    0.000    1.818    0.000    0.000    0.000    0.636 
#    0.000    0.000    0.000    0.000    0.000    0.000 
#
# Total GULP energy -245004.016353 kJ/mol
# GULP energy per Si atom -5568.273099 kJ/mol
# Density = 1.757629 g / cm^3
# Si number density = 17.616385 Si / 1000 Ang^3
#
#
#
# Elastic Constant Matrix: (Units=GPa)
#
#
# Indices 1 2 3 4 5 6 
#
# 1 83.4655 35.7572 45.4103 0.0000 0.0000 0.0000
# 2 35.7572 102.2342 47.4747 0.0000 0.0000 0.0000
# 3 45.4103 47.4747 111.3138 0.0000 0.0000 0.0000
# 4 0.0000 0.0000 0.0000 16.8928 0.0000 0.0000
# 5 0.0000 0.0000 0.0000 0.0000 32.3935 0.0000
# 6 0.0000 0.0000 0.0000 0.0000 0.0000 29.0105
#
#
#
# Elastic Compliance Matrix: (Units=1/GPa)
#
#
# Indices 1 2 3 4 5 6 
#
# 1 0.016217 -0.003242 -0.005233 0.000000 0.000000 0.000000
# 2 -0.003242 0.012845 -0.004156 0.000000 0.000000 0.000000
# 3 -0.005233 -0.004156 0.012891 0.000000 0.000000 0.000000
# 4 0.000000 0.000000 0.000000 0.059197 0.000000 0.000000
# 5 0.000000 0.000000 0.000000 0.000000 0.030870 0.000000
# 6 0.000000 0.000000 0.000000 0.000000 0.000000 0.034470
#
#
# Mechanical properties :
#
#
# Convention : Reuss Voigt Hill
#
# Bulk Modulus (GPa) = 59.91113 61.58868 60.74990
# Shear Modulus (GPa) = 25.34007 26.88411 26.11209
#
# Velocity S-wave (km/s) = 3.79679 3.91075 3.85419
# Velocity P-wave (km/s) = 7.30092 7.44506 7.37334
#
# Compressibility (1/GPa) = 0.01669139
#
# Stress axis : x y z
#
# Youngs Moduli (GPa) = 61.66393 77.84998 77.57429
#
# Poissons Ratio (x) = 0.25238 0.40595
# Poissons Ratio (y) = 0.19991 0.32239
# Poissons Ratio (z) = 0.32269 0.32353
#
# Static dielectric constant tensor:
#      x y z
#    x 1.611800 0.000000 0.000000 
#    y 0.000000 2.068110 0.000000 
#    z 0.000000 0.000000 1.610210 
# 
# From -- ./inp_files/32425.got.cif
#   From: 2010.05.17/outbox.cif.g08.bks.cpg/sg67_17_cif.got.tgz:32425.got - 2010.06.03 18:28:57.
