data_PCOD9502478
_publ_section_title
;
Structure prediction by ZEFSAII (Michael W. Deem and Ramdas Pophale) SiO2 
 PCOD9502478
Probable space group: C M M A
;
_chemical_formula_sum "Si O2"
_cell_formula_units_Z 112
_cell_length_a 20.424488
_cell_length_b 14.304514
_cell_length_c 16.708727
_cell_angle_alpha 90.000000
_cell_angle_beta 90.000000
_cell_angle_gamma 90.000000
_cell_volume 4881.661356
_symmetry_space_group_name_H-M "C M M A"
_symmetry_group_IT_number 67
_symmetry_cell_setting 'orthorhombic'
loop_
_space_group_symop_operation_xyz
x,y,z
-x,1/2-y,z
x,-y,-z
-x,1/2+y,-z
-x,-y,-z
x,1/2+y,-z
-x,y,z
x,1/2-y,z
1/2+x,1/2+y,z
1/2-x,-y,z
1/2+x,1/2-y,-z
1/2-x,y,-z
1/2-x,1/2-y,-z
1/2+x,y,-z
1/2-x,1/2+y,z
1/2+x,-y,z
loop_
_atom_site_type_symbol
_atom_site_label
_atom_site_fract_x
_atom_site_fract_y
_atom_site_fract_z
Si Si1 0.699816 0.364525 0.247111
Si Si2 0.927163 0.639819 0.690943
Si Si3 0.709075 0.856695 0.574438
Si Si4 0.831898 0.135954 0.170006
Si Si5 0.572716 0.635942 0.845946
Si Si6 0.426202 0.863978 0.030524
Si Si7 0.574498 0.388926 0.506398
O O1 0.698567 0.250000 0.250937
O O2 0.713846 0.398656 0.337106
O O3 0.757575 0.391376 0.186615
O O4 0.630286 0.394402 0.212181
O O5 0.932814 0.750000 0.708395
O O6 0.874300 0.605144 0.753357
O O7 0.908034 0.632889 0.598287
O O8 0.000000 0.597947 0.699599
O O9 0.733829 0.750000 0.582264
O O10 0.750000 0.897661 0.500000
O O11 0.632648 0.854973 0.549990
O O12 0.831554 0.250000 0.167616
O O13 0.870010 0.104469 0.090937
O O14 0.500000 0.605486 0.821569
O O15 0.572747 0.750000 0.845940
O O16 0.583648 0.607999 0.938440
O O17 0.500000 0.892333 0.055870
O O18 0.426037 0.750000 0.031792
O O19 0.573063 0.500000 0.500000
O O20 0.500000 0.355113 0.490602
#
# Coordination Sequence:
#
# PCOD9502478 Si02
#       7
#    16  16  16  16  16  16  16
#     4   9  17  26  38  58  82 112 149 189 230 267
#     4   9  16  27  45  67  91 120 152 188 232 278
#     4  10  20  34  51  70  94 125 162 201 240 285
#     4   9  15  23  37  59  86 113 146 186 225 269
#     4   8  14  24  35  50  78 114 149 183 220 267
#     4   8  13  21  34  53  80 115 148 177 216 268
#     4  10  21  35  50  70  95 122 156 199 244 289
#
# _framework density 22.943007999999999
#
# number of rings (size 3 to 8) (size 9 to 14) (size 15 to 20)
#    0.000    3.000    0.000    2.571    0.000    6.286 
#    0.000    4.286    0.000    0.000    0.000    0.000 
#    0.000    1.143    0.000   11.571    0.000   16.714 
#
# Total GULP energy -312837.009873 kJ/mol
# GULP energy per Si atom -5586.375176 kJ/mol
# Density = 2.289079 g / cm^3
# Si number density = 22.943008 Si / 1000 Ang^3
#
#
#
# Elastic Constant Matrix: (Units=GPa)
#
#
# Indices 1 2 3 4 5 6 
#
# 1 134.7705 24.8052 94.9926 0.0000 0.0000 0.0000
# 2 24.8052 70.1661 15.3772 0.0000 0.0000 0.0000
# 3 94.9926 15.3772 116.5372 0.0000 0.0000 0.0000
# 4 0.0000 0.0000 0.0000 -95.9962 0.0000 0.0000
# 5 0.0000 0.0000 0.0000 0.0000 44.9525 0.0000
# 6 0.0000 0.0000 0.0000 0.0000 0.0000 2.2825
#
#
#
# Elastic Compliance Matrix: (Units=1/GPa)
#
#
# Indices 1 2 3 4 5 6 
#
# 1 0.018139 -0.003267 -0.014355 0.000000 0.000000 0.000000
# 2 -0.003267 0.015265 0.000649 0.000000 0.000000 0.000000
# 3 -0.014355 0.000649 0.020196 0.000000 0.000000 0.000000
# 4 0.000000 0.000000 0.000000 -0.010417 0.000000 0.000000
# 5 0.000000 0.000000 0.000000 0.000000 0.022246 0.000000
# 6 0.000000 0.000000 0.000000 0.000000 0.000000 0.438113
#
#
# Mechanical properties :
#
#
# Convention : Reuss Voigt Hill
#
# Bulk Modulus (GPa) = 50.87905 65.75820 58.31863
# Shear Modulus (GPa) = 9.19052 2.66768 5.92910
#
# Velocity S-wave (km/s) = 2.00362 1.07947 1.60931
# Velocity P-wave (km/s) = 5.25139 5.50250 5.37841
#
# Compressibility (1/GPa) = 0.01965446
#
# Stress axis : x y z
#
# Youngs Moduli (GPa) = 55.12958 65.51106 49.51424
#
# Poissons Ratio (x) = 0.21400 0.71076
# Poissons Ratio (y) = 0.18009 -0.03211
# Poissons Ratio (z) = 0.79136 -0.04249
#
# Static dielectric constant tensor:
#      x y z
#    x 1.845920 0.000000 0.000000 
#    y 0.000000 1.878140 0.000000 
#    z 0.000000 0.000000 1.813660 
# 
# From -- ./inp_files/34431.got.cif
#   From: 2010.05.17/outbox.cif.g08.bks.cpg/sg67_18_cif.got.tgz:34431.got - 2010.06.03 18:28:57.
