data_PCOD9502597
_publ_section_title
;
Structure prediction by ZEFSAII (Michael W. Deem and Ramdas Pophale) SiO2 
 PCOD9502597
Probable space group: C M M A
;
_chemical_formula_sum "Si O2"
_cell_formula_units_Z 68
_cell_length_a 25.329097
_cell_length_b 9.498104
_cell_length_c 13.749432
_cell_angle_alpha 90.000000
_cell_angle_beta 90.000000
_cell_angle_gamma 90.000000
_cell_volume 3307.816318
_symmetry_space_group_name_H-M "C M M A"
_symmetry_group_IT_number 67
_symmetry_cell_setting 'orthorhombic'
loop_
_space_group_symop_operation_xyz
x,y,z
-x,1/2-y,z
x,-y,-z
-x,1/2+y,-z
-x,-y,-z
x,1/2+y,-z
-x,y,z
x,1/2-y,z
1/2+x,1/2+y,z
1/2-x,-y,z
1/2+x,1/2-y,-z
1/2-x,y,-z
1/2-x,1/2-y,-z
1/2+x,y,-z
1/2-x,1/2+y,z
1/2+x,-y,z
loop_
_atom_site_type_symbol
_atom_site_label
_atom_site_fract_x
_atom_site_fract_y
_atom_site_fract_z
Si Si1 0.798415 0.087293 0.650910
Si Si2 0.081593 0.585275 0.405754
Si Si3 0.172364 0.091335 0.162737
Si Si4 0.250000 0.500000 0.000000
Si Si5 0.557516 0.916023 0.209658
O O1 0.783779 0.250000 0.658847
O O2 0.854406 0.078436 0.597253
O O3 0.750000 0.000000 0.608294
O O4 0.809126 0.020129 0.757072
O O5 0.063123 0.500000 0.500000
O O6 0.066678 0.750000 0.407922
O O7 0.063250 0.509258 0.306861
O O8 0.175672 0.250000 0.203646
O O9 0.110109 0.061501 0.145517
O O10 0.210252 0.083049 0.070426
O O11 0.500000 0.945330 0.164652
O O12 0.558207 0.750000 0.236777
#
# Coordination Sequence:
#
# PCOD9502597 Si02
#       5
#    16  16  16   4  16
#     4  10  20  34  53  77 110 149 189 230 278 335
#     4  10  21  35  53  81 113 148 190 236 281 328
#     4  10  21  36  56  83 115 147 184 230 279 337
#     4  12  22  32  58  94 120 144 182 226 282 340
#     4   9  19  38  61  81 107 149 194 235 281 330
#
# _framework density 20.557369999999999
#
# number of rings (size 3 to 8) (size 9 to 14) (size 15 to 20)
#    0.000    2.118    1.176    1.765    0.000    5.176 
#    0.000    2.941    0.000    0.000    0.000    0.000 
#    0.000    0.000    0.000    0.000    0.000    0.000 
#
# Total GULP energy -189699.494839 kJ/mol
# GULP energy per Si atom -5579.396907 kJ/mol
# Density = 2.051058 g / cm^3
# Si number density = 20.557370 Si / 1000 Ang^3
#
#
#
# Elastic Constant Matrix: (Units=GPa)
#
#
# Indices 1 2 3 4 5 6 
#
# 1 180.8755 45.8562 33.1797 0.0000 0.0000 0.0000
# 2 45.8562 108.0516 25.5940 0.0000 0.0000 0.0000
# 3 33.1797 25.5940 60.9269 0.0000 0.0000 0.0000
# 4 0.0000 0.0000 0.0000 15.8736 0.0000 0.0000
# 5 0.0000 0.0000 0.0000 0.0000 -0.8232 0.0000
# 6 0.0000 0.0000 0.0000 0.0000 0.0000 22.4470
#
#
#
# Elastic Compliance Matrix: (Units=1/GPa)
#
#
# Indices 1 2 3 4 5 6 
#
# 1 0.006564 -0.002153 -0.002670 0.000000 0.000000 0.000000
# 2 -0.002153 0.010984 -0.003441 0.000000 0.000000 0.000000
# 3 -0.002670 -0.003441 0.019313 0.000000 0.000000 0.000000
# 4 0.000000 0.000000 0.000000 0.062998 0.000000 0.000000
# 5 0.000000 0.000000 0.000000 0.000000 -1.214840 0.000000
# 6 0.000000 0.000000 0.000000 0.000000 0.000000 0.044549
#
#
# Mechanical properties :
#
#
# Convention : Reuss Voigt Hill
#
# Bulk Modulus (GPa) = 49.18561 62.12375 55.65468
# Shear Modulus (GPa) = -4.77498 23.84778 9.53640
#
# Velocity S-wave (km/s) = -1.52571 3.40966 2.15615
# Velocity P-wave (km/s) = 4.56883 6.76656 5.77324
#
# Compressibility (1/GPa) = 0.02033115
#
# Stress axis : x y z
#
# Youngs Moduli (GPa) = 152.33612 91.04264 51.77878
#
# Poissons Ratio (x) = 0.19605 0.13826
# Poissons Ratio (y) = 0.32804 0.17819
# Poissons Ratio (z) = 0.40678 0.31331
#
# Static dielectric constant tensor:
#      x y z
#    x 1.799730 0.000000 0.000000 
#    y 0.000000 1.706240 0.000000 
#    z 0.000000 0.000000 1.696220 
# 
# From -- ./inp_files/30478.got.cif
#   From: 2010.05.17/outbox.cif.g08.bks.cpg/sg67_16_cif.got.tgz:30478.got - 2010.06.03 18:28:57.
