data_PCOD9502033
_publ_section_title
;
Structure prediction by ZEFSAII (Michael W. Deem and Ramdas Pophale) SiO2 
 PCOD9502033
Probable space group: C M M A
;
_chemical_formula_sum "Si O2"
_cell_formula_units_Z 80
_cell_length_a 15.579508
_cell_length_b 27.943899
_cell_length_c 8.406757
_cell_angle_alpha 90.000000
_cell_angle_beta 90.000000
_cell_angle_gamma 90.000000
_cell_volume 3659.900138
_symmetry_space_group_name_H-M "C M M A"
_symmetry_group_IT_number 67
_symmetry_cell_setting 'orthorhombic'
loop_
_space_group_symop_operation_xyz
x,y,z
-x,1/2-y,z
x,-y,-z
-x,1/2+y,-z
-x,-y,-z
x,1/2+y,-z
-x,y,z
x,1/2-y,z
1/2+x,1/2+y,z
1/2-x,-y,z
1/2+x,1/2-y,-z
1/2-x,y,-z
1/2-x,1/2-y,-z
1/2+x,y,-z
1/2-x,1/2+y,z
1/2+x,-y,z
loop_
_atom_site_type_symbol
_atom_site_label
_atom_site_fract_x
_atom_site_fract_y
_atom_site_fract_z
Si Si1 0.261987 0.196360 0.691840
Si Si2 0.400319 0.619142 0.367300
Si Si3 0.159926 0.549463 0.080997
Si Si4 0.402669 0.510672 0.316557
Si Si5 0.097033 0.361662 0.745355
O O1 0.281831 0.250000 0.747898
O O2 0.250000 0.198820 0.500000
O O3 0.337397 0.157735 0.709811
O O4 0.173647 0.176149 0.763997
O O5 0.500000 0.630214 0.336277
O O6 0.382671 0.566572 0.296666
O O7 0.391569 0.619176 0.561460
O O8 0.167328 0.526112 0.254062
O O9 0.107622 0.596997 0.121099
O O10 0.124021 0.500000 0.000000
O O11 0.250000 0.560113 0.000000
O O12 0.409209 0.500000 0.500000
O O13 0.500000 0.500715 0.254306
O O14 0.000000 0.342549 0.753073
#
# Coordination Sequence:
#
# PCOD9502033 Si02
#       5
#    16  16  16  16  16
#     4   9  19  34  57  93 129 156 197 268 336 386
#     4   9  18  33  61  94 122 162 209 258 316 382
#     4  11  25  38  54  89 130 167 210 259 325 383
#     4  10  19  37  64  90 120 161 216 268 315 383
#     4  10  20  38  61  85 121 166 214 260 311 378
#
# _framework density 21.858522000000001
#
# number of rings (size 3 to 8) (size 9 to 14) (size 15 to 20)
#    0.000    2.200    2.000    0.600    5.600    2.400 
#    0.000    6.000    0.000    0.600    0.000    0.000 
#    0.000    0.000    0.000    0.000    0.000    0.000 
#
# Total GULP energy -222969.342009 kJ/mol
# GULP energy per Si atom -5574.233550 kJ/mol
# Density = 2.180877 g / cm^3
# Si number density = 21.858522 Si / 1000 Ang^3
#
#
#
# Elastic Constant Matrix: (Units=GPa)
#
#
# Indices 1 2 3 4 5 6 
#
# 1 141.2188 77.4251 29.2728 0.0000 0.0000 0.0000
# 2 77.4251 129.8171 -1.7474 0.0000 0.0000 0.0000
# 3 29.2728 -1.7474 20.6844 0.0000 0.0000 0.0000
# 4 0.0000 0.0000 0.0000 17.7135 0.0000 0.0000
# 5 0.0000 0.0000 0.0000 0.0000 34.2534 0.0000
# 6 0.0000 0.0000 0.0000 0.0000 0.0000 -10.4105
#
#
#
# Elastic Compliance Matrix: (Units=1/GPa)
#
#
# Indices 1 2 3 4 5 6 
#
# 1 0.019778 -0.012187 -0.029020 0.000000 0.000000 0.000000
# 2 -0.012187 0.015221 0.018532 0.000000 0.000000 0.000000
# 3 -0.029020 0.018532 0.090980 0.000000 0.000000 0.000000
# 4 0.000000 0.000000 0.000000 0.056454 0.000000 0.000000
# 5 0.000000 0.000000 0.000000 0.000000 0.029194 0.000000
# 6 0.000000 0.000000 0.000000 0.000000 0.000000 -0.096057
#
#
# Mechanical properties :
#
#
# Convention : Reuss Voigt Hill
#
# Bulk Modulus (GPa) = 12.40213 55.73570 34.06891
# Shear Modulus (GPa) = 26.62480 20.76259 23.69370
#
# Velocity S-wave (km/s) = 3.49385 3.08533 3.29592
# Velocity P-wave (km/s) = 4.68637 6.18434 5.48672
#
# Compressibility (1/GPa) = 0.08063133
#
# Stress axis : x y z
#
# Youngs Moduli (GPa) = 50.56112 65.69928 10.99143
#
# Poissons Ratio (x) = 0.80065 0.31897
# Poissons Ratio (y) = 0.61617 -0.20370
# Poissons Ratio (z) = 1.46726 -1.21756
#
# Static dielectric constant tensor:
#      x y z
#    x 1.805860 0.000000 0.000000 
#    y 0.000000 1.806680 0.000000 
#    z 0.000000 0.000000 2.251240 
# 
# From -- ./inp_files/9948.got.cif
#   From: 2010.05.17/outbox.cif.g08.bks.cpg/sg67_5_cif.got.tgz:9948.got - 2010.06.03 18:28:57.
