data_PCOD9502980
_publ_section_title
;
Structure prediction by ZEFSAII (Michael W. Deem and Ramdas Pophale) SiO2 
 PCOD9502980
Probable space group: C M M A
;
_chemical_formula_sum "Si O2"
_cell_formula_units_Z 88
_cell_length_a 16.300494
_cell_length_b 8.621574
_cell_length_c 31.148788
_cell_angle_alpha 90.000000
_cell_angle_beta 90.000000
_cell_angle_gamma 90.000000
_cell_volume 4377.523431
_symmetry_space_group_name_H-M "C M M A"
_symmetry_group_IT_number 67
_symmetry_cell_setting 'orthorhombic'
loop_
_space_group_symop_operation_xyz
x,y,z
-x,1/2-y,z
x,-y,-z
-x,1/2+y,-z
-x,-y,-z
x,1/2+y,-z
-x,y,z
x,1/2-y,z
1/2+x,1/2+y,z
1/2-x,-y,z
1/2+x,1/2-y,-z
1/2-x,y,-z
1/2-x,1/2-y,-z
1/2+x,y,-z
1/2-x,1/2+y,z
1/2+x,-y,z
loop_
_atom_site_type_symbol
_atom_site_label
_atom_site_fract_x
_atom_site_fract_y
_atom_site_fract_z
Si Si1 0.098516 0.072845 0.544119
Si Si2 0.000000 0.564527 0.048140
Si Si3 0.342378 0.061621 0.364711
Si Si4 0.337793 0.933506 0.094656
Si Si5 0.157387 0.937349 0.271660
Si Si6 0.404717 0.564424 0.820732
O O1 0.127290 0.250000 0.544359
O O2 0.120509 0.002845 0.590459
O O3 0.000000 0.072257 0.541800
O O4 0.130420 0.000000 0.500000
O O5 0.916902 0.506085 0.071167
O O6 0.000000 0.750000 0.048666
O O7 0.000000 0.500000 0.000000
O O8 0.345226 0.250000 0.365669
O O9 0.378824 0.014846 0.318205
O O10 0.250000 0.000000 0.364003
O O11 0.338745 0.750000 0.088752
O O12 0.250000 0.000000 0.079959
O O13 0.349854 0.976492 0.144793
O O14 0.159553 0.750000 0.271651
O O15 0.111632 0.984524 0.228307
O O16 0.250000 0.000000 0.269144
O O17 0.500000 0.537949 0.831133
O O18 0.389294 0.750000 0.824261
#
# Coordination Sequence:
#
# PCOD9502980 Si02
#       6
#    16   8  16  16  16  16
#     4   9  18  32  49  68  91 122 161 209 263 325
#     4  12  26  48  74 104 140 176 220 274 325 382
#     4   9  18  32  49  70  98 131 171 219 272 330
#     4  12  25  43  68  99 134 178 223 269 324 380
#     4   9  18  32  50  74 104 142 184 229 282 344
#     4  10  20  35  57  86 121 159 202 253 305 361
#
# _framework density 20.102692000000001
#
# number of rings (size 3 to 8) (size 9 to 14) (size 15 to 20)
#    0.000    2.000    0.909    3.000    0.000    4.364 
#    0.000    7.273    0.000    0.000    0.000    7.636 
#    0.000    0.000    0.000    0.000    0.000    0.000 
#
# Total GULP energy -245424.984552 kJ/mol
# GULP energy per Si atom -5577.840558 kJ/mol
# Density = 2.005694 g / cm^3
# Si number density = 20.102692 Si / 1000 Ang^3
#
#
#
# Elastic Constant Matrix: (Units=GPa)
#
#
# Indices 1 2 3 4 5 6 
#
# 1 81.8677 43.8158 52.3495 0.0000 0.0000 0.0000
# 2 43.8158 68.2832 43.6165 0.0000 0.0000 0.0000
# 3 52.3495 43.6165 155.2890 0.0000 0.0000 0.0000
# 4 0.0000 0.0000 0.0000 29.7399 0.0000 0.0000
# 5 0.0000 0.0000 0.0000 0.0000 91.0713 0.0000
# 6 0.0000 0.0000 0.0000 0.0000 0.0000 24.1783
#
#
#
# Elastic Compliance Matrix: (Units=1/GPa)
#
#
# Indices 1 2 3 4 5 6 
#
# 1 0.020369 -0.010583 -0.003894 0.000000 0.000000 0.000000
# 2 -0.010583 0.023345 -0.002989 0.000000 0.000000 0.000000
# 3 -0.003894 -0.002989 0.008592 0.000000 0.000000 0.000000
# 4 0.000000 0.000000 0.000000 0.033625 0.000000 0.000000
# 5 0.000000 0.000000 0.000000 0.000000 0.010980 0.000000
# 6 0.000000 0.000000 0.000000 0.000000 0.000000 0.041359
#
#
# Mechanical properties :
#
#
# Convention : Reuss Voigt Hill
#
# Bulk Modulus (GPa) = 57.55976 65.00040 61.28008
# Shear Modulus (GPa) = 27.93379 40.04176 33.98778
#
# Velocity S-wave (km/s) = 3.73172 4.46787 4.11628
# Velocity P-wave (km/s) = 6.87478 7.68246 7.28982
#
# Compressibility (1/GPa) = 0.01737325
#
# Stress axis : x y z
#
# Youngs Moduli (GPa) = 49.09457 42.83532 116.38717
#
# Poissons Ratio (x) = 0.45332 0.45322
# Poissons Ratio (y) = 0.51956 0.34794
# Poissons Ratio (z) = 0.19118 0.12805
#
# Static dielectric constant tensor:
#      x y z
#    x 1.689530 0.000000 0.000000 
#    y 0.000000 1.707920 0.000000 
#    z 0.000000 0.000000 1.775090 
# 
# From -- ./inp_files/45758.got.cif
#   From: 2010.05.17/outbox.cif.g08.bks.cpg/sg67_23_cif.got.tgz:45758.got - 2010.06.03 18:28:57.
