data_PCOD9502471
_publ_section_title
;
Structure prediction by ZEFSAII (Michael W. Deem and Ramdas Pophale) SiO2 
 PCOD9502471
Probable space group: C M M A
;
_chemical_formula_sum "Si O2"
_cell_formula_units_Z 104
_cell_length_a 30.952866
_cell_length_b 9.015167
_cell_length_c 23.359829
_cell_angle_alpha 90.000000
_cell_angle_beta 90.000000
_cell_angle_gamma 90.000000
_cell_volume 6518.449466
_symmetry_space_group_name_H-M "C M M A"
_symmetry_group_IT_number 67
_symmetry_cell_setting 'orthorhombic'
loop_
_space_group_symop_operation_xyz
x,y,z
-x,1/2-y,z
x,-y,-z
-x,1/2+y,-z
-x,-y,-z
x,1/2+y,-z
-x,y,z
x,1/2-y,z
1/2+x,1/2+y,z
1/2-x,-y,z
1/2+x,1/2-y,-z
1/2-x,y,-z
1/2-x,1/2-y,-z
1/2+x,y,-z
1/2-x,1/2+y,z
1/2+x,-y,z
loop_
_atom_site_type_symbol
_atom_site_label
_atom_site_fract_x
_atom_site_fract_y
_atom_site_fract_z
Si Si1 0.172453 0.572269 0.057575
Si Si2 0.000000 0.073070 0.937681
Si Si3 0.294920 0.573448 0.815097
Si Si4 0.947589 0.919729 0.442284
Si Si5 0.049992 0.429200 0.322061
Si Si6 0.620854 0.078294 0.770565
Si Si7 0.086378 0.578158 0.899717
O O1 0.170158 0.750000 0.051646
O O2 0.196388 0.537010 0.117467
O O3 0.125003 0.501415 0.066364
O O4 0.191477 0.500000 0.000000
O O5 0.000000 0.250000 0.940717
O O6 0.042646 0.011444 0.907583
O O7 0.000000 0.000000 0.000000
O O8 0.292667 0.750000 0.810644
O O9 0.250000 0.500000 0.797751
O O10 0.335245 0.513308 0.778429
O O11 0.932631 0.750000 0.439777
O O12 0.000000 0.917101 0.445415
O O13 0.932141 0.000000 0.500000
O O14 0.937697 0.006562 0.384013
O O15 0.050025 0.250000 0.324051
O O16 0.085314 0.475766 0.275046
O O17 0.000000 0.474484 0.309070
O O18 0.631498 0.250000 0.756897
O O19 0.599117 0.077228 0.833150
O O20 0.081783 0.750000 0.918364
#
# Coordination Sequence:
#
# PCOD9502471 Si02
#       7
#    16   8  16  16  16  16  16
#     4  10  20  34  51  71  94 118 146 185 235 292
#     4  12  24  36  48  64  86 116 155 198 239 284
#     4  10  21  36  54  73  96 122 154 195 242 295
#     4   9  16  26  41  63  94 132 172 209 243 278
#     4   9  17  29  47  71 100 134 169 203 237 280
#     4   9  19  34  53  73  97 127 160 197 239 288
#     4  10  20  34  51  68  89 119 154 194 237 285
#
# _framework density 15.954715
#
# number of rings (size 3 to 8) (size 9 to 14) (size 15 to 20)
#    0.000    2.308    0.000    3.000    1.077    5.231 
#    0.000    1.538    0.000    0.000    0.000    0.000 
#    0.000    0.615    0.000    6.462    0.000    3.077 
#
# Total GULP energy -290027.394516 kJ/mol
# GULP energy per Si atom -5577.449895 kJ/mol
# Density = 1.591840 g / cm^3
# Si number density = 15.954715 Si / 1000 Ang^3
#
#
#
# Elastic Constant Matrix: (Units=GPa)
#
#
# Indices 1 2 3 4 5 6 
#
# 1 100.1189 45.3536 40.5169 0.0000 0.0000 0.0000
# 2 45.3536 65.7823 29.6786 0.0000 0.0000 0.0000
# 3 40.5169 29.6786 88.7253 0.0000 0.0000 0.0000
# 4 0.0000 0.0000 0.0000 24.0346 0.0000 0.0000
# 5 0.0000 0.0000 0.0000 0.0000 8.0188 0.0000
# 6 0.0000 0.0000 0.0000 0.0000 0.0000 20.4638
#
#
#
# Elastic Compliance Matrix: (Units=1/GPa)
#
#
# Indices 1 2 3 4 5 6 
#
# 1 0.015745 -0.008965 -0.004192 0.000000 0.000000 0.000000
# 2 -0.008965 0.023007 -0.003602 0.000000 0.000000 0.000000
# 3 -0.004192 -0.003602 0.014390 0.000000 0.000000 0.000000
# 4 0.000000 0.000000 0.000000 0.041607 0.000000 0.000000
# 5 0.000000 0.000000 0.000000 0.000000 0.124707 0.000000
# 6 0.000000 0.000000 0.000000 0.000000 0.000000 0.048867
#
#
# Mechanical properties :
#
#
# Convention : Reuss Voigt Hill
#
# Bulk Modulus (GPa) = 50.95324 53.96943 52.46133
# Shear Modulus (GPa) = 16.21366 19.77525 17.99445
#
# Velocity S-wave (km/s) = 3.19129 3.52442 3.36198
# Velocity P-wave (km/s) = 6.75164 7.10367 6.92989
#
# Compressibility (1/GPa) = 0.01962584
#
# Stress axis : x y z
#
# Youngs Moduli (GPa) = 63.51096 43.46410 69.49368
#
# Poissons Ratio (x) = 0.38964 0.29129
# Poissons Ratio (y) = 0.56935 0.25034
# Poissons Ratio (z) = 0.26621 0.15657
#
# Static dielectric constant tensor:
#      x y z
#    x 1.520570 0.000000 0.000000 
#    y 0.000000 1.538230 0.000000 
#    z 0.000000 0.000000 1.530200 
# 
# From -- ./inp_files/41138.got.cif
#   From: 2010.05.17/outbox.cif.g08.bks.cpg/sg67_21_cif.got.tgz:41138.got - 2010.06.03 18:28:57.
