data_PCOD9502506
_publ_section_title
;
Structure prediction by ZEFSAII (Michael W. Deem and Ramdas Pophale) SiO2 
 PCOD9502506
Probable space group: C M M A
;
_chemical_formula_sum "Si O2"
_cell_formula_units_Z 96
_cell_length_a 9.079534
_cell_length_b 15.172086
_cell_length_c 32.280643
_cell_angle_alpha 90.000000
_cell_angle_beta 90.000000
_cell_angle_gamma 90.000000
_cell_volume 4446.835171
_symmetry_space_group_name_H-M "C M M A"
_symmetry_group_IT_number 67
_symmetry_cell_setting 'orthorhombic'
loop_
_space_group_symop_operation_xyz
x,y,z
-x,1/2-y,z
x,-y,-z
-x,1/2+y,-z
-x,-y,-z
x,1/2+y,-z
-x,y,z
x,1/2-y,z
1/2+x,1/2+y,z
1/2-x,-y,z
1/2+x,1/2-y,-z
1/2-x,y,-z
1/2-x,1/2-y,-z
1/2+x,y,-z
1/2-x,1/2+y,z
1/2+x,-y,z
loop_
_atom_site_type_symbol
_atom_site_label
_atom_site_fract_x
_atom_site_fract_y
_atom_site_fract_z
Si Si1 0.176363 0.903453 0.459324
Si Si2 0.333364 0.641966 0.213297
Si Si3 0.163996 0.854207 0.622993
Si Si4 0.832013 0.641909 0.296161
Si Si5 0.177566 0.903437 0.040606
Si Si6 0.335262 0.354358 0.133203
O O1 0.250000 0.859672 0.500000
O O2 0.228170 0.863978 0.415905
O O3 0.000000 0.906068 0.463351
O O4 0.250000 0.000000 0.458059
O O5 0.500000 0.612189 0.219368
O O6 0.335240 0.750000 0.213214
O O7 0.233364 0.615047 0.251948
O O8 0.270274 0.611444 0.169138
O O9 0.148166 0.750000 0.629480
O O10 0.233959 0.889584 0.665318
O O11 0.000000 0.891154 0.614303
O O12 0.831487 0.750000 0.296635
O O13 0.000000 0.613363 0.301098
O O14 0.212387 0.864361 0.085635
O O15 0.000000 0.906169 0.035899
O O16 0.250000 0.000000 0.042145
O O17 0.250000 0.859625 0.000000
O O18 0.500000 0.392862 0.136951
O O19 0.346532 0.250000 0.140641
#
# Coordination Sequence:
#
# PCOD9502506 Si02
#       6
#    16  16  16  16  16  16
#     4  11  22  38  58  78 103 136 175 214 257 310
#     4   9  16  26  43  69  99 130 163 200 243 291
#     4  10  20  34  53  79 109 138 172 215 259 302
#     4   9  16  27  45  70 101 136 170 204 246 297
#     4  10  20  34  52  71  94 126 162 199 240 290
#     4   9  18  32  49  71  98 127 160 199 243 289
#
# _framework density 21.588387000000001
#
# number of rings (size 3 to 8) (size 9 to 14) (size 15 to 20)
#    0.000    2.333    0.000    4.500    0.000    7.000 
#    0.000    0.000    0.000    1.000    0.000    4.667 
#    0.000    0.000    0.000    0.000    0.000    0.000 
#
# Total GULP energy -267892.534306 kJ/mol
# GULP energy per Si atom -5581.094465 kJ/mol
# Density = 2.153925 g / cm^3
# Si number density = 21.588387 Si / 1000 Ang^3
#
#
#
# Elastic Constant Matrix: (Units=GPa)
#
#
# Indices 1 2 3 4 5 6 
#
# 1 167.8448 8.2611 90.0364 0.0000 0.0000 0.0000
# 2 8.2611 24.2469 -0.0661 0.0000 0.0000 0.0000
# 3 90.0364 -0.0661 168.5611 0.0000 0.0000 0.0000
# 4 0.0000 0.0000 0.0000 29.3714 0.0000 0.0000
# 5 0.0000 0.0000 0.0000 0.0000 -20.5799 0.0000
# 6 0.0000 0.0000 0.0000 0.0000 0.0000 11.0062
#
#
#
# Elastic Compliance Matrix: (Units=1/GPa)
#
#
# Indices 1 2 3 4 5 6 
#
# 1 0.008553 -0.002927 -0.004570 0.000000 0.000000 0.000000
# 2 -0.002927 0.042244 0.001580 0.000000 0.000000 0.000000
# 3 -0.004570 0.001580 0.008374 0.000000 0.000000 0.000000
# 4 0.000000 0.000000 0.000000 0.034047 0.000000 0.000000
# 5 0.000000 0.000000 0.000000 0.000000 -0.048591 0.000000
# 6 0.000000 0.000000 0.000000 0.000000 0.000000 0.090858
#
#
# Mechanical properties :
#
#
# Convention : Reuss Voigt Hill
#
# Bulk Modulus (GPa) = 21.12473 61.90175 41.51324
# Shear Modulus (GPa) = 30.65648 21.45429 26.05539
#
# Velocity S-wave (km/s) = 3.77244 3.15586 3.47784
# Velocity P-wave (km/s) = 5.36484 6.48191 5.94965
#
# Compressibility (1/GPa) = 0.04733788
#
# Stress axis : x y z
#
# Youngs Moduli (GPa) = 116.91345 23.67213 119.41473
#
# Poissons Ratio (x) = 0.06928 0.54571
# Poissons Ratio (y) = 0.34216 -0.18865
# Poissons Ratio (z) = 0.53428 -0.03740
#
# Static dielectric constant tensor:
#      x y z
#    x 1.763370 0.000000 0.000000 
#    y 0.000000 1.853380 0.000000 
#    z 0.000000 0.000000 1.806890 
# 
# From -- ./inp_files/43501.got.cif
#   From: 2010.05.17/outbox.cif.g08.bks.cpg/sg67_22_cif.got.tgz:43501.got - 2010.06.03 18:28:57.
