data_PCOD9502533
_publ_section_title
;
Structure prediction by ZEFSAII (Michael W. Deem and Ramdas Pophale) SiO2 
 PCOD9502533
Probable space group: C M M A
;
_chemical_formula_sum "Si O2"
_cell_formula_units_Z 72
_cell_length_a 32.691122
_cell_length_b 8.087516
_cell_length_c 14.483981
_cell_angle_alpha 90.000000
_cell_angle_beta 90.000000
_cell_angle_gamma 90.000000
_cell_volume 3829.419334
_symmetry_space_group_name_H-M "C M M A"
_symmetry_group_IT_number 67
_symmetry_cell_setting 'orthorhombic'
loop_
_space_group_symop_operation_xyz
x,y,z
-x,1/2-y,z
x,-y,-z
-x,1/2+y,-z
-x,-y,-z
x,1/2+y,-z
-x,y,z
x,1/2-y,z
1/2+x,1/2+y,z
1/2-x,-y,z
1/2+x,1/2-y,-z
1/2-x,y,-z
1/2-x,1/2-y,-z
1/2+x,y,-z
1/2-x,1/2+y,z
1/2+x,-y,z
loop_
_atom_site_type_symbol
_atom_site_label
_atom_site_fract_x
_atom_site_fract_y
_atom_site_fract_z
Si Si1 0.589047 0.447692 0.893920
Si Si2 0.545182 0.050126 0.392757
Si Si3 0.500000 0.550815 0.107563
Si Si4 0.874327 0.051561 0.713695
Si Si5 0.295100 0.947240 0.606382
O O1 0.588230 0.250000 0.891823
O O2 0.544128 0.511429 0.859373
O O3 0.621884 0.510535 0.821277
O O4 0.594975 0.500000 0.000000
O O5 0.500000 0.991756 0.360039
O O6 0.545101 0.250000 0.387713
O O7 0.584631 0.987235 0.337302
O O8 0.548997 0.000000 0.500000
O O9 0.500000 0.750000 0.115557
O O10 0.500000 0.500000 0.000000
O O11 0.874522 0.250000 0.703605
O O12 0.833084 0.987417 0.666020
O O13 0.296157 0.750000 0.608849
O O14 0.299904 0.000000 0.500000
O O15 0.250000 0.000000 0.638301
#
# Coordination Sequence:
#
# PCOD9502533 Si02
#       5
#    16  16   8  16  16
#     4  10  20  34  52  74 103 138 177 220 263 307
#     4   9  18  32  48  69 100 137 172 207 249 299
#     4   8  16  30  46  68  95 128 171 214 255 296
#     4  10  21  34  51  77 105 136 174 215 260 311
#     4  10  20  35  56  81 109 137 171 215 263 315
#
# _framework density 18.801805000000002
#
# number of rings (size 3 to 8) (size 9 to 14) (size 15 to 20)
#    0.000    2.444    0.000    2.667    1.556    3.556 
#    0.000    0.000    0.000    0.667    0.000    4.667 
#    0.000    0.000    0.000    0.000    0.000    0.000 
#
# Total GULP energy -200799.806445 kJ/mol
# GULP energy per Si atom -5577.772401 kJ/mol
# Density = 1.875901 g / cm^3
# Si number density = 18.801805 Si / 1000 Ang^3
#
#
#
# Elastic Constant Matrix: (Units=GPa)
#
#
# Indices 1 2 3 4 5 6 
#
# 1 168.3977 20.6021 90.4628 0.0000 0.0000 0.0000
# 2 20.6021 21.4183 -1.5819 0.0000 0.0000 0.0000
# 3 90.4628 -1.5819 87.6470 0.0000 0.0000 0.0000
# 4 0.0000 0.0000 0.0000 25.0604 0.0000 0.0000
# 5 0.0000 0.0000 0.0000 0.0000 30.1684 0.0000
# 6 0.0000 0.0000 0.0000 0.0000 0.0000 13.8290
#
#
#
# Elastic Compliance Matrix: (Units=1/GPa)
#
#
# Indices 1 2 3 4 5 6 
#
# 1 0.019262 -0.020023 -0.020242 0.000000 0.000000 0.000000
# 2 -0.020023 0.067566 0.021886 0.000000 0.000000 0.000000
# 3 -0.020242 0.021886 0.032697 0.000000 0.000000 0.000000
# 4 0.000000 0.000000 0.000000 0.039904 0.000000 0.000000
# 5 0.000000 0.000000 0.000000 0.000000 0.033147 0.000000
# 6 0.000000 0.000000 0.000000 0.000000 0.000000 0.072312
#
#
# Mechanical properties :
#
#
# Convention : Reuss Voigt Hill
#
# Bulk Modulus (GPa) = 12.08232 55.15880 33.62056
# Shear Modulus (GPa) = 15.18672 25.01024 20.09848
#
# Velocity S-wave (km/s) = 2.84514 3.65115 3.27305
# Velocity P-wave (km/s) = 4.15128 6.86842 5.67487
#
# Compressibility (1/GPa) = 0.08276557
#
# Stress axis : x y z
#
# Youngs Moduli (GPa) = 51.91527 14.80043 30.58376
#
# Poissons Ratio (x) = 0.29635 0.61909
# Poissons Ratio (y) = 1.03951 -0.66935
# Poissons Ratio (z) = 1.05089 -0.32392
#
# Static dielectric constant tensor:
#      x y z
#    x 1.695620 0.000000 0.000000 
#    y 0.000000 1.651510 0.000000 
#    z 0.000000 0.000000 1.631290 
# 
# From -- ./inp_files/25298.got.cif
#   From: 2010.05.17/outbox.cif.g08.bks.cpg/sg67_13_cif.got.tgz:25298.got - 2010.06.03 18:28:57.
