data_PCOD9502841
_publ_section_title
;
Structure prediction by ZEFSAII (Michael W. Deem and Ramdas Pophale) SiO2 
 PCOD9502841
Probable space group: C M M A
;
_chemical_formula_sum "Si O2"
_cell_formula_units_Z 88
_cell_length_a 16.283059
_cell_length_b 8.858456
_cell_length_c 31.061839
_cell_angle_alpha 90.000000
_cell_angle_beta 90.000000
_cell_angle_gamma 90.000000
_cell_volume 4480.445441
_symmetry_space_group_name_H-M "C M M A"
_symmetry_group_IT_number 67
_symmetry_cell_setting 'orthorhombic'
loop_
_space_group_symop_operation_xyz
x,y,z
-x,1/2-y,z
x,-y,-z
-x,1/2+y,-z
-x,-y,-z
x,1/2+y,-z
-x,y,z
x,1/2-y,z
1/2+x,1/2+y,z
1/2-x,-y,z
1/2+x,1/2-y,-z
1/2-x,y,-z
1/2-x,1/2-y,-z
1/2+x,y,-z
1/2-x,1/2+y,z
1/2+x,-y,z
loop_
_atom_site_type_symbol
_atom_site_label
_atom_site_fract_x
_atom_site_fract_y
_atom_site_fract_z
Si Si1 0.840775 0.932725 0.634644
Si Si2 0.903954 0.573267 0.184501
Si Si3 0.335896 0.930830 0.099749
Si Si4 0.098555 0.578032 0.543173
Si Si5 0.158112 0.931692 0.728948
Si Si6 0.000000 0.932248 0.952539
O O1 0.839176 0.750000 0.633469
O O2 0.880590 0.987486 0.590101
O O3 0.877721 0.971329 0.681537
O O4 0.750000 0.000000 0.634921
O O5 0.881682 0.750000 0.185550
O O6 0.851915 0.489060 0.148142
O O7 0.889851 0.500637 0.231069
O O8 0.000000 0.559998 0.173157
O O9 0.330603 0.750000 0.099421
O O10 0.416459 0.977312 0.072407
O O11 0.250000 0.000000 0.083786
O O12 0.130734 0.500000 0.500000
O O13 0.128354 0.750000 0.542425
O O14 0.000000 0.579643 0.540407
O O15 0.161660 0.750000 0.732500
O O16 0.250000 0.000000 0.730803
O O17 0.000000 0.750000 0.954531
O O18 0.000000 0.000000 0.000000
#
# Coordination Sequence:
#
# PCOD9502841 Si02
#       6
#    16  16  16  16  16   8
#     4   9  19  34  52  74 101 135 173 218 270 327
#     4  11  23  38  58  86 119 156 198 247 298 351
#     4  11  23  42  66  95 128 168 213 258 309 366
#     4   9  18  33  51  71  96 127 167 213 263 323
#     4  10  20  35  55  78 108 146 186 230 283 343
#     4  10  24  44  68  96 132 170 212 262 311 364
#
# _framework density 19.640903999999999
#
# number of rings (size 3 to 8) (size 9 to 14) (size 15 to 20)
#    0.000    2.000    0.909    2.182    0.000    5.455 
#    0.000    5.455    0.000    2.182    0.000    0.000 
#    0.000    0.000    0.000    0.000    0.000    0.000 
#
# Total GULP energy -245481.022009 kJ/mol
# GULP energy per Si atom -5579.114137 kJ/mol
# Density = 1.959620 g / cm^3
# Si number density = 19.640904 Si / 1000 Ang^3
#
#
#
# Elastic Constant Matrix: (Units=GPa)
#
#
# Indices 1 2 3 4 5 6 
#
# 1 77.5420 34.2942 54.2198 0.0000 0.0000 0.0000
# 2 34.2942 49.4491 39.8881 0.0000 0.0000 0.0000
# 3 54.2198 39.8881 154.4737 0.0000 0.0000 0.0000
# 4 0.0000 0.0000 0.0000 33.1666 0.0000 0.0000
# 5 0.0000 0.0000 0.0000 0.0000 11.9299 0.0000
# 6 0.0000 0.0000 0.0000 0.0000 0.0000 23.5261
#
#
#
# Elastic Compliance Matrix: (Units=1/GPa)
#
#
# Indices 1 2 3 4 5 6 
#
# 1 0.020837 -0.010801 -0.004525 0.000000 0.000000 0.000000
# 2 -0.010801 0.031142 -0.004250 0.000000 0.000000 0.000000
# 3 -0.004525 -0.004250 0.009159 0.000000 0.000000 0.000000
# 4 0.000000 0.000000 0.000000 0.030151 0.000000 0.000000
# 5 0.000000 0.000000 0.000000 0.000000 0.083823 0.000000
# 6 0.000000 0.000000 0.000000 0.000000 0.000000 0.042506
#
#
# Mechanical properties :
#
#
# Convention : Reuss Voigt Hill
#
# Bulk Modulus (GPa) = 45.48319 59.80768 52.64543
# Shear Modulus (GPa) = 18.93228 23.92872 21.43050
#
# Velocity S-wave (km/s) = 3.10808 3.49422 3.30679
# Velocity P-wave (km/s) = 6.00731 6.84077 6.43754
#
# Compressibility (1/GPa) = 0.02198615
#
# Stress axis : x y z
#
# Youngs Moduli (GPa) = 47.99152 32.11069 109.17915
#
# Poissons Ratio (x) = 0.34683 0.49400
# Poissons Ratio (y) = 0.51837 0.46405
# Poissons Ratio (z) = 0.21715 0.13648
#
# Static dielectric constant tensor:
#      x y z
#    x 1.687790 0.000000 0.000000 
#    y 0.000000 1.676600 0.000000 
#    z 0.000000 0.000000 1.710300 
# 
# From -- ./inp_files/45795.got.cif
#   From: 2010.05.17/outbox.cif.g08.bks.cpg/sg67_23_cif.got.tgz:45795.got - 2010.06.03 18:28:57.
