data_PCOD9502005
_publ_section_title
;
Structure prediction by ZEFSAII (Michael W. Deem and Ramdas Pophale) SiO2 
 PCOD9502005
Probable space group: C M M A
;
_chemical_formula_sum "Si O2"
_cell_formula_units_Z 64
_cell_length_a 14.927340
_cell_length_b 17.433255
_cell_length_c 13.739354
_cell_angle_alpha 90.000000
_cell_angle_beta 90.000000
_cell_angle_gamma 90.000000
_cell_volume 3575.421283
_symmetry_space_group_name_H-M "C M M A"
_symmetry_group_IT_number 67
_symmetry_cell_setting 'orthorhombic'
loop_
_space_group_symop_operation_xyz
x,y,z
-x,1/2-y,z
x,-y,-z
-x,1/2+y,-z
-x,-y,-z
x,1/2+y,-z
-x,y,z
x,1/2-y,z
1/2+x,1/2+y,z
1/2-x,-y,z
1/2+x,1/2-y,-z
1/2-x,y,-z
1/2-x,1/2-y,-z
1/2+x,y,-z
1/2-x,1/2+y,z
1/2+x,-y,z
loop_
_atom_site_type_symbol
_atom_site_label
_atom_site_fract_x
_atom_site_fract_y
_atom_site_fract_z
Si Si1 0.852418 0.338918 0.737321
Si Si2 0.606510 0.020112 0.390907
Si Si3 0.686994 0.930410 0.210205
Si Si4 0.000000 0.581088 0.893115
Si Si5 0.000000 0.104468 0.888009
O O1 0.865719 0.250000 0.716856
O O2 0.874963 0.393484 0.645616
O O3 0.752539 0.360074 0.770032
O O4 0.916196 0.365394 0.826115
O O5 0.500000 0.007228 0.383943
O O6 0.635117 0.000000 0.500000
O O7 0.654412 0.966769 0.312015
O O8 0.596872 0.904537 0.155734
O O9 0.750000 0.000000 0.165351
O O10 0.000000 0.487826 0.890963
O O11 0.000000 0.622212 0.997905
#
# Coordination Sequence:
#
# PCOD9502005 Si02
#       5
#    16  16  16   8   8
#     4  11  22  39  60  89 122 156 191 242 303 353
#     4  10  19  36  63  90 114 151 199 246 287 348
#     4  10  19  37  58  87 120 154 199 246 284 348
#     4  11  20  38  60  87 117 154 204 247 290 327
#     4  11  21  36  60  89 115 153 202 250 287 349
#
# _framework density 17.899989000000001
#
# number of rings (size 3 to 8) (size 9 to 14) (size 15 to 20)
#    0.000    1.500    7.500    0.375    0.000    5.500 
#    0.000    6.875    0.000    1.500    0.000    0.000 
#    0.000    0.000    0.000    0.000    0.000    0.000 
#
# Total GULP energy -178337.838537 kJ/mol
# GULP energy per Si atom -5573.057454 kJ/mol
# Density = 1.785925 g / cm^3
# Si number density = 17.899989 Si / 1000 Ang^3
#
#
#
# Elastic Constant Matrix: (Units=GPa)
#
#
# Indices 1 2 3 4 5 6 
#
# 1 138.6286 31.4739 61.9919 0.0000 0.0000 0.0000
# 2 31.4739 89.2462 63.9198 0.0000 0.0000 0.0000
# 3 61.9919 63.9198 128.8059 0.0000 0.0000 0.0000
# 4 0.0000 0.0000 0.0000 12.9185 0.0000 0.0000
# 5 0.0000 0.0000 0.0000 0.0000 1.6410 0.0000
# 6 0.0000 0.0000 0.0000 0.0000 0.0000 -8.1178
#
#
#
# Elastic Compliance Matrix: (Units=1/GPa)
#
#
# Indices 1 2 3 4 5 6 
#
# 1 0.009193 -0.000114 -0.004368 0.000000 0.000000 0.000000
# 2 -0.000114 0.017385 -0.008573 0.000000 0.000000 0.000000
# 3 -0.004368 -0.008573 0.014120 0.000000 0.000000 0.000000
# 4 0.000000 0.000000 0.000000 0.077408 0.000000 0.000000
# 5 0.000000 0.000000 0.000000 0.000000 0.609367 0.000000
# 6 0.000000 0.000000 0.000000 0.000000 0.000000 -0.123186
#
#
# Mechanical properties :
#
#
# Convention : Reuss Voigt Hill
#
# Bulk Modulus (GPa) = 68.54309 74.60578 71.57444
# Shear Modulus (GPa) = 7.87083 14.57469 11.22276
#
# Velocity S-wave (km/s) = 2.09920 2.85657 2.50665
# Velocity P-wave (km/s) = 6.65214 7.25601 6.96062
#
# Compressibility (1/GPa) = 0.01458936
#
# Stress axis : x y z
#
# Youngs Moduli (GPa) = 108.78426 57.52146 70.82203
#
# Poissons Ratio (x) = 0.00653 0.30934
# Poissons Ratio (y) = 0.01235 0.60713
# Poissons Ratio (z) = 0.47515 0.49311
#
# Static dielectric constant tensor:
#      x y z
#    x 1.678750 0.000000 0.000000 
#    y 0.000000 1.591630 0.000000 
#    z 0.000000 0.000000 1.625050 
# 
# From -- ./inp_files/26812.got.cif
#   From: 2010.05.17/outbox.cif.g08.bks.cpg/sg67_14_cif.got.tgz:26812.got - 2010.06.03 18:28:57.
