data_PCOD9502106
_publ_section_title
;
Structure prediction by ZEFSAII (Michael W. Deem and Ramdas Pophale) SiO2 
 PCOD9502106
Probable space group: C M M A
;
_chemical_formula_sum "Si O2"
_cell_formula_units_Z 88
_cell_length_a 22.156117
_cell_length_b 23.399112
_cell_length_c 9.104133
_cell_angle_alpha 90.000000
_cell_angle_beta 90.000000
_cell_angle_gamma 90.000000
_cell_volume 4719.887200
_symmetry_space_group_name_H-M "C M M A"
_symmetry_group_IT_number 67
_symmetry_cell_setting 'orthorhombic'
loop_
_space_group_symop_operation_xyz
x,y,z
-x,1/2-y,z
x,-y,-z
-x,1/2+y,-z
-x,-y,-z
x,1/2+y,-z
-x,y,z
x,1/2-y,z
1/2+x,1/2+y,z
1/2-x,-y,z
1/2+x,1/2-y,-z
1/2-x,y,-z
1/2-x,1/2-y,-z
1/2+x,y,-z
1/2-x,1/2+y,z
1/2+x,-y,z
loop_
_atom_site_type_symbol
_atom_site_label
_atom_site_fract_x
_atom_site_fract_y
_atom_site_fract_z
Si Si1 0.606168 0.000000 0.500000
Si Si2 0.234515 0.933174 0.172712
Si Si3 0.067412 0.436587 0.048067
Si Si4 0.903807 0.410638 0.735145
Si Si5 0.150875 0.896073 0.690708
Si Si6 0.570045 0.817456 0.496404
O O1 0.574725 0.964642 0.633374
O O2 0.642477 0.949237 0.421187
O O3 0.166351 0.921695 0.223323
O O4 0.279562 0.893765 0.266557
O O5 0.250000 0.000000 0.200242
O O6 0.250000 0.923633 0.000000
O O7 0.114127 0.412142 0.162832
O O8 0.000000 0.439371 0.112033
O O9 0.087089 0.500000 0.000000
O O10 0.065767 0.404974 0.892943
O O11 0.915941 0.354422 0.640874
O O12 0.117632 0.841977 0.620919
O O13 0.500000 0.829275 0.452576
O O14 0.576223 0.750000 0.517771
#
# Coordination Sequence:
#
# PCOD9502106 Si02
#       6
#     8  16  16  16  16  16
#     4  10  20  31  51  84 124 152 191 233 298 362
#     4  11  20  34  62  89 131 163 192 235 293 370
#     4  11  20  33  54  86 125 157 195 245 298 364
#     4  11  21  37  59  90 120 160 200 245 297 357
#     4  11  21  37  59  90 120 160 200 245 297 357
#     4  10  24  46  65  83 116 161 209 257 301 351
#
# _framework density 18.644514000000001
#
# number of rings (size 3 to 8) (size 9 to 14) (size 15 to 20)
#    0.000    1.273    5.455    1.091    0.000    3.636 
#    0.000    5.455    0.000    4.364    0.000    0.000 
#    0.000    0.000    0.000    0.000    0.000    0.000 
#
# Total GULP energy -245510.025574 kJ/mol
# GULP energy per Si atom -5579.773309 kJ/mol
# Density = 1.860208 g / cm^3
# Si number density = 18.644514 Si / 1000 Ang^3
#
#
#
# Elastic Constant Matrix: (Units=GPa)
#
#
# Indices 1 2 3 4 5 6 
#
# 1 107.5889 40.8974 31.7298 0.0000 0.0000 0.0000
# 2 40.8974 82.7711 11.9903 0.0000 0.0000 0.0000
# 3 31.7298 11.9903 67.5902 0.0000 0.0000 0.0000
# 4 0.0000 0.0000 0.0000 14.0892 0.0000 0.0000
# 5 0.0000 0.0000 0.0000 0.0000 37.0228 0.0000
# 6 0.0000 0.0000 0.0000 0.0000 0.0000 21.7551
#
#
#
# Elastic Compliance Matrix: (Units=1/GPa)
#
#
# Indices 1 2 3 4 5 6 
#
# 1 0.012942 -0.005660 -0.005071 0.000000 0.000000 0.000000
# 2 -0.005660 0.014875 0.000018 0.000000 0.000000 0.000000
# 3 -0.005071 0.000018 0.017173 0.000000 0.000000 0.000000
# 4 0.000000 0.000000 0.000000 0.070977 0.000000 0.000000
# 5 0.000000 0.000000 0.000000 0.000000 0.027010 0.000000
# 6 0.000000 0.000000 0.000000 0.000000 0.000000 0.045966
#
#
# Mechanical properties :
#
#
# Convention : Reuss Voigt Hill
#
# Bulk Modulus (GPa) = 42.43854 47.46503 44.95178
# Shear Modulus (GPa) = 22.91227 26.12893 24.52060
#
# Velocity S-wave (km/s) = 3.50937 3.74763 3.63045
# Velocity P-wave (km/s) = 6.26357 6.65127 6.46033
#
# Compressibility (1/GPa) = 0.02356348
#
# Stress axis : x y z
#
# Youngs Moduli (GPa) = 77.26922 67.22485 58.23243
#
# Poissons Ratio (x) = 0.38049 0.29532
# Poissons Ratio (y) = 0.43734 -0.00106
# Poissons Ratio (z) = 0.39186 -0.00122
#
# Static dielectric constant tensor:
#      x y z
#    x 1.669960 0.000000 0.000000 
#    y 0.000000 1.608740 0.000000 
#    z 0.000000 0.000000 1.708010 
# 
# From -- ./inp_files/11279.got.cif
#   From: 2010.05.17/outbox.cif.g08.bks.cpg/sg67_6_cif.got.tgz:11279.got - 2010.06.03 18:28:57.
