data_PCOD9502745
_publ_section_title
;
Structure prediction by ZEFSAII (Michael W. Deem and Ramdas Pophale) SiO2 
 PCOD9502745
Probable space group: C M M A
;
_chemical_formula_sum "Si O2"
_cell_formula_units_Z 64
_cell_length_a 17.055807
_cell_length_b 15.860564
_cell_length_c 11.923958
_cell_angle_alpha 90.000000
_cell_angle_beta 90.000000
_cell_angle_gamma 90.000000
_cell_volume 3225.606142
_symmetry_space_group_name_H-M "C M M A"
_symmetry_group_IT_number 67
_symmetry_cell_setting 'orthorhombic'
loop_
_space_group_symop_operation_xyz
x,y,z
-x,1/2-y,z
x,-y,-z
-x,1/2+y,-z
-x,-y,-z
x,1/2+y,-z
-x,y,z
x,1/2-y,z
1/2+x,1/2+y,z
1/2-x,-y,z
1/2+x,1/2-y,-z
1/2-x,y,-z
1/2-x,1/2-y,-z
1/2+x,y,-z
1/2-x,1/2+y,z
1/2+x,-y,z
loop_
_atom_site_type_symbol
_atom_site_label
_atom_site_fract_x
_atom_site_fract_y
_atom_site_fract_z
Si Si1 0.208821 0.589443 0.300331
Si Si2 0.912927 0.101757 0.513391
Si Si3 0.910536 0.990033 0.130062
Si Si4 0.874600 0.342748 0.263610
O O1 0.250000 0.500000 0.334441
O O2 0.156549 0.623740 0.401869
O O3 0.150341 0.566702 0.198971
O O4 0.280393 0.647817 0.265038
O O5 0.901272 0.141334 0.391440
O O6 0.000000 0.123495 0.556316
O O7 0.910519 0.000000 0.500000
O O8 0.906787 0.081621 0.188472
O O9 0.000000 0.958426 0.138084
O O10 0.889251 0.000000 0.000000
O O11 0.898489 0.250000 0.226522
#
# Coordination Sequence:
#
# PCOD9502745 Si02
#       4
#    16  16  16  16
#     4  10  20  34  57  84 116 157 194 233 278 343
#     4  11  20  33  56  86 119 157 196 234 280 343
#     4  10  21  39  63  87 111 150 202 243 283 342
#     4  11  24  38  58  89 122 152 188 239 297 345
#
# _framework density 19.841231000000001
#
# number of rings (size 3 to 8) (size 9 to 14) (size 15 to 20)
#    0.000    1.500    5.000    2.250    0.000    8.500 
#    0.000    2.500    0.000    3.750    0.000    0.000 
#    0.000    0.000    0.000    0.000    0.000    0.000 
#
# Total GULP energy -178834.578147 kJ/mol
# GULP energy per Si atom -5588.580567 kJ/mol
# Density = 1.979607 g / cm^3
# Si number density = 19.841231 Si / 1000 Ang^3
#
#
#
# Elastic Constant Matrix: (Units=GPa)
#
#
# Indices 1 2 3 4 5 6 
#
# 1 104.2182 -7.7919 33.2431 0.0000 0.0000 0.0000
# 2 -7.7919 33.8701 -4.5262 0.0000 0.0000 0.0000
# 3 33.2431 -4.5262 105.9875 0.0000 0.0000 0.0000
# 4 0.0000 0.0000 0.0000 6.0531 0.0000 0.0000
# 5 0.0000 0.0000 0.0000 0.0000 45.5209 0.0000
# 6 0.0000 0.0000 0.0000 0.0000 0.0000 0.8551
#
#
#
# Elastic Compliance Matrix: (Units=1/GPa)
#
#
# Indices 1 2 3 4 5 6 
#
# 1 0.010801 0.002044 -0.003300 0.000000 0.000000 0.000000
# 2 0.002044 0.030081 0.000644 0.000000 0.000000 0.000000
# 3 -0.003300 0.000644 0.010498 0.000000 0.000000 0.000000
# 4 0.000000 0.000000 0.000000 0.165203 0.000000 0.000000
# 5 0.000000 0.000000 0.000000 0.000000 0.021968 0.000000
# 6 0.000000 0.000000 0.000000 0.000000 0.000000 1.169435
#
#
# Mechanical properties :
#
#
# Convention : Reuss Voigt Hill
#
# Bulk Modulus (GPa) = 19.93898 31.76955 25.85427
# Shear Modulus (GPa) = 3.50648 25.36255 14.43452
#
# Velocity S-wave (km/s) = 1.33083 3.57918 2.70015
# Velocity P-wave (km/s) = 3.52598 5.75563 4.77283
#
# Compressibility (1/GPa) = 0.05015301
#
# Stress axis : x y z
#
# Youngs Moduli (GPa) = 92.58577 33.24389 95.25867
#
# Poissons Ratio (x) = -0.06794 0.31439
# Poissons Ratio (y) = -0.18922 -0.06131
# Poissons Ratio (z) = 0.30557 -0.02140
#
# Static dielectric constant tensor:
#      x y z
#    x 1.722520 0.000000 0.000000 
#    y 0.000000 1.694930 0.000000 
#    z 0.000000 0.000000 1.666880 
# 
# From -- ./inp_files/17485.got.cif
#   From: 2010.05.17/outbox.cif.g08.bks.cpg/sg67_9_cif.got.tgz:17485.got - 2010.06.03 18:28:57.
