data_PCOD9502095
_publ_section_title
;
Structure prediction by ZEFSAII (Michael W. Deem and Ramdas Pophale) SiO2 
 PCOD9502095
Probable space group: C M M A
;
_chemical_formula_sum "Si O2"
_cell_formula_units_Z 104
_cell_length_a 9.085713
_cell_length_b 27.401877
_cell_length_c 25.195227
_cell_angle_alpha 90.000000
_cell_angle_beta 90.000000
_cell_angle_gamma 90.000000
_cell_volume 6272.744557
_symmetry_space_group_name_H-M "C M M A"
_symmetry_group_IT_number 67
_symmetry_cell_setting 'orthorhombic'
loop_
_space_group_symop_operation_xyz
x,y,z
-x,1/2-y,z
x,-y,-z
-x,1/2+y,-z
-x,-y,-z
x,1/2+y,-z
-x,y,z
x,1/2-y,z
1/2+x,1/2+y,z
1/2-x,-y,z
1/2+x,1/2-y,-z
1/2-x,y,-z
1/2-x,1/2-y,-z
1/2+x,y,-z
1/2-x,1/2+y,z
1/2+x,-y,z
loop_
_atom_site_type_symbol
_atom_site_label
_atom_site_fract_x
_atom_site_fract_y
_atom_site_fract_z
Si Si1 0.323291 0.308048 0.946875
Si Si2 0.821324 0.750000 0.557996
Si Si3 0.177901 0.654039 0.389566
Si Si4 0.173736 0.147130 0.735587
Si Si5 0.329106 0.550595 0.398484
Si Si6 0.833698 0.191937 0.168551
Si Si7 0.832368 0.952012 0.730542
O O1 0.500000 0.312678 0.949711
O O2 0.288678 0.250000 0.946954
O O3 0.276920 0.327222 0.888588
O O4 0.250000 0.329039 0.000000
O O5 0.750000 0.750000 0.500000
O O6 0.758787 0.799449 0.585005
O O7 0.000000 0.750000 0.557482
O O8 0.207123 0.658015 0.326161
O O9 0.242932 0.601591 0.409465
O O10 0.000000 0.655320 0.397874
O O11 0.239011 0.182320 0.779631
O O12 0.244599 0.095131 0.747701
O O13 0.000000 0.145171 0.739908
O O14 0.500000 0.552705 0.416450
O O15 0.250000 0.500000 0.416676
O O16 0.331933 0.547645 0.334071
O O17 0.843960 0.250000 0.162175
O O18 0.000000 0.173108 0.177139
O O19 0.000000 0.950615 0.748071
O O20 0.750000 0.000000 0.748885
#
# Coordination Sequence:
#
# PCOD9502095 Si02
#       7
#    16   8  16  16  16  16  16
#     4   8  14  25  40  57  79 111 154 199 241 284
#     4  12  26  44  64  82 102 134 175 216 255 298
#     4  10  21  37  55  78 107 137 171 213 255 300
#     4  10  20  31  46  70 100 130 162 199 241 288
#     4   9  16  28  49  78 107 136 169 205 250 302
#     4   9  18  30  42  60  90 127 162 199 242 288
#     4   9  16  27  44  65  93 126 160 195 236 286
#
# _framework density 16.579664999999999
#
# number of rings (size 3 to 8) (size 9 to 14) (size 15 to 20)
#    0.000    2.615    0.000    3.462    1.077    6.462 
#    0.000    1.538    0.000    0.462    0.000    3.231 
#    0.000    0.615    0.000    6.462    0.000    4.154 
#
# Total GULP energy -289489.405165 kJ/mol
# GULP energy per Si atom -5567.103945 kJ/mol
# Density = 1.654193 g / cm^3
# Si number density = 16.579665 Si / 1000 Ang^3
#
#
#
# Elastic Constant Matrix: (Units=GPa)
#
#
# Indices 1 2 3 4 5 6 
#
# 1 89.5327 53.0020 58.4760 0.0000 0.0000 0.0000
# 2 53.0020 94.3112 45.9980 0.0000 0.0000 0.0000
# 3 58.4760 45.9980 58.5399 0.0000 0.0000 0.0000
# 4 0.0000 0.0000 0.0000 -6.1485 0.0000 0.0000
# 5 0.0000 0.0000 0.0000 0.0000 12.9654 0.0000
# 6 0.0000 0.0000 0.0000 0.0000 0.0000 29.9023
#
#
#
# Elastic Compliance Matrix: (Units=1/GPa)
#
#
# Indices 1 2 3 4 5 6 
#
# 1 0.033042 -0.004007 -0.029857 0.000000 0.000000 0.000000
# 2 -0.004007 0.017678 -0.009887 0.000000 0.000000 0.000000
# 3 -0.029857 -0.009887 0.054676 0.000000 0.000000 0.000000
# 4 0.000000 0.000000 0.000000 -0.162641 0.000000 0.000000
# 5 0.000000 0.000000 0.000000 0.000000 0.077128 0.000000
# 6 0.000000 0.000000 0.000000 0.000000 0.000000 0.033442
#
#
# Mechanical properties :
#
#
# Convention : Reuss Voigt Hill
#
# Bulk Modulus (GPa) = 55.89104 61.92621 58.90863
# Shear Modulus (GPa) = 34.06203 13.00436 23.53320
#
# Velocity S-wave (km/s) = 4.53752 2.80367 3.77158
# Velocity P-wave (km/s) = 7.82533 6.92189 7.38744
#
# Compressibility (1/GPa) = 0.01789195
#
# Stress axis : x y z
#
# Youngs Moduli (GPa) = 30.26493 56.56905 18.28960
#
# Poissons Ratio (x) = 0.22668 0.54607
# Poissons Ratio (y) = 0.12127 0.18084
# Poissons Ratio (z) = 0.90362 0.55933
#
# Static dielectric constant tensor:
#      x y z
#    x 1.547270 0.000000 0.000000 
#    y 0.000000 1.558510 0.000000 
#    z 0.000000 0.000000 1.588190 
# 
# From -- ./inp_files/41046.got.cif
#   From: 2010.05.17/outbox.cif.g08.bks.cpg/sg67_21_cif.got.tgz:41046.got - 2010.06.03 18:28:57.
