data_PCOD9502454
_publ_section_title
;
Structure prediction by ZEFSAII (Michael W. Deem and Ramdas Pophale) SiO2 
 PCOD9502454
Probable space group: C M M A
;
_chemical_formula_sum "Si O2"
_cell_formula_units_Z 88
_cell_length_a 9.696678
_cell_length_b 22.493037
_cell_length_c 23.936685
_cell_angle_alpha 90.000000
_cell_angle_beta 90.000000
_cell_angle_gamma 90.000000
_cell_volume 5220.776197
_symmetry_space_group_name_H-M "C M M A"
_symmetry_group_IT_number 67
_symmetry_cell_setting 'orthorhombic'
loop_
_space_group_symop_operation_xyz
x,y,z
-x,1/2-y,z
x,-y,-z
-x,1/2+y,-z
-x,-y,-z
x,1/2+y,-z
-x,y,z
x,1/2-y,z
1/2+x,1/2+y,z
1/2-x,-y,z
1/2+x,1/2-y,-z
1/2-x,y,-z
1/2-x,1/2-y,-z
1/2+x,y,-z
1/2-x,1/2+y,z
1/2+x,-y,z
loop_
_atom_site_type_symbol
_atom_site_label
_atom_site_fract_x
_atom_site_fract_y
_atom_site_fract_z
Si Si1 0.000000 0.553322 0.081885
Si Si2 0.244869 0.367835 0.886203
Si Si3 0.659841 0.321306 0.768131
Si Si4 0.153062 0.250000 0.946698
Si Si5 0.339287 0.177571 0.554126
Si Si6 0.500000 0.416511 0.951755
Si Si7 0.840385 0.677715 0.338796
O O1 0.865731 0.579316 0.111946
O O2 0.000000 0.482778 0.074258
O O3 0.000000 0.578572 0.018420
O O4 0.305001 0.354977 0.825173
O O5 0.175644 0.307790 0.908796
O O6 0.366061 0.383657 0.929058
O O7 0.500000 0.331563 0.752132
O O8 0.674218 0.250000 0.777664
O O9 0.764048 0.338561 0.718711
O O10 0.000000 0.250000 0.969500
O O11 0.250000 0.250000 0.000000
O O12 0.500000 0.158347 0.552975
O O13 0.342501 0.250000 0.554393
O O14 0.250000 0.159749 0.500000
O O15 0.254811 0.158694 0.609176
O O16 0.843258 0.750000 0.340359
O O17 0.000000 0.657858 0.342150
#
# Coordination Sequence:
#
# PCOD9502454 Si02
#       7
#     8  16  16   8  16   8  16
#     4  11  24  41  61  81 103 134 174 219 262 320
#     4  12  23  38  58  81 107 135 171 214 265 322
#     4  10  20  34  48  69 100 135 169 206 257 318
#     4  12  26  38  56  82 110 136 163 206 267 324
#     4   9  15  23  36  56  84 120 166 215 255 293
#     4  11  24  43  61  79 103 136 174 215 266 320
#     4   9  17  27  42  61  87 124 167 212 255 301
#
# _framework density 16.855730999999999
#
# number of rings (size 3 to 8) (size 9 to 14) (size 15 to 20)
#    0.000    1.636    2.727    3.273    2.545    5.818 
#    0.000    0.000    0.000    0.000    0.000    0.000 
#    0.000    0.000    0.000    0.000    0.000    5.455 
#
# Total GULP energy -245590.768635 kJ/mol
# GULP energy per Si atom -5581.608378 kJ/mol
# Density = 1.681737 g / cm^3
# Si number density = 16.855731 Si / 1000 Ang^3
#
#
#
# Elastic Constant Matrix: (Units=GPa)
#
#
# Indices 1 2 3 4 5 6 
#
# 1 148.2797 15.5582 46.5697 0.0000 0.0000 0.0000
# 2 15.5582 34.0449 10.0941 0.0000 0.0000 0.0000
# 3 46.5697 10.0941 88.5133 0.0000 0.0000 0.0000
# 4 0.0000 0.0000 0.0000 4.7600 0.0000 0.0000
# 5 0.0000 0.0000 0.0000 0.0000 32.9829 0.0000
# 6 0.0000 0.0000 0.0000 0.0000 0.0000 -6.4113
#
#
#
# Elastic Compliance Matrix: (Units=1/GPa)
#
#
# Indices 1 2 3 4 5 6 
#
# 1 0.008293 -0.002583 -0.004069 0.000000 0.000000 0.000000
# 2 -0.002583 0.031206 -0.002199 0.000000 0.000000 0.000000
# 3 -0.004069 -0.002199 0.013689 0.000000 0.000000 0.000000
# 4 0.000000 0.000000 0.000000 0.210084 0.000000 0.000000
# 5 0.000000 0.000000 0.000000 0.000000 0.030319 0.000000
# 6 0.000000 0.000000 0.000000 0.000000 0.000000 -0.155974
#
#
# Mechanical properties :
#
#
# Convention : Reuss Voigt Hill
#
# Bulk Modulus (GPa) = 28.18107 46.14242 37.16175
# Shear Modulus (GPa) = 29.91360 19.50738 24.71049
#
# Velocity S-wave (km/s) = 4.21727 3.40562 3.83299
# Velocity P-wave (km/s) = 6.36153 6.54971 6.45631
#
# Compressibility (1/GPa) = 0.03548481
#
# Stress axis : x y z
#
# Youngs Moduli (GPa) = 120.58553 32.04544 73.05056
#
# Poissons Ratio (x) = 0.08279 0.29721
# Poissons Ratio (y) = 0.31153 0.16067
# Poissons Ratio (z) = 0.49061 0.07048
#
# Static dielectric constant tensor:
#      x y z
#    x 1.561400 0.000000 0.000000 
#    y 0.000000 1.541030 0.000000 
#    z 0.000000 0.000000 1.555120 
# 
# From -- ./inp_files/37014.got.cif
#   From: 2010.05.17/outbox.cif.g08.bks.cpg/sg67_19_cif.got.tgz:37014.got - 2010.06.03 18:28:57.
