data_PCOD9502463
_publ_section_title
;
Structure prediction by ZEFSAII (Michael W. Deem and Ramdas Pophale) SiO2 
 PCOD9502463
Probable space group: C M M A
;
_chemical_formula_sum "Si O2"
_cell_formula_units_Z 96
_cell_length_a 9.054433
_cell_length_b 27.474590
_cell_length_c 24.583309
_cell_angle_alpha 90.000000
_cell_angle_beta 90.000000
_cell_angle_gamma 90.000000
_cell_volume 6115.511958
_symmetry_space_group_name_H-M "C M M A"
_symmetry_group_IT_number 67
_symmetry_cell_setting 'orthorhombic'
loop_
_space_group_symop_operation_xyz
x,y,z
-x,1/2-y,z
x,-y,-z
-x,1/2+y,-z
-x,-y,-z
x,1/2+y,-z
-x,y,z
x,1/2-y,z
1/2+x,1/2+y,z
1/2-x,-y,z
1/2+x,1/2-y,-z
1/2-x,y,-z
1/2-x,1/2-y,-z
1/2+x,y,-z
1/2-x,1/2+y,z
1/2+x,-y,z
loop_
_atom_site_type_symbol
_atom_site_label
_atom_site_fract_x
_atom_site_fract_y
_atom_site_fract_z
Si Si1 0.322276 0.904896 0.442591
Si Si2 0.176060 0.950645 0.337118
Si Si3 0.670488 0.190743 0.944832
Si Si4 0.823743 0.151671 0.717808
Si Si5 0.677332 0.195894 0.612649
Si Si6 0.676558 0.307676 0.166652
O O1 0.500000 0.909842 0.443863
O O2 0.250000 0.917467 0.500000
O O3 0.253019 0.936794 0.394264
O O4 0.283475 0.848725 0.427079
O O5 0.202126 0.904499 0.297888
O O6 0.000000 0.956233 0.344320
O O7 0.250000 0.000000 0.316579
O O8 0.500000 0.176595 0.945495
O O9 0.677491 0.250000 0.945009
O O10 0.747500 0.175186 0.888866
O O11 0.750000 0.174178 0.000000
O O12 0.745840 0.183477 0.671319
O O13 0.774878 0.165474 0.778385
O O14 0.000000 0.160677 0.714534
O O15 0.500000 0.195372 0.617465
O O16 0.723753 0.250000 0.594802
O O17 0.500000 0.313170 0.160930
O O18 0.706865 0.250000 0.173478
#
# Coordination Sequence:
#
# PCOD9502463 Si02
#       6
#    16  16  16  16  16  16
#     4  10  20  34  50  69  92 116 145 180 217 260
#     4  10  20  35  53  71  90 113 142 178 224 272
#     4   9  16  25  37  55  82 118 157 191 220 250
#     4   9  18  31  47  67  90 116 148 184 220 263
#     4   9  18  31  46  65  91 121 149 179 216 256
#     4   9  16  26  41  62  89 120 151 182 215 251
#
# _framework density 15.697787
#
# number of rings (size 3 to 8) (size 9 to 14) (size 15 to 20)
#    0.000    2.667    0.000    2.000    0.000    5.667 
#    0.000    3.333    0.000    0.000    0.000    0.000 
#    0.000    0.667    0.000    7.667    0.000    2.667 
#
# Total GULP energy -267577.687465 kJ/mol
# GULP energy per Si atom -5574.535156 kJ/mol
# Density = 1.566206 g / cm^3
# Si number density = 15.697787 Si / 1000 Ang^3
#
#
#
# Elastic Constant Matrix: (Units=GPa)
#
#
# Indices 1 2 3 4 5 6 
#
# 1 45.2867 19.6070 37.6169 0.0000 0.0000 0.0000
# 2 19.6070 36.5445 1.5850 0.0000 0.0000 0.0000
# 3 37.6169 1.5850 104.5833 0.0000 0.0000 0.0000
# 4 0.0000 0.0000 0.0000 9.3602 0.0000 0.0000
# 5 0.0000 0.0000 0.0000 0.0000 27.2251 0.0000
# 6 0.0000 0.0000 0.0000 0.0000 0.0000 17.5618
#
#
#
# Elastic Compliance Matrix: (Units=1/GPa)
#
#
# Indices 1 2 3 4 5 6 
#
# 1 0.045802 -0.023875 -0.016112 0.000000 0.000000 0.000000
# 2 -0.023875 0.039827 0.007984 0.000000 0.000000 0.000000
# 3 -0.016112 0.007984 0.015236 0.000000 0.000000 0.000000
# 4 0.000000 0.000000 0.000000 0.106835 0.000000 0.000000
# 5 0.000000 0.000000 0.000000 0.000000 0.036731 0.000000
# 6 0.000000 0.000000 0.000000 0.000000 0.000000 0.056942
#
#
# Mechanical properties :
#
#
# Convention : Reuss Voigt Hill
#
# Bulk Modulus (GPa) = 27.13106 33.78135 30.45621
# Shear Modulus (GPa) = 13.23926 19.33649 16.28787
#
# Velocity S-wave (km/s) = 2.90726 3.51350 3.22466
# Velocity P-wave (km/s) = 5.34700 6.16653 5.77133
#
# Compressibility (1/GPa) = 0.03685812
#
# Stress axis : x y z
#
# Youngs Moduli (GPa) = 21.83327 25.10861 65.63376
#
# Poissons Ratio (x) = 0.59946 1.05751
# Poissons Ratio (y) = 0.52127 -0.52400
# Poissons Ratio (z) = 0.35178 -0.20046
#
# Static dielectric constant tensor:
#      x y z
#    x 1.521870 0.000000 0.000000 
#    y 0.000000 1.527640 0.000000 
#    z 0.000000 0.000000 1.505820 
# 
# From -- ./inp_files/40780.got.cif
#   From: 2010.05.17/outbox.cif.g08.bks.cpg/sg67_21_cif.got.tgz:40780.got - 2010.06.03 18:28:57.
