data_PCOD9502730
_publ_section_title
;
Structure prediction by ZEFSAII (Michael W. Deem and Ramdas Pophale) SiO2 
 PCOD9502730
Probable space group: C M M A
;
_chemical_formula_sum "Si O2"
_cell_formula_units_Z 96
_cell_length_a 14.740756
_cell_length_b 18.372929
_cell_length_c 20.189212
_cell_angle_alpha 90.000000
_cell_angle_beta 90.000000
_cell_angle_gamma 90.000000
_cell_volume 5467.861717
_symmetry_space_group_name_H-M "C M M A"
_symmetry_group_IT_number 67
_symmetry_cell_setting 'orthorhombic'
loop_
_space_group_symop_operation_xyz
x,y,z
-x,1/2-y,z
x,-y,-z
-x,1/2+y,-z
-x,-y,-z
x,1/2+y,-z
-x,y,z
x,1/2-y,z
1/2+x,1/2+y,z
1/2-x,-y,z
1/2+x,1/2-y,-z
1/2-x,y,-z
1/2-x,1/2-y,-z
1/2+x,y,-z
1/2-x,1/2+y,z
1/2+x,-y,z
loop_
_atom_site_type_symbol
_atom_site_label
_atom_site_fract_x
_atom_site_fract_y
_atom_site_fract_z
Si Si1 0.836630 0.668466 0.546678
Si Si2 0.500000 0.013198 0.184679
Si Si3 0.000000 0.484296 0.658792
Si Si4 0.709942 0.663976 0.929800
Si Si5 0.816667 0.569130 0.667945
Si Si6 0.186779 0.070333 0.181183
Si Si7 0.500000 0.916345 0.522989
Si Si8 0.500000 0.164386 0.105790
O O1 0.870827 0.750000 0.560042
O O2 0.750000 0.671956 0.500000
O O3 0.802888 0.630506 0.613809
O O4 0.912888 0.622842 0.508104
O O5 0.500000 0.032954 0.263010
O O6 0.500000 0.092741 0.151845
O O7 0.412790 0.963304 0.166998
O O8 0.087013 0.534421 0.650173
O O9 0.000000 0.421260 0.603435
O O10 0.728405 0.750000 0.923570
O O11 0.764984 0.623518 0.871196
O O12 0.599683 0.656508 0.928697
O O13 0.750000 0.638093 0.000000
O O14 0.750000 0.500000 0.663391
O O15 0.815494 0.598879 0.743067
O O16 0.250000 0.000000 0.183048
O O17 0.500000 0.000000 0.500000
O O18 0.500000 0.250000 0.130670
#
# Coordination Sequence:
#
# PCOD9502730 Si02
#       8
#    16   8   8  16  16  16   8   8
#     4  11  24  38  54  84 119 147 189 248 297 348
#     4  10  20  37  58  88 121 144 195 250 287 350
#     4  10  20  34  56  86 108 145 200 238 283 340
#     4  10  22  40  61  87 121 161 201 238 291 358
#     4  10  20  35  58  81 110 154 194 235 290 356
#     4  10  20  36  58  87 118 150 193 249 294 346
#     4  12  21  36  62  81 105 157 199 236 289 354
#     4  10  20  39  63  85 117 160 193 235 291 341
#
# _framework density 17.557137999999998
#
# number of rings (size 3 to 8) (size 9 to 14) (size 15 to 20)
#    0.000    1.667    3.333    1.250    0.000    1.667 
#    0.000    2.917    0.000    3.000    0.000    0.000 
#    0.000    0.000    0.000    0.000    0.000    0.000 
#
# Total GULP energy -267273.971275 kJ/mol
# GULP energy per Si atom -5568.207735 kJ/mol
# Density = 1.751718 g / cm^3
# Si number density = 17.557138 Si / 1000 Ang^3
#
#
#
# Elastic Constant Matrix: (Units=GPa)
#
#
# Indices 1 2 3 4 5 6 
#
# 1 127.5584 38.2500 47.4761 0.0000 0.0000 0.0000
# 2 38.2500 91.6056 62.3679 0.0000 0.0000 0.0000
# 3 47.4761 62.3679 130.5515 0.0000 0.0000 0.0000
# 4 0.0000 0.0000 0.0000 58.9874 0.0000 0.0000
# 5 0.0000 0.0000 0.0000 0.0000 22.4583 0.0000
# 6 0.0000 0.0000 0.0000 0.0000 0.0000 27.6538
#
#
#
# Elastic Compliance Matrix: (Units=1/GPa)
#
#
# Indices 1 2 3 4 5 6 
#
# 1 0.009401 -0.002368 -0.002287 0.000000 0.000000 0.000000
# 2 -0.002368 0.016775 -0.007153 0.000000 0.000000 0.000000
# 3 -0.002287 -0.007153 0.011909 0.000000 0.000000 0.000000
# 4 0.000000 0.000000 0.000000 0.016953 0.000000 0.000000
# 5 0.000000 0.000000 0.000000 0.000000 0.044527 0.000000
# 6 0.000000 0.000000 0.000000 0.000000 0.000000 0.036161
#
#
# Mechanical properties :
#
#
# Convention : Reuss Voigt Hill
#
# Bulk Modulus (GPa) = 69.11681 71.76706 70.44194
# Shear Modulus (GPa) = 30.45720 35.26132 32.85926
#
# Velocity S-wave (km/s) = 4.16955 4.48635 4.33085
# Velocity P-wave (km/s) = 7.91407 8.23417 8.07570
#
# Compressibility (1/GPa) = 0.01446826
#
# Stress axis : x y z
#
# Youngs Moduli (GPa) = 106.37156 59.61299 83.97227
#
# Poissons Ratio (x) = 0.14116 0.19209
# Poissons Ratio (y) = 0.25189 0.60062
# Poissons Ratio (z) = 0.24332 0.42639
#
# Static dielectric constant tensor:
#      x y z
#    x 1.633100 0.000000 0.000000 
#    y 0.000000 1.580430 0.000000 
#    z 0.000000 0.000000 1.633150 
# 
# From -- ./inp_files/38561.got.cif
#   From: 2010.05.17/outbox.cif.g08.bks.cpg/sg67_20_cif.got.tgz:38561.got - 2010.06.03 18:28:57.
