data_PCOD9502479
_publ_section_title
;
Structure prediction by ZEFSAII (Michael W. Deem and Ramdas Pophale) SiO2 
 PCOD9502479
Probable space group: C M M A
;
_chemical_formula_sum "Si O2"
_cell_formula_units_Z 80
_cell_length_a 8.718396
_cell_length_b 19.548678
_cell_length_c 26.793334
_cell_angle_alpha 90.000000
_cell_angle_beta 90.000000
_cell_angle_gamma 90.000000
_cell_volume 4566.471404
_symmetry_space_group_name_H-M "C M M A"
_symmetry_group_IT_number 67
_symmetry_cell_setting 'orthorhombic'
loop_
_space_group_symop_operation_xyz
x,y,z
-x,1/2-y,z
x,-y,-z
-x,1/2+y,-z
-x,-y,-z
x,1/2+y,-z
-x,y,z
x,1/2-y,z
1/2+x,1/2+y,z
1/2-x,-y,z
1/2+x,1/2-y,-z
1/2-x,y,-z
1/2-x,1/2-y,-z
1/2+x,y,-z
1/2-x,1/2+y,z
1/2+x,-y,z
loop_
_atom_site_type_symbol
_atom_site_label
_atom_site_fract_x
_atom_site_fract_y
_atom_site_fract_z
Si Si1 0.177960 0.666957 0.751089
Si Si2 0.684178 0.828552 0.855227
Si Si3 0.314914 0.423725 0.053190
Si Si4 0.314304 0.169344 0.640557
Si Si5 0.183313 0.424002 0.553476
O O1 0.184533 0.750000 0.750057
O O2 0.263869 0.644953 0.801014
O O3 0.234958 0.645676 0.696263
O O4 0.000000 0.647389 0.755433
O O5 0.500000 0.827024 0.855799
O O6 0.739475 0.750000 0.860955
O O7 0.734130 0.875501 0.901155
O O8 0.500000 0.426124 0.050957
O O9 0.250000 0.500000 0.060640
O O10 0.250000 0.398971 0.000000
O O11 0.500000 0.163261 0.638405
O O12 0.278024 0.250000 0.635118
O O13 0.238236 0.125468 0.597372
O O14 0.250000 0.500000 0.562161
O O15 0.250000 0.400722 0.500000
O O16 0.000000 0.427148 0.550841
#
# Coordination Sequence:
#
# PCOD9502479 Si02
#       5
#    16  16  16  16  16
#     4   8  15  29  50  75 102 132 163 198 244 293
#     4   9  18  32  50  73 100 128 161 202 244 288
#     4  10  20  34  51  70  95 128 163 200 245 293
#     4   9  18  34  55  79 107 136 169 210 252 297
#     4  11  22  37  56  76 102 136 173 211 256 306
#
# _framework density 17.518998
#
# number of rings (size 3 to 8) (size 9 to 14) (size 15 to 20)
#    0.000    2.600    0.000    4.800    0.000    3.600 
#    0.000    3.000    0.000    2.400    0.000    0.000 
#    0.000    0.000    0.000    0.000    0.000    0.000 
#
# Total GULP energy -222992.680694 kJ/mol
# GULP energy per Si atom -5574.817017 kJ/mol
# Density = 1.747912 g / cm^3
# Si number density = 17.518998 Si / 1000 Ang^3
#
#
#
# Elastic Constant Matrix: (Units=GPa)
#
#
# Indices 1 2 3 4 5 6 
#
# 1 57.2486 31.3187 59.0606 0.0000 0.0000 0.0000
# 2 31.3187 49.8139 85.0577 0.0000 0.0000 0.0000
# 3 59.0606 85.0577 211.9439 0.0000 0.0000 0.0000
# 4 0.0000 0.0000 0.0000 -77.2048 0.0000 0.0000
# 5 0.0000 0.0000 0.0000 0.0000 32.9078 0.0000
# 6 0.0000 0.0000 0.0000 0.0000 0.0000 19.6928
#
#
#
# Elastic Compliance Matrix: (Units=1/GPa)
#
#
# Indices 1 2 3 4 5 6 
#
# 1 0.026961 -0.013097 -0.002257 0.000000 0.000000 0.000000
# 2 -0.013097 0.070144 -0.024501 0.000000 0.000000 0.000000
# 3 -0.002257 -0.024501 0.015180 0.000000 0.000000 0.000000
# 4 0.000000 0.000000 0.000000 -0.012953 0.000000 0.000000
# 5 0.000000 0.000000 0.000000 0.000000 0.030388 0.000000
# 6 0.000000 0.000000 0.000000 0.000000 0.000000 0.050780
#
#
# Mechanical properties :
#
#
# Convention : Reuss Voigt Hill
#
# Bulk Modulus (GPa) = 30.69791 74.43115 52.56453
# Shear Modulus (GPa) = 18.44550 4.65044 11.54797
#
# Velocity S-wave (km/s) = 3.24834 1.63104 2.57021
# Velocity P-wave (km/s) = 5.62402 6.79156 6.23518
#
# Compressibility (1/GPa) = 0.03257550
#
# Stress axis : x y z
#
# Youngs Moduli (GPa) = 37.09066 14.25629 65.87713
#
# Poissons Ratio (x) = 0.18672 0.14867
# Poissons Ratio (y) = 0.48579 1.61404
# Poissons Ratio (z) = 0.08370 0.34929
#
# Static dielectric constant tensor:
#      x y z
#    x 1.593310 0.000000 0.000000 
#    y 0.000000 1.579690 0.000000 
#    z 0.000000 0.000000 1.604460 
# 
# From -- ./inp_files/43286.got.cif
#   From: 2010.05.17/outbox.cif.g08.bks.cpg/sg67_22_cif.got.tgz:43286.got - 2010.06.03 18:28:57.
