data_PCOD9502188
_publ_section_title
;
Structure prediction by ZEFSAII (Michael W. Deem and Ramdas Pophale) SiO2 
 PCOD9502188
Probable space group: C M M A
;
_chemical_formula_sum "Si O2"
_cell_formula_units_Z 72
_cell_length_a 9.190872
_cell_length_b 15.261789
_cell_length_c 25.939467
_cell_angle_alpha 90.000000
_cell_angle_beta 90.000000
_cell_angle_gamma 90.000000
_cell_volume 3638.506967
_symmetry_space_group_name_H-M "C M M A"
_symmetry_group_IT_number 67
_symmetry_cell_setting 'orthorhombic'
loop_
_space_group_symop_operation_xyz
x,y,z
-x,1/2-y,z
x,-y,-z
-x,1/2+y,-z
-x,-y,-z
x,1/2+y,-z
-x,y,z
x,1/2-y,z
1/2+x,1/2+y,z
1/2-x,-y,z
1/2+x,1/2-y,-z
1/2-x,y,-z
1/2-x,1/2-y,-z
1/2+x,y,-z
1/2-x,1/2+y,z
1/2+x,-y,z
loop_
_atom_site_type_symbol
_atom_site_label
_atom_site_fract_x
_atom_site_fract_y
_atom_site_fract_z
Si Si1 0.825935 0.905829 0.868478
Si Si2 0.337288 0.353013 0.347968
Si Si3 0.675929 0.250000 0.944599
Si Si4 0.826080 0.594378 0.753277
Si Si5 0.333120 0.857466 0.448111
O O1 0.782528 0.835745 0.911462
O O2 0.796995 0.869016 0.810700
O O3 0.000000 0.918866 0.871586
O O4 0.750000 0.000000 0.874399
O O5 0.500000 0.391186 0.342497
O O6 0.353123 0.250000 0.358408
O O7 0.246809 0.360222 0.295472
O O8 0.250170 0.388928 0.397009
O O9 0.500000 0.250000 0.949495
O O10 0.750000 0.250000 0.000000
O O11 0.750000 0.500000 0.754131
O O12 0.000000 0.589355 0.746631
O O13 0.500000 0.886613 0.448356
O O14 0.335016 0.750000 0.447477
O O15 0.250000 0.883649 0.500000
#
# Coordination Sequence:
#
# PCOD9502188 Si02
#       5
#    16  16   8  16  16
#     4   9  20  38  60  84 116 153 194 238 288 343
#     4  10  20  32  48  75 107 137 175 224 272 324
#     4  10  22  40  60  88 120 156 195 238 285 338
#     4  10  20  35  56  78 105 141 179 222 274 332
#     4   9  16  27  44  67  97 134 175 220 272 327
#
# _framework density 19.788336999999999
#
# number of rings (size 3 to 8) (size 9 to 14) (size 15 to 20)
#    0.000    2.444    0.000    2.000    1.556    6.222 
#    0.000    2.222    0.000    0.667    0.000    4.667 
#    0.000    0.000    0.000    0.000    0.000    0.000 
#
# Total GULP energy -200879.707524 kJ/mol
# GULP energy per Si atom -5579.991876 kJ/mol
# Density = 1.974330 g / cm^3
# Si number density = 19.788337 Si / 1000 Ang^3
#
#
#
# Elastic Constant Matrix: (Units=GPa)
#
#
# Indices 1 2 3 4 5 6 
#
# 1 132.1785 30.5184 101.8224 0.0000 0.0000 0.0000
# 2 30.5184 50.8447 52.9798 0.0000 0.0000 0.0000
# 3 101.8224 52.9798 204.9900 0.0000 0.0000 0.0000
# 4 0.0000 0.0000 0.0000 26.7690 0.0000 0.0000
# 5 0.0000 0.0000 0.0000 0.0000 31.4785 0.0000
# 6 0.0000 0.0000 0.0000 0.0000 0.0000 20.8794
#
#
#
# Elastic Compliance Matrix: (Units=1/GPa)
#
#
# Indices 1 2 3 4 5 6 
#
# 1 0.012326 -0.001394 -0.005762 0.000000 0.000000 0.000000
# 2 -0.001394 0.027074 -0.006305 0.000000 0.000000 0.000000
# 3 -0.005762 -0.006305 0.009370 0.000000 0.000000 0.000000
# 4 0.000000 0.000000 0.000000 0.037357 0.000000 0.000000
# 5 0.000000 0.000000 0.000000 0.000000 0.031768 0.000000
# 6 0.000000 0.000000 0.000000 0.000000 0.000000 0.047894
#
#
# Mechanical properties :
#
#
# Convention : Reuss Voigt Hill
#
# Bulk Modulus (GPa) = 45.77138 84.29493 65.03316
# Shear Modulus (GPa) = 25.00068 29.33823 27.16946
#
# Velocity S-wave (km/s) = 3.55830 3.85463 3.70943
# Velocity P-wave (km/s) = 6.32951 7.90580 7.16116
#
# Compressibility (1/GPa) = 0.02184771
#
# Stress axis : x y z
#
# Youngs Moduli (GPa) = 81.12606 36.93565 106.72267
#
# Poissons Ratio (x) = 0.05150 0.61498
# Poissons Ratio (y) = 0.11311 0.67286
# Poissons Ratio (z) = 0.46749 0.23287
#
# Static dielectric constant tensor:
#      x y z
#    x 1.678120 0.000000 0.000000 
#    y 0.000000 1.759130 0.000000 
#    z 0.000000 0.000000 1.693510 
# 
# From -- ./inp_files/40510.got.cif
#   From: 2010.05.17/outbox.cif.g08.bks.cpg/sg67_21_cif.got.tgz:40510.got - 2010.06.03 18:28:57.
