data_PCOD9502490
_publ_section_title
;
Structure prediction by ZEFSAII (Michael W. Deem and Ramdas Pophale) SiO2 
 PCOD9502490
Probable space group: C M M A
;
_chemical_formula_sum "Si O2"
_cell_formula_units_Z 112
_cell_length_a 28.815003
_cell_length_b 14.776181
_cell_length_c 11.685859
_cell_angle_alpha 90.000000
_cell_angle_beta 90.000000
_cell_angle_gamma 90.000000
_cell_volume 4975.554794
_symmetry_space_group_name_H-M "C M M A"
_symmetry_group_IT_number 67
_symmetry_cell_setting 'orthorhombic'
loop_
_space_group_symop_operation_xyz
x,y,z
-x,1/2-y,z
x,-y,-z
-x,1/2+y,-z
-x,-y,-z
x,1/2+y,-z
-x,y,z
x,1/2-y,z
1/2+x,1/2+y,z
1/2-x,-y,z
1/2+x,1/2-y,-z
1/2-x,y,-z
1/2-x,1/2-y,-z
1/2+x,y,-z
1/2-x,1/2+y,z
1/2+x,-y,z
loop_
_atom_site_type_symbol
_atom_site_label
_atom_site_fract_x
_atom_site_fract_y
_atom_site_fract_z
Si Si1 0.353625 0.094597 0.257827
Si Si2 0.854626 0.397631 0.997044
Si Si3 0.550895 0.359762 0.897246
Si Si4 0.739964 0.608980 0.626333
Si Si5 0.329527 0.119221 0.757527
Si Si6 0.575552 0.148044 0.647143
Si Si7 0.446721 0.860271 0.607768
O O1 0.349164 0.136966 0.131291
O O2 0.312395 0.129989 0.338035
O O3 0.404573 0.105852 0.312240
O O4 0.340944 0.988391 0.244432
O O5 0.835535 0.500000 0.000000
O O6 0.909284 0.399042 0.024297
O O7 0.835378 0.350828 0.111126
O O8 0.500000 0.380735 0.940090
O O9 0.556588 0.250000 0.895052
O O10 0.556400 0.392838 0.765724
O O11 0.750000 0.500000 0.624702
O O12 0.750000 0.642566 0.500000
O O13 0.778828 0.641967 0.713797
O O14 0.369505 0.153433 0.672111
O O15 0.556339 0.250000 0.643374
O O16 0.563556 0.108714 0.523564
O O17 0.500000 0.885469 0.638169
O O18 0.444192 0.750000 0.610410
#
# Coordination Sequence:
#
# PCOD9502490 Si02
#       7
#    16  16  16  16  16  16  16
#     4  10  20  34  51  74 104 136 172 209 248 302
#     4   9  19  33  48  70 100 131 166 208 249 292
#     4   9  17  30  50  72  93 126 171 211 249 298
#     4   9  17  30  52  78 102 130 164 206 255 304
#     4   9  18  34  54  76 102 132 167 209 256 301
#     4   9  17  32  53  75 100 129 166 212 258 306
#     4  10  21  36  53  74 104 140 172 208 257 306
#
# _framework density 22.510052999999999
#
# number of rings (size 3 to 8) (size 9 to 14) (size 15 to 20)
#    0.000    2.714    0.000    1.286    0.000    5.429 
#    0.000   12.143    0.000    2.571    0.000    5.000 
#    0.000    0.000    0.000    0.000    0.000    0.000 
#
# Total GULP energy -312403.128377 kJ/mol
# GULP energy per Si atom -5578.627292 kJ/mol
# Density = 2.245882 g / cm^3
# Si number density = 22.510053 Si / 1000 Ang^3
#
#
#
# Elastic Constant Matrix: (Units=GPa)
#
#
# Indices 1 2 3 4 5 6 
#
# 1 150.9199 8.4605 83.6205 0.0000 0.0000 0.0000
# 2 8.4605 64.7136 12.2352 0.0000 0.0000 0.0000
# 3 83.6205 12.2352 156.2685 0.0000 0.0000 0.0000
# 4 0.0000 0.0000 0.0000 -9.6074 0.0000 0.0000
# 5 0.0000 0.0000 0.0000 0.0000 11.0698 0.0000
# 6 0.0000 0.0000 0.0000 0.0000 0.0000 36.8052
#
#
#
# Elastic Compliance Matrix: (Units=1/GPa)
#
#
# Indices 1 2 3 4 5 6 
#
# 1 0.009424 -0.000283 -0.005020 0.000000 0.000000 0.000000
# 2 -0.000283 0.015693 -0.001077 0.000000 0.000000 0.000000
# 3 -0.005020 -0.001077 0.009170 0.000000 0.000000 0.000000
# 4 0.000000 0.000000 0.000000 -0.104086 0.000000 0.000000
# 5 0.000000 0.000000 0.000000 0.000000 0.090336 0.000000
# 6 0.000000 0.000000 0.000000 0.000000 0.000000 0.027170
#
#
# Mechanical properties :
#
#
# Convention : Reuss Voigt Hill
#
# Bulk Modulus (GPa) = 46.45617 64.50383 55.48000
# Shear Modulus (GPa) = 73.91659 25.49257 49.70458
#
# Velocity S-wave (km/s) = 5.73659 3.36891 4.70415
# Velocity P-wave (km/s) = 8.03497 6.62197 7.36245
#
# Compressibility (1/GPa) = 0.02152566
#
# Stress axis : x y z
#
# Youngs Moduli (GPa) = 106.11660 63.72119 109.05008
#
# Poissons Ratio (x) = 0.01802 0.54749
# Poissons Ratio (y) = 0.03001 0.11749
# Poissons Ratio (z) = 0.53276 0.06865
#
# Static dielectric constant tensor:
#      x y z
#    x 1.801340 0.000000 0.000000 
#    y 0.000000 1.960030 0.000000 
#    z 0.000000 0.000000 1.815630 
# 
# From -- ./inp_files/23142.got.cif
#   From: 2010.05.17/outbox.cif.g08.bks.cpg/sg67_12_cif.got.tgz:23142.got - 2010.06.03 18:28:57.
