data_PCOD9502831
_publ_section_title
;
Structure prediction by ZEFSAII (Michael W. Deem and Ramdas Pophale) SiO2 
 PCOD9502831
Probable space group: C M M A
;
_chemical_formula_sum "Si O2"
_cell_formula_units_Z 64
_cell_length_a 15.016476
_cell_length_b 10.693602
_cell_length_c 21.268321
_cell_angle_alpha 90.000000
_cell_angle_beta 90.000000
_cell_angle_gamma 90.000000
_cell_volume 3415.271618
_symmetry_space_group_name_H-M "C M M A"
_symmetry_group_IT_number 67
_symmetry_cell_setting 'orthorhombic'
loop_
_space_group_symop_operation_xyz
x,y,z
-x,1/2-y,z
x,-y,-z
-x,1/2+y,-z
-x,-y,-z
x,1/2+y,-z
-x,y,z
x,1/2-y,z
1/2+x,1/2+y,z
1/2-x,-y,z
1/2+x,1/2-y,-z
1/2-x,y,-z
1/2-x,1/2-y,-z
1/2+x,y,-z
1/2-x,1/2+y,z
1/2+x,-y,z
loop_
_atom_site_type_symbol
_atom_site_label
_atom_site_fract_x
_atom_site_fract_y
_atom_site_fract_z
Si Si1 0.698679 0.889381 0.066993
Si Si2 0.000000 0.900582 0.767030
Si Si3 0.892452 0.609944 0.546920
Si Si4 0.500000 0.599849 0.091039
Si Si5 0.323949 0.396668 0.689110
O O1 0.701856 0.750000 0.095819
O O2 0.595586 0.928932 0.060786
O O3 0.750000 0.000000 0.102716
O O4 0.750000 0.879089 0.000000
O O5 0.000000 0.950771 0.837882
O O6 0.911536 0.931408 0.728825
O O7 0.000000 0.750000 0.771856
O O8 0.864817 0.500000 0.500000
O O9 0.872403 0.750000 0.522357
O O10 0.849270 0.597161 0.615330
O O11 0.000000 0.602309 0.554702
O O12 0.500000 0.750000 0.092552
O O13 0.300677 0.250000 0.702446
O O14 0.250000 0.500000 0.702590
#
# Coordination Sequence:
#
# PCOD9502831 Si02
#       5
#    16   8  16   8  16
#     4   9  18  32  51  77 108 138 172 211 252 304
#     4   9  18  36  57  73  99 141 183 214 253 318
#     4   9  17  31  51  74 101 134 172 212 260 315
#     4   9  18  33  54  77 103 143 181 208 255 320
#     4  10  20  35  55  77 102 135 175 220 266 313
#
# _framework density 18.739356999999998
#
# number of rings (size 3 to 8) (size 9 to 14) (size 15 to 20)
#    0.000    2.750    1.250    0.000    0.000    4.500 
#    0.000    5.000    0.000    1.500    0.000    0.000 
#    0.000    0.000    0.000    0.000    0.000    0.000 
#
# Total GULP energy -178189.741034 kJ/mol
# GULP energy per Si atom -5568.429407 kJ/mol
# Density = 1.869671 g / cm^3
# Si number density = 18.739357 Si / 1000 Ang^3
#
#
#
# Elastic Constant Matrix: (Units=GPa)
#
#
# Indices 1 2 3 4 5 6 
#
# 1 159.2788 75.9314 47.7581 0.0000 0.0000 0.0000
# 2 75.9314 124.2181 36.8904 0.0000 0.0000 0.0000
# 3 47.7581 36.8904 71.7675 0.0000 0.0000 0.0000
# 4 0.0000 0.0000 0.0000 8.9413 0.0000 0.0000
# 5 0.0000 0.0000 0.0000 0.0000 -12.2017 0.0000
# 6 0.0000 0.0000 0.0000 0.0000 0.0000 30.8780
#
#
#
# Elastic Compliance Matrix: (Units=1/GPa)
#
#
# Indices 1 2 3 4 5 6 
#
# 1 0.009764 -0.004767 -0.004048 0.000000 0.000000 0.000000
# 2 -0.004767 0.011828 -0.002908 0.000000 0.000000 0.000000
# 3 -0.004048 -0.002908 0.018122 0.000000 0.000000 0.000000
# 4 0.000000 0.000000 0.000000 0.111840 0.000000 0.000000
# 5 0.000000 0.000000 0.000000 0.000000 -0.081956 0.000000
# 6 0.000000 0.000000 0.000000 0.000000 0.000000 0.032386
#
#
# Mechanical properties :
#
#
# Convention : Reuss Voigt Hill
#
# Bulk Modulus (GPa) = 61.46238 75.15826 68.31032
# Shear Modulus (GPa) = 38.21135 18.50247 28.35691
#
# Velocity S-wave (km/s) = 4.52053 3.14564 3.89424
# Velocity P-wave (km/s) = 7.75350 7.30668 7.53340
#
# Compressibility (1/GPa) = 0.01627012
#
# Stress axis : x y z
#
# Youngs Moduli (GPa) = 102.41448 84.54797 55.18159
#
# Poissons Ratio (x) = 0.40301 0.22335
# Poissons Ratio (y) = 0.48817 0.16045
# Poissons Ratio (z) = 0.41452 0.24584
#
# Static dielectric constant tensor:
#      x y z
#    x 1.670520 0.000000 0.000000 
#    y 0.000000 1.693380 0.000000 
#    z 0.000000 0.000000 1.659850 
# 
# From -- ./inp_files/32660.got.cif
#   From: 2010.05.17/outbox.cif.g08.bks.cpg/sg67_17_cif.got.tgz:32660.got - 2010.06.03 18:28:57.
