data_PCOD9502294
_publ_section_title
;
Structure prediction by ZEFSAII (Michael W. Deem and Ramdas Pophale) SiO2 
 PCOD9502294
Probable space group: C M M A
;
_chemical_formula_sum "Si O2"
_cell_formula_units_Z 88
_cell_length_a 7.889464
_cell_length_b 17.591153
_cell_length_c 30.995352
_cell_angle_alpha 90.000000
_cell_angle_beta 90.000000
_cell_angle_gamma 90.000000
_cell_volume 4301.682746
_symmetry_space_group_name_H-M "C M M A"
_symmetry_group_IT_number 67
_symmetry_cell_setting 'orthorhombic'
loop_
_space_group_symop_operation_xyz
x,y,z
-x,1/2-y,z
x,-y,-z
-x,1/2+y,-z
-x,-y,-z
x,1/2+y,-z
-x,y,z
x,1/2-y,z
1/2+x,1/2+y,z
1/2-x,-y,z
1/2+x,1/2-y,-z
1/2-x,y,-z
1/2-x,1/2-y,-z
1/2+x,y,-z
1/2-x,1/2+y,z
1/2+x,-y,z
loop_
_atom_site_type_symbol
_atom_site_label
_atom_site_fract_x
_atom_site_fract_y
_atom_site_fract_z
Si Si1 0.199793 0.250000 0.050047
Si Si2 0.706638 0.337031 0.278503
Si Si3 0.295952 0.163303 0.453945
Si Si4 0.795940 0.086963 0.633847
Si Si5 0.795990 0.414096 0.807959
Si Si6 0.701884 0.912105 0.905659
O O1 0.256457 0.332797 0.069525
O O2 0.000000 0.250000 0.054623
O O3 0.250000 0.250000 0.000000
O O4 0.500000 0.343918 0.277378
O O5 0.749114 0.250000 0.285131
O O6 0.768581 0.382024 0.320337
O O7 0.768018 0.363862 0.231629
O O8 0.500000 0.164533 0.451924
O O9 0.232477 0.250000 0.454836
O O10 0.250000 0.126709 0.500000
O O11 0.232154 0.126291 0.409865
O O12 0.000000 0.097043 0.634433
O O13 0.750000 0.000000 0.630979
O O14 0.750000 0.500000 0.796526
O O15 0.730145 0.401486 0.856581
O O16 0.000000 0.405330 0.810140
O O17 0.500000 0.914899 0.904417
O O18 0.750000 0.000000 0.920002
#
# Coordination Sequence:
#
# PCOD9502294 Si02
#       6
#     8  16  16  16  16  16
#     4  12  26  44  66  94 126 164 210 260 311 364
#     4   9  17  30  51  77 103 137 180 220 263 318
#     4   9  18  33  52  72  94 123 163 209 258 311
#     4  10  20  33  50  72  99 132 168 213 260 313
#     4   9  18  32  55  82 112 147 185 228 276 333
#     4  10  21  39  63  93 128 166 207 254 306 364
#
# _framework density 20.457111000000001
#
# number of rings (size 3 to 8) (size 9 to 14) (size 15 to 20)
#    0.000    2.364    0.000    2.455    1.273    4.364 
#    0.000    3.636    0.000    2.727    0.000    0.000 
#    0.000    0.000    0.000    0.000    0.000    0.000 
#
# Total GULP energy -245123.630542 kJ/mol
# GULP energy per Si atom -5570.991603 kJ/mol
# Density = 2.041055 g / cm^3
# Si number density = 20.457111 Si / 1000 Ang^3
#
#
#
# Elastic Constant Matrix: (Units=GPa)
#
#
# Indices 1 2 3 4 5 6 
#
# 1 35.8801 8.7379 9.8080 0.0000 0.0000 0.0000
# 2 8.7379 139.0210 93.0452 0.0000 0.0000 0.0000
# 3 9.8080 93.0452 129.6302 0.0000 0.0000 0.0000
# 4 0.0000 0.0000 0.0000 88.8789 0.0000 0.0000
# 5 0.0000 0.0000 0.0000 0.0000 13.2383 0.0000
# 6 0.0000 0.0000 0.0000 0.0000 0.0000 24.9502
#
#
#
# Elastic Compliance Matrix: (Units=1/GPa)
#
#
# Indices 1 2 3 4 5 6 
#
# 1 0.028492 -0.000670 -0.001675 0.000000 0.000000 0.000000
# 2 -0.000670 0.013859 -0.009897 0.000000 0.000000 0.000000
# 3 -0.001675 -0.009897 0.014945 0.000000 0.000000 0.000000
# 4 0.000000 0.000000 0.000000 0.011251 0.000000 0.000000
# 5 0.000000 0.000000 0.000000 0.000000 0.075539 0.000000
# 6 0.000000 0.000000 0.000000 0.000000 0.000000 0.040080
#
#
# Mechanical properties :
#
#
# Convention : Reuss Voigt Hill
#
# Bulk Modulus (GPa) = 30.47667 58.63482 44.55574
# Shear Modulus (GPa) = 22.77005 38.27616 30.52311
#
# Velocity S-wave (km/s) = 3.33988 4.33025 3.86690
# Velocity P-wave (km/s) = 5.45923 7.32980 6.46255
#
# Compressibility (1/GPa) = 0.03281199
#
# Stress axis : x y z
#
# Youngs Moduli (GPa) = 35.09811 72.15354 66.91230
#
# Poissons Ratio (x) = 0.04832 0.11208
# Poissons Ratio (y) = 0.02351 0.66224
# Poissons Ratio (z) = 0.05879 0.71412
#
# Static dielectric constant tensor:
#      x y z
#    x 1.764530 0.000000 0.000000 
#    y 0.000000 1.716770 0.000000 
#    z 0.000000 0.000000 1.752680 
# 
# From -- ./inp_files/45201.got.cif
#   From: 2010.05.17/outbox.cif.g08.bks.cpg/sg67_23_cif.got.tgz:45201.got - 2010.06.03 18:28:57.
