data_PCOD9502827
_publ_section_title
;
Structure prediction by ZEFSAII (Michael W. Deem and Ramdas Pophale) SiO2 
 PCOD9502827
Probable space group: C M M A
;
_chemical_formula_sum "Si O2"
_cell_formula_units_Z 72
_cell_length_a 8.849417
_cell_length_b 16.899355
_cell_length_c 25.522362
_cell_angle_alpha 90.000000
_cell_angle_beta 90.000000
_cell_angle_gamma 90.000000
_cell_volume 3816.854930
_symmetry_space_group_name_H-M "C M M A"
_symmetry_group_IT_number 67
_symmetry_cell_setting 'orthorhombic'
loop_
_space_group_symop_operation_xyz
x,y,z
-x,1/2-y,z
x,-y,-z
-x,1/2+y,-z
-x,-y,-z
x,1/2+y,-z
-x,y,z
x,1/2-y,z
1/2+x,1/2+y,z
1/2-x,-y,z
1/2+x,1/2-y,-z
1/2-x,y,-z
1/2-x,1/2-y,-z
1/2+x,y,-z
1/2-x,1/2+y,z
1/2+x,-y,z
loop_
_atom_site_type_symbol
_atom_site_label
_atom_site_fract_x
_atom_site_fract_y
_atom_site_fract_z
Si Si1 0.317443 0.587915 0.552691
Si Si2 0.830262 0.842788 0.336655
Si Si3 0.179533 0.084685 0.238946
Si Si4 0.182715 0.412545 0.118324
Si Si5 0.683029 0.250000 0.941986
O O1 0.500000 0.587652 0.549434
O O2 0.250000 0.500000 0.553430
O O3 0.250000 0.626998 0.500000
O O4 0.271022 0.624033 0.608410
O O5 0.841555 0.750000 0.343694
O O6 0.735530 0.859288 0.284871
O O7 0.000000 0.876176 0.328529
O O8 0.225493 0.103767 0.179141
O O9 0.000000 0.080524 0.239380
O O10 0.250000 0.000000 0.251446
O O11 0.250000 0.500000 0.103992
O O12 0.227953 0.333485 0.086059
O O13 0.000000 0.419344 0.114939
O O14 0.500000 0.250000 0.943059
O O15 0.750000 0.250000 0.000000
#
# Coordination Sequence:
#
# PCOD9502827 Si02
#       5
#    16  16  16  16   8
#     4  10  20  35  55  75  99 134 177 223 272 324
#     4  10  22  37  52  77 112 144 176 223 278 329
#     4  10  20  35  58  83 109 144 185 228 277 333
#     4   9  20  38  60  85 118 154 194 241 291 340
#     4  10  22  40  60  86 120 158 195 240 287 338
#
# _framework density 18.863699
#
# number of rings (size 3 to 8) (size 9 to 14) (size 15 to 20)
#    0.000    2.222    0.000    2.667    1.556    6.667 
#    0.000    2.222    0.000    0.000    0.000    0.000 
#    0.000    0.000    0.000    0.000    0.000    0.000 
#
# Total GULP energy -200613.209481 kJ/mol
# GULP energy per Si atom -5572.589152 kJ/mol
# Density = 1.882076 g / cm^3
# Si number density = 18.863699 Si / 1000 Ang^3
#
#
#
# Elastic Constant Matrix: (Units=GPa)
#
#
# Indices 1 2 3 4 5 6 
#
# 1 28.4691 23.6133 28.7307 0.0000 0.0000 0.0000
# 2 23.6133 111.7897 85.2106 0.0000 0.0000 0.0000
# 3 28.7307 85.2106 114.8586 0.0000 0.0000 0.0000
# 4 0.0000 0.0000 0.0000 59.3062 0.0000 0.0000
# 5 0.0000 0.0000 0.0000 0.0000 40.1178 0.0000
# 6 0.0000 0.0000 0.0000 0.0000 0.0000 22.8777
#
#
#
# Elastic Compliance Matrix: (Units=1/GPa)
#
#
# Indices 1 2 3 4 5 6 
#
# 1 0.047229 -0.002235 -0.010156 0.000000 0.000000 0.000000
# 2 -0.002235 0.020693 -0.014792 0.000000 0.000000 0.000000
# 3 -0.010156 -0.014792 0.022221 0.000000 0.000000 0.000000
# 4 0.000000 0.000000 0.000000 0.016862 0.000000 0.000000
# 5 0.000000 0.000000 0.000000 0.000000 0.024927 0.000000
# 6 0.000000 0.000000 0.000000 0.000000 0.000000 0.043711
#
#
# Mechanical properties :
#
#
# Convention : Reuss Voigt Hill
#
# Bulk Modulus (GPa) = 27.95167 58.91406 43.43287
# Shear Modulus (GPa) = 20.66691 32.29785 26.48238
#
# Velocity S-wave (km/s) = 3.31356 4.14233 3.75090
# Velocity P-wave (km/s) = 5.43042 7.36055 6.46789
#
# Compressibility (1/GPa) = 0.03577603
#
# Stress axis : x y z
#
# Youngs Moduli (GPa) = 21.17365 48.32585 45.00291
#
# Poissons Ratio (x) = 0.10801 0.45703
# Poissons Ratio (y) = 0.04732 0.66570
# Poissons Ratio (z) = 0.21503 0.71486
#
# Static dielectric constant tensor:
#      x y z
#    x 1.663080 0.000000 0.000000 
#    y 0.000000 1.629740 0.000000 
#    z 0.000000 0.000000 1.682820 
# 
# From -- ./inp_files/42115.got.cif
#   From: 2010.05.17/outbox.cif.g08.bks.cpg/sg67_22_cif.got.tgz:42115.got - 2010.06.03 18:28:57.
