data_PCOD9502848
_publ_section_title
;
Structure prediction by ZEFSAII (Michael W. Deem and Ramdas Pophale) SiO2 
 PCOD9502848
Probable space group: C M M A
;
_chemical_formula_sum "Si O2"
_cell_formula_units_Z 88
_cell_length_a 9.066970
_cell_length_b 16.117921
_cell_length_c 30.412753
_cell_angle_alpha 90.000000
_cell_angle_beta 90.000000
_cell_angle_gamma 90.000000
_cell_volume 4444.541200
_symmetry_space_group_name_H-M "C M M A"
_symmetry_group_IT_number 67
_symmetry_cell_setting 'orthorhombic'
loop_
_space_group_symop_operation_xyz
x,y,z
-x,1/2-y,z
x,-y,-z
-x,1/2+y,-z
-x,-y,-z
x,1/2+y,-z
-x,y,z
x,1/2-y,z
1/2+x,1/2+y,z
1/2-x,-y,z
1/2+x,1/2-y,-z
1/2-x,y,-z
1/2-x,1/2-y,-z
1/2+x,y,-z
1/2-x,1/2+y,z
1/2+x,-y,z
loop_
_atom_site_type_symbol
_atom_site_label
_atom_site_fract_x
_atom_site_fract_y
_atom_site_fract_z
Si Si1 0.668912 0.149749 0.866194
Si Si2 0.321716 0.750000 0.452224
Si Si3 0.829510 0.845939 0.694628
Si Si4 0.329812 0.851503 0.955232
Si Si5 0.175353 0.411242 0.778279
Si Si6 0.177653 0.085125 0.398365
O O1 0.500000 0.120174 0.862516
O O2 0.665946 0.250000 0.867083
O O3 0.743052 0.121399 0.911684
O O4 0.762310 0.122716 0.824212
O O5 0.500000 0.750000 0.455426
O O6 0.250000 0.750000 0.500000
O O7 0.278983 0.833540 0.425996
O O8 0.829200 0.750000 0.680480
O O9 0.729916 0.856980 0.737246
O O10 0.781289 0.899098 0.652685
O O11 0.000000 0.867333 0.705941
O O12 0.500000 0.877688 0.954164
O O13 0.328655 0.750000 0.955216
O O14 0.250000 0.878225 0.000000
O O15 0.250000 0.500000 0.771019
O O16 0.000000 0.416660 0.779621
O O17 0.000000 0.078892 0.399935
O O18 0.250000 0.000000 0.414184
#
# Coordination Sequence:
#
# PCOD9502848 Si02
#       6
#    16   8  16  16  16  16
#     4  10  20  35  55  79 108 143 183 229 284 344
#     4  10  22  42  64  90 126 168 212 260 315 370
#     4  10  20  38  63  88 118 156 194 239 297 359
#     4   9  16  27  46  74 106 139 178 227 281 337
#     4  12  25  39  55  79 112 149 190 237 287 346
#     4  10  21  39  63  91 125 165 208 256 310 369
#
# _framework density 19.799569000000002
#
# number of rings (size 3 to 8) (size 9 to 14) (size 15 to 20)
#    0.000    1.818    0.909    3.818    0.000    9.091 
#    0.000    1.818    0.000    0.545    0.000    3.818 
#    0.000    0.000    0.000    0.000    0.000    0.000 
#
# Total GULP energy -245875.502548 kJ/mol
# GULP energy per Si atom -5588.079603 kJ/mol
# Density = 1.975450 g / cm^3
# Si number density = 19.799569 Si / 1000 Ang^3
#
#
#
# Elastic Constant Matrix: (Units=GPa)
#
#
# Indices 1 2 3 4 5 6 
#
# 1 121.2965 29.7511 60.3501 0.0000 0.0000 0.0000
# 2 29.7511 80.3894 41.7027 0.0000 0.0000 0.0000
# 3 60.3501 41.7027 131.7620 0.0000 0.0000 0.0000
# 4 0.0000 0.0000 0.0000 -5.7931 0.0000 0.0000
# 5 0.0000 0.0000 0.0000 0.0000 34.2172 0.0000
# 6 0.0000 0.0000 0.0000 0.0000 0.0000 26.0512
#
#
#
# Elastic Compliance Matrix: (Units=1/GPa)
#
#
# Indices 1 2 3 4 5 6 
#
# 1 0.010874 -0.001724 -0.004435 0.000000 0.000000 0.000000
# 2 -0.001724 0.015156 -0.004008 0.000000 0.000000 0.000000
# 3 -0.004435 -0.004008 0.010889 0.000000 0.000000 0.000000
# 4 0.000000 0.000000 0.000000 -0.172620 0.000000 0.000000
# 5 0.000000 0.000000 0.000000 0.000000 0.029225 0.000000
# 6 0.000000 0.000000 0.000000 0.000000 0.000000 0.038386
#
#
# Mechanical properties :
#
#
# Convention : Reuss Voigt Hill
#
# Bulk Modulus (GPa) = 60.28802 66.33952 63.31377
# Shear Modulus (GPa) = -118.40225 24.33800 -47.03213
#
# Velocity S-wave (km/s) = -7.74146 3.50982 -4.87911
# Velocity P-wave (km/s) = 7.02792 7.07131 0.55304
#
# Compressibility (1/GPa) = 0.01658704
#
# Stress axis : x y z
#
# Youngs Moduli (GPa) = 91.96660 65.97941 91.83518
#
# Poissons Ratio (x) = 0.11372 0.40727
# Poissons Ratio (y) = 0.15851 0.36803
# Poissons Ratio (z) = 0.40786 0.26441
#
# Static dielectric constant tensor:
#      x y z
#    x 1.668530 0.000000 0.000000 
#    y 0.000000 1.728630 0.000000 
#    z 0.000000 0.000000 1.675210 
# 
# From -- ./inp_files/45227.got.cif
#   From: 2010.05.17/outbox.cif.g08.bks.cpg/sg67_23_cif.got.tgz:45227.got - 2010.06.03 18:28:57.
