data_PCOD9502377
_publ_section_title
;
Structure prediction by ZEFSAII (Michael W. Deem and Ramdas Pophale) SiO2 
 PCOD9502377
Probable space group: C M M A
;
_chemical_formula_sum "Si O2"
_cell_formula_units_Z 128
_cell_length_a 16.291140
_cell_length_b 24.590822
_cell_length_c 17.211813
_cell_angle_alpha 90.000000
_cell_angle_beta 90.000000
_cell_angle_gamma 90.000000
_cell_volume 6895.267847
_symmetry_space_group_name_H-M "C M M A"
_symmetry_group_IT_number 67
_symmetry_cell_setting 'orthorhombic'
loop_
_space_group_symop_operation_xyz
x,y,z
-x,1/2-y,z
x,-y,-z
-x,1/2+y,-z
-x,-y,-z
x,1/2+y,-z
-x,y,z
x,1/2-y,z
1/2+x,1/2+y,z
1/2-x,-y,z
1/2+x,1/2-y,-z
1/2-x,y,-z
1/2-x,1/2-y,-z
1/2+x,y,-z
1/2-x,1/2+y,z
1/2+x,-y,z
loop_
_atom_site_type_symbol
_atom_site_label
_atom_site_fract_x
_atom_site_fract_y
_atom_site_fract_z
Si Si1 0.599320 0.687004 0.758948
Si Si2 0.342973 0.018596 0.813017
Si Si3 0.403701 0.590037 0.863501
Si Si4 0.400488 0.189635 0.874021
Si Si5 0.341564 0.686206 0.592024
Si Si6 0.400846 0.916154 0.036303
Si Si7 0.144121 0.314306 0.420761
Si Si8 0.403836 0.620155 0.271855
O O1 0.500000 0.687740 0.761260
O O2 0.627085 0.750000 0.769248
O O3 0.630535 0.644362 0.823317
O O4 0.625807 0.665370 0.673985
O O5 0.364179 0.047542 0.895063
O O6 0.361056 0.063036 0.746796
O O7 0.250000 0.000000 0.811329
O O8 0.393949 0.962810 0.810034
O O9 0.500000 0.600504 0.876132
O O10 0.369842 0.575424 0.948905
O O11 0.500000 0.192922 0.870388
O O12 0.368088 0.250000 0.886190
O O13 0.382726 0.146095 0.940500
O O14 0.373066 0.163618 0.792389
O O15 0.363522 0.750000 0.592560
O O16 0.242887 0.682895 0.589222
O O17 0.374554 0.666417 0.508749
O O18 0.500000 0.925144 0.039318
O O19 0.121166 0.250000 0.411891
O O20 0.106773 0.352512 0.355219
O O21 0.500000 0.610982 0.256155
#
# Coordination Sequence:
#
# PCOD9502377 Si02
#       8
#    16  16  16  16  16  16  16  16
#     4   9  18  32  52  79 108 137 174 219 262 312
#     4  11  23  36  53  74  98 134 180 221 271 318
#     4  10  20  34  54  75  99 136 175 218 269 313
#     4   8  14  26  45  71 104 136 161 196 252 310
#     4   8  16  31  50  77 114 147 177 212 254 311
#     4   9  18  33  52  74 102 135 173 220 263 305
#     4   9  17  30  53  82 111 146 177 208 259 320
#     4  10  20  33  51  79 110 136 173 224 264 312
#
# _framework density 18.563455999999999
#
# number of rings (size 3 to 8) (size 9 to 14) (size 15 to 20)
#    0.000    2.750    0.000    3.375    1.750    3.750 
#    0.000    3.750    0.000    0.750    0.000    5.250 
#    0.000    0.000    0.000    0.000    0.000    0.000 
#
# Total GULP energy -356608.574183 kJ/mol
# GULP energy per Si atom -5572.008972 kJ/mol
# Density = 1.852120 g / cm^3
# Si number density = 18.563456 Si / 1000 Ang^3
#
#
#
# Elastic Constant Matrix: (Units=GPa)
#
#
# Indices 1 2 3 4 5 6 
#
# 1 24.3705 17.4135 16.4306 0.0000 0.0000 0.0000
# 2 17.4135 101.8886 27.9838 0.0000 0.0000 0.0000
# 3 16.4306 27.9838 62.4172 0.0000 0.0000 0.0000
# 4 0.0000 0.0000 0.0000 20.8925 0.0000 0.0000
# 5 0.0000 0.0000 0.0000 0.0000 19.3343 0.0000
# 6 0.0000 0.0000 0.0000 0.0000 0.0000 10.5915
#
#
#
# Elastic Compliance Matrix: (Units=1/GPa)
#
#
# Indices 1 2 3 4 5 6 
#
# 1 0.052867 -0.005945 -0.011251 0.000000 0.000000 0.000000
# 2 -0.005945 0.011861 -0.003753 0.000000 0.000000 0.000000
# 3 -0.011251 -0.003753 0.020665 0.000000 0.000000 0.000000
# 4 0.000000 0.000000 0.000000 0.047864 0.000000 0.000000
# 5 0.000000 0.000000 0.000000 0.000000 0.051721 0.000000
# 6 0.000000 0.000000 0.000000 0.000000 0.000000 0.094415
#
#
# Mechanical properties :
#
#
# Convention : Reuss Voigt Hill
#
# Bulk Modulus (GPa) = 22.99098 34.70356 28.84727
# Shear Modulus (GPa) = 14.89022 18.62023 16.75523
#
# Velocity S-wave (km/s) = 2.83525 3.17055 3.00758
# Velocity P-wave (km/s) = 4.80939 5.66906 5.25683
#
# Compressibility (1/GPa) = 0.04349531
#
# Stress axis : x y z
#
# Youngs Moduli (GPa) = 18.91549 84.30665 48.38985
#
# Poissons Ratio (x) = 0.50122 0.54444
# Poissons Ratio (y) = 0.11246 0.18160
# Poissons Ratio (z) = 0.21282 0.31639
#
# Static dielectric constant tensor:
#      x y z
#    x 1.673610 0.000000 0.000000 
#    y 0.000000 1.640240 0.000000 
#    z 0.000000 0.000000 1.666410 
# 
# From -- ./inp_files/34585.got.cif
#   From: 2010.05.17/outbox.cif.g08.bks.cpg/sg67_18_cif.got.tgz:34585.got - 2010.06.03 18:28:57.
