data_PCOD9502251
_publ_section_title
;
Structure prediction by ZEFSAII (Michael W. Deem and Ramdas Pophale) SiO2 
 PCOD9502251
Probable space group: C M M A
;
_chemical_formula_sum "Si O2"
_cell_formula_units_Z 116
_cell_length_a 7.313267
_cell_length_b 26.710290
_cell_length_c 26.869285
_cell_angle_alpha 90.000000
_cell_angle_beta 90.000000
_cell_angle_gamma 90.000000
_cell_volume 5248.632225
_symmetry_space_group_name_H-M "C M M A"
_symmetry_group_IT_number 67
_symmetry_cell_setting 'orthorhombic'
loop_
_space_group_symop_operation_xyz
x,y,z
-x,1/2-y,z
x,-y,-z
-x,1/2+y,-z
-x,-y,-z
x,1/2+y,-z
-x,y,z
x,1/2-y,z
1/2+x,1/2+y,z
1/2-x,-y,z
1/2+x,1/2-y,-z
1/2-x,y,-z
1/2-x,1/2-y,-z
1/2+x,y,-z
1/2-x,1/2+y,z
1/2+x,-y,z
loop_
_atom_site_type_symbol
_atom_site_label
_atom_site_fract_x
_atom_site_fract_y
_atom_site_fract_z
Si Si1 0.223038 0.343955 0.160112
Si Si2 0.222259 0.910656 0.690255
Si Si3 0.750000 0.000000 0.500000
Si Si4 0.716916 0.195239 0.559182
Si Si5 0.224164 0.919037 0.580680
Si Si6 0.216573 0.554222 0.795160
Si Si7 0.218145 0.806517 0.946294
Si Si8 0.777760 0.695392 0.732576
O O1 0.284354 0.400021 0.172376
O O2 0.287034 0.328296 0.105712
O O3 0.275371 0.312689 0.209422
O O4 0.000000 0.341750 0.159278
O O5 0.277227 0.931654 0.637151
O O6 0.286375 0.940760 0.738658
O O7 0.278875 0.852924 0.700770
O O8 0.000000 0.910324 0.689240
O O9 0.693077 0.957635 0.541127
O O10 0.500000 0.195204 0.569749
O O11 0.785794 0.250000 0.578207
O O12 0.750000 0.196314 0.500000
O O13 0.779225 0.139587 0.574730
O O14 0.000000 0.922152 0.574404
O O15 0.250000 0.500000 0.816293
O O16 0.000000 0.561470 0.791494
O O17 0.290972 0.750000 0.949813
O O18 0.000000 0.804096 0.941384
O O19 0.250000 0.831752 0.000000
O O20 0.717455 0.750000 0.715120
O O21 0.000000 0.694963 0.731529
#
# Coordination Sequence:
#
# PCOD9502251 Si02
#       8
#    16  16   4  16  16  16  16  16
#     4   8  14  25  41  63  90 120 149 182 225 269
#     4   8  16  28  42  63  90 114 139 181 226 267
#     4  12  22  32  46  62  84 128 154 186 224 276
#     4   9  17  31  50  69  89 114 145 183 223 265
#     4  10  20  33  46  65  90 117 153 188 227 276
#     4   9  17  30  48  67  88 115 148 187 230 272
#     4   9  16  26  42  65  94 125 155 185 220 266
#     4   8  12  20  38  64  90 113 140 175 223 277
#
# _framework density 22.100995000000001
#
# number of rings (size 3 to 8) (size 9 to 14) (size 15 to 20)
#    0.000    3.172    0.690    2.276    0.966    2.207 
#    0.000    3.448    0.000    1.241    0.000    2.897 
#    0.000    4.966    0.000    1.655    0.000    0.000 
#
# Total GULP energy -323111.843011 kJ/mol
# GULP energy per Si atom -5570.893845 kJ/mol
# Density = 2.205069 g / cm^3
# Si number density = 22.100995 Si / 1000 Ang^3
#
#
#
# Elastic Constant Matrix: (Units=GPa)
#
#
# Indices 1 2 3 4 5 6 
#
# 1 94.1306 2.9374 5.7344 0.0000 0.0000 0.0000
# 2 2.9374 121.8597 38.9965 0.0000 0.0000 0.0000
# 3 5.7344 38.9965 152.2729 0.0000 0.0000 0.0000
# 4 0.0000 0.0000 0.0000 -6.4897 0.0000 0.0000
# 5 0.0000 0.0000 0.0000 0.0000 -21.0362 0.0000
# 6 0.0000 0.0000 0.0000 0.0000 0.0000 -16.8506
#
#
#
# Elastic Compliance Matrix: (Units=1/GPa)
#
#
# Indices 1 2 3 4 5 6 
#
# 1 0.010650 -0.000140 -0.000365 0.000000 0.000000 0.000000
# 2 -0.000140 0.008941 -0.002284 0.000000 0.000000 0.000000
# 3 -0.000365 -0.002284 0.007166 0.000000 0.000000 0.000000
# 4 0.000000 0.000000 0.000000 -0.154090 0.000000 0.000000
# 5 0.000000 0.000000 0.000000 0.000000 -0.047537 0.000000
# 6 0.000000 0.000000 0.000000 0.000000 0.000000 -0.059345
#
#
# Mechanical properties :
#
#
# Convention : Reuss Voigt Hill
#
# Bulk Modulus (GPa) = 47.21949 51.51110 49.36530
# Shear Modulus (GPa) = -22.56545 12.49768 -5.03389
#
# Velocity S-wave (km/s) = -3.19880 2.38056 -1.51083
# Velocity P-wave (km/s) = 2.78722 5.56002 4.39787
#
# Compressibility (1/GPa) = 0.02117770
#
# Stress axis : x y z
#
# Youngs Moduli (GPa) = 93.89534 111.84981 139.54916
#
# Poissons Ratio (x) = 0.01564 0.05097
# Poissons Ratio (y) = 0.01313 0.31878
# Poissons Ratio (z) = 0.03430 0.25551
#
# Static dielectric constant tensor:
#      x y z
#    x 1.802330 0.000000 0.000000 
#    y 0.000000 1.843830 0.000000 
#    z 0.000000 0.000000 1.776700 
# 
# From -- ./inp_files/43873.got.cif
#   From: 2010.05.17/outbox.cif.g08.bks.cpg/sg67_22_cif.got.tgz:43873.got - 2010.06.03 18:28:57.
