data_PCOD9502078
_publ_section_title
;
Structure prediction by ZEFSAII (Michael W. Deem and Ramdas Pophale) SiO2 
 PCOD9502078
Probable space group: C M M A
;
_chemical_formula_sum "Si O2"
_cell_formula_units_Z 80
_cell_length_a 17.337643
_cell_length_b 25.088965
_cell_length_c 10.247942
_cell_angle_alpha 90.000000
_cell_angle_beta 90.000000
_cell_angle_gamma 90.000000
_cell_volume 4457.685868
_symmetry_space_group_name_H-M "C M M A"
_symmetry_group_IT_number 67
_symmetry_cell_setting 'orthorhombic'
loop_
_space_group_symop_operation_xyz
x,y,z
-x,1/2-y,z
x,-y,-z
-x,1/2+y,-z
-x,-y,-z
x,1/2+y,-z
-x,y,z
x,1/2-y,z
1/2+x,1/2+y,z
1/2-x,-y,z
1/2+x,1/2-y,-z
1/2-x,y,-z
1/2-x,1/2-y,-z
1/2+x,y,-z
1/2-x,1/2+y,z
1/2+x,-y,z
loop_
_atom_site_type_symbol
_atom_site_label
_atom_site_fract_x
_atom_site_fract_y
_atom_site_fract_z
Si Si1 0.411764 0.973404 0.685806
Si Si2 0.195106 0.449098 0.191209
Si Si3 0.913092 0.910939 0.037542
Si Si4 0.301771 0.383199 0.375115
Si Si5 0.410016 0.188073 0.212887
O O1 0.500000 0.977450 0.643900
O O2 0.360046 0.932982 0.601868
O O3 0.368085 0.028730 0.706449
O O4 0.411857 0.946634 0.831236
O O5 0.250000 0.500000 0.165076
O O6 0.150580 0.429621 0.063789
O O7 0.246327 0.403859 0.258608
O O8 0.000000 0.915964 0.981937
O O9 0.900305 0.850886 0.088636
O O10 0.250000 0.371656 0.500000
O O11 0.353509 0.334796 0.323101
O O12 0.500000 0.181298 0.252870
O O13 0.396617 0.250000 0.185254
#
# Coordination Sequence:
#
# PCOD9502078 Si02
#       5
#    16  16  16  16  16
#     4   9  18  32  50  70  98 140 176 199 234 298
#     4  10  20  30  47  75 108 140 167 200 249 298
#     4   9  17  31  50  74 101 127 164 209 251 304
#     4  10  21  35  49  72 104 132 169 218 253 283
#     4   9  19  37  59  76  93 127 170 209 256 316
#
# _framework density 17.946532000000001
#
# number of rings (size 3 to 8) (size 9 to 14) (size 15 to 20)
#    0.000    2.600    0.000    3.000    0.000   16.800 
#    0.000    7.000    0.000    0.000    0.000    2.800 
#    0.000    0.000    0.000    0.000    0.000    0.000 
#
# Total GULP energy -223278.541784 kJ/mol
# GULP energy per Si atom -5581.963545 kJ/mol
# Density = 1.790568 g / cm^3
# Si number density = 17.946532 Si / 1000 Ang^3
#
#
#
# Elastic Constant Matrix: (Units=GPa)
#
#
# Indices 1 2 3 4 5 6 
#
# 1 116.6427 45.4201 47.0187 0.0000 0.0000 0.0000
# 2 45.4201 85.4292 34.8213 0.0000 0.0000 0.0000
# 3 47.0187 34.8213 78.7631 0.0000 0.0000 0.0000
# 4 0.0000 0.0000 0.0000 8.7612 0.0000 0.0000
# 5 0.0000 0.0000 0.0000 0.0000 9.8421 0.0000
# 6 0.0000 0.0000 0.0000 0.0000 0.0000 29.1332
#
#
#
# Elastic Compliance Matrix: (Units=1/GPa)
#
#
# Indices 1 2 3 4 5 6 
#
# 1 0.012514 -0.004402 -0.005525 0.000000 0.000000 0.000000
# 2 -0.004402 0.015827 -0.004369 0.000000 0.000000 0.000000
# 3 -0.005525 -0.004369 0.017926 0.000000 0.000000 0.000000
# 4 0.000000 0.000000 0.000000 0.114140 0.000000 0.000000
# 5 0.000000 0.000000 0.000000 0.000000 0.101604 0.000000
# 6 0.000000 0.000000 0.000000 0.000000 0.000000 0.034325
#
#
# Mechanical properties :
#
#
# Convention : Reuss Voigt Hill
#
# Bulk Modulus (GPa) = 56.57467 59.48392 58.02929
# Shear Modulus (GPa) = 15.11401 19.78564 17.44983
#
# Velocity S-wave (km/s) = 2.90516 3.32396 3.12159
# Velocity P-wave (km/s) = 6.54567 6.92450 6.73774
#
# Compressibility (1/GPa) = 0.01767576
#
# Stress axis : x y z
#
# Youngs Moduli (GPa) = 79.91018 63.18408 55.78493
#
# Poissons Ratio (x) = 0.27811 0.30818
# Poissons Ratio (y) = 0.35173 0.24375
# Poissons Ratio (z) = 0.44146 0.27608
#
# Static dielectric constant tensor:
#      x y z
#    x 1.657510 0.000000 0.000000 
#    y 0.000000 1.606740 0.000000 
#    z 0.000000 0.000000 1.619380 
# 
# From -- ./inp_files/9972.got.cif
#   From: 2010.05.17/outbox.cif.g08.bks.cpg/sg67_5_cif.got.tgz:9972.got - 2010.06.03 18:28:57.
