data_PCOD9502727
_publ_section_title
;
Structure prediction by ZEFSAII (Michael W. Deem and Ramdas Pophale) SiO2 
 PCOD9502727
Probable space group: C M M A
;
_chemical_formula_sum "Si O2"
_cell_formula_units_Z 64
_cell_length_a 19.926734
_cell_length_b 14.549552
_cell_length_c 9.828958
_cell_angle_alpha 90.000000
_cell_angle_beta 90.000000
_cell_angle_gamma 90.000000
_cell_volume 2849.661164
_symmetry_space_group_name_H-M "C M M A"
_symmetry_group_IT_number 67
_symmetry_cell_setting 'orthorhombic'
loop_
_space_group_symop_operation_xyz
x,y,z
-x,1/2-y,z
x,-y,-z
-x,1/2+y,-z
-x,-y,-z
x,1/2+y,-z
-x,y,z
x,1/2-y,z
1/2+x,1/2+y,z
1/2-x,-y,z
1/2+x,1/2-y,-z
1/2-x,y,-z
1/2-x,1/2-y,-z
1/2+x,y,-z
1/2-x,1/2+y,z
1/2+x,-y,z
loop_
_atom_site_type_symbol
_atom_site_label
_atom_site_fract_x
_atom_site_fract_y
_atom_site_fract_z
Si Si1 0.076033 0.362128 0.368869
Si Si2 0.079408 0.138547 0.061439
Si Si3 0.704192 0.591697 0.887853
Si Si4 0.685167 0.140544 0.422783
O O1 0.074706 0.250000 0.367711
O O2 0.121028 0.393758 0.493867
O O3 0.000000 0.394038 0.383600
O O4 0.099834 0.387635 0.216587
O O5 0.084937 0.250000 0.048719
O O6 0.130610 0.092985 0.956417
O O7 0.000000 0.116672 0.043110
O O8 0.750000 0.500000 0.869936
O O9 0.692240 0.626014 0.736590
O O10 0.750000 0.644938 0.000000
O O11 0.683853 0.250000 0.442344
O O12 0.750000 0.104000 0.500000
#
# Coordination Sequence:
#
# PCOD9502727 Si02
#       4
#    16  16  16  16
#     4   8  15  30  55  89 122 146 178 238 312 367
#     4   9  18  36  65  96 122 151 194 252 310 359
#     4  11  24  39  54  82 122 167 206 239 292 357
#     4  10  20  34  56  84 113 149 197 253 303 350
#
# _framework density 22.458811000000001
#
# number of rings (size 3 to 8) (size 9 to 14) (size 15 to 20)
#    0.000    2.500    0.000    3.750    0.000    5.500 
#    0.000    6.250    0.000    1.500    0.000   17.500 
#    0.000    0.000    0.000    0.000    0.000    1.000 
#
# Total GULP energy -178530.311775 kJ/mol
# GULP energy per Si atom -5579.072243 kJ/mol
# Density = 2.240769 g / cm^3
# Si number density = 22.458811 Si / 1000 Ang^3
#
#
#
# Elastic Constant Matrix: (Units=GPa)
#
#
# Indices 1 2 3 4 5 6 
#
# 1 136.3321 22.6180 105.2474 0.0000 0.0000 0.0000
# 2 22.6180 73.6258 14.1127 0.0000 0.0000 0.0000
# 3 105.2474 14.1127 200.3045 0.0000 0.0000 0.0000
# 4 0.0000 0.0000 0.0000 58.8272 0.0000 0.0000
# 5 0.0000 0.0000 0.0000 0.0000 50.3989 0.0000
# 6 0.0000 0.0000 0.0000 0.0000 0.0000 13.1871
#
#
#
# Elastic Compliance Matrix: (Units=1/GPa)
#
#
# Indices 1 2 3 4 5 6 
#
# 1 0.012845 -0.002689 -0.006560 0.000000 0.000000 0.000000
# 2 -0.002689 0.014331 0.000403 0.000000 0.000000 0.000000
# 3 -0.006560 0.000403 0.008411 0.000000 0.000000 0.000000
# 4 0.000000 0.000000 0.000000 0.016999 0.000000 0.000000
# 5 0.000000 0.000000 0.000000 0.000000 0.019842 0.000000
# 6 0.000000 0.000000 0.000000 0.000000 0.000000 0.075832
#
#
# Mechanical properties :
#
#
# Convention : Reuss Voigt Hill
#
# Bulk Modulus (GPa) = 55.87890 77.13540 66.50715
# Shear Modulus (GPa) = 29.08394 42.36826 35.72610
#
# Velocity S-wave (km/s) = 3.60250 4.34808 3.99273
# Velocity P-wave (km/s) = 6.49913 7.72189 7.13674
#
# Compressibility (1/GPa) = 0.01789584
#
# Stress axis : x y z
#
# Youngs Moduli (GPa) = 77.84913 69.77924 118.89387
#
# Poissons Ratio (x) = 0.18761 0.77994
# Poissons Ratio (y) = 0.20931 -0.04792
# Poissons Ratio (z) = 0.51069 -0.02812
#
# Static dielectric constant tensor:
#      x y z
#    x 1.781720 0.000000 0.000000 
#    y 0.000000 1.910860 0.000000 
#    z 0.000000 0.000000 1.817170 
# 
# From -- ./inp_files/10707.got.cif
#   From: 2010.05.17/outbox.cif.g08.bks.cpg/sg67_6_cif.got.tgz:10707.got - 2010.06.03 18:28:57.
