data_PCOD9502601
_publ_section_title
;
Structure prediction by ZEFSAII (Michael W. Deem and Ramdas Pophale) SiO2 
 PCOD9502601
Probable space group: C M M A
;
_chemical_formula_sum "Si O2"
_cell_formula_units_Z 96
_cell_length_a 8.989027
_cell_length_b 15.713454
_cell_length_c 32.440894
_cell_angle_alpha 90.000000
_cell_angle_beta 90.000000
_cell_angle_gamma 90.000000
_cell_volume 4582.232880
_symmetry_space_group_name_H-M "C M M A"
_symmetry_group_IT_number 67
_symmetry_cell_setting 'orthorhombic'
loop_
_space_group_symop_operation_xyz
x,y,z
-x,1/2-y,z
x,-y,-z
-x,1/2+y,-z
-x,-y,-z
x,1/2+y,-z
-x,y,z
x,1/2-y,z
1/2+x,1/2+y,z
1/2-x,-y,z
1/2+x,1/2-y,-z
1/2-x,y,-z
1/2-x,1/2-y,-z
1/2+x,y,-z
1/2-x,1/2+y,z
1/2+x,-y,z
loop_
_atom_site_type_symbol
_atom_site_label
_atom_site_fract_x
_atom_site_fract_y
_atom_site_fract_z
Si Si1 0.334048 0.648678 0.877837
Si Si2 0.170558 0.645556 0.796139
Si Si3 0.174634 0.146587 0.712959
Si Si4 0.676786 0.406708 0.540398
Si Si5 0.677274 0.593578 0.040715
Si Si6 0.831045 0.351541 0.622090
O O1 0.500000 0.613910 0.886140
O O2 0.346634 0.750000 0.872858
O O3 0.267435 0.615559 0.834941
O O4 0.226741 0.634261 0.916395
O O5 0.175068 0.750000 0.795981
O O6 0.233640 0.615880 0.752196
O O7 0.000000 0.620388 0.801460
O O8 0.187056 0.250000 0.713285
O O9 0.220378 0.116699 0.667152
O O10 0.000000 0.126964 0.717986
O O11 0.500000 0.410147 0.535583
O O12 0.750000 0.500000 0.541668
O O13 0.750000 0.363422 0.500000
O O14 0.724220 0.368392 0.584000
O O15 0.500000 0.590145 0.036430
O O16 0.750000 0.500000 0.042412
O O17 0.750000 0.635655 0.000000
O O18 0.842909 0.250000 0.625921
O O19 0.000000 0.384165 0.613848
#
# Coordination Sequence:
#
# PCOD9502601 Si02
#       6
#    16  16  16  16  16  16
#     4  10  20  34  53  78 107 138 174 215 258 302
#     4   9  16  26  43  70 103 136 170 209 252 299
#     4   8  14  26  45  69  99 135 169 202 245 298
#     4  11  22  37  56  75  99 132 171 211 254 307
#     4  11  22  38  58  78 103 135 173 212 255 309
#     4   9  18  33  53  78 107 136 169 210 254 299
#
# _framework density 20.950486000000001
#
# number of rings (size 3 to 8) (size 9 to 14) (size 15 to 20)
#    0.000    2.333    0.000    6.000    0.000    4.667 
#    0.000    1.667    0.000    1.000    0.000    2.333 
#    0.000    0.000    0.000    0.000    0.000    0.000 
#
# Total GULP energy -267833.244525 kJ/mol
# GULP energy per Si atom -5579.859261 kJ/mol
# Density = 2.090280 g / cm^3
# Si number density = 20.950486 Si / 1000 Ang^3
#
#
#
# Elastic Constant Matrix: (Units=GPa)
#
#
# Indices 1 2 3 4 5 6 
#
# 1 172.2989 7.1659 97.7559 0.0000 0.0000 0.0000
# 2 7.1659 11.9923 9.5066 0.0000 0.0000 0.0000
# 3 97.7559 9.5066 181.8824 0.0000 0.0000 0.0000
# 4 0.0000 0.0000 0.0000 34.3776 0.0000 0.0000
# 5 0.0000 0.0000 0.0000 0.0000 68.6866 0.0000
# 6 0.0000 0.0000 0.0000 0.0000 0.0000 14.8913
#
#
#
# Elastic Compliance Matrix: (Units=1/GPa)
#
#
# Indices 1 2 3 4 5 6 
#
# 1 0.008376 -0.001498 -0.004423 0.000000 0.000000 0.000000
# 2 -0.001498 0.087259 -0.003756 0.000000 0.000000 0.000000
# 3 -0.004423 -0.003756 0.008072 0.000000 0.000000 0.000000
# 4 0.000000 0.000000 0.000000 0.029089 0.000000 0.000000
# 5 0.000000 0.000000 0.000000 0.000000 0.014559 0.000000
# 6 0.000000 0.000000 0.000000 0.000000 0.000000 0.067153
#
#
# Mechanical properties :
#
#
# Convention : Reuss Voigt Hill
#
# Bulk Modulus (GPa) = 11.85505 66.11448 38.98477
# Shear Modulus (GPa) = 19.08545 40.37414 29.72979
#
# Velocity S-wave (km/s) = 3.02152 4.39466 3.77111
# Velocity P-wave (km/s) = 4.22417 7.57474 6.13271
#
# Compressibility (1/GPa) = 0.08435226
#
# Stress axis : x y z
#
# Youngs Moduli (GPa) = 119.39046 11.46010 123.88804
#
# Poissons Ratio (x) = 0.01717 0.54801
# Poissons Ratio (y) = 0.17889 0.46526
# Poissons Ratio (z) = 0.52812 0.04304
#
# Static dielectric constant tensor:
#      x y z
#    x 1.725420 0.000000 0.000000 
#    y 0.000000 1.806080 0.000000 
#    z 0.000000 0.000000 1.798310 
# 
# From -- ./inp_files/43508.got.cif
#   From: 2010.05.17/outbox.cif.g08.bks.cpg/sg67_22_cif.got.tgz:43508.got - 2010.06.03 18:28:57.
