data_PCOD9502059
_publ_section_title
;
Structure prediction by ZEFSAII (Michael W. Deem and Ramdas Pophale) SiO2 
 PCOD9502059
Probable space group: C M M A
;
_chemical_formula_sum "Si O2"
_cell_formula_units_Z 88
_cell_length_a 15.108727
_cell_length_b 14.580118
_cell_length_c 20.805914
_cell_angle_alpha 90.000000
_cell_angle_beta 90.000000
_cell_angle_gamma 90.000000
_cell_volume 4583.272845
_symmetry_space_group_name_H-M "C M M A"
_symmetry_group_IT_number 67
_symmetry_cell_setting 'orthorhombic'
loop_
_space_group_symop_operation_xyz
x,y,z
-x,1/2-y,z
x,-y,-z
-x,1/2+y,-z
-x,-y,-z
x,1/2+y,-z
-x,y,z
x,1/2-y,z
1/2+x,1/2+y,z
1/2-x,-y,z
1/2+x,1/2-y,-z
1/2-x,y,-z
1/2-x,1/2-y,-z
1/2+x,y,-z
1/2-x,1/2+y,z
1/2+x,-y,z
loop_
_atom_site_type_symbol
_atom_site_label
_atom_site_fract_x
_atom_site_fract_y
_atom_site_fract_z
Si Si1 0.098677 0.985371 0.607484
Si Si2 0.500000 0.145797 0.133880
Si Si3 0.808724 0.362035 0.816809
Si Si4 0.250000 0.000000 0.708713
Si Si5 0.195066 0.358979 0.061276
Si Si6 0.500000 0.394014 0.985069
Si Si7 0.144009 0.143973 0.509061
O O1 0.170321 0.970704 0.662251
O O2 0.118906 0.080130 0.569343
O O3 0.000000 0.989031 0.633968
O O4 0.105022 0.906077 0.553595
O O5 0.500000 0.250000 0.157616
O O6 0.406714 0.107480 0.158995
O O7 0.500000 0.149172 0.056363
O O8 0.807242 0.250000 0.809688
O O9 0.782191 0.416045 0.753050
O O10 0.739038 0.389579 0.872454
O O11 0.209352 0.250000 0.061036
O O12 0.090709 0.373141 0.051912
O O13 0.250000 0.395774 0.000000
O O14 0.500000 0.500000 0.000000
O O15 0.117054 0.250000 0.515689
O O16 0.250000 0.140658 0.500000
#
# Coordination Sequence:
#
# PCOD9502059 Si02
#       7
#    16   8  16   8  16   8  16
#     4  11  23  41  63  93 127 166 204 247 311 357
#     4  10  20  42  66  88 116 151 202 261 313 367
#     4  10  24  42  64  88 118 164 209 251 308 369
#     4  12  26  43  61  84 132 168 206 256 294 360
#     4  10  20  39  62  83 113 151 194 254 316 364
#     4  12  24  32  60  96 120 144 192 252 323 387
#     4  10  19  38  69  98 129 160 199 254 307 359
#
# _framework density 19.200251999999999
#
# number of rings (size 3 to 8) (size 9 to 14) (size 15 to 20)
#    0.000    1.455    3.636    2.455    3.818    3.273 
#    1.636    0.000    0.000    0.000    0.000    0.000 
#    0.000    0.000    0.000    0.000    0.000    0.000 
#
# Total GULP energy -245691.765401 kJ/mol
# GULP energy per Si atom -5583.903759 kJ/mol
# Density = 1.915655 g / cm^3
# Si number density = 19.200252 Si / 1000 Ang^3
#
#
#
# Elastic Constant Matrix: (Units=GPa)
#
#
# Indices 1 2 3 4 5 6 
#
# 1 167.1413 13.3557 68.4782 0.0000 0.0000 0.0000
# 2 13.3557 91.9886 22.0460 0.0000 0.0000 0.0000
# 3 68.4782 22.0460 105.1204 0.0000 0.0000 0.0000
# 4 0.0000 0.0000 0.0000 15.0007 0.0000 0.0000
# 5 0.0000 0.0000 0.0000 0.0000 -10.2418 0.0000
# 6 0.0000 0.0000 0.0000 0.0000 0.0000 -208.3124
#
#
#
# Elastic Compliance Matrix: (Units=1/GPa)
#
#
# Indices 1 2 3 4 5 6 
#
# 1 0.008162 0.000094 -0.005337 0.000000 0.000000 0.000000
# 2 0.000094 0.011447 -0.002462 0.000000 0.000000 0.000000
# 3 -0.005337 -0.002462 0.013506 0.000000 0.000000 0.000000
# 4 0.000000 0.000000 0.000000 0.066664 0.000000 0.000000
# 5 0.000000 0.000000 0.000000 0.000000 -0.097639 0.000000
# 6 0.000000 0.000000 0.000000 0.000000 0.000000 -0.004800
#
#
# Mechanical properties :
#
#
# Convention : Reuss Voigt Hill
#
# Bulk Modulus (GPa) = 56.47913 63.55669 60.01791
# Shear Modulus (GPa) = 268.09425 -23.35269 122.37078
#
# Velocity S-wave (km/s) = 11.82936 -3.49129 7.99202
# Velocity P-wave (km/s) = 14.69891 4.11360 10.79305
#
# Compressibility (1/GPa) = 0.01770565
#
# Stress axis : x y z
#
# Youngs Moduli (GPa) = 122.52128 87.35684 74.04342
#
# Poissons Ratio (x) = -0.00821 0.39514
# Poissons Ratio (y) = -0.01151 0.18229
# Poissons Ratio (z) = 0.65384 0.21507
#
# Static dielectric constant tensor:
#      x y z
#    x 1.649150 0.000000 0.000000 
#    y 0.000000 1.677660 0.000000 
#    z 0.000000 0.000000 1.727600 
# 
# From -- ./inp_files/38344.got.cif
#   From: 2010.05.17/outbox.cif.g08.bks.cpg/sg67_20_cif.got.tgz:38344.got - 2010.06.03 18:28:57.
