data_PCOD9502595
_publ_section_title
;
Structure prediction by ZEFSAII (Michael W. Deem and Ramdas Pophale) SiO2 
 PCOD9502595
Probable space group: C M M A
;
_chemical_formula_sum "Si O2"
_cell_formula_units_Z 72
_cell_length_a 8.902646
_cell_length_b 32.249364
_cell_length_c 13.531062
_cell_angle_alpha 90.000000
_cell_angle_beta 90.000000
_cell_angle_gamma 90.000000
_cell_volume 3884.831109
_symmetry_space_group_name_H-M "C M M A"
_symmetry_group_IT_number 67
_symmetry_cell_setting 'orthorhombic'
loop_
_space_group_symop_operation_xyz
x,y,z
-x,1/2-y,z
x,-y,-z
-x,1/2+y,-z
-x,-y,-z
x,1/2+y,-z
-x,y,z
x,1/2-y,z
1/2+x,1/2+y,z
1/2-x,-y,z
1/2+x,1/2-y,-z
1/2-x,y,-z
1/2-x,1/2-y,-z
1/2+x,y,-z
1/2-x,1/2+y,z
1/2+x,-y,z
loop_
_atom_site_type_symbol
_atom_site_label
_atom_site_fract_x
_atom_site_fract_y
_atom_site_fract_z
Si Si1 0.821020 0.666328 0.189389
Si Si2 0.322345 0.374262 0.400014
Si Si3 0.179861 0.250000 0.109137
Si Si4 0.320722 0.083779 0.898343
Si Si5 0.178772 0.544004 0.687594
O O1 0.796618 0.654118 0.303872
O O2 0.740269 0.708824 0.162360
O O3 0.752688 0.628395 0.126250
O O4 0.000000 0.669189 0.171389
O O5 0.500000 0.379392 0.412446
O O6 0.250000 0.357438 0.500000
O O7 0.248667 0.418623 0.375124
O O8 0.000000 0.250000 0.104474
O O9 0.250000 0.250000 0.000000
O O10 0.500000 0.088110 0.908056
O O11 0.289604 0.055264 0.802785
O O12 0.250000 0.067774 0.000000
O O13 0.250000 0.500000 0.662501
O O14 0.000000 0.543172 0.674208
#
# Coordination Sequence:
#
# PCOD9502595 Si02
#       5
#    16  16   8  16  16
#     4  10  21  38  58  82 112 144 181 225 270 320
#     4  10  21  38  61  84 109 142 180 224 274 326
#     4  12  24  38  59  86 117 150 183 222 266 316
#     4  10  20  34  53  77 107 145 184 224 271 326
#     4  10  21  36  54  78 109 142 182 229 275 324
#
# _framework density 18.533622999999999
#
# number of rings (size 3 to 8) (size 9 to 14) (size 15 to 20)
#    0.000    1.778    0.000    4.333    0.000    6.222 
#    0.000    5.000    0.000    0.000    0.000    0.000 
#    0.000    0.000    0.000    0.000    0.000    0.000 
#
# Total GULP energy -201225.711569 kJ/mol
# GULP energy per Si atom -5589.603099 kJ/mol
# Density = 1.849144 g / cm^3
# Si number density = 18.533623 Si / 1000 Ang^3
#
#
#
# Elastic Constant Matrix: (Units=GPa)
#
#
# Indices 1 2 3 4 5 6 
#
# 1 95.8516 42.6201 48.4510 0.0000 0.0000 0.0000
# 2 42.6201 86.1130 4.9658 0.0000 0.0000 0.0000
# 3 48.4510 4.9658 80.6678 0.0000 0.0000 0.0000
# 4 0.0000 0.0000 0.0000 3.0891 0.0000 0.0000
# 5 0.0000 0.0000 0.0000 0.0000 35.1836 0.0000
# 6 0.0000 0.0000 0.0000 0.0000 0.0000 30.9090
#
#
#
# Elastic Compliance Matrix: (Units=1/GPa)
#
#
# Indices 1 2 3 4 5 6 
#
# 1 0.020644 -0.009536 -0.011812 0.000000 0.000000 0.000000
# 2 -0.009536 0.016059 0.004739 0.000000 0.000000 0.000000
# 3 -0.011812 0.004739 0.019199 0.000000 0.000000 0.000000
# 4 0.000000 0.000000 0.000000 0.323721 0.000000 0.000000
# 5 0.000000 0.000000 0.000000 0.000000 0.028422 0.000000
# 6 0.000000 0.000000 0.000000 0.000000 0.000000 0.032353
#
#
# Mechanical properties :
#
#
# Convention : Reuss Voigt Hill
#
# Bulk Modulus (GPa) = 44.08406 50.52292 47.30349
# Shear Modulus (GPa) = 10.39115 24.94272 17.66693
#
# Velocity S-wave (km/s) = 2.37040 3.67251 3.09080
# Velocity P-wave (km/s) = 5.59727 6.73071 6.18998
#
# Compressibility (1/GPa) = 0.02268394
#
# Stress axis : x y z
#
# Youngs Moduli (GPa) = 48.44069 62.26991 52.08487
#
# Poissons Ratio (x) = 0.59381 0.61523
# Poissons Ratio (y) = 0.46194 -0.24683
# Poissons Ratio (z) = 0.57219 -0.29510
#
# Static dielectric constant tensor:
#      x y z
#    x 1.612110 0.000000 0.000000 
#    y 0.000000 1.598840 0.000000 
#    z 0.000000 0.000000 1.648870 
# 
# From -- ./inp_files/25292.got.cif
#   From: 2010.05.17/outbox.cif.g08.bks.cpg/sg67_13_cif.got.tgz:25292.got - 2010.06.03 18:28:57.
