data_PCOD9502481
_publ_section_title
;
Structure prediction by ZEFSAII (Michael W. Deem and Ramdas Pophale) SiO2 
 PCOD9502481
Probable space group: C M M A
;
_chemical_formula_sum "Si O2"
_cell_formula_units_Z 80
_cell_length_a 14.731844
_cell_length_b 9.768471
_cell_length_c 25.336063
_cell_angle_alpha 90.000000
_cell_angle_beta 90.000000
_cell_angle_gamma 90.000000
_cell_volume 3646.051789
_symmetry_space_group_name_H-M "C M M A"
_symmetry_group_IT_number 67
_symmetry_cell_setting 'orthorhombic'
loop_
_space_group_symop_operation_xyz
x,y,z
-x,1/2-y,z
x,-y,-z
-x,1/2+y,-z
-x,-y,-z
x,1/2+y,-z
-x,y,z
x,1/2-y,z
1/2+x,1/2+y,z
1/2-x,-y,z
1/2+x,1/2-y,-z
1/2-x,y,-z
1/2-x,1/2-y,-z
1/2+x,y,-z
1/2-x,1/2+y,z
1/2+x,-y,z
loop_
_atom_site_type_symbol
_atom_site_label
_atom_site_fract_x
_atom_site_fract_y
_atom_site_fract_z
Si Si1 0.607207 0.898017 0.757666
Si Si2 0.388766 0.533793 0.873973
Si Si3 0.610843 0.750000 0.960619
Si Si4 0.153460 0.583395 0.548216
Si Si5 0.388931 0.250000 0.918689
Si Si6 0.658689 0.087802 0.664406
O O1 0.500000 0.886079 0.764612
O O2 0.641101 0.750000 0.737018
O O3 0.644634 0.920927 0.816522
O O4 0.617750 0.021012 0.716713
O O5 0.500000 0.540173 0.872884
O O6 0.361701 0.622890 0.924423
O O7 0.359959 0.381745 0.886820
O O8 0.500000 0.750000 0.963415
O O9 0.642615 0.750000 0.020699
O O10 0.107727 0.500000 0.500000
O O11 0.162861 0.750000 0.538554
O O12 0.250000 0.500000 0.551908
O O13 0.111755 0.569516 0.606914
O O14 0.500000 0.250000 0.920395
O O15 0.671770 0.250000 0.670374
O O16 0.750000 0.000000 0.660238
#
# Coordination Sequence:
#
# PCOD9502481 Si02
#       6
#    16  16   8  16   8  16
#     4  10  20  34  51  71 101 140 176 210 252 303
#     4   9  16  26  39  60  90 125 162 199 245 298
#     4   9  14  24  38  56  87 123 158 197 244 298
#     4   9  16  27  46  73 101 129 160 199 248 296
#     4   9  16  22  36  60  87 121 158 199 246 296
#     4  10  21  35  53  78 106 134 169 212 252 296
#
# _framework density 21.941542999999999
#
# number of rings (size 3 to 8) (size 9 to 14) (size 15 to 20)
#    0.000    2.600    1.000    2.400    1.400    5.200 
#    0.000    0.000    0.000    0.600    0.000    0.000 
#    0.000    4.800    0.000    0.000    0.000    0.000 
#
# Total GULP energy -222782.274658 kJ/mol
# GULP energy per Si atom -5569.556866 kJ/mol
# Density = 2.189160 g / cm^3
# Si number density = 21.941543 Si / 1000 Ang^3
#
#
#
# Elastic Constant Matrix: (Units=GPa)
#
#
# Indices 1 2 3 4 5 6 
#
# 1 36.1843 3.5746 10.3004 0.0000 0.0000 0.0000
# 2 3.5746 189.2109 73.4397 0.0000 0.0000 0.0000
# 3 10.3004 73.4397 158.8939 0.0000 0.0000 0.0000
# 4 0.0000 0.0000 0.0000 115.6587 0.0000 0.0000
# 5 0.0000 0.0000 0.0000 0.0000 7.5312 0.0000
# 6 0.0000 0.0000 0.0000 0.0000 0.0000 -2.1112
#
#
#
# Elastic Compliance Matrix: (Units=1/GPa)
#
#
# Indices 1 2 3 4 5 6 
#
# 1 0.028163 0.000215 -0.001925 0.000000 0.000000 0.000000
# 2 0.000215 0.006442 -0.002991 0.000000 0.000000 0.000000
# 3 -0.001925 -0.002991 0.007801 0.000000 0.000000 0.000000
# 4 0.000000 0.000000 0.000000 0.008646 0.000000 0.000000
# 5 0.000000 0.000000 0.000000 0.000000 0.132781 0.000000
# 6 0.000000 0.000000 0.000000 0.000000 0.000000 -0.473659
#
#
# Mechanical properties :
#
#
# Convention : Reuss Voigt Hill
#
# Bulk Modulus (GPa) = 30.30007 62.10207 46.20107
# Shear Modulus (GPa) = -18.55823 44.01403 12.72790
#
# Velocity S-wave (km/s) = -2.91143 4.48366 2.41110
# Velocity P-wave (km/s) = 1.59297 7.42759 5.37153
#
# Compressibility (1/GPa) = 0.03300323
#
# Stress axis : x y z
#
# Youngs Moduli (GPa) = 35.50756 155.22793 128.18971
#
# Poissons Ratio (x) = -0.03340 0.24678
# Poissons Ratio (y) = -0.00764 0.38347
# Poissons Ratio (z) = 0.06836 0.46436
#
# Static dielectric constant tensor:
#      x y z
#    x 1.912510 0.000000 0.000000 
#    y 0.000000 1.946810 0.000000 
#    z 0.000000 0.000000 1.837410 
# 
# From -- ./inp_files/44469.got.cif
#   From: 2010.05.17/outbox.cif.g08.bks.cpg/sg67_23_cif.got.tgz:44469.got - 2010.06.03 18:28:57.
