data_PCOD9502148
_publ_section_title
;
Structure prediction by ZEFSAII (Michael W. Deem and Ramdas Pophale) SiO2 
 PCOD9502148
Probable space group: C M M A
;
_chemical_formula_sum "Si O2"
_cell_formula_units_Z 96
_cell_length_a 27.757502
_cell_length_b 9.111772
_cell_length_c 24.653463
_cell_angle_alpha 90.000000
_cell_angle_beta 90.000000
_cell_angle_gamma 90.000000
_cell_volume 6235.354590
_symmetry_space_group_name_H-M "C M M A"
_symmetry_group_IT_number 67
_symmetry_cell_setting 'orthorhombic'
loop_
_space_group_symop_operation_xyz
x,y,z
-x,1/2-y,z
x,-y,-z
-x,1/2+y,-z
-x,-y,-z
x,1/2+y,-z
-x,y,z
x,1/2-y,z
1/2+x,1/2+y,z
1/2-x,-y,z
1/2+x,1/2-y,-z
1/2-x,y,-z
1/2-x,1/2-y,-z
1/2+x,y,-z
1/2-x,1/2+y,z
1/2+x,-y,z
loop_
_atom_site_type_symbol
_atom_site_label
_atom_site_fract_x
_atom_site_fract_y
_atom_site_fract_z
Si Si1 0.441338 0.919342 0.554710
Si Si2 0.900031 0.072889 0.219192
Si Si3 0.199712 0.575378 0.834344
Si Si4 0.444058 0.925183 0.885026
Si Si5 0.356137 0.073846 0.943860
Si Si6 0.556779 0.425272 0.665200
O O1 0.500000 0.925686 0.554525
O O2 0.427154 0.750000 0.553744
O O3 0.425001 0.000000 0.500000
O O4 0.426067 0.995991 0.610552
O O5 0.906108 0.250000 0.212065
O O6 0.844618 0.036868 0.205308
O O7 0.915439 0.034480 0.279970
O O8 0.932028 0.990315 0.174423
O O9 0.205961 0.750000 0.831984
O O10 0.250000 0.500000 0.822235
O O11 0.180506 0.538806 0.894803
O O12 0.500000 0.951374 0.898101
O O13 0.435315 0.750000 0.885920
O O14 0.407409 0.006737 0.925354
O O15 0.359597 0.250000 0.948591
O O16 0.341294 0.000000 0.000000
O O17 0.500000 0.459134 0.673041
O O18 0.560674 0.250000 0.657657
#
# Coordination Sequence:
#
# PCOD9502148 Si02
#       6
#    16  16  16  16  16  16
#     4   9  16  25  37  55  83 119 157 192 222 254
#     4   9  18  32  48  67  91 119 152 186 222 267
#     4   9  19  34  51  70  90 114 143 178 223 271
#     4  10  20  32  47  68  93 121 151 182 218 259
#     4  10  21  36  52  70  91 115 146 181 218 264
#     4   9  16  26  42  63  88 120 154 186 220 256
#
# _framework density 15.396077
#
# number of rings (size 3 to 8) (size 9 to 14) (size 15 to 20)
#    0.000    2.667    0.000    3.000    0.000    8.667 
#    0.000    3.333    0.000    0.000    0.000    0.000 
#    0.000    0.667    0.000    7.667    0.000    2.667 
#
# Total GULP energy -267589.418653 kJ/mol
# GULP energy per Si atom -5574.779555 kJ/mol
# Density = 1.536104 g / cm^3
# Si number density = 15.396077 Si / 1000 Ang^3
#
#
#
# Elastic Constant Matrix: (Units=GPa)
#
#
# Indices 1 2 3 4 5 6 
#
# 1 53.4697 21.4402 22.7533 0.0000 0.0000 0.0000
# 2 21.4402 39.5587 37.7215 0.0000 0.0000 0.0000
# 3 22.7533 37.7215 114.1875 0.0000 0.0000 0.0000
# 4 0.0000 0.0000 0.0000 28.5747 0.0000 0.0000
# 5 0.0000 0.0000 0.0000 0.0000 8.2650 0.0000
# 6 0.0000 0.0000 0.0000 0.0000 0.0000 22.7330
#
#
#
# Elastic Compliance Matrix: (Units=1/GPa)
#
#
# Indices 1 2 3 4 5 6 
#
# 1 0.023934 -0.012298 -0.000706 0.000000 0.000000 0.000000
# 2 -0.012298 0.043223 -0.011828 0.000000 0.000000 0.000000
# 3 -0.000706 -0.011828 0.012806 0.000000 0.000000 0.000000
# 4 0.000000 0.000000 0.000000 0.034996 0.000000 0.000000
# 5 0.000000 0.000000 0.000000 0.000000 0.120991 0.000000
# 6 0.000000 0.000000 0.000000 0.000000 0.000000 0.043989
#
#
# Mechanical properties :
#
#
# Convention : Reuss Voigt Hill
#
# Bulk Modulus (GPa) = 33.00624 41.22734 37.11679
# Shear Modulus (GPa) = 14.71870 20.26795 17.49332
#
# Velocity S-wave (km/s) = 3.09528 3.63221 3.37444
# Velocity P-wave (km/s) = 5.85312 6.66532 6.27238
#
# Compressibility (1/GPa) = 0.03029730
#
# Stress axis : x y z
#
# Youngs Moduli (GPa) = 41.78124 23.13579 78.09057
#
# Poissons Ratio (x) = 0.28453 0.05517
# Poissons Ratio (y) = 0.51384 0.92366
# Poissons Ratio (z) = 0.02952 0.27365
#
# Static dielectric constant tensor:
#      x y z
#    x 1.489960 0.000000 0.000000 
#    y 0.000000 1.515430 0.000000 
#    z 0.000000 0.000000 1.507750 
# 
# From -- ./inp_files/40775.got.cif
#   From: 2010.05.17/outbox.cif.g08.bks.cpg/sg67_21_cif.got.tgz:40775.got - 2010.06.03 18:28:57.
