data_PCOD9502190
_publ_section_title
;
Structure prediction by ZEFSAII (Michael W. Deem and Ramdas Pophale) SiO2 
 PCOD9502190
Probable space group: C M M A
;
_chemical_formula_sum "Si O2"
_cell_formula_units_Z 88
_cell_length_a 9.604922
_cell_length_b 22.364579
_cell_length_c 22.774829
_cell_angle_alpha 90.000000
_cell_angle_beta 90.000000
_cell_angle_gamma 90.000000
_cell_volume 4892.261857
_symmetry_space_group_name_H-M "C M M A"
_symmetry_group_IT_number 67
_symmetry_cell_setting 'orthorhombic'
loop_
_space_group_symop_operation_xyz
x,y,z
-x,1/2-y,z
x,-y,-z
-x,1/2+y,-z
-x,-y,-z
x,1/2+y,-z
-x,y,z
x,1/2-y,z
1/2+x,1/2+y,z
1/2-x,-y,z
1/2+x,1/2-y,-z
1/2-x,y,-z
1/2-x,1/2-y,-z
1/2+x,y,-z
1/2-x,1/2+y,z
1/2+x,-y,z
loop_
_atom_site_type_symbol
_atom_site_label
_atom_site_fract_x
_atom_site_fract_y
_atom_site_fract_z
Si Si1 0.661097 0.177573 0.556171
Si Si2 0.843528 0.420433 0.946025
Si Si3 0.665961 0.178743 0.325825
Si Si4 0.250000 0.000000 0.841390
Si Si5 0.842550 0.180016 0.105236
Si Si6 0.843198 0.883967 0.771859
O O1 0.500000 0.156554 0.557273
O O2 0.654727 0.250000 0.552116
O O3 0.750000 0.156345 0.500000
O O4 0.748022 0.164689 0.615040
O O5 0.841000 0.462509 0.888342
O O6 0.773449 0.358406 0.926762
O O7 0.000000 0.414209 0.966158
O O8 0.750000 0.441137 0.000000
O O9 0.500000 0.169951 0.333190
O O10 0.687243 0.250000 0.312777
O O11 0.729725 0.137396 0.274890
O O12 0.319206 0.050502 0.800453
O O13 0.823448 0.250000 0.097242
O O14 0.835668 0.161757 0.173517
O O15 0.000000 0.163561 0.085910
O O16 0.000000 0.881006 0.746926
#
# Coordination Sequence:
#
# PCOD9502190 Si02
#       6
#    16  16  16   8  16  16
#     4   9  16  27  45  70 103 142 180 217 258 304
#     4  11  23  38  58  81 104 132 167 209 257 309
#     4  10  20  32  48  75 110 144 178 215 256 306
#     4  10  23  40  58  78 101 130 170 216 262 312
#     4   9  19  36  56  78 106 138 170 206 252 308
#     4  10  20  35  55  77 102 134 172 215 262 309
#
# _framework density 17.987590000000001
#
# number of rings (size 3 to 8) (size 9 to 14) (size 15 to 20)
#    0.000    2.182    0.000    3.000    0.000   11.273 
#    0.000    0.000    0.000    0.000    0.000    0.636 
#    0.000    4.364    0.000    0.000    0.000    0.000 
#
# Total GULP energy -245309.392624 kJ/mol
# GULP energy per Si atom -5575.213469 kJ/mol
# Density = 1.794665 g / cm^3
# Si number density = 17.987590 Si / 1000 Ang^3
#
#
#
# Elastic Constant Matrix: (Units=GPa)
#
#
# Indices 1 2 3 4 5 6 
#
# 1 175.2255 53.1675 70.3442 0.0000 0.0000 0.0000
# 2 53.1675 68.2086 43.6362 0.0000 0.0000 0.0000
# 3 70.3442 43.6362 96.6678 0.0000 0.0000 0.0000
# 4 0.0000 0.0000 0.0000 16.5735 0.0000 0.0000
# 5 0.0000 0.0000 0.0000 0.0000 29.7237 0.0000
# 6 0.0000 0.0000 0.0000 0.0000 0.0000 -19.3445
#
#
#
# Elastic Compliance Matrix: (Units=1/GPa)
#
#
# Indices 1 2 3 4 5 6 
#
# 1 0.008727 -0.003852 -0.004612 0.000000 0.000000 0.000000
# 2 -0.003852 0.022314 -0.007269 0.000000 0.000000 0.000000
# 3 -0.004612 -0.007269 0.016982 0.000000 0.000000 0.000000
# 4 0.000000 0.000000 0.000000 0.060337 0.000000 0.000000
# 5 0.000000 0.000000 0.000000 0.000000 0.033643 0.000000
# 6 0.000000 0.000000 0.000000 0.000000 0.000000 -0.051694
#
#
# Mechanical properties :
#
#
# Convention : Reuss Voigt Hill
#
# Bulk Modulus (GPa) = 60.39909 74.93308 67.66608
# Shear Modulus (GPa) = 39.27862 16.92082 28.09972
#
# Velocity S-wave (km/s) = 4.67802 3.07040 3.95672
# Velocity P-wave (km/s) = 7.92652 7.37011 7.65337
#
# Compressibility (1/GPa) = 0.01655654
#
# Stress axis : x y z
#
# Youngs Moduli (GPa) = 114.58417 44.81415 58.88571
#
# Poissons Ratio (x) = 0.17264 0.27156
# Poissons Ratio (y) = 0.44142 0.42807
# Poissons Ratio (z) = 0.52843 0.32577
#
# Static dielectric constant tensor:
#      x y z
#    x 1.619110 0.000000 0.000000 
#    y 0.000000 1.607870 0.000000 
#    z 0.000000 0.000000 1.623020 
# 
# From -- ./inp_files/36948.got.cif
#   From: 2010.05.17/outbox.cif.g08.bks.cpg/sg67_19_cif.got.tgz:36948.got - 2010.06.03 18:28:57.
