data_PCOD9502794
_publ_section_title
;
Structure prediction by ZEFSAII (Michael W. Deem and Ramdas Pophale) SiO2 
 PCOD9502794
Probable space group: C M M A
;
_chemical_formula_sum "Si O2"
_cell_formula_units_Z 104
_cell_length_a 30.194588
_cell_length_b 8.773207
_cell_length_c 20.769480
_cell_angle_alpha 90.000000
_cell_angle_beta 90.000000
_cell_angle_gamma 90.000000
_cell_volume 5501.905262
_symmetry_space_group_name_H-M "C M M A"
_symmetry_group_IT_number 67
_symmetry_cell_setting 'orthorhombic'
loop_
_space_group_symop_operation_xyz
x,y,z
-x,1/2-y,z
x,-y,-z
-x,1/2+y,-z
-x,-y,-z
x,1/2+y,-z
-x,y,z
x,1/2-y,z
1/2+x,1/2+y,z
1/2-x,-y,z
1/2+x,1/2-y,-z
1/2-x,y,-z
1/2-x,1/2-y,-z
1/2+x,y,-z
1/2-x,1/2+y,z
1/2+x,-y,z
loop_
_atom_site_type_symbol
_atom_site_label
_atom_site_fract_x
_atom_site_fract_y
_atom_site_fract_z
Si Si1 0.903020 0.932348 0.571473
Si Si2 0.500000 0.432815 0.571250
Si Si3 0.703934 0.922463 0.088034
Si Si4 0.295364 0.423344 0.757273
Si Si5 0.551407 0.064179 0.193278
Si Si6 0.379955 0.930401 0.699078
Si Si7 0.892066 0.067375 0.932874
O O1 0.901068 0.750000 0.566519
O O2 0.952385 0.980663 0.596638
O O3 0.895927 0.000000 0.500000
O O4 0.873791 0.993249 0.629397
O O5 0.500000 0.250000 0.569323
O O6 0.500000 0.500000 0.500000
O O7 0.700780 0.750000 0.062381
O O8 0.706269 0.915013 0.165505
O O9 0.750000 0.000000 0.068033
O O10 0.658783 0.011636 0.073037
O O11 0.300643 0.250000 0.733026
O O12 0.250000 0.500000 0.734194
O O13 0.336473 0.527631 0.738886
O O14 0.500000 0.014487 0.192856
O O15 0.551380 0.250000 0.193749
O O16 0.578710 0.014462 0.256754
O O17 0.578908 0.017959 0.129290
O O18 0.384622 0.750000 0.690452
O O19 0.892802 0.250000 0.935085
O O20 0.909831 0.000000 0.000000
#
# Coordination Sequence:
#
# PCOD9502794 Si02
#       7
#    16   8  16  16  16  16  16
#     4  10  20  35  53  79 114 153 194 238 288 340
#     4   8  16  30  48  70 104 144 185 228 275 330
#     4  10  20  35  57  84 115 147 183 228 285 344
#     4  10  20  35  58  86 117 148 186 233 284 341
#     4   9  20  38  58  82 113 150 193 240 286 336
#     4  11  21  35  59  87 116 152 193 235 286 341
#     4  11  22  38  59  82 113 150 192 238 287 342
#
# _framework density 18.902542
#
# number of rings (size 3 to 8) (size 9 to 14) (size 15 to 20)
#    0.000    2.000    1.538    2.308    1.077    2.462 
#    0.000    1.538    0.000    5.538    0.000    3.231 
#    0.000    0.000    0.000    0.000    0.000    0.000 
#
# Total GULP energy -289962.140697 kJ/mol
# GULP energy per Si atom -5576.195013 kJ/mol
# Density = 1.885952 g / cm^3
# Si number density = 18.902542 Si / 1000 Ang^3
#
#
#
# Elastic Constant Matrix: (Units=GPa)
#
#
# Indices 1 2 3 4 5 6 
#
# 1 98.6505 14.8939 41.5433 0.0000 0.0000 0.0000
# 2 14.8939 57.6306 34.4121 0.0000 0.0000 0.0000
# 3 41.5433 34.4121 117.6282 0.0000 0.0000 0.0000
# 4 0.0000 0.0000 0.0000 26.0966 0.0000 0.0000
# 5 0.0000 0.0000 0.0000 0.0000 -4.3499 0.0000
# 6 0.0000 0.0000 0.0000 0.0000 0.0000 23.8809
#
#
#
# Elastic Compliance Matrix: (Units=1/GPa)
#
#
# Indices 1 2 3 4 5 6 
#
# 1 0.011930 -0.000687 -0.004012 0.000000 0.000000 0.000000
# 2 -0.000687 0.021064 -0.005920 0.000000 0.000000 0.000000
# 3 -0.004012 -0.005920 0.011650 0.000000 0.000000 0.000000
# 4 0.000000 0.000000 0.000000 0.038319 0.000000 0.000000
# 5 0.000000 0.000000 0.000000 0.000000 -0.229889 0.000000
# 6 0.000000 0.000000 0.000000 0.000000 0.000000 0.041874
#
#
# Mechanical properties :
#
#
# Convention : Reuss Voigt Hill
#
# Bulk Modulus (GPa) = 42.72406 50.62310 46.67358
# Shear Modulus (GPa) = -65.78046 21.32952 -22.22547
#
# Velocity S-wave (km/s) = -5.90553 3.36280 -3.43270
# Velocity P-wave (km/s) = 4.88355 6.47435 3.00567
#
# Compressibility (1/GPa) = 0.02340602
#
# Stress axis : x y z
#
# Youngs Moduli (GPa) = 83.82062 47.47393 85.83544
#
# Poissons Ratio (x) = 0.03263 0.34440
# Poissons Ratio (y) = 0.05762 0.50811
# Poissons Ratio (z) = 0.33632 0.28103
#
# Static dielectric constant tensor:
#      x y z
#    x 1.676510 0.000000 0.000000 
#    y 0.000000 1.688330 0.000000 
#    z 0.000000 0.000000 1.650790 
# 
# From -- ./inp_files/39968.got.cif
#   From: 2010.05.17/outbox.cif.g08.bks.cpg/sg67_20_cif.got.tgz:39968.got - 2010.06.03 18:28:57.
