data_PCOD9502401
_publ_section_title
;
Structure prediction by ZEFSAII (Michael W. Deem and Ramdas Pophale) SiO2 
 PCOD9502401
Probable space group: C M M A
;
_chemical_formula_sum "Si O2"
_cell_formula_units_Z 80
_cell_length_a 18.605379
_cell_length_b 8.812963
_cell_length_c 26.710665
_cell_angle_alpha 90.000000
_cell_angle_beta 90.000000
_cell_angle_gamma 90.000000
_cell_volume 4379.708121
_symmetry_space_group_name_H-M "C M M A"
_symmetry_group_IT_number 67
_symmetry_cell_setting 'orthorhombic'
loop_
_space_group_symop_operation_xyz
x,y,z
-x,1/2-y,z
x,-y,-z
-x,1/2+y,-z
-x,-y,-z
x,1/2+y,-z
-x,y,z
x,1/2-y,z
1/2+x,1/2+y,z
1/2-x,-y,z
1/2+x,1/2-y,-z
1/2-x,y,-z
1/2-x,1/2-y,-z
1/2+x,y,-z
1/2-x,1/2+y,z
1/2+x,-y,z
loop_
_atom_site_type_symbol
_atom_site_label
_atom_site_fract_x
_atom_site_fract_y
_atom_site_fract_z
Si Si1 0.669402 0.568676 0.950041
Si Si2 0.669786 0.568438 0.839019
Si Si3 0.329483 0.567687 0.353011
Si Si4 0.083281 0.567128 0.746873
Si Si5 0.415039 0.568934 0.553947
O O1 0.673454 0.750000 0.955203
O O2 0.750000 0.500000 0.948634
O O3 0.639691 0.532272 0.894814
O O4 0.634031 0.500000 0.000000
O O5 0.675234 0.750000 0.835267
O O6 0.750000 0.500000 0.834673
O O7 0.620853 0.504147 0.795131
O O8 0.326236 0.750000 0.355406
O O9 0.250000 0.500000 0.349926
O O10 0.374107 0.523929 0.303400
O O11 0.369568 0.504702 0.401809
O O12 0.086485 0.750000 0.750998
O O13 0.000000 0.522029 0.743230
O O14 0.395265 0.500000 0.500000
O O15 0.500000 0.537355 0.561937
O O16 0.405043 0.750000 0.553273
#
# Coordination Sequence:
#
# PCOD9502401 Si02
#       5
#    16  16  16  16  16
#     4   9  16  26  43  70 102 135 172 214 262 314
#     4  10  20  33  52  79 109 141 178 222 269 319
#     4  11  23  39  59  84 114 145 182 227 273 322
#     4  10  22  39  58  80 107 141 180 223 273 327
#     4  10  21  38  61  88 117 150 187 225 268 319
#
# _framework density 18.266057
#
# number of rings (size 3 to 8) (size 9 to 14) (size 15 to 20)
#    0.000    2.000    0.000    4.200    0.000    8.400 
#    0.000    2.000    0.000    0.600    0.000    0.000 
#    0.000    0.000    0.000    0.000    0.000    0.000 
#
# Total GULP energy -223303.211476 kJ/mol
# GULP energy per Si atom -5582.580287 kJ/mol
# Density = 1.822448 g / cm^3
# Si number density = 18.266057 Si / 1000 Ang^3
#
#
#
# Elastic Constant Matrix: (Units=GPa)
#
#
# Indices 1 2 3 4 5 6 
#
# 1 105.3513 51.4373 109.4118 0.0000 0.0000 0.0000
# 2 51.4373 60.3872 76.1806 0.0000 0.0000 0.0000
# 3 109.4118 76.1806 227.0903 0.0000 0.0000 0.0000
# 4 0.0000 0.0000 0.0000 45.2428 0.0000 0.0000
# 5 0.0000 0.0000 0.0000 0.0000 153.5056 0.0000
# 6 0.0000 0.0000 0.0000 0.0000 0.0000 23.0191
#
#
#
# Elastic Compliance Matrix: (Units=1/GPa)
#
#
# Indices 1 2 3 4 5 6 
#
# 1 0.021550 -0.009115 -0.007325 0.000000 0.000000 0.000000
# 2 -0.009115 0.032566 -0.006533 0.000000 0.000000 0.000000
# 3 -0.007325 -0.006533 0.010124 0.000000 0.000000 0.000000
# 4 0.000000 0.000000 0.000000 0.022103 0.000000 0.000000
# 5 0.000000 0.000000 0.000000 0.000000 0.006514 0.000000
# 6 0.000000 0.000000 0.000000 0.000000 0.000000 0.043442
#
#
# Mechanical properties :
#
#
# Convention : Reuss Voigt Hill
#
# Bulk Modulus (GPa) = 54.66425 96.32091 75.49258
# Shear Modulus (GPa) = 26.54741 54.74012 40.64376
#
# Velocity S-wave (km/s) = 3.81645 5.48026 4.72221
# Velocity P-wave (km/s) = 7.02937 9.63800 8.43514
#
# Compressibility (1/GPa) = 0.01829349
#
# Stress axis : x y z
#
# Youngs Moduli (GPa) = 46.40461 30.70729 98.77459
#
# Poissons Ratio (x) = 0.27991 0.72349
# Poissons Ratio (y) = 0.42300 0.64527
# Poissons Ratio (z) = 0.33990 0.20060
#
# Static dielectric constant tensor:
#      x y z
#    x 1.595530 0.000000 0.000000 
#    y 0.000000 1.611670 0.000000 
#    z 0.000000 0.000000 1.639330 
# 
# From -- ./inp_files/43283.got.cif
#   From: 2010.05.17/outbox.cif.g08.bks.cpg/sg67_22_cif.got.tgz:43283.got - 2010.06.03 18:28:57.
