data_PCOD9502554
_publ_section_title
;
Structure prediction by ZEFSAII (Michael W. Deem and Ramdas Pophale) SiO2 
 PCOD9502554
Probable space group: C M M A
;
_chemical_formula_sum "Si O2"
_cell_formula_units_Z 80
_cell_length_a 9.816903
_cell_length_b 14.796311
_cell_length_c 25.535725
_cell_angle_alpha 90.000000
_cell_angle_beta 90.000000
_cell_angle_gamma 90.000000
_cell_volume 3709.164918
_symmetry_space_group_name_H-M "C M M A"
_symmetry_group_IT_number 67
_symmetry_cell_setting 'orthorhombic'
loop_
_space_group_symop_operation_xyz
x,y,z
-x,1/2-y,z
x,-y,-z
-x,1/2+y,-z
-x,-y,-z
x,1/2+y,-z
-x,y,z
x,1/2-y,z
1/2+x,1/2+y,z
1/2-x,-y,z
1/2+x,1/2-y,-z
1/2-x,y,-z
1/2-x,1/2-y,-z
1/2+x,y,-z
1/2-x,1/2+y,z
1/2+x,-y,z
loop_
_atom_site_type_symbol
_atom_site_label
_atom_site_fract_x
_atom_site_fract_y
_atom_site_fract_z
Si Si1 0.338780 0.408445 0.258968
Si Si2 0.242943 0.889390 0.370114
Si Si3 0.656029 0.144959 0.954128
Si Si4 0.164190 0.406433 0.857392
Si Si5 0.000000 0.608985 0.444274
Si Si6 0.500000 0.388503 0.563993
O O1 0.500000 0.428709 0.267086
O O2 0.250000 0.500000 0.256291
O O3 0.285609 0.358978 0.310930
O O4 0.326257 0.365489 0.201289
O O5 0.375605 0.860359 0.400294
O O6 0.126608 0.862418 0.410037
O O7 0.250000 0.000000 0.367351
O O8 0.500000 0.107555 0.948253
O O9 0.637343 0.250000 0.967582
O O10 0.750752 0.142513 0.902547
O O11 0.750000 0.103271 0.000000
O O12 0.250000 0.500000 0.855273
O O13 0.000000 0.416065 0.868295
O O14 0.000000 0.641514 0.503834
O O15 0.000000 0.498538 0.442354
#
# Coordination Sequence:
#
# PCOD9502554 Si02
#       6
#    16  16  16  16   8   8
#     4   9  17  27  40  57  81 115 153 195 240 287
#     4   9  15  22  31  45  66  98 141 187 235 280
#     4  10  21  38  59  82 107 136 169 204 247 299
#     4  10  20  34  52  77 106 136 174 215 255 297
#     4   9  14  22  30  40  64  94 136 189 232 280
#     4   9  16  20  28  44  62  94 138 187 236 276
#
# _framework density 21.568196
#
# number of rings (size 3 to 8) (size 9 to 14) (size 15 to 20)
#    0.000    2.600    1.000    1.800    4.200    4.800 
#    0.000    2.000    0.000    0.000    0.000    0.000 
#    0.000    0.000    0.000    0.000    0.000    6.000 
#
# Total GULP energy -222733.180676 kJ/mol
# GULP energy per Si atom -5568.329517 kJ/mol
# Density = 2.151911 g / cm^3
# Si number density = 21.568196 Si / 1000 Ang^3
#
#
#
# Elastic Constant Matrix: (Units=GPa)
#
#
# Indices 1 2 3 4 5 6 
#
# 1 229.1605 10.3325 117.2184 0.0000 0.0000 0.0000
# 2 10.3325 56.2899 11.5417 0.0000 0.0000 0.0000
# 3 117.2184 11.5417 208.9279 0.0000 0.0000 0.0000
# 4 0.0000 0.0000 0.0000 11.6802 0.0000 0.0000
# 5 0.0000 0.0000 0.0000 0.0000 33.8268 0.0000
# 6 0.0000 0.0000 0.0000 0.0000 0.0000 3.4633
#
#
#
# Elastic Compliance Matrix: (Units=1/GPa)
#
#
# Indices 1 2 3 4 5 6 
#
# 1 0.006130 -0.000425 -0.003416 0.000000 0.000000 0.000000
# 2 -0.000425 0.017998 -0.000756 0.000000 0.000000 0.000000
# 3 -0.003416 -0.000756 0.006745 0.000000 0.000000 0.000000
# 4 0.000000 0.000000 0.000000 0.085615 0.000000 0.000000
# 5 0.000000 0.000000 0.000000 0.000000 0.029562 0.000000
# 6 0.000000 0.000000 0.000000 0.000000 0.000000 0.288745
#
#
# Mechanical properties :
#
#
# Convention : Reuss Voigt Hill
#
# Bulk Modulus (GPa) = 46.12618 85.84037 65.98328
# Shear Modulus (GPa) = 11.08119 33.47977 22.28048
#
# Velocity S-wave (km/s) = 2.26912 3.94417 3.21756
# Velocity P-wave (km/s) = 5.31957 7.78639 6.66805
#
# Compressibility (1/GPa) = 0.02167966
#
# Stress axis : x y z
#
# Youngs Moduli (GPa) = 163.12813 55.56128 148.26803
#
# Poissons Ratio (x) = 0.02361 0.50646
# Poissons Ratio (y) = 0.06931 0.11208
# Poissons Ratio (z) = 0.55722 0.04200
#
# Static dielectric constant tensor:
#      x y z
#    x 1.723850 0.000000 0.000000 
#    y 0.000000 1.815590 0.000000 
#    z 0.000000 0.000000 1.792510 
# 
# From -- ./inp_files/43364.got.cif
#   From: 2010.05.17/outbox.cif.g08.bks.cpg/sg67_22_cif.got.tgz:43364.got - 2010.06.03 18:28:57.
