data_PCOD9502153
_publ_section_title
;
Structure prediction by ZEFSAII (Michael W. Deem and Ramdas Pophale) SiO2 
 PCOD9502153
Probable space group: C M M A
;
_chemical_formula_sum "Si O2"
_cell_formula_units_Z 80
_cell_length_a 33.424624
_cell_length_b 25.342642
_cell_length_c 5.260554
_cell_angle_alpha 90.000000
_cell_angle_beta 90.000000
_cell_angle_gamma 90.000000
_cell_volume 4456.048429
_symmetry_space_group_name_H-M "C M M A"
_symmetry_group_IT_number 67
_symmetry_cell_setting 'orthorhombic'
loop_
_space_group_symop_operation_xyz
x,y,z
-x,1/2-y,z
x,-y,-z
-x,1/2+y,-z
-x,-y,-z
x,1/2+y,-z
-x,y,z
x,1/2-y,z
1/2+x,1/2+y,z
1/2-x,-y,z
1/2+x,1/2-y,-z
1/2-x,y,-z
1/2-x,1/2-y,-z
1/2+x,y,-z
1/2-x,1/2+y,z
1/2+x,-y,z
loop_
_atom_site_type_symbol
_atom_site_label
_atom_site_fract_x
_atom_site_fract_y
_atom_site_fract_z
Si Si1 0.654761 0.435709 0.008116
Si Si2 0.954384 0.977195 0.748328
Si Si3 0.074491 0.369209 0.105846
Si Si4 0.047410 0.811961 0.411499
Si Si5 0.295550 0.563710 0.489686
O O1 0.615348 0.400669 0.956700
O O2 0.684396 0.422608 0.776657
O O3 0.649258 0.500000 0.000000
O O4 0.676044 0.421459 0.274165
O O5 0.953572 0.915256 0.777910
O O6 0.000000 0.997737 0.743301
O O7 0.933467 0.000000 0.500000
O O8 0.935622 0.000000 0.000000
O O9 0.073228 0.328166 0.339885
O O10 0.058694 0.344775 0.842100
O O11 0.053130 0.750000 0.357682
O O12 0.000000 0.819926 0.466401
O O13 0.293352 0.500000 0.500000
O O14 0.250000 0.583764 0.500000
#
# Coordination Sequence:
#
# PCOD9502153 Si02
#       5
#    16  16  16  16  16
#     4  10  20  32  50  80 114 145 175 210 257 314
#     4  10  20  32  47  70 101 139 177 205 241 307
#     4  12  22  36  56  78 108 138 174 224 280 320
#     4  11  24  41  59  77  99 135 186 238 283 324
#     4   9  17  31  50  73 108 151 184 208 241 297
#
# _framework density 17.953126000000001
#
# number of rings (size 3 to 8) (size 9 to 14) (size 15 to 20)
#    0.000    1.600    0.000    6.000    0.000    8.000 
#    0.000    0.000    0.000    0.000    0.000    0.000 
#    0.000   56.000    0.000    0.000    0.000    0.000 
#
# Total GULP energy -222996.931136 kJ/mol
# GULP energy per Si atom -5574.923278 kJ/mol
# Density = 1.791226 g / cm^3
# Si number density = 17.953126 Si / 1000 Ang^3
#
#
#
# Elastic Constant Matrix: (Units=GPa)
#
#
# Indices 1 2 3 4 5 6 
#
# 1 95.8032 26.1204 41.6812 0.0000 0.0000 0.0000
# 2 26.1204 68.3748 34.5098 0.0000 0.0000 0.0000
# 3 41.6812 34.5098 144.9478 0.0000 0.0000 0.0000
# 4 0.0000 0.0000 0.0000 28.5474 0.0000 0.0000
# 5 0.0000 0.0000 0.0000 0.0000 24.8158 0.0000
# 6 0.0000 0.0000 0.0000 0.0000 0.0000 12.2450
#
#
#
# Elastic Compliance Matrix: (Units=1/GPa)
#
#
# Indices 1 2 3 4 5 6 
#
# 1 0.012585 -0.003388 -0.002812 0.000000 0.000000 0.000000
# 2 -0.003388 0.017535 -0.003200 0.000000 0.000000 0.000000
# 3 -0.002812 -0.003200 0.008470 0.000000 0.000000 0.000000
# 4 0.000000 0.000000 0.000000 0.035029 0.000000 0.000000
# 5 0.000000 0.000000 0.000000 0.000000 0.040297 0.000000
# 6 0.000000 0.000000 0.000000 0.000000 0.000000 0.081666
#
#
# Mechanical properties :
#
#
# Convention : Reuss Voigt Hill
#
# Bulk Modulus (GPa) = 50.53623 57.08319 53.80971
# Shear Modulus (GPa) = 22.62636 26.90926 24.76781
#
# Velocity S-wave (km/s) = 3.55392 3.87571 3.71830
# Velocity P-wave (km/s) = 6.71197 7.20367 6.96217
#
# Compressibility (1/GPa) = 0.01978778
#
# Stress axis : x y z
#
# Youngs Moduli (GPa) = 79.45659 57.02871 118.06758
#
# Poissons Ratio (x) = 0.19324 0.33205
# Poissons Ratio (y) = 0.26923 0.37787
# Poissons Ratio (z) = 0.22346 0.18252
#
# Static dielectric constant tensor:
#      x y z
#    x 1.632070 0.000000 0.000000 
#    y 0.000000 1.619570 0.000000 
#    z 0.000000 0.000000 1.656960 
# 
# From -- ./inp_files/4716.got.cif
#   From: 2010.05.17/outbox.cif.g08.bks.cpg/sg67_3_cif.got.tgz:4716.got - 2010.06.03 18:28:57.
