data_PCOD9502250
_publ_section_title
;
Structure prediction by ZEFSAII (Michael W. Deem and Ramdas Pophale) SiO2 
 PCOD9502250
Probable space group: C M M A
;
_chemical_formula_sum "Si O2"
_cell_formula_units_Z 64
_cell_length_a 8.710075
_cell_length_b 31.576873
_cell_length_c 15.686532
_cell_angle_alpha 90.000000
_cell_angle_beta 90.000000
_cell_angle_gamma 90.000000
_cell_volume 4314.375636
_symmetry_space_group_name_H-M "C M M A"
_symmetry_group_IT_number 67
_symmetry_cell_setting 'orthorhombic'
loop_
_space_group_symop_operation_xyz
x,y,z
-x,1/2-y,z
x,-y,-z
-x,1/2+y,-z
-x,-y,-z
x,1/2+y,-z
-x,y,z
x,1/2-y,z
1/2+x,1/2+y,z
1/2-x,-y,z
1/2+x,1/2-y,-z
1/2-x,y,-z
1/2-x,1/2-y,-z
1/2+x,y,-z
1/2-x,1/2+y,z
1/2+x,-y,z
loop_
_atom_site_type_symbol
_atom_site_label
_atom_site_fract_x
_atom_site_fract_y
_atom_site_fract_z
Si Si1 0.815554 0.547635 0.775749
Si Si2 0.315830 0.203648 0.903793
Si Si3 0.183027 0.452354 0.414289
Si Si4 0.316754 0.116059 0.095863
O O1 0.750000 0.500000 0.783188
O O2 0.779430 0.564631 0.679959
O O3 0.743524 0.578030 0.846074
O O4 0.000000 0.546148 0.784363
O O5 0.500000 0.199258 0.907032
O O6 0.279953 0.250000 0.865034
O O7 0.243035 0.161017 0.866856
O O8 0.250000 0.205001 0.000000
O O9 0.250000 0.500000 0.412567
O O10 0.250000 0.431527 0.500000
O O11 0.000000 0.454493 0.422309
O O12 0.500000 0.116353 0.091404
O O13 0.250000 0.111921 0.000000
#
# Coordination Sequence:
#
# PCOD9502250 Si02
#       4
#    16  16  16  16
#     4  10  20  33  46  63  87 116 150 184 217 254
#     4   9  16  27  44  64  85 109 138 175 218 260
#     4   9  16  26  43  63  84 108 136 174 216 258
#     4  11  21  32  46  63  86 117 150 184 218 255
#
# _framework density 14.834128
#
# number of rings (size 3 to 8) (size 9 to 14) (size 15 to 20)
#    0.000    2.250    0.000    6.750    0.000    5.000 
#    0.000    2.500    0.000    0.000    0.000    0.000 
#    0.000    1.000    0.000    3.250    0.000    5.000 
#
# Total GULP energy -178172.915238 kJ/mol
# GULP energy per Si atom -5567.903601 kJ/mol
# Density = 1.480036 g / cm^3
# Si number density = 14.834128 Si / 1000 Ang^3
#
#
#
# Elastic Constant Matrix: (Units=GPa)
#
#
# Indices 1 2 3 4 5 6 
#
# 1 98.9707 44.6032 45.8087 0.0000 0.0000 0.0000
# 2 44.6032 95.9281 51.8596 0.0000 0.0000 0.0000
# 3 45.8087 51.8596 85.8021 0.0000 0.0000 0.0000
# 4 0.0000 0.0000 0.0000 -0.8377 0.0000 0.0000
# 5 0.0000 0.0000 0.0000 0.0000 21.0741 0.0000
# 6 0.0000 0.0000 0.0000 0.0000 0.0000 22.3259
#
#
#
# Elastic Compliance Matrix: (Units=1/GPa)
#
#
# Indices 1 2 3 4 5 6 
#
# 1 0.014269 -0.003737 -0.005359 0.000000 0.000000 0.000000
# 2 -0.003737 0.016463 -0.007955 0.000000 0.000000 0.000000
# 3 -0.005359 -0.007955 0.019324 0.000000 0.000000 0.000000
# 4 0.000000 0.000000 0.000000 -1.193814 0.000000 0.000000
# 5 0.000000 0.000000 0.000000 0.000000 0.047452 0.000000
# 6 0.000000 0.000000 0.000000 0.000000 0.000000 0.044791
#
#
# Mechanical properties :
#
#
# Convention : Reuss Voigt Hill
#
# Bulk Modulus (GPa) = 62.68497 62.80488 62.74492
# Shear Modulus (GPa) = -4.94024 17.74110 6.40043
#
# Velocity S-wave (km/s) = -1.82690 3.46202 2.07943
# Velocity P-wave (km/s) = 6.15621 7.64270 6.93937
#
# Compressibility (1/GPa) = 0.01595279
#
# Stress axis : x y z
#
# Youngs Moduli (GPa) = 70.08325 60.74339 51.74948
#
# Poissons Ratio (x) = 0.22702 0.27733
# Poissons Ratio (y) = 0.26192 0.41166
# Poissons Ratio (z) = 0.37558 0.48321
#
# Static dielectric constant tensor:
#      x y z
#    x 1.492980 0.000000 0.000000 
#    y 0.000000 1.501200 0.000000 
#    z 0.000000 0.000000 1.510790 
# 
# From -- ./inp_files/25206.got.cif
#   From: 2010.05.17/outbox.cif.g08.bks.cpg/sg67_13_cif.got.tgz:25206.got - 2010.06.03 18:28:57.
