data_PCOD9502687
_publ_section_title
;
Structure prediction by ZEFSAII (Michael W. Deem and Ramdas Pophale) SiO2 
 PCOD9502687
Probable space group: C M M A
;
_chemical_formula_sum "Si O2"
_cell_formula_units_Z 80
_cell_length_a 18.977494
_cell_length_b 8.788923
_cell_length_c 26.811455
_cell_angle_alpha 90.000000
_cell_angle_beta 90.000000
_cell_angle_gamma 90.000000
_cell_volume 4471.929057
_symmetry_space_group_name_H-M "C M M A"
_symmetry_group_IT_number 67
_symmetry_cell_setting 'orthorhombic'
loop_
_space_group_symop_operation_xyz
x,y,z
-x,1/2-y,z
x,-y,-z
-x,1/2+y,-z
-x,-y,-z
x,1/2+y,-z
-x,y,z
x,1/2-y,z
1/2+x,1/2+y,z
1/2-x,-y,z
1/2+x,1/2-y,-z
1/2-x,y,-z
1/2-x,1/2-y,-z
1/2+x,y,-z
1/2-x,1/2+y,z
1/2+x,-y,z
loop_
_atom_site_type_symbol
_atom_site_label
_atom_site_fract_x
_atom_site_fract_y
_atom_site_fract_z
Si Si1 0.584043 0.069513 0.553679
Si Si2 0.170987 0.567674 0.746253
Si Si3 0.171043 0.068359 0.644418
Si Si4 0.328646 0.067893 0.856715
Si Si5 0.083218 0.431361 0.947047
O O1 0.500000 0.046896 0.560004
O O2 0.598138 0.250000 0.554229
O O3 0.603744 0.000000 0.500000
O O4 0.625717 0.988657 0.597936
O O5 0.173712 0.750000 0.740342
O O6 0.250000 0.500000 0.747972
O O7 0.139095 0.493903 0.696643
O O8 0.141108 0.532607 0.801213
O O9 0.175231 0.250000 0.645954
O O10 0.250000 0.000000 0.640010
O O11 0.324298 0.250000 0.860770
O O12 0.250000 0.000000 0.859863
O O13 0.375036 0.001186 0.900927
O O14 0.091983 0.250000 0.947958
O O15 0.000000 0.466092 0.941912
O O16 0.107102 0.500000 0.000000
#
# Coordination Sequence:
#
# PCOD9502687 Si02
#       5
#    16  16  16  16  16
#     4  10  21  38  58  79 106 139 175 216 264 316
#     4   9  17  31  51  76 106 139 173 212 261 310
#     4  11  21  34  55  81 109 140 177 218 260 309
#     4  10  20  34  55  81 108 138 174 216 260 310
#     4  10  21  37  56  77 104 138 175 216 263 314
#
# _framework density 17.889371000000001
#
# number of rings (size 3 to 8) (size 9 to 14) (size 15 to 20)
#    0.000    2.000    0.000    5.400    0.000    5.600 
#    0.000    5.000    0.000    1.200    0.000    0.000 
#    0.000    0.000    0.000    0.000    0.000    0.000 
#
# Total GULP energy -223219.092081 kJ/mol
# GULP energy per Si atom -5580.477302 kJ/mol
# Density = 1.784865 g / cm^3
# Si number density = 17.889371 Si / 1000 Ang^3
#
#
#
# Elastic Constant Matrix: (Units=GPa)
#
#
# Indices 1 2 3 4 5 6 
#
# 1 35.3917 45.2814 68.4270 0.0000 0.0000 0.0000
# 2 45.2814 115.5447 96.4523 0.0000 0.0000 0.0000
# 3 68.4270 96.4523 224.6572 0.0000 0.0000 0.0000
# 4 0.0000 0.0000 0.0000 36.4302 0.0000 0.0000
# 5 0.0000 0.0000 0.0000 0.0000 -139.9810 0.0000
# 6 0.0000 0.0000 0.0000 0.0000 0.0000 24.8861
#
#
#
# Elastic Compliance Matrix: (Units=1/GPa)
#
#
# Indices 1 2 3 4 5 6 
#
# 1 0.089781 -0.019260 -0.019077 0.000000 0.000000 0.000000
# 2 -0.019260 0.017621 -0.001699 0.000000 0.000000 0.000000
# 3 -0.019077 -0.001699 0.010991 0.000000 0.000000 0.000000
# 4 0.000000 0.000000 0.000000 0.027450 0.000000 0.000000
# 5 0.000000 0.000000 0.000000 0.000000 -0.007144 0.000000
# 6 0.000000 0.000000 0.000000 0.000000 0.000000 0.040183
#
#
# Mechanical properties :
#
#
# Convention : Reuss Voigt Hill
#
# Bulk Modulus (GPa) = 26.09516 88.43500 57.26508
# Shear Modulus (GPa) = 18.40078 -4.70408 6.84835
#
# Velocity S-wave (km/s) = 3.21064 -1.62335 1.95869
# Velocity P-wave (km/s) = 5.32568 6.78440 6.09881
#
# Compressibility (1/GPa) = 0.03832128
#
# Stress axis : x y z
#
# Youngs Moduli (GPa) = 11.13819 56.75149 90.98267
#
# Poissons Ratio (x) = 1.09304 1.73567
# Poissons Ratio (y) = 0.21452 0.15456
# Poissons Ratio (z) = 0.21248 0.09641
#
# Static dielectric constant tensor:
#      x y z
#    x 1.587430 0.000000 0.000000 
#    y 0.000000 1.594780 0.000000 
#    z 0.000000 0.000000 1.631120 
# 
# From -- ./inp_files/43256.got.cif
#   From: 2010.05.17/outbox.cif.g08.bks.cpg/sg67_22_cif.got.tgz:43256.got - 2010.06.03 18:28:57.
