data_PCOD9502260
_publ_section_title
;
Structure prediction by ZEFSAII (Michael W. Deem and Ramdas Pophale) SiO2 
 PCOD9502260
Probable space group: C M M A
;
_chemical_formula_sum "Si O2"
_cell_formula_units_Z 100
_cell_length_a 14.634873
_cell_length_b 26.293750
_cell_length_c 12.915481
_cell_angle_alpha 90.000000
_cell_angle_beta 90.000000
_cell_angle_gamma 90.000000
_cell_volume 4969.950603
_symmetry_space_group_name_H-M "C M M A"
_symmetry_group_IT_number 67
_symmetry_cell_setting 'orthorhombic'
loop_
_space_group_symop_operation_xyz
x,y,z
-x,1/2-y,z
x,-y,-z
-x,1/2+y,-z
-x,-y,-z
x,1/2+y,-z
-x,y,z
x,1/2-y,z
1/2+x,1/2+y,z
1/2-x,-y,z
1/2+x,1/2-y,-z
1/2-x,y,-z
1/2-x,1/2-y,-z
1/2+x,y,-z
1/2-x,1/2+y,z
1/2+x,-y,z
loop_
_atom_site_type_symbol
_atom_site_label
_atom_site_fract_x
_atom_site_fract_y
_atom_site_fract_z
Si Si1 0.111584 0.307771 0.319297
Si Si2 0.389255 0.604877 0.475622
Si Si3 0.609719 0.114540 0.851064
Si Si4 0.650671 0.976645 0.302390
Si Si5 0.888384 0.418246 0.922867
Si Si6 0.750000 0.000000 0.000000
Si Si7 0.601454 0.089748 0.299276
O O1 0.144059 0.250000 0.326550
O O2 0.137972 0.344528 0.413950
O O3 0.141640 0.337233 0.215268
O O4 0.000000 0.306504 0.318569
O O5 0.500000 0.604479 0.481532
O O6 0.366494 0.555898 0.405908
O O7 0.351032 0.602242 0.592141
O O8 0.500000 0.114411 0.844300
O O9 0.638274 0.063081 0.791257
O O10 0.631602 0.112731 0.972291
O O11 0.750000 0.000000 0.304031
O O12 0.593488 0.028352 0.294743
O O13 0.861666 0.394057 0.812634
O O14 0.000000 0.428944 0.921391
O O15 0.821088 0.466227 0.934376
O O16 0.500000 0.112280 0.304204
#
# Coordination Sequence:
#
# PCOD9502260 Si02
#       7
#    16  16  16  16  16   4  16
#     4   8  14  28  54  82 100 123 168 223 273 320
#     4   9  18  33  50  70 102 139 172 211 265 316
#     4   9  18  33  50  72 106 137 169 219 270 313
#     4  11  21  29  44  71 102 134 175 214 251 297
#     4  10  22  35  49  73 107 146 185 223 262 315
#     4  12  22  32  52  74 104 148 198 216 260 300
#     4  10  20  33  47  65  98 144 177 203 254 317
#
# _framework density 20.120925
#
# number of rings (size 3 to 8) (size 9 to 14) (size 15 to 20)
#    0.000    2.400    0.000    4.080    4.480    5.120 
#    0.000    0.000    0.000    0.960    0.000   16.240 
#    0.000    0.000    0.000    0.000    0.000   17.440 
#
# Total GULP energy -278860.629545 kJ/mol
# GULP energy per Si atom -5577.212591 kJ/mol
# Density = 2.007513 g / cm^3
# Si number density = 20.120925 Si / 1000 Ang^3
#
#
#
# Elastic Constant Matrix: (Units=GPa)
#
#
# Indices 1 2 3 4 5 6 
#
# 1 53.7778 2.7891 9.2525 0.0000 0.0000 0.0000
# 2 2.7891 98.9871 68.8301 0.0000 0.0000 0.0000
# 3 9.2525 68.8301 223.9698 0.0000 0.0000 0.0000
# 4 0.0000 0.0000 0.0000 11.9312 0.0000 0.0000
# 5 0.0000 0.0000 0.0000 0.0000 25.0475 0.0000
# 6 0.0000 0.0000 0.0000 0.0000 0.0000 9.2732
#
#
#
# Elastic Compliance Matrix: (Units=1/GPa)
#
#
# Indices 1 2 3 4 5 6 
#
# 1 0.018728 0.000013 -0.000778 0.000000 0.000000 0.000000
# 2 0.000013 0.012848 -0.003949 0.000000 0.000000 0.000000
# 3 -0.000778 -0.003949 0.005711 0.000000 0.000000 0.000000
# 4 0.000000 0.000000 0.000000 0.083814 0.000000 0.000000
# 5 0.000000 0.000000 0.000000 0.000000 0.039924 0.000000
# 6 0.000000 0.000000 0.000000 0.000000 0.000000 0.107838
#
#
# Mechanical properties :
#
#
# Convention : Reuss Voigt Hill
#
# Bulk Modulus (GPa) = 35.89440 59.83091 47.86266
# Shear Modulus (GPa) = 17.38668 28.97457 23.18062
#
# Velocity S-wave (km/s) = 2.94276 3.79888 3.39789
# Velocity P-wave (km/s) = 5.42444 7.00301 6.26365
#
# Compressibility (1/GPa) = 0.02785950
#
# Stress axis : x y z
#
# Youngs Moduli (GPa) = 53.39550 77.83430 175.11326
#
# Poissons Ratio (x) = -0.00102 0.13619
# Poissons Ratio (y) = -0.00070 0.69151
# Poissons Ratio (z) = 0.04153 0.30736
#
# Static dielectric constant tensor:
#      x y z
#    x 1.836440 0.000000 0.000000 
#    y 0.000000 1.673210 0.000000 
#    z 0.000000 0.000000 1.789960 
# 
# From -- ./inp_files/28790.got.cif
#   From: 2010.05.17/outbox.cif.g08.bks.cpg/sg67_15_cif.got.tgz:28790.got - 2010.06.03 18:28:57.
