data_PCOD9502015
_publ_section_title
;
Structure prediction by ZEFSAII (Michael W. Deem and Ramdas Pophale) SiO2 
 PCOD9502015
Probable space group: C M M A
;
_chemical_formula_sum "Si O2"
_cell_formula_units_Z 80
_cell_length_a 9.593707
_cell_length_b 23.789619
_cell_length_c 20.827372
_cell_angle_alpha 90.000000
_cell_angle_beta 90.000000
_cell_angle_gamma 90.000000
_cell_volume 4753.444323
_symmetry_space_group_name_H-M "C M M A"
_symmetry_group_IT_number 67
_symmetry_cell_setting 'orthorhombic'
loop_
_space_group_symop_operation_xyz
x,y,z
-x,1/2-y,z
x,-y,-z
-x,1/2+y,-z
-x,-y,-z
x,1/2+y,-z
-x,y,z
x,1/2-y,z
1/2+x,1/2+y,z
1/2-x,-y,z
1/2+x,1/2-y,-z
1/2-x,y,-z
1/2-x,1/2-y,-z
1/2+x,y,-z
1/2-x,1/2+y,z
1/2+x,-y,z
loop_
_atom_site_type_symbol
_atom_site_label
_atom_site_fract_x
_atom_site_fract_y
_atom_site_fract_z
Si Si1 0.835681 0.183919 0.937106
Si Si2 0.166779 0.750000 0.735144
Si Si3 0.834480 0.557370 0.309603
Si Si4 0.665197 0.648579 0.797295
Si Si5 0.839435 0.250000 0.607428
Si Si6 0.837341 0.624616 0.438852
O O1 0.804013 0.250000 0.922304
O O2 0.808266 0.147579 0.873475
O O3 0.000000 0.180854 0.951144
O O4 0.750000 0.167796 0.000000
O O5 0.235329 0.803940 0.768670
O O6 0.225784 0.750000 0.663106
O O7 0.000000 0.750000 0.738102
O O8 0.750000 0.500000 0.310127
O O9 0.811145 0.592948 0.244586
O O10 0.796220 0.595538 0.371571
O O11 0.000000 0.546351 0.313897
O O12 0.500000 0.663968 0.789146
O O13 0.823991 0.307997 0.569208
O O14 0.000000 0.250000 0.633793
O O15 0.750000 0.605354 0.500000
O O16 0.000000 0.612248 0.449416
#
# Coordination Sequence:
#
# PCOD9502015 Si02
#       6
#    16   8  16  16   8  16
#     4   9  17  29  50  78 110 145 174 209 254 313
#     4  12  22  29  50  87 113 135 173 229 272 304
#     4  10  22  39  59  78 101 138 185 230 271 316
#     4  10  19  37  58  75 106 151 184 209 264 333
#     4  10  19  37  57  75 109 147 176 205 262 340
#     4  10  21  36  57  80 106 142 175 216 266 322
#
# _framework density 16.829901
#
# number of rings (size 3 to 8) (size 9 to 14) (size 15 to 20)
#    0.000    2.000    3.000    1.200    0.000    3.600 
#    0.000    2.000    0.000    0.600    0.000    4.200 
#    0.000    0.000    0.000    0.000    0.000    0.000 
#
# Total GULP energy -223080.405590 kJ/mol
# GULP energy per Si atom -5577.010140 kJ/mol
# Density = 1.679160 g / cm^3
# Si number density = 16.829901 Si / 1000 Ang^3
#
#
#
# Elastic Constant Matrix: (Units=GPa)
#
#
# Indices 1 2 3 4 5 6 
#
# 1 60.7979 47.4141 61.1455 0.0000 0.0000 0.0000
# 2 47.4141 90.7161 51.9481 0.0000 0.0000 0.0000
# 3 61.1455 51.9481 145.0927 0.0000 0.0000 0.0000
# 4 0.0000 0.0000 0.0000 12.0588 0.0000 0.0000
# 5 0.0000 0.0000 0.0000 0.0000 29.7943 0.0000
# 6 0.0000 0.0000 0.0000 0.0000 0.0000 23.3425
#
#
#
# Elastic Compliance Matrix: (Units=1/GPa)
#
#
# Indices 1 2 3 4 5 6 
#
# 1 0.038465 -0.013613 -0.011336 0.000000 0.000000 0.000000
# 2 -0.013613 0.018684 -0.000953 0.000000 0.000000 0.000000
# 3 -0.011336 -0.000953 0.012011 0.000000 0.000000 0.000000
# 4 0.000000 0.000000 0.000000 0.082927 0.000000 0.000000
# 5 0.000000 0.000000 0.000000 0.000000 0.033563 0.000000
# 6 0.000000 0.000000 0.000000 0.000000 0.000000 0.042840
#
#
# Mechanical properties :
#
#
# Convention : Reuss Voigt Hill
#
# Bulk Modulus (GPa) = 57.61649 68.62468 63.12058
# Shear Modulus (GPa) = 17.47770 22.11240 19.79505
#
# Velocity S-wave (km/s) = 3.22606 3.62867 3.43327
# Velocity P-wave (km/s) = 6.94158 7.64332 7.30089
#
# Compressibility (1/GPa) = 0.01735614
#
# Stress axis : x y z
#
# Youngs Moduli (GPa) = 25.99766 53.52215 83.25959
#
# Poissons Ratio (x) = 0.72858 0.94385
# Poissons Ratio (y) = 0.35390 0.07933
# Poissons Ratio (z) = 0.29472 0.05099
#
# Static dielectric constant tensor:
#      x y z
#    x 1.557760 0.000000 0.000000 
#    y 0.000000 1.557040 0.000000 
#    z 0.000000 0.000000 1.576730 
# 
# From -- ./inp_files/36873.got.cif
#   From: 2010.05.17/outbox.cif.g08.bks.cpg/sg67_19_cif.got.tgz:36873.got - 2010.06.03 18:28:57.
