data_PCOD9502874
_publ_section_title
;
Structure prediction by ZEFSAII (Michael W. Deem and Ramdas Pophale) SiO2 
 PCOD9502874
Probable space group: C M M A
;
_chemical_formula_sum "Si O2"
_cell_formula_units_Z 100
_cell_length_a 7.646986
_cell_length_b 25.755133
_cell_length_c 20.597990
_cell_angle_alpha 90.000000
_cell_angle_beta 90.000000
_cell_angle_gamma 90.000000
_cell_volume 4056.756447
_symmetry_space_group_name_H-M "C M M A"
_symmetry_group_IT_number 67
_symmetry_cell_setting 'orthorhombic'
loop_
_space_group_symop_operation_xyz
x,y,z
-x,1/2-y,z
x,-y,-z
-x,1/2+y,-z
-x,-y,-z
x,1/2+y,-z
-x,y,z
x,1/2-y,z
1/2+x,1/2+y,z
1/2-x,-y,z
1/2+x,1/2-y,-z
1/2-x,y,-z
1/2-x,1/2-y,-z
1/2+x,y,-z
1/2-x,1/2+y,z
1/2+x,-y,z
loop_
_atom_site_type_symbol
_atom_site_label
_atom_site_fract_x
_atom_site_fract_y
_atom_site_fract_z
Si Si1 0.709369 0.193557 0.423374
Si Si2 0.250000 0.000000 0.500000
Si Si3 0.694237 0.331212 0.071701
Si Si4 0.288701 0.080795 0.248069
Si Si5 0.802677 0.056929 0.103768
Si Si6 0.785843 0.694362 0.211921
Si Si7 0.284642 0.422906 0.390999
O O1 0.500000 0.194208 0.413366
O O2 0.775993 0.250000 0.399159
O O3 0.750000 0.192379 0.500000
O O4 0.766558 0.137659 0.397072
O O5 0.193001 0.957344 0.554134
O O6 0.500000 0.311433 0.077620
O O7 0.696301 0.393868 0.078383
O O8 0.782143 0.311364 0.137686
O O9 0.750000 0.316764 0.000000
O O10 0.500000 0.077583 0.241859
O O11 0.211973 0.057324 0.182290
O O12 0.236403 0.141582 0.247127
O O13 0.240316 0.059384 0.318174
O O14 0.000000 0.067676 0.084102
O O15 0.750000 0.000000 0.080877
O O16 0.731004 0.750000 0.238432
O O17 0.000000 0.693706 0.212431
O O18 0.500000 0.426931 0.400048
#
# Coordination Sequence:
#
# PCOD9502874 Si02
#       7
#    16   4  16  16  16  16  16
#     4   9  17  32  53  76 103 136 176 225 278 334
#     4  12  22  36  50  78 116 160 192 234 290 352
#     4  10  20  35  55  83 119 155 193 235 279 334
#     4   9  19  36  56  80 110 143 186 238 286 341
#     4  11  22  38  58  81 109 145 191 239 291 342
#     4   8  15  30  54  82 112 146 186 234 285 335
#     4  10  21  36  54  79 111 147 191 236 289 353
#
# _framework density 24.650234000000001
#
# number of rings (size 3 to 8) (size 9 to 14) (size 15 to 20)
#    0.000    2.400    0.800    3.120    1.120    1.280 
#    0.000    6.400    0.000   11.520    0.000    0.000 
#    0.000    0.000    0.000    0.000    0.000    0.000 
#
# Total GULP energy -278975.623873 kJ/mol
# GULP energy per Si atom -5579.512477 kJ/mol
# Density = 2.459413 g / cm^3
# Si number density = 24.650234 Si / 1000 Ang^3
#
#
#
# Elastic Constant Matrix: (Units=GPa)
#
#
# Indices 1 2 3 4 5 6 
#
# 1 62.5487 3.9420 5.8507 0.0000 0.0000 0.0000
# 2 3.9420 176.1636 19.3711 0.0000 0.0000 0.0000
# 3 5.8507 19.3711 129.4363 0.0000 0.0000 0.0000
# 4 0.0000 0.0000 0.0000 -36.6322 0.0000 0.0000
# 5 0.0000 0.0000 0.0000 0.0000 -31.3983 0.0000
# 6 0.0000 0.0000 0.0000 0.0000 0.0000 1.0859
#
#
#
# Elastic Compliance Matrix: (Units=1/GPa)
#
#
# Indices 1 2 3 4 5 6 
#
# 1 0.016069 -0.000284 -0.000684 0.000000 0.000000 0.000000
# 2 -0.000284 0.005777 -0.000852 0.000000 0.000000 0.000000
# 3 -0.000684 -0.000852 0.007884 0.000000 0.000000 0.000000
# 4 0.000000 0.000000 0.000000 -0.027298 0.000000 0.000000
# 5 0.000000 0.000000 0.000000 0.000000 -0.031849 0.000000
# 6 0.000000 0.000000 0.000000 0.000000 0.000000 0.920878
#
#
# Mechanical properties :
#
#
# Convention : Reuss Voigt Hill
#
# Bulk Modulus (GPa) = 38.32819 47.38625 42.85722
# Shear Modulus (GPa) = 5.53221 9.21008 7.37115
#
# Velocity S-wave (km/s) = 1.49972 1.93505 1.73112
# Velocity P-wave (km/s) = 4.31062 4.92521 4.62813
#
# Compressibility (1/GPa) = 0.02609046
#
# Stress axis : x y z
#
# Youngs Moduli (GPa) = 62.23002 173.11362 126.83642
#
# Poissons Ratio (x) = 0.04923 0.08673
# Poissons Ratio (y) = 0.01770 0.10802
# Poissons Ratio (z) = 0.04255 0.14743
#
# Static dielectric constant tensor:
#      x y z
#    x 1.956720 0.000000 0.000000 
#    y 0.000000 1.955820 0.000000 
#    z 0.000000 0.000000 1.936110 
# 
# From -- ./inp_files/37352.got.cif
#   From: 2010.05.17/outbox.cif.g08.bks.cpg/sg67_19_cif.got.tgz:37352.got - 2010.06.03 18:28:57.
