data_PCOD9502467
_publ_section_title
;
Structure prediction by ZEFSAII (Michael W. Deem and Ramdas Pophale) SiO2 
 PCOD9502467
Probable space group: C M M A
;
_chemical_formula_sum "Si O2"
_cell_formula_units_Z 80
_cell_length_a 27.887562
_cell_length_b 8.666973
_cell_length_c 19.156294
_cell_angle_alpha 90.000000
_cell_angle_beta 90.000000
_cell_angle_gamma 90.000000
_cell_volume 4630.090567
_symmetry_space_group_name_H-M "C M M A"
_symmetry_group_IT_number 67
_symmetry_cell_setting 'orthorhombic'
loop_
_space_group_symop_operation_xyz
x,y,z
-x,1/2-y,z
x,-y,-z
-x,1/2+y,-z
-x,-y,-z
x,1/2+y,-z
-x,y,z
x,1/2-y,z
1/2+x,1/2+y,z
1/2-x,-y,z
1/2+x,1/2-y,-z
1/2-x,y,-z
1/2-x,1/2-y,-z
1/2+x,y,-z
1/2-x,1/2+y,z
1/2+x,-y,z
loop_
_atom_site_type_symbol
_atom_site_label
_atom_site_fract_x
_atom_site_fract_y
_atom_site_fract_z
Si Si1 0.352094 0.933937 0.211067
Si Si2 0.898035 0.934698 0.425082
Si Si3 0.803662 0.434637 0.925072
Si Si4 0.198134 0.064524 0.651987
Si Si5 0.945196 0.563618 0.280668
O O1 0.347841 0.750000 0.208475
O O2 0.336100 0.007195 0.138231
O O3 0.318160 0.999135 0.272875
O O4 0.405691 0.984467 0.232269
O O5 0.898993 0.750000 0.429194
O O6 0.844131 0.981020 0.401669
O O7 0.932093 0.979995 0.360570
O O8 0.911120 0.000000 0.500000
O O9 0.801894 0.250000 0.927224
O O10 0.750000 0.500000 0.913638
O O11 0.819911 0.500000 0.000000
O O12 0.199411 0.250000 0.655902
O O13 0.250000 0.000000 0.632833
O O14 0.939437 0.750000 0.275562
O O15 0.000000 0.524579 0.264511
#
# Coordination Sequence:
#
# PCOD9502467 Si02
#       5
#    16  16  16  16  16
#     4  11  21  34  53  78 106 136 172 213 256 303
#     4   9  19  33  49  71 100 132 167 209 257 310
#     4  11  21  35  54  80 113 146 178 210 249 295
#     4  10  20  34  50  71  99 134 174 213 256 304
#     4   9  19  37  57  76 100 132 170 213 262 311
#
# _framework density 17.278281
#
# number of rings (size 3 to 8) (size 9 to 14) (size 15 to 20)
#    0.000    2.000    0.000    6.600    0.000    5.200 
#    0.000    2.000    0.000    0.600    0.000    0.000 
#    0.000    0.000    0.000    0.000    0.000    0.000 
#
# Total GULP energy -223356.450833 kJ/mol
# GULP energy per Si atom -5583.911271 kJ/mol
# Density = 1.723895 g / cm^3
# Si number density = 17.278281 Si / 1000 Ang^3
#
#
#
# Elastic Constant Matrix: (Units=GPa)
#
#
# Indices 1 2 3 4 5 6 
#
# 1 52.0404 20.7804 17.0368 0.0000 0.0000 0.0000
# 2 20.7804 86.9128 31.0470 0.0000 0.0000 0.0000
# 3 17.0368 31.0470 107.7696 0.0000 0.0000 0.0000
# 4 0.0000 0.0000 0.0000 30.2221 0.0000 0.0000
# 5 0.0000 0.0000 0.0000 0.0000 8.1322 0.0000
# 6 0.0000 0.0000 0.0000 0.0000 0.0000 36.6082
#
#
#
# Elastic Compliance Matrix: (Units=1/GPa)
#
#
# Indices 1 2 3 4 5 6 
#
# 1 0.021684 -0.004414 -0.002156 0.000000 0.000000 0.000000
# 2 -0.004414 0.013724 -0.003256 0.000000 0.000000 0.000000
# 3 -0.002156 -0.003256 0.010558 0.000000 0.000000 0.000000
# 4 0.000000 0.000000 0.000000 0.033088 0.000000 0.000000
# 5 0.000000 0.000000 0.000000 0.000000 0.122969 0.000000
# 6 0.000000 0.000000 0.000000 0.000000 0.000000 0.027316
#
#
# Mechanical properties :
#
#
# Convention : Reuss Voigt Hill
#
# Bulk Modulus (GPa) = 38.00326 42.71680 40.36003
# Shear Modulus (GPa) = 19.39757 26.84974 23.12366
#
# Velocity S-wave (km/s) = 3.35424 3.94631 3.66226
# Velocity P-wave (km/s) = 6.08636 6.74840 6.42591
#
# Compressibility (1/GPa) = 0.02631353
#
# Stress axis : x y z
#
# Youngs Moduli (GPa) = 46.11590 72.86326 94.71561
#
# Poissons Ratio (x) = 0.32165 0.20423
# Poissons Ratio (y) = 0.20357 0.30839
# Poissons Ratio (z) = 0.09944 0.23724
#
# Static dielectric constant tensor:
#      x y z
#    x 1.577230 0.000000 0.000000 
#    y 0.000000 1.580290 0.000000 
#    z 0.000000 0.000000 1.569480 
# 
# From -- ./inp_files/32135.got.cif
#   From: 2010.05.17/outbox.cif.g08.bks.cpg/sg67_17_cif.got.tgz:32135.got - 2010.06.03 18:28:57.
