data_PCOD9502883
_publ_section_title
;
Structure prediction by ZEFSAII (Michael W. Deem and Ramdas Pophale) SiO2 
 PCOD9502883
Probable space group: C M M A
;
_chemical_formula_sum "Si O2"
_cell_formula_units_Z 80
_cell_length_a 8.889856
_cell_length_b 19.678499
_cell_length_c 25.612908
_cell_angle_alpha 90.000000
_cell_angle_beta 90.000000
_cell_angle_gamma 90.000000
_cell_volume 4480.697086
_symmetry_space_group_name_H-M "C M M A"
_symmetry_group_IT_number 67
_symmetry_cell_setting 'orthorhombic'
loop_
_space_group_symop_operation_xyz
x,y,z
-x,1/2-y,z
x,-y,-z
-x,1/2+y,-z
-x,-y,-z
x,1/2+y,-z
-x,y,z
x,1/2-y,z
1/2+x,1/2+y,z
1/2-x,-y,z
1/2+x,1/2-y,-z
1/2-x,y,-z
1/2-x,1/2-y,-z
1/2+x,y,-z
1/2-x,1/2+y,z
1/2+x,-y,z
loop_
_atom_site_type_symbol
_atom_site_label
_atom_site_fract_x
_atom_site_fract_y
_atom_site_fract_z
Si Si1 0.179776 0.426564 0.858469
Si Si2 0.179524 0.926485 0.263203
Si Si3 0.821220 0.169435 0.055460
Si Si4 0.319323 0.072515 0.556766
Si Si5 0.181030 0.828737 0.651675
O O1 0.250000 0.500000 0.870591
O O2 0.215019 0.411792 0.797623
O O3 0.248063 0.371715 0.897441
O O4 0.000000 0.429236 0.863904
O O5 0.244894 0.869131 0.300730
O O6 0.000000 0.930675 0.268760
O O7 0.250000 0.000000 0.276200
O O8 0.793187 0.250000 0.061906
O O9 0.000000 0.158397 0.054244
O O10 0.750000 0.148656 0.000000
O O11 0.500000 0.066238 0.552731
O O12 0.250000 0.087584 0.500000
O O13 0.282433 0.130332 0.598742
O O14 0.250000 0.000000 0.573628
O O15 0.227274 0.750000 0.649433
O O16 0.000000 0.831008 0.657625
#
# Coordination Sequence:
#
# PCOD9502883 Si02
#       5
#    16  16  16  16  16
#     4  10  21  37  57  82 111 141 179 226 272 320
#     4  10  21  37  58  82 108 142 182 224 270 321
#     4  10  21  37  57  81 110 145 183 222 268 322
#     4  10  20  35  56  80 106 139 180 223 268 319
#     4  10  22  38  55  79 112 146 180 222 271 321
#
# _framework density 17.854364
#
# number of rings (size 3 to 8) (size 9 to 14) (size 15 to 20)
#    0.000    2.000    0.000    3.600    0.000    8.800 
#    0.000    6.000    0.000    0.000    0.000    0.000 
#    0.000    0.000    0.000    0.000    0.000    0.000 
#
# Total GULP energy -223438.355847 kJ/mol
# GULP energy per Si atom -5585.958896 kJ/mol
# Density = 1.781373 g / cm^3
# Si number density = 17.854364 Si / 1000 Ang^3
#
#
#
# Elastic Constant Matrix: (Units=GPa)
#
#
# Indices 1 2 3 4 5 6 
#
# 1 62.6903 69.8321 65.4811 0.0000 0.0000 0.0000
# 2 69.8321 149.2805 112.4287 0.0000 0.0000 0.0000
# 3 65.4811 112.4287 121.9325 0.0000 0.0000 0.0000
# 4 0.0000 0.0000 0.0000 110.2441 0.0000 0.0000
# 5 0.0000 0.0000 0.0000 0.0000 32.0289 0.0000
# 6 0.0000 0.0000 0.0000 0.0000 0.0000 29.5985
#
#
#
# Elastic Compliance Matrix: (Units=1/GPa)
#
#
# Indices 1 2 3 4 5 6 
#
# 1 0.039115 -0.008108 -0.013530 0.000000 0.000000 0.000000
# 2 -0.008108 0.023603 -0.017410 0.000000 0.000000 0.000000
# 3 -0.013530 -0.017410 0.031520 0.000000 0.000000 0.000000
# 4 0.000000 0.000000 0.000000 0.009071 0.000000 0.000000
# 5 0.000000 0.000000 0.000000 0.000000 0.031222 0.000000
# 6 0.000000 0.000000 0.000000 0.000000 0.000000 0.033785
#
#
# Mechanical properties :
#
#
# Convention : Reuss Voigt Hill
#
# Bulk Modulus (GPa) = 61.94387 92.15414 77.04900
# Shear Modulus (GPa) = 19.85759 40.11838 29.98798
#
# Velocity S-wave (km/s) = 3.33858 4.74537 4.10272
# Velocity P-wave (km/s) = 7.04491 9.04163 8.10500
#
# Compressibility (1/GPa) = 0.01614365
#
# Stress axis : x y z
#
# Youngs Moduli (GPa) = 25.56538 42.36708 31.72588
#
# Poissons Ratio (x) = 0.34350 0.42926
# Poissons Ratio (y) = 0.20727 0.55233
# Poissons Ratio (z) = 0.34591 0.73759
#
# Static dielectric constant tensor:
#      x y z
#    x 1.597060 0.000000 0.000000 
#    y 0.000000 1.581720 0.000000 
#    z 0.000000 0.000000 1.593920 
# 
# From -- ./inp_files/43209.got.cif
#   From: 2010.05.17/outbox.cif.g08.bks.cpg/sg67_22_cif.got.tgz:43209.got - 2010.06.03 18:28:57.
