data_PCOD9502206
_publ_section_title
;
Structure prediction by ZEFSAII (Michael W. Deem and Ramdas Pophale) SiO2 
 PCOD9502206
Probable space group: C M M A
;
_chemical_formula_sum "Si O2"
_cell_formula_units_Z 80
_cell_length_a 8.833407
_cell_length_b 27.904931
_cell_length_c 19.198906
_cell_angle_alpha 90.000000
_cell_angle_beta 90.000000
_cell_angle_gamma 90.000000
_cell_volume 4732.446100
_symmetry_space_group_name_H-M "C M M A"
_symmetry_group_IT_number 67
_symmetry_cell_setting 'orthorhombic'
loop_
_space_group_symop_operation_xyz
x,y,z
-x,1/2-y,z
x,-y,-z
-x,1/2+y,-z
-x,-y,-z
x,1/2+y,-z
-x,y,z
x,1/2-y,z
1/2+x,1/2+y,z
1/2-x,-y,z
1/2+x,1/2-y,-z
1/2-x,y,-z
1/2-x,1/2-y,-z
1/2+x,y,-z
1/2-x,1/2+y,z
1/2+x,-y,z
loop_
_atom_site_type_symbol
_atom_site_label
_atom_site_fract_x
_atom_site_fract_y
_atom_site_fract_z
Si Si1 0.817282 0.195350 0.281593
Si Si2 0.681414 0.553017 0.927479
Si Si3 0.181001 0.102403 0.782705
Si Si4 0.681629 0.051238 0.649697
Si Si5 0.181201 0.351849 0.426192
O O1 0.776593 0.250000 0.265734
O O2 0.740652 0.155574 0.233410
O O3 0.775170 0.181815 0.361260
O O4 0.000000 0.190340 0.276627
O O5 0.500000 0.549406 0.933537
O O6 0.750000 0.500000 0.917119
O O7 0.718522 0.584667 0.860137
O O8 0.750000 0.571707 0.000000
O O9 0.257064 0.068034 0.725015
O O10 0.000000 0.100307 0.773900
O O11 0.500000 0.048607 0.652231
O O12 0.724961 0.094080 0.596912
O O13 0.750000 0.000000 0.630872
O O14 0.250000 0.338640 0.500000
O O15 0.000000 0.350451 0.431561
#
# Coordination Sequence:
#
# PCOD9502206 Si02
#       5
#    16  16  16  16  16
#     4   9  19  36  55  74  97 127 163 203 250 300
#     4  10  20  32  49  75 106 137 167 198 234 281
#     4  10  20  33  51  76 102 129 164 205 246 289
#     4  10  20  33  49  70  97 131 168 204 243 291
#     4   9  19  33  48  69  97 127 161 201 245 295
#
# _framework density 16.904577
#
# number of rings (size 3 to 8) (size 9 to 14) (size 15 to 20)
#    0.000    2.400    0.000    4.200    0.000   10.000 
#    0.000    2.000    0.000    0.600    0.000    0.000 
#    0.000    0.000    0.000    0.000    0.000    0.000 
#
# Total GULP energy -223186.127302 kJ/mol
# GULP energy per Si atom -5579.653183 kJ/mol
# Density = 1.686610 g / cm^3
# Si number density = 16.904577 Si / 1000 Ang^3
#
#
#
# Elastic Constant Matrix: (Units=GPa)
#
#
# Indices 1 2 3 4 5 6 
#
# 1 33.8986 16.9880 27.5246 0.0000 0.0000 0.0000
# 2 16.9880 59.3679 16.8146 0.0000 0.0000 0.0000
# 3 27.5246 16.8146 100.6798 0.0000 0.0000 0.0000
# 4 0.0000 0.0000 0.0000 8.6922 0.0000 0.0000
# 5 0.0000 0.0000 0.0000 0.0000 29.1582 0.0000
# 6 0.0000 0.0000 0.0000 0.0000 0.0000 -12.7894
#
#
#
# Elastic Compliance Matrix: (Units=1/GPa)
#
#
# Indices 1 2 3 4 5 6 
#
# 1 0.042267 -0.009260 -0.010009 0.000000 0.000000 0.000000
# 2 -0.009260 0.019709 -0.000760 0.000000 0.000000 0.000000
# 3 -0.010009 -0.000760 0.012796 0.000000 0.000000 0.000000
# 4 0.000000 0.000000 0.000000 0.115045 0.000000 0.000000
# 5 0.000000 0.000000 0.000000 0.000000 0.034296 0.000000
# 6 0.000000 0.000000 0.000000 0.000000 0.000000 -0.078190
#
#
# Mechanical properties :
#
#
# Convention : Reuss Voigt Hill
#
# Bulk Modulus (GPa) = 28.80652 35.17784 31.99218
# Shear Modulus (GPa) = 25.30977 13.85348 19.58163
#
# Velocity S-wave (km/s) = 3.87358 2.86582 3.40716
# Velocity P-wave (km/s) = 6.08965 5.63962 5.86895
#
# Compressibility (1/GPa) = 0.03471437
#
# Stress axis : x y z
#
# Youngs Moduli (GPa) = 23.65904 50.73794 78.15128
#
# Poissons Ratio (x) = 0.46983 0.78220
# Poissons Ratio (y) = 0.21908 0.05940
# Poissons Ratio (z) = 0.23680 0.03857
#
# Static dielectric constant tensor:
#      x y z
#    x 1.568020 0.000000 0.000000 
#    y 0.000000 1.560270 0.000000 
#    z 0.000000 0.000000 1.558520 
# 
# From -- ./inp_files/32119.got.cif
#   From: 2010.05.17/outbox.cif.g08.bks.cpg/sg67_17_cif.got.tgz:32119.got - 2010.06.03 18:28:57.
