data_PCOD9502268
_publ_section_title
;
Structure prediction by ZEFSAII (Michael W. Deem and Ramdas Pophale) SiO2 
 PCOD9502268
Probable space group: C M M A
;
_chemical_formula_sum "Si O2"
_cell_formula_units_Z 64
_cell_length_a 27.880663
_cell_length_b 8.612634
_cell_length_c 14.575720
_cell_angle_alpha 90.000000
_cell_angle_beta 90.000000
_cell_angle_gamma 90.000000
_cell_volume 3500.008555
_symmetry_space_group_name_H-M "C M M A"
_symmetry_group_IT_number 67
_symmetry_cell_setting 'orthorhombic'
loop_
_space_group_symop_operation_xyz
x,y,z
-x,1/2-y,z
x,-y,-z
-x,1/2+y,-z
-x,-y,-z
x,1/2+y,-z
-x,y,z
x,1/2-y,z
1/2+x,1/2+y,z
1/2-x,-y,z
1/2+x,1/2-y,-z
1/2-x,y,-z
1/2-x,1/2-y,-z
1/2+x,y,-z
1/2-x,1/2+y,z
1/2+x,-y,z
loop_
_atom_site_type_symbol
_atom_site_label
_atom_site_fract_x
_atom_site_fract_y
_atom_site_fract_z
Si Si1 0.380448 0.430221 0.742052
Si Si2 0.803610 0.935597 0.399247
Si Si3 0.554517 0.936353 0.896855
Si Si4 0.057106 0.426779 0.596057
O O1 0.369472 0.250000 0.754539
O O2 0.337338 0.509884 0.684741
O O3 0.401562 0.501959 0.835482
O O4 0.424718 0.459765 0.673753
O O5 0.802739 0.750000 0.404108
O O6 0.818982 0.000000 0.500000
O O7 0.750000 0.000000 0.384570
O O8 0.500000 0.980685 0.864037
O O9 0.556101 0.750000 0.896340
O O10 0.558650 0.000000 0.000000
O O11 0.071924 0.500000 0.500000
O O12 0.075635 0.250000 0.608403
O O13 0.000000 0.418114 0.597452
#
# Coordination Sequence:
#
# PCOD9502268 Si02
#       4
#    16  16  16  16
#     4  12  23  35  54  80 109 144 185 227 274 327
#     4  11  22  39  60  84 114 147 186 231 280 333
#     4  10  21  38  59  84 114 148 187 232 281 332
#     4  10  20  33  48  70 103 141 179 220 267 321
#
# _framework density 18.28567
#
# number of rings (size 3 to 8) (size 9 to 14) (size 15 to 20)
#    0.000    1.250    0.000    8.250    0.000    6.000 
#    0.000    0.000    0.000    0.750    0.000    5.250 
#    0.000    0.000    0.000    0.000    0.000    0.000 
#
# Total GULP energy -178627.027119 kJ/mol
# GULP energy per Si atom -5582.094597 kJ/mol
# Density = 1.824405 g / cm^3
# Si number density = 18.285670 Si / 1000 Ang^3
#
#
#
# Elastic Constant Matrix: (Units=GPa)
#
#
# Indices 1 2 3 4 5 6 
#
# 1 120.1793 55.0936 58.1866 0.0000 0.0000 0.0000
# 2 55.0936 133.3311 36.3459 0.0000 0.0000 0.0000
# 3 58.1866 36.3459 97.5004 0.0000 0.0000 0.0000
# 4 0.0000 0.0000 0.0000 28.8697 0.0000 0.0000
# 5 0.0000 0.0000 0.0000 0.0000 34.2551 0.0000
# 6 0.0000 0.0000 0.0000 0.0000 0.0000 19.9185
#
#
#
# Elastic Compliance Matrix: (Units=1/GPa)
#
#
# Indices 1 2 3 4 5 6 
#
# 1 0.013134 -0.003663 -0.006473 0.000000 0.000000 0.000000
# 2 -0.003663 0.009370 -0.001307 0.000000 0.000000 0.000000
# 3 -0.006473 -0.001307 0.014606 0.000000 0.000000 0.000000
# 4 0.000000 0.000000 0.000000 0.034638 0.000000 0.000000
# 5 0.000000 0.000000 0.000000 0.000000 0.029193 0.000000
# 6 0.000000 0.000000 0.000000 0.000000 0.000000 0.050205
#
#
# Mechanical properties :
#
#
# Convention : Reuss Voigt Hill
#
# Bulk Modulus (GPa) = 70.29721 72.25147 71.27434
# Shear Modulus (GPa) = 27.96855 30.03431 29.00143
#
# Velocity S-wave (km/s) = 3.91517 4.05718 3.98681
# Velocity P-wave (km/s) = 7.67889 7.84513 7.76245
#
# Compressibility (1/GPa) = 0.01422532
#
# Stress axis : x y z
#
# Youngs Moduli (GPa) = 76.13960 106.72544 68.46299
#
# Poissons Ratio (x) = 0.39089 0.44314
# Poissons Ratio (y) = 0.27886 0.08949
# Poissons Ratio (z) = 0.49283 0.13950
#
# Static dielectric constant tensor:
#      x y z
#    x 1.656750 0.000000 0.000000 
#    y 0.000000 1.598260 0.000000 
#    z 0.000000 0.000000 1.585400 
# 
# From -- ./inp_files/23395.got.cif
#   From: 2010.05.17/outbox.cif.g08.bks.cpg/sg67_12_cif.got.tgz:23395.got - 2010.06.03 18:28:57.
