data_PCOD9502556
_publ_section_title
;
Structure prediction by ZEFSAII (Michael W. Deem and Ramdas Pophale) SiO2 
 PCOD9502556
Probable space group: C M M A
;
_chemical_formula_sum "Si O2"
_cell_formula_units_Z 96
_cell_length_a 7.845921
_cell_length_b 29.785165
_cell_length_c 21.108018
_cell_angle_alpha 90.000000
_cell_angle_beta 90.000000
_cell_angle_gamma 90.000000
_cell_volume 4932.776031
_symmetry_space_group_name_H-M "C M M A"
_symmetry_group_IT_number 67
_symmetry_cell_setting 'orthorhombic'
loop_
_space_group_symop_operation_xyz
x,y,z
-x,1/2-y,z
x,-y,-z
-x,1/2+y,-z
-x,-y,-z
x,1/2+y,-z
-x,y,z
x,1/2-y,z
1/2+x,1/2+y,z
1/2-x,-y,z
1/2+x,1/2-y,-z
1/2-x,y,-z
1/2-x,1/2-y,-z
1/2+x,y,-z
1/2-x,1/2+y,z
1/2+x,-y,z
loop_
_atom_site_type_symbol
_atom_site_label
_atom_site_fract_x
_atom_site_fract_y
_atom_site_fract_z
Si Si1 0.701533 0.889359 0.313907
Si Si2 0.202518 0.448492 0.427449
Si Si3 0.704161 0.947826 0.806639
Si Si4 0.705050 0.604229 0.931696
Si Si5 0.706802 0.700061 0.249969
Si Si6 0.297853 0.299101 0.102570
O O1 0.500000 0.882754 0.325099
O O2 0.775190 0.913983 0.375737
O O3 0.722549 0.922167 0.254002
O O4 0.770696 0.840877 0.292795
O O5 0.250000 0.500000 0.412798
O O6 0.250000 0.438821 0.500000
O O7 0.000000 0.446514 0.423442
O O8 0.500000 0.943376 0.803745
O O9 0.765806 0.924189 0.871444
O O10 0.750000 0.000000 0.805905
O O11 0.500000 0.606286 0.927001
O O12 0.773809 0.655407 0.927445
O O13 0.750000 0.584697 0.000000
O O14 0.500000 0.697742 0.246171
O O15 0.752848 0.750000 0.272873
O O16 0.773858 0.695665 0.178251
O O17 0.500000 0.297826 0.089450
O O18 0.225560 0.250000 0.084421
#
# Coordination Sequence:
#
# PCOD9502556 Si02
#       6
#    16  16  16  16  16  16
#     4  10  20  34  55  82 109 138 173 213 257 304
#     4  10  20  34  52  77 108 141 175 211 254 304
#     4  11  23  38  55  77 102 132 173 217 264 312
#     4  10  22  37  52  73 100 134 172 212 260 312
#     4   9  17  30  51  79 107 135 169 209 254 303
#     4   9  17  32  52  74 102 132 165 209 259 310
#
# _framework density 19.461658
#
# number of rings (size 3 to 8) (size 9 to 14) (size 15 to 20)
#    0.000    2.167    1.667    2.000    0.000    5.333 
#    0.000    1.667    0.000    0.500    0.000    0.000 
#    0.000    0.000    0.000    0.000    0.000    0.667 
#
# Total GULP energy -267904.971665 kJ/mol
# GULP energy per Si atom -5581.353576 kJ/mol
# Density = 1.941736 g / cm^3
# Si number density = 19.461658 Si / 1000 Ang^3
#
#
#
# Elastic Constant Matrix: (Units=GPa)
#
#
# Indices 1 2 3 4 5 6 
#
# 1 22.6908 -10.2624 -13.8803 0.0000 0.0000 0.0000
# 2 -10.2624 121.3517 54.7055 0.0000 0.0000 0.0000
# 3 -13.8803 54.7055 93.2481 0.0000 0.0000 0.0000
# 4 0.0000 0.0000 0.0000 29.6413 0.0000 0.0000
# 5 0.0000 0.0000 0.0000 0.0000 45.1792 0.0000
# 6 0.0000 0.0000 0.0000 0.0000 0.0000 -5.9945
#
#
#
# Elastic Compliance Matrix: (Units=1/GPa)
#
#
# Indices 1 2 3 4 5 6 
#
# 1 0.048604 0.001154 0.006558 0.000000 0.000000 0.000000
# 2 0.001154 0.011231 -0.006417 0.000000 0.000000 0.000000
# 3 0.006558 -0.006417 0.015465 0.000000 0.000000 0.000000
# 4 0.000000 0.000000 0.000000 0.033737 0.000000 0.000000
# 5 0.000000 0.000000 0.000000 0.000000 0.022134 0.000000
# 6 0.000000 0.000000 0.000000 0.000000 0.000000 -0.166821
#
#
# Mechanical properties :
#
#
# Convention : Reuss Voigt Hill
#
# Bulk Modulus (GPa) = 12.83865 33.15737 22.99801
# Shear Modulus (GPa) = -407.28038 27.54707 -189.86665
#
# Velocity S-wave (km/s) = -14.48197 3.76633 -9.88793
# Velocity P-wave (km/s) = 16.52348 5.99900 10.88663
#
# Compressibility (1/GPa) = 0.07788980
#
# Stress axis : x y z
#
# Youngs Moduli (GPa) = 20.57434 89.04002 64.66266
#
# Poissons Ratio (x) = -0.10276 -0.42405
# Poissons Ratio (y) = -0.02374 0.41494
# Poissons Ratio (z) = -0.13492 0.57137
#
# Static dielectric constant tensor:
#      x y z
#    x 1.699660 0.000000 0.000000 
#    y 0.000000 1.711180 0.000000 
#    z 0.000000 0.000000 1.682760 
# 
# From -- ./inp_files/37206.got.cif
#   From: 2010.05.17/outbox.cif.g08.bks.cpg/sg67_19_cif.got.tgz:37206.got - 2010.06.03 18:28:57.
