data_PCOD9502308
_publ_section_title
;
Structure prediction by ZEFSAII (Michael W. Deem and Ramdas Pophale) SiO2 
 PCOD9502308
Probable space group: C M M A
;
_chemical_formula_sum "Si O2"
_cell_formula_units_Z 104
_cell_length_a 31.066209
_cell_length_b 8.769511
_cell_length_c 23.523466
_cell_angle_alpha 90.000000
_cell_angle_beta 90.000000
_cell_angle_gamma 90.000000
_cell_volume 6408.626317
_symmetry_space_group_name_H-M "C M M A"
_symmetry_group_IT_number 67
_symmetry_cell_setting 'orthorhombic'
loop_
_space_group_symop_operation_xyz
x,y,z
-x,1/2-y,z
x,-y,-z
-x,1/2+y,-z
-x,-y,-z
x,1/2+y,-z
-x,y,z
x,1/2-y,z
1/2+x,1/2+y,z
1/2-x,-y,z
1/2+x,1/2-y,-z
1/2-x,y,-z
1/2-x,1/2-y,-z
1/2+x,y,-z
1/2-x,1/2+y,z
1/2+x,-y,z
loop_
_atom_site_type_symbol
_atom_site_label
_atom_site_fract_x
_atom_site_fract_y
_atom_site_fract_z
Si Si1 0.550311 0.567652 0.679790
Si Si2 0.086403 0.432626 0.887820
Si Si3 0.176656 0.931168 0.059872
Si Si4 0.000000 0.567816 0.937540
Si Si5 0.204163 0.066054 0.812853
Si Si6 0.447922 0.423967 0.558355
Si Si7 0.382282 0.432055 0.769377
O O1 0.500000 0.520821 0.691378
O O2 0.552027 0.750000 0.685598
O O3 0.560881 0.518811 0.615222
O O4 0.585470 0.492703 0.720977
O O5 0.083644 0.250000 0.880416
O O6 0.125724 0.462260 0.931187
O O7 0.097895 0.511021 0.828699
O O8 0.042309 0.502743 0.908323
O O9 0.182978 0.750000 0.056711
O O10 0.196599 0.982516 0.120558
O O11 0.191748 0.000000 0.000000
O O12 0.000000 0.750000 0.937907
O O13 0.000000 0.500000 0.000000
O O14 0.203131 0.250000 0.811843
O O15 0.250000 0.000000 0.795106
O O16 0.165698 0.002722 0.773532
O O17 0.432081 0.500000 0.500000
O O18 0.500000 0.418700 0.554225
O O19 0.432625 0.250000 0.563953
O O20 0.379673 0.250000 0.766769
#
# Coordination Sequence:
#
# PCOD9502308 Si02
#       7
#    16  16  16   8  16  16  16
#     4  10  20  33  50  73 104 143 181 217 257 298
#     4  10  21  37  52  68  93 126 162 205 252 298
#     4   9  19  33  51  72  95 121 151 191 241 300
#     4  12  24  36  50  70  92 122 163 206 249 300
#     4  10  21  38  56  76 100 128 163 203 255 310
#     4   9  16  27  44  68 100 138 179 219 256 296
#     4  11  22  36  54  76 102 132 168 210 256 307
#
# _framework density 16.228127000000001
#
# number of rings (size 3 to 8) (size 9 to 14) (size 15 to 20)
#    0.000    2.000    0.000    5.308    1.077    8.000 
#    0.000    1.538    0.000    0.000    0.000    0.000 
#    0.000    0.615    0.000    6.154    0.000    4.000 
#
# Total GULP energy -290067.256651 kJ/mol
# GULP energy per Si atom -5578.216474 kJ/mol
# Density = 1.619119 g / cm^3
# Si number density = 16.228127 Si / 1000 Ang^3
#
#
#
# Elastic Constant Matrix: (Units=GPa)
#
#
# Indices 1 2 3 4 5 6 
#
# 1 112.3020 48.6182 47.8001 0.0000 0.0000 0.0000
# 2 48.6182 93.6969 40.1999 0.0000 0.0000 0.0000
# 3 47.8001 40.1999 91.6322 0.0000 0.0000 0.0000
# 4 0.0000 0.0000 0.0000 28.6571 0.0000 0.0000
# 5 0.0000 0.0000 0.0000 0.0000 5.5617 0.0000
# 6 0.0000 0.0000 0.0000 0.0000 0.0000 21.9076
#
#
#
# Elastic Compliance Matrix: (Units=1/GPa)
#
#
# Indices 1 2 3 4 5 6 
#
# 1 0.012934 -0.004701 -0.004684 0.000000 0.000000 0.000000
# 2 -0.004701 0.014856 -0.004065 0.000000 0.000000 0.000000
# 3 -0.004684 -0.004065 0.015140 0.000000 0.000000 0.000000
# 4 0.000000 0.000000 0.000000 0.034895 0.000000 0.000000
# 5 0.000000 0.000000 0.000000 0.000000 0.179800 0.000000
# 6 0.000000 0.000000 0.000000 0.000000 0.000000 0.045646
#
#
# Mechanical properties :
#
#
# Convention : Reuss Voigt Hill
#
# Bulk Modulus (GPa) = 62.38873 63.42970 62.90922
# Shear Modulus (GPa) = 14.90240 21.95948 18.43094
#
# Velocity S-wave (km/s) = 3.03365 3.68254 3.37373
# Velocity P-wave (km/s) = 7.12734 7.56655 7.35022
#
# Compressibility (1/GPa) = 0.01602853
#
# Stress axis : x y z
#
# Youngs Moduli (GPa) = 77.31708 67.31152 66.04925
#
# Poissons Ratio (x) = 0.31646 0.30940
# Poissons Ratio (y) = 0.36350 0.26850
# Poissons Ratio (z) = 0.36218 0.27363
#
# Static dielectric constant tensor:
#      x y z
#    x 1.536190 0.000000 0.000000 
#    y 0.000000 1.543980 0.000000 
#    z 0.000000 0.000000 1.526130 
# 
# From -- ./inp_files/37487.got.cif
#   From: 2010.05.17/outbox.cif.g08.bks.cpg/sg67_19_cif.got.tgz:37487.got - 2010.06.03 18:28:57.
