data_PCOD9502511
_publ_section_title
;
Structure prediction by ZEFSAII (Michael W. Deem and Ramdas Pophale) SiO2 
 PCOD9502511
Probable space group: C M M A
;
_chemical_formula_sum "Si O2"
_cell_formula_units_Z 80
_cell_length_a 9.146469
_cell_length_b 19.986784
_cell_length_c 26.379974
_cell_angle_alpha 90.000000
_cell_angle_beta 90.000000
_cell_angle_gamma 90.000000
_cell_volume 4822.483484
_symmetry_space_group_name_H-M "C M M A"
_symmetry_group_IT_number 67
_symmetry_cell_setting 'orthorhombic'
loop_
_space_group_symop_operation_xyz
x,y,z
-x,1/2-y,z
x,-y,-z
-x,1/2+y,-z
-x,-y,-z
x,1/2+y,-z
-x,y,z
x,1/2-y,z
1/2+x,1/2+y,z
1/2-x,-y,z
1/2+x,1/2-y,-z
1/2-x,y,-z
1/2-x,1/2-y,-z
1/2+x,y,-z
1/2-x,1/2+y,z
1/2+x,-y,z
loop_
_atom_site_type_symbol
_atom_site_label
_atom_site_fract_x
_atom_site_fract_y
_atom_site_fract_z
Si Si1 0.324141 0.827845 0.052651
Si Si2 0.168611 0.168625 0.550191
Si Si3 0.323331 0.670760 0.663283
Si Si4 0.675097 0.429166 0.859449
Si Si5 0.175423 0.428064 0.257764
O O1 0.500000 0.831843 0.047504
O O2 0.285987 0.750000 0.061630
O O3 0.279282 0.873883 0.099717
O O4 0.250000 0.848971 0.000000
O O5 0.172892 0.250000 0.549654
O O6 0.250000 0.144546 0.500000
O O7 0.223963 0.149889 0.606156
O O8 0.000000 0.148612 0.546849
O O9 0.500000 0.662851 0.666204
O O10 0.292938 0.750000 0.669584
O O11 0.243239 0.626478 0.704831
O O12 0.500000 0.437006 0.862988
O O13 0.750000 0.500000 0.870098
O O14 0.707760 0.410411 0.801117
O O15 0.250000 0.500000 0.267457
O O16 0.000000 0.432645 0.263652
#
# Coordination Sequence:
#
# PCOD9502511 Si02
#       5
#    16  16  16  16  16
#     4   9  18  33  51  71  97 127 157 191 233 279
#     4   8  14  25  42  65  94 126 157 192 236 283
#     4   9  18  32  49  72 102 131 160 199 245 289
#     4   9  19  34  51  71  95 124 158 198 239 280
#     4  10  20  34  52  72  96 129 166 202 244 293
#
# _framework density 16.588963
#
# number of rings (size 3 to 8) (size 9 to 14) (size 15 to 20)
#    0.000    3.000    0.000    1.800    0.000    4.000 
#    0.000    6.000    0.000    3.000    0.000    4.200 
#    0.000    0.000    0.000    0.000    0.000    0.000 
#
# Total GULP energy -222814.874626 kJ/mol
# GULP energy per Si atom -5570.371866 kJ/mol
# Density = 1.655121 g / cm^3
# Si number density = 16.588963 Si / 1000 Ang^3
#
#
#
# Elastic Constant Matrix: (Units=GPa)
#
#
# Indices 1 2 3 4 5 6 
#
# 1 36.2338 41.2523 62.6086 0.0000 0.0000 0.0000
# 2 41.2523 74.4466 98.4752 0.0000 0.0000 0.0000
# 3 62.6086 98.4752 172.2928 0.0000 0.0000 0.0000
# 4 0.0000 0.0000 0.0000 -20.3342 0.0000 0.0000
# 5 0.0000 0.0000 0.0000 0.0000 31.7799 0.0000
# 6 0.0000 0.0000 0.0000 0.0000 0.0000 24.9394
#
#
#
# Elastic Compliance Matrix: (Units=1/GPa)
#
#
# Indices 1 2 3 4 5 6 
#
# 1 0.084484 -0.025434 -0.016163 0.000000 0.000000 0.000000
# 2 -0.025434 0.062716 -0.026603 0.000000 0.000000 0.000000
# 3 -0.016163 -0.026603 0.026883 0.000000 0.000000 0.000000
# 4 0.000000 0.000000 0.000000 -0.049178 0.000000 0.000000
# 5 0.000000 0.000000 0.000000 0.000000 0.031466 0.000000
# 6 0.000000 0.000000 0.000000 0.000000 0.000000 0.040097
#
#
# Mechanical properties :
#
#
# Convention : Reuss Voigt Hill
#
# Bulk Modulus (GPa) = 26.53841 76.40502 51.47172
# Shear Modulus (GPa) = 14.47474 12.65283 13.56378
#
# Velocity S-wave (km/s) = 2.95710 2.76475 2.86254
# Velocity P-wave (km/s) = 5.26229 7.50663 6.48233
#
# Compressibility (1/GPa) = 0.03768123
#
# Stress axis : x y z
#
# Youngs Moduli (GPa) = 11.83661 15.94487 37.19865
#
# Poissons Ratio (x) = 0.40555 0.60123
# Poissons Ratio (y) = 0.30106 0.98961
# Poissons Ratio (z) = 0.19131 0.42419
#
# Static dielectric constant tensor:
#      x y z
#    x 1.555900 0.000000 0.000000 
#    y 0.000000 1.532240 0.000000 
#    z 0.000000 0.000000 1.565170 
# 
# From -- ./inp_files/43197.got.cif
#   From: 2010.05.17/outbox.cif.g08.bks.cpg/sg67_22_cif.got.tgz:43197.got - 2010.06.03 18:28:57.
