data_PCOD9502772
_publ_section_title
;
Structure prediction by ZEFSAII (Michael W. Deem and Ramdas Pophale) SiO2 
 PCOD9502772
Probable space group: C M M A
;
_chemical_formula_sum "Si O2"
_cell_formula_units_Z 56
_cell_length_a 12.882957
_cell_length_b 9.362235
_cell_length_c 26.340137
_cell_angle_alpha 90.000000
_cell_angle_beta 90.000000
_cell_angle_gamma 90.000000
_cell_volume 3176.970080
_symmetry_space_group_name_H-M "C M M A"
_symmetry_group_IT_number 67
_symmetry_cell_setting 'orthorhombic'
loop_
_space_group_symop_operation_xyz
x,y,z
-x,1/2-y,z
x,-y,-z
-x,1/2+y,-z
-x,-y,-z
x,1/2+y,-z
-x,y,z
x,1/2-y,z
1/2+x,1/2+y,z
1/2-x,-y,z
1/2+x,1/2-y,-z
1/2-x,y,-z
1/2-x,1/2-y,-z
1/2+x,y,-z
1/2-x,1/2+y,z
1/2+x,-y,z
loop_
_atom_site_type_symbol
_atom_site_label
_atom_site_fract_x
_atom_site_fract_y
_atom_site_fract_z
Si Si1 0.622643 0.750000 0.944880
Si Si2 0.750000 0.500000 0.000000
Si Si3 0.000000 0.970779 0.440531
Si Si4 0.500000 0.250000 0.624056
Si Si5 0.694029 0.250000 0.696431
Si Si6 0.377822 0.250000 0.176743
Si Si7 0.750000 0.500000 0.231367
Si Si8 0.887673 0.750000 0.379657
O O1 0.500000 0.750000 0.957935
O O2 0.678552 0.891604 0.967209
O O3 0.632466 0.750000 0.884050
O O4 0.098986 0.882773 0.418312
O O5 0.000000 0.000000 0.500000
O O6 0.000000 0.116343 0.411787
O O7 0.599260 0.250000 0.659095
O O8 0.690822 0.389763 0.731799
O O9 0.797068 0.250000 0.660904
O O10 0.500000 0.250000 0.189835
O O11 0.322647 0.107159 0.198907
O O12 0.000000 0.750000 0.350951
#
# Coordination Sequence:
#
# PCOD9502772 Si02
#       8
#     8   4   8   4   8   8   8   8
#     4  10  20  36  58  87 118 160 198 246 300 354
#     4  10  20  34  60  88 124 150 206 248 296 340
#     4   9  19  37  57  79 109 139 179 221 277 350
#     4  12  22  32  56  82 110 128 188 232 278 330
#     4  11  22  37  56  84 109 147 186 247 285 345
#     4  10  22  40  60  82 122 159 197 246 302 348
#     4  10  23  38  58  83 111 150 204 231 300 352
#     4   8  20  38  57  74 112 144 181 221 298 339
#
# _framework density 17.626857999999999
#
# number of rings (size 3 to 8) (size 9 to 14) (size 15 to 20)
#    0.857    1.143    0.000    3.857    2.000    2.286 
#    0.000    4.286    0.000    8.571    0.000    0.000 
#    0.000    0.000    0.000    0.000    0.000    0.000 
#
# Total GULP energy -155919.797085 kJ/mol
# GULP energy per Si atom -5568.564182 kJ/mol
# Density = 1.758674 g / cm^3
# Si number density = 17.626858 Si / 1000 Ang^3
#
#
#
# Elastic Constant Matrix: (Units=GPa)
#
#
# Indices 1 2 3 4 5 6 
#
# 1 140.1447 68.3640 80.1506 0.0000 0.0000 0.0000
# 2 68.3640 189.7943 83.7771 0.0000 0.0000 0.0000
# 3 80.1506 83.7771 127.8432 0.0000 0.0000 0.0000
# 4 0.0000 0.0000 0.0000 27.2167 0.0000 0.0000
# 5 0.0000 0.0000 0.0000 0.0000 8.6267 0.0000
# 6 0.0000 0.0000 0.0000 0.0000 0.0000 14.5584
#
#
#
# Elastic Compliance Matrix: (Units=1/GPa)
#
#
# Indices 1 2 3 4 5 6 
#
# 1 0.011359 -0.001334 -0.006247 0.000000 0.000000 0.000000
# 2 -0.001334 0.007570 -0.004124 0.000000 0.000000 0.000000
# 3 -0.006247 -0.004124 0.014442 0.000000 0.000000 0.000000
# 4 0.000000 0.000000 0.000000 0.036742 0.000000 0.000000
# 5 0.000000 0.000000 0.000000 0.000000 0.115919 0.000000
# 6 0.000000 0.000000 0.000000 0.000000 0.000000 0.068689
#
#
# Mechanical properties :
#
#
# Convention : Reuss Voigt Hill
#
# Bulk Modulus (GPa) = 100.40894 102.48508 101.44701
# Shear Modulus (GPa) = 17.76502 25.11307 21.43904
#
# Velocity S-wave (km/s) = 3.17809 3.77862 3.49129
# Velocity P-wave (km/s) = 8.39966 8.79232 8.59823
#
# Compressibility (1/GPa) = 0.00995927
#
# Stress axis : x y z
#
# Youngs Moduli (GPa) = 88.03463 132.10291 69.24431
#
# Poissons Ratio (x) = 0.17621 0.43260
# Poissons Ratio (y) = 0.11743 0.28559
# Poissons Ratio (z) = 0.54999 0.54484
#
# Static dielectric constant tensor:
#      x y z
#    x 1.592060 0.000000 0.000000 
#    y 0.000000 1.584040 0.000000 
#    z 0.000000 0.000000 1.572070 
# 
# From -- ./inp_files/41714.got.cif
#   From: 2010.05.17/outbox.cif.g08.bks.cpg/sg67_21_cif.got.tgz:41714.got - 2010.06.03 18:28:57.
