data_PCOD9502438
_publ_section_title
;
Structure prediction by ZEFSAII (Michael W. Deem and Ramdas Pophale) SiO2 
 PCOD9502438
Probable space group: C M M A
;
_chemical_formula_sum "Si O2"
_cell_formula_units_Z 96
_cell_length_a 19.690160
_cell_length_b 16.751406
_cell_length_c 14.758068
_cell_angle_alpha 90.000000
_cell_angle_beta 90.000000
_cell_angle_gamma 90.000000
_cell_volume 4867.769631
_symmetry_space_group_name_H-M "C M M A"
_symmetry_group_IT_number 67
_symmetry_cell_setting 'orthorhombic'
loop_
_space_group_symop_operation_xyz
x,y,z
-x,1/2-y,z
x,-y,-z
-x,1/2+y,-z
-x,-y,-z
x,1/2+y,-z
-x,y,z
x,1/2-y,z
1/2+x,1/2+y,z
1/2-x,-y,z
1/2+x,1/2-y,-z
1/2-x,y,-z
1/2-x,1/2-y,-z
1/2+x,y,-z
1/2-x,1/2+y,z
1/2+x,-y,z
loop_
_atom_site_type_symbol
_atom_site_label
_atom_site_fract_x
_atom_site_fract_y
_atom_site_fract_z
Si Si1 0.348518 0.842848 0.535382
Si Si2 0.923371 0.845911 0.289861
Si Si3 0.218929 0.410697 0.371042
Si Si4 0.421783 0.842213 0.030051
Si Si5 0.186535 0.602628 0.837368
Si Si6 0.335890 0.084523 0.129838
O O1 0.355924 0.750000 0.509414
O O2 0.406945 0.866061 0.605938
O O3 0.279830 0.853683 0.595048
O O4 0.338278 0.897393 0.447345
O O5 0.916964 0.750000 0.281989
O O6 0.870658 0.885907 0.222131
O O7 0.000000 0.868557 0.265096
O O8 0.250000 0.500000 0.372140
O O9 0.193867 0.391202 0.270778
O O10 0.500000 0.867171 0.043969
O O11 0.422253 0.750000 0.000106
O O12 0.375392 0.850030 0.119086
O O13 0.384076 0.892429 0.952766
O O14 0.260809 0.622649 0.878047
O O15 0.173618 0.510053 0.862015
#
# Coordination Sequence:
#
# PCOD9502438 Si02
#       6
#    16  16  16  16  16  16
#     4  10  20  33  55  86 119 156 199 239 289 348
#     4  10  20  35  58  89 125 162 202 247 294 347
#     4  11  19  36  58  84 116 155 192 244 299 346
#     4  11  26  44  61  86 121 159 197 242 299 360
#     4  11  23  39  62  92 118 154 197 252 299 352
#     4  11  21  40  62  91 119 154 202 249 298 348
#
# _framework density 19.721558000000002
#
# number of rings (size 3 to 8) (size 9 to 14) (size 15 to 20)
#    0.000    1.333    3.333    4.000    0.000    8.000 
#    0.000    0.833    0.000    7.000    0.000    0.000 
#    0.000    0.000    0.000    0.000    0.000    0.000 
#
# Total GULP energy -268164.400837 kJ/mol
# GULP energy per Si atom -5586.758351 kJ/mol
# Density = 1.967667 g / cm^3
# Si number density = 19.721558 Si / 1000 Ang^3
#
#
#
# Elastic Constant Matrix: (Units=GPa)
#
#
# Indices 1 2 3 4 5 6 
#
# 1 131.4147 22.7941 42.8035 0.0000 0.0000 0.0000
# 2 22.7941 26.7418 21.0031 0.0000 0.0000 0.0000
# 3 42.8035 21.0031 106.3148 0.0000 0.0000 0.0000
# 4 0.0000 0.0000 0.0000 27.6104 0.0000 0.0000
# 5 0.0000 0.0000 0.0000 0.0000 23.9620 0.0000
# 6 0.0000 0.0000 0.0000 0.0000 0.0000 24.5784
#
#
#
# Elastic Compliance Matrix: (Units=1/GPa)
#
#
# Indices 1 2 3 4 5 6 
#
# 1 0.009516 -0.006039 -0.002638 0.000000 0.000000 0.000000
# 2 -0.006039 0.048095 -0.007070 0.000000 0.000000 0.000000
# 3 -0.002638 -0.007070 0.011865 0.000000 0.000000 0.000000
# 4 0.000000 0.000000 0.000000 0.036218 0.000000 0.000000
# 5 0.000000 0.000000 0.000000 0.000000 0.041733 0.000000
# 6 0.000000 0.000000 0.000000 0.000000 0.000000 0.040686
#
#
# Mechanical properties :
#
#
# Convention : Reuss Voigt Hill
#
# Bulk Modulus (GPa) = 26.32876 48.63029 37.47953
# Shear Modulus (GPa) = 21.52673 27.08821 24.30747
#
# Velocity S-wave (km/s) = 3.30742 3.71014 3.51455
# Velocity P-wave (km/s) = 5.28816 6.56243 5.95945
#
# Compressibility (1/GPa) = 0.03798128
#
# Stress axis : x y z
#
# Youngs Moduli (GPa) = 105.08221 20.79206 84.28198
#
# Poissons Ratio (x) = 0.12557 0.22236
# Poissons Ratio (y) = 0.63464 0.59587
# Poissons Ratio (z) = 0.27723 0.14700
#
# Static dielectric constant tensor:
#      x y z
#    x 1.704720 0.000000 0.000000 
#    y 0.000000 1.698070 0.000000 
#    z 0.000000 0.000000 1.711870 
# 
# From -- ./inp_files/29278.got.cif
#   From: 2010.05.17/outbox.cif.g08.bks.cpg/sg67_15_cif.got.tgz:29278.got - 2010.06.03 18:28:57.
