data_PCOD9502682
_publ_section_title
;
Structure prediction by ZEFSAII (Michael W. Deem and Ramdas Pophale) SiO2 
 PCOD9502682
Probable space group: C M M A
;
_chemical_formula_sum "Si O2"
_cell_formula_units_Z 112
_cell_length_a 27.358573
_cell_length_b 17.567767
_cell_length_c 12.132918
_cell_angle_alpha 90.000000
_cell_angle_beta 90.000000
_cell_angle_gamma 90.000000
_cell_volume 5831.432681
_symmetry_space_group_name_H-M "C M M A"
_symmetry_group_IT_number 67
_symmetry_cell_setting 'orthorhombic'
loop_
_space_group_symop_operation_xyz
x,y,z
-x,1/2-y,z
x,-y,-z
-x,1/2+y,-z
-x,-y,-z
x,1/2+y,-z
-x,y,z
x,1/2-y,z
1/2+x,1/2+y,z
1/2-x,-y,z
1/2+x,1/2-y,-z
1/2-x,y,-z
1/2-x,1/2-y,-z
1/2+x,y,-z
1/2-x,1/2+y,z
1/2+x,-y,z
loop_
_atom_site_type_symbol
_atom_site_label
_atom_site_fract_x
_atom_site_fract_y
_atom_site_fract_z
Si Si1 0.328037 0.416626 0.842432
Si Si2 0.055900 0.448249 0.390382
Si Si3 0.734291 0.836067 0.833673
Si Si4 0.611131 0.055000 0.227130
Si Si5 0.353308 0.840202 0.386544
Si Si6 0.128196 0.837510 0.047799
Si Si7 0.675033 0.839053 0.624263
O O1 0.272412 0.398383 0.874768
O O2 0.345955 0.502233 0.824872
O O3 0.332869 0.376225 0.724366
O O4 0.363430 0.376781 0.930644
O O5 0.059277 0.500000 0.500000
O O6 0.072922 0.498994 0.285487
O O7 0.094109 0.379722 0.403124
O O8 0.000000 0.423360 0.377633
O O9 0.754923 0.750000 0.849722
O O10 0.682027 0.836982 0.894232
O O11 0.721498 0.847132 0.704358
O O12 0.595396 0.111401 0.129334
O O13 0.634347 0.106680 0.323056
O O14 0.357250 0.750000 0.374681
O O15 0.320897 0.856299 0.495341
O O16 0.112393 0.750000 0.038651
O O17 0.660391 0.750000 0.634161
#
# Coordination Sequence:
#
# PCOD9502682 Si02
#       7
#    16  16  16  16  16  16  16
#     4  11  21  31  51  79 108 141 188 228 270 314
#     4  10  20  36  59  84 109 133 163 217 279 332
#     4   9  18  32  50  73 105 144 185 232 271 307
#     4  10  20  35  55  77 106 139 175 219 275 330
#     4  10  20  34  55  78 109 145 178 218 263 331
#     4  10  20  35  54  74 104 146 189 230 265 307
#     4   9  18  33  51  73 105 146 184 218 268 322
#
# _framework density 19.206257000000001
#
# number of rings (size 3 to 8) (size 9 to 14) (size 15 to 20)
#    0.000    2.143    1.429    3.429    0.000    4.286 
#    0.000    5.000    0.000   12.000    0.000    0.000 
#    0.000    0.000    0.000    0.000    0.000    0.000 
#
# Total GULP energy -312430.670878 kJ/mol
# GULP energy per Si atom -5579.119123 kJ/mol
# Density = 1.916254 g / cm^3
# Si number density = 19.206257 Si / 1000 Ang^3
#
#
#
# Elastic Constant Matrix: (Units=GPa)
#
#
# Indices 1 2 3 4 5 6 
#
# 1 29.4397 -2.8121 -11.9516 0.0000 0.0000 0.0000
# 2 -2.8121 74.1355 31.3679 0.0000 0.0000 0.0000
# 3 -11.9516 31.3679 104.2265 0.0000 0.0000 0.0000
# 4 0.0000 0.0000 0.0000 23.6559 0.0000 0.0000
# 5 0.0000 0.0000 0.0000 0.0000 11.9284 0.0000
# 6 0.0000 0.0000 0.0000 0.0000 0.0000 9.7592
#
#
#
# Elastic Compliance Matrix: (Units=1/GPa)
#
#
# Indices 1 2 3 4 5 6 
#
# 1 0.035638 -0.000432 0.004217 0.000000 0.000000 0.000000
# 2 -0.000432 0.015462 -0.004703 0.000000 0.000000 0.000000
# 3 0.004217 -0.004703 0.011493 0.000000 0.000000 0.000000
# 4 0.000000 0.000000 0.000000 0.042273 0.000000 0.000000
# 5 0.000000 0.000000 0.000000 0.000000 0.083834 0.000000
# 6 0.000000 0.000000 0.000000 0.000000 0.000000 0.102467
#
#
# Mechanical properties :
#
#
# Convention : Reuss Voigt Hill
#
# Bulk Modulus (GPa) = 16.45909 26.77889 21.61899
# Shear Modulus (GPa) = 15.96130 21.81520 18.88825
#
# Velocity S-wave (km/s) = 2.88592 3.37388 3.13939
# Velocity P-wave (km/s) = 4.43767 5.39912 4.94183
#
# Compressibility (1/GPa) = 0.06075671
#
# Stress axis : x y z
#
# Youngs Moduli (GPa) = 28.05972 64.67307 87.00592
#
# Poissons Ratio (x) = 0.02796 -0.36688
# Poissons Ratio (y) = 0.01213 0.40920
# Poissons Ratio (z) = -0.11832 0.30417
#
# Static dielectric constant tensor:
#      x y z
#    x 1.654190 0.000000 0.000000 
#    y 0.000000 1.674600 0.000000 
#    z 0.000000 0.000000 1.713670 
# 
# From -- ./inp_files/23865.got.cif
#   From: 2010.05.17/outbox.cif.g08.bks.cpg/sg67_12_cif.got.tgz:23865.got - 2010.06.03 18:28:57.
