data_PCOD9502713
_publ_section_title
;
Structure prediction by ZEFSAII (Michael W. Deem and Ramdas Pophale) SiO2 
 PCOD9502713
Probable space group: C M M A
;
_chemical_formula_sum "Si O2"
_cell_formula_units_Z 112
_cell_length_a 15.237709
_cell_length_b 23.019587
_cell_length_c 14.985820
_cell_angle_alpha 90.000000
_cell_angle_beta 90.000000
_cell_angle_gamma 90.000000
_cell_volume 5256.512662
_symmetry_space_group_name_H-M "C M M A"
_symmetry_group_IT_number 67
_symmetry_cell_setting 'orthorhombic'
loop_
_space_group_symop_operation_xyz
x,y,z
-x,1/2-y,z
x,-y,-z
-x,1/2+y,-z
-x,-y,-z
x,1/2+y,-z
-x,y,z
x,1/2-y,z
1/2+x,1/2+y,z
1/2-x,-y,z
1/2+x,1/2-y,-z
1/2-x,y,-z
1/2-x,1/2-y,-z
1/2+x,y,-z
1/2-x,1/2+y,z
1/2+x,-y,z
loop_
_atom_site_type_symbol
_atom_site_label
_atom_site_fract_x
_atom_site_fract_y
_atom_site_fract_z
Si Si1 0.152187 0.374313 0.457978
Si Si2 0.900738 0.051179 0.928581
Si Si3 0.760719 0.638584 0.902497
Si Si4 0.850401 0.013859 0.366434
Si Si5 0.407186 0.882362 0.642845
Si Si6 0.099658 0.942251 0.818553
Si Si7 0.261322 0.183100 0.706998
O O1 0.250000 0.379722 0.500000
O O2 0.116544 0.438411 0.435532
O O3 0.097442 0.354572 0.543377
O O4 0.166028 0.337569 0.366878
O O5 0.826413 0.097842 0.906640
O O6 0.000000 0.072932 0.950461
O O7 0.906978 0.009709 0.843520
O O8 0.878186 0.000000 0.000000
O O9 0.843768 0.594663 0.889353
O O10 0.775350 0.676640 0.813729
O O11 0.750000 0.668246 0.000000
O O12 0.851772 0.051656 0.275205
O O13 0.750000 0.000000 0.387530
O O14 0.897934 0.952314 0.361617
O O15 0.500000 0.867774 0.686160
O O16 0.323144 0.857156 0.691816
O O17 0.000000 0.919508 0.810660
O O18 0.242556 0.250000 0.686595
#
# Coordination Sequence:
#
# PCOD9502713 Si02
#       7
#    16  16  16  16  16  16  16
#     4  10  21  38  62  91 125 168 207 257 317 395
#     4  10  20  34  55  91 128 159 202 252 316 393
#     4  12  23  39  65  90 122 170 218 273 326 390
#     4  12  19  35  61  93 136 173 202 246 316 401
#     4  11  24  39  63 100 133 165 209 266 329 400
#     4  11  22  34  53  88 131 172 204 246 310 385
#     4  11  25  46  66  87 121 171 227 282 328 377
#
# _framework density 21.306902000000001
#
# number of rings (size 3 to 8) (size 9 to 14) (size 15 to 20)
#    0.000    1.000    5.714    3.000    0.000    6.571 
#    0.000    0.000    0.000    1.286    0.000    2.000 
#    0.000    0.000    0.000    0.000    0.000    0.000 
#
# Total GULP energy -311838.781506 kJ/mol
# GULP energy per Si atom -5568.549670 kJ/mol
# Density = 2.125841 g / cm^3
# Si number density = 21.306902 Si / 1000 Ang^3
#
#
#
# Elastic Constant Matrix: (Units=GPa)
#
#
# Indices 1 2 3 4 5 6 
#
# 1 66.1494 8.8536 -14.7323 0.0000 0.0000 0.0000
# 2 8.8536 58.2744 7.4655 0.0000 0.0000 0.0000
# 3 -14.7323 7.4655 112.0499 0.0000 0.0000 0.0000
# 4 0.0000 0.0000 0.0000 15.7867 0.0000 0.0000
# 5 0.0000 0.0000 0.0000 0.0000 5.7884 0.0000
# 6 0.0000 0.0000 0.0000 0.0000 0.0000 2.0553
#
#
#
# Elastic Compliance Matrix: (Units=1/GPa)
#
#
# Indices 1 2 3 4 5 6 
#
# 1 0.015990 -0.002722 0.002284 0.000000 0.000000 0.000000
# 2 -0.002722 0.017771 -0.001542 0.000000 0.000000 0.000000
# 3 0.002284 -0.001542 0.009328 0.000000 0.000000 0.000000
# 4 0.000000 0.000000 0.000000 0.063345 0.000000 0.000000
# 5 0.000000 0.000000 0.000000 0.000000 0.172760 0.000000
# 6 0.000000 0.000000 0.000000 0.000000 0.000000 0.486546
#
#
# Mechanical properties :
#
#
# Convention : Reuss Voigt Hill
#
# Bulk Modulus (GPa) = 25.55660 26.62748 26.09204
# Shear Modulus (GPa) = 6.38779 20.38520 13.38650
#
# Velocity S-wave (km/s) = 1.73335 3.09648 2.50925
# Velocity P-wave (km/s) = 4.00332 5.03075 4.54616
#
# Compressibility (1/GPa) = 0.03912883
#
# Stress axis : x y z
#
# Youngs Moduli (GPa) = 62.53817 56.27063 107.20879
#
# Poissons Ratio (x) = 0.15317 -0.24484
# Poissons Ratio (y) = 0.17023 0.16531
# Poissons Ratio (z) = -0.14282 0.08676
#
# Static dielectric constant tensor:
#      x y z
#    x 1.801310 0.000000 0.000000 
#    y 0.000000 1.756600 0.000000 
#    z 0.000000 0.000000 1.956110 
# 
# From -- ./inp_files/27595.got.cif
#   From: 2010.05.17/outbox.cif.g08.bks.cpg/sg67_14_cif.got.tgz:27595.got - 2010.06.03 18:28:57.
