data_PCOD9502634
_publ_section_title
;
Structure prediction by ZEFSAII (Michael W. Deem and Ramdas Pophale) SiO2 
 PCOD9502634
Probable space group: C M M A
;
_chemical_formula_sum "Si O2"
_cell_formula_units_Z 72
_cell_length_a 26.830083
_cell_length_b 23.094711
_cell_length_c 6.303405
_cell_angle_alpha 90.000000
_cell_angle_beta 90.000000
_cell_angle_gamma 90.000000
_cell_volume 3905.797832
_symmetry_space_group_name_H-M "C M M A"
_symmetry_group_IT_number 67
_symmetry_cell_setting 'orthorhombic'
loop_
_space_group_symop_operation_xyz
x,y,z
-x,1/2-y,z
x,-y,-z
-x,1/2+y,-z
-x,-y,-z
x,1/2+y,-z
-x,y,z
x,1/2-y,z
1/2+x,1/2+y,z
1/2-x,-y,z
1/2+x,1/2-y,-z
1/2-x,y,-z
1/2-x,1/2-y,-z
1/2+x,y,-z
1/2-x,1/2+y,z
1/2+x,-y,z
loop_
_atom_site_type_symbol
_atom_site_label
_atom_site_fract_x
_atom_site_fract_y
_atom_site_fract_z
Si Si1 0.887153 0.182784 0.395232
Si Si2 0.941126 0.416703 0.165050
Si Si3 0.128169 0.099784 0.780021
Si Si4 0.808586 0.185127 0.047183
Si Si5 0.114136 0.000000 0.500000
O O1 0.899617 0.250000 0.415009
O O2 0.924297 0.147255 0.243033
O O3 0.889175 0.149214 0.616498
O O4 0.832057 0.179045 0.284028
O O5 0.918734 0.461153 0.338775
O O6 0.000000 0.422941 0.151799
O O7 0.914932 0.422936 0.936846
O O8 0.144951 0.045425 0.639654
O O9 0.168857 0.131531 0.920918
O O10 0.826360 0.250000 0.977539
O O11 0.750000 0.184832 0.000000
#
# Coordination Sequence:
#
# PCOD9502634 Si02
#       5
#    16  16  16  16   8
#     4   9  19  35  54  79 110 140 173 217 270 327
#     4  10  21  36  55  78 104 139 183 227 270 319
#     4  10  20  34  54  78 108 140 175 220 270 322
#     4   9  18  34  58  84 107 136 177 223 269 320
#     4  10  21  36  56  75 100 140 186 229 267 314
#
# _framework density 18.434132000000002
#
# number of rings (size 3 to 8) (size 9 to 14) (size 15 to 20)
#    0.000    2.444    0.000    1.667    0.000    7.556 
#    0.000    3.333    0.000   38.667    0.000    0.000 
#    0.000    0.000    0.000    0.000    0.000    0.000 
#
# Total GULP energy -200485.295422 kJ/mol
# GULP energy per Si atom -5569.035984 kJ/mol
# Density = 1.839218 g / cm^3
# Si number density = 18.434132 Si / 1000 Ang^3
#
#
#
# Elastic Constant Matrix: (Units=GPa)
#
#
# Indices 1 2 3 4 5 6 
#
# 1 56.5231 19.8827 16.3618 0.0000 0.0000 0.0000
# 2 19.8827 128.3357 46.2110 0.0000 0.0000 0.0000
# 3 16.3618 46.2110 91.6361 0.0000 0.0000 0.0000
# 4 0.0000 0.0000 0.0000 36.0681 0.0000 0.0000
# 5 0.0000 0.0000 0.0000 0.0000 6.1078 0.0000
# 6 0.0000 0.0000 0.0000 0.0000 0.0000 12.1949
#
#
#
# Elastic Compliance Matrix: (Units=1/GPa)
#
#
# Indices 1 2 3 4 5 6 
#
# 1 0.019116 -0.002117 -0.002346 0.000000 0.000000 0.000000
# 2 -0.002117 0.009755 -0.004542 0.000000 0.000000 0.000000
# 3 -0.002346 -0.004542 0.013622 0.000000 0.000000 0.000000
# 4 0.000000 0.000000 0.000000 0.027725 0.000000 0.000000
# 5 0.000000 0.000000 0.000000 0.000000 0.163726 0.000000
# 6 0.000000 0.000000 0.000000 0.000000 0.000000 0.082001
#
#
# Mechanical properties :
#
#
# Convention : Reuss Voigt Hill
#
# Bulk Modulus (GPa) = 40.84200 49.04509 44.94354
# Shear Modulus (GPa) = 14.61497 23.81011 19.21254
#
# Velocity S-wave (km/s) = 2.81876 3.59783 3.23186
# Velocity P-wave (km/s) = 5.72692 6.62740 6.19355
#
# Compressibility (1/GPa) = 0.02448460
#
# Stress axis : x y z
#
# Youngs Moduli (GPa) = 52.31354 102.50794 73.41191
#
# Poissons Ratio (x) = 0.21700 0.17219
# Poissons Ratio (y) = 0.11074 0.33340
# Poissons Ratio (z) = 0.12270 0.46554
#
# Static dielectric constant tensor:
#      x y z
#    x 1.601410 0.000000 0.000000 
#    y 0.000000 1.652320 0.000000 
#    z 0.000000 0.000000 1.686540 
# 
# From -- ./inp_files/3440.got.cif
#   From: 2010.05.17/outbox.cif.g08.bks.cpg/sg67_2_cif.got.tgz:3440.got - 2010.06.03 18:28:57.
