data_PCOD9502966
_publ_section_title
;
Structure prediction by ZEFSAII (Michael W. Deem and Ramdas Pophale) SiO2 
 PCOD9502966
Probable space group: C M M A
;
_chemical_formula_sum "Si O2"
_cell_formula_units_Z 96
_cell_length_a 17.168088
_cell_length_b 14.809010
_cell_length_c 20.129024
_cell_angle_alpha 90.000000
_cell_angle_beta 90.000000
_cell_angle_gamma 90.000000
_cell_volume 5117.651107
_symmetry_space_group_name_H-M "C M M A"
_symmetry_group_IT_number 67
_symmetry_cell_setting 'orthorhombic'
loop_
_space_group_symop_operation_xyz
x,y,z
-x,1/2-y,z
x,-y,-z
-x,1/2+y,-z
-x,-y,-z
x,1/2+y,-z
-x,y,z
x,1/2-y,z
1/2+x,1/2+y,z
1/2-x,-y,z
1/2+x,1/2-y,-z
1/2-x,y,-z
1/2-x,1/2-y,-z
1/2+x,y,-z
1/2-x,1/2+y,z
1/2+x,-y,z
loop_
_atom_site_type_symbol
_atom_site_label
_atom_site_fract_x
_atom_site_fract_y
_atom_site_fract_z
Si Si1 0.159594 0.640375 0.500000
Si Si2 0.093849 0.146544 0.359663
Si Si3 0.593849 0.146544 0.359663
Si Si4 0.343702 0.355481 1.000000
Si Si5 0.404981 0.500000 0.745294
Si Si6 0.906065 0.500000 0.898000
O O1 0.151770 0.750000 0.500000
O O2 0.250000 0.617069 0.500000
O O3 0.121482 0.610382 0.568931
O O4 0.121482 0.610382 0.431069
O O5 0.120636 0.250000 0.352589
O O6 0.120050 0.086100 0.298051
O O7 0.000000 0.146367 0.360506
O O8 0.500000 0.146367 0.360506
O O9 0.620636 0.250000 0.352589
O O10 0.620050 0.086100 0.298051
O O11 0.367040 0.250000 0.000000
O O12 0.375377 0.411968 0.937063
O O13 0.250000 0.359808 0.000000
O O14 0.375377 0.411968 0.062937
O O15 0.500000 0.500000 0.746408
O O16 0.379926 0.500000 0.821474
O O17 0.000000 0.500000 0.900911
#
# Coordination Sequence:
#
# PCOD9502966 Si02
#       6
#    16  16  16  16  16  16
#     4   9  17  30  47  68  95 125 164 215 257 290
#     4   9  17  31  50  69  93 129 168 204 248 302
#     4   9  17  31  50  69  93 129 168 204 248 302
#     4  10  21  38  59  81 108 144 179 209 250 309
#     4   9  19  33  50  76 104 129 162 205 252 302
#     4  10  20  35  57  85 113 137 170 220 266 306
#
# _framework density 18.758604999999999
#
# number of rings (size 3 to 8) (size 9 to 14) (size 15 to 20)
#    0.000    2.667    0.000    2.500    0.000    5.333 
#    0.000   10.833    0.000    4.000    0.000    0.000 
#    0.000    0.000    0.000    0.000    0.000    0.000 
#
# Total GULP energy -267754.833309 kJ/mol
# GULP energy per Si atom -5578.225694 kJ/mol
# Density = 1.871591 g / cm^3
# Si number density = 18.758605 Si / 1000 Ang^3
#
#
#
# Elastic Constant Matrix: (Units=GPa)
#
#
# Indices 1 2 3 4 5 6 
#
# 1 28.0745 28.2149 30.5947 0.0000 0.0000 0.0000
# 2 28.2149 147.7448 99.5104 0.0000 0.0000 0.0000
# 3 30.5947 99.5104 220.8275 0.0000 0.0000 0.0000
# 4 0.0000 0.0000 0.0000 16.5488 0.0000 0.0000
# 5 0.0000 0.0000 0.0000 0.0000 -18.1251 0.0000
# 6 0.0000 0.0000 0.0000 0.0000 0.0000 15.7047
#
#
#
# Elastic Compliance Matrix: (Units=1/GPa)
#
#
# Indices 1 2 3 4 5 6 
#
# 1 0.045845 -0.006428 -0.003455 0.000000 0.000000 0.000000
# 2 -0.006428 0.010619 -0.003895 0.000000 0.000000 0.000000
# 3 -0.003455 -0.003895 0.006762 0.000000 0.000000 0.000000
# 4 0.000000 0.000000 0.000000 0.060427 0.000000 0.000000
# 5 0.000000 0.000000 0.000000 0.000000 -0.055172 0.000000
# 6 0.000000 0.000000 0.000000 0.000000 0.000000 0.063675
#
#
# Mechanical properties :
#
#
# Convention : Reuss Voigt Hill
#
# Bulk Modulus (GPa) = 28.03412 79.25410 53.64411
# Shear Modulus (GPa) = 29.13717 18.71414 23.92566
#
# Velocity S-wave (km/s) = 3.94543 3.16195 3.57522
# Velocity P-wave (km/s) = 5.97765 7.46135 6.76033
#
# Compressibility (1/GPa) = 0.03567082
#
# Stress axis : x y z
#
# Youngs Moduli (GPa) = 21.81269 94.16928 147.88209
#
# Poissons Ratio (x) = 0.60532 0.51093
# Poissons Ratio (y) = 0.14021 0.57596
# Poissons Ratio (z) = 0.07536 0.36676
#
# Static dielectric constant tensor:
#      x y z
#    x 1.630290 0.000000 0.000000 
#    y 0.000000 1.678390 0.000000 
#    z 0.000000 0.000000 1.627360 
# 
# From -- ./inp_files/38382.got.cif
#   From: 2010.05.17/outbox.cif.g08.bks.cpg/sg67_20_cif.got.tgz:38382.got - 2010.06.03 18:28:57.
