data_PCOD9502955
_publ_section_title
;
Structure prediction by ZEFSAII (Michael W. Deem and Ramdas Pophale) SiO2 
 PCOD9502955
Probable space group: C M M A
;
_chemical_formula_sum "Si O2"
_cell_formula_units_Z 88
_cell_length_a 27.542668
_cell_length_b 8.767935
_cell_length_c 20.200853
_cell_angle_alpha 90.000000
_cell_angle_beta 90.000000
_cell_angle_gamma 90.000000
_cell_volume 4878.350913
_symmetry_space_group_name_H-M "C M M A"
_symmetry_group_IT_number 67
_symmetry_cell_setting 'orthorhombic'
loop_
_space_group_symop_operation_xyz
x,y,z
-x,1/2-y,z
x,-y,-z
-x,1/2+y,-z
-x,-y,-z
x,1/2+y,-z
-x,y,z
x,1/2-y,z
1/2+x,1/2+y,z
1/2-x,-y,z
1/2+x,1/2-y,-z
1/2-x,y,-z
1/2-x,1/2-y,-z
1/2+x,y,-z
1/2-x,1/2+y,z
1/2+x,-y,z
loop_
_atom_site_type_symbol
_atom_site_label
_atom_site_fract_x
_atom_site_fract_y
_atom_site_fract_z
Si Si1 0.000000 0.066632 0.573508
Si Si2 0.405207 0.065450 0.645861
Si Si3 0.558157 0.425158 0.932536
Si Si4 0.800968 0.924792 0.368263
Si Si5 0.799276 0.424555 0.792382
Si Si6 0.899992 0.931037 0.797851
O O1 0.000000 0.250000 0.573633
O O2 0.000000 0.000000 0.500000
O O3 0.951060 0.004452 0.608196
O O4 0.406373 0.250000 0.643106
O O5 0.410278 0.014054 0.723124
O O6 0.352287 0.010168 0.619287
O O7 0.500000 0.425781 0.935770
O O8 0.574872 0.250000 0.932415
O O9 0.571962 0.495163 0.861421
O O10 0.576825 0.500000 0.000000
O O11 0.803931 0.750000 0.391552
O O12 0.797410 0.922189 0.287970
O O13 0.750000 0.000000 0.391664
O O14 0.805447 0.250000 0.814217
O O15 0.750000 0.500000 0.816725
O O16 0.844209 0.529738 0.810701
O O17 0.908937 0.750000 0.795140
#
# Coordination Sequence:
#
# PCOD9502955 Si02
#       6
#     8  16  16  16  16  16
#     4  12  26  44  62  82 111 148 185 222 265 320
#     4  10  20  35  57  84 111 144 184 226 273 323
#     4   9  18  32  49  69  97 134 173 212 258 312
#     4   9  16  28  48  77 112 145 179 223 271 320
#     4   9  16  26  43  68 101 134 169 210 259 311
#     4   9  18  31  51  76 104 136 173 215 261 310
#
# _framework density 18.038882000000001
#
# number of rings (size 3 to 8) (size 9 to 14) (size 15 to 20)
#    0.000    2.545    0.000    2.455    1.273    5.818 
#    0.000    0.000    0.000    1.091    0.000    7.636 
#    0.000    0.000    0.000    0.000    0.000    0.000 
#
# Total GULP energy -244979.049684 kJ/mol
# GULP energy per Si atom -5567.705675 kJ/mol
# Density = 1.799782 g / cm^3
# Si number density = 18.038882 Si / 1000 Ang^3
#
#
#
# Elastic Constant Matrix: (Units=GPa)
#
#
# Indices 1 2 3 4 5 6 
#
# 1 106.8277 42.6767 60.9735 0.0000 0.0000 0.0000
# 2 42.6767 62.3476 29.0670 0.0000 0.0000 0.0000
# 3 60.9735 29.0670 80.4510 0.0000 0.0000 0.0000
# 4 0.0000 0.0000 0.0000 17.1487 0.0000 0.0000
# 5 0.0000 0.0000 0.0000 0.0000 -9.3145 0.0000
# 6 0.0000 0.0000 0.0000 0.0000 0.0000 31.2587
#
#
#
# Elastic Compliance Matrix: (Units=1/GPa)
#
#
# Indices 1 2 3 4 5 6 
#
# 1 0.019086 -0.007601 -0.011719 0.000000 0.000000 0.000000
# 2 -0.007601 0.022315 -0.002302 0.000000 0.000000 0.000000
# 3 -0.011719 -0.002302 0.022143 0.000000 0.000000 0.000000
# 4 0.000000 0.000000 0.000000 0.058313 0.000000 0.000000
# 5 0.000000 0.000000 0.000000 0.000000 -0.107359 0.000000
# 6 0.000000 0.000000 0.000000 0.000000 0.000000 0.031991
#
#
# Mechanical properties :
#
#
# Convention : Reuss Voigt Hill
#
# Bulk Modulus (GPa) = 49.25847 57.22898 53.24372
# Shear Modulus (GPa) = 51.81309 15.61252 33.71281
#
# Velocity S-wave (km/s) = 5.36520 2.94512 4.32776
# Velocity P-wave (km/s) = 8.10843 6.58477 7.38599
#
# Compressibility (1/GPa) = 0.02030108
#
# Stress axis : x y z
#
# Youngs Moduli (GPa) = 52.39368 44.81298 45.15999
#
# Poissons Ratio (x) = 0.34062 0.52924
# Poissons Ratio (y) = 0.39824 0.10395
# Poissons Ratio (z) = 0.61401 0.10315
#
# Static dielectric constant tensor:
#      x y z
#    x 1.561730 0.000000 0.000000 
#    y 0.000000 1.632540 0.000000 
#    z 0.000000 0.000000 1.646010 
# 
# From -- ./inp_files/36946.got.cif
#   From: 2010.05.17/outbox.cif.g08.bks.cpg/sg67_19_cif.got.tgz:36946.got - 2010.06.03 18:28:57.
