data_PCOD9502140
_publ_section_title
;
Structure prediction by ZEFSAII (Michael W. Deem and Ramdas Pophale) SiO2 
 PCOD9502140
Probable space group: C M M A
;
_chemical_formula_sum "Si O2"
_cell_formula_units_Z 88
_cell_length_a 16.617210
_cell_length_b 7.448290
_cell_length_c 31.747810
_cell_angle_alpha 90.000000
_cell_angle_beta 90.000000
_cell_angle_gamma 90.000000
_cell_volume 3929.420065
_symmetry_space_group_name_H-M "C M M A"
_symmetry_group_IT_number 67
_symmetry_cell_setting 'orthorhombic'
loop_
_space_group_symop_operation_xyz
x,y,z
-x,1/2-y,z
x,-y,-z
-x,1/2+y,-z
-x,-y,-z
x,1/2+y,-z
-x,y,z
x,1/2-y,z
1/2+x,1/2+y,z
1/2-x,-y,z
1/2+x,1/2-y,-z
1/2-x,y,-z
1/2-x,1/2-y,-z
1/2+x,y,-z
1/2-x,1/2+y,z
1/2+x,-y,z
loop_
_atom_site_type_symbol
_atom_site_label
_atom_site_fract_x
_atom_site_fract_y
_atom_site_fract_z
Si Si1 0.591371 0.035218 0.545342
Si Si2 0.843566 0.964358 0.634233
Si Si3 0.405702 0.530638 0.186368
Si Si4 0.903473 0.457464 0.277421
Si Si5 0.000000 0.964913 0.950494
Si Si6 0.158955 0.464747 0.098225
O O1 0.500000 0.965471 0.543068
O O2 0.588567 0.250000 0.548644
O O3 0.628212 0.965403 0.588790
O O4 0.631603 0.000000 0.500000
O O5 0.860924 0.750000 0.633768
O O6 0.881026 0.038042 0.677492
O O7 0.750000 0.000000 0.637223
O O8 0.500000 0.481616 0.180115
O O9 0.404459 0.750000 0.187853
O O10 0.376657 0.465841 0.232324
O O11 0.354920 0.470467 0.146195
O O12 0.874729 0.250000 0.278441
O O13 0.000000 0.455137 0.274923
O O14 0.916839 0.032306 0.929297
O O15 0.000000 0.750000 0.944281
O O16 0.000000 0.000000 0.000000
O O17 0.151417 0.250000 0.099268
O O18 0.250000 0.500000 0.083424
#
# Coordination Sequence:
#
# PCOD9502140 Si02
#       6
#    16  16  16  16   8  16
#     4   9  18  33  52  70  88 114 153 199 241 285
#     4  10  20  32  46  68  98 127 155 194 242 290
#     4   8  13  26  50  76 102 134 173 213 254 304
#     4   8  14  26  48  74  96 126 169 208 240 285
#     4  10  22  40  60  80 110 148 186 228 273 320
#     4  10  20  35  56  83 112 144 181 225 272 321
#
# _framework density 22.395161000000002
#
# number of rings (size 3 to 8) (size 9 to 14) (size 15 to 20)
#    0.000    2.909    0.909    1.636    0.000    5.091 
#    0.000    3.636    0.000    1.636    0.000    2.545 
#    0.000    0.000    0.000    0.000    0.000    0.000 
#
# Total GULP energy -245314.122739 kJ/mol
# GULP energy per Si atom -5575.320971 kJ/mol
# Density = 2.234419 g / cm^3
# Si number density = 22.395161 Si / 1000 Ang^3
#
#
#
# Elastic Constant Matrix: (Units=GPa)
#
#
# Indices 1 2 3 4 5 6 
#
# 1 93.1661 -0.9871 81.5386 0.0000 0.0000 0.0000
# 2 -0.9871 71.1912 8.5904 0.0000 0.0000 0.0000
# 3 81.5386 8.5904 212.9126 0.0000 0.0000 0.0000
# 4 0.0000 0.0000 0.0000 3.7975 0.0000 0.0000
# 5 0.0000 0.0000 0.0000 0.0000 -1.2566 0.0000
# 6 0.0000 0.0000 0.0000 0.0000 0.0000 14.0949
#
#
#
# Elastic Compliance Matrix: (Units=1/GPa)
#
#
# Indices 1 2 3 4 5 6 
#
# 1 0.016212 0.000979 -0.006248 0.000000 0.000000 0.000000
# 2 0.000979 0.014174 -0.000947 0.000000 0.000000 0.000000
# 3 -0.006248 -0.000947 0.007128 0.000000 0.000000 0.000000
# 4 0.000000 0.000000 0.000000 0.263334 0.000000 0.000000
# 5 0.000000 0.000000 0.000000 0.000000 -0.795808 0.000000
# 6 0.000000 0.000000 0.000000 0.000000 0.000000 0.070948
#
#
# Mechanical properties :
#
#
# Convention : Reuss Voigt Hill
#
# Bulk Modulus (GPa) = 39.86895 61.72818 50.79856
# Shear Modulus (GPa) = -12.40024 22.53569 5.06773
#
# Velocity S-wave (km/s) = -2.35564 3.17562 1.50591
# Velocity P-wave (km/s) = 3.23147 6.40852 5.07501
#
# Compressibility (1/GPa) = 0.02508218
#
# Stress axis : x y z
#
# Youngs Moduli (GPa) = 61.68120 70.54929 140.29453
#
# Poissons Ratio (x) = -0.06905 0.87660
# Poissons Ratio (y) = -0.06037 0.13282
# Poissons Ratio (z) = 0.38540 0.06679
#
# Static dielectric constant tensor:
#      x y z
#    x 1.788210 0.000000 0.000000 
#    y 0.000000 1.924180 0.000000 
#    z 0.000000 0.000000 1.880860 
# 
# From -- ./inp_files/44308.got.cif
#   From: 2010.05.17/outbox.cif.g08.bks.cpg/sg67_23_cif.got.tgz:44308.got - 2010.06.03 18:28:57.
