data_PCOD9502180
_publ_section_title
;
Structure prediction by ZEFSAII (Michael W. Deem and Ramdas Pophale) SiO2 
 PCOD9502180
Probable space group: C M M A
;
_chemical_formula_sum "Si O2"
_cell_formula_units_Z 104
_cell_length_a 31.246657
_cell_length_b 8.744029
_cell_length_c 23.496789
_cell_angle_alpha 90.000000
_cell_angle_beta 90.000000
_cell_angle_gamma 90.000000
_cell_volume 6419.832047
_symmetry_space_group_name_H-M "C M M A"
_symmetry_group_IT_number 67
_symmetry_cell_setting 'orthorhombic'
loop_
_space_group_symop_operation_xyz
x,y,z
-x,1/2-y,z
x,-y,-z
-x,1/2+y,-z
-x,-y,-z
x,1/2+y,-z
-x,y,z
x,1/2-y,z
1/2+x,1/2+y,z
1/2-x,-y,z
1/2+x,1/2-y,-z
1/2-x,y,-z
1/2-x,1/2-y,-z
1/2+x,y,-z
1/2-x,1/2+y,z
1/2+x,-y,z
loop_
_atom_site_type_symbol
_atom_site_label
_atom_site_fract_x
_atom_site_fract_y
_atom_site_fract_z
Si Si1 0.294841 0.067229 0.315267
Si Si2 0.912350 0.068201 0.394096
Si Si3 0.173437 0.433597 0.559521
Si Si4 0.550215 0.432701 0.819804
Si Si5 0.948199 0.424626 0.941382
Si Si6 0.500000 0.432461 0.437317
Si Si7 0.386632 0.933665 0.726077
O O1 0.291802 0.250000 0.317122
O O2 0.304010 0.016965 0.381073
O O3 0.335713 0.030013 0.275567
O O4 0.250000 0.000000 0.295833
O O5 0.912158 0.250000 0.402009
O O6 0.875013 0.993152 0.432024
O O7 0.957689 0.996640 0.408481
O O8 0.903066 0.021785 0.329413
O O9 0.190709 0.500000 0.500000
O O10 0.174023 0.250000 0.557007
O O11 0.500000 0.477399 0.808848
O O12 0.552757 0.250000 0.813101
O O13 0.560825 0.479961 0.884585
O O14 0.584094 0.513378 0.778311
O O15 0.933142 0.250000 0.935646
O O16 0.000000 0.419865 0.945280
O O17 0.932541 0.500000 0.000000
O O18 0.500000 0.250000 0.437589
O O19 0.500000 0.500000 0.500000
O O20 0.390609 0.750000 0.718402
#
# Coordination Sequence:
#
# PCOD9502180 Si02
#       7
#    16  16  16  16  16   8  16
#     4   9  20  36  54  74  97 124 158 199 247 304
#     4  11  22  36  52  70  92 122 158 199 244 291
#     4  10  20  35  52  73  97 122 152 189 239 298
#     4  10  20  32  48  73 104 138 177 215 248 289
#     4   9  16  27  44  67  98 137 177 214 252 290
#     4  12  24  38  52  68  90 120 157 200 243 290
#     4  10  21  37  53  73 100 131 165 203 249 297
#
# _framework density 16.199801999999998
#
# number of rings (size 3 to 8) (size 9 to 14) (size 15 to 20)
#    0.000    2.000    0.000    5.308    1.077    6.769 
#    0.000    1.538    0.000    0.000    0.000    0.000 
#    0.000    0.615    0.000    6.462    0.000    3.846 
#
# Total GULP energy -290062.140783 kJ/mol
# GULP energy per Si atom -5578.118092 kJ/mol
# Density = 1.616293 g / cm^3
# Si number density = 16.199802 Si / 1000 Ang^3
#
#
#
# Elastic Constant Matrix: (Units=GPa)
#
#
# Indices 1 2 3 4 5 6 
#
# 1 97.1540 26.1306 32.1343 0.0000 0.0000 0.0000
# 2 26.1306 70.7496 17.3403 0.0000 0.0000 0.0000
# 3 32.1343 17.3403 71.7662 0.0000 0.0000 0.0000
# 4 0.0000 0.0000 0.0000 29.9463 0.0000 0.0000
# 5 0.0000 0.0000 0.0000 0.0000 6.4265 0.0000
# 6 0.0000 0.0000 0.0000 0.0000 0.0000 22.0828
#
#
#
# Elastic Compliance Matrix: (Units=1/GPa)
#
#
# Indices 1 2 3 4 5 6 
#
# 1 0.012870 -0.003551 -0.004905 0.000000 0.000000 0.000000
# 2 -0.003551 0.016004 -0.002277 0.000000 0.000000 0.000000
# 3 -0.004905 -0.002277 0.016680 0.000000 0.000000 0.000000
# 4 0.000000 0.000000 0.000000 0.033393 0.000000 0.000000
# 5 0.000000 0.000000 0.000000 0.000000 0.155605 0.000000
# 6 0.000000 0.000000 0.000000 0.000000 0.000000 0.045284
#
#
# Mechanical properties :
#
#
# Convention : Reuss Voigt Hill
#
# Bulk Modulus (GPa) = 41.51273 43.43112 42.47192
# Shear Modulus (GPa) = 16.16381 22.62877 19.39629
#
# Velocity S-wave (km/s) = 3.16219 3.74151 3.46398
# Velocity P-wave (km/s) = 6.24609 6.74782 6.50180
#
# Compressibility (1/GPa) = 0.02408900
#
# Stress axis : x y z
#
# Youngs Moduli (GPa) = 77.69754 62.48424 59.95044
#
# Poissons Ratio (x) = 0.22191 0.29405
# Poissons Ratio (y) = 0.27594 0.13649
# Poissons Ratio (z) = 0.38109 0.14226
#
# Static dielectric constant tensor:
#      x y z
#    x 6.107360 0.000000 0.000000 
#    y 0.000000 1.543870 0.000000 
#    z 0.000000 0.000000 1.538950 
# 
# From -- ./inp_files/41141.got.cif
#   From: 2010.05.17/outbox.cif.g08.bks.cpg/sg67_21_cif.got.tgz:41141.got - 2010.06.03 18:28:57.
