data_PCOD9502568
_publ_section_title
;
Structure prediction by ZEFSAII (Michael W. Deem and Ramdas Pophale) SiO2 
 PCOD9502568
Probable space group: C M M A
;
_chemical_formula_sum "Si O2"
_cell_formula_units_Z 88
_cell_length_a 8.856381
_cell_length_b 31.160241
_cell_length_c 17.972038
_cell_angle_alpha 90.000000
_cell_angle_beta 90.000000
_cell_angle_gamma 90.000000
_cell_volume 4959.688806
_symmetry_space_group_name_H-M "C M M A"
_symmetry_group_IT_number 67
_symmetry_cell_setting 'orthorhombic'
loop_
_space_group_symop_operation_xyz
x,y,z
-x,1/2-y,z
x,-y,-z
-x,1/2+y,-z
-x,-y,-z
x,1/2+y,-z
-x,y,z
x,1/2-y,z
1/2+x,1/2+y,z
1/2-x,-y,z
1/2+x,1/2-y,-z
1/2-x,y,-z
1/2-x,1/2-y,-z
1/2+x,y,-z
1/2-x,1/2+y,z
1/2+x,-y,z
loop_
_atom_site_type_symbol
_atom_site_label
_atom_site_fract_x
_atom_site_fract_y
_atom_site_fract_z
Si Si1 0.819340 0.544692 0.236259
Si Si2 0.321519 0.573840 0.079225
Si Si3 0.178667 0.665466 0.852572
Si Si4 0.318718 0.798802 0.417453
Si Si5 0.180968 0.634780 0.301671
Si Si6 0.679328 0.750000 0.919163
O O1 0.750000 0.500000 0.262317
O O2 0.753798 0.553905 0.153268
O O3 0.781985 0.584109 0.291956
O O4 0.000000 0.542218 0.230368
O O5 0.500000 0.564110 0.079436
O O6 0.302240 0.625117 0.091890
O O7 0.250000 0.561183 0.000000
O O8 0.253925 0.653378 0.774855
O O9 0.259501 0.707622 0.880448
O O10 0.000000 0.672433 0.843249
O O11 0.500000 0.802099 0.420352
O O12 0.282008 0.750000 0.389589
O O13 0.250000 0.802039 0.500000
O O14 0.252804 0.836821 0.366891
O O15 0.000000 0.638734 0.304910
O O16 0.500000 0.750000 0.921943
O O17 0.750000 0.750000 0.000000
#
# Coordination Sequence:
#
# PCOD9502568 Si02
#       6
#    16  16  16  16  16   8
#     4  10  21  37  57  81 109 142 184 231 280 335
#     4  10  20  34  53  75 102 137 178 229 284 337
#     4  10  21  36  53  74 102 139 183 229 276 329
#     4  10  21  37  59  88 121 155 188 225 268 321
#     4  10  21  37  58  84 114 148 184 225 275 330
#     4  12  24  36  50  70  99 138 183 232 280 328
#
# _framework density 17.743048000000002
#
# number of rings (size 3 to 8) (size 9 to 14) (size 15 to 20)
#    0.000    1.818    0.000    4.091    1.273    7.273 
#    0.000    1.818    0.000    0.545    0.000    3.818 
#    0.000    0.000    0.000    0.000    0.000    0.000 
#
# Total GULP energy -245639.909027 kJ/mol
# GULP energy per Si atom -5582.725205 kJ/mol
# Density = 1.770266 g / cm^3
# Si number density = 17.743048 Si / 1000 Ang^3
#
#
#
# Elastic Constant Matrix: (Units=GPa)
#
#
# Indices 1 2 3 4 5 6 
#
# 1 81.0394 81.2444 41.8032 0.0000 0.0000 0.0000
# 2 81.2444 151.6186 60.5411 0.0000 0.0000 0.0000
# 3 41.8032 60.5411 78.9420 0.0000 0.0000 0.0000
# 4 0.0000 0.0000 0.0000 7.5825 0.0000 0.0000
# 5 0.0000 0.0000 0.0000 0.0000 33.1268 0.0000
# 6 0.0000 0.0000 0.0000 0.0000 0.0000 30.6952
#
#
#
# Elastic Compliance Matrix: (Units=1/GPa)
#
#
# Indices 1 2 3 4 5 6 
#
# 1 0.027852 -0.013023 -0.004761 0.000000 0.000000 0.000000
# 2 -0.013023 0.015596 -0.005064 0.000000 0.000000 0.000000
# 3 -0.004761 -0.005064 0.019073 0.000000 0.000000 0.000000
# 4 0.000000 0.000000 0.000000 0.131883 0.000000 0.000000
# 5 0.000000 0.000000 0.000000 0.000000 0.030187 0.000000
# 6 0.000000 0.000000 0.000000 0.000000 0.000000 0.032578
#
#
# Mechanical properties :
#
#
# Convention : Reuss Voigt Hill
#
# Bulk Modulus (GPa) = 59.44214 75.41970 67.43092
# Shear Modulus (GPa) = 16.20880 22.81499 19.51189
#
# Velocity S-wave (km/s) = 3.02574 3.58977 3.31976
# Velocity P-wave (km/s) = 6.76618 7.73181 7.26506
#
# Compressibility (1/GPa) = 0.01682308
#
# Stress axis : x y z
#
# Youngs Moduli (GPa) = 35.90433 64.11837 52.43090
#
# Poissons Ratio (x) = 0.83502 0.24963
# Poissons Ratio (y) = 0.46759 0.26553
# Poissons Ratio (z) = 0.17095 0.32472
#
# Static dielectric constant tensor:
#      x y z
#    x 1.586110 0.000000 0.000000 
#    y 0.000000 1.625050 0.000000 
#    z 0.000000 0.000000 1.565130 
# 
# From -- ./inp_files/32407.got.cif
#   From: 2010.05.17/outbox.cif.g08.bks.cpg/sg67_17_cif.got.tgz:32407.got - 2010.06.03 18:28:57.
