data_PCOD9502564
_publ_section_title
;
Structure prediction by ZEFSAII (Michael W. Deem and Ramdas Pophale) SiO2 
 PCOD9502564
Probable space group: C M M A
;
_chemical_formula_sum "Si O2"
_cell_formula_units_Z 80
_cell_length_a 25.529993
_cell_length_b 10.477790
_cell_length_c 15.817841
_cell_angle_alpha 90.000000
_cell_angle_beta 90.000000
_cell_angle_gamma 90.000000
_cell_volume 4231.239335
_symmetry_space_group_name_H-M "C M M A"
_symmetry_group_IT_number 67
_symmetry_cell_setting 'orthorhombic'
loop_
_space_group_symop_operation_xyz
x,y,z
-x,1/2-y,z
x,-y,-z
-x,1/2+y,-z
-x,-y,-z
x,1/2+y,-z
-x,y,z
x,1/2-y,z
1/2+x,1/2+y,z
1/2-x,-y,z
1/2+x,1/2-y,-z
1/2-x,y,-z
1/2-x,1/2-y,-z
1/2+x,y,-z
1/2-x,1/2+y,z
1/2+x,-y,z
loop_
_atom_site_type_symbol
_atom_site_label
_atom_site_fract_x
_atom_site_fract_y
_atom_site_fract_z
Si Si1 0.828255 0.482448 0.266103
Si Si2 0.692041 0.750000 0.821340
Si Si3 0.806176 0.390141 0.450554
Si Si4 0.804302 0.750000 0.859271
Si Si5 0.916040 0.250000 0.080825
Si Si6 0.923117 0.750000 0.112152
Si Si7 0.057635 0.484368 0.204356
O O1 0.809631 0.622540 0.236683
O O2 0.804259 0.436616 0.354395
O O3 0.812720 0.376423 0.197337
O O4 0.891908 0.481783 0.265778
O O5 0.743200 0.750000 0.880318
O O6 0.639569 0.750000 0.875698
O O7 0.836588 0.500000 0.500000
O O8 0.829794 0.250000 0.453183
O O9 0.750000 0.380077 0.500000
O O10 0.852449 0.750000 0.923582
O O11 0.933162 0.373742 0.134458
O O12 0.937086 0.250000 0.986205
O O13 0.941429 0.878756 0.157941
O O14 0.000000 0.465057 0.242853
#
# Coordination Sequence:
#
# PCOD9502564 Si02
#       7
#    16   8  16   8   8   8  16
#     4  10  21  37  53  79 116 143 185 228 265 329
#     4  10  22  32  55  78 108 158 187 217 274 333
#     4  10  22  34  52  82 112 142 170 217 270 324
#     4  10  20  34  53  74 108 156 185 223 270 337
#     4  10  21  35  54  81 113 141 189 242 280 327
#     4  10  21  37  52  83 115 141 187 242 282 323
#     4  10  21  37  58  82 106 147 191 230 283 325
#
# _framework density 18.90699
#
# number of rings (size 3 to 8) (size 9 to 14) (size 15 to 20)
#    0.000    2.000    1.000    1.800    7.000    2.800 
#    0.000    0.000    0.000    7.800    0.000    0.000 
#    0.000    0.000    0.000    0.000    0.000    0.000 
#
# Total GULP energy -222994.826286 kJ/mol
# GULP energy per Si atom -5574.870657 kJ/mol
# Density = 1.886396 g / cm^3
# Si number density = 18.906990 Si / 1000 Ang^3
#
#
#
# Elastic Constant Matrix: (Units=GPa)
#
#
# Indices 1 2 3 4 5 6 
#
# 1 148.6559 1.6626 6.9173 0.0000 0.0000 0.0000
# 2 1.6626 165.7045 20.2646 0.0000 0.0000 0.0000
# 3 6.9173 20.2646 62.0689 0.0000 0.0000 0.0000
# 4 0.0000 0.0000 0.0000 69.5642 0.0000 0.0000
# 5 0.0000 0.0000 0.0000 0.0000 4.7644 0.0000
# 6 0.0000 0.0000 0.0000 0.0000 0.0000 14.4819
#
#
#
# Elastic Compliance Matrix: (Units=1/GPa)
#
#
# Indices 1 2 3 4 5 6 
#
# 1 0.006762 0.000025 -0.000762 0.000000 0.000000 0.000000
# 2 0.000025 0.006286 -0.002055 0.000000 0.000000 0.000000
# 3 -0.000762 -0.002055 0.016867 0.000000 0.000000 0.000000
# 4 0.000000 0.000000 0.000000 0.014375 0.000000 0.000000
# 5 0.000000 0.000000 0.000000 0.000000 0.209889 0.000000
# 6 0.000000 0.000000 0.000000 0.000000 0.000000 0.069052
#
#
# Mechanical properties :
#
#
# Convention : Reuss Voigt Hill
#
# Bulk Modulus (GPa) = 41.09859 48.23538 44.66699
# Shear Modulus (GPa) = 14.84010 40.93444 27.88727
#
# Velocity S-wave (km/s) = 2.80465 4.65805 3.84470
# Velocity P-wave (km/s) = 5.68089 7.38222 6.58672
#
# Compressibility (1/GPa) = 0.02433174
#
# Stress axis : x y z
#
# Youngs Moduli (GPa) = 147.88279 159.08606 59.28745
#
# Poissons Ratio (x) = -0.00403 0.04517
# Poissons Ratio (y) = -0.00374 0.12184
# Poissons Ratio (z) = 0.11267 0.32693
#
# Static dielectric constant tensor:
#      x y z
#    x 1.719610 0.000000 0.000000 
#    y 0.000000 1.684630 0.000000 
#    z 0.000000 0.000000 1.627990 
# 
# From -- ./inp_files/29913.got.cif
#   From: 2010.05.17/outbox.cif.g08.bks.cpg/sg67_15_cif.got.tgz:29913.got - 2010.06.03 18:28:57.
