data_PCOD9502633
_publ_section_title
;
Structure prediction by ZEFSAII (Michael W. Deem and Ramdas Pophale) SiO2 
 PCOD9502633
Probable space group: C M M A
;
_chemical_formula_sum "Si O2"
_cell_formula_units_Z 72
_cell_length_a 32.237679
_cell_length_b 8.861089
_cell_length_c 13.711444
_cell_angle_alpha 90.000000
_cell_angle_beta 90.000000
_cell_angle_gamma 90.000000
_cell_volume 3916.824020
_symmetry_space_group_name_H-M "C M M A"
_symmetry_group_IT_number 67
_symmetry_cell_setting 'orthorhombic'
loop_
_space_group_symop_operation_xyz
x,y,z
-x,1/2-y,z
x,-y,-z
-x,1/2+y,-z
-x,-y,-z
x,1/2+y,-z
-x,y,z
x,1/2-y,z
1/2+x,1/2+y,z
1/2-x,-y,z
1/2+x,1/2-y,-z
1/2-x,y,-z
1/2-x,1/2-y,-z
1/2+x,y,-z
1/2-x,1/2+y,z
1/2+x,-y,z
loop_
_atom_site_type_symbol
_atom_site_label
_atom_site_fract_x
_atom_site_fract_y
_atom_site_fract_z
Si Si1 0.918784 0.569898 0.704178
Si Si2 0.292675 0.070413 0.202701
Si Si3 0.000000 0.069636 0.607674
Si Si4 0.330510 0.570307 0.394757
Si Si5 0.119989 0.069387 0.895078
O O1 0.924922 0.750000 0.708392
O O2 0.959040 0.489440 0.661879
O O3 0.878437 0.540718 0.636215
O O4 0.907353 0.505109 0.810165
O O5 0.288841 0.250000 0.210796
O O6 0.332215 0.036163 0.134734
O O7 0.250000 0.000000 0.165849
O O8 0.303201 0.001702 0.308816
O O9 0.000000 0.250000 0.602713
O O10 0.000000 0.000000 0.500000
O O11 0.321924 0.500000 0.500000
O O12 0.324263 0.750000 0.396665
O O13 0.114613 0.250000 0.895052
O O14 0.110781 0.000000 0.000000
#
# Coordination Sequence:
#
# PCOD9502633 Si02
#       5
#    16  16   8  16  16
#     4  10  21  38  59  84 114 147 185 230 277 328
#     4  10  21  36  54  78 109 142 182 230 277 327
#     4  12  24  38  59  88 121 154 188 226 270 322
#     4  10  20  34  54  78 107 144 184 225 273 329
#     4  10  21  38  60  84 111 146 185 228 278 332
#
# _framework density 18.382239999999999
#
# number of rings (size 3 to 8) (size 9 to 14) (size 15 to 20)
#    0.000    1.778    0.000    4.333    0.000    8.000 
#    0.000    5.000    0.000    0.000    0.000    0.000 
#    0.000    0.000    0.000    0.000    0.000    0.000 
#
# Total GULP energy -201232.645207 kJ/mol
# GULP energy per Si atom -5589.795700 kJ/mol
# Density = 1.834040 g / cm^3
# Si number density = 18.382240 Si / 1000 Ang^3
#
#
#
# Elastic Constant Matrix: (Units=GPa)
#
#
# Indices 1 2 3 4 5 6 
#
# 1 96.2750 50.8119 25.8344 0.0000 0.0000 0.0000
# 2 50.8119 81.6990 37.0847 0.0000 0.0000 0.0000
# 3 25.8344 37.0847 102.8269 0.0000 0.0000 0.0000
# 4 0.0000 0.0000 0.0000 31.0073 0.0000 0.0000
# 5 0.0000 0.0000 0.0000 0.0000 5.0401 0.0000
# 6 0.0000 0.0000 0.0000 0.0000 0.0000 32.9399
#
#
#
# Elastic Compliance Matrix: (Units=1/GPa)
#
#
# Indices 1 2 3 4 5 6 
#
# 1 0.015484 -0.009404 -0.000499 0.000000 0.000000 0.000000
# 2 -0.009404 0.020347 -0.004976 0.000000 0.000000 0.000000
# 3 -0.000499 -0.004976 0.011645 0.000000 0.000000 0.000000
# 4 0.000000 0.000000 0.000000 0.032250 0.000000 0.000000
# 5 0.000000 0.000000 0.000000 0.000000 0.198408 0.000000
# 6 0.000000 0.000000 0.000000 0.000000 0.000000 0.030358
#
#
# Mechanical properties :
#
#
# Convention : Reuss Voigt Hill
#
# Bulk Modulus (GPa) = 56.43420 56.47366 56.45393
# Shear Modulus (GPa) = 14.52833 24.93545 19.73189
#
# Velocity S-wave (km/s) = 2.81436 3.68706 3.27987
# Velocity P-wave (km/s) = 6.42868 6.99389 6.71723
#
# Compressibility (1/GPa) = 0.01771975
#
# Stress axis : x y z
#
# Youngs Moduli (GPa) = 64.58378 49.14718 85.87480
#
# Poissons Ratio (x) = 0.46216 0.04283
# Poissons Ratio (y) = 0.60732 0.42728
# Poissons Ratio (z) = 0.03221 0.24454
#
# Static dielectric constant tensor:
#      x y z
#    x 1.627020 0.000000 0.000000 
#    y 0.000000 1.612070 0.000000 
#    z 0.000000 0.000000 1.597470 
# 
# From -- ./inp_files/25305.got.cif
#   From: 2010.05.17/outbox.cif.g08.bks.cpg/sg67_13_cif.got.tgz:25305.got - 2010.06.03 18:28:57.
