data_PCOD9502292
_publ_section_title
;
Structure prediction by ZEFSAII (Michael W. Deem and Ramdas Pophale) SiO2 
 PCOD9502292
Probable space group: C M M A
;
_chemical_formula_sum "Si O2"
_cell_formula_units_Z 80
_cell_length_a 25.573492
_cell_length_b 14.294416
_cell_length_c 10.403754
_cell_angle_alpha 90.000000
_cell_angle_beta 90.000000
_cell_angle_gamma 90.000000
_cell_volume 3803.176891
_symmetry_space_group_name_H-M "C M M A"
_symmetry_group_IT_number 67
_symmetry_cell_setting 'orthorhombic'
loop_
_space_group_symop_operation_xyz
x,y,z
-x,1/2-y,z
x,-y,-z
-x,1/2+y,-z
-x,-y,-z
x,1/2+y,-z
-x,y,z
x,1/2-y,z
1/2+x,1/2+y,z
1/2-x,-y,z
1/2+x,1/2-y,-z
1/2-x,y,-z
1/2-x,1/2-y,-z
1/2+x,y,-z
1/2-x,1/2+y,z
1/2+x,-y,z
loop_
_atom_site_type_symbol
_atom_site_label
_atom_site_fract_x
_atom_site_fract_y
_atom_site_fract_z
Si Si1 0.284575 0.355537 0.612479
Si Si2 0.000000 0.859049 0.057100
Si Si3 0.886235 0.636346 0.047622
Si Si4 0.613717 0.134751 0.747340
Si Si5 0.772939 0.896067 0.132824
Si Si6 0.000000 0.140691 0.255231
O O1 0.297899 0.250000 0.568448
O O2 0.250000 0.398676 0.500000
O O3 0.338955 0.399866 0.659286
O O4 0.249363 0.350021 0.739929
O O5 0.943303 0.899092 0.094253
O O6 0.000000 0.750000 0.096738
O O7 0.000000 0.860567 0.901112
O O8 0.888099 0.750000 0.050981
O O9 0.835330 0.605457 0.124136
O O10 0.878574 0.609737 0.897586
O O11 0.614244 0.250000 0.746169
O O12 0.556194 0.102098 0.704452
O O13 0.750000 0.000000 0.137712
O O14 0.750000 0.854380 0.000000
O O15 0.000000 0.250000 0.292868
#
# Coordination Sequence:
#
# PCOD9502292 Si02
#       6
#    16   8  16  16  16   8
#     4  10  20  33  50  72  97 127 167 212 260 310
#     4   7  12  22  42  75 101 123 160 208 258 305
#     4   9  15  27  50  75 101 131 167 211 259 301
#     4   8  13  23  42  68  96 123 156 199 243 294
#     4  11  22  33  48  71 102 138 170 208 247 305
#     4   7  10  18  36  64  94 122 151 190 241 289
#
# _framework density 21.035046999999999
#
# number of rings (size 3 to 8) (size 9 to 14) (size 15 to 20)
#    0.000    3.000    2.000    3.000    0.000    1.200 
#    0.000    0.000    0.000    4.800    0.000    5.600 
#    0.000    3.200    0.000    0.000    0.000    0.000 
#
# Total GULP energy -223030.522883 kJ/mol
# GULP energy per Si atom -5575.763072 kJ/mol
# Density = 2.098717 g / cm^3
# Si number density = 21.035047 Si / 1000 Ang^3
#
#
#
# Elastic Constant Matrix: (Units=GPa)
#
#
# Indices 1 2 3 4 5 6 
#
# 1 252.8090 7.9725 51.5623 0.0000 0.0000 0.0000
# 2 7.9725 56.3512 0.6333 0.0000 0.0000 0.0000
# 3 51.5623 0.6333 67.5398 0.0000 0.0000 0.0000
# 4 0.0000 0.0000 0.0000 3.4708 0.0000 0.0000
# 5 0.0000 0.0000 0.0000 0.0000 22.0084 0.0000
# 6 0.0000 0.0000 0.0000 0.0000 0.0000 6.7616
#
#
#
# Elastic Compliance Matrix: (Units=1/GPa)
#
#
# Indices 1 2 3 4 5 6 
#
# 1 0.004707 -0.000626 -0.003588 0.000000 0.000000 0.000000
# 2 -0.000626 0.017831 0.000310 0.000000 0.000000 0.000000
# 3 -0.003588 0.000310 0.017542 0.000000 0.000000 0.000000
# 4 0.000000 0.000000 0.000000 0.288114 0.000000 0.000000
# 5 0.000000 0.000000 0.000000 0.000000 0.045437 0.000000
# 6 0.000000 0.000000 0.000000 0.000000 0.000000 0.147895
#
#
# Mechanical properties :
#
#
# Convention : Reuss Voigt Hill
#
# Bulk Modulus (GPa) = 30.98437 55.22624 43.10530
# Shear Modulus (GPa) = 9.25773 27.55029 18.40401
#
# Velocity S-wave (km/s) = 2.10015 3.62295 2.96112
# Velocity P-wave (km/s) = 4.54343 6.61909 5.67693
#
# Compressibility (1/GPa) = 0.03227434
#
# Stress axis : x y z
#
# Youngs Moduli (GPa) = 212.44903 56.08251 57.00568
#
# Poissons Ratio (x) = 0.03509 0.20452
# Poissons Ratio (y) = 0.13291 -0.01770
# Poissons Ratio (z) = 0.76219 -0.01741
#
# Static dielectric constant tensor:
#      x y z
#    x 1.814510 0.000000 0.000000 
#    y 0.000000 1.840260 0.000000 
#    z 0.000000 0.000000 1.722600 
# 
# From -- ./inp_files/21860.got.cif
#   From: 2010.05.17/outbox.cif.g08.bks.cpg/sg67_11_cif.got.tgz:21860.got - 2010.06.03 18:28:57.
