data_PCOD9502728
_publ_section_title
;
Structure prediction by ZEFSAII (Michael W. Deem and Ramdas Pophale) SiO2 
 PCOD9502728
Probable space group: C M M A
;
_chemical_formula_sum "Si O2"
_cell_formula_units_Z 72
_cell_length_a 10.278813
_cell_length_b 25.528677
_cell_length_c 13.789911
_cell_angle_alpha 90.000000
_cell_angle_beta 90.000000
_cell_angle_gamma 90.000000
_cell_volume 3618.534660
_symmetry_space_group_name_H-M "C M M A"
_symmetry_group_IT_number 67
_symmetry_cell_setting 'orthorhombic'
loop_
_space_group_symop_operation_xyz
x,y,z
-x,1/2-y,z
x,-y,-z
-x,1/2+y,-z
-x,-y,-z
x,1/2+y,-z
-x,y,z
x,1/2-y,z
1/2+x,1/2+y,z
1/2-x,-y,z
1/2+x,1/2-y,-z
1/2-x,y,-z
1/2-x,1/2-y,-z
1/2+x,y,-z
1/2-x,1/2+y,z
1/2+x,-y,z
loop_
_atom_site_type_symbol
_atom_site_label
_atom_site_fract_x
_atom_site_fract_y
_atom_site_fract_z
Si Si1 0.276765 0.141422 0.386063
Si Si2 0.132932 0.750000 0.426588
Si Si3 0.356328 0.955693 0.736858
Si Si4 0.344642 0.374158 0.091635
Si Si5 0.356297 0.311889 0.781873
O O1 0.250000 0.135948 0.500000
O O2 0.358443 0.195188 0.371241
O O3 0.341351 0.089724 0.343585
O O4 0.154782 0.154881 0.317352
O O5 0.250000 0.750000 0.500000
O O6 0.000000 0.750000 0.485257
O O7 0.500000 0.978979 0.731337
O O8 0.342221 0.924893 0.838501
O O9 0.250000 0.000000 0.725242
O O10 0.500000 0.362780 0.073453
O O11 0.264947 0.329764 0.151831
O O12 0.250000 0.383116 0.000000
O O13 0.500000 0.321760 0.826178
O O14 0.348399 0.250000 0.761530
#
# Coordination Sequence:
#
# PCOD9502728 Si02
#       5
#    16   8  16  16  16
#     4  10  21  38  60  91 123 166 209 260 305 359
#     4  10  20  34  56  84 117 154 199 252 304 356
#     4  10  23  42  62  88 121 159 206 253 309 367
#     4  10  22  41  65  92 120 155 199 250 309 374
#     4  10  21  37  58  89 126 165 208 253 302 363
#
# _framework density 19.897556000000002
#
# number of rings (size 3 to 8) (size 9 to 14) (size 15 to 20)
#    0.000    2.000    1.111    1.333    0.000   11.556 
#    0.000    3.333    0.000    0.000    0.000    0.000 
#    0.000    0.000    0.000    0.000    0.000    0.000 
#
# Total GULP energy -200526.871100 kJ/mol
# GULP energy per Si atom -5570.190864 kJ/mol
# Density = 1.985227 g / cm^3
# Si number density = 19.897556 Si / 1000 Ang^3
#
#
#
# Elastic Constant Matrix: (Units=GPa)
#
#
# Indices 1 2 3 4 5 6 
#
# 1 196.0260 67.6065 49.7282 0.0000 0.0000 0.0000
# 2 67.6065 84.7363 32.5379 0.0000 0.0000 0.0000
# 3 49.7282 32.5379 113.9925 0.0000 0.0000 0.0000
# 4 0.0000 0.0000 0.0000 4.1390 0.0000 0.0000
# 5 0.0000 0.0000 0.0000 0.0000 17.2201 0.0000
# 6 0.0000 0.0000 0.0000 0.0000 0.0000 8.0249
#
#
#
# Elastic Compliance Matrix: (Units=1/GPa)
#
#
# Indices 1 2 3 4 5 6 
#
# 1 0.007325 -0.005185 -0.001715 0.000000 0.000000 0.000000
# 2 -0.005185 0.016925 -0.002569 0.000000 0.000000 0.000000
# 3 -0.001715 -0.002569 0.010254 0.000000 0.000000 0.000000
# 4 0.000000 0.000000 0.000000 0.241605 0.000000 0.000000
# 5 0.000000 0.000000 0.000000 0.000000 0.058072 0.000000
# 6 0.000000 0.000000 0.000000 0.000000 0.000000 0.124613
#
#
# Mechanical properties :
#
#
# Convention : Reuss Voigt Hill
#
# Bulk Modulus (GPa) = 64.24859 77.16667 70.70763
# Shear Modulus (GPa) = 10.35367 22.20227 16.27797
#
# Velocity S-wave (km/s) = 2.28359 3.34403 2.86333
# Velocity P-wave (km/s) = 6.26999 7.33323 6.82235
#
# Compressibility (1/GPa) = 0.01556454
#
# Stress axis : x y z
#
# Youngs Moduli (GPa) = 136.52073 59.08428 97.52245
#
# Poissons Ratio (x) = 0.30638 0.16728
# Poissons Ratio (y) = 0.70793 0.25053
# Poissons Ratio (z) = 0.23417 0.15178
#
# Static dielectric constant tensor:
#      x y z
#    x 1.755010 0.000000 0.000000 
#    y 0.000000 1.684320 0.000000 
#    z 0.000000 0.000000 1.741560 
# 
# From -- ./inp_files/25087.got.cif
#   From: 2010.05.17/outbox.cif.g08.bks.cpg/sg67_13_cif.got.tgz:25087.got - 2010.06.03 18:28:57.
