data_PCOD9502550
_publ_section_title
;
Structure prediction by ZEFSAII (Michael W. Deem and Ramdas Pophale) SiO2 
 PCOD9502550
Probable space group: C M M A
;
_chemical_formula_sum "Si O2"
_cell_formula_units_Z 104
_cell_length_a 8.885968
_cell_length_b 26.733555
_cell_length_c 22.702056
_cell_angle_alpha 90.000000
_cell_angle_beta 90.000000
_cell_angle_gamma 90.000000
_cell_volume 5392.953184
_symmetry_space_group_name_H-M "C M M A"
_symmetry_group_IT_number 67
_symmetry_cell_setting 'orthorhombic'
loop_
_space_group_symop_operation_xyz
x,y,z
-x,1/2-y,z
x,-y,-z
-x,1/2+y,-z
-x,-y,-z
x,1/2+y,-z
-x,y,z
x,1/2-y,z
1/2+x,1/2+y,z
1/2-x,-y,z
1/2+x,1/2-y,-z
1/2-x,y,-z
1/2-x,1/2-y,-z
1/2+x,y,-z
1/2-x,1/2+y,z
1/2+x,-y,z
loop_
_atom_site_type_symbol
_atom_site_label
_atom_site_fract_x
_atom_site_fract_y
_atom_site_fract_z
Si Si1 0.321044 0.156188 0.058926
Si Si2 0.180712 0.306355 0.811111
Si Si3 0.180095 0.552484 0.348718
Si Si4 0.681043 0.250000 0.434607
Si Si5 0.178583 0.553154 0.901135
Si Si6 0.318265 0.141369 0.434746
Si Si7 0.177826 0.407831 0.230608
O O1 0.500000 0.153573 0.052858
O O2 0.286834 0.185569 0.119303
O O3 0.254614 0.100448 0.067430
O O4 0.250000 0.178523 0.000000
O O5 0.222694 0.250000 0.793467
O O6 0.262714 0.351257 0.777692
O O7 0.000000 0.311900 0.803531
O O8 0.250000 0.500000 0.367383
O O9 0.229279 0.596805 0.392333
O O10 0.235932 0.565728 0.283448
O O11 0.000000 0.549484 0.349190
O O12 0.500000 0.250000 0.438504
O O13 0.750000 0.250000 0.500000
O O14 0.724606 0.303859 0.408764
O O15 0.250000 0.500000 0.917271
O O16 0.203407 0.563878 0.831416
O O17 0.000000 0.553054 0.912297
O O18 0.500000 0.139886 0.439584
O O19 0.250000 0.136677 0.500000
O O20 0.000000 0.407953 0.242234
#
# Coordination Sequence:
#
# PCOD9502550 Si02
#       7
#    16  16  16   8  16  16  16
#     4  10  20  34  52  76 107 140 177 219 265 322
#     4   9  19  37  59  81 108 144 182 223 273 329
#     4  11  23  38  56  82 114 151 191 233 281 338
#     4   8  14  30  54  78 104 136 176 222 267 318
#     4  10  20  34  53  76 101 134 175 220 272 324
#     4   9  19  35  57  83 112 147 188 231 280 334
#     4  10  21  37  57  81 109 141 180 229 279 330
#
# _framework density 19.284424999999999
#
# number of rings (size 3 to 8) (size 9 to 14) (size 15 to 20)
#    0.000    2.308    0.000    2.308    0.000    6.154 
#    1.385    3.077    0.000    0.000    0.000    0.000 
#    0.000    0.000    0.000    0.000    0.000    0.000 
#
# Total GULP energy -290311.178902 kJ/mol
# GULP energy per Si atom -5582.907287 kJ/mol
# Density = 1.924053 g / cm^3
# Si number density = 19.284425 Si / 1000 Ang^3
#
#
#
# Elastic Constant Matrix: (Units=GPa)
#
#
# Indices 1 2 3 4 5 6 
#
# 1 32.5106 28.9246 20.1668 0.0000 0.0000 0.0000
# 2 28.9246 124.7248 21.1311 0.0000 0.0000 0.0000
# 3 20.1668 21.1311 43.9499 0.0000 0.0000 0.0000
# 4 0.0000 0.0000 0.0000 -0.4934 0.0000 0.0000
# 5 0.0000 0.0000 0.0000 0.0000 25.9765 0.0000
# 6 0.0000 0.0000 0.0000 0.0000 0.0000 28.3845
#
#
#
# Elastic Compliance Matrix: (Units=1/GPa)
#
#
# Indices 1 2 3 4 5 6 
#
# 1 0.049926 -0.008380 -0.018880 0.000000 0.000000 0.000000
# 2 -0.008380 0.010135 -0.001028 0.000000 0.000000 0.000000
# 3 -0.018880 -0.001028 0.031911 0.000000 0.000000 0.000000
# 4 0.000000 0.000000 0.000000 -2.026755 0.000000 0.000000
# 5 0.000000 0.000000 0.000000 0.000000 0.038496 0.000000
# 6 0.000000 0.000000 0.000000 0.000000 0.000000 0.035230
#
#
# Mechanical properties :
#
#
# Convention : Reuss Voigt Hill
#
# Bulk Modulus (GPa) = 28.25123 37.95893 33.10508
# Shear Modulus (GPa) = -2.78912 19.50438 8.35763
#
# Velocity S-wave (km/s) = -1.20393 3.18371 2.08405
# Velocity P-wave (km/s) = 3.57057 5.76551 4.79532
#
# Compressibility (1/GPa) = 0.03539669
#
# Stress axis : x y z
#
# Youngs Moduli (GPa) = 20.02962 98.66723 31.33740
#
# Poissons Ratio (x) = 0.82678 0.59166
# Poissons Ratio (y) = 0.16784 0.03221
# Poissons Ratio (z) = 0.37816 0.10142
#
# Static dielectric constant tensor:
#      x y z
#    x 1.648270 0.000000 0.000000 
#    y 0.000000 1.678500 0.000000 
#    z 0.000000 0.000000 1.659490 
# 
# From -- ./inp_files/39958.got.cif
#   From: 2010.05.17/outbox.cif.g08.bks.cpg/sg67_20_cif.got.tgz:39958.got - 2010.06.03 18:28:57.
