data_PCOD9502576
_publ_section_title
;
Structure prediction by ZEFSAII (Michael W. Deem and Ramdas Pophale) SiO2 
 PCOD9502576
Probable space group: C M M A
;
_chemical_formula_sum "Si O2"
_cell_formula_units_Z 96
_cell_length_a 20.456034
_cell_length_b 8.684338
_cell_length_c 30.994883
_cell_angle_alpha 90.000000
_cell_angle_beta 90.000000
_cell_angle_gamma 90.000000
_cell_volume 5506.151495
_symmetry_space_group_name_H-M "C M M A"
_symmetry_group_IT_number 67
_symmetry_cell_setting 'orthorhombic'
loop_
_space_group_symop_operation_xyz
x,y,z
-x,1/2-y,z
x,-y,-z
-x,1/2+y,-z
-x,-y,-z
x,1/2+y,-z
-x,y,z
x,1/2-y,z
1/2+x,1/2+y,z
1/2-x,-y,z
1/2+x,1/2-y,-z
1/2-x,y,-z
1/2-x,1/2-y,-z
1/2+x,y,-z
1/2-x,1/2+y,z
1/2+x,-y,z
loop_
_atom_site_type_symbol
_atom_site_label
_atom_site_fract_x
_atom_site_fract_y
_atom_site_fract_z
Si Si1 0.575278 0.564007 0.546817
Si Si2 0.321824 0.564668 0.952750
Si Si3 0.321660 0.565404 0.717623
Si Si4 0.321374 0.064196 0.381599
Si Si5 0.424674 0.935557 0.879378
Si Si6 0.575618 0.934277 0.214742
O O1 0.594445 0.500000 0.500000
O O2 0.500000 0.517079 0.555087
O O3 0.576843 0.750000 0.545242
O O4 0.623966 0.512411 0.584496
O O5 0.318841 0.750000 0.954811
O O6 0.250000 0.500000 0.941833
O O7 0.374923 0.518703 0.917006
O O8 0.338965 0.500000 0.000000
O O9 0.319685 0.750000 0.719592
O O10 0.250000 0.500000 0.728512
O O11 0.336029 0.518876 0.667925
O O12 0.375880 0.503468 0.750098
O O13 0.318875 0.250000 0.382727
O O14 0.250000 0.000000 0.392807
O O15 0.500000 0.978492 0.889337
O O16 0.422112 0.750000 0.875471
O O17 0.407275 0.007560 0.833230
O O18 0.500000 0.980769 0.222827
O O19 0.579171 0.750000 0.215862
#
# Coordination Sequence:
#
# PCOD9502576 Si02
#       6
#    16  16  16  16  16  16
#     4   9  18  33  51  72  99 130 166 206 247 294
#     4  10  20  34  53  76 103 134 168 208 252 300
#     4  10  20  35  55  77 103 136 172 212 258 307
#     4   9  19  34  52  74 100 131 166 206 250 298
#     4   9  19  36  55  75 101 135 174 212 252 301
#     4  10  21  36  54  78 107 137 171 213 258 305
#
# _framework density 17.435046
#
# number of rings (size 3 to 8) (size 9 to 14) (size 15 to 20)
#    0.000    2.500    0.000    2.000    0.000    5.667 
#    0.000    5.000    0.000    2.000    0.000    0.000 
#    0.000    0.000    0.000    0.000    0.000    0.000 
#
# Total GULP energy -267805.939002 kJ/mol
# GULP energy per Si atom -5579.290396 kJ/mol
# Density = 1.739536 g / cm^3
# Si number density = 17.435046 Si / 1000 Ang^3
#
#
#
# Elastic Constant Matrix: (Units=GPa)
#
#
# Indices 1 2 3 4 5 6 
#
# 1 133.7169 39.0266 132.6358 0.0000 0.0000 0.0000
# 2 39.0266 28.3864 41.5844 0.0000 0.0000 0.0000
# 3 132.6358 41.5844 155.0014 0.0000 0.0000 0.0000
# 4 0.0000 0.0000 0.0000 26.3231 0.0000 0.0000
# 5 0.0000 0.0000 0.0000 0.0000 45.0471 0.0000
# 6 0.0000 0.0000 0.0000 0.0000 0.0000 27.8689
#
#
#
# Elastic Compliance Matrix: (Units=1/GPa)
#
#
# Indices 1 2 3 4 5 6 
#
# 1 0.051199 -0.010229 -0.041067 0.000000 0.000000 0.000000
# 2 -0.010229 0.060082 -0.007366 0.000000 0.000000 0.000000
# 3 -0.041067 -0.007366 0.043569 0.000000 0.000000 0.000000
# 4 0.000000 0.000000 0.000000 0.037989 0.000000 0.000000
# 5 0.000000 0.000000 0.000000 0.000000 0.022199 0.000000
# 6 0.000000 0.000000 0.000000 0.000000 0.000000 0.035882
#
#
# Mechanical properties :
#
#
# Convention : Reuss Voigt Hill
#
# Bulk Modulus (GPa) = 26.64820 82.62202 54.63511
# Shear Modulus (GPa) = 13.13184 26.77169 19.95176
#
# Velocity S-wave (km/s) = 2.74740 3.92281 3.38649
# Velocity P-wave (km/s) = 5.03803 8.24677 6.83341
#
# Compressibility (1/GPa) = 0.03752599
#
# Stress axis : x y z
#
# Youngs Moduli (GPa) = 19.53161 16.64386 22.95207
#
# Poissons Ratio (x) = 0.17026 0.94257
# Poissons Ratio (y) = 0.19980 0.16906
# Poissons Ratio (z) = 0.80211 0.12259
#
# Static dielectric constant tensor:
#      x y z
#    x 1.575830 0.000000 0.000000 
#    y 0.000000 1.590820 0.000000 
#    z 0.000000 0.000000 1.570140 
# 
# From -- ./inp_files/43433.got.cif
#   From: 2010.05.17/outbox.cif.g08.bks.cpg/sg67_22_cif.got.tgz:43433.got - 2010.06.03 18:28:57.
