data_PCOD9502498
_publ_section_title
;
Structure prediction by ZEFSAII (Michael W. Deem and Ramdas Pophale) SiO2 
 PCOD9502498
Probable space group: C M M A
;
_chemical_formula_sum "Si O2"
_cell_formula_units_Z 120
_cell_length_a 26.958092
_cell_length_b 14.057019
_cell_length_c 15.689485
_cell_angle_alpha 90.000000
_cell_angle_beta 90.000000
_cell_angle_gamma 90.000000
_cell_volume 5945.536796
_symmetry_space_group_name_H-M "C M M A"
_symmetry_group_IT_number 67
_symmetry_cell_setting 'orthorhombic'
loop_
_space_group_symop_operation_xyz
x,y,z
-x,1/2-y,z
x,-y,-z
-x,1/2+y,-z
-x,-y,-z
x,1/2+y,-z
-x,y,z
x,1/2-y,z
1/2+x,1/2+y,z
1/2-x,-y,z
1/2+x,1/2-y,-z
1/2-x,y,-z
1/2-x,1/2-y,-z
1/2+x,y,-z
1/2-x,1/2+y,z
1/2+x,-y,z
loop_
_atom_site_type_symbol
_atom_site_label
_atom_site_fract_x
_atom_site_fract_y
_atom_site_fract_z
Si Si1 0.780732 0.138474 0.628874
Si Si2 0.417096 0.363774 0.953896
Si Si3 0.661996 0.364211 0.643141
Si Si4 0.162422 0.143637 0.169967
Si Si5 0.648382 0.639380 0.789252
Si Si6 0.555450 0.545082 0.863701
Si Si7 0.737897 0.111000 0.093545
Si Si8 0.333881 0.000000 0.500000
O O1 0.788100 0.250000 0.609112
O O2 0.722020 0.124370 0.639839
O O3 0.814042 0.115920 0.712093
O O4 0.801311 0.073307 0.554376
O O5 0.426316 0.250000 0.952612
O O6 0.361178 0.388202 0.919833
O O7 0.444775 0.432569 0.886564
O O8 0.430741 0.402335 0.046900
O O9 0.652154 0.250000 0.632736
O O10 0.648781 0.398812 0.738785
O O11 0.639721 0.431689 0.569750
O O12 0.142899 0.250000 0.177930
O O13 0.221252 0.148168 0.159600
O O14 0.634228 0.750000 0.780860
O O15 0.599118 0.577600 0.800974
O O16 0.683024 0.629208 0.873143
O O17 0.500000 0.573204 0.837469
O O18 0.750000 0.000000 0.092528
O O19 0.750000 0.148508 0.000000
#
# Coordination Sequence:
#
# PCOD9502498 Si02
#       8
#    16  16  16  16  16  16  16   8
#     4  10  21  36  52  79 114 149 194 237 277 335
#     4  10  21  38  60  86 116 151 192 237 289 343
#     4  10  20  34  51  79 115 151 194 234 273 329
#     4  10  20  34  53  78 113 152 188 231 275 327
#     4  11  23  38  57  81 116 158 198 244 291 340
#     4  11  24  40  60  87 116 150 198 250 295 345
#     4  11  22  33  50  77 112 154 198 236 272 325
#     4  12  23  32  56  80 107 162 191 228 280 340
#
# _framework density 20.183205999999998
#
# number of rings (size 3 to 8) (size 9 to 14) (size 15 to 20)
#    0.000    1.467    1.333    4.800    3.733    7.200 
#    0.000    0.000    0.000    0.000    0.000    0.467 
#    0.000    0.000    0.000    0.000    0.000    0.000 
#
# Total GULP energy -334702.052352 kJ/mol
# GULP energy per Si atom -5578.367539 kJ/mol
# Density = 2.013727 g / cm^3
# Si number density = 20.183206 Si / 1000 Ang^3
#
#
#
# Elastic Constant Matrix: (Units=GPa)
#
#
# Indices 1 2 3 4 5 6 
#
# 1 86.4437 15.6498 15.9043 0.0000 0.0000 0.0000
# 2 15.6498 111.4101 27.8191 0.0000 0.0000 0.0000
# 3 15.9043 27.8191 95.3983 0.0000 0.0000 0.0000
# 4 0.0000 0.0000 0.0000 25.3113 0.0000 0.0000
# 5 0.0000 0.0000 0.0000 0.0000 12.4162 0.0000
# 6 0.0000 0.0000 0.0000 0.0000 0.0000 3.4333
#
#
#
# Elastic Compliance Matrix: (Units=1/GPa)
#
#
# Indices 1 2 3 4 5 6 
#
# 1 0.012104 -0.001290 -0.001642 0.000000 0.000000 0.000000
# 2 -0.001290 0.009818 -0.002648 0.000000 0.000000 0.000000
# 3 -0.001642 -0.002648 0.011528 0.000000 0.000000 0.000000
# 4 0.000000 0.000000 0.000000 0.039508 0.000000 0.000000
# 5 0.000000 0.000000 0.000000 0.000000 0.080540 0.000000
# 6 0.000000 0.000000 0.000000 0.000000 0.000000 0.291268
#
#
# Mechanical properties :
#
#
# Convention : Reuss Voigt Hill
#
# Bulk Modulus (GPa) = 44.86214 45.77762 45.31988
# Shear Modulus (GPa) = 10.79083 23.82409 17.30746
#
# Velocity S-wave (km/s) = 2.31475 3.43941 2.93152
# Velocity P-wave (km/s) = 5.42400 6.20508 5.82764
#
# Compressibility (1/GPa) = 0.02229051
#
# Stress axis : x y z
#
# Youngs Moduli (GPa) = 82.61832 101.85056 86.74353
#
# Poissons Ratio (x) = 0.13142 0.14240
# Poissons Ratio (y) = 0.10660 0.22970
# Poissons Ratio (z) = 0.13563 0.26970
#
# Static dielectric constant tensor:
#      x y z
#    x 1.731920 0.000000 0.000000 
#    y 0.000000 -0.291330 0.000000 
#    z 0.000000 0.000000 1.770320 
# 
# From -- ./inp_files/31274.got.cif
#   From: 2010.05.17/outbox.cif.g08.bks.cpg/sg67_16_cif.got.tgz:31274.got - 2010.06.03 18:28:57.
