data_PCOD9502789
_publ_section_title
;
Structure prediction by ZEFSAII (Michael W. Deem and Ramdas Pophale) SiO2 
 PCOD9502789
Probable space group: C M M A
;
_chemical_formula_sum "Si O2"
_cell_formula_units_Z 104
_cell_length_a 8.583619
_cell_length_b 25.206082
_cell_length_c 28.545555
_cell_angle_alpha 90.000000
_cell_angle_beta 90.000000
_cell_angle_gamma 90.000000
_cell_volume 6176.099277
_symmetry_space_group_name_H-M "C M M A"
_symmetry_group_IT_number 67
_symmetry_cell_setting 'orthorhombic'
loop_
_space_group_symop_operation_xyz
x,y,z
-x,1/2-y,z
x,-y,-z
-x,1/2+y,-z
-x,-y,-z
x,1/2+y,-z
-x,y,z
x,1/2-y,z
1/2+x,1/2+y,z
1/2-x,-y,z
1/2+x,1/2-y,-z
1/2-x,y,-z
1/2-x,1/2-y,-z
1/2+x,y,-z
1/2-x,1/2+y,z
1/2+x,-y,z
loop_
_atom_site_type_symbol
_atom_site_label
_atom_site_fract_x
_atom_site_fract_y
_atom_site_fract_z
Si Si1 0.687761 0.188495 0.448899
Si Si2 0.813260 0.643898 0.352389
Si Si3 0.686710 0.059148 0.720504
Si Si4 0.185542 0.250000 0.947576
Si Si5 0.688314 0.250000 0.694859
Si Si6 0.311386 0.663972 0.123416
Si Si7 0.311871 0.440837 0.827565
Si Si8 0.311659 0.750000 0.198620
O O1 0.500000 0.188741 0.450100
O O2 0.737354 0.250000 0.439415
O O3 0.750000 0.173807 0.500000
O O4 0.737082 0.149728 0.406779
O O5 0.748012 0.597088 0.320238
O O6 0.754440 0.698127 0.329419
O O7 0.000000 0.641447 0.351486
O O8 0.500000 0.059404 0.719348
O O9 0.733849 0.074815 0.773994
O O10 0.750000 0.000000 0.713447
O O11 0.244509 0.302437 0.919786
O O12 0.000000 0.250000 0.947798
O O13 0.250000 0.250000 0.000000
O O14 0.500000 0.250000 0.693136
O O15 0.742501 0.250000 0.748636
O O16 0.500000 0.664874 0.119366
O O17 0.261841 0.603913 0.135087
O O18 0.266145 0.698637 0.168961
O O19 0.500000 0.442353 0.828334
O O20 0.250000 0.500000 0.836617
O O21 0.500000 0.750000 0.200146
#
# Coordination Sequence:
#
# PCOD9502789 Si02
#       8
#    16  16  16   8   8  16  16   8
#     4   9  18  33  50  69  95 125 160 203 253 309
#     4  11  21  34  49  71 103 133 162 206 258 307
#     4  10  20  35  53  76 103 139 180 213 248 297
#     4  11  22  36  55  80 106 135 172 215 259 308
#     4  11  20  30  47  73 102 136 171 203 244 303
#     4   9  17  33  53  73 101 138 172 209 254 298
#     4   9  18  32  52  76 106 140 176 213 250 293
#     4   8  15  28  46  67  96 131 169 206 244 293
#
# _framework density 16.839108
#
# number of rings (size 3 to 8) (size 9 to 14) (size 15 to 20)
#    0.000    2.308    0.769    3.231    0.000    4.923 
#    0.000    6.154    0.000    0.923    0.000    6.462 
#    0.000    0.000    0.000    0.000    0.000    0.000 
#
# Total GULP energy -289894.464397 kJ/mol
# GULP energy per Si atom -5574.893546 kJ/mol
# Density = 1.680078 g / cm^3
# Si number density = 16.839108 Si / 1000 Ang^3
#
#
#
# Elastic Constant Matrix: (Units=GPa)
#
#
# Indices 1 2 3 4 5 6 
#
# 1 40.0656 33.0758 36.0898 0.0000 0.0000 0.0000
# 2 33.0758 114.4258 78.9838 0.0000 0.0000 0.0000
# 3 36.0898 78.9838 145.6161 0.0000 0.0000 0.0000
# 4 0.0000 0.0000 0.0000 -4.3106 0.0000 0.0000
# 5 0.0000 0.0000 0.0000 0.0000 23.4901 0.0000
# 6 0.0000 0.0000 0.0000 0.0000 0.0000 28.0128
#
#
#
# Elastic Compliance Matrix: (Units=1/GPa)
#
#
# Indices 1 2 3 4 5 6 
#
# 1 0.034996 -0.006600 -0.005094 0.000000 0.000000 0.000000
# 2 -0.006600 0.015214 -0.006617 0.000000 0.000000 0.000000
# 3 -0.005094 -0.006617 0.011719 0.000000 0.000000 0.000000
# 4 0.000000 0.000000 0.000000 -0.231984 0.000000 0.000000
# 5 0.000000 0.000000 0.000000 0.000000 0.042571 0.000000
# 6 0.000000 0.000000 0.000000 0.000000 0.000000 0.035698
#
#
# Mechanical properties :
#
#
# Convention : Reuss Voigt Hill
#
# Bulk Modulus (GPa) = 39.51254 66.26735 52.88995
# Shear Modulus (GPa) = -106.99775 19.56901 -43.71437
#
# Velocity S-wave (km/s) = -7.97992 3.41268 -5.10063
# Velocity P-wave (km/s) = 7.83517 7.41399 1.79202
#
# Compressibility (1/GPa) = 0.02530842
#
# Stress axis : x y z
#
# Youngs Moduli (GPa) = 28.57500 65.72773 85.33373
#
# Poissons Ratio (x) = 0.43380 0.43465
# Poissons Ratio (y) = 0.18859 0.56462
# Poissons Ratio (z) = 0.14555 0.43490
#
# Static dielectric constant tensor:
#      x y z
#    x 1.572420 0.000000 0.000000 
#    y 0.000000 1.556520 0.000000 
#    z 0.000000 0.000000 1.570970 
# 
# From -- ./inp_files/43763.got.cif
#   From: 2010.05.17/outbox.cif.g08.bks.cpg/sg67_22_cif.got.tgz:43763.got - 2010.06.03 18:28:57.
