data_PCOD9502954
_publ_section_title
;
Structure prediction by ZEFSAII (Michael W. Deem and Ramdas Pophale) SiO2 
 PCOD9502954
Probable space group: C M M A
;
_chemical_formula_sum "Si O2"
_cell_formula_units_Z 80
_cell_length_a 9.428042
_cell_length_b 26.583417
_cell_length_c 16.394096
_cell_angle_alpha 90.000000
_cell_angle_beta 90.000000
_cell_angle_gamma 90.000000
_cell_volume 4108.845263
_symmetry_space_group_name_H-M "C M M A"
_symmetry_group_IT_number 67
_symmetry_cell_setting 'orthorhombic'
loop_
_space_group_symop_operation_xyz
x,y,z
-x,1/2-y,z
x,-y,-z
-x,1/2+y,-z
-x,-y,-z
x,1/2+y,-z
-x,y,z
x,1/2-y,z
1/2+x,1/2+y,z
1/2-x,-y,z
1/2+x,1/2-y,-z
1/2-x,y,-z
1/2-x,1/2-y,-z
1/2+x,y,-z
1/2-x,1/2+y,z
1/2+x,-y,z
loop_
_atom_site_type_symbol
_atom_site_label
_atom_site_fract_x
_atom_site_fract_y
_atom_site_fract_z
Si Si1 0.659568 0.808254 0.369107
Si Si2 0.000000 0.189115 0.864121
Si Si3 0.000000 0.190064 0.053074
Si Si4 0.333958 0.047450 0.735063
Si Si5 0.203359 0.845855 0.809739
Si Si6 0.171138 0.904590 0.417451
O O1 0.500000 0.821591 0.399760
O O2 0.688073 0.750000 0.387706
O O3 0.654479 0.816190 0.271179
O O4 0.776196 0.847034 0.401903
O O5 0.133707 0.166280 0.819380
O O6 0.000000 0.250000 0.859560
O O7 0.000000 0.173937 0.959421
O O8 0.131445 0.172032 0.107117
O O9 0.000000 0.250000 0.052120
O O10 0.500000 0.037008 0.716376
O O11 0.328828 0.096048 0.793037
O O12 0.243542 0.064082 0.655664
O O13 0.250000 0.000000 0.770469
O O14 0.250000 0.920999 0.500000
O O15 0.000000 0.908733 0.419602
#
# Coordination Sequence:
#
# PCOD9502954 Si02
#       6
#    16   8   8  16  16  16
#     4  10  20  35  57  83 118 167 213 251 299 359
#     4  11  24  34  57  95 130 165 205 245 297 363
#     4  11  20  38  61  89 126 169 203 243 303 361
#     4  11  24  43  68  92 116 157 207 256 310 361
#     4  11  21  38  59  88 126 161 205 257 300 358
#     4  11  23  40  61  89 125 157 197 250 303 364
#
# _framework density 19.470191
#
# number of rings (size 3 to 8) (size 9 to 14) (size 15 to 20)
#    0.000    1.200    2.000    6.000    7.000    2.800 
#    0.000    2.000    0.000    3.600    0.000    0.000 
#    0.000    0.000    0.000    0.000    0.000    0.000 
#
# Total GULP energy -223442.756040 kJ/mol
# GULP energy per Si atom -5586.068901 kJ/mol
# Density = 1.942588 g / cm^3
# Si number density = 19.470191 Si / 1000 Ang^3
#
#
#
# Elastic Constant Matrix: (Units=GPa)
#
#
# Indices 1 2 3 4 5 6 
#
# 1 189.8340 23.8115 15.9218 0.0000 0.0000 0.0000
# 2 23.8115 64.0570 -0.7539 0.0000 0.0000 0.0000
# 3 15.9218 -0.7539 52.6756 0.0000 0.0000 0.0000
# 4 0.0000 0.0000 0.0000 -17.9488 0.0000 0.0000
# 5 0.0000 0.0000 0.0000 0.0000 39.3397 0.0000
# 6 0.0000 0.0000 0.0000 0.0000 0.0000 26.5738
#
#
#
# Elastic Compliance Matrix: (Units=1/GPa)
#
#
# Indices 1 2 3 4 5 6 
#
# 1 0.005682 -0.002133 -0.001748 0.000000 0.000000 0.000000
# 2 -0.002133 0.016414 0.000880 0.000000 0.000000 0.000000
# 3 -0.001748 0.000880 0.019525 0.000000 0.000000 0.000000
# 4 0.000000 0.000000 0.000000 -0.055714 0.000000 0.000000
# 5 0.000000 0.000000 0.000000 0.000000 0.025420 0.000000
# 6 0.000000 0.000000 0.000000 0.000000 0.000000 0.037631
#
#
# Mechanical properties :
#
#
# Convention : Reuss Voigt Hill
#
# Bulk Modulus (GPa) = 28.07486 42.72504 35.39995
# Shear Modulus (GPa) = 74.81356 27.43208 51.12282
#
# Velocity S-wave (km/s) = 6.20549 3.75764 5.12971
# Velocity P-wave (km/s) = 8.11140 6.38889 7.30112
#
# Compressibility (1/GPa) = 0.03561906
#
# Stress axis : x y z
#
# Youngs Moduli (GPa) = 175.99843 60.92282 51.21623
#
# Poissons Ratio (x) = 0.12993 0.08952
# Poissons Ratio (y) = 0.37534 -0.04505
# Poissons Ratio (z) = 0.30763 -0.05358
#
# Static dielectric constant tensor:
#      x y z
#    x 1.648850 0.000000 0.000000 
#    y 0.000000 1.682130 0.000000 
#    z 0.000000 0.000000 1.670450 
# 
# From -- ./inp_files/32188.got.cif
#   From: 2010.05.17/outbox.cif.g08.bks.cpg/sg67_17_cif.got.tgz:32188.got - 2010.06.03 18:28:57.
