data_PCOD9502413
_publ_section_title
;
Structure prediction by ZEFSAII (Michael W. Deem and Ramdas Pophale) SiO2 
 PCOD9502413
Probable space group: C M M A
;
_chemical_formula_sum "Si O2"
_cell_formula_units_Z 96
_cell_length_a 21.934113
_cell_length_b 15.008037
_cell_length_c 14.509659
_cell_angle_alpha 90.000000
_cell_angle_beta 90.000000
_cell_angle_gamma 90.000000
_cell_volume 4776.405329
_symmetry_space_group_name_H-M "C M M A"
_symmetry_group_IT_number 67
_symmetry_cell_setting 'orthorhombic'
loop_
_space_group_symop_operation_xyz
x,y,z
-x,1/2-y,z
x,-y,-z
-x,1/2+y,-z
-x,-y,-z
x,1/2+y,-z
-x,y,z
x,1/2-y,z
1/2+x,1/2+y,z
1/2-x,-y,z
1/2+x,1/2-y,-z
1/2-x,y,-z
1/2-x,1/2-y,-z
1/2+x,y,-z
1/2-x,1/2+y,z
1/2+x,-y,z
loop_
_atom_site_type_symbol
_atom_site_label
_atom_site_fract_x
_atom_site_fract_y
_atom_site_fract_z
Si Si1 0.434007 0.648288 0.259495
Si Si2 0.218646 0.148579 0.099727
Si Si3 0.175250 0.894223 0.601786
Si Si4 0.316438 0.390585 0.395251
Si Si5 0.603710 0.018728 0.897037
Si Si6 0.342879 0.849836 0.802805
O O1 0.500000 0.636433 0.307917
O O2 0.431756 0.750000 0.225849
O O3 0.375609 0.634628 0.325444
O O4 0.432189 0.579887 0.174774
O O5 0.195992 0.250000 0.117016
O O6 0.167086 0.074303 0.096944
O O7 0.272130 0.128981 0.172640
O O8 0.250000 0.148588 0.000000
O O9 0.245213 0.863810 0.615308
O O10 0.160457 0.865762 0.496874
O O11 0.179196 0.001805 0.607383
O O12 0.350708 0.354187 0.306673
O O13 0.616965 0.923614 0.851634
O O14 0.580196 0.000000 0.000000
O O15 0.354048 0.750000 0.837830
#
# Coordination Sequence:
#
# PCOD9502413 Si02
#       6
#    16  16  16  16  16  16
#     4  11  25  44  66  92 120 159 215 266 306 359
#     4  10  20  33  52  87 126 159 201 249 313 381
#     4   9  18  36  62  91 123 159 200 247 304 374
#     4   9  18  34  60  94 126 157 193 241 312 381
#     4  12  23  37  61  81 117 165 206 256 314 362
#     4  11  22  33  52  86 125 160 198 245 303 380
#
# _framework density 20.098797000000001
#
# number of rings (size 3 to 8) (size 9 to 14) (size 15 to 20)
#    0.000    1.667    3.333    3.000    2.333    3.667 
#    0.000    3.333    0.000    0.500    0.000    0.000 
#    0.000    0.000    0.000    0.000    0.000    0.000 
#
# Total GULP energy -267989.799712 kJ/mol
# GULP energy per Si atom -5583.120827 kJ/mol
# Density = 2.005305 g / cm^3
# Si number density = 20.098797 Si / 1000 Ang^3
#
#
#
# Elastic Constant Matrix: (Units=GPa)
#
#
# Indices 1 2 3 4 5 6 
#
# 1 73.2315 34.0955 38.0887 0.0000 0.0000 0.0000
# 2 34.0955 85.6546 23.0846 0.0000 0.0000 0.0000
# 3 38.0887 23.0846 129.9471 0.0000 0.0000 0.0000
# 4 0.0000 0.0000 0.0000 14.0163 0.0000 0.0000
# 5 0.0000 0.0000 0.0000 0.0000 10.8453 0.0000
# 6 0.0000 0.0000 0.0000 0.0000 0.0000 14.2862
#
#
#
# Elastic Compliance Matrix: (Units=1/GPa)
#
#
# Indices 1 2 3 4 5 6 
#
# 1 0.018900 -0.006334 -0.004415 0.000000 0.000000 0.000000
# 2 -0.006334 0.014384 -0.000699 0.000000 0.000000 0.000000
# 3 -0.004415 -0.000699 0.009114 0.000000 0.000000 0.000000
# 4 0.000000 0.000000 0.000000 0.071346 0.000000 0.000000
# 5 0.000000 0.000000 0.000000 0.000000 0.092206 0.000000
# 6 0.000000 0.000000 0.000000 0.000000 0.000000 0.069998
#
#
# Mechanical properties :
#
#
# Convention : Reuss Voigt Hill
#
# Bulk Modulus (GPa) = 51.27208 53.26340 52.26774
# Shear Modulus (GPa) = 16.37503 20.73385 18.55444
#
# Velocity S-wave (km/s) = 2.85744 3.21533 3.04165
# Velocity P-wave (km/s) = 6.03755 6.35160 6.19656
#
# Compressibility (1/GPa) = 0.01950379
#
# Stress axis : x y z
#
# Youngs Moduli (GPa) = 52.90920 69.52026 109.72635
#
# Poissons Ratio (x) = 0.44031 0.48441
# Poissons Ratio (y) = 0.33511 0.07668
# Poissons Ratio (z) = 0.23358 0.04859
#
# Static dielectric constant tensor:
#      x y z
#    x 1.692590 0.000000 0.000000 
#    y 0.000000 1.721270 0.000000 
#    z 0.000000 0.000000 1.735930 
# 
# From -- ./inp_files/29261.got.cif
#   From: 2010.05.17/outbox.cif.g08.bks.cpg/sg67_15_cif.got.tgz:29261.got - 2010.06.03 18:28:57.
