data_PCOD9502837
_publ_section_title
;
Structure prediction by ZEFSAII (Michael W. Deem and Ramdas Pophale) SiO2 
 PCOD9502837
Probable space group: C M M A
;
_chemical_formula_sum "Si O2"
_cell_formula_units_Z 80
_cell_length_a 15.449171
_cell_length_b 9.104546
_cell_length_c 26.642233
_cell_angle_alpha 90.000000
_cell_angle_beta 90.000000
_cell_angle_gamma 90.000000
_cell_volume 3747.434898
_symmetry_space_group_name_H-M "C M M A"
_symmetry_group_IT_number 67
_symmetry_cell_setting 'orthorhombic'
loop_
_space_group_symop_operation_xyz
x,y,z
-x,1/2-y,z
x,-y,-z
-x,1/2+y,-z
-x,-y,-z
x,1/2+y,-z
-x,y,z
x,1/2-y,z
1/2+x,1/2+y,z
1/2-x,-y,z
1/2+x,1/2-y,-z
1/2-x,y,-z
1/2-x,1/2-y,-z
1/2+x,y,-z
1/2-x,1/2+y,z
1/2+x,-y,z
loop_
_atom_site_type_symbol
_atom_site_label
_atom_site_fract_x
_atom_site_fract_y
_atom_site_fract_z
Si Si1 0.605918 0.581015 0.949228
Si Si2 0.106145 0.419104 0.152538
Si Si3 0.656710 0.074447 0.647698
Si Si4 0.602339 0.415168 0.451810
Si Si5 0.396909 0.415341 0.251922
O O1 0.500000 0.580839 0.949347
O O2 0.633938 0.750000 0.948439
O O3 0.633168 0.496185 0.899098
O O4 0.633752 0.500000 0.000000
O O5 0.133717 0.250000 0.154623
O O6 0.136451 0.508408 0.201329
O O7 0.000000 0.419525 0.152988
O O8 0.658659 0.250000 0.646823
O O9 0.750000 0.000000 0.645859
O O10 0.611228 0.010127 0.598361
O O11 0.617129 0.015063 0.699471
O O12 0.639756 0.500000 0.500000
O O13 0.500000 0.398911 0.460816
O O14 0.638940 0.250000 0.445606
O O15 0.500000 0.402145 0.245515
O O16 0.361393 0.250000 0.259266
#
# Coordination Sequence:
#
# PCOD9502837 Si02
#       5
#    16  16  16  16  16
#     4   9  15  22  33  52  82 121 162 205 256 313
#     4   9  16  26  41  63  91 125 167 212 258 311
#     4  12  25  40  58  81 111 145 182 223 269 319
#     4  10  21  39  63  90 118 147 181 220 262 311
#     4  10  20  35  55  78 105 138 177 221 268 319
#
# _framework density 21.347937999999999
#
# number of rings (size 3 to 8) (size 9 to 14) (size 15 to 20)
#    0.000    2.000    0.000    4.800    0.000   10.000 
#    0.000    2.000    0.000    0.000    0.000    0.000 
#    0.000    0.800    0.000    8.000    0.000   12.400 
#
# Total GULP energy -223511.468286 kJ/mol
# GULP energy per Si atom -5587.786707 kJ/mol
# Density = 2.129935 g / cm^3
# Si number density = 21.347938 Si / 1000 Ang^3
#
#
#
# Elastic Constant Matrix: (Units=GPa)
#
#
# Indices 1 2 3 4 5 6 
#
# 1 19.3084 10.7257 1.3999 0.0000 0.0000 0.0000
# 2 10.7257 253.8355 125.7970 0.0000 0.0000 0.0000
# 3 1.3999 125.7970 210.1731 0.0000 0.0000 0.0000
# 4 0.0000 0.0000 0.0000 41.7794 0.0000 0.0000
# 5 0.0000 0.0000 0.0000 0.0000 26.9215 0.0000
# 6 0.0000 0.0000 0.0000 0.0000 0.0000 14.7547
#
#
#
# Elastic Compliance Matrix: (Units=1/GPa)
#
#
# Indices 1 2 3 4 5 6 
#
# 1 0.053329 -0.002953 0.001413 0.000000 0.000000 0.000000
# 2 -0.002953 0.005765 -0.003431 0.000000 0.000000 0.000000
# 3 0.001413 -0.003431 0.006802 0.000000 0.000000 0.000000
# 4 0.000000 0.000000 0.000000 0.023935 0.000000 0.000000
# 5 0.000000 0.000000 0.000000 0.000000 0.037145 0.000000
# 6 0.000000 0.000000 0.000000 0.000000 0.000000 0.067775
#
#
# Mechanical properties :
#
#
# Convention : Reuss Voigt Hill
#
# Bulk Modulus (GPa) = 17.87224 84.35136 51.11180
# Shear Modulus (GPa) = 22.38690 39.71740 31.05215
#
# Velocity S-wave (km/s) = 3.24183 4.31801 3.81803
# Velocity P-wave (km/s) = 4.73314 8.02862 6.59019
#
# Compressibility (1/GPa) = 0.05595269
#
# Stress axis : x y z
#
# Youngs Moduli (GPa) = 18.75143 173.47495 147.01690
#
# Poissons Ratio (x) = 0.51235 -0.20767
# Poissons Ratio (y) = 0.05538 0.50436
# Poissons Ratio (z) = -0.02649 0.59513
#
# Static dielectric constant tensor:
#      x y z
#    x 1.872380 0.000000 0.000000 
#    y 0.000000 1.747790 0.000000 
#    z 0.000000 0.000000 1.797900 
# 
# From -- ./inp_files/43336.got.cif
#   From: 2010.05.17/outbox.cif.g08.bks.cpg/sg67_22_cif.got.tgz:43336.got - 2010.06.03 18:28:57.
