data_PCOD9502100
_publ_section_title
;
Structure prediction by ZEFSAII (Michael W. Deem and Ramdas Pophale) SiO2 
 PCOD9502100
Probable space group: C M M A
;
_chemical_formula_sum "Si O2"
_cell_formula_units_Z 116
_cell_length_a 14.659950
_cell_length_b 24.470364
_cell_length_c 17.478381
_cell_angle_alpha 90.000000
_cell_angle_beta 90.000000
_cell_angle_gamma 90.000000
_cell_volume 6270.094996
_symmetry_space_group_name_H-M "C M M A"
_symmetry_group_IT_number 67
_symmetry_cell_setting 'orthorhombic'
loop_
_space_group_symop_operation_xyz
x,y,z
-x,1/2-y,z
x,-y,-z
-x,1/2+y,-z
-x,-y,-z
x,1/2+y,-z
-x,y,z
x,1/2-y,z
1/2+x,1/2+y,z
1/2-x,-y,z
1/2+x,1/2-y,-z
1/2-x,y,-z
1/2-x,1/2-y,-z
1/2+x,y,-z
1/2-x,1/2+y,z
1/2+x,-y,z
loop_
_atom_site_type_symbol
_atom_site_label
_atom_site_fract_x
_atom_site_fract_y
_atom_site_fract_z
Si Si1 0.895149 0.097204 0.334062
Si Si2 0.280310 0.372603 0.251124
Si Si3 0.392517 0.188022 0.369094
Si Si4 0.733557 0.091667 0.082001
Si Si5 0.855097 0.903451 0.495849
Si Si6 0.104670 0.492179 0.109920
Si Si7 0.000000 0.000000 0.500000
Si Si8 0.396902 0.976927 0.711421
O O1 0.824156 0.124772 0.277425
O O2 0.882374 0.118132 0.419858
O O3 0.000000 0.102956 0.309708
O O4 0.877704 0.031403 0.336744
O O5 0.334678 0.324942 0.293075
O O6 0.287502 0.375152 0.159323
O O7 0.325957 0.427808 0.287244
O O8 0.500000 0.182400 0.352614
O O9 0.375328 0.250000 0.395045
O O10 0.366433 0.143943 0.433355
O O11 0.826002 0.057390 0.097562
O O12 0.653112 0.045994 0.074603
O O13 0.750000 0.119777 0.000000
O O14 0.750000 0.920340 0.500000
O O15 0.921032 0.953971 0.480247
O O16 0.103343 0.502428 0.200937
O O17 0.000000 0.484075 0.085501
O O18 0.500000 0.958089 0.693323
#
# Coordination Sequence:
#
# PCOD9502100 Si02
#       8
#    16  16  16  16  16  16   4  16
#     4  11  21  35  53  82 119 156 196 239 295 361
#     4  11  21  36  58  81 114 154 203 251 308 357
#     4  11  25  46  70  90 116 157 211 265 309 362
#     4  10  20  31  47  77 114 154 199 245 298 366
#     4  12  25  41  62  93 125 167 201 246 307 361
#     4   9  16  29  45  71 112 162 201 234 283 359
#     4  12  26  40  58  94 140 164 196 246 296 378
#     4   9  18  29  50  79 115 157 196 241 293 360
#
# _framework density 18.500516999999999
#
# number of rings (size 3 to 8) (size 9 to 14) (size 15 to 20)
#    0.000    1.517    4.138    1.862    1.931    3.034 
#    0.000    0.000    0.000    0.828    0.000    0.000 
#    0.000    0.000    0.000    0.000    0.000    0.000 
#
# Total GULP energy -323371.429541 kJ/mol
# GULP energy per Si atom -5575.369475 kJ/mol
# Density = 1.845841 g / cm^3
# Si number density = 18.500517 Si / 1000 Ang^3
#
#
#
# Elastic Constant Matrix: (Units=GPa)
#
#
# Indices 1 2 3 4 5 6 
#
# 1 140.1979 38.3232 11.5178 0.0000 0.0000 0.0000
# 2 38.3232 69.5259 38.3273 0.0000 0.0000 0.0000
# 3 11.5178 38.3273 101.3452 0.0000 0.0000 0.0000
# 4 0.0000 0.0000 0.0000 13.1269 0.0000 0.0000
# 5 0.0000 0.0000 0.0000 0.0000 17.8459 0.0000
# 6 0.0000 0.0000 0.0000 0.0000 0.0000 65.9283
#
#
#
# Elastic Compliance Matrix: (Units=1/GPa)
#
#
# Indices 1 2 3 4 5 6 
#
# 1 0.008480 -0.005234 0.001016 0.000000 0.000000 0.000000
# 2 -0.005234 0.021402 -0.007499 0.000000 0.000000 0.000000
# 3 0.001016 -0.007499 0.012588 0.000000 0.000000 0.000000
# 4 0.000000 0.000000 0.000000 0.076180 0.000000 0.000000
# 5 0.000000 0.000000 0.000000 0.000000 0.056035 0.000000
# 6 0.000000 0.000000 0.000000 0.000000 0.000000 0.015168
#
#
# Mechanical properties :
#
#
# Convention : Reuss Voigt Hill
#
# Bulk Modulus (GPa) = 52.53478 54.15616 53.34547
# Shear Modulus (GPa) = 22.76520 34.24027 28.50274
#
# Velocity S-wave (km/s) = 3.51168 4.30673 3.92936
# Velocity P-wave (km/s) = 6.70079 7.35302 7.03447
#
# Compressibility (1/GPa) = 0.01903501
#
# Stress axis : x y z
#
# Youngs Moduli (GPa) = 117.92296 46.72386 79.44131
#
# Poissons Ratio (x) = 0.24456 -0.08069
# Poissons Ratio (y) = 0.61724 0.59574
# Poissons Ratio (z) = -0.11978 0.35039
#
# Static dielectric constant tensor:
#      x y z
#    x 1.659970 0.000000 0.000000 
#    y 0.000000 1.618800 0.000000 
#    z 0.000000 0.000000 1.714430 
# 
# From -- ./inp_files/33814.got.cif
#   From: 2010.05.17/outbox.cif.g08.bks.cpg/sg67_17_cif.got.tgz:33814.got - 2010.06.03 18:28:57.
