data_PCOD9502518
_publ_section_title
;
Structure prediction by ZEFSAII (Michael W. Deem and Ramdas Pophale) SiO2 
 PCOD9502518
Probable space group: C M M A
;
_chemical_formula_sum "Si O2"
_cell_formula_units_Z 96
_cell_length_a 14.298334
_cell_length_b 14.725943
_cell_length_c 21.573743
_cell_angle_alpha 90.000000
_cell_angle_beta 90.000000
_cell_angle_gamma 90.000000
_cell_volume 4542.490771
_symmetry_space_group_name_H-M "C M M A"
_symmetry_group_IT_number 67
_symmetry_cell_setting 'orthorhombic'
loop_
_space_group_symop_operation_xyz
x,y,z
-x,1/2-y,z
x,-y,-z
-x,1/2+y,-z
-x,-y,-z
x,1/2+y,-z
-x,y,z
x,1/2-y,z
1/2+x,1/2+y,z
1/2-x,-y,z
1/2+x,1/2-y,-z
1/2-x,y,-z
1/2-x,1/2-y,-z
1/2+x,y,-z
1/2-x,1/2+y,z
1/2+x,-y,z
loop_
_atom_site_type_symbol
_atom_site_label
_atom_site_fract_x
_atom_site_fract_y
_atom_site_fract_z
Si Si1 0.606712 0.644911 0.981654
Si Si2 0.895263 0.356166 0.217980
Si Si3 0.889535 0.359599 0.463156
Si Si4 0.893856 0.638773 0.398803
Si Si5 0.288379 0.361618 0.661620
Si Si6 0.720372 0.098352 0.901046
O O1 0.500000 0.617557 0.966403
O O2 0.603921 0.750000 0.002400
O O3 0.683213 0.641056 0.926831
O O4 0.651251 0.591985 0.039653
O O5 0.906490 0.250000 0.232473
O O6 0.839048 0.394965 0.276613
O O7 0.835656 0.359097 0.155223
O O8 0.000000 0.395144 0.210157
O O9 0.876036 0.250000 0.463586
O O10 0.861484 0.390798 0.532097
O O11 0.839805 0.392588 0.401269
O O12 0.000000 0.376900 0.458098
O O13 0.895849 0.750000 0.400406
O O14 0.819357 0.611629 0.347367
O O15 0.000000 0.608148 0.388626
O O16 0.290360 0.250000 0.662012
O O17 0.750000 0.000000 0.879306
#
# Coordination Sequence:
#
# PCOD9502518 Si02
#       6
#    16  16  16  16  16  16
#     4  10  20  36  60  86 110 135 165 204 248 293
#     4  10  20  34  52  73 100 136 176 216 256 298
#     4   8  12  18  30  51  80 114 154 201 254 309
#     4   8  13  20  31  50  80 119 158 198 252 315
#     4   9  15  23  37  58  86 123 167 209 249 300
#     4  11  22  35  54  79 108 140 171 206 246 293
#
# _framework density 21.133780000000002
#
# number of rings (size 3 to 8) (size 9 to 14) (size 15 to 20)
#    0.000    2.667    0.000    5.500    0.000    7.333 
#    0.000    0.833    0.000    3.000    0.000    0.000 
#    0.000    2.667    0.000   10.000    0.000   10.000 
#
# Total GULP energy -267757.369494 kJ/mol
# GULP energy per Si atom -5578.278531 kJ/mol
# Density = 2.108568 g / cm^3
# Si number density = 21.133780 Si / 1000 Ang^3
#
#
#
# Elastic Constant Matrix: (Units=GPa)
#
#
# Indices 1 2 3 4 5 6 
#
# 1 167.1921 1.6888 107.5841 0.0000 0.0000 0.0000
# 2 1.6888 23.8996 0.0068 0.0000 0.0000 0.0000
# 3 107.5841 0.0068 130.1926 0.0000 0.0000 0.0000
# 4 0.0000 0.0000 0.0000 7.6993 0.0000 0.0000
# 5 0.0000 0.0000 0.0000 0.0000 18.3330 0.0000
# 6 0.0000 0.0000 0.0000 0.0000 0.0000 284.6100
#
#
#
# Elastic Compliance Matrix: (Units=1/GPa)
#
#
# Indices 1 2 3 4 5 6 
#
# 1 0.012792 -0.000901 -0.010571 0.000000 0.000000 0.000000
# 2 -0.000901 0.041905 0.000742 0.000000 0.000000 0.000000
# 3 -0.010571 0.000742 0.016416 0.000000 0.000000 0.000000
# 4 0.000000 0.000000 0.000000 0.129882 0.000000 0.000000
# 5 0.000000 0.000000 0.000000 0.000000 0.054547 0.000000
# 6 0.000000 0.000000 0.000000 0.000000 0.000000 0.003514
#
#
# Mechanical properties :
#
#
# Convention : Reuss Voigt Hill
#
# Bulk Modulus (GPa) = 20.13914 59.98265 40.06089
# Shear Modulus (GPa) = 16.83128 76.26209 46.54668
#
# Velocity S-wave (km/s) = 2.82515 6.01363 4.69815
# Velocity P-wave (km/s) = 4.49355 8.75570 6.95896
#
# Compressibility (1/GPa) = 0.04965456
#
# Stress axis : x y z
#
# Youngs Moduli (GPa) = 78.17188 23.86342 60.91598
#
# Poissons Ratio (x) = 0.02150 0.64393
# Poissons Ratio (y) = 0.07043 -0.04522
# Poissons Ratio (z) = 0.82634 -0.01771
#
# Static dielectric constant tensor:
#      x y z
#    x 1.782080 0.000000 0.000000 
#    y 0.000000 1.836400 0.000000 
#    z 0.000000 0.000000 1.716560 
# 
# From -- ./inp_files/38459.got.cif
#   From: 2010.05.17/outbox.cif.g08.bks.cpg/sg67_20_cif.got.tgz:38459.got - 2010.06.03 18:28:57.
