data_PCOD9502389
_publ_section_title
;
Structure prediction by ZEFSAII (Michael W. Deem and Ramdas Pophale) SiO2 
 PCOD9502389
Probable space group: C M M A
;
_chemical_formula_sum "Si O2"
_cell_formula_units_Z 116
_cell_length_a 26.475285
_cell_length_b 9.538776
_cell_length_c 25.917585
_cell_angle_alpha 90.000000
_cell_angle_beta 90.000000
_cell_angle_gamma 90.000000
_cell_volume 6545.273908
_symmetry_space_group_name_H-M "C M M A"
_symmetry_group_IT_number 67
_symmetry_cell_setting 'orthorhombic'
loop_
_space_group_symop_operation_xyz
x,y,z
-x,1/2-y,z
x,-y,-z
-x,1/2+y,-z
-x,-y,-z
x,1/2+y,-z
-x,y,z
x,1/2-y,z
1/2+x,1/2+y,z
1/2-x,-y,z
1/2+x,1/2-y,-z
1/2-x,y,-z
1/2-x,1/2-y,-z
1/2+x,y,-z
1/2-x,1/2+y,z
1/2+x,-y,z
loop_
_atom_site_type_symbol
_atom_site_label
_atom_site_fract_x
_atom_site_fract_y
_atom_site_fract_z
Si Si1 0.944423 0.916755 0.553268
Si Si2 0.099649 0.586604 0.947542
Si Si3 0.296825 0.913127 0.115928
Si Si4 0.201091 0.915828 0.312357
Si Si5 0.670241 0.587445 0.412149
Si Si6 0.443965 0.411122 0.142684
Si Si7 0.750000 0.000000 0.500000
Si Si8 0.845348 0.586420 0.205993
O O1 0.943867 0.750000 0.543940
O O2 0.888932 0.946917 0.576809
O O3 0.000000 0.947231 0.579055
O O4 0.945178 0.000000 0.500000
O O5 0.087835 0.750000 0.955664
O O6 0.155412 0.576547 0.922146
O O7 0.064411 0.515299 0.904661
O O8 0.097090 0.500000 0.000000
O O9 0.284684 0.750000 0.123268
O O10 0.250000 0.000000 0.094381
O O11 0.311981 0.985821 0.170067
O O12 0.210569 0.750000 0.318080
O O13 0.160796 0.936750 0.266695
O O14 0.250000 0.000000 0.293754
O O15 0.186937 0.983883 0.366784
O O16 0.672650 0.750000 0.395447
O O17 0.709581 0.572933 0.460414
O O18 0.500000 0.425528 0.163800
O O19 0.437329 0.250000 0.124153
O O20 0.401933 0.435347 0.185804
O O21 0.831489 0.750000 0.196065
#
# Coordination Sequence:
#
# PCOD9502389 Si02
#       8
#    16  16  16  16  16  16   4  16
#     4   9  18  34  55  78 104 138 180 222 264 312
#     4  10  21  35  51  75 108 143 181 224 270 322
#     4  10  20  33  52  77 103 137 178 220 266 320
#     4  11  23  37  55  81 113 146 181 222 269 326
#     4  11  23  37  56  83 115 150 186 229 277 330
#     4   9  18  35  59  82 105 138 180 224 273 325
#     4  12  22  36  58  86 114 152 186 230 276 336
#     4   9  19  36  56  79 106 137 174 220 270 321
#
# _framework density 17.722711
#
# number of rings (size 3 to 8) (size 9 to 14) (size 15 to 20)
#    0.000    2.069    1.379    1.862    0.000    5.793 
#    0.000    2.069    0.000    0.828    0.000    0.000 
#    0.000    0.000    0.000    0.000    0.000    0.000 
#
# Total GULP energy -323109.623038 kJ/mol
# GULP energy per Si atom -5570.855570 kJ/mol
# Density = 1.768237 g / cm^3
# Si number density = 17.722711 Si / 1000 Ang^3
#
#
#
# Elastic Constant Matrix: (Units=GPa)
#
#
# Indices 1 2 3 4 5 6 
#
# 1 108.1857 45.7581 31.0694 0.0000 0.0000 0.0000
# 2 45.7581 94.0754 51.5200 0.0000 0.0000 0.0000
# 3 31.0694 51.5200 90.8311 0.0000 0.0000 0.0000
# 4 0.0000 0.0000 0.0000 20.2956 0.0000 0.0000
# 5 0.0000 0.0000 0.0000 0.0000 2.2041 0.0000
# 6 0.0000 0.0000 0.0000 0.0000 0.0000 21.4754
#
#
#
# Elastic Compliance Matrix: (Units=1/GPa)
#
#
# Indices 1 2 3 4 5 6 
#
# 1 0.011716 -0.005083 -0.001125 0.000000 0.000000 0.000000
# 2 -0.005083 0.017625 -0.008258 0.000000 0.000000 0.000000
# 3 -0.001125 -0.008258 0.016078 0.000000 0.000000 0.000000
# 4 0.000000 0.000000 0.000000 0.049272 0.000000 0.000000
# 5 0.000000 0.000000 0.000000 0.000000 0.453694 0.000000
# 6 0.000000 0.000000 0.000000 0.000000 0.000000 0.046565
#
#
# Mechanical properties :
#
#
# Convention : Reuss Voigt Hill
#
# Bulk Modulus (GPa) = 60.65094 61.08747 60.86920
# Shear Modulus (GPa) = 7.94437 19.77800 13.86119
#
# Velocity S-wave (km/s) = 2.11951 3.34424 2.79966
# Velocity P-wave (km/s) = 6.34714 7.03244 6.69856
#
# Compressibility (1/GPa) = 0.01648779
#
# Stress axis : x y z
#
# Youngs Moduli (GPa) = 85.35216 56.73880 62.19597
#
# Poissons Ratio (x) = 0.28840 0.06994
# Poissons Ratio (y) = 0.43383 0.51363
# Poissons Ratio (z) = 0.09598 0.46856
#
# Static dielectric constant tensor:
#      x y z
#    x 1.650810 0.000000 0.000000 
#    y 0.000000 1.599510 0.000000 
#    z 0.000000 0.000000 1.570600 
# 
# From -- ./inp_files/42835.got.cif
#   From: 2010.05.17/outbox.cif.g08.bks.cpg/sg67_22_cif.got.tgz:42835.got - 2010.06.03 18:28:57.
