data_PCOD9502757
_publ_section_title
;
Structure prediction by ZEFSAII (Michael W. Deem and Ramdas Pophale) SiO2 
 PCOD9502757
Probable space group: C M M A
;
_chemical_formula_sum "Si O2"
_cell_formula_units_Z 88
_cell_length_a 8.831256
_cell_length_b 27.428899
_cell_length_c 19.253350
_cell_angle_alpha 90.000000
_cell_angle_beta 90.000000
_cell_angle_gamma 90.000000
_cell_volume 4663.770332
_symmetry_space_group_name_H-M "C M M A"
_symmetry_group_IT_number 67
_symmetry_cell_setting 'orthorhombic'
loop_
_space_group_symop_operation_xyz
x,y,z
-x,1/2-y,z
x,-y,-z
-x,1/2+y,-z
-x,-y,-z
x,1/2+y,-z
-x,y,z
x,1/2-y,z
1/2+x,1/2+y,z
1/2-x,-y,z
1/2+x,1/2-y,-z
1/2-x,y,-z
1/2-x,1/2-y,-z
1/2+x,y,-z
1/2-x,1/2+y,z
1/2+x,-y,z
loop_
_atom_site_type_symbol
_atom_site_label
_atom_site_fract_x
_atom_site_fract_y
_atom_site_fract_z
Si Si1 0.680700 0.856774 0.923657
Si Si2 0.818909 0.653145 0.338065
Si Si3 0.825992 0.193051 0.200270
Si Si4 0.683059 0.750000 0.576636
Si Si5 0.320481 0.551967 0.322597
Si Si6 0.319676 0.948356 0.156141
O O1 0.500000 0.855252 0.926281
O O2 0.747121 0.815384 0.873262
O O3 0.738071 0.905998 0.886213
O O4 0.750000 0.853460 0.000000
O O5 0.763791 0.665601 0.260430
O O6 0.770749 0.700013 0.384002
O O7 0.749572 0.600517 0.356715
O O8 0.000000 0.649875 0.340009
O O9 0.827045 0.250000 0.217283
O O10 0.000000 0.175150 0.197917
O O11 0.500000 0.750000 0.574639
O O12 0.750000 0.750000 0.500000
O O13 0.500000 0.551067 0.333517
O O14 0.250000 0.500000 0.344440
O O15 0.293072 0.556408 0.239158
O O16 0.500000 0.947011 0.144440
O O17 0.250000 0.000000 0.134782
#
# Coordination Sequence:
#
# PCOD9502757 Si02
#       6
#    16  16  16   8  16  16
#     4  12  25  40  58  78 109 150 195 249 306 362
#     4  11  21  37  62  93 127 163 204 249 299 356
#     4  11  23  39  60  86 114 149 196 245 298 361
#     4  10  24  42  64  98 135 170 205 244 294 354
#     4  10  20  34  57  89 124 161 203 253 304 358
#     4  10  20  35  55  81 113 147 193 243 299 358
#
# _framework density 18.868853000000001
#
# number of rings (size 3 to 8) (size 9 to 14) (size 15 to 20)
#    0.000    1.273    2.727    3.818    0.000    4.727 
#    0.000    1.818    0.000    0.545    0.000    3.818 
#    0.000    0.000    0.000    0.000    0.000    0.000 
#
# Total GULP energy -245850.220915 kJ/mol
# GULP energy per Si atom -5587.505021 kJ/mol
# Density = 1.882591 g / cm^3
# Si number density = 18.868853 Si / 1000 Ang^3
#
#
#
# Elastic Constant Matrix: (Units=GPa)
#
#
# Indices 1 2 3 4 5 6 
#
# 1 85.2498 53.4932 33.9631 0.0000 0.0000 0.0000
# 2 53.4932 151.8016 42.1332 0.0000 0.0000 0.0000
# 3 33.9631 42.1332 54.9212 0.0000 0.0000 0.0000
# 4 0.0000 0.0000 0.0000 15.5682 0.0000 0.0000
# 5 0.0000 0.0000 0.0000 0.0000 24.8790 0.0000
# 6 0.0000 0.0000 0.0000 0.0000 0.0000 35.4584
#
#
#
# Elastic Compliance Matrix: (Units=1/GPa)
#
#
# Indices 1 2 3 4 5 6 
#
# 1 0.017257 -0.003963 -0.007632 0.000000 0.000000 0.000000
# 2 -0.003963 0.009280 -0.004668 0.000000 0.000000 0.000000
# 3 -0.007632 -0.004668 0.026509 0.000000 0.000000 0.000000
# 4 0.000000 0.000000 0.000000 0.064233 0.000000 0.000000
# 5 0.000000 0.000000 0.000000 0.000000 0.040195 0.000000
# 6 0.000000 0.000000 0.000000 0.000000 0.000000 0.028202
#
#
# Mechanical properties :
#
#
# Convention : Reuss Voigt Hill
#
# Bulk Modulus (GPa) = 48.73345 61.23907 54.98626
# Shear Modulus (GPa) = 22.21810 26.00667 24.11239
#
# Velocity S-wave (km/s) = 3.43520 3.71655 3.57864
# Velocity P-wave (km/s) = 6.45117 7.13741 6.80295
#
# Compressibility (1/GPa) = 0.02051979
#
# Stress axis : x y z
#
# Youngs Moduli (GPa) = 57.94602 107.76072 37.72364
#
# Poissons Ratio (x) = 0.42707 0.28789
# Poissons Ratio (y) = 0.22965 0.17610
# Poissons Ratio (z) = 0.44222 0.50306
#
# Static dielectric constant tensor:
#      x y z
#    x 1.631120 0.000000 0.000000 
#    y 0.000000 1.691380 0.000000 
#    z 0.000000 0.000000 1.615570 
# 
# From -- ./inp_files/32455.got.cif
#   From: 2010.05.17/outbox.cif.g08.bks.cpg/sg67_17_cif.got.tgz:32455.got - 2010.06.03 18:28:57.
