data_PCOD9502142
_publ_section_title
;
Structure prediction by ZEFSAII (Michael W. Deem and Ramdas Pophale) SiO2 
 PCOD9502142
Probable space group: C M M A
;
_chemical_formula_sum "Si O2"
_cell_formula_units_Z 104
_cell_length_a 31.218054
_cell_length_b 8.368425
_cell_length_c 20.720574
_cell_angle_alpha 90.000000
_cell_angle_beta 90.000000
_cell_angle_gamma 90.000000
_cell_volume 5413.165905
_symmetry_space_group_name_H-M "C M M A"
_symmetry_group_IT_number 67
_symmetry_cell_setting 'orthorhombic'
loop_
_space_group_symop_operation_xyz
x,y,z
-x,1/2-y,z
x,-y,-z
-x,1/2+y,-z
-x,-y,-z
x,1/2+y,-z
-x,y,z
x,1/2-y,z
1/2+x,1/2+y,z
1/2-x,-y,z
1/2+x,1/2-y,-z
1/2-x,y,-z
1/2-x,1/2-y,-z
1/2+x,y,-z
1/2-x,1/2+y,z
1/2+x,-y,z
loop_
_atom_site_type_symbol
_atom_site_label
_atom_site_fract_x
_atom_site_fract_y
_atom_site_fract_z
Si Si1 0.670467 0.941091 0.573612
Si Si2 0.500000 0.940667 0.570763
Si Si3 0.450489 0.440918 0.782127
Si Si4 0.704366 0.558831 0.294107
Si Si5 0.202317 0.559608 0.072507
Si Si6 0.860719 0.556994 0.817031
Si Si7 0.083181 0.943821 0.354793
O O1 0.672123 0.750000 0.571135
O O2 0.624536 0.991839 0.603833
O O3 0.677287 0.000000 0.500000
O O4 0.700638 0.999476 0.631949
O O5 0.500000 0.750000 0.574020
O O6 0.457378 0.996069 0.604246
O O7 0.500000 0.000000 0.500000
O O8 0.500000 0.503949 0.786737
O O9 0.454063 0.250000 0.789557
O O10 0.410259 0.498423 0.825823
O O11 0.428519 0.479610 0.713463
O O12 0.703508 0.750000 0.294374
O O13 0.750000 0.500000 0.267447
O O14 0.665017 0.501303 0.248157
O O15 0.202212 0.750000 0.073227
O O16 0.250000 0.500000 0.089640
O O17 0.168264 0.494413 0.123300
O O18 0.193268 0.500000 0.000000
O O19 0.861727 0.750000 0.813141
O O20 0.084759 0.750000 0.347074
#
# Coordination Sequence:
#
# PCOD9502142 Si02
#       7
#    16   8  16  16  16  16  16
#     4  11  23  38  56  77 104 142 188 239 296 356
#     4  10  20  32  46  70 100 134 175 226 287 348
#     4  10  20  35  58  86 115 151 193 238 289 342
#     4  11  23  39  59  83 112 147 189 240 291 348
#     4  11  22  38  63  95 131 167 200 237 282 337
#     4  10  21  38  60  89 124 158 195 240 287 341
#     4  10  20  34  52  74 104 139 181 234 291 349
#
# _framework density 19.212416999999999
#
# number of rings (size 3 to 8) (size 9 to 14) (size 15 to 20)
#    0.000    1.538    2.308    3.692    0.000    4.615 
#    0.000    1.538    0.000    0.462    0.000    0.000 
#    0.000    0.000    0.000    0.000    0.000    0.000 
#
# Total GULP energy -289884.664211 kJ/mol
# GULP energy per Si atom -5574.705081 kJ/mol
# Density = 1.916869 g / cm^3
# Si number density = 19.212417 Si / 1000 Ang^3
#
#
#
# Elastic Constant Matrix: (Units=GPa)
#
#
# Indices 1 2 3 4 5 6 
#
# 1 161.4870 22.0115 61.2660 0.0000 0.0000 0.0000
# 2 22.0115 20.7674 8.7439 0.0000 0.0000 0.0000
# 3 61.2660 8.7439 91.1848 0.0000 0.0000 0.0000
# 4 0.0000 0.0000 0.0000 5.7239 0.0000 0.0000
# 5 0.0000 0.0000 0.0000 0.0000 31.6771 0.0000
# 6 0.0000 0.0000 0.0000 0.0000 0.0000 13.8430
#
#
#
# Elastic Compliance Matrix: (Units=1/GPa)
#
#
# Indices 1 2 3 4 5 6 
#
# 1 0.009323 -0.007549 -0.005540 0.000000 0.000000 0.000000
# 2 -0.007549 0.056291 -0.000326 0.000000 0.000000 0.000000
# 3 -0.005540 -0.000326 0.014720 0.000000 0.000000 0.000000
# 4 0.000000 0.000000 0.000000 0.174706 0.000000 0.000000
# 5 0.000000 0.000000 0.000000 0.000000 0.031569 0.000000
# 6 0.000000 0.000000 0.000000 0.000000 0.000000 0.072239
#
#
# Mechanical properties :
#
#
# Convention : Reuss Voigt Hill
#
# Bulk Modulus (GPa) = 18.69005 50.83133 34.76069
# Shear Modulus (GPa) = 12.39117 22.34331 17.36724
#
# Velocity S-wave (km/s) = 2.54235 3.41392 3.00985
# Velocity P-wave (km/s) = 4.28571 6.48497 5.49646
#
# Compressibility (1/GPa) = 0.05350440
#
# Stress axis : x y z
#
# Youngs Moduli (GPa) = 107.25720 17.76487 67.93256
#
# Poissons Ratio (x) = 0.13411 0.37637
# Poissons Ratio (y) = 0.80970 0.02212
# Poissons Ratio (z) = 0.59424 0.00578
#
# Static dielectric constant tensor:
#      x y z
#    x 1.751050 0.000000 0.000000 
#    y 0.000000 1.650480 0.000000 
#    z 0.000000 0.000000 1.673670 
# 
# From -- ./inp_files/40195.got.cif
#   From: 2010.05.17/outbox.cif.g08.bks.cpg/sg67_21_cif.got.tgz:40195.got - 2010.06.03 18:28:57.
