data_PCOD9502698
_publ_section_title
;
Structure prediction by ZEFSAII (Michael W. Deem and Ramdas Pophale) SiO2 
 PCOD9502698
Probable space group: C M M A
;
_chemical_formula_sum "Si O2"
_cell_formula_units_Z 128
_cell_length_a 27.737239
_cell_length_b 23.485727
_cell_length_c 11.327663
_cell_angle_alpha 90.000000
_cell_angle_beta 90.000000
_cell_angle_gamma 90.000000
_cell_volume 7379.170705
_symmetry_space_group_name_H-M "C M M A"
_symmetry_group_IT_number 67
_symmetry_cell_setting 'orthorhombic'
loop_
_space_group_symop_operation_xyz
x,y,z
-x,1/2-y,z
x,-y,-z
-x,1/2+y,-z
-x,-y,-z
x,1/2+y,-z
-x,y,z
x,1/2-y,z
1/2+x,1/2+y,z
1/2-x,-y,z
1/2+x,1/2-y,-z
1/2-x,y,-z
1/2-x,1/2-y,-z
1/2+x,y,-z
1/2-x,1/2+y,z
1/2+x,-y,z
loop_
_atom_site_type_symbol
_atom_site_label
_atom_site_fract_x
_atom_site_fract_y
_atom_site_fract_z
Si Si1 0.729876 0.064269 0.876632
Si Si2 0.444935 0.367777 0.229940
Si Si3 0.139877 0.684686 0.377198
Si Si4 0.622169 0.403477 0.831926
Si Si5 0.256279 0.128415 0.366219
Si Si6 0.943417 0.004095 0.860144
Si Si7 0.055876 0.816195 0.974983
Si Si8 0.657804 0.187689 0.648253
O O1 0.672060 0.071431 0.883403
O O2 0.745827 0.091281 0.750942
O O3 0.750000 0.000000 0.874212
O O4 0.750000 0.090385 0.000000
O O5 0.500000 0.365311 0.275568
O O6 0.404728 0.347616 0.320009
O O7 0.435507 0.432228 0.186033
O O8 0.442442 0.327718 0.114761
O O9 0.141753 0.750000 0.334541
O O10 0.190447 0.653530 0.353211
O O11 0.135604 0.686127 0.518432
O O12 0.589019 0.456810 0.798510
O O13 0.591645 0.361799 0.916870
O O14 0.636942 0.363360 0.724060
O O15 0.250000 0.102188 0.500000
O O16 0.215087 0.177042 0.364666
O O17 0.000000 0.990961 0.846749
O O18 0.932312 0.000000 0.000000
O O19 0.067169 0.750000 0.949426
O O20 0.000000 0.827125 0.938051
O O21 0.649138 0.250000 0.701654
#
# Coordination Sequence:
#
# PCOD9502698 Si02
#       8
#    16  16  16  16  16  16  16  16
#     4  10  24  36  51  81 118 155 188 235 291 339
#     4  10  21  35  53  81 113 143 182 235 281 327
#     4  10  20  35  61  82 105 148 190 226 278 338
#     4  11  21  35  59  80 112 149 185 231 284 336
#     4   9  19  36  59  83 109 146 195 238 273 336
#     4  10  20  35  57  81 105 144 192 231 272 334
#     4  10  20  34  55  84 115 146 186 234 281 337
#     4   9  19  38  57  83 113 143 183 230 279 332
#
# _framework density 17.346122999999999
#
# number of rings (size 3 to 8) (size 9 to 14) (size 15 to 20)
#    0.000    2.125    1.250    1.500    5.250    2.500 
#    0.000    1.875    0.000    5.250    0.000    0.000 
#    0.000    0.000    0.000    0.000    0.000    0.000 
#
# Total GULP energy -356652.028951 kJ/mol
# GULP energy per Si atom -5572.687952 kJ/mol
# Density = 1.730664 g / cm^3
# Si number density = 17.346123 Si / 1000 Ang^3
#
#
#
# Elastic Constant Matrix: (Units=GPa)
#
#
# Indices 1 2 3 4 5 6 
#
# 1 124.1067 66.8192 53.0942 0.0000 0.0000 0.0000
# 2 66.8192 87.9858 36.6177 0.0000 0.0000 0.0000
# 3 53.0942 36.6177 74.7417 0.0000 0.0000 0.0000
# 4 0.0000 0.0000 0.0000 22.1662 0.0000 0.0000
# 5 0.0000 0.0000 0.0000 0.0000 27.4627 0.0000
# 6 0.0000 0.0000 0.0000 0.0000 0.0000 22.0873
#
#
#
# Elastic Compliance Matrix: (Units=1/GPa)
#
#
# Indices 1 2 3 4 5 6 
#
# 1 0.015970 -0.009304 -0.006787 0.000000 0.000000 0.000000
# 2 -0.009304 0.019697 -0.003041 0.000000 0.000000 0.000000
# 3 -0.006787 -0.003041 0.019690 0.000000 0.000000 0.000000
# 4 0.000000 0.000000 0.000000 0.045114 0.000000 0.000000
# 5 0.000000 0.000000 0.000000 0.000000 0.036413 0.000000
# 6 0.000000 0.000000 0.000000 0.000000 0.000000 0.045275
#
#
# Mechanical properties :
#
#
# Convention : Reuss Voigt Hill
#
# Bulk Modulus (GPa) = 58.49761 66.65514 62.57638
# Shear Modulus (GPa) = 22.11230 23.03012 22.57121
#
# Velocity S-wave (km/s) = 3.57426 3.64769 3.61116
# Velocity P-wave (km/s) = 7.12957 7.50005 7.31716
#
# Compressibility (1/GPa) = 0.01709472
#
# Stress axis : x y z
#
# Youngs Moduli (GPa) = 62.61696 50.77034 50.78713
#
# Poissons Ratio (x) = 0.47236 0.34467
# Poissons Ratio (y) = 0.58258 0.15443
# Poissons Ratio (z) = 0.42495 0.15437
#
# Static dielectric constant tensor:
#      x y z
#    x 1.585600 0.000000 0.000000 
#    y 0.000000 1.588270 0.000000 
#    z 0.000000 0.000000 1.594860 
# 
# From -- ./inp_files/22343.got.cif
#   From: 2010.05.17/outbox.cif.g08.bks.cpg/sg67_12_cif.got.tgz:22343.got - 2010.06.03 18:28:57.
