data_PCOD9502026
_publ_section_title
;
Structure prediction by ZEFSAII (Michael W. Deem and Ramdas Pophale) SiO2 
 PCOD9502026
Probable space group: C M M A
;
_chemical_formula_sum "Si O2"
_cell_formula_units_Z 116
_cell_length_a 24.895752
_cell_length_b 17.830984
_cell_length_c 14.883828
_cell_angle_alpha 90.000000
_cell_angle_beta 90.000000
_cell_angle_gamma 90.000000
_cell_volume 6607.165753
_symmetry_space_group_name_H-M "C M M A"
_symmetry_group_IT_number 67
_symmetry_cell_setting 'orthorhombic'
loop_
_space_group_symop_operation_xyz
x,y,z
-x,1/2-y,z
x,-y,-z
-x,1/2+y,-z
-x,-y,-z
x,1/2+y,-z
-x,y,z
x,1/2-y,z
1/2+x,1/2+y,z
1/2-x,-y,z
1/2+x,1/2-y,-z
1/2-x,y,-z
1/2-x,1/2-y,-z
1/2+x,y,-z
1/2-x,1/2+y,z
1/2+x,-y,z
loop_
_atom_site_type_symbol
_atom_site_label
_atom_site_fract_x
_atom_site_fract_y
_atom_site_fract_z
Si Si1 0.807284 0.970113 0.601392
Si Si2 0.702701 0.664106 0.278779
Si Si3 0.885066 0.474236 0.747853
Si Si4 0.062484 0.833748 0.183062
Si Si5 0.355247 0.162758 0.017116
Si Si6 0.000000 0.250000 0.165277
Si Si7 0.403145 0.627688 0.169134
Si Si8 0.219893 0.925216 0.140337
O O1 0.802768 0.882645 0.628408
O O2 0.810185 0.000000 0.500000
O O3 0.750000 0.000000 0.637917
O O4 0.858479 0.002194 0.654137
O O5 0.718992 0.750000 0.291626
O O6 0.644391 0.659477 0.232200
O O7 0.743304 0.622414 0.209533
O O8 0.920561 0.399808 0.750312
O O9 0.915054 0.545114 0.791739
O O10 0.832845 0.454871 0.807750
O O11 0.072019 0.750000 0.220447
O O12 0.098661 0.839870 0.093717
O O13 0.000000 0.839909 0.159267
O O14 0.345997 0.250000 0.993821
O O15 0.302847 0.125930 0.060581
O O16 0.376943 0.121322 0.929539
O O17 0.952737 0.184159 0.165029
O O18 0.250000 0.000000 0.110202
#
# Coordination Sequence:
#
# PCOD9502026 Si02
#       8
#    16  16  16  16  16   4  16  16
#     4  10  19  37  62  86 115 148 182 232 295 363
#     4  11  20  38  58  87 122 156 194 239 293 360
#     4  10  20  39  56  85 112 150 195 236 300 358
#     4   9  20  35  55  79 110 150 194 246 291 339
#     4  10  21  36  52  81 113 155 201 246 290 340
#     4  12  24  40  60  84 112 162 210 272 298 322
#     4  11  23  37  58  80 115 155 207 249 299 337
#     4  11  19  36  56  79 118 162 192 242 289 351
#
# _framework density 17.556695000000001
#
# number of rings (size 3 to 8) (size 9 to 14) (size 15 to 20)
#    0.000    1.655    5.517    0.414    1.931    3.310 
#    2.483    4.138    0.000    0.414    0.000    0.000 
#    0.000    0.000    0.000    0.000    0.000    0.000 
#
# Total GULP energy -322924.760935 kJ/mol
# GULP energy per Si atom -5567.668292 kJ/mol
# Density = 1.751674 g / cm^3
# Si number density = 17.556695 Si / 1000 Ang^3
#
#
#
# Elastic Constant Matrix: (Units=GPa)
#
#
# Indices 1 2 3 4 5 6 
#
# 1 70.6114 39.8412 29.5468 0.0000 0.0000 0.0000
# 2 39.8412 145.3358 57.6200 0.0000 0.0000 0.0000
# 3 29.5468 57.6200 70.9577 0.0000 0.0000 0.0000
# 4 0.0000 0.0000 0.0000 13.5755 0.0000 0.0000
# 5 0.0000 0.0000 0.0000 0.0000 7.8215 0.0000
# 6 0.0000 0.0000 0.0000 0.0000 0.0000 40.6550
#
#
#
# Elastic Compliance Matrix: (Units=1/GPa)
#
#
# Indices 1 2 3 4 5 6 
#
# 1 0.017934 -0.002884 -0.005126 0.000000 0.000000 0.000000
# 2 -0.002884 0.010611 -0.007416 0.000000 0.000000 0.000000
# 3 -0.005126 -0.007416 0.022249 0.000000 0.000000 0.000000
# 4 0.000000 0.000000 0.000000 0.073662 0.000000 0.000000
# 5 0.000000 0.000000 0.000000 0.000000 0.127852 0.000000
# 6 0.000000 0.000000 0.000000 0.000000 0.000000 0.024597
#
#
# Mechanical properties :
#
#
# Convention : Reuss Voigt Hill
#
# Bulk Modulus (GPa) = 50.14230 60.10232 55.12231
# Shear Modulus (GPa) = 15.90305 23.07021 19.48663
#
# Velocity S-wave (km/s) = 3.01293 3.62890 3.33517
# Velocity P-wave (km/s) = 6.38169 7.20182 6.80412
#
# Compressibility (1/GPa) = 0.01994324
#
# Stress axis : x y z
#
# Youngs Moduli (GPa) = 55.75939 94.23885 44.94554
#
# Poissons Ratio (x) = 0.27180 0.23038
# Poissons Ratio (y) = 0.16082 0.33331
# Poissons Ratio (z) = 0.28581 0.69886
#
# Static dielectric constant tensor:
#      x y z
#    x 1.594350 0.000000 0.000000 
#    y 0.000000 1.637000 0.000000 
#    z 0.000000 0.000000 1.600260 
# 
# From -- ./inp_files/30893.got.cif
#   From: 2010.05.17/outbox.cif.g08.bks.cpg/sg67_16_cif.got.tgz:30893.got - 2010.06.03 18:28:57.
