data_PCOD9502214
_publ_section_title
;
Structure prediction by ZEFSAII (Michael W. Deem and Ramdas Pophale) SiO2 
 PCOD9502214
Probable space group: C M M A
;
_chemical_formula_sum "Si O2"
_cell_formula_units_Z 116
_cell_length_a 25.085374
_cell_length_b 9.466753
_cell_length_c 25.282001
_cell_angle_alpha 90.000000
_cell_angle_beta 90.000000
_cell_angle_gamma 90.000000
_cell_volume 6003.894752
_symmetry_space_group_name_H-M "C M M A"
_symmetry_group_IT_number 67
_symmetry_cell_setting 'orthorhombic'
loop_
_space_group_symop_operation_xyz
x,y,z
-x,1/2-y,z
x,-y,-z
-x,1/2+y,-z
-x,-y,-z
x,1/2+y,-z
-x,y,z
x,1/2-y,z
1/2+x,1/2+y,z
1/2-x,-y,z
1/2+x,1/2-y,-z
1/2-x,y,-z
1/2-x,1/2-y,-z
1/2+x,y,-z
1/2-x,1/2+y,z
1/2+x,-y,z
loop_
_atom_site_type_symbol
_atom_site_label
_atom_site_fract_x
_atom_site_fract_y
_atom_site_fract_z
Si Si1 0.940710 0.919123 0.944220
Si Si2 0.413139 0.090496 0.650924
Si Si3 0.162232 0.415654 0.796629
Si Si4 0.936228 0.091507 0.549066
Si Si5 0.560350 0.584769 0.227854
Si Si6 0.203266 0.412034 0.303099
Si Si7 0.750000 0.000000 0.000000
Si Si8 0.336983 0.089493 0.085467
O O1 0.935169 0.750000 0.950150
O O2 0.000000 0.943173 0.919199
O O3 0.886510 0.981980 0.919773
O O4 0.942757 0.000000 0.000000
O O5 0.428913 0.250000 0.635364
O O6 0.438086 0.061648 0.708625
O O7 0.350242 0.086817 0.662764
O O8 0.426991 0.983863 0.604889
O O9 0.162031 0.250000 0.782355
O O10 0.102186 0.478236 0.797438
O O11 0.190383 0.508484 0.751857
O O12 0.185702 0.429785 0.855380
O O13 0.914412 0.250000 0.548654
O O14 0.000000 0.100444 0.542301
O O15 0.915005 0.000000 0.500000
O O16 0.500000 0.567634 0.209386
O O17 0.576465 0.750000 0.219386
O O18 0.218155 0.250000 0.292924
O O19 0.250000 0.500000 0.329703
O O20 0.791688 0.925701 0.040521
O O21 0.358322 0.250000 0.082340
#
# Coordination Sequence:
#
# PCOD9502214 Si02
#       8
#    16  16  16  16  16  16   4  16
#     4  10  21  38  62  88 113 143 179 221 269 325
#     4   9  18  33  53  78 110 147 188 233 281 333
#     4  10  22  38  56  83 115 145 181 227 280 335
#     4  10  20  32  49  77 113 153 195 235 279 331
#     4   9  18  34  56  83 116 153 190 228 277 339
#     4  10  21  38  59  83 109 144 186 230 285 341
#     4  12  26  44  66  86 110 148 194 238 284 344
#     4  11  25  43  62  88 117 148 188 233 286 341
#
# _framework density 19.320792000000001
#
# number of rings (size 3 to 8) (size 9 to 14) (size 15 to 20)
#    0.000    2.069    0.690    3.103    0.966    7.448 
#    0.000    2.759    0.000    0.414    0.000    2.897 
#    0.000    0.000    0.000    0.000    0.000    0.000 
#
# Total GULP energy -323482.354903 kJ/mol
# GULP energy per Si atom -5577.281981 kJ/mol
# Density = 1.927682 g / cm^3
# Si number density = 19.320792 Si / 1000 Ang^3
#
#
#
# Elastic Constant Matrix: (Units=GPa)
#
#
# Indices 1 2 3 4 5 6 
#
# 1 71.0383 32.8739 -2.3015 0.0000 0.0000 0.0000
# 2 32.8739 132.8780 49.2499 0.0000 0.0000 0.0000
# 3 -2.3015 49.2499 67.8701 0.0000 0.0000 0.0000
# 4 0.0000 0.0000 0.0000 20.8435 0.0000 0.0000
# 5 0.0000 0.0000 0.0000 0.0000 59.8806 0.0000
# 6 0.0000 0.0000 0.0000 0.0000 0.0000 24.3031
#
#
#
# Elastic Compliance Matrix: (Units=1/GPa)
#
#
# Indices 1 2 3 4 5 6 
#
# 1 0.017043 -0.006061 0.004976 0.000000 0.000000 0.000000
# 2 -0.006061 0.012450 -0.009240 0.000000 0.000000 0.000000
# 3 0.004976 -0.009240 0.021607 0.000000 0.000000 0.000000
# 4 0.000000 0.000000 0.000000 0.047977 0.000000 0.000000
# 5 0.000000 0.000000 0.000000 0.000000 0.016700 0.000000
# 6 0.000000 0.000000 0.000000 0.000000 0.000000 0.041147
#
#
# Mechanical properties :
#
#
# Convention : Reuss Voigt Hill
#
# Bulk Modulus (GPa) = 32.83958 47.93679 40.38819
# Shear Modulus (GPa) = 26.63507 33.80306 30.21906
#
# Velocity S-wave (km/s) = 3.71694 4.18732 3.95912
# Velocity P-wave (km/s) = 5.95439 6.94572 6.46907
#
# Compressibility (1/GPa) = 0.03045106
#
# Stress axis : x y z
#
# Youngs Moduli (GPa) = 58.67605 80.32358 46.28029
#
# Poissons Ratio (x) = 0.48681 -0.23028
# Poissons Ratio (y) = 0.35561 0.42761
# Poissons Ratio (z) = -0.29196 0.74216
#
# Static dielectric constant tensor:
#      x y z
#    x 1.724890 0.000000 0.000000 
#    y 0.000000 1.665160 0.000000 
#    z 0.000000 0.000000 1.668670 
# 
# From -- ./inp_files/42854.got.cif
#   From: 2010.05.17/outbox.cif.g08.bks.cpg/sg67_22_cif.got.tgz:42854.got - 2010.06.03 18:28:57.
