data_PCOD9502672
_publ_section_title
;
Structure prediction by ZEFSAII (Michael W. Deem and Ramdas Pophale) SiO2 
 PCOD9502672
Probable space group: C M M A
;
_chemical_formula_sum "Si O2"
_cell_formula_units_Z 112
_cell_length_a 27.619630
_cell_length_b 16.891076
_cell_length_c 12.714814
_cell_angle_alpha 90.000000
_cell_angle_beta 90.000000
_cell_angle_gamma 90.000000
_cell_volume 5931.782027
_symmetry_space_group_name_H-M "C M M A"
_symmetry_group_IT_number 67
_symmetry_cell_setting 'orthorhombic'
loop_
_space_group_symop_operation_xyz
x,y,z
-x,1/2-y,z
x,-y,-z
-x,1/2+y,-z
-x,-y,-z
x,1/2+y,-z
-x,y,z
x,1/2-y,z
1/2+x,1/2+y,z
1/2-x,-y,z
1/2+x,1/2-y,-z
1/2-x,y,-z
1/2-x,1/2-y,-z
1/2+x,y,-z
1/2-x,1/2+y,z
1/2+x,-y,z
loop_
_atom_site_type_symbol
_atom_site_label
_atom_site_fract_x
_atom_site_fract_y
_atom_site_fract_z
Si Si1 0.053621 0.844044 0.684155
Si Si2 0.304118 0.157113 0.975239
Si Si3 0.557775 0.157551 0.250589
Si Si4 0.845476 0.088454 0.233519
Si Si5 0.380964 0.053795 0.098054
Si Si6 0.801566 0.908832 0.536389
Si Si7 0.093804 0.094193 0.527741
O O1 0.054783 0.750000 0.699426
O O2 0.100309 0.880662 0.741111
O O3 0.061848 0.863887 0.561509
O O4 0.000000 0.873411 0.716669
O O5 0.306783 0.250000 0.996420
O O6 0.341088 0.110331 0.047593
O O7 0.250000 0.129153 0.000000
O O8 0.319501 0.139655 0.855746
O O9 0.500000 0.156566 0.247120
O O10 0.573568 0.250000 0.248972
O O11 0.579410 0.107168 0.154877
O O12 0.574862 0.115077 0.357736
O O13 0.813685 0.091097 0.339441
O O14 0.854708 0.002247 0.183738
O O15 0.399188 0.000000 0.000000
O O16 0.750000 0.873279 0.500000
O O17 0.850686 0.876026 0.483903
O O18 0.799899 0.000000 0.500000
O O19 0.092945 0.000000 0.500000
#
# Coordination Sequence:
#
# PCOD9502672 Si02
#       7
#    16  16  16  16  16  16  16
#     4  10  20  35  56  81 111 149 189 231 283 340
#     4  10  22  40  61  84 112 148 189 236 287 335
#     4  11  23  38  57  82 115 154 190 231 290 352
#     4  10  21  36  58  86 114 145 188 238 282 333
#     4  10  22  39  60  84 108 142 191 243 291 336
#     4   9  18  32  52  81 116 147 177 219 271 325
#     4  10  20  34  54  83 116 151 192 233 275 334
#
# _framework density 18.881340999999999
#
# number of rings (size 3 to 8) (size 9 to 14) (size 15 to 20)
#    0.000    2.000    0.000    4.286    0.000   10.286 
#    0.000    2.143    0.000   22.286    0.000    0.000 
#    0.000    0.571    0.000    0.000    0.000    0.000 
#
# Total GULP energy -312499.540699 kJ/mol
# GULP energy per Si atom -5580.348941 kJ/mol
# Density = 1.883837 g / cm^3
# Si number density = 18.881341 Si / 1000 Ang^3
#
#
#
# Elastic Constant Matrix: (Units=GPa)
#
#
# Indices 1 2 3 4 5 6 
#
# 1 125.5535 36.2507 82.2485 0.0000 0.0000 0.0000
# 2 36.2507 69.4358 46.7416 0.0000 0.0000 0.0000
# 3 82.2485 46.7416 128.8090 0.0000 0.0000 0.0000
# 4 0.0000 0.0000 0.0000 83.4279 0.0000 0.0000
# 5 0.0000 0.0000 0.0000 0.0000 15.1601 0.0000
# 6 0.0000 0.0000 0.0000 0.0000 0.0000 316.2659
#
#
#
# Elastic Compliance Matrix: (Units=1/GPa)
#
#
# Indices 1 2 3 4 5 6 
#
# 1 0.013840 -0.001689 -0.008224 0.000000 0.000000 0.000000
# 2 -0.001689 0.019263 -0.005911 0.000000 0.000000 0.000000
# 3 -0.008224 -0.005911 0.015160 0.000000 0.000000 0.000000
# 4 0.000000 0.000000 0.000000 0.011986 0.000000 0.000000
# 5 0.000000 0.000000 0.000000 0.000000 0.065963 0.000000
# 6 0.000000 0.000000 0.000000 0.000000 0.000000 0.003162
#
#
# Mechanical properties :
#
#
# Convention : Reuss Voigt Hill
#
# Bulk Modulus (GPa) = 60.19336 72.69777 66.44556
# Shear Modulus (GPa) = 30.01884 93.54128 61.78006
#
# Velocity S-wave (km/s) = 3.99164 7.04622 5.72636
# Velocity P-wave (km/s) = 7.29337 10.23645 8.88758
#
# Compressibility (1/GPa) = 0.01661313
#
# Stress axis : x y z
#
# Youngs Moduli (GPa) = 72.25354 51.91280 65.96278
#
# Poissons Ratio (x) = 0.08769 0.54250
# Poissons Ratio (y) = 0.12206 0.38994
# Poissons Ratio (z) = 0.59424 0.30688
#
# Static dielectric constant tensor:
#      x y z
#    x 1.667750 0.000000 0.000000 
#    y 0.000000 1.632500 0.000000 
#    z 0.000000 0.000000 1.638990 
# 
# From -- ./inp_files/23825.got.cif
#   From: 2010.05.17/outbox.cif.g08.bks.cpg/sg67_12_cif.got.tgz:23825.got - 2010.06.03 18:28:57.
