data_PCOD9502782
_publ_section_title
;
Structure prediction by ZEFSAII (Michael W. Deem and Ramdas Pophale) SiO2 
 PCOD9502782
Probable space group: C M M A
;
_chemical_formula_sum "Si O2"
_cell_formula_units_Z 96
_cell_length_a 8.538629
_cell_length_b 26.437439
_cell_length_c 24.213335
_cell_angle_alpha 90.000000
_cell_angle_beta 90.000000
_cell_angle_gamma 90.000000
_cell_volume 5465.905733
_symmetry_space_group_name_H-M "C M M A"
_symmetry_group_IT_number 67
_symmetry_cell_setting 'orthorhombic'
loop_
_space_group_symop_operation_xyz
x,y,z
-x,1/2-y,z
x,-y,-z
-x,1/2+y,-z
-x,-y,-z
x,1/2+y,-z
-x,y,z
x,1/2-y,z
1/2+x,1/2+y,z
1/2-x,-y,z
1/2+x,1/2-y,-z
1/2-x,y,-z
1/2-x,1/2-y,-z
1/2+x,y,-z
1/2-x,1/2+y,z
1/2+x,-y,z
loop_
_atom_site_type_symbol
_atom_site_label
_atom_site_fract_x
_atom_site_fract_y
_atom_site_fract_z
Si Si1 0.188162 0.152109 0.176508
Si Si2 0.188575 0.750000 0.241538
Si Si3 0.688525 0.191230 0.940900
Si Si4 0.811248 0.054939 0.631631
Si Si5 0.312151 0.055361 0.240483
Si Si6 0.810367 0.151657 0.562119
Si Si7 0.309176 0.750000 0.630745
O O1 0.250147 0.199991 0.211095
O O2 0.239199 0.160274 0.112912
O O3 0.248660 0.100413 0.203005
O O4 0.000000 0.152864 0.177968
O O5 0.240252 0.750000 0.305537
O O6 0.000000 0.750000 0.240138
O O7 0.500000 0.191068 0.942384
O O8 0.739371 0.250000 0.934026
O O9 0.750000 0.173051 0.000000
O O10 0.762913 0.063875 0.695421
O O11 0.757905 0.100280 0.592401
O O12 0.000000 0.054009 0.630843
O O13 0.750000 0.000000 0.614517
O O14 0.500000 0.055354 0.238782
O O15 0.250000 0.000000 0.224217
O O16 0.750000 0.154827 0.500000
O O17 0.758843 0.199964 0.598033
O O18 0.000000 0.151731 0.561282
O O19 0.500000 0.750000 0.631136
#
# Coordination Sequence:
#
# PCOD9502782 Si02
#       7
#    16   8  16  16  16  16   8
#     4  11  21  35  53  80 116 145 174 221 271 316
#     4  11  21  34  55  81 106 140 180 219 266 321
#     4   9  18  33  51  74 108 146 181 218 261 308
#     4   9  19  35  54  75 102 131 166 212 260 309
#     4  10  20  36  57  81 106 141 182 219 265 320
#     4  10  20  35  53  73  98 130 167 210 255 307
#     4   9  19  36  54  71  99 134 169 211 258 307
#
# _framework density 17.563420000000001
#
# number of rings (size 3 to 8) (size 9 to 14) (size 15 to 20)
#    0.000    2.167    0.833    2.500    0.000    5.667 
#    0.000    5.000    0.000    0.500    0.000    3.500 
#    0.000    0.000    0.000    0.000    0.000    0.000 
#
# Total GULP energy -267949.234999 kJ/mol
# GULP energy per Si atom -5582.275729 kJ/mol
# Density = 1.752344 g / cm^3
# Si number density = 17.563420 Si / 1000 Ang^3
#
#
#
# Elastic Constant Matrix: (Units=GPa)
#
#
# Indices 1 2 3 4 5 6 
#
# 1 27.7280 31.0571 30.5953 0.0000 0.0000 0.0000
# 2 31.0571 149.2423 108.1534 0.0000 0.0000 0.0000
# 3 30.5953 108.1534 164.7346 0.0000 0.0000 0.0000
# 4 0.0000 0.0000 0.0000 1.9936 0.0000 0.0000
# 5 0.0000 0.0000 0.0000 0.0000 28.2983 0.0000
# 6 0.0000 0.0000 0.0000 0.0000 0.0000 29.4362
#
#
#
# Elastic Compliance Matrix: (Units=1/GPa)
#
#
# Indices 1 2 3 4 5 6 
#
# 1 0.048763 -0.006838 -0.004567 0.000000 0.000000 0.000000
# 2 -0.006838 0.013741 -0.007751 0.000000 0.000000 0.000000
# 3 -0.004567 -0.007751 0.012008 0.000000 0.000000 0.000000
# 4 0.000000 0.000000 0.000000 0.501609 0.000000 0.000000
# 5 0.000000 0.000000 0.000000 0.000000 0.035338 0.000000
# 6 0.000000 0.000000 0.000000 0.000000 0.000000 0.033972
#
#
# Mechanical properties :
#
#
# Convention : Reuss Voigt Hill
#
# Bulk Modulus (GPa) = 27.62531 75.70182 51.66357
# Shear Modulus (GPa) = 7.18589 23.40555 15.29572
#
# Velocity S-wave (km/s) = 2.02491 3.65448 2.95428
# Velocity P-wave (km/s) = 4.60761 7.81041 6.41220
#
# Compressibility (1/GPa) = 0.03619869
#
# Stress axis : x y z
#
# Youngs Moduli (GPa) = 20.50738 72.77719 83.28094
#
# Poissons Ratio (x) = 0.49762 0.38038
# Poissons Ratio (y) = 0.14022 0.64553
# Poissons Ratio (z) = 0.09367 0.56411
#
# Static dielectric constant tensor:
#      x y z
#    x 1.604060 0.000000 0.000000 
#    y 0.000000 1.570220 0.000000 
#    z 0.000000 0.000000 1.588560 
# 
# From -- ./inp_files/40842.got.cif
#   From: 2010.05.17/outbox.cif.g08.bks.cpg/sg67_21_cif.got.tgz:40842.got - 2010.06.03 18:28:57.
