data_PCOD9502830
_publ_section_title
;
Structure prediction by ZEFSAII (Michael W. Deem and Ramdas Pophale) SiO2 
 PCOD9502830
Probable space group: C M M A
;
_chemical_formula_sum "Si O2"
_cell_formula_units_Z 96
_cell_length_a 19.689970
_cell_length_b 9.054598
_cell_length_c 32.122169
_cell_angle_alpha 90.000000
_cell_angle_beta 90.000000
_cell_angle_gamma 90.000000
_cell_volume 5726.893287
_symmetry_space_group_name_H-M "C M M A"
_symmetry_group_IT_number 67
_symmetry_cell_setting 'orthorhombic'
loop_
_space_group_symop_operation_xyz
x,y,z
-x,1/2-y,z
x,-y,-z
-x,1/2+y,-z
-x,-y,-z
x,1/2+y,-z
-x,y,z
x,1/2-y,z
1/2+x,1/2+y,z
1/2-x,-y,z
1/2+x,1/2-y,-z
1/2-x,y,-z
1/2-x,1/2-y,-z
1/2+x,y,-z
1/2-x,1/2+y,z
1/2+x,-y,z
loop_
_atom_site_type_symbol
_atom_site_label
_atom_site_fract_x
_atom_site_fract_y
_atom_site_fract_z
Si Si1 0.419214 0.425119 0.044292
Si Si2 0.323897 0.927350 0.112481
Si Si3 0.417516 0.923257 0.632965
Si Si4 0.677093 0.927216 0.208107
Si Si5 0.578776 0.072203 0.717880
Si Si6 0.418218 0.074409 0.458134
O O1 0.500000 0.444518 0.051260
O O2 0.404987 0.250000 0.042844
O O3 0.376578 0.502948 0.080367
O O4 0.402704 0.500000 0.000000
O O5 0.320047 0.750000 0.107579
O O6 0.343799 0.960340 0.160498
O O7 0.250000 0.000000 0.105773
O O8 0.500000 0.933677 0.632232
O O9 0.400761 0.750000 0.636657
O O10 0.393460 0.977640 0.587429
O O11 0.394971 0.008975 0.673993
O O12 0.683905 0.750000 0.210958
O O13 0.623519 0.975964 0.242886
O O14 0.750000 0.000000 0.215452
O O15 0.500000 0.026676 0.723108
O O16 0.580089 0.250000 0.715942
O O17 0.500000 0.050544 0.458051
O O18 0.407588 0.250000 0.460238
O O19 0.390788 0.000000 0.500000
#
# Coordination Sequence:
#
# PCOD9502830 Si02
#       6
#    16  16  16  16  16  16
#     4  10  21  37  56  79 107 136 167 203 242 286
#     4  10  20  35  55  77 102 132 166 204 246 290
#     4   8  14  24  36  53  80 112 145 183 226 270
#     4   9  19  34  51  71  96 126 158 195 237 280
#     4   9  17  29  45  66  91 119 153 191 230 274
#     4   8  13  20  30  46  71 104 141 178 217 264
#
# _framework density 16.763016
#
# number of rings (size 3 to 8) (size 9 to 14) (size 15 to 20)
#    0.000    3.000    0.000    2.000    0.000    4.000 
#    0.000    6.667    0.000    2.000    0.000    0.000 
#    0.000    0.667    0.000    7.333    0.000   12.000 
#
# Total GULP energy -267303.193180 kJ/mol
# GULP energy per Si atom -5568.816525 kJ/mol
# Density = 1.672486 g / cm^3
# Si number density = 16.763016 Si / 1000 Ang^3
#
#
#
# Elastic Constant Matrix: (Units=GPa)
#
#
# Indices 1 2 3 4 5 6 
#
# 1 41.6012 33.1705 79.2290 0.0000 0.0000 0.0000
# 2 33.1705 44.4742 68.3795 0.0000 0.0000 0.0000
# 3 79.2290 68.3795 195.0645 0.0000 0.0000 0.0000
# 4 0.0000 0.0000 0.0000 32.0322 0.0000 0.0000
# 5 0.0000 0.0000 0.0000 0.0000 -11.1395 0.0000
# 6 0.0000 0.0000 0.0000 0.0000 0.0000 19.7345
#
#
#
# Elastic Compliance Matrix: (Units=1/GPa)
#
#
# Indices 1 2 3 4 5 6 
#
# 1 0.124995 -0.032900 -0.039236 0.000000 0.000000 0.000000
# 2 -0.032900 0.057431 -0.006769 0.000000 0.000000 0.000000
# 3 -0.039236 -0.006769 0.023436 0.000000 0.000000 0.000000
# 4 0.000000 0.000000 0.000000 0.031219 0.000000 0.000000
# 5 0.000000 0.000000 0.000000 0.000000 -0.089771 0.000000
# 6 0.000000 0.000000 0.000000 0.000000 0.000000 0.050673
#
#
# Mechanical properties :
#
#
# Convention : Reuss Voigt Hill
#
# Bulk Modulus (GPa) = 20.81130 71.41088 46.11109
# Shear Modulus (GPa) = 13.44774 14.81615 14.13194
#
# Velocity S-wave (km/s) = 2.83543 2.97620 2.90667
# Velocity P-wave (km/s) = 4.81264 7.38262 6.23156
#
# Compressibility (1/GPa) = 0.04805082
#
# Stress axis : x y z
#
# Youngs Moduli (GPa) = 8.00034 17.41221 42.66981
#
# Poissons Ratio (x) = 0.57287 1.67418
# Poissons Ratio (y) = 0.26321 0.28884
# Poissons Ratio (z) = 0.31390 0.11787
#
# Static dielectric constant tensor:
#      x y z
#    x 1.541590 0.000000 0.000000 
#    y 0.000000 1.559900 0.000000 
#    z 0.000000 0.000000 1.587030 
# 
# From -- ./inp_files/43430.got.cif
#   From: 2010.05.17/outbox.cif.g08.bks.cpg/sg67_22_cif.got.tgz:43430.got - 2010.06.03 18:28:57.
