data_PCOD9502254
_publ_section_title
;
Structure prediction by ZEFSAII (Michael W. Deem and Ramdas Pophale) SiO2 
 PCOD9502254
Probable space group: C M M A
;
_chemical_formula_sum "Si O2"
_cell_formula_units_Z 80
_cell_length_a 8.678574
_cell_length_b 27.616959
_cell_length_c 20.505446
_cell_angle_alpha 90.000000
_cell_angle_beta 90.000000
_cell_angle_gamma 90.000000
_cell_volume 4914.659632
_symmetry_space_group_name_H-M "C M M A"
_symmetry_group_IT_number 67
_symmetry_cell_setting 'orthorhombic'
loop_
_space_group_symop_operation_xyz
x,y,z
-x,1/2-y,z
x,-y,-z
-x,1/2+y,-z
-x,-y,-z
x,1/2+y,-z
-x,y,z
x,1/2-y,z
1/2+x,1/2+y,z
1/2-x,-y,z
1/2+x,1/2-y,-z
1/2-x,y,-z
1/2-x,1/2-y,-z
1/2+x,y,-z
1/2-x,1/2+y,z
1/2+x,-y,z
loop_
_atom_site_type_symbol
_atom_site_label
_atom_site_fract_x
_atom_site_fract_y
_atom_site_fract_z
Si Si1 0.312656 0.806698 0.787748
Si Si2 0.674671 0.692466 0.566861
Si Si3 0.815085 0.053767 0.572122
Si Si4 0.324616 0.191304 0.067012
Si Si5 0.179856 0.867529 0.671534
O O1 0.500000 0.806940 0.786946
O O2 0.268858 0.750000 0.772635
O O3 0.257281 0.818758 0.861390
O O4 0.252654 0.847427 0.738348
O O5 0.500000 0.673416 0.576329
O O6 0.663328 0.750000 0.564291
O O7 0.750000 0.675426 0.500000
O O8 0.787985 0.677438 0.623690
O O9 0.750000 0.067539 0.500000
O O10 0.759190 0.089100 0.630316
O O11 0.000000 0.052873 0.568918
O O12 0.750000 0.000000 0.584650
O O13 0.500000 0.174224 0.067652
O O14 0.326311 0.250000 0.063848
O O15 0.250000 0.173704 0.000000
O O16 0.000000 0.877860 0.679490
#
# Coordination Sequence:
#
# PCOD9502254 Si02
#       5
#    16  16  16  16  16
#     4   9  18  32  47  66  96 133 168 201 239 281
#     4  10  20  33  47  63  86 118 155 193 231 272
#     4  11  22  39  59  77  96 118 150 193 241 290
#     4   8  14  25  42  63  89 123 162 200 236 275
#     4  12  23  33  47  69  95 123 156 193 236 283
#
# _framework density 16.277830000000002
#
# number of rings (size 3 to 8) (size 9 to 14) (size 15 to 20)
#    0.000    2.000    0.000    7.200    0.000    4.800 
#    0.000    2.000    0.000    0.000    0.000    0.000 
#    0.000    0.800    0.000    8.400    0.000    5.000 
#
# Total GULP energy -222807.792841 kJ/mol
# GULP energy per Si atom -5570.194821 kJ/mol
# Density = 1.624078 g / cm^3
# Si number density = 16.277830 Si / 1000 Ang^3
#
#
#
# Elastic Constant Matrix: (Units=GPa)
#
#
# Indices 1 2 3 4 5 6 
#
# 1 84.9386 37.3952 41.0451 0.0000 0.0000 0.0000
# 2 37.3952 79.7173 48.7935 0.0000 0.0000 0.0000
# 3 41.0451 48.7935 142.8223 0.0000 0.0000 0.0000
# 4 0.0000 0.0000 0.0000 0.1565 0.0000 0.0000
# 5 0.0000 0.0000 0.0000 0.0000 24.8113 0.0000
# 6 0.0000 0.0000 0.0000 0.0000 0.0000 19.6257
#
#
#
# Elastic Compliance Matrix: (Units=1/GPa)
#
#
# Indices 1 2 3 4 5 6 
#
# 1 0.015509 -0.005749 -0.002493 0.000000 0.000000 0.000000
# 2 -0.005749 0.017992 -0.004495 0.000000 0.000000 0.000000
# 3 -0.002493 -0.004495 0.009254 0.000000 0.000000 0.000000
# 4 0.000000 0.000000 0.000000 6.390640 0.000000 0.000000
# 5 0.000000 0.000000 0.000000 0.000000 0.040304 0.000000
# 6 0.000000 0.000000 0.000000 0.000000 0.000000 0.050954
#
#
# Mechanical properties :
#
#
# Convention : Reuss Voigt Hill
#
# Bulk Modulus (GPa) = 57.86573 62.43840 60.15206
# Shear Modulus (GPa) = 0.76267 20.93500 10.84884
#
# Velocity S-wave (km/s) = 0.68524 3.59012 2.58443
# Velocity P-wave (km/s) = 6.02097 7.45832 6.77785
#
# Compressibility (1/GPa) = 0.01728139
#
# Stress axis : x y z
#
# Youngs Moduli (GPa) = 64.47827 55.57892 108.06558
#
# Poissons Ratio (x) = 0.31955 0.26939
# Poissons Ratio (y) = 0.37071 0.48571
# Poissons Ratio (z) = 0.16074 0.24980
#
# Static dielectric constant tensor:
#      x y z
#    x 1.551900 0.000000 0.000000 
#    y 0.000000 1.556190 0.000000 
#    z 0.000000 0.000000 1.555370 
# 
# From -- ./inp_files/37377.got.cif
#   From: 2010.05.17/outbox.cif.g08.bks.cpg/sg67_19_cif.got.tgz:37377.got - 2010.06.03 18:28:57.
