data_PCOD9502474
_publ_section_title
;
Structure prediction by ZEFSAII (Michael W. Deem and Ramdas Pophale) SiO2 
 PCOD9502474
Probable space group: C M M A
;
_chemical_formula_sum "Si O2"
_cell_formula_units_Z 88
_cell_length_a 15.694986
_cell_length_b 9.148016
_cell_length_c 31.389798
_cell_angle_alpha 90.000000
_cell_angle_beta 90.000000
_cell_angle_gamma 90.000000
_cell_volume 4506.883885
_symmetry_space_group_name_H-M "C M M A"
_symmetry_group_IT_number 67
_symmetry_cell_setting 'orthorhombic'
loop_
_space_group_symop_operation_xyz
x,y,z
-x,1/2-y,z
x,-y,-z
-x,1/2+y,-z
-x,-y,-z
x,1/2+y,-z
-x,y,z
x,1/2-y,z
1/2+x,1/2+y,z
1/2-x,-y,z
1/2+x,1/2-y,-z
1/2-x,y,-z
1/2-x,1/2-y,-z
1/2+x,y,-z
1/2-x,1/2+y,z
1/2+x,-y,z
loop_
_atom_site_type_symbol
_atom_site_label
_atom_site_fract_x
_atom_site_fract_y
_atom_site_fract_z
Si Si1 0.398177 0.586103 0.364561
Si Si2 0.500000 0.074894 0.954328
Si Si3 0.104084 0.418762 0.718273
Si Si4 0.843365 0.572433 0.541829
Si Si5 0.663886 0.074991 0.897394
Si Si6 0.602685 0.075654 0.187614
O O1 0.500000 0.592563 0.359466
O O2 0.362844 0.750000 0.362713
O O3 0.364640 0.497856 0.324141
O O4 0.382676 0.532298 0.412479
O O5 0.500000 0.250000 0.959649
O O6 0.583648 0.036034 0.927057
O O7 0.500000 0.000000 0.000000
O O8 0.128836 0.250000 0.716077
O O9 0.129526 0.475649 0.764988
O O10 0.000000 0.423142 0.718160
O O11 0.885558 0.500000 0.500000
O O12 0.841232 0.750000 0.537633
O O13 0.750000 0.500000 0.543351
O O14 0.672317 0.250000 0.896107
O O15 0.750000 0.000000 0.913429
O O16 0.645128 0.012707 0.850343
O O17 0.500000 0.058835 0.184409
O O18 0.620324 0.250000 0.183970
#
# Coordination Sequence:
#
# PCOD9502474 Si02
#       6
#    16   8  16  16  16  16
#     4   9  18  32  49  72 101 131 167 211 260 313
#     4  10  24  44  66  92 124 160 204 250 299 358
#     4   8  15  28  48  76 107 139 177 217 262 320
#     4  10  20  34  51  69  91 122 162 206 256 316
#     4  11  23  40  61  91 125 159 203 251 298 352
#     4   9  17  32  56  84 114 152 194 235 284 340
#
# _framework density 19.525687000000001
#
# number of rings (size 3 to 8) (size 9 to 14) (size 15 to 20)
#    0.000    2.545    0.909    2.727    0.000    4.364 
#    0.000    4.545    0.000    2.182    0.000    0.000 
#    0.000    0.000    0.000    0.000    0.000    0.000 
#
# Total GULP energy -245337.374372 kJ/mol
# GULP energy per Si atom -5575.849418 kJ/mol
# Density = 1.948125 g / cm^3
# Si number density = 19.525687 Si / 1000 Ang^3
#
#
#
# Elastic Constant Matrix: (Units=GPa)
#
#
# Indices 1 2 3 4 5 6 
#
# 1 67.5363 36.0723 52.4925 0.0000 0.0000 0.0000
# 2 36.0723 56.2764 67.8315 0.0000 0.0000 0.0000
# 3 52.4925 67.8315 187.5744 0.0000 0.0000 0.0000
# 4 0.0000 0.0000 0.0000 41.6990 0.0000 0.0000
# 5 0.0000 0.0000 0.0000 0.0000 -35.8462 0.0000
# 6 0.0000 0.0000 0.0000 0.0000 0.0000 18.7669
#
#
#
# Elastic Compliance Matrix: (Units=1/GPa)
#
#
# Indices 1 2 3 4 5 6 
#
# 1 0.022911 -0.012333 -0.001952 0.000000 0.000000 0.000000
# 2 -0.012333 0.038138 -0.010340 0.000000 0.000000 0.000000
# 3 -0.001952 -0.010340 0.009617 0.000000 0.000000 0.000000
# 4 0.000000 0.000000 0.000000 0.023981 0.000000 0.000000
# 5 0.000000 0.000000 0.000000 0.000000 -0.027897 0.000000
# 6 0.000000 0.000000 0.000000 0.000000 0.000000 0.053285
#
#
# Mechanical properties :
#
#
# Convention : Reuss Voigt Hill
#
# Bulk Modulus (GPa) = 46.69477 69.35330 58.02404
# Shear Modulus (GPa) = 28.34063 15.25664 21.79863
#
# Velocity S-wave (km/s) = 3.81393 2.79832 3.34489
# Velocity P-wave (km/s) = 6.58492 6.78505 6.68573
#
# Compressibility (1/GPa) = 0.02141567
#
# Stress axis : x y z
#
# Youngs Moduli (GPa) = 43.64679 26.22035 103.98599
#
# Poissons Ratio (x) = 0.32338 0.20294
# Poissons Ratio (y) = 0.53831 1.07524
# Poissons Ratio (z) = 0.08518 0.27113
#
# Static dielectric constant tensor:
#      x y z
#    x 1.712800 0.000000 0.000000 
#    y 0.000000 1.667390 0.000000 
#    z 0.000000 0.000000 1.706770 
# 
# From -- ./inp_files/45766.got.cif
#   From: 2010.05.17/outbox.cif.g08.bks.cpg/sg67_23_cif.got.tgz:45766.got - 2010.06.03 18:28:57.
