data_PCOD9502227
_publ_section_title
;
Structure prediction by ZEFSAII (Michael W. Deem and Ramdas Pophale) SiO2 
 PCOD9502227
Probable space group: C M M A
;
_chemical_formula_sum "Si O2"
_cell_formula_units_Z 80
_cell_length_a 7.688225
_cell_length_b 17.948039
_cell_length_c 30.648224
_cell_angle_alpha 90.000000
_cell_angle_beta 90.000000
_cell_angle_gamma 90.000000
_cell_volume 4229.104362
_symmetry_space_group_name_H-M "C M M A"
_symmetry_group_IT_number 67
_symmetry_cell_setting 'orthorhombic'
loop_
_space_group_symop_operation_xyz
x,y,z
-x,1/2-y,z
x,-y,-z
-x,1/2+y,-z
-x,-y,-z
x,1/2+y,-z
-x,y,z
x,1/2-y,z
1/2+x,1/2+y,z
1/2-x,-y,z
1/2+x,1/2-y,-z
1/2-x,y,-z
1/2-x,1/2-y,-z
1/2+x,y,-z
1/2-x,1/2+y,z
1/2+x,-y,z
loop_
_atom_site_type_symbol
_atom_site_label
_atom_site_fract_x
_atom_site_fract_y
_atom_site_fract_z
Si Si1 0.204800 0.587375 0.048234
Si Si2 0.297072 0.839712 0.862972
Si Si3 0.500000 0.339511 0.696291
Si Si4 0.000000 0.159384 0.203126
Si Si5 0.208307 0.912824 0.362502
Si Si6 0.292144 0.665084 0.548112
O O1 0.250000 0.500000 0.049705
O O2 0.273654 0.628373 0.091101
O O3 0.000000 0.594492 0.051464
O O4 0.250000 0.616401 0.000000
O O5 0.500000 0.861628 0.856359
O O6 0.293291 0.750000 0.865479
O O7 0.170888 0.864033 0.823905
O O8 0.500000 0.250000 0.694523
O O9 0.500000 0.364432 0.746763
O O10 0.671510 0.369919 0.672007
O O11 0.000000 0.250000 0.203372
O O12 0.262522 0.883219 0.410556
O O13 0.000000 0.900618 0.356654
O O14 0.250000 0.000000 0.359422
O O15 0.500000 0.669641 0.550632
O O16 0.221892 0.750000 0.551017
O O17 0.250000 0.635149 0.500000
#
# Coordination Sequence:
#
# PCOD9502227 Si02
#       6
#    16  16   8   8  16  16
#     4  10  20  32  51  76 109 150 185 226 273 332
#     4   9  19  36  57  82 113 144 183 234 285 339
#     4  11  24  42  68  95 117 159 213 254 309 376
#     4   9  20  38  62  87 110 145 189 240 294 345
#     4  11  23  41  63  89 128 166 201 256 313 366
#     4   9  19  34  55  86 121 160 205 249 297 356
#
# _framework density 18.916533999999999
#
# number of rings (size 3 to 8) (size 9 to 14) (size 15 to 20)
#    0.000    2.200    1.000    1.800    4.200    2.800 
#    0.000    5.000    0.000    0.000    0.000    0.000 
#    0.000    0.000    0.000    0.000    0.000    0.000 
#
# Total GULP energy -223094.873035 kJ/mol
# GULP energy per Si atom -5577.371826 kJ/mol
# Density = 1.887348 g / cm^3
# Si number density = 18.916534 Si / 1000 Ang^3
#
#
#
# Elastic Constant Matrix: (Units=GPa)
#
#
# Indices 1 2 3 4 5 6 
#
# 1 101.5085 27.4656 78.9051 0.0000 0.0000 0.0000
# 2 27.4656 51.0887 55.3072 0.0000 0.0000 0.0000
# 3 78.9051 55.3072 205.6940 0.0000 0.0000 0.0000
# 4 0.0000 0.0000 0.0000 -67.2540 0.0000 0.0000
# 5 0.0000 0.0000 0.0000 0.0000 33.3046 0.0000
# 6 0.0000 0.0000 0.0000 0.0000 0.0000 10.9246
#
#
#
# Elastic Compliance Matrix: (Units=1/GPa)
#
#
# Indices 1 2 3 4 5 6 
#
# 1 0.014253 -0.002459 -0.004806 0.000000 0.000000 0.000000
# 2 -0.002459 0.028035 -0.006595 0.000000 0.000000 0.000000
# 3 -0.004806 -0.006595 0.008478 0.000000 0.000000 0.000000
# 4 0.000000 0.000000 0.000000 -0.014869 0.000000 0.000000
# 5 0.000000 0.000000 0.000000 0.000000 0.030026 0.000000
# 6 0.000000 0.000000 0.000000 0.000000 0.000000 0.091537
#
#
# Mechanical properties :
#
#
# Convention : Reuss Voigt Hill
#
# Bulk Modulus (GPa) = 43.39156 75.73858 59.56507
# Shear Modulus (GPa) = 25.92523 8.50259 17.21391
#
# Velocity S-wave (km/s) = 3.70605 2.12239 3.01988
# Velocity P-wave (km/s) = 6.42661 6.79200 6.61183
#
# Compressibility (1/GPa) = 0.02304596
#
# Stress axis : x y z
#
# Youngs Moduli (GPa) = 70.16178 35.66942 117.94614
#
# Poissons Ratio (x) = 0.08772 0.56687
# Poissons Ratio (y) = 0.17255 0.77782
# Poissons Ratio (z) = 0.33721 0.23523
#
# Static dielectric constant tensor:
#      x y z
#    x 1.665000 0.000000 0.000000 
#    y 0.000000 1.627810 0.000000 
#    z 0.000000 0.000000 1.673840 
# 
# From -- ./inp_files/45184.got.cif
#   From: 2010.05.17/outbox.cif.g08.bks.cpg/sg67_23_cif.got.tgz:45184.got - 2010.06.03 18:28:57.
