data_PCOD9502099
_publ_section_title
;
Structure prediction by ZEFSAII (Michael W. Deem and Ramdas Pophale) SiO2 
 PCOD9502099
Probable space group: C M M A
;
_chemical_formula_sum "Si O2"
_cell_formula_units_Z 112
_cell_length_a 22.476956
_cell_length_b 23.871691
_cell_length_c 12.311656
_cell_angle_alpha 90.000000
_cell_angle_beta 90.000000
_cell_angle_gamma 90.000000
_cell_volume 6605.978441
_symmetry_space_group_name_H-M "C M M A"
_symmetry_group_IT_number 67
_symmetry_cell_setting 'orthorhombic'
loop_
_space_group_symop_operation_xyz
x,y,z
-x,1/2-y,z
x,-y,-z
-x,1/2+y,-z
-x,-y,-z
x,1/2+y,-z
-x,y,z
x,1/2-y,z
1/2+x,1/2+y,z
1/2-x,-y,z
1/2+x,1/2-y,-z
1/2-x,y,-z
1/2-x,1/2-y,-z
1/2+x,y,-z
1/2-x,1/2+y,z
1/2+x,-y,z
loop_
_atom_site_type_symbol
_atom_site_label
_atom_site_fract_x
_atom_site_fract_y
_atom_site_fract_z
Si Si1 0.376207 0.403632 0.189151
Si Si2 0.430261 0.868927 0.042099
Si Si3 0.348153 0.314106 0.798344
Si Si4 0.740344 0.592074 0.130083
Si Si5 0.372886 0.978515 0.124059
Si Si6 0.071057 0.815104 0.355078
Si Si7 0.566902 0.682371 0.390514
O O1 0.304999 0.409255 0.182437
O O2 0.396621 0.468839 0.192271
O O3 0.397148 0.361421 0.281894
O O4 0.400984 0.378987 0.075406
O O5 0.500000 0.860059 0.032214
O O6 0.396668 0.819992 0.105723
O O7 0.415625 0.924992 0.112257
O O8 0.331028 0.250000 0.781335
O O9 0.292926 0.351404 0.834387
O O10 0.381966 0.336850 0.691222
O O11 0.692157 0.543982 0.158229
O O12 0.750000 0.590546 0.000000
O O13 0.365845 0.000000 0.000000
O O14 0.089608 0.750000 0.334919
O O15 0.079662 0.827796 0.482931
O O16 0.000000 0.817458 0.334694
O O17 0.500000 0.661509 0.363908
O O18 0.564742 0.750000 0.378160
#
# Coordination Sequence:
#
# PCOD9502099 Si02
#       7
#    16  16  16  16  16  16  16
#     4  11  20  31  52  75 101 136 173 207 255 313
#     4  10  20  31  46  75 106 130 162 212 263 306
#     4  10  20  33  51  75 102 133 172 212 253 304
#     4  11  19  34  50  74 102 136 173 209 255 303
#     4   9  18  31  52  71  97 131 174 212 247 298
#     4   9  19  35  53  76 106 137 171 210 257 313
#     4   8  15  32  56  74  94 134 181 217 250 298
#
# _framework density 16.954339999999998
#
# number of rings (size 3 to 8) (size 9 to 14) (size 15 to 20)
#    0.000    2.286    4.286    2.143    0.000    5.429 
#    0.000    0.714    0.000    6.000    0.000   13.000 
#    0.000    0.000    0.000    0.000    0.000    0.000 
#
# Total GULP energy -311963.811475 kJ/mol
# GULP energy per Si atom -5570.782348 kJ/mol
# Density = 1.691575 g / cm^3
# Si number density = 16.954340 Si / 1000 Ang^3
#
#
#
# Elastic Constant Matrix: (Units=GPa)
#
#
# Indices 1 2 3 4 5 6 
#
# 1 34.6637 -0.6642 3.8939 0.0000 0.0000 0.0000
# 2 -0.6642 61.8702 18.8551 0.0000 0.0000 0.0000
# 3 3.8939 18.8551 42.5864 0.0000 0.0000 0.0000
# 4 0.0000 0.0000 0.0000 11.6990 0.0000 0.0000
# 5 0.0000 0.0000 0.0000 0.0000 16.7925 0.0000
# 6 0.0000 0.0000 0.0000 0.0000 0.0000 12.9863
#
#
#
# Elastic Compliance Matrix: (Units=1/GPa)
#
#
# Indices 1 2 3 4 5 6 
#
# 1 0.029239 0.001305 -0.003251 0.000000 0.000000 0.000000
# 2 0.001305 0.018742 -0.008417 0.000000 0.000000 0.000000
# 3 -0.003251 -0.008417 0.027506 0.000000 0.000000 0.000000
# 4 0.000000 0.000000 0.000000 0.085478 0.000000 0.000000
# 5 0.000000 0.000000 0.000000 0.000000 0.059551 0.000000
# 6 0.000000 0.000000 0.000000 0.000000 0.000000 0.077004
#
#
# Mechanical properties :
#
#
# Convention : Reuss Voigt Hill
#
# Bulk Modulus (GPa) = 18.26181 20.36554 19.31368
# Shear Modulus (GPa) = 14.85885 16.09790 15.47838
#
# Velocity S-wave (km/s) = 2.96362 3.08472 3.02478
# Velocity P-wave (km/s) = 4.74398 4.97246 4.85956
#
# Compressibility (1/GPa) = 0.05475908
#
# Stress axis : x y z
#
# Youngs Moduli (GPa) = 34.20109 53.35587 36.35604
#
# Poissons Ratio (x) = -0.06961 0.11820
# Poissons Ratio (y) = -0.04462 0.30602
# Poissons Ratio (z) = 0.11119 0.44911
#
# Static dielectric constant tensor:
#      x y z
#    x 1.576750 0.000000 0.000000 
#    y 0.000000 1.608510 0.000000 
#    z 0.000000 0.000000 1.566160 
# 
# From -- ./inp_files/22280.got.cif
#   From: 2010.05.17/outbox.cif.g08.bks.cpg/sg67_12_cif.got.tgz:22280.got - 2010.06.03 18:28:57.
