data_PCOD9502167
_publ_section_title
;
Structure prediction by ZEFSAII (Michael W. Deem and Ramdas Pophale) SiO2 
 PCOD9502167
Probable space group: C M M A
;
_chemical_formula_sum "Si O2"
_cell_formula_units_Z 104
_cell_length_a 10.248618
_cell_length_b 15.694881
_cell_length_c 35.377999
_cell_angle_alpha 90.000000
_cell_angle_beta 90.000000
_cell_angle_gamma 90.000000
_cell_volume 5690.580854
_symmetry_space_group_name_H-M "C M M A"
_symmetry_group_IT_number 67
_symmetry_cell_setting 'orthorhombic'
loop_
_space_group_symop_operation_xyz
x,y,z
-x,1/2-y,z
x,-y,-z
-x,1/2+y,-z
-x,-y,-z
x,1/2+y,-z
-x,y,z
x,1/2-y,z
1/2+x,1/2+y,z
1/2-x,-y,z
1/2+x,1/2-y,-z
1/2-x,y,-z
1/2-x,1/2-y,-z
1/2+x,y,-z
1/2-x,1/2+y,z
1/2+x,-y,z
loop_
_atom_site_type_symbol
_atom_site_label
_atom_site_fract_x
_atom_site_fract_y
_atom_site_fract_z
Si Si1 0.845357 0.426406 0.080439
Si Si2 0.845526 0.420830 0.238692
Si Si3 0.649947 0.145949 0.468199
Si Si4 0.342366 0.844636 0.157618
Si Si5 0.650797 0.750000 0.034492
Si Si6 0.645000 0.648114 0.321580
Si Si7 0.649267 0.645823 0.617378
O O1 0.750000 0.500000 0.065353
O O2 0.804989 0.407358 0.123921
O O3 0.831467 0.336102 0.058972
O O4 0.000000 0.449717 0.078851
O O5 0.750000 0.500000 0.240847
O O6 0.810929 0.371583 0.200186
O O7 0.828031 0.369813 0.277642
O O8 0.000000 0.443287 0.236229
O O9 0.500000 0.120319 0.475453
O O10 0.651469 0.250000 0.468816
O O11 0.750000 0.115824 0.500000
O O12 0.686136 0.120539 0.425386
O O13 0.500000 0.840878 0.155611
O O14 0.291121 0.750000 0.150020
O O15 0.500000 0.750000 0.021436
O O16 0.750000 0.750000 0.000000
O O17 0.500000 0.614383 0.330307
O O18 0.641605 0.750000 0.326257
O O19 0.752962 0.614587 0.350455
O O20 0.500000 0.619733 0.624461
O O21 0.650285 0.750000 0.617922
#
# Coordination Sequence:
#
# PCOD9502167 Si02
#       7
#    16  16  16  16   8  16  16
#     4  10  20  36  59  86 115 149 191 235 282 337
#     4  10  20  32  48  71  98 127 161 202 248 296
#     4   8  13  20  30  47  73 104 138 175 219 273
#     4   9  16  31  56  80 104 138 177 216 260 314
#     4  10  22  40  60  84 116 154 196 238 284 342
#     4   9  17  29  44  63  86 115 155 196 231 276
#     4   8  14  24  37  54  78 110 146 184 229 280
#
# _framework density 18.275815000000001
#
# number of rings (size 3 to 8) (size 9 to 14) (size 15 to 20)
#    0.000    2.923    0.769    1.846    0.000    4.000 
#    0.000    4.615    0.000    2.308    0.000    0.000 
#    0.000    0.615    0.000    6.769    0.000   11.077 
#
# Total GULP energy -289688.157844 kJ/mol
# GULP energy per Si atom -5570.926112 kJ/mol
# Density = 1.823422 g / cm^3
# Si number density = 18.275815 Si / 1000 Ang^3
#
#
#
# Elastic Constant Matrix: (Units=GPa)
#
#
# Indices 1 2 3 4 5 6 
#
# 1 76.6553 41.7107 73.8608 0.0000 0.0000 0.0000
# 2 41.7107 52.1068 20.4735 0.0000 0.0000 0.0000
# 3 73.8608 20.4735 114.8090 0.0000 0.0000 0.0000
# 4 0.0000 0.0000 0.0000 -6.0590 0.0000 0.0000
# 5 0.0000 0.0000 0.0000 0.0000 30.3292 0.0000
# 6 0.0000 0.0000 0.0000 0.0000 0.0000 19.2763
#
#
#
# Elastic Compliance Matrix: (Units=1/GPa)
#
#
# Indices 1 2 3 4 5 6 
#
# 1 0.081110 -0.047772 -0.043662 0.000000 0.000000 0.000000
# 2 -0.047772 0.048774 0.022036 0.000000 0.000000 0.000000
# 3 -0.043662 0.022036 0.032870 0.000000 0.000000 0.000000
# 4 0.000000 0.000000 0.000000 -0.165044 0.000000 0.000000
# 5 0.000000 0.000000 0.000000 0.000000 0.032972 0.000000
# 6 0.000000 0.000000 0.000000 0.000000 0.000000 0.051877
#
#
# Mechanical properties :
#
#
# Convention : Reuss Voigt Hill
#
# Bulk Modulus (GPa) = 41.74070 57.29568 49.51819
# Shear Modulus (GPa) = 21.80165 15.87772 18.83969
#
# Velocity S-wave (km/s) = 3.45762 2.95071 3.21417
# Velocity P-wave (km/s) = 6.23130 6.55954 6.39752
#
# Compressibility (1/GPa) = 0.02395743
#
# Stress axis : x y z
#
# Youngs Moduli (GPa) = 12.32894 20.50276 30.42297
#
# Poissons Ratio (x) = 0.97946 1.32833
# Poissons Ratio (y) = 0.58898 -0.67039
# Poissons Ratio (z) = 0.53831 -0.45179
#
# Static dielectric constant tensor:
#      x y z
#    x 1.627080 0.000000 0.000000 
#    y 0.000000 1.648660 0.000000 
#    z 0.000000 0.000000 1.652860 
# 
# From -- ./inp_files/45576.got.cif
#   From: 2010.05.17/outbox.cif.g08.bks.cpg/sg67_23_cif.got.tgz:45576.got - 2010.06.03 18:28:57.
