data_PCOD9502468
_publ_section_title
;
Structure prediction by ZEFSAII (Michael W. Deem and Ramdas Pophale) SiO2 
 PCOD9502468
Probable space group: C M M A
;
_chemical_formula_sum "Si O2"
_cell_formula_units_Z 88
_cell_length_a 31.596939
_cell_length_b 8.653052
_cell_length_c 18.008659
_cell_angle_alpha 90.000000
_cell_angle_beta 90.000000
_cell_angle_gamma 90.000000
_cell_volume 4923.746669
_symmetry_space_group_name_H-M "C M M A"
_symmetry_group_IT_number 67
_symmetry_cell_setting 'orthorhombic'
loop_
_space_group_symop_operation_xyz
x,y,z
-x,1/2-y,z
x,-y,-z
-x,1/2+y,-z
-x,-y,-z
x,1/2+y,-z
-x,y,z
x,1/2-y,z
1/2+x,1/2+y,z
1/2-x,-y,z
1/2+x,1/2-y,-z
1/2-x,y,-z
1/2-x,1/2-y,-z
1/2+x,y,-z
1/2-x,1/2+y,z
1/2+x,-y,z
loop_
_atom_site_type_symbol
_atom_site_label
_atom_site_fract_x
_atom_site_fract_y
_atom_site_fract_z
Si Si1 0.204909 0.435820 0.758218
Si Si2 0.116116 0.935550 0.302534
Si Si3 0.673461 0.564670 0.921853
Si Si4 0.000000 0.564368 0.918230
Si Si5 0.547909 0.435482 0.583341
Si Si6 0.910082 0.436213 0.143709
O O1 0.205934 0.250000 0.759117
O O2 0.250000 0.500000 0.734582
O O3 0.165761 0.482175 0.704934
O O4 0.195825 0.485115 0.844280
O O5 0.114609 0.750000 0.305573
O O6 0.086126 0.001922 0.366517
O O7 0.098213 0.996296 0.224705
O O8 0.673988 0.750000 0.924646
O O9 0.625607 0.504057 0.910572
O O10 0.690544 0.500000 0.000000
O O11 0.043125 0.515572 0.879434
O O12 0.000000 0.750000 0.919784
O O13 0.000000 0.500000 0.000000
O O14 0.551813 0.500000 0.500000
O O15 0.500000 0.478782 0.610236
O O16 0.549827 0.250000 0.582153
O O17 0.906796 0.250000 0.144209
#
# Coordination Sequence:
#
# PCOD9502468 Si02
#       6
#    16  16  16   8  16  16
#     4   9  20  36  54  77 106 138 180 227 275 330
#     4  10  21  37  56  82 112 144 180 221 268 322
#     4  10  20  34  50  72 100 133 175 226 279 335
#     4  10  22  34  46  66  95 130 175 224 268 314
#     4  10  21  37  59  88 120 152 184 219 260 313
#     4  10  20  34  50  71  99 136 178 225 271 321
#
# _framework density 17.872568000000001
#
# number of rings (size 3 to 8) (size 9 to 14) (size 15 to 20)
#    0.000    2.182    0.000    3.818    1.273    8.727 
#    0.000    1.818    0.000    0.545    0.000    3.818 
#    0.000    0.000    0.000    0.000    0.000    0.000 
#
# Total GULP energy -245429.116390 kJ/mol
# GULP energy per Si atom -5577.934463 kJ/mol
# Density = 1.783189 g / cm^3
# Si number density = 17.872568 Si / 1000 Ang^3
#
#
#
# Elastic Constant Matrix: (Units=GPa)
#
#
# Indices 1 2 3 4 5 6 
#
# 1 157.9102 36.0400 60.2835 0.0000 0.0000 0.0000
# 2 36.0400 42.0621 24.8948 0.0000 0.0000 0.0000
# 3 60.2835 24.8948 79.5097 0.0000 0.0000 0.0000
# 4 0.0000 0.0000 0.0000 32.7519 0.0000 0.0000
# 5 0.0000 0.0000 0.0000 0.0000 18.6966 0.0000
# 6 0.0000 0.0000 0.0000 0.0000 0.0000 27.1957
#
#
#
# Elastic Compliance Matrix: (Units=1/GPa)
#
#
# Indices 1 2 3 4 5 6 
#
# 1 0.009652 -0.004835 -0.005804 0.000000 0.000000 0.000000
# 2 -0.004835 0.031604 -0.006230 0.000000 0.000000 0.000000
# 3 -0.005804 -0.006230 0.018928 0.000000 0.000000 0.000000
# 4 0.000000 0.000000 0.000000 0.030533 0.000000 0.000000
# 5 0.000000 0.000000 0.000000 0.000000 0.053486 0.000000
# 6 0.000000 0.000000 0.000000 0.000000 0.000000 0.036771
#
#
# Mechanical properties :
#
#
# Convention : Reuss Voigt Hill
#
# Bulk Modulus (GPa) = 37.81154 57.99098 47.90126
# Shear Modulus (GPa) = 22.36875 26.27975 24.32425
#
# Velocity S-wave (km/s) = 3.54159 3.83873 3.69315
# Velocity P-wave (km/s) = 6.15840 7.22255 6.71160
#
# Compressibility (1/GPa) = 0.02644695
#
# Stress axis : x y z
#
# Youngs Moduli (GPa) = 103.60570 31.64151 52.83087
#
# Poissons Ratio (x) = 0.15298 0.30664
# Poissons Ratio (y) = 0.50091 0.32912
# Poissons Ratio (z) = 0.60135 0.19712
#
# Static dielectric constant tensor:
#      x y z
#    x 1.635460 0.000000 0.000000 
#    y 0.000000 1.601540 0.000000 
#    z 0.000000 0.000000 1.606970 
# 
# From -- ./inp_files/32405.got.cif
#   From: 2010.05.17/outbox.cif.g08.bks.cpg/sg67_17_cif.got.tgz:32405.got - 2010.06.03 18:28:57.
