data_PCOD9502983
_publ_section_title
;
Structure prediction by ZEFSAII (Michael W. Deem and Ramdas Pophale) SiO2 
 PCOD9502983
Probable space group: C M M A
;
_chemical_formula_sum "Si O2"
_cell_formula_units_Z 120
_cell_length_a 22.818109
_cell_length_b 22.699407
_cell_length_c 12.170665
_cell_angle_alpha 90.000000
_cell_angle_beta 90.000000
_cell_angle_gamma 90.000000
_cell_volume 6303.887742
_symmetry_space_group_name_H-M "C M M A"
_symmetry_group_IT_number 67
_symmetry_cell_setting 'orthorhombic'
loop_
_space_group_symop_operation_xyz
x,y,z
-x,1/2-y,z
x,-y,-z
-x,1/2+y,-z
-x,-y,-z
x,1/2+y,-z
-x,y,z
x,1/2-y,z
1/2+x,1/2+y,z
1/2-x,-y,z
1/2+x,1/2-y,-z
1/2-x,y,-z
1/2-x,1/2-y,-z
1/2+x,y,-z
1/2-x,1/2+y,z
1/2+x,-y,z
loop_
_atom_site_type_symbol
_atom_site_label
_atom_site_fract_x
_atom_site_fract_y
_atom_site_fract_z
Si Si1 0.624771 0.316814 0.685970
Si Si2 0.346735 0.133179 0.228524
Si Si3 0.429547 0.021036 0.262993
Si Si4 0.932093 0.902139 0.849110
Si Si5 0.733556 0.683055 0.145332
Si Si6 0.624049 0.500000 0.500000
Si Si7 0.627641 0.684836 0.988110
Si Si8 0.819014 0.872084 0.477765
O O1 0.603356 0.250000 0.689222
O O2 0.580229 0.361282 0.743353
O O3 0.683355 0.320619 0.760800
O O4 0.643285 0.336125 0.565443
O O5 0.387757 0.075723 0.232903
O O6 0.281162 0.133274 0.175108
O O7 0.335378 0.148505 0.355121
O O8 0.376851 0.177192 0.142025
O O9 0.500000 0.032227 0.253887
O O10 0.414449 0.002102 0.388581
O O11 0.411854 0.967235 0.183230
O O12 0.903382 0.868715 0.950869
O O13 0.000000 0.906393 0.871498
O O14 0.758747 0.750000 0.154178
O O15 0.694200 0.680493 0.034833
O O16 0.663277 0.559188 0.505907
O O17 0.606460 0.750000 0.022105
O O18 0.750000 0.864517 0.500000
#
# Coordination Sequence:
#
# PCOD9502983 Si02
#       8
#    16  16  16  16  16   8  16  16
#     4  10  20  35  57  90 122 149 199 255 298 352
#     4  11  22  35  58  89 121 161 198 244 307 370
#     4  10  22  39  62  87 115 156 206 256 304 364
#     4  10  21  41  66  86 112 157 210 260 304 347
#     4   9  18  36  60  83 117 162 202 242 293 361
#     4  10  20  38  62  84 118 164 204 246 300 358
#     4  10  22  39  60  89 123 159 205 252 302 366
#     4  11  21  36  56  90 127 161 197 243 300 366
#
# _framework density 19.035872000000001
#
# number of rings (size 3 to 8) (size 9 to 14) (size 15 to 20)
#    0.000    1.867    2.667    2.400    0.000    4.533 
#    0.000    4.000    0.000    7.600    0.000    1.867 
#    0.000    0.000    0.000    0.000    0.000    0.000 
#
# Total GULP energy -334362.522138 kJ/mol
# GULP energy per Si atom -5572.708702 kJ/mol
# Density = 1.899255 g / cm^3
# Si number density = 19.035872 Si / 1000 Ang^3
#
#
#
# Elastic Constant Matrix: (Units=GPa)
#
#
# Indices 1 2 3 4 5 6 
#
# 1 31.7688 21.4354 13.7221 0.0000 0.0000 0.0000
# 2 21.4354 57.5814 36.5107 0.0000 0.0000 0.0000
# 3 13.7221 36.5107 125.6571 0.0000 0.0000 0.0000
# 4 0.0000 0.0000 0.0000 29.6213 0.0000 0.0000
# 5 0.0000 0.0000 0.0000 0.0000 21.9771 0.0000
# 6 0.0000 0.0000 0.0000 0.0000 0.0000 23.5144
#
#
#
# Elastic Compliance Matrix: (Units=1/GPa)
#
#
# Indices 1 2 3 4 5 6 
#
# 1 0.042036 -0.015614 -0.000054 0.000000 0.000000 0.000000
# 2 -0.015614 0.027089 -0.006166 0.000000 0.000000 0.000000
# 3 -0.000054 -0.006166 0.009756 0.000000 0.000000 0.000000
# 4 0.000000 0.000000 0.000000 0.033760 0.000000 0.000000
# 5 0.000000 0.000000 0.000000 0.000000 0.045502 0.000000
# 6 0.000000 0.000000 0.000000 0.000000 0.000000 0.042527
#
#
# Mechanical properties :
#
#
# Convention : Reuss Voigt Hill
#
# Bulk Modulus (GPa) = 28.39862 39.81597 34.10729
# Shear Modulus (GPa) = 19.52557 24.57849 22.05203
#
# Velocity S-wave (km/s) = 3.20617 3.59718 3.40729
# Velocity P-wave (km/s) = 5.35321 6.18180 5.78237
#
# Compressibility (1/GPa) = 0.03521298
#
# Stress axis : x y z
#
# Youngs Moduli (GPa) = 23.78905 36.91545 102.50597
#
# Poissons Ratio (x) = 0.57642 0.00549
# Poissons Ratio (y) = 0.37145 0.63203
# Poissons Ratio (z) = 0.00127 0.22761
#
# Static dielectric constant tensor:
#      x y z
#    x 1.671930 0.000000 0.000000 
#    y 0.000000 1.658040 0.000000 
#    z 0.000000 0.000000 1.725560 
# 
# From -- ./inp_files/22215.got.cif
#   From: 2010.05.17/outbox.cif.g08.bks.cpg/sg67_12_cif.got.tgz:22215.got - 2010.06.03 18:28:57.
