data_PCOD9502630
_publ_section_title
;
Structure prediction by ZEFSAII (Michael W. Deem and Ramdas Pophale) SiO2 
 PCOD9502630
Probable space group: C M M A
;
_chemical_formula_sum "Si O2"
_cell_formula_units_Z 104
_cell_length_a 10.022373
_cell_length_b 21.767230
_cell_length_c 25.747654
_cell_angle_alpha 90.000000
_cell_angle_beta 90.000000
_cell_angle_gamma 90.000000
_cell_volume 5617.090128
_symmetry_space_group_name_H-M "C M M A"
_symmetry_group_IT_number 67
_symmetry_cell_setting 'orthorhombic'
loop_
_space_group_symop_operation_xyz
x,y,z
-x,1/2-y,z
x,-y,-z
-x,1/2+y,-z
-x,-y,-z
x,1/2+y,-z
-x,y,z
x,1/2-y,z
1/2+x,1/2+y,z
1/2-x,-y,z
1/2+x,1/2-y,-z
1/2-x,y,-z
1/2-x,1/2-y,-z
1/2+x,y,-z
1/2-x,1/2+y,z
1/2+x,-y,z
loop_
_atom_site_type_symbol
_atom_site_label
_atom_site_fract_x
_atom_site_fract_y
_atom_site_fract_z
Si Si1 0.345122 0.819042 0.752629
Si Si2 0.841677 0.181879 0.449096
Si Si3 0.152305 0.119354 0.863866
Si Si4 0.356584 0.417581 0.718007
Si Si5 0.651095 0.051907 0.600208
Si Si6 0.750000 0.000000 0.806921
Si Si7 0.341730 0.176849 0.948926
O O1 0.500000 0.823026 0.737920
O O2 0.297312 0.750000 0.744425
O O3 0.337300 0.836727 0.813499
O O4 0.260409 0.868946 0.722590
O O5 0.818754 0.250000 0.425037
O O6 0.750000 0.178533 0.500000
O O7 0.812306 0.121765 0.414957
O O8 0.000000 0.179218 0.462051
O O9 0.266282 0.139083 0.904060
O O10 0.000000 0.124727 0.884481
O O11 0.177486 0.050832 0.841949
O O12 0.500000 0.385503 0.720869
O O13 0.350213 0.450719 0.662827
O O14 0.344190 0.463421 0.766688
O O15 0.500000 0.040625 0.581871
O O16 0.750000 0.000000 0.579732
O O17 0.500000 0.161244 0.955304
O O18 0.336290 0.250000 0.936974
O O19 0.250000 0.167494 0.000000
#
# Coordination Sequence:
#
# PCOD9502630 Si02
#       7
#    16  16  16  16  16   8  16
#     4   9  19  34  51  75 108 143 177 219 272 327
#     4   9  19  37  59  82 111 147 188 233 285 342
#     4  10  20  34  55  79 106 141 179 221 266 317
#     4  10  20  34  54  78 105 142 185 226 270 321
#     4  10  21  36  56  83 112 147 187 234 284 334
#     4  10  20  36  55  78 107 144 186 220 264 320
#     4  10  21  37  58  83 110 139 173 217 269 324
#
# _framework density 18.514924000000001
#
# number of rings (size 3 to 8) (size 9 to 14) (size 15 to 20)
#    0.000    2.308    0.769    1.385    0.000    7.692 
#    0.000    3.462    0.000    3.692    0.000    0.000 
#    0.000    0.000    0.000    0.000    0.000    0.000 
#
# Total GULP energy -289794.982768 kJ/mol
# GULP energy per Si atom -5572.980438 kJ/mol
# Density = 1.847278 g / cm^3
# Si number density = 18.514924 Si / 1000 Ang^3
#
#
#
# Elastic Constant Matrix: (Units=GPa)
#
#
# Indices 1 2 3 4 5 6 
#
# 1 95.2835 51.9993 26.9204 0.0000 0.0000 0.0000
# 2 51.9993 102.2276 19.7488 0.0000 0.0000 0.0000
# 3 26.9204 19.7488 29.1051 0.0000 0.0000 0.0000
# 4 0.0000 0.0000 0.0000 10.7845 0.0000 0.0000
# 5 0.0000 0.0000 0.0000 0.0000 24.8384 0.0000
# 6 0.0000 0.0000 0.0000 0.0000 0.0000 24.6012
#
#
#
# Elastic Compliance Matrix: (Units=1/GPa)
#
#
# Indices 1 2 3 4 5 6 
#
# 1 0.017369 -0.006596 -0.011590 0.000000 0.000000 0.000000
# 2 -0.006596 0.013763 -0.003238 0.000000 0.000000 0.000000
# 3 -0.011590 -0.003238 0.047275 0.000000 0.000000 0.000000
# 4 0.000000 0.000000 0.000000 0.092726 0.000000 0.000000
# 5 0.000000 0.000000 0.000000 0.000000 0.040260 0.000000
# 6 0.000000 0.000000 0.000000 0.000000 0.000000 0.040648
#
#
# Mechanical properties :
#
#
# Convention : Reuss Voigt Hill
#
# Bulk Modulus (GPa) = 28.12149 47.10592 37.61371
# Shear Modulus (GPa) = 16.30042 20.57467 18.43754
#
# Velocity S-wave (km/s) = 2.97036 3.33715 3.15909
# Velocity P-wave (km/s) = 5.19477 6.35186 5.80223
#
# Compressibility (1/GPa) = 0.03555999
#
# Stress axis : x y z
#
# Youngs Moduli (GPa) = 57.57346 72.66018 21.15297
#
# Poissons Ratio (x) = 0.47927 0.24516
# Poissons Ratio (y) = 0.37976 0.06848
# Poissons Ratio (z) = 0.66726 0.23524
#
# Static dielectric constant tensor:
#      x y z
#    x 1.644960 0.000000 0.000000 
#    y 0.000000 1.637010 0.000000 
#    z 0.000000 0.000000 1.626580 
# 
# From -- ./inp_files/43571.got.cif
#   From: 2010.05.17/outbox.cif.g08.bks.cpg/sg67_22_cif.got.tgz:43571.got - 2010.06.03 18:28:57.
