data_PCOD9502436
_publ_section_title
;
Structure prediction by ZEFSAII (Michael W. Deem and Ramdas Pophale) SiO2 
 PCOD9502436
Probable space group: C M M A
;
_chemical_formula_sum "Si O2"
_cell_formula_units_Z 96
_cell_length_a 15.745008
_cell_length_b 27.448082
_cell_length_c 12.132415
_cell_angle_alpha 90.000000
_cell_angle_beta 90.000000
_cell_angle_gamma 90.000000
_cell_volume 5243.269074
_symmetry_space_group_name_H-M "C M M A"
_symmetry_group_IT_number 67
_symmetry_cell_setting 'orthorhombic'
loop_
_space_group_symop_operation_xyz
x,y,z
-x,1/2-y,z
x,-y,-z
-x,1/2+y,-z
-x,-y,-z
x,1/2+y,-z
-x,y,z
x,1/2-y,z
1/2+x,1/2+y,z
1/2-x,-y,z
1/2+x,1/2-y,-z
1/2-x,y,-z
1/2-x,1/2-y,-z
1/2+x,y,-z
1/2-x,1/2+y,z
1/2+x,-y,z
loop_
_atom_site_type_symbol
_atom_site_label
_atom_site_fract_x
_atom_site_fract_y
_atom_site_fract_z
Si Si1 0.151799 0.627974 0.793180
Si Si2 0.000000 0.055247 0.870123
Si Si3 0.653268 0.621722 0.812159
Si Si4 0.500000 0.939575 0.135384
Si Si5 0.595722 0.804107 0.644244
Si Si6 0.167776 0.305635 0.419734
Si Si7 0.352579 0.804249 0.005275
O O1 0.246997 0.609612 0.825355
O O2 0.082461 0.585999 0.810708
O O3 0.156878 0.654308 0.674496
O O4 0.126559 0.670173 0.879967
O O5 0.914653 0.078696 0.818914
O O6 0.000000 0.997608 0.850298
O O7 0.000000 0.066793 0.001836
O O8 0.646334 0.652737 0.700513
O O9 0.624805 0.659702 0.906713
O O10 0.500000 0.806693 0.686386
O O11 0.630478 0.750000 0.671768
O O12 0.595677 0.808319 0.512745
O O13 0.170071 0.250000 0.374339
O O14 0.250000 0.311401 0.500000
O O15 0.387666 0.750000 0.993788
O O16 0.250000 0.800804 0.000000
#
# Coordination Sequence:
#
# PCOD9502436 Si02
#       7
#    16   8  16   8  16  16  16
#     4  11  22  38  60  87 122 161 198 241 296 363
#     4  11  24  44  65  86 115 145 202 268 310 374
#     4  11  20  37  62  88 116 153 199 244 304 356
#     4  11  26  44  61  88 117 151 202 258 320 366
#     4  10  20  33  54  89 126 163 202 237 280 351
#     4  10  20  35  57  89 127 169 205 235 279 348
#     4   9  18  31  52  85 122 154 182 226 285 354
#
# _framework density 18.309187999999999
#
# number of rings (size 3 to 8) (size 9 to 14) (size 15 to 20)
#    0.000    1.667    4.167    1.000    1.167    2.000 
#    0.000    3.750    0.000    2.000    0.000    0.000 
#    0.000    0.000    0.000    0.000    0.000    0.000 
#
# Total GULP energy -267661.054233 kJ/mol
# GULP energy per Si atom -5576.271963 kJ/mol
# Density = 1.826752 g / cm^3
# Si number density = 18.309188 Si / 1000 Ang^3
#
#
#
# Elastic Constant Matrix: (Units=GPa)
#
#
# Indices 1 2 3 4 5 6 
#
# 1 113.7834 65.8265 24.2901 0.0000 0.0000 0.0000
# 2 65.8265 132.1458 49.8694 0.0000 0.0000 0.0000
# 3 24.2901 49.8694 80.0811 0.0000 0.0000 0.0000
# 4 0.0000 0.0000 0.0000 24.8411 0.0000 0.0000
# 5 0.0000 0.0000 0.0000 0.0000 22.0780 0.0000
# 6 0.0000 0.0000 0.0000 0.0000 0.0000 18.9234
#
#
#
# Elastic Compliance Matrix: (Units=1/GPa)
#
#
# Indices 1 2 3 4 5 6 
#
# 1 0.012348 -0.006193 0.000111 0.000000 0.000000 0.000000
# 2 -0.006193 0.012998 -0.006216 0.000000 0.000000 0.000000
# 3 0.000111 -0.006216 0.016325 0.000000 0.000000 0.000000
# 4 0.000000 0.000000 0.000000 0.040256 0.000000 0.000000
# 5 0.000000 0.000000 0.000000 0.000000 0.045294 0.000000
# 6 0.000000 0.000000 0.000000 0.000000 0.000000 0.052845
#
#
# Mechanical properties :
#
#
# Convention : Reuss Voigt Hill
#
# Bulk Modulus (GPa) = 58.56485 67.33136 62.94811
# Shear Modulus (GPa) = 23.76978 25.57012 24.66995
#
# Velocity S-wave (km/s) = 3.60702 3.74113 3.67469
# Velocity P-wave (km/s) = 7.02876 7.45090 7.24291
#
# Compressibility (1/GPa) = 0.01707509
#
# Stress axis : x y z
#
# Youngs Moduli (GPa) = 80.98792 76.93497 61.25755
#
# Poissons Ratio (x) = 0.47643 -0.00681
# Poissons Ratio (y) = 0.50153 0.38077
# Poissons Ratio (z) = -0.00901 0.47823
#
# Static dielectric constant tensor:
#      x y z
#    x 1.704840 0.000000 0.000000 
#    y 0.000000 1.580590 0.000000 
#    z 0.000000 0.000000 1.648660 
# 
# From -- ./inp_files/19708.got.cif
#   From: 2010.05.17/outbox.cif.g08.bks.cpg/sg67_10_cif.got.tgz:19708.got - 2010.06.03 18:28:57.
