data_PCOD9502224
_publ_section_title
;
Structure prediction by ZEFSAII (Michael W. Deem and Ramdas Pophale) SiO2 
 PCOD9502224
Probable space group: C M M A
;
_chemical_formula_sum "Si O2"
_cell_formula_units_Z 84
_cell_length_a 14.211647
_cell_length_b 19.874516
_cell_length_c 15.464070
_cell_angle_alpha 90.000000
_cell_angle_beta 90.000000
_cell_angle_gamma 90.000000
_cell_volume 4367.820474
_symmetry_space_group_name_H-M "C M M A"
_symmetry_group_IT_number 67
_symmetry_cell_setting 'orthorhombic'
loop_
_space_group_symop_operation_xyz
x,y,z
-x,1/2-y,z
x,-y,-z
-x,1/2+y,-z
-x,-y,-z
x,1/2+y,-z
-x,y,z
x,1/2-y,z
1/2+x,1/2+y,z
1/2-x,-y,z
1/2+x,1/2-y,-z
1/2-x,y,-z
1/2-x,1/2-y,-z
1/2+x,y,-z
1/2-x,1/2+y,z
1/2+x,-y,z
loop_
_atom_site_type_symbol
_atom_site_label
_atom_site_fract_x
_atom_site_fract_y
_atom_site_fract_z
Si Si1 0.612055 0.414829 0.250874
Si Si2 0.791507 0.329589 0.241245
Si Si3 0.655582 0.323501 0.557338
Si Si4 0.250000 0.500000 0.000000
Si Si5 0.395310 0.556756 0.556075
Si Si6 0.610025 0.552403 0.139966
O O1 0.500000 0.396268 0.248070
O O2 0.685904 0.357686 0.221999
O O3 0.643340 0.427311 0.350132
O O4 0.622938 0.484659 0.198411
O O5 0.799097 0.250000 0.220005
O O6 0.818060 0.336057 0.343120
O O7 0.860520 0.380553 0.191304
O O8 0.610672 0.250000 0.552562
O O9 0.750000 0.321435 0.500000
O O10 0.599489 0.380394 0.507679
O O11 0.319214 0.543530 0.060082
O O12 0.346814 0.500000 0.500000
O O13 0.500000 0.531231 0.577752
O O14 0.500000 0.554888 0.115180
#
# Coordination Sequence:
#
# PCOD9502224 Si02
#       6
#    16  16  16   4  16  16
#     4  10  20  37  60  86 122 165 211 260 308 363
#     4  11  22  39  61  87 126 170 209 253 311 368
#     4  10  20  33  50  76 115 162 209 252 297 347
#     4  12  22  44  78 102 122 152 188 248 320 374
#     4  10  20  32  50  79 112 152 208 266 308 347
#     4  11  24  43  69  99 125 155 201 248 304 380
#
# _framework density 19.231559000000001
#
# number of rings (size 3 to 8) (size 9 to 14) (size 15 to 20)
#    0.000    1.524    3.810    1.429    0.000    3.810 
#    0.000    4.286    0.000    0.000    0.000    0.000 
#    0.000    0.000    0.000    0.000    0.000    0.000 
#
# Total GULP energy -234099.782404 kJ/mol
# GULP energy per Si atom -5573.804343 kJ/mol
# Density = 1.918779 g / cm^3
# Si number density = 19.231559 Si / 1000 Ang^3
#
#
#
# Elastic Constant Matrix: (Units=GPa)
#
#
# Indices 1 2 3 4 5 6 
#
# 1 116.0972 47.1061 46.3800 0.0000 0.0000 0.0000
# 2 47.1061 104.8120 62.2033 0.0000 0.0000 0.0000
# 3 46.3800 62.2033 89.7602 0.0000 0.0000 0.0000
# 4 0.0000 0.0000 0.0000 -250.2475 0.0000 0.0000
# 5 0.0000 0.0000 0.0000 0.0000 3.8691 0.0000
# 6 0.0000 0.0000 0.0000 0.0000 0.0000 -11.2418
#
#
#
# Elastic Compliance Matrix: (Units=1/GPa)
#
#
# Indices 1 2 3 4 5 6 
#
# 1 0.011299 -0.002740 -0.003939 0.000000 0.000000 0.000000
# 2 -0.002740 0.016871 -0.010275 0.000000 0.000000 0.000000
# 3 -0.003939 -0.010275 0.020297 0.000000 0.000000 0.000000
# 4 0.000000 0.000000 0.000000 -0.003996 0.000000 0.000000
# 5 0.000000 0.000000 0.000000 0.000000 0.258460 0.000000
# 6 0.000000 0.000000 0.000000 0.000000 0.000000 -0.088954
#
#
# Mechanical properties :
#
#
# Convention : Reuss Voigt Hill
#
# Bulk Modulus (GPa) = 68.69624 69.11647 68.90636
# Shear Modulus (GPa) = 19.78321 -41.19205 -10.70442
#
# Velocity S-wave (km/s) = 3.21079 -4.63309 -2.36181
# Velocity P-wave (km/s) = 7.03873 2.71964 5.33574
#
# Compressibility (1/GPa) = 0.01455684
#
# Stress axis : x y z
#
# Youngs Moduli (GPa) = 88.50273 59.27467 49.26831
#
# Poissons Ratio (x) = 0.16243 0.19409
# Poissons Ratio (y) = 0.24252 0.50625
# Poissons Ratio (z) = 0.34864 0.60906
#
# Static dielectric constant tensor:
#      x y z
#    x 1.698220 0.000000 0.000000 
#    y 0.000000 1.671660 0.000000 
#    z 0.000000 0.000000 1.675150 
# 
# From -- ./inp_files/27083.got.cif
#   From: 2010.05.17/outbox.cif.g08.bks.cpg/sg67_14_cif.got.tgz:27083.got - 2010.06.03 18:28:57.
