data_PCOD9502419
_publ_section_title
;
Structure prediction by ZEFSAII (Michael W. Deem and Ramdas Pophale) SiO2 
 PCOD9502419
Probable space group: C M M A
;
_chemical_formula_sum "Si O2"
_cell_formula_units_Z 112
_cell_length_a 25.102820
_cell_length_b 15.303777
_cell_length_c 13.564339
_cell_angle_alpha 90.000000
_cell_angle_beta 90.000000
_cell_angle_gamma 90.000000
_cell_volume 5210.984434
_symmetry_space_group_name_H-M "C M M A"
_symmetry_group_IT_number 67
_symmetry_cell_setting 'orthorhombic'
loop_
_space_group_symop_operation_xyz
x,y,z
-x,1/2-y,z
x,-y,-z
-x,1/2+y,-z
-x,-y,-z
x,1/2+y,-z
-x,y,z
x,1/2-y,z
1/2+x,1/2+y,z
1/2-x,-y,z
1/2+x,1/2-y,-z
1/2-x,y,-z
1/2-x,1/2-y,-z
1/2+x,y,-z
1/2-x,1/2+y,z
1/2+x,-y,z
loop_
_atom_site_type_symbol
_atom_site_label
_atom_site_fract_x
_atom_site_fract_y
_atom_site_fract_z
Si Si1 0.938134 0.960485 0.774045
Si Si2 0.690589 0.850381 0.545679
Si Si3 0.086173 0.147831 0.037037
Si Si4 0.439164 0.844755 0.810793
Si Si5 0.766454 0.096726 0.743903
Si Si6 0.303034 0.353542 0.047035
Si Si7 0.848692 0.352644 0.339331
O O1 0.937666 0.916677 0.882739
O O2 0.894881 0.905313 0.714147
O O3 0.000000 0.956738 0.739351
O O4 0.918908 0.061313 0.776107
O O5 0.675740 0.750000 0.569202
O O6 0.750000 0.847910 0.500000
O O7 0.696878 0.902470 0.646474
O O8 0.656672 0.883151 0.453257
O O9 0.086634 0.250000 0.072648
O O10 0.059591 0.150003 0.929732
O O11 0.145212 0.114044 0.009423
O O12 0.500000 0.841092 0.775297
O O13 0.413429 0.750000 0.786592
O O14 0.797646 0.136204 0.836067
O O15 0.709492 0.140180 0.714070
O O16 0.750000 0.000000 0.771800
O O17 0.304549 0.250000 0.027518
O O18 0.250000 0.391495 0.000000
O O19 0.861511 0.250000 0.340927
#
# Coordination Sequence:
#
# PCOD9502419 Si02
#       7
#    16  16  16  16  16  16  16
#     4  11  22  36  60  92 126 168 215 269 326 384
#     4   8  16  34  58  83 115 155 199 250 313 377
#     4  10  20  33  53  80 119 167 214 263 313 377
#     4   9  19  36  56  79 111 157 213 266 316 374
#     4  11  22  35  59  91 121 166 212 265 306 380
#     4  10  21  37  54  78 120 171 213 253 307 369
#     4  10  21  37  59  90 128 163 203 264 329 384
#
# _framework density 21.493061000000001
#
# number of rings (size 3 to 8) (size 9 to 14) (size 15 to 20)
#    0.000    2.143    0.000    4.286    2.000    6.857 
#    2.571    0.000    0.000    0.000    0.000    5.000 
#    0.000    9.714    0.000    0.000    0.000    0.857 
#
# Total GULP energy -312556.896487 kJ/mol
# GULP energy per Si atom -5581.373152 kJ/mol
# Density = 2.144414 g / cm^3
# Si number density = 21.493061 Si / 1000 Ang^3
#
#
#
# Elastic Constant Matrix: (Units=GPa)
#
#
# Indices 1 2 3 4 5 6 
#
# 1 95.7715 36.2000 32.1829 0.0000 0.0000 0.0000
# 2 36.2000 106.9960 17.9316 0.0000 0.0000 0.0000
# 3 32.1829 17.9316 63.2564 0.0000 0.0000 0.0000
# 4 0.0000 0.0000 0.0000 -35.5613 0.0000 0.0000
# 5 0.0000 0.0000 0.0000 0.0000 -470.4400 0.0000
# 6 0.0000 0.0000 0.0000 0.0000 0.0000 25.9527
#
#
#
# Elastic Compliance Matrix: (Units=1/GPa)
#
#
# Indices 1 2 3 4 5 6 
#
# 1 0.013850 -0.003680 -0.006003 0.000000 0.000000 0.000000
# 2 -0.003680 0.010790 -0.001187 0.000000 0.000000 0.000000
# 3 -0.006003 -0.001187 0.019199 0.000000 0.000000 0.000000
# 4 0.000000 0.000000 0.000000 -0.028120 0.000000 0.000000
# 5 0.000000 0.000000 0.000000 0.000000 -0.002126 0.000000
# 6 0.000000 0.000000 0.000000 0.000000 0.000000 0.038532
#
#
# Mechanical properties :
#
#
# Convention : Reuss Voigt Hill
#
# Bulk Modulus (GPa) = 45.24883 48.73921 46.99402
# Shear Modulus (GPa) = 61.55362 -84.02910 -11.23774
#
# Velocity S-wave (km/s) = 5.35733 -6.25946 -2.28908
# Velocity P-wave (km/s) = 7.70496 5.43278 3.86338
#
# Compressibility (1/GPa) = 0.02210002
#
# Stress axis : x y z
#
# Youngs Moduli (GPa) = 72.20385 92.67877 52.08535
#
# Poissons Ratio (x) = 0.34103 0.31268
# Poissons Ratio (y) = 0.26569 0.06180
# Poissons Ratio (z) = 0.43345 0.10997
#
# Static dielectric constant tensor:
#      x y z
#    x 1.928950 0.000000 0.000000 
#    y 0.000000 1.806240 0.000000 
#    z 0.000000 0.000000 1.760580 
# 
# From -- ./inp_files/30772.got.cif
#   From: 2010.05.17/outbox.cif.g08.bks.cpg/sg67_16_cif.got.tgz:30772.got - 2010.06.03 18:28:57.
