data_PCOD9502982
_publ_section_title
;
Structure prediction by ZEFSAII (Michael W. Deem and Ramdas Pophale) SiO2 
 PCOD9502982
Probable space group: C M M A
;
_chemical_formula_sum "Si O2"
_cell_formula_units_Z 120
_cell_length_a 26.162110
_cell_length_b 11.139959
_cell_length_c 20.951499
_cell_angle_alpha 90.000000
_cell_angle_beta 90.000000
_cell_angle_gamma 90.000000
_cell_volume 6106.206122
_symmetry_space_group_name_H-M "C M M A"
_symmetry_group_IT_number 67
_symmetry_cell_setting 'orthorhombic'
loop_
_space_group_symop_operation_xyz
x,y,z
-x,1/2-y,z
x,-y,-z
-x,1/2+y,-z
-x,-y,-z
x,1/2+y,-z
-x,y,z
x,1/2-y,z
1/2+x,1/2+y,z
1/2-x,-y,z
1/2+x,1/2-y,-z
1/2-x,y,-z
1/2-x,1/2-y,-z
1/2+x,y,-z
1/2-x,1/2+y,z
1/2+x,-y,z
loop_
_atom_site_type_symbol
_atom_site_label
_atom_site_fract_x
_atom_site_fract_y
_atom_site_fract_z
Si Si1 0.000000 0.877593 0.959552
Si Si2 0.602718 0.890076 0.545312
Si Si3 0.389714 0.444769 0.929224
Si Si4 0.280933 0.880038 0.736475
Si Si5 0.227605 0.622685 0.927250
Si Si6 0.716667 0.382254 0.414509
Si Si7 0.058721 0.604973 0.316729
Si Si8 0.387240 0.614033 0.808607
O O1 0.054810 0.881031 0.923545
O O2 0.000000 0.750000 0.996438
O O3 0.000000 0.000000 0.000000
O O4 0.585457 0.750000 0.532250
O O5 0.664199 0.886155 0.546712
O O6 0.586195 0.924178 0.617212
O O7 0.585645 0.000000 0.500000
O O8 0.334053 0.381565 0.925667
O O9 0.389343 0.542369 0.873606
O O10 0.389216 0.500000 0.000000
O O11 0.254055 0.750000 0.744189
O O12 0.296260 0.885535 0.661430
O O13 0.330328 0.880545 0.780663
O O14 0.250000 0.000000 0.749151
O O15 0.244687 0.750000 0.898193
O O16 0.250000 0.500000 0.898613
O O17 0.250000 0.623860 0.000000
O O18 0.741291 0.250000 0.425219
O O19 0.750000 0.500000 0.427421
O O20 0.062951 0.750000 0.311843
O O21 0.081221 0.557889 0.250315
O O22 0.000000 0.571477 0.322340
O O23 0.405292 0.750000 0.820672
#
# Coordination Sequence:
#
# PCOD9502982 Si02
#       8
#     8  16  16  16  16  16  16  16
#     4  10  24  44  66  90 122 160 199 248 309 374
#     4  10  20  35  57  88 123 158 194 243 296 349
#     4  11  23  40  60  91 125 161 199 254 315 375
#     4   9  17  34  57  85 119 155 200 252 302 359
#     4  10  20  38  62  85 115 158 200 245 300 365
#     4   9  17  31  53  78 114 157 196 241 294 346
#     4   9  18  36  62  90 119 154 200 250 297 348
#     4  10  21  37  63  94 122 155 205 258 304 359
#
# _framework density 19.652135999999999
#
# number of rings (size 3 to 8) (size 9 to 14) (size 15 to 20)
#    0.000    2.267    2.667    0.400    0.933    4.800 
#    0.000    4.000    0.000    1.600    0.000    0.000 
#    0.000    0.000    0.000    0.000    0.000    0.000 
#
# Total GULP energy -334159.849685 kJ/mol
# GULP energy per Si atom -5569.330828 kJ/mol
# Density = 1.960741 g / cm^3
# Si number density = 19.652136 Si / 1000 Ang^3
#
#
#
# Elastic Constant Matrix: (Units=GPa)
#
#
# Indices 1 2 3 4 5 6 
#
# 1 81.3531 36.8432 21.5606 0.0000 0.0000 0.0000
# 2 36.8432 147.7864 54.1928 0.0000 0.0000 0.0000
# 3 21.5606 54.1928 116.7729 0.0000 0.0000 0.0000
# 4 0.0000 0.0000 0.0000 -8.8526 0.0000 0.0000
# 5 0.0000 0.0000 0.0000 0.0000 -3.7492 0.0000
# 6 0.0000 0.0000 0.0000 0.0000 0.0000 6.2104
#
#
#
# Elastic Compliance Matrix: (Units=1/GPa)
#
#
# Indices 1 2 3 4 5 6 
#
# 1 0.013986 -0.003061 -0.001162 0.000000 0.000000 0.000000
# 2 -0.003061 0.008824 -0.003530 0.000000 0.000000 0.000000
# 3 -0.001162 -0.003530 0.010416 0.000000 0.000000 0.000000
# 4 0.000000 0.000000 0.000000 -0.112961 0.000000 0.000000
# 5 0.000000 0.000000 0.000000 0.000000 -0.266723 0.000000
# 6 0.000000 0.000000 0.000000 0.000000 0.000000 0.161020
#
#
# Mechanical properties :
#
#
# Convention : Reuss Voigt Hill
#
# Bulk Modulus (GPa) = 56.42919 63.45618 59.94269
# Shear Modulus (GPa) = -30.48317 14.27609 -8.10354
#
# Velocity S-wave (km/s) = -3.94272 2.69818 -2.03284
# Velocity P-wave (km/s) = 2.83719 6.48588 5.00581
#
# Compressibility (1/GPa) = 0.01772132
#
# Stress axis : x y z
#
# Youngs Moduli (GPa) = 71.49925 113.32747 96.00253
#
# Poissons Ratio (x) = 0.34686 0.11155
# Poissons Ratio (y) = 0.21884 0.33889
# Poissons Ratio (z) = 0.08308 0.40004
#
# Static dielectric constant tensor:
#      x y z
#    x 1.709740 0.000000 0.000000 
#    y 0.000000 1.722820 0.000000 
#    z 0.000000 0.000000 1.663380 
# 
# From -- ./inp_files/38121.got.cif
#   From: 2010.05.17/outbox.cif.g08.bks.cpg/sg67_20_cif.got.tgz:38121.got - 2010.06.03 18:28:57.
