data_PCOD9502826
_publ_section_title
;
Structure prediction by ZEFSAII (Michael W. Deem and Ramdas Pophale) SiO2 
 PCOD9502826
Probable space group: C M M A
;
_chemical_formula_sum "Si O2"
_cell_formula_units_Z 104
_cell_length_a 7.915348
_cell_length_b 28.125970
_cell_length_c 24.812024
_cell_angle_alpha 90.000000
_cell_angle_beta 90.000000
_cell_angle_gamma 90.000000
_cell_volume 5523.822507
_symmetry_space_group_name_H-M "C M M A"
_symmetry_group_IT_number 67
_symmetry_cell_setting 'orthorhombic'
loop_
_space_group_symop_operation_xyz
x,y,z
-x,1/2-y,z
x,-y,-z
-x,1/2+y,-z
-x,-y,-z
x,1/2+y,-z
-x,y,z
x,1/2-y,z
1/2+x,1/2+y,z
1/2-x,-y,z
1/2+x,1/2-y,-z
1/2-x,y,-z
1/2-x,1/2-y,-z
1/2+x,y,-z
1/2-x,1/2+y,z
1/2+x,-y,z
loop_
_atom_site_type_symbol
_atom_site_label
_atom_site_fract_x
_atom_site_fract_y
_atom_site_fract_z
Si Si1 0.699081 0.447254 0.772665
Si Si2 0.297424 0.198117 0.273126
Si Si3 0.796597 0.304561 0.060089
Si Si4 0.703693 0.355186 0.437791
Si Si5 0.797047 0.250000 0.563090
Si Si6 0.795213 0.853098 0.832124
Si Si7 0.703932 0.397254 0.331926
O O1 0.500000 0.444189 0.777636
O O2 0.750000 0.500000 0.789082
O O3 0.770176 0.403482 0.808414
O O4 0.742242 0.437378 0.709998
O O5 0.500000 0.198897 0.280414
O O6 0.232051 0.250000 0.289287
O O7 0.257376 0.186819 0.211062
O O8 0.234317 0.152391 0.305496
O O9 0.734782 0.250000 0.066778
O O10 0.735873 0.337872 0.108688
O O11 0.000000 0.303134 0.063244
O O12 0.750000 0.320557 0.000000
O O13 0.500000 0.353588 0.436166
O O14 0.750000 0.363206 0.500000
O O15 0.763619 0.302214 0.419106
O O16 0.760384 0.394115 0.394036
O O17 0.750000 0.250000 0.500000
O O18 0.000000 0.250000 0.570947
O O19 0.000000 0.854698 0.832835
O O20 0.500000 0.397614 0.331532
#
# Coordination Sequence:
#
# PCOD9502826 Si02
#       7
#    16  16  16  16   8  16  16
#     4  10  20  35  55  75  94 118 152 197 247 297
#     4   9  17  27  42  66  95 126 159 195 233 275
#     4   9  17  29  46  70 101 136 168 196 226 264
#     4   9  17  28  44  64  91 126 161 195 230 273
#     4   8  14  24  38  58  84 120 160 190 217 254
#     4   9  18  32  49  69  95 127 161 196 238 285
#     4   9  18  31  47  69  95 124 157 193 236 285
#
# _framework density 18.827541
#
# number of rings (size 3 to 8) (size 9 to 14) (size 15 to 20)
#    0.000    2.923    0.000    0.923    1.077    2.769 
#    0.000    1.538    0.000    0.923    0.000    6.462 
#    0.000    0.000    0.000    0.000    0.000    0.000 
#
# Total GULP energy -289645.210885 kJ/mol
# GULP energy per Si atom -5570.100209 kJ/mol
# Density = 1.878469 g / cm^3
# Si number density = 18.827541 Si / 1000 Ang^3
#
#
#
# Elastic Constant Matrix: (Units=GPa)
#
#
# Indices 1 2 3 4 5 6 
#
# 1 16.9235 5.3649 1.4615 0.0000 0.0000 0.0000
# 2 5.3649 66.0092 23.4775 0.0000 0.0000 0.0000
# 3 1.4615 23.4775 97.3442 0.0000 0.0000 0.0000
# 4 0.0000 0.0000 0.0000 17.2883 0.0000 0.0000
# 5 0.0000 0.0000 0.0000 0.0000 16.3372 0.0000
# 6 0.0000 0.0000 0.0000 0.0000 0.0000 13.4137
#
#
#
# Elastic Compliance Matrix: (Units=1/GPa)
#
#
# Indices 1 2 3 4 5 6 
#
# 1 0.060661 -0.005039 0.000304 0.000000 0.000000 0.000000
# 2 -0.005039 0.016989 -0.004022 0.000000 0.000000 0.000000
# 3 0.000304 -0.004022 0.011238 0.000000 0.000000 0.000000
# 4 0.000000 0.000000 0.000000 0.057843 0.000000 0.000000
# 5 0.000000 0.000000 0.000000 0.000000 0.061210 0.000000
# 6 0.000000 0.000000 0.000000 0.000000 0.000000 0.074551
#
#
# Mechanical properties :
#
#
# Convention : Reuss Voigt Hill
#
# Bulk Modulus (GPa) = 14.01025 26.76495 20.38760
# Shear Modulus (GPa) = 15.44185 19.40604 17.42395
#
# Velocity S-wave (km/s) = 2.86697 3.21398 3.04542
# Velocity P-wave (km/s) = 4.29149 5.29335 4.81853
#
# Compressibility (1/GPa) = 0.07137634
#
# Stress axis : x y z
#
# Youngs Moduli (GPa) = 16.48519 58.86041 88.98188
#
# Poissons Ratio (x) = 0.29657 -0.02709
# Poissons Ratio (y) = 0.08306 0.35787
# Poissons Ratio (z) = -0.00502 0.23673
#
# Static dielectric constant tensor:
#      x y z
#    x 1.672950 0.000000 0.000000 
#    y 0.000000 1.691960 0.000000 
#    z 0.000000 0.000000 1.676010 
# 
# From -- ./inp_files/40230.got.cif
#   From: 2010.05.17/outbox.cif.g08.bks.cpg/sg67_21_cif.got.tgz:40230.got - 2010.06.03 18:28:57.
