data_PCOD9502853
_publ_section_title
;
Structure prediction by ZEFSAII (Michael W. Deem and Ramdas Pophale) SiO2 
 PCOD9502853
Probable space group: C M M A
;
_chemical_formula_sum "Si O2"
_cell_formula_units_Z 80
_cell_length_a 16.705895
_cell_length_b 9.913300
_cell_length_c 25.000442
_cell_angle_alpha 90.000000
_cell_angle_beta 90.000000
_cell_angle_gamma 90.000000
_cell_volume 4140.336922
_symmetry_space_group_name_H-M "C M M A"
_symmetry_group_IT_number 67
_symmetry_cell_setting 'orthorhombic'
loop_
_space_group_symop_operation_xyz
x,y,z
-x,1/2-y,z
x,-y,-z
-x,1/2+y,-z
-x,-y,-z
x,1/2+y,-z
-x,y,z
x,1/2-y,z
1/2+x,1/2+y,z
1/2-x,-y,z
1/2+x,1/2-y,-z
1/2-x,y,-z
1/2-x,1/2-y,-z
1/2+x,y,-z
1/2-x,1/2+y,z
1/2+x,-y,z
loop_
_atom_site_type_symbol
_atom_site_label
_atom_site_fract_x
_atom_site_fract_y
_atom_site_fract_z
Si Si1 0.596371 0.901545 0.665662
Si Si2 0.173484 0.250000 0.930882
Si Si3 0.407184 0.998480 0.876859
Si Si4 0.363848 0.250000 0.948032
Si Si5 0.902277 0.902733 0.758954
Si Si6 0.332891 0.914966 0.548836
O O1 0.500000 0.904109 0.667101
O O2 0.623048 0.750000 0.679320
O O3 0.622665 0.929559 0.605142
O O4 0.626216 0.004906 0.710286
O O5 0.147348 0.380171 0.898410
O O6 0.268257 0.250000 0.939253
O O7 0.127986 0.250000 0.988071
O O8 0.500000 0.955003 0.873734
O O9 0.400021 0.120959 0.918522
O O10 0.381153 0.044951 0.817835
O O11 0.874592 0.750000 0.752265
O O12 0.000000 0.901902 0.757735
O O13 0.324684 0.750000 0.538882
O O14 0.372790 0.000000 0.500000
O O15 0.250000 0.000000 0.555135
#
# Coordination Sequence:
#
# PCOD9502853 Si02
#       6
#    16   8  16   8  16  16
#     4   9  19  35  57  83 111 144 184 229 276 330
#     4  11  25  39  59  85 117 153 190 229 300 351
#     4  11  22  38  62  89 113 146 196 244 284 341
#     4  11  23  43  59  79 119 159 184 233 292 359
#     4   9  18  34  56  82 111 143 180 227 282 330
#     4  10  20  35  55  79 111 150 188 229 277 325
#
# _framework density 19.322099000000001
#
# number of rings (size 3 to 8) (size 9 to 14) (size 15 to 20)
#    0.000    2.000    1.000    3.000    1.400    6.000 
#    0.000    2.000    0.000    0.000    0.000    0.000 
#    0.000    0.000    0.000    0.000    0.000    0.000 
#
# Total GULP energy -223132.207963 kJ/mol
# GULP energy per Si atom -5578.305199 kJ/mol
# Density = 1.927812 g / cm^3
# Si number density = 19.322099 Si / 1000 Ang^3
#
#
#
# Elastic Constant Matrix: (Units=GPa)
#
#
# Indices 1 2 3 4 5 6 
#
# 1 14.6245 14.8822 14.9954 0.0000 0.0000 0.0000
# 2 14.8822 149.7103 91.9307 0.0000 0.0000 0.0000
# 3 14.9954 91.9307 168.2878 0.0000 0.0000 0.0000
# 4 0.0000 0.0000 0.0000 36.5818 0.0000 0.0000
# 5 0.0000 0.0000 0.0000 0.0000 125.8291 0.0000
# 6 0.0000 0.0000 0.0000 0.0000 0.0000 25.2297
#
#
#
# Elastic Compliance Matrix: (Units=1/GPa)
#
#
# Indices 1 2 3 4 5 6 
#
# 1 0.077891 -0.005238 -0.004079 0.000000 0.000000 0.000000
# 2 -0.005238 0.010403 -0.005216 0.000000 0.000000 0.000000
# 3 -0.004079 -0.005216 0.009155 0.000000 0.000000 0.000000
# 4 0.000000 0.000000 0.000000 0.027336 0.000000 0.000000
# 5 0.000000 0.000000 0.000000 0.000000 0.007947 0.000000
# 6 0.000000 0.000000 0.000000 0.000000 0.000000 0.039636
#
#
# Mechanical properties :
#
#
# Convention : Reuss Voigt Hill
#
# Bulk Modulus (GPa) = 14.62360 64.02657 39.32508
# Shear Modulus (GPa) = 22.29853 51.58240 36.94047
#
# Velocity S-wave (km/s) = 3.40081 5.17243 4.37719
# Velocity P-wave (km/s) = 4.79639 8.29942 6.77812
#
# Compressibility (1/GPa) = 0.06838263
#
# Stress axis : x y z
#
# Youngs Moduli (GPa) = 12.83845 96.12249 109.22749
#
# Poissons Ratio (x) = 0.50349 0.44555
# Poissons Ratio (y) = 0.06725 0.56977
# Poissons Ratio (z) = 0.05237 0.50141
#
# Static dielectric constant tensor:
#      x y z
#    x 1.692750 0.000000 0.000000 
#    y 0.000000 1.646120 0.000000 
#    z 0.000000 0.000000 1.664790 
# 
# From -- ./inp_files/44455.got.cif
#   From: 2010.05.17/outbox.cif.g08.bks.cpg/sg67_23_cif.got.tgz:44455.got - 2010.06.03 18:28:57.
