data_PCOD9502088
_publ_section_title
;
Structure prediction by ZEFSAII (Michael W. Deem and Ramdas Pophale) SiO2 
 PCOD9502088
Probable space group: C M M A
;
_chemical_formula_sum "Si O2"
_cell_formula_units_Z 104
_cell_length_a 27.724416
_cell_length_b 8.964959
_cell_length_c 24.897589
_cell_angle_alpha 90.000000
_cell_angle_beta 90.000000
_cell_angle_gamma 90.000000
_cell_volume 6188.252243
_symmetry_space_group_name_H-M "C M M A"
_symmetry_group_IT_number 67
_symmetry_cell_setting 'orthorhombic'
loop_
_space_group_symop_operation_xyz
x,y,z
-x,1/2-y,z
x,-y,-z
-x,1/2+y,-z
-x,-y,-z
x,1/2+y,-z
-x,y,z
x,1/2-y,z
1/2+x,1/2+y,z
1/2-x,-y,z
1/2+x,1/2-y,-z
1/2-x,y,-z
1/2-x,1/2-y,-z
1/2+x,y,-z
1/2-x,1/2+y,z
1/2+x,-y,z
loop_
_atom_site_type_symbol
_atom_site_label
_atom_site_fract_x
_atom_site_fract_y
_atom_site_fract_z
Si Si1 0.000000 0.570439 0.558900
Si Si2 0.097076 0.424007 0.266133
Si Si3 0.298914 0.071629 0.392398
Si Si4 0.441152 0.078080 0.944757
Si Si5 0.407327 0.070444 0.383416
Si Si6 0.705465 0.075998 0.725334
Si Si7 0.442454 0.417744 0.163543
O O1 0.000000 0.500000 0.500000
O O2 0.048224 0.509710 0.587770
O O3 0.000000 0.750000 0.557775
O O4 0.085966 0.250000 0.276487
O O5 0.091630 0.514584 0.321569
O O6 0.153167 0.434539 0.248951
O O7 0.067399 0.489322 0.217085
O O8 0.294158 0.250000 0.394327
O O9 0.354250 0.033752 0.409117
O O10 0.250000 0.000000 0.417491
O O11 0.298684 0.011929 0.331094
O O12 0.500000 0.075160 0.944488
O O13 0.426422 0.250000 0.943826
O O14 0.424329 0.995054 0.890924
O O15 0.425832 0.000000 0.000000
O O16 0.412594 0.250000 0.385091
O O17 0.715389 0.250000 0.714495
O O18 0.750000 0.000000 0.755274
O O19 0.500000 0.408134 0.157592
O O20 0.423101 0.250000 0.169403
#
# Coordination Sequence:
#
# PCOD9502088 Si02
#       7
#     8  16  16  16  16  16  16
#     4  12  26  44  64  82 102 134 173 216 255 294
#     4  10  20  32  47  71 101 132 165 201 245 295
#     4   9  16  27  48  76 105 134 163 200 245 295
#     4   9  16  27  43  61  83 115 157 202 244 289
#     4  10  21  37  56  79 106 137 172 209 252 302
#     4   9  16  26  42  64  92 125 160 196 236 287
#     4  10  20  31  43  62  91 128 165 203 246 289
#
# _framework density 16.806037
#
# number of rings (size 3 to 8) (size 9 to 14) (size 15 to 20)
#    0.000    2.308    0.000    4.385    1.077    6.462 
#    0.000    0.000    0.000    0.462    0.000    3.231 
#    0.000    0.615    0.000    6.462    0.000    3.846 
#
# Total GULP energy -289591.106904 kJ/mol
# GULP energy per Si atom -5569.059748 kJ/mol
# Density = 1.676779 g / cm^3
# Si number density = 16.806037 Si / 1000 Ang^3
#
#
#
# Elastic Constant Matrix: (Units=GPa)
#
#
# Indices 1 2 3 4 5 6 
#
# 1 87.7264 53.0899 37.9214 0.0000 0.0000 0.0000
# 2 53.0899 113.8188 32.9047 0.0000 0.0000 0.0000
# 3 37.9214 32.9047 65.3627 0.0000 0.0000 0.0000
# 4 0.0000 0.0000 0.0000 21.1639 0.0000 0.0000
# 5 0.0000 0.0000 0.0000 0.0000 -6.6795 0.0000
# 6 0.0000 0.0000 0.0000 0.0000 0.0000 24.0052
#
#
#
# Elastic Compliance Matrix: (Units=1/GPa)
#
#
# Indices 1 2 3 4 5 6 
#
# 1 0.018574 -0.006493 -0.007507 0.000000 0.000000 0.000000
# 2 -0.006493 0.012552 -0.002552 0.000000 0.000000 0.000000
# 3 -0.007507 -0.002552 0.020939 0.000000 0.000000 0.000000
# 4 0.000000 0.000000 0.000000 0.047250 0.000000 0.000000
# 5 0.000000 0.000000 0.000000 0.000000 -0.149712 0.000000
# 6 0.000000 0.000000 0.000000 0.000000 0.000000 0.041658
#
#
# Mechanical properties :
#
#
# Convention : Reuss Voigt Hill
#
# Bulk Modulus (GPa) = 52.74009 57.19334 54.96671
# Shear Modulus (GPa) = 162.93821 17.23071 90.08446
#
# Velocity S-wave (km/s) = 9.85711 3.20546 7.32931
# Velocity P-wave (km/s) = 12.68858 6.91413 10.21776
#
# Compressibility (1/GPa) = 0.01896091
#
# Stress axis : x y z
#
# Youngs Moduli (GPa) = 53.83940 79.66606 47.75712
#
# Poissons Ratio (x) = 0.51730 0.35852
# Poissons Ratio (y) = 0.34960 0.12187
# Poissons Ratio (z) = 0.40418 0.20330
#
# Static dielectric constant tensor:
#      x y z
#    x 1.629340 0.000000 0.000000 
#    y 0.000000 1.583880 0.000000 
#    z 0.000000 0.000000 1.539430 
# 
# From -- ./inp_files/42774.got.cif
#   From: 2010.05.17/outbox.cif.g08.bks.cpg/sg67_22_cif.got.tgz:42774.got - 2010.06.03 18:28:57.
