data_PCOD9502366
_publ_section_title
;
Structure prediction by ZEFSAII (Michael W. Deem and Ramdas Pophale) SiO2 
 PCOD9502366
Probable space group: C M M A
;
_chemical_formula_sum "Si O2"
_cell_formula_units_Z 80
_cell_length_a 19.145376
_cell_length_b 8.790463
_cell_length_c 26.709286
_cell_angle_alpha 90.000000
_cell_angle_beta 90.000000
_cell_angle_gamma 90.000000
_cell_volume 4495.085210
_symmetry_space_group_name_H-M "C M M A"
_symmetry_group_IT_number 67
_symmetry_cell_setting 'orthorhombic'
loop_
_space_group_symop_operation_xyz
x,y,z
-x,1/2-y,z
x,-y,-z
-x,1/2+y,-z
-x,-y,-z
x,1/2+y,-z
-x,y,z
x,1/2-y,z
1/2+x,1/2+y,z
1/2-x,-y,z
1/2+x,1/2-y,-z
1/2-x,y,-z
1/2-x,1/2-y,-z
1/2+x,y,-z
1/2-x,1/2+y,z
1/2+x,-y,z
loop_
_atom_site_type_symbol
_atom_site_label
_atom_site_fract_x
_atom_site_fract_y
_atom_site_fract_z
Si Si1 0.671907 0.567591 0.338914
Si Si2 0.828399 0.431685 0.449936
Si Si3 0.916641 0.430036 0.141858
Si Si4 0.172594 0.568313 0.052886
Si Si5 0.917219 0.569090 0.249047
O O1 0.675752 0.750000 0.334596
O O2 0.750000 0.500000 0.335478
O O3 0.642463 0.531914 0.394764
O O4 0.625173 0.499358 0.295145
O O5 0.862714 0.500000 0.500000
O O6 0.824422 0.250000 0.455000
O O7 0.750000 0.500000 0.448583
O O8 0.902598 0.250000 0.138829
O O9 0.876071 0.516300 0.098229
O O10 0.896195 0.492581 0.196500
O O11 0.000000 0.453622 0.136557
O O12 0.176530 0.750000 0.049520
O O13 0.250000 0.500000 0.060709
O O14 0.146881 0.500000 0.000000
O O15 0.906306 0.750000 0.245958
O O16 0.000000 0.540778 0.255875
#
# Coordination Sequence:
#
# PCOD9502366 Si02
#       5
#    16  16  16  16  16
#     4  10  20  33  51  77 106 136 173 216 261 310
#     4   9  16  26  43  68  98 131 166 207 255 306
#     4  10  21  38  59  82 108 139 177 219 262 310
#     4  11  22  38  59  83 113 145 179 217 261 312
#     4  10  21  37  56  78 105 138 175 216 264 315
#
# _framework density 17.797215999999999
#
# number of rings (size 3 to 8) (size 9 to 14) (size 15 to 20)
#    0.000    2.000    0.000    5.400    0.000    6.000 
#    0.000    4.000    0.000    0.600    0.000    0.000 
#    0.000    0.000    0.000    0.000    0.000    0.000 
#
# Total GULP energy -223229.072898 kJ/mol
# GULP energy per Si atom -5580.726822 kJ/mol
# Density = 1.775671 g / cm^3
# Si number density = 17.797216 Si / 1000 Ang^3
#
#
#
# Elastic Constant Matrix: (Units=GPa)
#
#
# Indices 1 2 3 4 5 6 
#
# 1 31.0532 45.3802 63.2791 0.0000 0.0000 0.0000
# 2 45.3802 122.6888 95.2775 0.0000 0.0000 0.0000
# 3 63.2791 95.2775 200.8536 0.0000 0.0000 0.0000
# 4 0.0000 0.0000 0.0000 38.7541 0.0000 0.0000
# 5 0.0000 0.0000 0.0000 0.0000 128.3460 0.0000
# 6 0.0000 0.0000 0.0000 0.0000 0.0000 24.5197
#
#
#
# Elastic Compliance Matrix: (Units=1/GPa)
#
#
# Indices 1 2 3 4 5 6 
#
# 1 0.123895 -0.024562 -0.027382 0.000000 0.000000 0.000000
# 2 -0.024562 0.017774 -0.000693 0.000000 0.000000 0.000000
# 3 -0.027382 -0.000693 0.013934 0.000000 0.000000 0.000000
# 4 0.000000 0.000000 0.000000 0.025804 0.000000 0.000000
# 5 0.000000 0.000000 0.000000 0.000000 0.007791 0.000000
# 6 0.000000 0.000000 0.000000 0.000000 0.000000 0.040784
#
#
# Mechanical properties :
#
#
# Convention : Reuss Voigt Hill
#
# Bulk Modulus (GPa) = 19.86927 84.71877 52.29402
# Shear Modulus (GPa) = 14.20329 48.36788 31.28558
#
# Velocity S-wave (km/s) = 2.82806 5.21883 4.19727
# Velocity P-wave (km/s) = 4.67466 9.16627 7.27575
#
# Compressibility (1/GPa) = 0.05032897
#
# Stress axis : x y z
#
# Youngs Moduli (GPa) = 8.07138 56.26233 71.76641
#
# Poissons Ratio (x) = 1.38192 1.96509
# Poissons Ratio (y) = 0.19825 0.04973
# Poissons Ratio (z) = 0.22101 0.03899
#
# Static dielectric constant tensor:
#      x y z
#    x 1.577950 0.000000 0.000000 
#    y 0.000000 1.592300 0.000000 
#    z 0.000000 0.000000 1.624550 
# 
# From -- ./inp_files/43270.got.cif
#   From: 2010.05.17/outbox.cif.g08.bks.cpg/sg67_22_cif.got.tgz:43270.got - 2010.06.03 18:28:57.
