data_PCOD9502652
_publ_section_title
;
Structure prediction by ZEFSAII (Michael W. Deem and Ramdas Pophale) SiO2 
 PCOD9502652
Probable space group: C M M A
;
_chemical_formula_sum "Si O2"
_cell_formula_units_Z 112
_cell_length_a 14.529894
_cell_length_b 23.871406
_cell_length_c 16.463518
_cell_angle_alpha 90.000000
_cell_angle_beta 90.000000
_cell_angle_gamma 90.000000
_cell_volume 5710.354735
_symmetry_space_group_name_H-M "C M M A"
_symmetry_group_IT_number 67
_symmetry_cell_setting 'orthorhombic'
loop_
_space_group_symop_operation_xyz
x,y,z
-x,1/2-y,z
x,-y,-z
-x,1/2+y,-z
-x,-y,-z
x,1/2+y,-z
-x,y,z
x,1/2-y,z
1/2+x,1/2+y,z
1/2-x,-y,z
1/2+x,1/2-y,-z
1/2-x,y,-z
1/2-x,1/2-y,-z
1/2+x,y,-z
1/2-x,1/2+y,z
1/2+x,-y,z
loop_
_atom_site_type_symbol
_atom_site_label
_atom_site_fract_x
_atom_site_fract_y
_atom_site_fract_z
Si Si1 0.104992 0.585032 0.276435
Si Si2 0.603550 0.009794 0.833825
Si Si3 0.145141 0.086299 0.021137
Si Si4 0.188971 0.686449 0.863259
Si Si5 0.099740 0.157716 0.875503
Si Si6 0.254336 0.567907 0.404493
Si Si7 0.107300 0.118853 0.280481
O O1 0.153773 0.538998 0.216163
O O2 0.100286 0.638097 0.217772
O O3 0.166852 0.590691 0.354948
O O4 0.000000 0.569572 0.300345
O O5 0.500000 0.988370 0.836751
O O6 0.621325 0.033557 0.922993
O O7 0.607690 0.064007 0.776818
O O8 0.139074 0.142271 0.077059
O O9 0.250000 0.077554 0.000000
O O10 0.099740 0.104103 0.936627
O O11 0.157363 0.750000 0.874129
O O12 0.298580 0.684225 0.885016
O O13 0.164440 0.664417 0.772488
O O14 0.000000 0.185903 0.890559
O O15 0.250000 0.500000 0.394510
O O16 0.250000 0.579511 0.500000
O O17 0.341620 0.597531 0.361463
O O18 0.000000 0.135311 0.292099
#
# Coordination Sequence:
#
# PCOD9502652 Si02
#       7
#    16  16  16  16  16  16  16
#     4  10  20  35  55  79 113 152 188 224 267 329
#     4   9  17  31  51  73 107 150 186 223 263 312
#     4   9  19  32  48  76 111 152 191 235 276 321
#     4  10  21  38  58  80 108 144 191 243 289 332
#     4  10  20  34  54  80 113 152 192 234 279 334
#     4  11  22  35  58  89 120 149 179 217 269 335
#     4  10  20  37  58  81 111 147 186 227 275 329
#
# _framework density 19.613493999999999
#
# number of rings (size 3 to 8) (size 9 to 14) (size 15 to 20)
#    0.000    2.143    2.857    0.429    0.000    4.857 
#    0.000    5.714    0.000    0.429    0.000    0.000 
#    0.000    0.000    0.000    0.000    0.000    0.000 
#
# Total GULP energy -311982.080166 kJ/mol
# GULP energy per Si atom -5571.108574 kJ/mol
# Density = 1.956885 g / cm^3
# Si number density = 19.613494 Si / 1000 Ang^3
#
#
#
# Elastic Constant Matrix: (Units=GPa)
#
#
# Indices 1 2 3 4 5 6 
#
# 1 94.8862 3.2988 36.8357 0.0000 0.0000 0.0000
# 2 3.2988 29.2533 8.5865 0.0000 0.0000 0.0000
# 3 36.8357 8.5865 140.0633 0.0000 0.0000 0.0000
# 4 0.0000 0.0000 0.0000 5.7515 0.0000 0.0000
# 5 0.0000 0.0000 0.0000 0.0000 -0.7620 0.0000
# 6 0.0000 0.0000 0.0000 0.0000 0.0000 41.0247
#
#
#
# Elastic Compliance Matrix: (Units=1/GPa)
#
#
# Indices 1 2 3 4 5 6 
#
# 1 0.011742 -0.000425 -0.003062 0.000000 0.000000 0.000000
# 2 -0.000425 0.034826 -0.002023 0.000000 0.000000 0.000000
# 3 -0.003062 -0.002023 0.008069 0.000000 0.000000 0.000000
# 4 0.000000 0.000000 0.000000 0.173869 0.000000 0.000000
# 5 0.000000 0.000000 0.000000 0.000000 -1.312329 0.000000
# 6 0.000000 0.000000 0.000000 0.000000 0.000000 0.024376
#
#
# Mechanical properties :
#
#
# Convention : Reuss Voigt Hill
#
# Bulk Modulus (GPa) = 22.92728 40.18277 31.55503
# Shear Modulus (GPa) = -4.83612 23.56828 9.36608
#
# Velocity S-wave (km/s) = -1.57196 3.47022 2.18762
# Velocity P-wave (km/s) = 2.90175 6.04883 4.74387
#
# Compressibility (1/GPa) = 0.04361617
#
# Stress axis : x y z
#
# Youngs Moduli (GPa) = 85.16100 28.71423 123.93155
#
# Poissons Ratio (x) = 0.01221 0.37949
# Poissons Ratio (y) = 0.03622 0.25073
# Poissons Ratio (z) = 0.26077 0.05809
#
# Static dielectric constant tensor:
#      x y z
#    x 1.754020 0.000000 0.000000 
#    y 0.000000 1.729110 0.000000 
#    z 0.000000 0.000000 1.753950 
# 
# From -- ./inp_files/27672.got.cif
#   From: 2010.05.17/outbox.cif.g08.bks.cpg/sg67_14_cif.got.tgz:27672.got - 2010.06.03 18:28:57.
