data_PCOD9502663
_publ_section_title
;
Structure prediction by ZEFSAII (Michael W. Deem and Ramdas Pophale) SiO2 
 PCOD9502663
Probable space group: C M M A
;
_chemical_formula_sum "Si O2"
_cell_formula_units_Z 88
_cell_length_a 9.107840
_cell_length_b 20.791531
_cell_length_c 24.892867
_cell_angle_alpha 90.000000
_cell_angle_beta 90.000000
_cell_angle_gamma 90.000000
_cell_volume 4713.861102
_symmetry_space_group_name_H-M "C M M A"
_symmetry_group_IT_number 67
_symmetry_cell_setting 'orthorhombic'
loop_
_space_group_symop_operation_xyz
x,y,z
-x,1/2-y,z
x,-y,-z
-x,1/2+y,-z
-x,-y,-z
x,1/2+y,-z
-x,y,z
x,1/2-y,z
1/2+x,1/2+y,z
1/2-x,-y,z
1/2+x,1/2-y,-z
1/2-x,y,-z
1/2-x,1/2-y,-z
1/2+x,y,-z
1/2-x,1/2+y,z
1/2+x,-y,z
loop_
_atom_site_type_symbol
_atom_site_label
_atom_site_fract_x
_atom_site_fract_y
_atom_site_fract_z
Si Si1 0.325348 0.824760 0.259347
Si Si2 0.666531 0.605883 0.556173
Si Si3 0.176515 0.932877 0.057633
Si Si4 0.673238 0.176282 0.145249
Si Si5 0.696772 0.750000 0.545145
Si Si6 0.677351 0.065001 0.328518
O O1 0.500000 0.835813 0.263250
O O2 0.296645 0.750000 0.274004
O O3 0.269807 0.833532 0.198314
O O4 0.237628 0.873932 0.296447
O O5 0.500000 0.584537 0.547647
O O6 0.643275 0.750000 0.482314
O O7 0.750000 0.598121 0.500000
O O8 0.664032 0.682539 0.570605
O O9 0.205279 0.875860 0.099616
O O10 0.000000 0.940372 0.051987
O O11 0.250000 0.000000 0.075941
O O12 0.250000 0.918522 0.000000
O O13 0.500000 0.170148 0.159565
O O14 0.696060 0.250000 0.126499
O O15 0.726115 0.927764 0.609173
O O16 0.500000 0.062711 0.326663
O O17 0.750000 0.000000 0.306481
#
# Coordination Sequence:
#
# PCOD9502663 Si02
#       6
#    16  16  16  16   8  16
#     4  10  22  40  62  88 115 146 188 238 289 342
#     4   9  19  34  55  80 108 143 181 224 275 333
#     4  10  20  34  54  81 115 154 194 234 279 331
#     4   9  19  37  59  83 112 149 192 235 283 338
#     4   8  14  28  48  74 102 128 168 212 255 312
#     4  11  24  40  59  83 114 151 189 233 283 341
#
# _framework density 18.668348000000002
#
# number of rings (size 3 to 8) (size 9 to 14) (size 15 to 20)
#    0.000    2.364    0.000    2.182    1.273    5.455 
#    0.000    3.636    0.000    0.000    0.000    0.000 
#    0.000    0.000    0.000    0.000    0.000    0.000 
#
# Total GULP energy -244971.306376 kJ/mol
# GULP energy per Si atom -5567.529690 kJ/mol
# Density = 1.862586 g / cm^3
# Si number density = 18.668348 Si / 1000 Ang^3
#
#
#
# Elastic Constant Matrix: (Units=GPa)
#
#
# Indices 1 2 3 4 5 6 
#
# 1 86.8982 59.6386 49.2912 0.0000 0.0000 0.0000
# 2 59.6386 118.6180 77.3690 0.0000 0.0000 0.0000
# 3 49.2912 77.3690 83.0738 0.0000 0.0000 0.0000
# 4 0.0000 0.0000 0.0000 84.0226 0.0000 0.0000
# 5 0.0000 0.0000 0.0000 0.0000 28.6178 0.0000
# 6 0.0000 0.0000 0.0000 0.0000 0.0000 23.1390
#
#
#
# Elastic Compliance Matrix: (Units=1/GPa)
#
#
# Indices 1 2 3 4 5 6 
#
# 1 0.018656 -0.005502 -0.005945 0.000000 0.000000 0.000000
# 2 -0.005502 0.023099 -0.018249 0.000000 0.000000 0.000000
# 3 -0.005945 -0.018249 0.032560 0.000000 0.000000 0.000000
# 4 0.000000 0.000000 0.000000 0.011902 0.000000 0.000000
# 5 0.000000 0.000000 0.000000 0.000000 0.034943 0.000000
# 6 0.000000 0.000000 0.000000 0.000000 0.000000 0.043217
#
#
# Mechanical properties :
#
#
# Convention : Reuss Voigt Hill
#
# Bulk Modulus (GPa) = 67.00483 73.46529 70.23506
# Shear Modulus (GPa) = 21.85846 33.97529 27.91687
#
# Velocity S-wave (km/s) = 3.42553 4.27070 3.87125
# Velocity P-wave (km/s) = 7.18441 7.98479 7.59515
#
# Compressibility (1/GPa) = 0.01492430
#
# Stress axis : x y z
#
# Youngs Moduli (GPa) = 53.60159 43.29106 30.71215
#
# Poissons Ratio (x) = 0.23819 0.18259
# Poissons Ratio (y) = 0.29492 0.56045
# Poissons Ratio (z) = 0.31867 0.79000
#
# Static dielectric constant tensor:
#      x y z
#    x 1.633690 0.000000 0.000000 
#    y 0.000000 1.668960 0.000000 
#    z 0.000000 0.000000 1.613640 
# 
# From -- ./inp_files/45216.got.cif
#   From: 2010.05.17/outbox.cif.g08.bks.cpg/sg67_23_cif.got.tgz:45216.got - 2010.06.03 18:28:57.
