data_PCOD9502240
_publ_section_title
;
Structure prediction by ZEFSAII (Michael W. Deem and Ramdas Pophale) SiO2 
 PCOD9502240
Probable space group: C M M A
;
_chemical_formula_sum "Si O2"
_cell_formula_units_Z 84
_cell_length_a 26.488405
_cell_length_b 14.236521
_cell_length_c 11.198421
_cell_angle_alpha 90.000000
_cell_angle_beta 90.000000
_cell_angle_gamma 90.000000
_cell_volume 4222.955176
_symmetry_space_group_name_H-M "C M M A"
_symmetry_group_IT_number 67
_symmetry_cell_setting 'orthorhombic'
loop_
_space_group_symop_operation_xyz
x,y,z
-x,1/2-y,z
x,-y,-z
-x,1/2+y,-z
-x,-y,-z
x,1/2+y,-z
-x,y,z
x,1/2-y,z
1/2+x,1/2+y,z
1/2-x,-y,z
1/2+x,1/2-y,-z
1/2-x,y,-z
1/2-x,1/2-y,-z
1/2+x,y,-z
1/2-x,1/2+y,z
1/2+x,-y,z
loop_
_atom_site_type_symbol
_atom_site_label
_atom_site_fract_x
_atom_site_fract_y
_atom_site_fract_z
Si Si1 0.164578 0.250000 0.845159
Si Si2 0.694305 0.037365 0.138347
Si Si3 0.500000 0.539402 0.135895
Si Si4 0.555955 0.889937 0.477331
Si Si5 0.397230 0.572032 0.240672
Si Si6 0.000000 0.250000 0.057471
Si Si7 0.106451 0.750000 0.929195
Si Si8 0.560306 0.750000 0.692059
O O1 0.191888 0.350842 0.833767
O O2 0.110365 0.250000 0.775163
O O3 0.152524 0.250000 0.984786
O O4 0.750000 0.000000 0.165291
O O5 0.651111 0.991857 0.220667
O O6 0.683789 0.000000 0.000000
O O7 0.448395 0.514876 0.203992
O O8 0.500000 0.653204 0.130569
O O9 0.500000 0.500000 0.000000
O O10 0.500000 0.859693 0.435186
O O11 0.594856 0.880855 0.369392
O O12 0.565689 0.837244 0.600308
O O13 0.554515 0.000000 0.500000
O O14 0.393019 0.657108 0.148231
O O15 0.053913 0.250000 0.995454
O O16 0.500000 0.750000 0.734574
#
# Coordination Sequence:
#
# PCOD9502240 Si02
#       8
#     8  16   8  16  16   4   8   8
#     4  12  24  44  64  94 135 160 222 271 322 395
#     4  11  25  43  65  93 131 172 216 269 331 395
#     4  10  20  32  53  84 125 159 200 268 326 383
#     4  10  20  37  58  86 124 173 223 257 311 382
#     4  11  20  39  59  91 124 167 219 270 323 385
#     4   8  20  32  42  78 122 152 194 228 318 384
#     4  10  21  33  59  87 122 162 200 264 324 388
#     4  10  23  41  64  98 138 181 209 266 332 391
#
# _framework density 19.891283000000001
#
# number of rings (size 3 to 8) (size 9 to 14) (size 15 to 20)
#    0.000    1.524    2.857    2.286    3.333    2.286 
#    1.714    0.000    0.000    6.286    0.000    0.000 
#    0.000    0.000    0.000    0.000    0.000    0.000 
#
# Total GULP energy -234070.577894 kJ/mol
# GULP energy per Si atom -5573.108997 kJ/mol
# Density = 1.984601 g / cm^3
# Si number density = 19.891283 Si / 1000 Ang^3
#
#
#
# Elastic Constant Matrix: (Units=GPa)
#
#
# Indices 1 2 3 4 5 6 
#
# 1 123.3468 59.6116 35.1667 0.0000 0.0000 0.0000
# 2 59.6116 141.0876 30.5298 0.0000 0.0000 0.0000
# 3 35.1667 30.5298 65.0272 0.0000 0.0000 0.0000
# 4 0.0000 0.0000 0.0000 -58.3099 0.0000 0.0000
# 5 0.0000 0.0000 0.0000 0.0000 14.4016 0.0000
# 6 0.0000 0.0000 0.0000 0.0000 0.0000 26.1029
#
#
#
# Elastic Compliance Matrix: (Units=1/GPa)
#
#
# Indices 1 2 3 4 5 6 
#
# 1 0.011152 -0.003792 -0.004251 0.000000 0.000000 0.000000
# 2 -0.003792 0.009179 -0.002259 0.000000 0.000000 0.000000
# 3 -0.004251 -0.002259 0.018737 0.000000 0.000000 0.000000
# 4 0.000000 0.000000 0.000000 -0.017150 0.000000 0.000000
# 5 0.000000 0.000000 0.000000 0.000000 0.069437 0.000000
# 6 0.000000 0.000000 0.000000 0.000000 0.000000 0.038310
#
#
# Mechanical properties :
#
#
# Convention : Reuss Voigt Hill
#
# Bulk Modulus (GPa) = 54.15537 64.45309 59.30423
# Shear Modulus (GPa) = 31.96478 10.04915 21.00696
#
# Velocity S-wave (km/s) = 4.01306 2.25011 3.25328
# Velocity P-wave (km/s) = 6.98267 6.26288 6.63255
#
# Compressibility (1/GPa) = 0.01846539
#
# Stress axis : x y z
#
# Youngs Moduli (GPa) = 89.67272 108.94790 53.36956
#
# Poissons Ratio (x) = 0.41313 0.22685
# Poissons Ratio (y) = 0.34004 0.12054
# Poissons Ratio (z) = 0.38116 0.24607
#
# Static dielectric constant tensor:
#      x y z
#    x 1.718410 0.000000 0.000000 
#    y 0.000000 1.873710 0.000000 
#    z 0.000000 0.000000 1.726850 
# 
# From -- ./inp_files/21840.got.cif
#   From: 2010.05.17/outbox.cif.g08.bks.cpg/sg67_11_cif.got.tgz:21840.got - 2010.06.03 18:28:57.
