data_PCOD9502037
_publ_section_title
;
Structure prediction by ZEFSAII (Michael W. Deem and Ramdas Pophale) SiO2 
 PCOD9502037
Probable space group: C M M A
;
_chemical_formula_sum "Si O2"
_cell_formula_units_Z 64
_cell_length_a 17.023894
_cell_length_b 27.032437
_cell_length_c 7.524577
_cell_angle_alpha 90.000000
_cell_angle_beta 90.000000
_cell_angle_gamma 90.000000
_cell_volume 3462.790335
_symmetry_space_group_name_H-M "C M M A"
_symmetry_group_IT_number 67
_symmetry_cell_setting 'orthorhombic'
loop_
_space_group_symop_operation_xyz
x,y,z
-x,1/2-y,z
x,-y,-z
-x,1/2+y,-z
-x,-y,-z
x,1/2+y,-z
-x,y,z
x,1/2-y,z
1/2+x,1/2+y,z
1/2-x,-y,z
1/2+x,1/2-y,-z
1/2-x,y,-z
1/2-x,1/2-y,-z
1/2+x,y,-z
1/2-x,1/2+y,z
1/2+x,-y,z
loop_
_atom_site_type_symbol
_atom_site_label
_atom_site_fract_x
_atom_site_fract_y
_atom_site_fract_z
Si Si1 0.589877 0.866676 0.257465
Si Si2 0.827805 0.897329 0.400241
Si Si3 0.844184 0.443519 0.969242
Si Si4 0.241409 0.193566 0.212340
O O1 0.500000 0.852271 0.236004
O O2 0.607206 0.890272 0.449888
O O3 0.651838 0.821895 0.249647
O O4 0.614704 0.905827 0.105038
O O5 0.750000 0.918459 0.500000
O O6 0.856612 0.928910 0.234770
O O7 0.796456 0.845530 0.314836
O O8 0.867987 0.500000 0.000000
O O9 0.750000 0.439362 0.000000
O O10 0.258297 0.250000 0.262367
O O11 0.250000 0.188252 0.000000
#
# Coordination Sequence:
#
# PCOD9502037 Si02
#       4
#    16  16  16  16
#     4  11  23  38  58  88 122 153 190 237 294 346
#     4  10  19  38  59  87 113 150 197 238 285 336
#     4  11  21  39  62  86 114 155 201 239 282 341
#     4  10  19  38  65  86 111 152 199 238 282 344
#
# _framework density 18.482205
#
# number of rings (size 3 to 8) (size 9 to 14) (size 15 to 20)
#    0.000    1.500    7.500    0.000    0.000    7.500 
#    0.000    1.250    0.000    0.000    0.000    0.000 
#    0.000    0.000    0.000    0.000    0.000    0.000 
#
# Total GULP energy -178637.850609 kJ/mol
# GULP energy per Si atom -5582.432832 kJ/mol
# Density = 1.844014 g / cm^3
# Si number density = 18.482205 Si / 1000 Ang^3
#
#
#
# Elastic Constant Matrix: (Units=GPa)
#
#
# Indices 1 2 3 4 5 6 
#
# 1 53.9167 10.7067 12.1375 0.0000 0.0000 0.0000
# 2 10.7067 82.0431 38.4141 0.0000 0.0000 0.0000
# 3 12.1375 38.4141 142.1389 0.0000 0.0000 0.0000
# 4 0.0000 0.0000 0.0000 11.3296 0.0000 0.0000
# 5 0.0000 0.0000 0.0000 0.0000 13.6440 0.0000
# 6 0.0000 0.0000 0.0000 0.0000 0.0000 10.7232
#
#
#
# Elastic Compliance Matrix: (Units=1/GPa)
#
#
# Indices 1 2 3 4 5 6 
#
# 1 0.019190 -0.001989 -0.001101 0.000000 0.000000 0.000000
# 2 -0.001989 0.014161 -0.003657 0.000000 0.000000 0.000000
# 3 -0.001101 -0.003657 0.008118 0.000000 0.000000 0.000000
# 4 0.000000 0.000000 0.000000 0.088264 0.000000 0.000000
# 5 0.000000 0.000000 0.000000 0.000000 0.073292 0.000000
# 6 0.000000 0.000000 0.000000 0.000000 0.000000 0.093256
#
#
# Mechanical properties :
#
#
# Convention : Reuss Voigt Hill
#
# Bulk Modulus (GPa) = 35.74728 44.51282 40.13005
# Shear Modulus (GPa) = 15.66909 21.59539 18.63224
#
# Velocity S-wave (km/s) = 2.91485 3.42196 3.17853
# Velocity P-wave (km/s) = 5.54183 6.30472 5.93554
#
# Compressibility (1/GPa) = 0.02797416
#
# Stress axis : x y z
#
# Youngs Moduli (GPa) = 52.11061 70.61847 123.18628
#
# Poissons Ratio (x) = 0.14044 0.13565
# Poissons Ratio (y) = 0.10363 0.45052
# Poissons Ratio (z) = 0.05738 0.25827
#
# Static dielectric constant tensor:
#      x y z
#    x 1.632900 0.000000 0.000000 
#    y 0.000000 1.648560 0.000000 
#    z 0.000000 0.000000 1.665210 
# 
# From -- ./inp_files/9811.got.cif
#   From: 2010.05.17/outbox.cif.g08.bks.cpg/sg67_5_cif.got.tgz:9811.got - 2010.06.03 18:28:57.
