data_PCOD9502887
_publ_section_title
;
Structure prediction by ZEFSAII (Michael W. Deem and Ramdas Pophale) SiO2 
 PCOD9502887
Probable space group: C M M A
;
_chemical_formula_sum "Si O2"
_cell_formula_units_Z 80
_cell_length_a 26.645547
_cell_length_b 15.151316
_cell_length_c 9.439783
_cell_angle_alpha 90.000000
_cell_angle_beta 90.000000
_cell_angle_gamma 90.000000
_cell_volume 3810.982962
_symmetry_space_group_name_H-M "C M M A"
_symmetry_group_IT_number 67
_symmetry_cell_setting 'orthorhombic'
loop_
_space_group_symop_operation_xyz
x,y,z
-x,1/2-y,z
x,-y,-z
-x,1/2+y,-z
-x,-y,-z
x,1/2+y,-z
-x,y,z
x,1/2-y,z
1/2+x,1/2+y,z
1/2-x,-y,z
1/2+x,1/2-y,-z
1/2-x,y,-z
1/2-x,1/2-y,-z
1/2+x,y,-z
1/2-x,1/2+y,z
1/2+x,-y,z
loop_
_atom_site_type_symbol
_atom_site_label
_atom_site_fract_x
_atom_site_fract_y
_atom_site_fract_z
Si Si1 0.793155 0.647796 0.401227
Si Si2 0.000000 0.594755 0.573884
Si Si3 0.300321 0.642026 0.916428
Si Si4 0.000000 0.089679 0.087780
Si Si5 0.109017 0.098421 0.437060
Si Si6 0.610044 0.146481 0.883510
O O1 0.778349 0.750000 0.377671
O O2 0.750000 0.607280 0.500000
O O3 0.798712 0.608492 0.244632
O O4 0.845342 0.645223 0.484855
O O5 0.000000 0.500000 0.500000
O O6 0.000000 0.577753 0.742279
O O7 0.053303 0.638537 0.537990
O O8 0.302266 0.750000 0.913112
O O9 0.250000 0.617301 0.000000
O O10 0.349558 0.614173 0.002701
O O11 0.946859 0.136758 0.060295
O O12 0.000000 0.000000 0.000000
O O13 0.116174 0.098886 0.267692
O O14 0.108698 0.000000 0.500000
O O15 0.619355 0.250000 0.854720
#
# Coordination Sequence:
#
# PCOD9502887 Si02
#       6
#    16   8  16   8  16  16
#     4  10  20  35  56  80 108 146 192 242 296 352
#     4   8  18  35  52  75 106 144 179 218 277 341
#     4   9  18  33  54  80 108 142 187 238 291 345
#     4  10  21  35  56  83 113 150 191 234 284 337
#     4  10  20  35  56  81 111 146 187 236 291 351
#     4  10  20  36  58  84 116 154 197 241 289 353
#
# _framework density 20.991959999999999
#
# number of rings (size 3 to 8) (size 9 to 14) (size 15 to 20)
#    0.000    2.400    0.000    2.100    0.000    8.400 
#    0.000    1.500    0.000    6.600    0.000    1.400 
#    0.000    0.000    0.000    0.000    0.000    0.000 
#
# Total GULP energy -223194.422545 kJ/mol
# GULP energy per Si atom -5579.860564 kJ/mol
# Density = 2.094418 g / cm^3
# Si number density = 20.991960 Si / 1000 Ang^3
#
#
#
# Elastic Constant Matrix: (Units=GPa)
#
#
# Indices 1 2 3 4 5 6 
#
# 1 187.5686 1.0069 112.6034 0.0000 0.0000 0.0000
# 2 1.0069 48.5534 18.0954 0.0000 0.0000 0.0000
# 3 112.6034 18.0954 142.9933 0.0000 0.0000 0.0000
# 4 0.0000 0.0000 0.0000 26.6482 0.0000 0.0000
# 5 0.0000 0.0000 0.0000 0.0000 37.5468 0.0000
# 6 0.0000 0.0000 0.0000 0.0000 0.0000 -3.5206
#
#
#
# Elastic Compliance Matrix: (Units=1/GPa)
#
#
# Indices 1 2 3 4 5 6 
#
# 1 0.010515 0.003010 -0.008661 0.000000 0.000000 0.000000
# 2 0.003010 0.022477 -0.005214 0.000000 0.000000 0.000000
# 3 -0.008661 -0.005214 0.014473 0.000000 0.000000 0.000000
# 4 0.000000 0.000000 0.000000 0.037526 0.000000 0.000000
# 5 0.000000 0.000000 0.000000 0.000000 0.026633 0.000000
# 6 0.000000 0.000000 0.000000 0.000000 0.000000 -0.284043
#
#
# Mechanical properties :
#
#
# Convention : Reuss Voigt Hill
#
# Bulk Modulus (GPa) = 38.85957 71.39186 55.12572
# Shear Modulus (GPa) = -35.18395 28.62887 -3.27754
#
# Velocity S-wave (km/s) = -4.09842 3.69697 -1.25089
# Velocity P-wave (km/s) = 1.96068 7.23232 4.92251
#
# Compressibility (1/GPa) = 0.02573368
#
# Stress axis : x y z
#
# Youngs Moduli (GPa) = 95.10589 44.49028 69.09234
#
# Poissons Ratio (x) = -0.13390 0.59840
# Poissons Ratio (y) = -0.28624 0.36028
# Poissons Ratio (z) = 0.82370 0.23199
#
# Static dielectric constant tensor:
#      x y z
#    x 1.778220 0.000000 0.000000 
#    y 0.000000 1.778160 0.000000 
#    z 0.000000 0.000000 1.726800 
# 
# From -- ./inp_files/13568.got.cif
#   From: 2010.05.17/outbox.cif.g08.bks.cpg/sg67_7_cif.got.tgz:13568.got - 2010.06.03 18:28:57.
