data_PCOD9502356
_publ_section_title
;
Structure prediction by ZEFSAII (Michael W. Deem and Ramdas Pophale) SiO2 
 PCOD9502356
Probable space group: C M M A
;
_chemical_formula_sum "Si O2"
_cell_formula_units_Z 112
_cell_length_a 10.867773
_cell_length_b 16.178505
_cell_length_c 34.807400
_cell_angle_alpha 90.000000
_cell_angle_beta 90.000000
_cell_angle_gamma 90.000000
_cell_volume 6119.987430
_symmetry_space_group_name_H-M "C M M A"
_symmetry_group_IT_number 67
_symmetry_cell_setting 'orthorhombic'
loop_
_space_group_symop_operation_xyz
x,y,z
-x,1/2-y,z
x,-y,-z
-x,1/2+y,-z
-x,-y,-z
x,1/2+y,-z
-x,y,z
x,1/2-y,z
1/2+x,1/2+y,z
1/2-x,-y,z
1/2+x,1/2-y,-z
1/2-x,y,-z
1/2-x,1/2-y,-z
1/2+x,y,-z
1/2-x,1/2+y,z
1/2+x,-y,z
loop_
_atom_site_type_symbol
_atom_site_label
_atom_site_fract_x
_atom_site_fract_y
_atom_site_fract_z
Si Si1 0.356514 0.933484 0.762855
Si Si2 0.856245 0.934274 0.395386
Si Si3 0.365409 0.150880 0.475877
Si Si4 0.648077 0.842517 0.683377
Si Si5 0.635022 0.650868 0.844495
Si Si6 0.638090 0.650357 0.102895
Si Si7 0.868907 0.906484 0.982683
O O1 0.500000 0.963359 0.759451
O O2 0.323360 0.886938 0.723350
O O3 0.353976 0.875483 0.800262
O O4 0.250000 0.000000 0.768887
O O5 0.854354 0.871547 0.431138
O O6 0.820646 0.892317 0.354969
O O7 0.000000 0.963982 0.392465
O O8 0.750000 0.000000 0.403635
O O9 0.500000 0.120113 0.489368
O O10 0.365708 0.250000 0.479653
O O11 0.250000 0.117913 0.500000
O O12 0.500000 0.836416 0.682655
O O13 0.699772 0.750000 0.682353
O O14 0.500000 0.621208 0.858585
O O15 0.634956 0.750000 0.846387
O O16 0.751658 0.623133 0.869425
O O17 0.500000 0.638759 0.119331
O O18 0.650257 0.750000 0.095125
O O19 0.643200 0.600030 0.063101
O O20 0.000000 0.867866 0.993021
O O21 0.750000 0.863903 0.000000
O O22 0.871524 0.000000 0.000000
#
# Coordination Sequence:
#
# PCOD9502356 Si02
#       7
#    16  16  16  16  16  16  16
#     4  10  20  34  53  79 109 139 171 209 254 304
#     4  10  20  33  51  76 105 136 171 215 266 319
#     4   9  18  33  52  73  98 132 176 222 265 313
#     4   9  17  32  56  80 101 133 177 220 259 303
#     4   9  18  34  55  78 103 133 172 213 249 292
#     4   9  18  33  53  76 101 130 165 206 252 298
#     4   9  18  33  50  70  97 128 161 200 245 293
#
# _framework density 18.300692000000002
#
# number of rings (size 3 to 8) (size 9 to 14) (size 15 to 20)
#    0.000    2.714    0.000    1.286    0.000    5.714 
#    2.571    1.429    0.000    3.429    0.000    0.000 
#    0.000    0.000    0.000    0.000    0.000    0.000 
#
# Total GULP energy -311762.616831 kJ/mol
# GULP energy per Si atom -5567.189586 kJ/mol
# Density = 1.825904 g / cm^3
# Si number density = 18.300692 Si / 1000 Ang^3
#
#
#
# Elastic Constant Matrix: (Units=GPa)
#
#
# Indices 1 2 3 4 5 6 
#
# 1 148.3445 21.2211 65.0612 0.0000 0.0000 0.0000
# 2 21.2211 15.5154 6.1086 0.0000 0.0000 0.0000
# 3 65.0612 6.1086 89.6591 0.0000 0.0000 0.0000
# 4 0.0000 0.0000 0.0000 28.7005 0.0000 0.0000
# 5 0.0000 0.0000 0.0000 0.0000 27.0205 0.0000
# 6 0.0000 0.0000 0.0000 0.0000 0.0000 3.2724
#
#
#
# Elastic Compliance Matrix: (Units=1/GPa)
#
#
# Indices 1 2 3 4 5 6 
#
# 1 0.012126 -0.013483 -0.007881 0.000000 0.000000 0.000000
# 2 -0.013483 0.081220 0.004250 0.000000 0.000000 0.000000
# 3 -0.007881 0.004250 0.016582 0.000000 0.000000 0.000000
# 4 0.000000 0.000000 0.000000 0.034843 0.000000 0.000000
# 5 0.000000 0.000000 0.000000 0.000000 0.037009 0.000000
# 6 0.000000 0.000000 0.000000 0.000000 0.000000 0.305582
#
#
# Mechanical properties :
#
#
# Convention : Reuss Voigt Hill
#
# Bulk Modulus (GPa) = 13.20975 48.70009 30.95492
# Shear Modulus (GPa) = 9.14374 22.54056 15.84215
#
# Velocity S-wave (km/s) = 2.23769 3.51333 2.94540
# Velocity P-wave (km/s) = 3.72963 6.56710 5.34027
#
# Compressibility (1/GPa) = 0.07570167
#
# Stress axis : x y z
#
# Youngs Moduli (GPa) = 82.46624 12.31227 60.30462
#
# Poissons Ratio (x) = 0.16600 0.47525
# Poissons Ratio (y) = 1.11187 -0.25630
# Poissons Ratio (z) = 0.64990 -0.05233
#
# Static dielectric constant tensor:
#      x y z
#    x 1.732160 0.000000 0.000000 
#    y 0.000000 1.624770 0.000000 
#    z 0.000000 0.000000 1.644960 
# 
# From -- ./inp_files/45574.got.cif
#   From: 2010.05.17/outbox.cif.g08.bks.cpg/sg67_23_cif.got.tgz:45574.got - 2010.06.03 18:28:57.
