data_PCOD9502191
_publ_section_title
;
Structure prediction by ZEFSAII (Michael W. Deem and Ramdas Pophale) SiO2 
 PCOD9502191
Probable space group: C M M A
;
_chemical_formula_sum "Si O2"
_cell_formula_units_Z 96
_cell_length_a 8.743969
_cell_length_b 24.215293
_cell_length_c 26.644096
_cell_angle_alpha 90.000000
_cell_angle_beta 90.000000
_cell_angle_gamma 90.000000
_cell_volume 5641.561506
_symmetry_space_group_name_H-M "C M M A"
_symmetry_group_IT_number 67
_symmetry_cell_setting 'orthorhombic'
loop_
_space_group_symop_operation_xyz
x,y,z
-x,1/2-y,z
x,-y,-z
-x,1/2+y,-z
-x,-y,-z
x,1/2+y,-z
-x,y,z
x,1/2-y,z
1/2+x,1/2+y,z
1/2-x,-y,z
1/2+x,1/2-y,-z
1/2-x,y,-z
1/2-x,1/2-y,-z
1/2+x,y,-z
1/2-x,1/2+y,z
1/2+x,-y,z
loop_
_atom_site_type_symbol
_atom_site_label
_atom_site_fract_x
_atom_site_fract_y
_atom_site_fract_z
Si Si1 0.315678 0.869766 0.253587
Si Si2 0.815144 0.250000 0.292215
Si Si3 0.682964 0.061974 0.162000
Si Si4 0.684116 0.938891 0.351929
Si Si5 0.817056 0.250000 0.595391
Si Si6 0.184011 0.636140 0.553788
Si Si7 0.817292 0.562068 0.050405
O O1 0.500000 0.872845 0.249916
O O2 0.274463 0.805900 0.262826
O O3 0.244894 0.898236 0.204992
O O4 0.267992 0.903936 0.303124
O O5 0.738243 0.250000 0.346838
O O6 0.000000 0.250000 0.300010
O O7 0.500000 0.057703 0.165179
O O8 0.721880 0.083961 0.105881
O O9 0.750000 0.000000 0.167919
O O10 0.500000 0.941672 0.351189
O O11 0.728851 0.906401 0.402298
O O12 0.750000 0.000000 0.350304
O O13 0.750257 0.195692 0.568888
O O14 0.000000 0.250000 0.592585
O O15 0.250000 0.619539 0.500000
O O16 0.000000 0.639241 0.551907
O O17 0.750000 0.500000 0.051391
O O18 0.000000 0.559530 0.045763
O O19 0.750000 0.589220 0.000000
#
# Coordination Sequence:
#
# PCOD9502191 Si02
#       7
#    16   8  16  16   8  16  16
#     4  10  20  36  57  79 103 138 174 213 264 313
#     4  10  20  39  61  80 107 137 171 215 263 313
#     4  10  20  32  48  75 110 144 178 219 260 308
#     4  10  22  38  57  78 106 140 173 212 257 307
#     4  12  23  37  60  88 109 135 171 213 264 315
#     4  11  23  41  60  81 109 140 174 216 262 312
#     4   9  16  26  42  66  99 138 177 216 259 301
#
# _framework density 17.016566000000001
#
# number of rings (size 3 to 8) (size 9 to 14) (size 15 to 20)
#    0.000    1.833    1.667    3.500    0.000    6.333 
#    0.000    1.667    0.000    0.000    0.000    0.583 
#    0.000    0.000    0.000    0.000    0.000    0.000 
#
# Total GULP energy -267903.819848 kJ/mol
# GULP energy per Si atom -5581.329580 kJ/mol
# Density = 1.697784 g / cm^3
# Si number density = 17.016566 Si / 1000 Ang^3
#
#
#
# Elastic Constant Matrix: (Units=GPa)
#
#
# Indices 1 2 3 4 5 6 
#
# 1 47.5578 33.4393 53.8299 0.0000 0.0000 0.0000
# 2 33.4393 117.1312 79.1296 0.0000 0.0000 0.0000
# 3 53.8299 79.1296 193.0643 0.0000 0.0000 0.0000
# 4 0.0000 0.0000 0.0000 46.3997 0.0000 0.0000
# 5 0.0000 0.0000 0.0000 0.0000 37.8199 0.0000
# 6 0.0000 0.0000 0.0000 0.0000 0.0000 23.5396
#
#
#
# Elastic Compliance Matrix: (Units=1/GPa)
#
#
# Indices 1 2 3 4 5 6 
#
# 1 0.032236 -0.004330 -0.007213 0.000000 0.000000 0.000000
# 2 -0.004330 0.012388 -0.003870 0.000000 0.000000 0.000000
# 3 -0.007213 -0.003870 0.008777 0.000000 0.000000 0.000000
# 4 0.000000 0.000000 0.000000 0.021552 0.000000 0.000000
# 5 0.000000 0.000000 0.000000 0.000000 0.026441 0.000000
# 6 0.000000 0.000000 0.000000 0.000000 0.000000 0.042482
#
#
# Mechanical properties :
#
#
# Convention : Reuss Voigt Hill
#
# Bulk Modulus (GPa) = 44.29770 76.72788 60.51279
# Shear Modulus (GPa) = 27.43821 34.30880 30.87351
#
# Velocity S-wave (km/s) = 4.01988 4.49508 4.26411
# Velocity P-wave (km/s) = 6.90178 8.49288 7.73833
#
# Compressibility (1/GPa) = 0.02257454
#
# Stress axis : x y z
#
# Youngs Moduli (GPa) = 31.02100 80.72274 113.93305
#
# Poissons Ratio (x) = 0.34952 0.82185
# Poissons Ratio (y) = 0.13432 0.44094
# Poissons Ratio (z) = 0.22377 0.31241
#
# Static dielectric constant tensor:
#      x y z
#    x 1.573060 0.000000 0.000000 
#    y 0.000000 1.540620 0.000000 
#    z 0.000000 0.000000 1.600180 
# 
# From -- ./inp_files/40832.got.cif
#   From: 2010.05.17/outbox.cif.g08.bks.cpg/sg67_21_cif.got.tgz:40832.got - 2010.06.03 18:28:57.
