data_PCOD9502300
_publ_section_title
;
Structure prediction by ZEFSAII (Michael W. Deem and Ramdas Pophale) SiO2 
 PCOD9502300
Probable space group: C M M A
;
_chemical_formula_sum "Si O2"
_cell_formula_units_Z 96
_cell_length_a 19.124360
_cell_length_b 8.863716
_cell_length_c 31.962494
_cell_angle_alpha 90.000000
_cell_angle_beta 90.000000
_cell_angle_gamma 90.000000
_cell_volume 5418.054912
_symmetry_space_group_name_H-M "C M M A"
_symmetry_group_IT_number 67
_symmetry_cell_setting 'orthorhombic'
loop_
_space_group_symop_operation_xyz
x,y,z
-x,1/2-y,z
x,-y,-z
-x,1/2+y,-z
-x,-y,-z
x,1/2+y,-z
-x,y,z
x,1/2-y,z
1/2+x,1/2+y,z
1/2-x,-y,z
1/2+x,1/2-y,-z
1/2-x,y,-z
1/2-x,1/2-y,-z
1/2+x,y,-z
1/2-x,1/2+y,z
1/2+x,-y,z
loop_
_atom_site_type_symbol
_atom_site_label
_atom_site_fract_x
_atom_site_fract_y
_atom_site_fract_z
Si Si1 0.081116 0.068385 0.369650
Si Si2 0.914872 0.423963 0.543013
Si Si3 0.173016 0.070139 0.956176
Si Si4 0.916209 0.571555 0.883182
Si Si5 0.419810 0.566356 0.211361
Si Si6 0.327022 0.567154 0.289838
O O1 0.081618 0.250000 0.371717
O O2 0.128664 0.021523 0.330734
O O3 0.000000 0.021607 0.363158
O O4 0.106333 0.004940 0.414129
O O5 0.890369 0.500000 0.500000
O O6 0.894259 0.250000 0.543893
O O7 0.000000 0.431050 0.542394
O O8 0.177937 0.250000 0.959777
O O9 0.250000 0.000000 0.949398
O O10 0.123943 0.021302 0.918127
O O11 0.146779 0.000000 0.000000
O O12 0.899426 0.750000 0.887654
O O13 0.898358 0.522723 0.835685
O O14 0.000000 0.556737 0.887387
O O15 0.500000 0.517451 0.218949
O O16 0.421023 0.750000 0.211524
O O17 0.368521 0.517861 0.248152
O O18 0.323607 0.750000 0.289490
O O19 0.250000 0.500000 0.290904
#
# Coordination Sequence:
#
# PCOD9502300 Si02
#       6
#    16  16  16  16  16  16
#     4   9  17  30  49  71  95 127 167 206 243 287
#     4   9  16  26  43  69  99 127 157 197 244 292
#     4  11  22  37  56  77 105 139 177 217 258 306
#     4   9  18  34  56  81 108 137 171 212 258 307
#     4   8  15  31  55  78 100 131 171 210 247 293
#     4  10  20  33  50  73 101 132 167 206 248 294
#
# _framework density 17.718534999999999
#
# number of rings (size 3 to 8) (size 9 to 14) (size 15 to 20)
#    0.000    2.667    0.000    4.000    0.000    6.000 
#    0.000    2.500    0.000    3.000    0.000    3.500 
#    0.000    0.000    0.000    0.000    0.000    0.000 
#
# Total GULP energy -267678.532847 kJ/mol
# GULP energy per Si atom -5576.636101 kJ/mol
# Density = 1.767821 g / cm^3
# Si number density = 17.718535 Si / 1000 Ang^3
#
#
#
# Elastic Constant Matrix: (Units=GPa)
#
#
# Indices 1 2 3 4 5 6 
#
# 1 68.5778 33.9753 89.1056 0.0000 0.0000 0.0000
# 2 33.9753 60.2274 62.0996 0.0000 0.0000 0.0000
# 3 89.1056 62.0996 198.0071 0.0000 0.0000 0.0000
# 4 0.0000 0.0000 0.0000 23.3079 0.0000 0.0000
# 5 0.0000 0.0000 0.0000 0.0000 -11.0255 0.0000
# 6 0.0000 0.0000 0.0000 0.0000 0.0000 22.9293
#
#
#
# Elastic Compliance Matrix: (Units=1/GPa)
#
#
# Indices 1 2 3 4 5 6 
#
# 1 0.036249 -0.005364 -0.014630 0.000000 0.000000 0.000000
# 2 -0.005364 0.025333 -0.005531 0.000000 0.000000 0.000000
# 3 -0.014630 -0.005531 0.013369 0.000000 0.000000 0.000000
# 4 0.000000 0.000000 0.000000 0.042904 0.000000 0.000000
# 5 0.000000 0.000000 0.000000 0.000000 -0.090698 0.000000
# 6 0.000000 0.000000 0.000000 0.000000 0.000000 0.043612
#
#
# Mechanical properties :
#
#
# Convention : Reuss Voigt Hill
#
# Bulk Modulus (GPa) = 41.84062 77.46368 59.65215
# Shear Modulus (GPa) = 38.52523 16.48445 27.50484
#
# Velocity S-wave (km/s) = 4.66799 3.05347 3.94422
# Velocity P-wave (km/s) = 7.26077 7.49970 7.38120
#
# Compressibility (1/GPa) = 0.02390022
#
# Stress axis : x y z
#
# Youngs Moduli (GPa) = 27.58699 39.47489 74.80063
#
# Poissons Ratio (x) = 0.21172 1.09436
# Poissons Ratio (y) = 0.14796 0.41374
# Poissons Ratio (z) = 0.40361 0.21834
#
# Static dielectric constant tensor:
#      x y z
#    x 1.581520 0.000000 0.000000 
#    y 0.000000 1.599020 0.000000 
#    z 0.000000 0.000000 1.604750 
# 
# From -- ./inp_files/44615.got.cif
#   From: 2010.05.17/outbox.cif.g08.bks.cpg/sg67_23_cif.got.tgz:44615.got - 2010.06.03 18:28:57.
