data_PCOD9502704
_publ_section_title
;
Structure prediction by ZEFSAII (Michael W. Deem and Ramdas Pophale) SiO2 
 PCOD9502704
Probable space group: C M M A
;
_chemical_formula_sum "Si O2"
_cell_formula_units_Z 128
_cell_length_a 27.173299
_cell_length_b 22.108281
_cell_length_c 12.487740
_cell_angle_alpha 90.000000
_cell_angle_beta 90.000000
_cell_angle_gamma 90.000000
_cell_volume 7502.071369
_symmetry_space_group_name_H-M "C M M A"
_symmetry_group_IT_number 67
_symmetry_cell_setting 'orthorhombic'
loop_
_space_group_symop_operation_xyz
x,y,z
-x,1/2-y,z
x,-y,-z
-x,1/2+y,-z
-x,-y,-z
x,1/2+y,-z
-x,y,z
x,1/2-y,z
1/2+x,1/2+y,z
1/2-x,-y,z
1/2+x,1/2-y,-z
1/2-x,y,-z
1/2-x,1/2-y,-z
1/2+x,y,-z
1/2-x,1/2+y,z
1/2+x,-y,z
loop_
_atom_site_type_symbol
_atom_site_label
_atom_site_fract_x
_atom_site_fract_y
_atom_site_fract_z
Si Si1 0.734642 0.068029 0.876494
Si Si2 0.442957 0.364215 0.220981
Si Si3 0.133998 0.678715 0.391295
Si Si4 0.622853 0.397818 0.831173
Si Si5 0.262014 0.179914 0.272221
Si Si6 0.942736 0.002309 0.875621
Si Si7 0.057381 0.819448 0.990786
Si Si8 0.655804 0.178814 0.630827
O O1 0.676140 0.078342 0.867471
O O2 0.757930 0.125018 0.812480
O O3 0.750000 0.000000 0.838167
O O4 0.750000 0.071657 0.000000
O O5 0.500000 0.353577 0.250982
O O6 0.406556 0.353419 0.318635
O O7 0.438367 0.431431 0.173118
O O8 0.431131 0.323250 0.117208
O O9 0.121470 0.750000 0.393864
O O10 0.187234 0.673742 0.335615
O O11 0.139450 0.657421 0.513640
O O12 0.589006 0.455339 0.809552
O O13 0.630626 0.357146 0.726854
O O14 0.594534 0.359773 0.922524
O O15 0.259613 0.250000 0.229041
O O16 0.214624 0.173371 0.349820
O O17 0.000000 0.985010 0.875295
O O18 0.926155 0.000000 0.000000
O O19 0.060327 0.750000 0.955478
O O20 0.000000 0.840065 0.979394
O O21 0.644273 0.250000 0.639542
#
# Coordination Sequence:
#
# PCOD9502704 Si02
#       8
#    16  16  16  16  16  16  16  16
#     4  10  24  36  51  81 119 155 184 227 285 342
#     4  10  21  35  53  81 113 144 182 232 279 330
#     4  10  20  35  61  82 105 148 188 227 279 332
#     4  11  21  35  59  79 111 150 184 230 282 333
#     4   9  19  36  59  83 109 144 191 237 273 329
#     4  10  20  35  57  81 105 144 191 228 269 332
#     4  10  20  34  55  85 117 145 183 235 285 340
#     4   9  19  38  57  83 112 141 184 230 278 330
#
# _framework density 17.061954
#
# number of rings (size 3 to 8) (size 9 to 14) (size 15 to 20)
#    0.000    2.125    1.250    1.500    5.250    3.000 
#    0.000    1.875    0.000    3.750    0.000    0.000 
#    0.000    0.000    0.000    0.000    0.000    0.000 
#
# Total GULP energy -356908.878268 kJ/mol
# GULP energy per Si atom -5576.701223 kJ/mol
# Density = 1.702312 g / cm^3
# Si number density = 17.061954 Si / 1000 Ang^3
#
#
#
# Elastic Constant Matrix: (Units=GPa)
#
#
# Indices 1 2 3 4 5 6 
#
# 1 83.2901 48.7213 62.5119 0.0000 0.0000 0.0000
# 2 48.7213 86.6632 49.1661 0.0000 0.0000 0.0000
# 3 62.5119 49.1661 104.2394 0.0000 0.0000 0.0000
# 4 0.0000 0.0000 0.0000 15.8790 0.0000 0.0000
# 5 0.0000 0.0000 0.0000 0.0000 21.2869 0.0000
# 6 0.0000 0.0000 0.0000 0.0000 0.0000 41.8173
#
#
#
# Elastic Compliance Matrix: (Units=1/GPa)
#
#
# Indices 1 2 3 4 5 6 
#
# 1 0.025018 -0.007582 -0.011427 0.000000 0.000000 0.000000
# 2 -0.007582 0.018052 -0.003968 0.000000 0.000000 0.000000
# 3 -0.011427 -0.003968 0.018317 0.000000 0.000000 0.000000
# 4 0.000000 0.000000 0.000000 0.062976 0.000000 0.000000
# 5 0.000000 0.000000 0.000000 0.000000 0.046977 0.000000
# 6 0.000000 0.000000 0.000000 0.000000 0.000000 0.023914
#
#
# Mechanical properties :
#
#
# Convention : Reuss Voigt Hill
#
# Bulk Modulus (GPa) = 64.79103 66.11016 65.45059
# Shear Modulus (GPa) = 20.29614 23.38288 21.83951
#
# Velocity S-wave (km/s) = 3.45273 3.70600 3.58161
# Velocity P-wave (km/s) = 7.34517 7.55935 7.45303
#
# Compressibility (1/GPa) = 0.01543424
#
# Stress axis : x y z
#
# Youngs Moduli (GPa) = 39.97191 55.39399 54.59296
#
# Poissons Ratio (x) = 0.42000 0.62382
# Poissons Ratio (y) = 0.30307 0.21662
# Poissons Ratio (z) = 0.45675 0.21979
#
# Static dielectric constant tensor:
#      x y z
#    x 1.574540 0.000000 0.000000 
#    y 0.000000 1.606340 0.000000 
#    z 0.000000 0.000000 1.557030 
# 
# From -- ./inp_files/22344.got.cif
#   From: 2010.05.17/outbox.cif.g08.bks.cpg/sg67_12_cif.got.tgz:22344.got - 2010.06.03 18:28:57.
