data_PCOD9502011
_publ_section_title
;
Structure prediction by ZEFSAII (Michael W. Deem and Ramdas Pophale) SiO2 
 PCOD9502011
Probable space group: C M M A
;
_chemical_formula_sum "Si O2"
_cell_formula_units_Z 88
_cell_length_a 14.227473
_cell_length_b 22.950736
_cell_length_c 11.420361
_cell_angle_alpha 90.000000
_cell_angle_beta 90.000000
_cell_angle_gamma 90.000000
_cell_volume 3729.101632
_symmetry_space_group_name_H-M "C M M A"
_symmetry_group_IT_number 67
_symmetry_cell_setting 'orthorhombic'
loop_
_space_group_symop_operation_xyz
x,y,z
-x,1/2-y,z
x,-y,-z
-x,1/2+y,-z
-x,-y,-z
x,1/2+y,-z
-x,y,z
x,1/2-y,z
1/2+x,1/2+y,z
1/2-x,-y,z
1/2+x,1/2-y,-z
1/2-x,y,-z
1/2-x,1/2-y,-z
1/2+x,y,-z
1/2-x,1/2+y,z
1/2+x,-y,z
loop_
_atom_site_type_symbol
_atom_site_label
_atom_site_fract_x
_atom_site_fract_y
_atom_site_fract_z
Si Si1 0.605456 0.573605 0.316114
Si Si2 0.888289 0.845256 0.104989
Si Si3 0.641636 0.981549 0.874358
Si Si4 0.612171 0.815229 0.639709
Si Si5 0.250000 0.900779 0.500000
Si Si6 0.385831 0.815143 0.157273
O O1 0.500000 0.585009 0.363020
O O2 0.599714 0.518738 0.230217
O O3 0.684330 0.563646 0.412382
O O4 0.637239 0.630676 0.241214
O O5 0.869671 0.912874 0.130597
O O6 0.857056 0.814305 0.223743
O O7 0.000000 0.835151 0.098353
O O8 0.853175 0.827565 0.976099
O O9 0.750000 0.000000 0.873855
O O10 0.602140 0.000000 0.000000
O O11 0.500000 0.830231 0.635974
O O12 0.621867 0.750000 0.590668
O O13 0.676706 0.860099 0.570592
O O14 0.500000 0.815135 0.155380
O O15 0.356398 0.750000 0.193902
#
# Coordination Sequence:
#
# PCOD9502011 Si02
#       6
#    16  16  16  16   8  16
#     4  11  24  43  68  99 135 181 231 279 335 399
#     4  10  19  36  64  95 127 164 214 276 342 407
#     4  11  22  38  64  97 138 173 215 272 340 409
#     4  10  22  41  65  92 126 174 227 279 339 403
#     4  12  25  44  65  90 134 180 234 282 328 388
#     4   9  18  34  60  96 133 166 210 274 341 403
#
# _framework density 23.598177
#
# number of rings (size 3 to 8) (size 9 to 14) (size 15 to 20)
#    0.000    1.636    1.818    3.000    0.000    4.364 
#    0.000    5.909    0.000    9.818    0.000    0.000 
#    0.000    0.000    0.000    0.000    0.000    0.000 
#
# Total GULP energy -246206.225448 kJ/mol
# GULP energy per Si atom -5595.596033 kJ/mol
# Density = 2.354447 g / cm^3
# Si number density = 23.598177 Si / 1000 Ang^3
#
#
#
# Elastic Constant Matrix: (Units=GPa)
#
#
# Indices 1 2 3 4 5 6 
#
# 1 117.7548 -0.5244 44.9826 0.0000 0.0000 0.0000
# 2 -0.5244 98.9453 27.2817 0.0000 0.0000 0.0000
# 3 44.9826 27.2817 100.2538 0.0000 0.0000 0.0000
# 4 0.0000 0.0000 0.0000 18.2828 0.0000 0.0000
# 5 0.0000 0.0000 0.0000 0.0000 -35.4992 0.0000
# 6 0.0000 0.0000 0.0000 0.0000 0.0000 38.5383
#
#
#
# Elastic Compliance Matrix: (Units=1/GPa)
#
#
# Indices 1 2 3 4 5 6 
#
# 1 0.010439 0.001456 -0.005080 0.000000 0.000000 0.000000
# 2 0.001456 0.011130 -0.003682 0.000000 0.000000 0.000000
# 3 -0.005080 -0.003682 0.013256 0.000000 0.000000 0.000000
# 4 0.000000 0.000000 0.000000 0.054696 0.000000 0.000000
# 5 0.000000 0.000000 0.000000 0.000000 -0.028170 0.000000
# 6 0.000000 0.000000 0.000000 0.000000 0.000000 0.025948
#
#
# Mechanical properties :
#
#
# Convention : Reuss Voigt Hill
#
# Bulk Modulus (GPa) = 49.47378 51.15928 50.31653
# Shear Modulus (GPa) = 46.01948 20.61199 33.31574
#
# Velocity S-wave (km/s) = 4.42082 2.95864 3.76146
# Velocity P-wave (km/s) = 6.86067 5.77908 6.34297
#
# Compressibility (1/GPa) = 0.02021272
#
# Stress axis : x y z
#
# Youngs Moduli (GPa) = 95.79119 89.85118 75.43713
#
# Poissons Ratio (x) = -0.13083 0.38324
# Poissons Ratio (y) = -0.13948 0.27776
# Poissons Ratio (z) = 0.48664 0.33083
#
# Static dielectric constant tensor:
#      x y z
#    x 2.231750 0.000000 0.000000 
#    y 0.000000 -0.323040 0.000000 
#    z 0.000000 0.000000 1.897660 
# 
# From -- ./inp_files/18121.got.cif
#   From: 2010.05.17/outbox.cif.g08.bks.cpg/sg67_10_cif.got.tgz:18121.got - 2010.06.03 18:28:57.
