data_PCOD9502271
_publ_section_title
;
Structure prediction by ZEFSAII (Michael W. Deem and Ramdas Pophale) SiO2 
 PCOD9502271
Probable space group: C M M A
;
_chemical_formula_sum "Si O2"
_cell_formula_units_Z 80
_cell_length_a 8.051378
_cell_length_b 14.312903
_cell_length_c 30.429806
_cell_angle_alpha 90.000000
_cell_angle_beta 90.000000
_cell_angle_gamma 90.000000
_cell_volume 3506.688008
_symmetry_space_group_name_H-M "C M M A"
_symmetry_group_IT_number 67
_symmetry_cell_setting 'orthorhombic'
loop_
_space_group_symop_operation_xyz
x,y,z
-x,1/2-y,z
x,-y,-z
-x,1/2+y,-z
-x,-y,-z
x,1/2+y,-z
-x,y,z
x,1/2-y,z
1/2+x,1/2+y,z
1/2-x,-y,z
1/2+x,1/2-y,-z
1/2-x,y,-z
1/2-x,1/2-y,-z
1/2+x,y,-z
1/2-x,1/2+y,z
1/2+x,-y,z
loop_
_atom_site_type_symbol
_atom_site_label
_atom_site_fract_x
_atom_site_fract_y
_atom_site_fract_z
Si Si1 0.689514 0.863875 0.951086
Si Si2 0.197186 0.107234 0.453181
Si Si3 0.180326 0.635840 0.264271
Si Si4 0.000000 0.635560 0.891850
Si Si5 0.500000 0.864525 0.208991
Si Si6 0.687519 0.140308 0.643816
O O1 0.500000 0.895537 0.942932
O O2 0.685623 0.750000 0.949790
O O3 0.832488 0.893640 0.917219
O O4 0.750000 0.889361 0.000000
O O5 0.250000 0.149296 0.500000
O O6 0.262628 0.135257 0.405124
O O7 0.000000 0.119729 0.451061
O O8 0.250000 0.000000 0.455688
O O9 0.179075 0.750000 0.263229
O O10 0.335674 0.606075 0.235180
O O11 0.208615 0.605702 0.314846
O O12 0.000000 0.604535 0.248466
O O13 0.000000 0.750000 0.892292
O O14 0.000000 0.604807 0.841405
O O15 0.500000 0.750000 0.209023
O O16 0.500000 0.099012 0.643668
O O17 0.668377 0.250000 0.652167
#
# Coordination Sequence:
#
# PCOD9502271 Si02
#       6
#    16  16  16   8   8  16
#     4   9  14  20  29  39  54  79 116 159 202 251
#     4  10  20  33  49  67  93 124 149 180 225 273
#     4   9  16  26  42  60  78 104 134 170 218 265
#     4   9  16  22  30  44  60  88 119 155 211 256
#     4   9  16  26  36  50  78  99 123 171 216 265
#     4   9  17  31  49  67  87 115 151 187 225 271
#
# _framework density 22.813548999999998
#
# number of rings (size 3 to 8) (size 9 to 14) (size 15 to 20)
#    0.000    2.800    2.000    1.200    0.000    2.800 
#    0.000    4.000    0.000    0.000    0.000    0.000 
#    0.000    0.000    0.000    0.000    0.000    0.000 
#
# Total GULP energy -223249.614421 kJ/mol
# GULP energy per Si atom -5581.240361 kJ/mol
# Density = 2.276162 g / cm^3
# Si number density = 22.813549 Si / 1000 Ang^3
#
#
#
# Elastic Constant Matrix: (Units=GPa)
#
#
# Indices 1 2 3 4 5 6 
#
# 1 198.0005 11.4490 127.3040 0.0000 0.0000 0.0000
# 2 11.4490 61.3157 -1.0371 0.0000 0.0000 0.0000
# 3 127.3040 -1.0371 211.5730 0.0000 0.0000 0.0000
# 4 0.0000 0.0000 0.0000 13.1954 0.0000 0.0000
# 5 0.0000 0.0000 0.0000 0.0000 18.9098 0.0000
# 6 0.0000 0.0000 0.0000 0.0000 0.0000 4.5974
#
#
#
# Elastic Compliance Matrix: (Units=1/GPa)
#
#
# Indices 1 2 3 4 5 6 
#
# 1 0.008402 -0.001654 -0.005063 0.000000 0.000000 0.000000
# 2 -0.001654 0.016636 0.001077 0.000000 0.000000 0.000000
# 3 -0.005063 0.001077 0.007778 0.000000 0.000000 0.000000
# 4 0.000000 0.000000 0.000000 0.075784 0.000000 0.000000
# 5 0.000000 0.000000 0.000000 0.000000 0.052883 0.000000
# 6 0.000000 0.000000 0.000000 0.000000 0.000000 0.217513
#
#
# Mechanical properties :
#
#
# Convention : Reuss Voigt Hill
#
# Bulk Modulus (GPa) = 46.43677 82.92456 64.68066
# Shear Modulus (GPa) = 12.58002 29.55208 21.06605
#
# Velocity S-wave (km/s) = 2.35080 3.60304 3.04205
# Velocity P-wave (km/s) = 5.26948 7.33054 6.38374
#
# Compressibility (1/GPa) = 0.02153466
#
# Stress axis : x y z
#
# Youngs Moduli (GPa) = 119.02389 60.10997 128.56026
#
# Poissons Ratio (x) = 0.09945 0.65095
# Poissons Ratio (y) = 0.19692 -0.13846
# Poissons Ratio (z) = 0.60267 -0.06474
#
# Static dielectric constant tensor:
#      x y z
#    x 1.820740 0.000000 0.000000 
#    y 0.000000 1.897510 0.000000 
#    z 0.000000 0.000000 1.835630 
# 
# From -- ./inp_files/43402.got.cif
#   From: 2010.05.17/outbox.cif.g08.bks.cpg/sg67_22_cif.got.tgz:43402.got - 2010.06.03 18:28:57.
