data_PCOD9502521
_publ_section_title
;
Structure prediction by ZEFSAII (Michael W. Deem and Ramdas Pophale) SiO2 
 PCOD9502521
Probable space group: C M M A
;
_chemical_formula_sum "Si O2"
_cell_formula_units_Z 104
_cell_length_a 30.812251
_cell_length_b 9.019714
_cell_length_c 23.356045
_cell_angle_alpha 90.000000
_cell_angle_beta 90.000000
_cell_angle_gamma 90.000000
_cell_volume 6491.058114
_symmetry_space_group_name_H-M "C M M A"
_symmetry_group_IT_number 67
_symmetry_cell_setting 'orthorhombic'
loop_
_space_group_symop_operation_xyz
x,y,z
-x,1/2-y,z
x,-y,-z
-x,1/2+y,-z
-x,-y,-z
x,1/2+y,-z
-x,y,z
x,1/2-y,z
1/2+x,1/2+y,z
1/2-x,-y,z
1/2+x,1/2-y,-z
1/2-x,y,-z
1/2-x,1/2-y,-z
1/2+x,y,-z
1/2-x,1/2+y,z
1/2+x,-y,z
loop_
_atom_site_type_symbol
_atom_site_label
_atom_site_fract_x
_atom_site_fract_y
_atom_site_fract_z
Si Si1 0.295410 0.072996 0.314358
Si Si2 0.913527 0.079403 0.400680
Si Si3 0.172816 0.427164 0.557221
Si Si4 0.550804 0.569928 0.814677
Si Si5 0.947316 0.419405 0.942880
Si Si6 0.500000 0.426572 0.437789
Si Si7 0.380857 0.079312 0.729633
O O1 0.294487 0.250000 0.307933
O O2 0.303528 0.041189 0.382313
O O3 0.250000 0.000000 0.297775
O O4 0.335288 0.005435 0.278390
O O5 0.918839 0.250000 0.420417
O O6 0.900592 0.081243 0.334265
O O7 0.874623 0.999816 0.434293
O O8 0.957158 0.987454 0.407566
O O9 0.192414 0.500000 0.500000
O O10 0.169989 0.250000 0.550443
O O11 0.500000 0.530140 0.803405
O O12 0.552800 0.750000 0.813099
O O13 0.562665 0.520542 0.879574
O O14 0.584711 0.500598 0.770722
O O15 0.932549 0.250000 0.945030
O O16 0.000000 0.418780 0.944905
O O17 0.931703 0.500000 0.000000
O O18 0.500000 0.250000 0.440882
O O19 0.500000 0.500000 0.500000
O O20 0.374025 0.250000 0.747438
#
# Coordination Sequence:
#
# PCOD9502521 Si02
#       7
#    16  16  16  16  16   8  16
#     4  10  21  37  56  75  97 124 156 194 243 298
#     4  10  21  36  50  66  91 120 153 197 241 284
#     4  10  20  34  52  73  95 120 149 185 234 292
#     4   9  18  31  47  70 102 139 174 208 246 288
#     4   8  14  25  41  63  94 132 172 209 244 281
#     4  12  24  36  50  66  86 116 155 196 239 288
#     4  10  21  35  52  73  98 127 162 203 244 288
#
# _framework density 16.022041999999999
#
# number of rings (size 3 to 8) (size 9 to 14) (size 15 to 20)
#    0.000    2.308    0.000    3.923    1.077    4.923 
#    0.000    3.077    0.000    0.000    0.000    0.000 
#    0.000    0.615    0.000    6.462    0.000    3.846 
#
# Total GULP energy -289991.007958 kJ/mol
# GULP energy per Si atom -5576.750153 kJ/mol
# Density = 1.598557 g / cm^3
# Si number density = 16.022042 Si / 1000 Ang^3
#
#
#
# Elastic Constant Matrix: (Units=GPa)
#
#
# Indices 1 2 3 4 5 6 
#
# 1 104.3730 52.2017 39.3910 0.0000 0.0000 0.0000
# 2 52.2017 82.9171 37.7871 0.0000 0.0000 0.0000
# 3 39.3910 37.7871 87.2198 0.0000 0.0000 0.0000
# 4 0.0000 0.0000 0.0000 26.5286 0.0000 0.0000
# 5 0.0000 0.0000 0.0000 0.0000 7.3521 0.0000
# 6 0.0000 0.0000 0.0000 0.0000 0.0000 23.5727
#
#
#
# Elastic Compliance Matrix: (Units=1/GPa)
#
#
# Indices 1 2 3 4 5 6 
#
# 1 0.014699 -0.007761 -0.003276 0.000000 0.000000 0.000000
# 2 -0.007761 0.019125 -0.004781 0.000000 0.000000 0.000000
# 3 -0.003276 -0.004781 0.015016 0.000000 0.000000 0.000000
# 4 0.000000 0.000000 0.000000 0.037695 0.000000 0.000000
# 5 0.000000 0.000000 0.000000 0.000000 0.136015 0.000000
# 6 0.000000 0.000000 0.000000 0.000000 0.000000 0.042422
#
#
# Mechanical properties :
#
#
# Convention : Reuss Voigt Hill
#
# Bulk Modulus (GPa) = 58.12419 59.25217 58.68818
# Shear Modulus (GPa) = 16.53754 21.16602 18.85178
#
# Velocity S-wave (km/s) = 3.21623 3.63858 3.43390
# Velocity P-wave (km/s) = 7.08157 7.39691 7.24096
#
# Compressibility (1/GPa) = 0.01720454
#
# Stress axis : x y z
#
# Youngs Moduli (GPa) = 68.03126 52.28782 66.59550
#
# Poissons Ratio (x) = 0.40581 0.21818
# Poissons Ratio (y) = 0.52799 0.31836
# Poissons Ratio (z) = 0.22288 0.24997
#
# Static dielectric constant tensor:
#      x y z
#    x 1.513510 0.000000 0.000000 
#    y 0.000000 1.544060 0.000000 
#    z 0.000000 0.000000 1.547870 
# 
# From -- ./inp_files/42742.got.cif
#   From: 2010.05.17/outbox.cif.g08.bks.cpg/sg67_22_cif.got.tgz:42742.got - 2010.06.03 18:28:57.
