data_PCOD9502358
_publ_section_title
;
Structure prediction by ZEFSAII (Michael W. Deem and Ramdas Pophale) SiO2 
 PCOD9502358
Probable space group: C M M A
;
_chemical_formula_sum "Si O2"
_cell_formula_units_Z 72
_cell_length_a 8.177598
_cell_length_b 16.713761
_cell_length_c 25.455881
_cell_angle_alpha 90.000000
_cell_angle_beta 90.000000
_cell_angle_gamma 90.000000
_cell_volume 3479.269557
_symmetry_space_group_name_H-M "C M M A"
_symmetry_group_IT_number 67
_symmetry_cell_setting 'orthorhombic'
loop_
_space_group_symop_operation_xyz
x,y,z
-x,1/2-y,z
x,-y,-z
-x,1/2+y,-z
-x,-y,-z
x,1/2+y,-z
-x,y,z
x,1/2-y,z
1/2+x,1/2+y,z
1/2-x,-y,z
1/2+x,1/2-y,-z
1/2-x,y,-z
1/2-x,1/2-y,-z
1/2+x,y,-z
1/2-x,1/2+y,z
1/2+x,-y,z
loop_
_atom_site_type_symbol
_atom_site_label
_atom_site_fract_x
_atom_site_fract_y
_atom_site_fract_z
Si Si1 0.804902 0.087203 0.118129
Si Si2 0.303072 0.657503 0.444167
Si Si3 0.300536 0.840087 0.224087
Si Si4 0.197432 0.409896 0.333386
Si Si5 0.305914 0.250000 0.060227
O O1 0.743915 0.100740 0.178210
O O2 0.754294 0.167232 0.086902
O O3 0.000000 0.086332 0.118831
O O4 0.750000 0.000000 0.098153
O O5 0.500000 0.656914 0.443217
O O6 0.247602 0.750000 0.443254
O O7 0.250000 0.621442 0.500000
O O8 0.242149 0.617283 0.390694
O O9 0.500000 0.842712 0.224839
O O10 0.252551 0.750000 0.209713
O O11 0.244949 0.860000 0.282937
O O12 0.250000 0.500000 0.324200
O O13 0.000000 0.403797 0.334687
O O14 0.500000 0.250000 0.063196
O O15 0.250000 0.250000 0.000000
#
# Coordination Sequence:
#
# PCOD9502358 Si02
#       5
#    16  16  16  16   8
#     4  11  22  40  66  98 133 171 213 260 315 374
#     4   9  18  33  52  72  95 131 179 229 281 342
#     4   9  17  33  59  86 115 154 197 243 296 358
#     4  10  20  33  51  76 107 142 184 231 285 348
#     4  12  26  46  70  98 132 172 217 264 311 366
#
# _framework density 20.693997
#
# number of rings (size 3 to 8) (size 9 to 14) (size 15 to 20)
#    0.000    2.000    1.111    3.000    0.000    4.444 
#    0.000    5.556    0.000    1.333    0.000    0.000 
#    0.000    0.000    0.000    0.000    0.000    0.000 
#
# Total GULP energy -200904.833630 kJ/mol
# GULP energy per Si atom -5580.689823 kJ/mol
# Density = 2.064690 g / cm^3
# Si number density = 20.693997 Si / 1000 Ang^3
#
#
#
# Elastic Constant Matrix: (Units=GPa)
#
#
# Indices 1 2 3 4 5 6 
#
# 1 34.2406 17.3837 18.8944 0.0000 0.0000 0.0000
# 2 17.3837 130.0379 57.8524 0.0000 0.0000 0.0000
# 3 18.8944 57.8524 134.5534 0.0000 0.0000 0.0000
# 4 0.0000 0.0000 0.0000 12.6953 0.0000 0.0000
# 5 0.0000 0.0000 0.0000 0.0000 19.4991 0.0000
# 6 0.0000 0.0000 0.0000 0.0000 0.0000 29.5796
#
#
#
# Elastic Compliance Matrix: (Units=1/GPa)
#
#
# Indices 1 2 3 4 5 6 
#
# 1 0.032497 -0.002861 -0.003333 0.000000 0.000000 0.000000
# 2 -0.002861 0.009761 -0.003795 0.000000 0.000000 0.000000
# 3 -0.003333 -0.003795 0.009532 0.000000 0.000000 0.000000
# 4 0.000000 0.000000 0.000000 0.078769 0.000000 0.000000
# 5 0.000000 0.000000 0.000000 0.000000 0.051285 0.000000
# 6 0.000000 0.000000 0.000000 0.000000 0.000000 0.033807
#
#
# Mechanical properties :
#
#
# Convention : Reuss Voigt Hill
#
# Bulk Modulus (GPa) = 31.43585 54.12142 42.77864
# Shear Modulus (GPa) = 20.30595 26.00155 23.15375
#
# Velocity S-wave (km/s) = 3.13589 3.54853 3.34857
# Velocity P-wave (km/s) = 5.32311 6.55739 5.97222
#
# Compressibility (1/GPa) = 0.03181081
#
# Stress axis : x y z
#
# Youngs Moduli (GPa) = 30.77200 102.44912 104.91286
#
# Poissons Ratio (x) = 0.29315 0.34968
# Poissons Ratio (y) = 0.08805 0.39814
# Poissons Ratio (z) = 0.10256 0.38879
#
# Static dielectric constant tensor:
#      x y z
#    x 1.748020 0.000000 0.000000 
#    y 0.000000 1.763450 0.000000 
#    z 0.000000 0.000000 1.761430 
# 
# From -- ./inp_files/42109.got.cif
#   From: 2010.05.17/outbox.cif.g08.bks.cpg/sg67_22_cif.got.tgz:42109.got - 2010.06.03 18:28:57.
