data_PCOD9502906
_publ_section_title
;
Structure prediction by ZEFSAII (Michael W. Deem and Ramdas Pophale) SiO2 
 PCOD9502906
Probable space group: C M M A
;
_chemical_formula_sum "Si O2"
_cell_formula_units_Z 116
_cell_length_a 9.406419
_cell_length_b 25.901855
_cell_length_c 23.759436
_cell_angle_alpha 90.000000
_cell_angle_beta 90.000000
_cell_angle_gamma 90.000000
_cell_volume 5788.836921
_symmetry_space_group_name_H-M "C M M A"
_symmetry_group_IT_number 67
_symmetry_cell_setting 'orthorhombic'
loop_
_space_group_symop_operation_xyz
x,y,z
-x,1/2-y,z
x,-y,-z
-x,1/2+y,-z
-x,-y,-z
x,1/2+y,-z
-x,y,z
x,1/2-y,z
1/2+x,1/2+y,z
1/2-x,-y,z
1/2+x,1/2-y,-z
1/2-x,y,-z
1/2-x,1/2-y,-z
1/2+x,y,-z
1/2-x,1/2+y,z
1/2+x,-y,z
loop_
_atom_site_type_symbol
_atom_site_label
_atom_site_fract_x
_atom_site_fract_y
_atom_site_fract_z
Si Si1 0.250000 0.500000 0.000000
Si Si2 0.327667 0.447811 0.560939
Si Si3 0.168465 0.650484 0.643469
Si Si4 0.155433 0.809254 0.451400
Si Si5 0.658068 0.956382 0.802753
Si Si6 0.830390 0.691875 0.870703
Si Si7 0.163407 0.658103 0.241179
Si Si8 0.338928 0.579811 0.092601
O O1 0.331509 0.458834 0.960256
O O2 0.500000 0.453184 0.553035
O O3 0.250000 0.500000 0.581818
O O4 0.250000 0.439290 0.500000
O O5 0.307385 0.403380 0.608675
O O6 0.252334 0.689561 0.603968
O O7 0.238647 0.659494 0.703989
O O8 0.000000 0.658561 0.645884
O O9 0.134191 0.750000 0.467336
O O10 0.250000 0.833501 0.500000
O O11 0.000000 0.833827 0.445127
O O12 0.500000 0.975775 0.812091
O O13 0.653678 0.902860 0.770858
O O14 0.731793 0.943046 0.861795
O O15 0.750000 0.000000 0.773081
O O16 0.798124 0.750000 0.892581
O O17 0.740098 0.682758 0.813520
O O18 0.803673 0.641610 0.910968
O O19 0.000000 0.691064 0.858056
O O20 0.000000 0.677333 0.248479
O O21 0.500000 0.578459 0.114298
#
# Coordination Sequence:
#
# PCOD9502906 Si02
#       8
#     4  16  16  16  16  16  16  16
#     4  12  22  32  58  98 134 164 202 246 296 348
#     4  10  21  36  55  78 105 143 190 236 288 351
#     4  11  23  37  55  81 111 145 186 234 287 345
#     4  10  21  37  57  80 106 138 176 221 278 344
#     4  10  20  35  56  81 112 149 190 232 282 343
#     4   9  19  39  64  85 111 155 206 250 294 349
#     4  10  22  37  55  82 112 145 186 236 293 348
#     4  10  21  36  57  87 123 160 199 244 292 346
#
# _framework density 20.038568000000001
#
# number of rings (size 3 to 8) (size 9 to 14) (size 15 to 20)
#    0.000    1.931    0.690    3.103    0.000    7.724 
#    0.000    3.103    0.000    0.000    0.000    0.000 
#    0.000    0.000    0.000    0.000    0.000    0.000 
#
# Total GULP energy -322936.131067 kJ/mol
# GULP energy per Si atom -5567.864329 kJ/mol
# Density = 1.999296 g / cm^3
# Si number density = 20.038568 Si / 1000 Ang^3
#
#
#
# Elastic Constant Matrix: (Units=GPa)
#
#
# Indices 1 2 3 4 5 6 
#
# 1 133.5790 35.8898 32.2955 0.0000 0.0000 0.0000
# 2 35.8898 118.2791 14.8031 0.0000 0.0000 0.0000
# 3 32.2955 14.8031 63.1105 0.0000 0.0000 0.0000
# 4 0.0000 0.0000 0.0000 -263.3809 0.0000 0.0000
# 5 0.0000 0.0000 0.0000 0.0000 18.6281 0.0000
# 6 0.0000 0.0000 0.0000 0.0000 0.0000 -16.2667
#
#
#
# Elastic Compliance Matrix: (Units=1/GPa)
#
#
# Indices 1 2 3 4 5 6 
#
# 1 0.009085 -0.002241 -0.004124 0.000000 0.000000 0.000000
# 2 -0.002241 0.009263 -0.001026 0.000000 0.000000 0.000000
# 3 -0.004124 -0.001026 0.018196 0.000000 0.000000 0.000000
# 4 0.000000 0.000000 0.000000 -0.003797 0.000000 0.000000
# 5 0.000000 0.000000 0.000000 0.000000 0.053682 0.000000
# 6 0.000000 0.000000 0.000000 0.000000 0.000000 -0.061475
#
#
# Mechanical properties :
#
#
# Convention : Reuss Voigt Hill
#
# Bulk Modulus (GPa) = 45.94856 53.43840 49.69348
# Shear Modulus (GPa) = 106.40681 -36.73855 34.83413
#
# Velocity S-wave (km/s) = 7.29495 -4.28646 4.17388
# Velocity P-wave (km/s) = 9.69200 1.49244 6.93406
#
# Compressibility (1/GPa) = 0.02176347
#
# Stress axis : x y z
#
# Youngs Moduli (GPa) = 110.06924 107.95769 54.95695
#
# Poissons Ratio (x) = 0.24190 0.22662
# Poissons Ratio (y) = 0.24663 0.05639
# Poissons Ratio (z) = 0.45388 0.11077
#
# Static dielectric constant tensor:
#      x y z
#    x 1.588330 0.000000 0.000000 
#    y 0.000000 1.786730 0.000000 
#    z 0.000000 0.000000 1.592420 
# 
# From -- ./inp_files/41067.got.cif
#   From: 2010.05.17/outbox.cif.g08.bks.cpg/sg67_21_cif.got.tgz:41067.got - 2010.06.03 18:28:57.
