data_PCOD9502299
_publ_section_title
;
Structure prediction by ZEFSAII (Michael W. Deem and Ramdas Pophale) SiO2 
 PCOD9502299
Probable space group: C M M A
;
_chemical_formula_sum "Si O2"
_cell_formula_units_Z 96
_cell_length_a 17.769502
_cell_length_b 9.006300
_cell_length_c 32.487473
_cell_angle_alpha 90.000000
_cell_angle_beta 90.000000
_cell_angle_gamma 90.000000
_cell_volume 5199.212851
_symmetry_space_group_name_H-M "C M M A"
_symmetry_group_IT_number 67
_symmetry_cell_setting 'orthorhombic'
loop_
_space_group_symop_operation_xyz
x,y,z
-x,1/2-y,z
x,-y,-z
-x,1/2+y,-z
-x,-y,-z
x,1/2+y,-z
-x,y,z
x,1/2-y,z
1/2+x,1/2+y,z
1/2-x,-y,z
1/2+x,1/2-y,-z
1/2-x,y,-z
1/2-x,1/2-y,-z
1/2+x,y,-z
1/2-x,1/2+y,z
1/2+x,-y,z
loop_
_atom_site_type_symbol
_atom_site_label
_atom_site_fract_x
_atom_site_fract_y
_atom_site_fract_z
Si Si1 0.408478 0.922543 0.209863
Si Si2 0.332632 0.072706 0.041456
Si Si3 0.909419 0.576277 0.882101
Si Si4 0.590766 0.419662 0.292668
Si Si5 0.666391 0.072085 0.540427
Si Si6 0.332266 0.073356 0.631272
O O1 0.500000 0.928767 0.209652
O O2 0.387985 0.750000 0.215465
O O3 0.384261 0.969440 0.164003
O O4 0.382200 0.016522 0.248799
O O5 0.327876 0.250000 0.037287
O O6 0.250000 0.000000 0.045138
O O7 0.377101 0.024311 0.081956
O O8 0.366767 0.000000 0.000000
O O9 0.887955 0.750000 0.888244
O O10 0.000000 0.570445 0.882937
O O11 0.500000 0.423555 0.292133
O O12 0.615441 0.250000 0.297541
O O13 0.619612 0.513924 0.330960
O O14 0.671803 0.250000 0.535353
O O15 0.633789 0.039972 0.585793
O O16 0.629214 0.000000 0.500000
O O17 0.750000 0.000000 0.542118
O O18 0.324080 0.250000 0.633821
O O19 0.250000 0.000000 0.633623
#
# Coordination Sequence:
#
# PCOD9502299 Si02
#       6
#    16  16  16  16  16  16
#     4   8  15  30  52  75 100 132 167 204 247 295
#     4  11  22  37  56  76 103 138 174 210 250 299
#     4   9  18  34  56  81 107 133 165 207 252 296
#     4  10  20  33  51  75 102 133 169 207 247 296
#     4   9  16  26  43  67  93 123 158 197 242 292
#     4  10  20  33  50  73 101 131 164 205 251 297
#
# _framework density 18.464334000000001
#
# number of rings (size 3 to 8) (size 9 to 14) (size 15 to 20)
#    0.000    2.500    0.000    5.000    0.000    4.333 
#    0.000    2.500    0.000    4.500    0.000    0.000 
#    0.000    0.000    0.000    0.000    0.000    0.000 
#
# Total GULP energy -267561.694311 kJ/mol
# GULP energy per Si atom -5574.201965 kJ/mol
# Density = 1.842231 g / cm^3
# Si number density = 18.464334 Si / 1000 Ang^3
#
#
#
# Elastic Constant Matrix: (Units=GPa)
#
#
# Indices 1 2 3 4 5 6 
#
# 1 4.5624 16.6906 23.1833 0.0000 0.0000 0.0000
# 2 16.6906 120.4961 91.1768 0.0000 0.0000 0.0000
# 3 23.1833 91.1768 183.6974 0.0000 0.0000 0.0000
# 4 0.0000 0.0000 0.0000 110.6952 0.0000 0.0000
# 5 0.0000 0.0000 0.0000 0.0000 20.9557 0.0000
# 6 0.0000 0.0000 0.0000 0.0000 0.0000 19.9010
#
#
#
# Elastic Compliance Matrix: (Units=1/GPa)
#
#
# Indices 1 2 3 4 5 6 
#
# 1 0.781566 -0.053846 -0.071911 0.000000 0.000000 0.000000
# 2 -0.053846 0.017000 -0.001642 0.000000 0.000000 0.000000
# 3 -0.071911 -0.001642 0.015334 0.000000 0.000000 0.000000
# 4 0.000000 0.000000 0.000000 0.009034 0.000000 0.000000
# 5 0.000000 0.000000 0.000000 0.000000 0.047720 0.000000
# 6 0.000000 0.000000 0.000000 0.000000 0.000000 0.050249
#
#
# Mechanical properties :
#
#
# Convention : Reuss Voigt Hill
#
# Bulk Modulus (GPa) = 1.78858 63.42862 32.60860
# Shear Modulus (GPa) = 3.67089 42.15740 22.91414
#
# Velocity S-wave (km/s) = 1.41153 4.78345 3.52660
# Velocity P-wave (km/s) = 1.90455 8.05823 5.85501
#
# Compressibility (1/GPa) = 0.55910247
#
# Stress axis : x y z
#
# Youngs Moduli (GPa) = 1.27948 58.82235 65.21318
#
# Poissons Ratio (x) = 3.16736 4.68952
# Poissons Ratio (y) = 0.06890 0.10711
# Poissons Ratio (z) = 0.09201 0.09661
#
# Static dielectric constant tensor:
#      x y z
#    x 1.627630 0.000000 0.000000 
#    y 0.000000 1.620160 0.000000 
#    z 0.000000 0.000000 1.677780 
# 
# From -- ./inp_files/44584.got.cif
#   From: 2010.05.17/outbox.cif.g08.bks.cpg/sg67_23_cif.got.tgz:44584.got - 2010.06.03 18:28:57.
