data_PCOD9502402
_publ_section_title
;
Structure prediction by ZEFSAII (Michael W. Deem and Ramdas Pophale) SiO2 
 PCOD9502402
Probable space group: C M M A
;
_chemical_formula_sum "Si O2"
_cell_formula_units_Z 80
_cell_length_a 19.668374
_cell_length_b 14.445912
_cell_length_c 12.735255
_cell_angle_alpha 90.000000
_cell_angle_beta 90.000000
_cell_angle_gamma 90.000000
_cell_volume 3618.437438
_symmetry_space_group_name_H-M "C M M A"
_symmetry_group_IT_number 67
_symmetry_cell_setting 'orthorhombic'
loop_
_space_group_symop_operation_xyz
x,y,z
-x,1/2-y,z
x,-y,-z
-x,1/2+y,-z
-x,-y,-z
x,1/2+y,-z
-x,y,z
x,1/2-y,z
1/2+x,1/2+y,z
1/2-x,-y,z
1/2+x,1/2-y,-z
1/2-x,y,-z
1/2-x,1/2-y,-z
1/2+x,y,-z
1/2-x,1/2+y,z
1/2+x,-y,z
loop_
_atom_site_type_symbol
_atom_site_label
_atom_site_fract_x
_atom_site_fract_y
_atom_site_fract_z
Si Si1 0.581372 0.149980 0.780603
Si Si2 0.861853 0.485187 0.388208
Si Si3 0.577102 0.608970 0.983387
Si Si4 0.717757 0.140781 0.105942
Si Si5 0.760607 0.638919 0.338273
O O1 0.500000 0.152169 0.784242
O O2 0.606363 0.250000 0.737614
O O3 0.599679 0.063699 0.707507
O O4 0.601816 0.145181 0.902802
O O5 0.898076 0.500000 0.500000
O O6 0.830129 0.584555 0.360553
O O7 0.798860 0.412330 0.402307
O O8 0.500000 0.642367 0.959908
O O9 0.572379 0.500000 0.000000
O O10 0.636388 0.627125 0.900152
O O11 0.728823 0.250000 0.103438
O O12 0.751634 0.112687 0.215278
O O13 0.750000 0.100419 0.000000
O O14 0.763560 0.750000 0.352126
#
# Coordination Sequence:
#
# PCOD9502402 Si02
#       5
#    16  16  16  16  16
#     4  10  21  38  61  88 119 158 204 252 302 361
#     4  11  23  38  59  83 110 148 195 253 309 357
#     4  10  20  34  55  85 121 159 198 240 290 355
#     4  10  20  33  52  79 111 148 189 233 283 348
#     4  10  21  37  56  82 115 148 188 239 300 367
#
# _framework density 22.108989999999999
#
# number of rings (size 3 to 8) (size 9 to 14) (size 15 to 20)
#    0.000    1.800    0.000    4.800    0.000    7.600 
#    0.000    0.000    0.000    1.800    0.000    0.000 
#    0.000    0.000    0.000    0.000    0.000    0.000 
#
# Total GULP energy -223253.731360 kJ/mol
# GULP energy per Si atom -5581.343284 kJ/mol
# Density = 2.205867 g / cm^3
# Si number density = 22.108990 Si / 1000 Ang^3
#
#
#
# Elastic Constant Matrix: (Units=GPa)
#
#
# Indices 1 2 3 4 5 6 
#
# 1 55.2245 2.4186 16.4406 0.0000 0.0000 0.0000
# 2 2.4186 137.0370 16.0424 0.0000 0.0000 0.0000
# 3 16.4406 16.0424 80.6337 0.0000 0.0000 0.0000
# 4 0.0000 0.0000 0.0000 19.8757 0.0000 0.0000
# 5 0.0000 0.0000 0.0000 0.0000 26.9964 0.0000
# 6 0.0000 0.0000 0.0000 0.0000 0.0000 27.2853
#
#
#
# Elastic Compliance Matrix: (Units=1/GPa)
#
#
# Indices 1 2 3 4 5 6 
#
# 1 0.019280 0.000123 -0.003955 0.000000 0.000000 0.000000
# 2 0.000123 0.007472 -0.001512 0.000000 0.000000 0.000000
# 3 -0.003955 -0.001512 0.013509 0.000000 0.000000 0.000000
# 4 0.000000 0.000000 0.000000 0.050313 0.000000 0.000000
# 5 0.000000 0.000000 0.000000 0.000000 0.037042 0.000000
# 6 0.000000 0.000000 0.000000 0.000000 0.000000 0.036650
#
#
# Mechanical properties :
#
#
# Convention : Reuss Voigt Hill
#
# Bulk Modulus (GPa) = 33.81520 38.07760 35.94640
# Shear Modulus (GPa) = 27.05455 30.69773 28.87614
#
# Velocity S-wave (km/s) = 3.50192 3.73026 3.61790
# Velocity P-wave (km/s) = 5.62843 5.98442 5.80915
#
# Compressibility (1/GPa) = 0.02957250
#
# Stress axis : x y z
#
# Youngs Moduli (GPa) = 51.86694 133.83128 74.02476
#
# Poissons Ratio (x) = -0.01643 0.29280
# Poissons Ratio (y) = -0.00637 0.11190
# Poissons Ratio (z) = 0.20516 0.20230
#
# Static dielectric constant tensor:
#      x y z
#    x 1.854880 0.000000 0.000000 
#    y 0.000000 1.822710 0.000000 
#    z 0.000000 0.000000 1.857050 
# 
# From -- ./inp_files/17929.got.cif
#   From: 2010.05.17/outbox.cif.g08.bks.cpg/sg67_9_cif.got.tgz:17929.got - 2010.06.03 18:28:57.
