data_PCOD9502584
_publ_section_title
;
Structure prediction by ZEFSAII (Michael W. Deem and Ramdas Pophale) SiO2 
 PCOD9502584
Probable space group: C M M A
;
_chemical_formula_sum "Si O2"
_cell_formula_units_Z 116
_cell_length_a 7.750076
_cell_length_b 30.122023
_cell_length_c 26.666028
_cell_angle_alpha 90.000000
_cell_angle_beta 90.000000
_cell_angle_gamma 90.000000
_cell_volume 6225.130039
_symmetry_space_group_name_H-M "C M M A"
_symmetry_group_IT_number 67
_symmetry_cell_setting 'orthorhombic'
loop_
_space_group_symop_operation_xyz
x,y,z
-x,1/2-y,z
x,-y,-z
-x,1/2+y,-z
-x,-y,-z
x,1/2+y,-z
-x,y,z
x,1/2-y,z
1/2+x,1/2+y,z
1/2-x,-y,z
1/2+x,1/2-y,-z
1/2-x,y,-z
1/2-x,1/2-y,-z
1/2+x,y,-z
1/2-x,1/2+y,z
1/2+x,-y,z
loop_
_atom_site_type_symbol
_atom_site_label
_atom_site_fract_x
_atom_site_fract_y
_atom_site_fract_z
Si Si1 0.203582 0.052095 0.945869
Si Si2 0.206741 0.112097 0.744021
Si Si3 0.293342 0.451515 0.341824
Si Si4 0.000000 0.750000 0.455814
Si Si5 0.791329 0.552289 0.164142
Si Si6 0.700985 0.817210 0.424105
Si Si7 0.793841 0.200207 0.307252
Si Si8 0.206205 0.416880 0.553877
O O1 0.274372 0.066179 0.891451
O O2 0.000000 0.055949 0.942758
O O3 0.250000 0.000000 0.948248
O O4 0.250000 0.072299 0.000000
O O5 0.275267 0.085922 0.695326
O O6 0.272129 0.086017 0.793034
O O7 0.240676 0.163624 0.733311
O O8 0.000000 0.107172 0.744945
O O9 0.500000 0.447637 0.342952
O O10 0.250000 0.500000 0.322224
O O11 0.230091 0.444580 0.398347
O O12 0.846184 0.788262 0.451184
O O13 0.750000 0.500000 0.173110
O O14 0.000000 0.554616 0.163777
O O15 0.500000 0.801947 0.430430
O O16 0.748050 0.813929 0.364566
O O17 0.713503 0.867926 0.441212
O O18 0.724228 0.250000 0.299122
O O19 0.000000 0.202377 0.305645
O O20 0.250000 0.436526 0.500000
O O21 0.000000 0.411934 0.557221
#
# Coordination Sequence:
#
# PCOD9502584 Si02
#       8
#    16  16  16   4  16  16  16  16
#     4   9  15  24  39  61  91 130 176 218 255 297
#     4  10  20  34  53  76 105 137 170 212 261 314
#     4  10  22  37  57  81 105 134 175 215 262 319
#     4  12  22  36  66  86 118 142 176 216 266 322
#     4   9  18  30  45  69 102 139 177 217 259 307
#     4  11  22  38  61  86 112 142 177 215 265 322
#     4  10  21  35  54  80 106 133 172 211 255 310
#     4  11  23  41  61  81 107 142 174 219 270 321
#
# _framework density 18.634148
#
# number of rings (size 3 to 8) (size 9 to 14) (size 15 to 20)
#    0.000    1.931    2.759    1.862    0.966    3.310 
#    0.000    1.724    0.000    0.000    0.000    0.000 
#    0.000    0.552    0.000    1.241    0.000    2.483 
#
# Total GULP energy -323116.631318 kJ/mol
# GULP energy per Si atom -5570.976402 kJ/mol
# Density = 1.859174 g / cm^3
# Si number density = 18.634148 Si / 1000 Ang^3
#
#
#
# Elastic Constant Matrix: (Units=GPa)
#
#
# Indices 1 2 3 4 5 6 
#
# 1 60.8006 -1.2561 14.5045 0.0000 0.0000 0.0000
# 2 -1.2561 69.3915 45.1619 0.0000 0.0000 0.0000
# 3 14.5045 45.1619 146.8056 0.0000 0.0000 0.0000
# 4 0.0000 0.0000 0.0000 13.3744 0.0000 0.0000
# 5 0.0000 0.0000 0.0000 0.0000 15.2458 0.0000
# 6 0.0000 0.0000 0.0000 0.0000 0.0000 7.0995
#
#
#
# Elastic Compliance Matrix: (Units=1/GPa)
#
#
# Indices 1 2 3 4 5 6 
#
# 1 0.017013 0.001753 -0.002220 0.000000 0.000000 0.000000
# 2 0.001753 0.018199 -0.005772 0.000000 0.000000 0.000000
# 3 -0.002220 -0.005772 0.008807 0.000000 0.000000 0.000000
# 4 0.000000 0.000000 0.000000 0.074770 0.000000 0.000000
# 5 0.000000 0.000000 0.000000 0.000000 0.065592 0.000000
# 6 0.000000 0.000000 0.000000 0.000000 0.000000 0.140856
#
#
# Mechanical properties :
#
#
# Convention : Reuss Voigt Hill
#
# Bulk Modulus (GPa) = 31.70500 43.75760 37.73130
# Shear Modulus (GPa) = 14.35841 21.71642 18.03741
#
# Velocity S-wave (km/s) = 2.77888 3.41751 3.11461
# Velocity P-wave (km/s) = 5.22949 6.25348 5.76427
#
# Compressibility (1/GPa) = 0.03154076
#
# Stress axis : x y z
#
# Youngs Moduli (GPa) = 58.77841 54.94758 113.55033
#
# Poissons Ratio (x) = -0.09632 0.25210
# Poissons Ratio (y) = -0.10303 0.65539
# Poissons Ratio (z) = 0.13050 0.31715
#
# Static dielectric constant tensor:
#      x y z
#    x 1.683210 0.000000 0.000000 
#    y 0.000000 1.627550 0.000000 
#    z 0.000000 0.000000 1.720300 
# 
# From -- ./inp_files/43980.got.cif
#   From: 2010.05.17/outbox.cif.g08.bks.cpg/sg67_22_cif.got.tgz:43980.got - 2010.06.03 18:28:57.
