data_PCOD9502778
_publ_section_title
;
Structure prediction by ZEFSAII (Michael W. Deem and Ramdas Pophale) SiO2 
 PCOD9502778
Probable space group: C M M A
;
_chemical_formula_sum "Si O2"
_cell_formula_units_Z 88
_cell_length_a 31.427286
_cell_length_b 8.658520
_cell_length_c 17.974058
_cell_angle_alpha 90.000000
_cell_angle_beta 90.000000
_cell_angle_gamma 90.000000
_cell_volume 4890.988943
_symmetry_space_group_name_H-M "C M M A"
_symmetry_group_IT_number 67
_symmetry_cell_setting 'orthorhombic'
loop_
_space_group_symop_operation_xyz
x,y,z
-x,1/2-y,z
x,-y,-z
-x,1/2+y,-z
-x,-y,-z
x,1/2+y,-z
-x,y,z
x,1/2-y,z
1/2+x,1/2+y,z
1/2-x,-y,z
1/2+x,1/2-y,-z
1/2-x,y,-z
1/2-x,1/2-y,-z
1/2+x,y,-z
1/2-x,1/2+y,z
1/2+x,-y,z
loop_
_atom_site_type_symbol
_atom_site_label
_atom_site_fract_x
_atom_site_fract_y
_atom_site_fract_z
Si Si1 0.295015 0.935083 0.258652
Si Si2 0.087684 0.566189 0.360166
Si Si3 0.173185 0.435058 0.421679
Si Si4 0.500000 0.565760 0.417545
Si Si5 0.548456 0.064380 0.083608
Si Si6 0.114483 0.935940 0.798086
O O1 0.292982 0.750000 0.260941
O O2 0.304241 0.986885 0.344451
O O3 0.335133 0.975904 0.206139
O O4 0.250000 0.000000 0.233735
O O5 0.088651 0.750000 0.368535
O O6 0.124749 0.492148 0.410529
O O7 0.042209 0.498708 0.380075
O O8 0.096962 0.515687 0.276103
O O9 0.190074 0.500000 0.500000
O O10 0.174312 0.250000 0.424209
O O11 0.500000 0.750000 0.417162
O O12 0.500000 0.500000 0.500000
O O13 0.500000 0.025249 0.110100
O O14 0.551882 0.250000 0.083203
O O15 0.585655 0.993829 0.134200
O O16 0.552083 0.000000 0.000000
O O17 0.111151 0.750000 0.792040
#
# Coordination Sequence:
#
# PCOD9502778 Si02
#       6
#    16  16  16   8  16  16
#     4   9  20  36  55  79 108 142 185 232 281 338
#     4  11  22  36  53  75 102 138 183 229 275 329
#     4  10  20  35  52  74 103 138 180 228 284 340
#     4  12  24  38  52  70  99 138 181 230 280 328
#     4  10  21  37  59  89 122 154 188 224 267 322
#     4  10  21  38  58  83 114 149 185 225 276 329
#
# _framework density 17.992270999999999
#
# number of rings (size 3 to 8) (size 9 to 14) (size 15 to 20)
#    0.000    1.818    0.000    5.727    1.273    5.818 
#    0.000    1.818    0.000    0.545    0.000    3.818 
#    0.000    0.000    0.000    0.000    0.000    0.000 
#
# Total GULP energy -245627.308015 kJ/mol
# GULP energy per Si atom -5582.438819 kJ/mol
# Density = 1.795132 g / cm^3
# Si number density = 17.992271 Si / 1000 Ang^3
#
#
#
# Elastic Constant Matrix: (Units=GPa)
#
#
# Indices 1 2 3 4 5 6 
#
# 1 141.3390 32.6753 45.1815 0.0000 0.0000 0.0000
# 2 32.6753 74.5740 19.9240 0.0000 0.0000 0.0000
# 3 45.1815 19.9240 64.7995 0.0000 0.0000 0.0000
# 4 0.0000 0.0000 0.0000 32.9253 0.0000 0.0000
# 5 0.0000 0.0000 0.0000 0.0000 2.6590 0.0000
# 6 0.0000 0.0000 0.0000 0.0000 0.0000 27.7113
#
#
#
# Elastic Compliance Matrix: (Units=1/GPa)
#
#
# Indices 1 2 3 4 5 6 
#
# 1 0.009553 -0.002621 -0.005855 0.000000 0.000000 0.000000
# 2 -0.002621 0.015329 -0.002885 0.000000 0.000000 0.000000
# 3 -0.005855 -0.002885 0.020402 0.000000 0.000000 0.000000
# 4 0.000000 0.000000 0.000000 0.030372 0.000000 0.000000
# 5 0.000000 0.000000 0.000000 0.000000 0.376088 0.000000
# 6 0.000000 0.000000 0.000000 0.000000 0.000000 0.036086
#
#
# Mechanical properties :
#
#
# Convention : Reuss Voigt Hill
#
# Bulk Modulus (GPa) = 44.32565 52.91932 48.62249
# Shear Modulus (GPa) = 9.65116 24.85456 17.25286
#
# Velocity S-wave (km/s) = 2.31856 3.72075 3.09998
# Velocity P-wave (km/s) = 5.64420 6.92350 6.31632
#
# Compressibility (1/GPa) = 0.02256030
#
# Stress axis : x y z
#
# Youngs Moduli (GPa) = 104.68182 65.23577 49.01586
#
# Poissons Ratio (x) = 0.17101 0.28697
# Poissons Ratio (y) = 0.27442 0.14143
# Poissons Ratio (z) = 0.61287 0.18823
#
# Static dielectric constant tensor:
#      x y z
#    x 1.608420 0.000000 0.000000 
#    y 0.000000 1.599840 0.000000 
#    z 0.000000 0.000000 1.610480 
# 
# From -- ./inp_files/32408.got.cif
#   From: 2010.05.17/outbox.cif.g08.bks.cpg/sg67_17_cif.got.tgz:32408.got - 2010.06.03 18:28:57.
