data_PCOD9502392
_publ_section_title
;
Structure prediction by ZEFSAII (Michael W. Deem and Ramdas Pophale) SiO2 
 PCOD9502392
Probable space group: C M M A
;
_chemical_formula_sum "Si O2"
_cell_formula_units_Z 96
_cell_length_a 19.102590
_cell_length_b 8.696022
_cell_length_c 32.227986
_cell_angle_alpha 90.000000
_cell_angle_beta 90.000000
_cell_angle_gamma 90.000000
_cell_volume 5353.601619
_symmetry_space_group_name_H-M "C M M A"
_symmetry_group_IT_number 67
_symmetry_cell_setting 'orthorhombic'
loop_
_space_group_symop_operation_xyz
x,y,z
-x,1/2-y,z
x,-y,-z
-x,1/2+y,-z
-x,-y,-z
x,1/2+y,-z
-x,y,z
x,1/2-y,z
1/2+x,1/2+y,z
1/2-x,-y,z
1/2+x,1/2-y,-z
1/2-x,y,-z
1/2-x,1/2-y,-z
1/2+x,y,-z
1/2-x,1/2+y,z
1/2+x,-y,z
loop_
_atom_site_type_symbol
_atom_site_label
_atom_site_fract_x
_atom_site_fract_y
_atom_site_fract_z
Si Si1 0.171798 0.565137 0.788837
Si Si2 0.828784 0.065765 0.633838
Si Si3 0.671991 0.435102 0.122840
Si Si4 0.419117 0.064311 0.708956
Si Si5 0.918959 0.435192 0.956275
Si Si6 0.329002 0.066302 0.458154
O O1 0.175656 0.750000 0.791109
O O2 0.250000 0.500000 0.781787
O O3 0.146494 0.499890 0.832999
O O4 0.121582 0.520294 0.751010
O O5 0.824504 0.250000 0.636451
O O6 0.857159 0.025924 0.587560
O O7 0.750000 0.000000 0.638151
O O8 0.877866 0.001921 0.669731
O O9 0.825903 0.750000 0.124881
O O10 0.750000 0.500000 0.117143
O O11 0.624874 0.482861 0.083865
O O12 0.500000 0.014951 0.709665
O O13 0.417488 0.250000 0.706605
O O14 0.917375 0.250000 0.958248
O O15 0.000000 0.484186 0.951966
O O16 0.891940 0.500000 0.000000
O O17 0.326039 0.250000 0.461694
O O18 0.363248 0.000000 0.500000
O O19 0.250000 0.000000 0.457384
#
# Coordination Sequence:
#
# PCOD9502392 Si02
#       6
#    16  16  16  16  16  16
#     4  10  20  35  55  77 102 132 168 208 252 304
#     4  10  20  33  52  78 105 136 173 212 255 305
#     4  10  20  34  53  77 104 132 165 206 251 299
#     4  10  22  38  54  75 104 136 171 213 259 307
#     4   9  19  35  53  74 101 134 171 208 246 291
#     4   9  16  26  43  70 101 130 164 206 251 298
#
# _framework density 17.931853
#
# number of rings (size 3 to 8) (size 9 to 14) (size 15 to 20)
#    0.000    2.333    0.000    4.000    0.000    7.333 
#    0.000    1.667    0.000    0.500    0.000    0.000 
#    0.000    0.000    0.000    0.000    0.000    0.000 
#
# Total GULP energy -267727.617190 kJ/mol
# GULP energy per Si atom -5577.658691 kJ/mol
# Density = 1.789104 g / cm^3
# Si number density = 17.931853 Si / 1000 Ang^3
#
#
#
# Elastic Constant Matrix: (Units=GPa)
#
#
# Indices 1 2 3 4 5 6 
#
# 1 73.1830 27.1369 96.2014 0.0000 0.0000 0.0000
# 2 27.1369 41.5893 55.0903 0.0000 0.0000 0.0000
# 3 96.2014 55.0903 228.9825 0.0000 0.0000 0.0000
# 4 0.0000 0.0000 0.0000 37.9120 0.0000 0.0000
# 5 0.0000 0.0000 0.0000 0.0000 -15.7022 0.0000
# 6 0.0000 0.0000 0.0000 0.0000 0.0000 16.9902
#
#
#
# Elastic Compliance Matrix: (Units=1/GPa)
#
#
# Indices 1 2 3 4 5 6 
#
# 1 0.031052 -0.004375 -0.011993 0.000000 0.000000 0.000000
# 2 -0.004375 0.035908 -0.006801 0.000000 0.000000 0.000000
# 3 -0.011993 -0.006801 0.011042 0.000000 0.000000 0.000000
# 4 0.000000 0.000000 0.000000 0.026377 0.000000 0.000000
# 5 0.000000 0.000000 0.000000 0.000000 -0.063685 0.000000
# 6 0.000000 0.000000 0.000000 0.000000 0.000000 0.058858
#
#
# Mechanical properties :
#
#
# Convention : Reuss Voigt Hill
#
# Bulk Modulus (GPa) = 31.58163 77.84577 54.71370
# Shear Modulus (GPa) = 31.96024 18.86174 25.41099
#
# Velocity S-wave (km/s) = 4.22633 3.24675 3.76850
# Velocity P-wave (km/s) = 6.43942 7.58693 7.03660
#
# Compressibility (1/GPa) = 0.03166398
#
# Stress axis : x y z
#
# Youngs Moduli (GPa) = 32.20390 27.84894 90.56271
#
# Poissons Ratio (x) = 0.12183 1.08614
# Poissons Ratio (y) = 0.14089 0.61592
# Poissons Ratio (z) = 0.38623 0.18940
#
# Static dielectric constant tensor:
#      x y z
#    x 1.584040 0.000000 0.000000 
#    y 0.000000 1.605560 0.000000 
#    z 0.000000 0.000000 1.637680 
# 
# From -- ./inp_files/44610.got.cif
#   From: 2010.05.17/outbox.cif.g08.bks.cpg/sg67_23_cif.got.tgz:44610.got - 2010.06.03 18:28:57.
