data_PCOD9502791
_publ_section_title
;
Structure prediction by ZEFSAII (Michael W. Deem and Ramdas Pophale) SiO2 
 PCOD9502791
Probable space group: C M M A
;
_chemical_formula_sum "Si O2"
_cell_formula_units_Z 72
_cell_length_a 32.021632
_cell_length_b 8.500563
_cell_length_c 14.601833
_cell_angle_alpha 90.000000
_cell_angle_beta 90.000000
_cell_angle_gamma 90.000000
_cell_volume 3974.646689
_symmetry_space_group_name_H-M "C M M A"
_symmetry_group_IT_number 67
_symmetry_cell_setting 'orthorhombic'
loop_
_space_group_symop_operation_xyz
x,y,z
-x,1/2-y,z
x,-y,-z
-x,1/2+y,-z
-x,-y,-z
x,1/2+y,-z
-x,y,z
x,1/2-y,z
1/2+x,1/2+y,z
1/2-x,-y,z
1/2+x,1/2-y,-z
1/2-x,y,-z
1/2-x,1/2-y,-z
1/2+x,y,-z
1/2-x,1/2+y,z
1/2+x,-y,z
loop_
_atom_site_type_symbol
_atom_site_label
_atom_site_fract_x
_atom_site_fract_y
_atom_site_fract_z
Si Si1 0.953405 0.940246 0.604020
Si Si2 0.591465 0.438981 0.103646
Si Si3 0.204271 0.062645 0.602491
Si Si4 0.627393 0.061520 0.718899
Si Si5 0.500000 0.560544 0.895923
O O1 0.953009 0.750000 0.603292
O O2 0.914289 0.994349 0.664536
O O3 0.000000 0.990980 0.636110
O O4 0.948503 0.000000 0.500000
O O5 0.592521 0.250000 0.102122
O O6 0.623734 0.504627 0.176839
O O7 0.545142 0.492477 0.139164
O O8 0.596923 0.500000 0.000000
O O9 0.205229 0.250000 0.599907
O O10 0.195786 0.000000 0.500000
O O11 0.250000 0.000000 0.629556
O O12 0.168025 0.003896 0.668837
O O13 0.628070 0.250000 0.715967
O O14 0.500000 0.750000 0.894144
O O15 0.500000 0.500000 0.000000
#
# Coordination Sequence:
#
# PCOD9502791 Si02
#       5
#    16  16  16  16   8
#     4   9  19  34  50  72 105 145 185 224 267 320
#     4  10  20  35  53  77 108 146 190 238 287 333
#     4  11  22  39  62  88 117 146 182 228 281 337
#     4  11  22  35  55  82 112 147 189 232 279 334
#     4   8  16  30  48  70  99 136 183 232 280 326
#
# _framework density 18.114816999999999
#
# number of rings (size 3 to 8) (size 9 to 14) (size 15 to 20)
#    0.000    2.000    0.000    4.667    1.556    4.444 
#    0.000    0.000    0.000    0.667    0.000    4.667 
#    0.000    0.000    0.000    0.000    0.000    0.000 
#
# Total GULP energy -200945.662133 kJ/mol
# GULP energy per Si atom -5581.823948 kJ/mol
# Density = 1.807359 g / cm^3
# Si number density = 18.114817 Si / 1000 Ang^3
#
#
#
# Elastic Constant Matrix: (Units=GPa)
#
#
# Indices 1 2 3 4 5 6 
#
# 1 139.7883 49.2563 98.0714 0.0000 0.0000 0.0000
# 2 49.2563 75.5895 35.7265 0.0000 0.0000 0.0000
# 3 98.0714 35.7265 107.5722 0.0000 0.0000 0.0000
# 4 0.0000 0.0000 0.0000 27.9869 0.0000 0.0000
# 5 0.0000 0.0000 0.0000 0.0000 30.0314 0.0000
# 6 0.0000 0.0000 0.0000 0.0000 0.0000 24.5854
#
#
#
# Elastic Compliance Matrix: (Units=1/GPa)
#
#
# Indices 1 2 3 4 5 6 
#
# 1 0.021735 -0.005691 -0.017925 0.000000 0.000000 0.000000
# 2 -0.005691 0.017183 -0.000518 0.000000 0.000000 0.000000
# 3 -0.017925 -0.000518 0.025810 0.000000 0.000000 0.000000
# 4 0.000000 0.000000 0.000000 0.035731 0.000000 0.000000
# 5 0.000000 0.000000 0.000000 0.000000 0.033299 0.000000
# 6 0.000000 0.000000 0.000000 0.000000 0.000000 0.040675
#
#
# Mechanical properties :
#
#
# Convention : Reuss Voigt Hill
#
# Bulk Modulus (GPa) = 60.75737 76.56205 68.65971
# Shear Modulus (GPa) = 21.91194 25.84711 23.87952
#
# Velocity S-wave (km/s) = 3.48172 3.78146 3.63468
# Velocity P-wave (km/s) = 7.05522 7.83726 7.45650
#
# Compressibility (1/GPa) = 0.01645891
#
# Stress axis : x y z
#
# Youngs Moduli (GPa) = 46.00974 58.19804 38.74461
#
# Poissons Ratio (x) = 0.33120 0.69449
# Poissons Ratio (y) = 0.26183 0.02009
# Poissons Ratio (z) = 0.82472 0.03017
#
# Static dielectric constant tensor:
#      x y z
#    x 1.636540 0.000000 0.000000 
#    y 0.000000 1.609650 0.000000 
#    z 0.000000 0.000000 1.601440 
# 
# From -- ./inp_files/30540.got.cif
#   From: 2010.05.17/outbox.cif.g08.bks.cpg/sg67_16_cif.got.tgz:30540.got - 2010.06.03 18:28:57.
