data_PCOD9502919
_publ_section_title
;
Structure prediction by ZEFSAII (Michael W. Deem and Ramdas Pophale) SiO2 
 PCOD9502919
Probable space group: C M M A
;
_chemical_formula_sum "Si O2"
_cell_formula_units_Z 96
_cell_length_a 18.541964
_cell_length_b 8.879729
_cell_length_c 31.877526
_cell_angle_alpha 90.000000
_cell_angle_beta 90.000000
_cell_angle_gamma 90.000000
_cell_volume 5248.558642
_symmetry_space_group_name_H-M "C M M A"
_symmetry_group_IT_number 67
_symmetry_cell_setting 'orthorhombic'
loop_
_space_group_symop_operation_xyz
x,y,z
-x,1/2-y,z
x,-y,-z
-x,1/2+y,-z
-x,-y,-z
x,1/2+y,-z
-x,y,z
x,1/2-y,z
1/2+x,1/2+y,z
1/2-x,-y,z
1/2+x,1/2-y,-z
1/2-x,y,-z
1/2-x,1/2-y,-z
1/2+x,y,-z
1/2-x,1/2+y,z
1/2+x,-y,z
loop_
_atom_site_type_symbol
_atom_site_label
_atom_site_fract_x
_atom_site_fract_y
_atom_site_fract_z
Si Si1 0.412254 0.576248 0.292733
Si Si2 0.583862 0.431100 0.955944
Si Si3 0.086384 0.928340 0.204907
Si Si4 0.913058 0.925762 0.380013
Si Si5 0.170332 0.070076 0.456350
Si Si6 0.829326 0.931049 0.872849
O O1 0.500000 0.574735 0.292796
O O2 0.389000 0.750000 0.293650
O O3 0.389979 0.496050 0.249690
O O4 0.389606 0.489709 0.334760
O O5 0.500000 0.475945 0.949795
O O6 0.586090 0.250000 0.958968
O O7 0.630502 0.476953 0.915881
O O8 0.608942 0.500000 0.000000
O O9 0.100211 0.750000 0.203912
O O10 0.000000 0.951330 0.201128
O O11 0.125946 0.009348 0.166780
O O12 0.893556 0.750000 0.383918
O O13 0.000000 0.937192 0.382138
O O14 0.877970 0.019798 0.417366
O O15 0.174807 0.250000 0.459686
O O16 0.141934 0.000000 0.500000
O O17 0.250000 0.000000 0.450550
O O18 0.826182 0.750000 0.871570
O O19 0.750000 0.000000 0.871896
#
# Coordination Sequence:
#
# PCOD9502919 Si02
#       6
#    16  16  16  16  16  16
#     4   9  17  31  53  81 111 143 179 220 268 320
#     4   9  19  36  58  82 107 138 178 223 269 319
#     4  10  20  35  57  83 109 141 182 224 267 319
#     4  10  20  35  56  83 114 145 180 224 272 322
#     4  11  22  38  58  79 107 143 184 226 272 326
#     4  11  23  38  55  78 111 147 183 224 272 323
#
# _framework density 18.290735999999999
#
# number of rings (size 3 to 8) (size 9 to 14) (size 15 to 20)
#    0.000    2.000    0.000    4.500    0.000    6.667 
#    0.000    4.167    0.000    0.000    0.000    0.000 
#    0.000    0.000    0.000    0.000    0.000    0.000 
#
# Total GULP energy -268068.545423 kJ/mol
# GULP energy per Si atom -5584.761363 kJ/mol
# Density = 1.824911 g / cm^3
# Si number density = 18.290736 Si / 1000 Ang^3
#
#
#
# Elastic Constant Matrix: (Units=GPa)
#
#
# Indices 1 2 3 4 5 6 
#
# 1 34.4725 45.2467 55.7107 0.0000 0.0000 0.0000
# 2 45.2467 130.5138 85.1652 0.0000 0.0000 0.0000
# 3 55.7107 85.1652 190.4393 0.0000 0.0000 0.0000
# 4 0.0000 0.0000 0.0000 39.7332 0.0000 0.0000
# 5 0.0000 0.0000 0.0000 0.0000 -28.7454 0.0000
# 6 0.0000 0.0000 0.0000 0.0000 0.0000 24.5527
#
#
#
# Elastic Compliance Matrix: (Units=1/GPa)
#
#
# Indices 1 2 3 4 5 6 
#
# 1 0.072981 -0.016055 -0.014170 0.000000 0.000000 0.000000
# 2 -0.016055 0.014351 -0.001721 0.000000 0.000000 0.000000
# 3 -0.014170 -0.001721 0.010166 0.000000 0.000000 0.000000
# 4 0.000000 0.000000 0.000000 0.025168 0.000000 0.000000
# 5 0.000000 0.000000 0.000000 0.000000 -0.034788 0.000000
# 6 0.000000 0.000000 0.000000 0.000000 0.000000 0.040729
#
#
# Mechanical properties :
#
#
# Convention : Reuss Voigt Hill
#
# Bulk Modulus (GPa) = 29.75632 80.85230 55.30431
# Shear Modulus (GPa) = 24.54580 18.39495 21.47038
#
# Velocity S-wave (km/s) = 3.66728 3.17471 3.42985
# Velocity P-wave (km/s) = 5.85113 7.59857 6.78137
#
# Compressibility (1/GPa) = 0.03360630
#
# Stress axis : x y z
#
# Youngs Moduli (GPa) = 13.70216 69.68122 98.36682
#
# Poissons Ratio (x) = 1.11871 1.39386
# Poissons Ratio (y) = 0.21998 0.16931
# Poissons Ratio (z) = 0.19416 0.11994
#
# Static dielectric constant tensor:
#      x y z
#    x 1.613590 0.000000 0.000000 
#    y 0.000000 1.612030 0.000000 
#    z 0.000000 0.000000 1.607520 
# 
# From -- ./inp_files/44601.got.cif
#   From: 2010.05.17/outbox.cif.g08.bks.cpg/sg67_23_cif.got.tgz:44601.got - 2010.06.03 18:28:57.
