data_PCOD9502987
_publ_section_title
;
Structure prediction by ZEFSAII (Michael W. Deem and Ramdas Pophale) SiO2 
 PCOD9502987
Probable space group: C M M A
;
_chemical_formula_sum "Si O2"
_cell_formula_units_Z 120
_cell_length_a 8.687317
_cell_length_b 26.642310
_cell_length_c 27.750395
_cell_angle_alpha 90.000000
_cell_angle_beta 90.000000
_cell_angle_gamma 90.000000
_cell_volume 6422.834267
_symmetry_space_group_name_H-M "C M M A"
_symmetry_group_IT_number 67
_symmetry_cell_setting 'orthorhombic'
loop_
_space_group_symop_operation_xyz
x,y,z
-x,1/2-y,z
x,-y,-z
-x,1/2+y,-z
-x,-y,-z
x,1/2+y,-z
-x,y,z
x,1/2-y,z
1/2+x,1/2+y,z
1/2-x,-y,z
1/2+x,1/2-y,-z
1/2-x,y,-z
1/2-x,1/2-y,-z
1/2+x,y,-z
1/2-x,1/2+y,z
1/2+x,-y,z
loop_
_atom_site_type_symbol
_atom_site_label
_atom_site_fract_x
_atom_site_fract_y
_atom_site_fract_z
Si Si1 0.184612 0.911220 0.049780
Si Si2 0.815330 0.052777 0.844830
Si Si3 0.813924 0.154105 0.610597
Si Si4 0.685853 0.195183 0.087705
Si Si5 0.315061 0.553742 0.553806
Si Si6 0.682177 0.843205 0.186828
Si Si7 0.183789 0.750000 0.553896
Si Si8 0.181943 0.308664 0.713324
O O1 0.228939 0.939638 0.098749
O O2 0.238721 0.853463 0.057942
O O3 0.000000 0.911493 0.047123
O O4 0.250000 0.931406 0.000000
O O5 0.745042 0.100124 0.817309
O O6 0.000000 0.054360 0.841690
O O7 0.750000 0.000000 0.827646
O O8 0.771664 0.100855 0.587128
O O9 0.742400 0.200307 0.581274
O O10 0.769956 0.159616 0.666635
O O11 0.000000 0.159107 0.608199
O O12 0.500000 0.194315 0.087322
O O13 0.738391 0.250000 0.070544
O O14 0.739819 0.186508 0.142561
O O15 0.500000 0.550864 0.551402
O O16 0.250000 0.500000 0.570616
O O17 0.250000 0.562128 0.500000
O O18 0.500000 0.842224 0.180040
O O19 0.728138 0.820972 0.238195
O O20 0.250000 0.750000 0.500000
O O21 0.000000 0.750000 0.552369
O O22 0.200816 0.250000 0.700885
O O23 0.000000 0.317335 0.722357
#
# Coordination Sequence:
#
# PCOD9502987 Si02
#       8
#    16  16  16  16  16  16   8  16
#     4   9  19  33  50  75 107 141 177 218 265 327
#     4  10  21  39  60  81 106 138 179 224 275 330
#     4  10  21  39  59  83 114 152 195 237 286 345
#     4   9  18  34  53  73 102 142 185 224 270 325
#     4  10  20  35  58  83 111 146 190 236 280 330
#     4  11  22  35  54  82 111 139 179 228 273 324
#     4  12  24  36  56  84 118 156 192 238 289 344
#     4  10  20  37  60  81 111 153 187 223 278 338
#
# _framework density 18.683340999999999
#
# number of rings (size 3 to 8) (size 9 to 14) (size 15 to 20)
#    0.000    2.000    0.667    4.600    0.000    8.000 
#    0.000    2.000    0.000    1.600    0.000    0.000 
#    0.000    0.000    0.000    0.000    0.000    0.000 
#
# Total GULP energy -335070.229949 kJ/mol
# GULP energy per Si atom -5584.503832 kJ/mol
# Density = 1.864082 g / cm^3
# Si number density = 18.683341 Si / 1000 Ang^3
#
#
#
# Elastic Constant Matrix: (Units=GPa)
#
#
# Indices 1 2 3 4 5 6 
#
# 1 18.9105 11.1910 4.5631 0.0000 0.0000 0.0000
# 2 11.1910 82.3649 3.1045 0.0000 0.0000 0.0000
# 3 4.5631 3.1045 61.9717 0.0000 0.0000 0.0000
# 4 0.0000 0.0000 0.0000 -3.5720 0.0000 0.0000
# 5 0.0000 0.0000 0.0000 0.0000 19.9235 0.0000
# 6 0.0000 0.0000 0.0000 0.0000 0.0000 21.8884
#
#
#
# Elastic Compliance Matrix: (Units=1/GPa)
#
#
# Indices 1 2 3 4 5 6 
#
# 1 0.058436 -0.007792 -0.003912 0.000000 0.000000 0.000000
# 2 -0.007792 0.013203 -0.000088 0.000000 0.000000 0.000000
# 3 -0.003912 -0.000088 0.016429 0.000000 0.000000 0.000000
# 4 0.000000 0.000000 0.000000 -0.279957 0.000000 0.000000
# 5 0.000000 0.000000 0.000000 0.000000 0.050192 0.000000
# 6 0.000000 0.000000 0.000000 0.000000 0.000000 0.045686
#
#
# Mechanical properties :
#
#
# Convention : Reuss Voigt Hill
#
# Bulk Modulus (GPa) = 15.50785 22.32938 18.91862
# Shear Modulus (GPa) = -98.17188 17.27387 -40.44901
#
# Velocity S-wave (km/s) = -7.25667 3.04396 -4.65798
# Velocity P-wave (km/s) = 7.86727 4.93271 4.33372
#
# Compressibility (1/GPa) = 0.06448346
#
# Stress axis : x y z
#
# Youngs Moduli (GPa) = 17.11264 75.73945 60.86849
#
# Poissons Ratio (x) = 0.59019 0.23814
# Poissons Ratio (y) = 0.13335 0.00534
# Poissons Ratio (z) = 0.06695 0.00664
#
# Static dielectric constant tensor:
#      x y z
#    x 2.020710 0.000000 0.000000 
#    y 0.000000 1.659670 0.000000 
#    z 0.000000 0.000000 1.623640 
# 
# From -- ./inp_files/43885.got.cif
#   From: 2010.05.17/outbox.cif.g08.bks.cpg/sg67_22_cif.got.tgz:43885.got - 2010.06.03 18:28:57.
