data_PCOD9502548
_publ_section_title
;
Structure prediction by ZEFSAII (Michael W. Deem and Ramdas Pophale) SiO2 
 PCOD9502548
Probable space group: C M M A
;
_chemical_formula_sum "Si O2"
_cell_formula_units_Z 112
_cell_length_a 14.709738
_cell_length_b 15.530960
_cell_length_c 26.237736
_cell_angle_alpha 90.000000
_cell_angle_beta 90.000000
_cell_angle_gamma 90.000000
_cell_volume 5994.177464
_symmetry_space_group_name_H-M "C M M A"
_symmetry_group_IT_number 67
_symmetry_cell_setting 'orthorhombic'
loop_
_space_group_symop_operation_xyz
x,y,z
-x,1/2-y,z
x,-y,-z
-x,1/2+y,-z
-x,-y,-z
x,1/2+y,-z
-x,y,z
x,1/2-y,z
1/2+x,1/2+y,z
1/2-x,-y,z
1/2+x,1/2-y,-z
1/2-x,y,-z
1/2-x,1/2-y,-z
1/2+x,y,-z
1/2-x,1/2+y,z
1/2+x,-y,z
loop_
_atom_site_type_symbol
_atom_site_label
_atom_site_fract_x
_atom_site_fract_y
_atom_site_fract_z
Si Si1 0.603661 0.147198 0.326188
Si Si2 0.651994 0.476472 0.127712
Si Si3 0.607320 0.345214 0.922345
Si Si4 0.106564 0.346986 0.783829
Si Si5 0.776480 0.902533 0.422035
Si Si6 0.395137 0.350613 0.517312
Si Si7 0.610037 0.850562 0.961876
O O1 0.500000 0.113914 0.335780
O O2 0.596836 0.250000 0.321654
O O3 0.641853 0.119000 0.270765
O O4 0.671093 0.129773 0.372500
O O5 0.750000 0.500000 0.147735
O O6 0.615430 0.570670 0.112538
O O7 0.611266 0.414373 0.170360
O O8 0.653874 0.417806 0.076825
O O9 0.500000 0.334947 0.929379
O O10 0.642511 0.250000 0.905246
O O11 0.641854 0.362673 0.979824
O O12 0.142427 0.250000 0.796354
O O13 0.000000 0.336753 0.773556
O O14 0.680804 0.858513 0.438221
O O15 0.847220 0.896334 0.469292
O O16 0.750000 0.000000 0.413684
O O17 0.500000 0.378998 0.527638
O O18 0.399792 0.250000 0.503530
O O19 0.500000 0.864573 0.958816
O O20 0.626060 0.750000 0.948420
#
# Coordination Sequence:
#
# PCOD9502548 Si02
#       7
#    16  16  16  16  16  16  16
#     4   9  18  35  59  82 102 129 171 223 276 325
#     4  12  23  31  47  75 107 136 163 204 262 318
#     4   9  19  35  52  71  98 135 175 207 243 306
#     4   9  19  37  60  81  98 124 171 227 272 309
#     4  11  21  31  50  78 112 147 176 215 266 316
#     4  10  20  34  52  75 107 148 190 224 257 306
#     4   9  18  34  55  74  94 127 172 217 257 302
#
# _framework density 18.684799000000002
#
# number of rings (size 3 to 8) (size 9 to 14) (size 15 to 20)
#    0.000    2.143    0.000    6.857    0.000    8.000 
#    0.000    1.429    0.000    0.000    0.000    0.000 
#    0.000    9.143    0.000    0.000    0.000    0.000 
#
# Total GULP energy -311801.104879 kJ/mol
# GULP energy per Si atom -5567.876873 kJ/mol
# Density = 1.864227 g / cm^3
# Si number density = 18.684799 Si / 1000 Ang^3
#
#
#
# Elastic Constant Matrix: (Units=GPa)
#
#
# Indices 1 2 3 4 5 6 
#
# 1 75.0977 14.7272 32.0402 0.0000 0.0000 0.0000
# 2 14.7272 77.8848 57.4238 0.0000 0.0000 0.0000
# 3 32.0402 57.4238 116.1237 0.0000 0.0000 0.0000
# 4 0.0000 0.0000 0.0000 6.1114 0.0000 0.0000
# 5 0.0000 0.0000 0.0000 0.0000 18.9882 0.0000
# 6 0.0000 0.0000 0.0000 0.0000 0.0000 -4.5521
#
#
#
# Elastic Compliance Matrix: (Units=1/GPa)
#
#
# Indices 1 2 3 4 5 6 
#
# 1 0.015098 0.000341 -0.004334 0.000000 0.000000 0.000000
# 2 0.000341 0.020214 -0.010090 0.000000 0.000000 0.000000
# 3 -0.004334 -0.010090 0.014797 0.000000 0.000000 0.000000
# 4 0.000000 0.000000 0.000000 0.163628 0.000000 0.000000
# 5 0.000000 0.000000 0.000000 0.000000 0.052664 0.000000
# 6 0.000000 0.000000 0.000000 0.000000 0.000000 -0.219678
#
#
# Mechanical properties :
#
#
# Convention : Reuss Voigt Hill
#
# Bulk Modulus (GPa) = 45.57402 53.05429 49.31416
# Shear Modulus (GPa) = 60.82249 15.10384 37.96316
#
# Velocity S-wave (km/s) = 5.71161 2.84623 4.51240
# Velocity P-wave (km/s) = 8.24261 6.26557 7.32113
#
# Compressibility (1/GPa) = 0.02194232
#
# Stress axis : x y z
#
# Youngs Moduli (GPa) = 66.23217 49.46962 67.58102
#
# Poissons Ratio (x) = -0.01686 0.29292
# Poissons Ratio (y) = -0.02257 0.68190
# Poissons Ratio (z) = 0.28707 0.49916
#
# Static dielectric constant tensor:
#      x y z
#    x 1.731010 0.000000 0.000000 
#    y 0.000000 -2.821220 0.000000 
#    z 0.000000 0.000000 1.670550 
# 
# From -- ./inp_files/41924.got.cif
#   From: 2010.05.17/outbox.cif.g08.bks.cpg/sg67_21_cif.got.tgz:41924.got - 2010.06.03 18:28:57.
