data_PCOD9502066
_publ_section_title
;
Structure prediction by ZEFSAII (Michael W. Deem and Ramdas Pophale) SiO2 
 PCOD9502066
Probable space group: C M M A
;
_chemical_formula_sum "Si O2"
_cell_formula_units_Z 48
_cell_length_a 11.562485
_cell_length_b 26.059066
_cell_length_c 7.215220
_cell_angle_alpha 90.000000
_cell_angle_beta 90.000000
_cell_angle_gamma 90.000000
_cell_volume 2174.000331
_symmetry_space_group_name_H-M "C M M A"
_symmetry_group_IT_number 67
_symmetry_cell_setting 'orthorhombic'
loop_
_space_group_symop_operation_xyz
x,y,z
-x,1/2-y,z
x,-y,-z
-x,1/2+y,-z
-x,-y,-z
x,1/2+y,-z
-x,y,z
x,1/2-y,z
1/2+x,1/2+y,z
1/2-x,-y,z
1/2+x,1/2-y,-z
1/2-x,y,-z
1/2-x,1/2-y,-z
1/2+x,y,-z
1/2-x,1/2+y,z
1/2+x,-y,z
loop_
_atom_site_type_symbol
_atom_site_label
_atom_site_fract_x
_atom_site_fract_y
_atom_site_fract_z
Si Si1 0.250000 0.139996 0.500000
Si Si2 0.183040 0.071357 0.825357
Si Si3 0.500000 0.992863 0.222582
Si Si4 0.500000 0.311070 0.575485
Si Si5 0.000000 0.882251 0.912345
O O1 0.254209 0.103436 0.678887
O O2 0.375068 0.169156 0.493772
O O3 0.110206 0.026970 0.720597
O O4 0.250000 0.049184 0.000000
O O5 0.103430 0.110895 0.941427
O O6 0.500000 0.931696 0.231212
O O7 0.500000 0.000000 0.000000
O O8 0.500000 0.250000 0.566650
O O9 0.500000 0.332589 0.786266
#
# Coordination Sequence:
#
# PCOD9502066 Si02
#       5
#     8  16   8   8   8
#     4  12  25  46  75 102 144 176 236 296 354 414
#     4  10  19  39  67  98 138 178 222 270 348 419
#     4   8  19  35  64  94 143 185 220 266 348 407
#     4  12  26  48  72 101 134 187 239 301 354 405
#     4  10  21  43  67  95 143 191 233 281 346 419
#
# _framework density 22.079114000000001
#
# number of rings (size 3 to 8) (size 9 to 14) (size 15 to 20)
#    0.000    2.000    3.333    2.500    0.000    6.000 
#    0.000   11.667    0.000    0.000    0.000    0.000 
#    0.000    0.000    0.000    0.000    0.000    0.000 
#
# Total GULP energy -133688.274573 kJ/mol
# GULP energy per Si atom -5570.344774 kJ/mol
# Density = 2.202886 g / cm^3
# Si number density = 22.079114 Si / 1000 Ang^3
#
#
#
# Elastic Constant Matrix: (Units=GPa)
#
#
# Indices 1 2 3 4 5 6 
#
# 1 157.0931 65.6579 38.4244 0.0000 0.0000 0.0000
# 2 65.6579 131.1632 48.0135 0.0000 0.0000 0.0000
# 3 38.4244 48.0135 82.1393 0.0000 0.0000 0.0000
# 4 0.0000 0.0000 0.0000 12.0039 0.0000 0.0000
# 5 0.0000 0.0000 0.0000 0.0000 29.3592 0.0000
# 6 0.0000 0.0000 0.0000 0.0000 0.0000 -227.5132
#
#
#
# Elastic Compliance Matrix: (Units=1/GPa)
#
#
# Indices 1 2 3 4 5 6 
#
# 1 0.008263 -0.003462 -0.001842 0.000000 0.000000 0.000000
# 2 -0.003462 0.011150 -0.004898 0.000000 0.000000 0.000000
# 3 -0.001842 -0.004898 0.015899 0.000000 0.000000 0.000000
# 4 0.000000 0.000000 0.000000 0.083306 0.000000 0.000000
# 5 0.000000 0.000000 0.000000 0.000000 0.034061 0.000000
# 6 0.000000 0.000000 0.000000 0.000000 0.000000 -0.004395
#
#
# Mechanical properties :
#
#
# Convention : Reuss Voigt Hill
#
# Bulk Modulus (GPa) = 67.07597 74.95412 71.01504
# Shear Modulus (GPa) = 28.79227 -22.67670 3.05778
#
# Velocity S-wave (km/s) = 3.61508 -3.20826 1.17810
# Velocity P-wave (km/s) = 6.91888 4.50530 5.83818
#
# Compressibility (1/GPa) = 0.01490847
#
# Stress axis : x y z
#
# Youngs Moduli (GPa) = 121.01883 89.68439 62.89667
#
# Poissons Ratio (x) = 0.31051 0.11584
# Poissons Ratio (y) = 0.41899 0.30807
# Poissons Ratio (z) = 0.22288 0.43928
#
# Static dielectric constant tensor:
#      x y z
#    x 2.221070 0.000000 0.000000 
#    y 0.000000 1.811180 0.000000 
#    z 0.000000 0.000000 1.761210 
# 
# From -- ./inp_files/6308.got.cif
#   From: 2010.05.17/outbox.cif.g08.bks.cpg/sg67_4_cif.got.tgz:6308.got - 2010.06.03 18:28:57.
