data_PCOD9502465
_publ_section_title
;
Structure prediction by ZEFSAII (Michael W. Deem and Ramdas Pophale) SiO2 
 PCOD9502465
Probable space group: C M M A
;
_chemical_formula_sum "Si O2"
_cell_formula_units_Z 80
_cell_length_a 8.654643
_cell_length_b 27.891855
_cell_length_c 19.291729
_cell_angle_alpha 90.000000
_cell_angle_beta 90.000000
_cell_angle_gamma 90.000000
_cell_volume 4656.908549
_symmetry_space_group_name_H-M "C M M A"
_symmetry_group_IT_number 67
_symmetry_cell_setting 'orthorhombic'
loop_
_space_group_symop_operation_xyz
x,y,z
-x,1/2-y,z
x,-y,-z
-x,1/2+y,-z
-x,-y,-z
x,1/2+y,-z
-x,y,z
x,1/2-y,z
1/2+x,1/2+y,z
1/2-x,-y,z
1/2+x,1/2-y,-z
1/2-x,y,-z
1/2-x,1/2-y,-z
1/2+x,y,-z
1/2-x,1/2+y,z
1/2+x,-y,z
loop_
_atom_site_type_symbol
_atom_site_label
_atom_site_fract_x
_atom_site_fract_y
_atom_site_fract_z
Si Si1 0.313426 0.149443 0.782302
Si Si2 0.813885 0.694140 0.926363
Si Si3 0.686300 0.303355 0.354192
Si Si4 0.814647 0.098535 0.575041
Si Si5 0.815154 0.551023 0.711242
O O1 0.500000 0.153196 0.779529
O O2 0.262248 0.165167 0.858626
O O3 0.245887 0.183441 0.722421
O O4 0.270717 0.095237 0.761234
O O5 0.767413 0.750000 0.918250
O O6 0.000000 0.692603 0.928822
O O7 0.750000 0.676770 0.000000
O O8 0.500000 0.303565 0.353093
O O9 0.738864 0.250000 0.374530
O O10 0.735288 0.347135 0.403809
O O11 0.750000 0.086067 0.500000
O O12 0.751050 0.064712 0.635744
O O13 0.000000 0.096499 0.574737
O O14 0.750000 0.500000 0.733775
O O15 0.000000 0.549120 0.707489
#
# Coordination Sequence:
#
# PCOD9502465 Si02
#       5
#    16  16  16  16  16
#     4   9  18  32  50  71  96 126 160 198 237 281
#     4   9  17  29  46  71 102 132 160 190 226 270
#     4   9  18  31  47  69  97 128 161 196 234 278
#     4  10  20  34  50  70  97 126 158 196 238 284
#     4  10  20  35  54  74  94 119 155 198 245 291
#
# _framework density 17.178778999999999
#
# number of rings (size 3 to 8) (size 9 to 14) (size 15 to 20)
#    0.000    2.600    0.000    1.800    0.000    4.400 
#    0.000    4.000    0.000    0.600    0.000    4.200 
#    0.000    0.000    0.000    0.000    0.000    0.000 
#
# Total GULP energy -223099.298421 kJ/mol
# GULP energy per Si atom -5577.482461 kJ/mol
# Density = 1.713968 g / cm^3
# Si number density = 17.178779 Si / 1000 Ang^3
#
#
#
# Elastic Constant Matrix: (Units=GPa)
#
#
# Indices 1 2 3 4 5 6 
#
# 1 18.2573 14.4539 14.8940 0.0000 0.0000 0.0000
# 2 14.4539 63.1647 12.1906 0.0000 0.0000 0.0000
# 3 14.8940 12.1906 100.8090 0.0000 0.0000 0.0000
# 4 0.0000 0.0000 0.0000 8.7335 0.0000 0.0000
# 5 0.0000 0.0000 0.0000 0.0000 24.1389 0.0000
# 6 0.0000 0.0000 0.0000 0.0000 0.0000 19.3209
#
#
#
# Elastic Compliance Matrix: (Units=1/GPa)
#
#
# Indices 1 2 3 4 5 6 
#
# 1 0.074285 -0.015236 -0.009133 0.000000 0.000000 0.000000
# 2 -0.015236 0.019335 -0.000087 0.000000 0.000000 0.000000
# 3 -0.009133 -0.000087 0.011280 0.000000 0.000000 0.000000
# 4 0.000000 0.000000 0.000000 0.114501 0.000000 0.000000
# 5 0.000000 0.000000 0.000000 0.000000 0.041427 0.000000
# 6 0.000000 0.000000 0.000000 0.000000 0.000000 0.051757
#
#
# Mechanical properties :
#
#
# Convention : Reuss Voigt Hill
#
# Bulk Modulus (GPa) = 17.86104 29.47867 23.66986
# Shear Modulus (GPa) = 13.15240 19.81818 16.48529
#
# Velocity S-wave (km/s) = 2.76998 3.40022 3.10115
# Velocity P-wave (km/s) = 4.54424 5.71073 5.16055
#
# Compressibility (1/GPa) = 0.05598778
#
# Stress axis : x y z
#
# Youngs Moduli (GPa) = 13.46170 51.72010 88.65570
#
# Poissons Ratio (x) = 0.78800 0.80967
# Poissons Ratio (y) = 0.20510 0.00772
# Poissons Ratio (z) = 0.12294 0.00450
#
# Static dielectric constant tensor:
#      x y z
#    x 1.577600 0.000000 0.000000 
#    y 0.000000 1.594850 0.000000 
#    z 0.000000 0.000000 1.556110 
# 
# From -- ./inp_files/32111.got.cif
#   From: 2010.05.17/outbox.cif.g08.bks.cpg/sg67_17_cif.got.tgz:32111.got - 2010.06.03 18:28:57.
