data_PCOD9502111
_publ_section_title
;
Structure prediction by ZEFSAII (Michael W. Deem and Ramdas Pophale) SiO2 
 PCOD9502111
Probable space group: C M M A
;
_chemical_formula_sum "Si O2"
_cell_formula_units_Z 80
_cell_length_a 9.075095
_cell_length_b 31.117442
_cell_length_c 20.932595
_cell_angle_alpha 90.000000
_cell_angle_beta 90.000000
_cell_angle_gamma 90.000000
_cell_volume 5911.233838
_symmetry_space_group_name_H-M "C M M A"
_symmetry_group_IT_number 67
_symmetry_cell_setting 'orthorhombic'
loop_
_space_group_symop_operation_xyz
x,y,z
-x,1/2-y,z
x,-y,-z
-x,1/2+y,-z
-x,-y,-z
x,1/2+y,-z
-x,y,z
x,1/2-y,z
1/2+x,1/2+y,z
1/2-x,-y,z
1/2+x,1/2-y,-z
1/2-x,y,-z
1/2-x,1/2-y,-z
1/2+x,y,-z
1/2-x,1/2+y,z
1/2+x,-y,z
loop_
_atom_site_type_symbol
_atom_site_label
_atom_site_fract_x
_atom_site_fract_y
_atom_site_fract_z
Si Si1 0.324110 0.861869 0.569869
Si Si2 0.175067 0.301212 0.326971
Si Si3 0.169435 0.197758 0.805226
Si Si4 0.675605 0.458405 0.429846
Si Si5 0.170264 0.697614 0.934848
O O1 0.500000 0.856135 0.563583
O O2 0.250000 0.858453 0.500000
O O3 0.254765 0.827537 0.617571
O O4 0.298615 0.910464 0.596303
O O5 0.200590 0.250000 0.334883
O O6 0.241077 0.314176 0.258171
O O7 0.000000 0.308497 0.328465
O O8 0.168916 0.250000 0.806949
O O9 0.245940 0.183416 0.870858
O O10 0.000000 0.183578 0.801448
O O11 0.500000 0.464915 0.435279
O O12 0.750000 0.500000 0.397466
O O13 0.750000 0.456470 0.500000
O O14 0.172472 0.750000 0.934674
O O15 0.000000 0.684442 0.934004
O O16 0.250000 0.683872 0.000000
#
# Coordination Sequence:
#
# PCOD9502111 Si02
#       5
#    16  16  16  16  16
#     4  10  20  32  45  61  79 100 128 162 199 238
#     4  10  20  32  44  57  74 100 134 169 203 237
#     4   9  16  26  39  53  70  94 124 158 195 233
#     4   9  16  26  42  62  81  99 119 146 185 233
#     4   9  15  22  33  50  71  93 119 153 191 229
#
# _framework density 13.533554000000001
#
# number of rings (size 3 to 8) (size 9 to 14) (size 15 to 20)
#    0.000    2.600    0.000    3.600    0.000    8.800 
#    0.000    0.000    0.000    0.000    0.000    0.000 
#    0.000    0.000    0.000    0.000    0.000    1.000 
#
# Total GULP energy -222725.689208 kJ/mol
# GULP energy per Si atom -5568.142230 kJ/mol
# Density = 1.350275 g / cm^3
# Si number density = 13.533554 Si / 1000 Ang^3
#
#
#
# Elastic Constant Matrix: (Units=GPa)
#
#
# Indices 1 2 3 4 5 6 
#
# 1 114.9835 48.1129 60.6733 0.0000 0.0000 0.0000
# 2 48.1129 45.0028 42.0252 0.0000 0.0000 0.0000
# 3 60.6733 42.0252 99.9643 0.0000 0.0000 0.0000
# 4 0.0000 0.0000 0.0000 -0.6364 0.0000 0.0000
# 5 0.0000 0.0000 0.0000 0.0000 25.9997 0.0000
# 6 0.0000 0.0000 0.0000 0.0000 0.0000 16.2744
#
#
#
# Elastic Compliance Matrix: (Units=1/GPa)
#
#
# Indices 1 2 3 4 5 6 
#
# 1 0.016817 -0.013907 -0.004360 0.000000 0.000000 0.000000
# 2 -0.013907 0.048084 -0.011773 0.000000 0.000000 0.000000
# 3 -0.004360 -0.011773 0.017600 0.000000 0.000000 0.000000
# 4 0.000000 0.000000 0.000000 -1.571410 0.000000 0.000000
# 5 0.000000 0.000000 0.000000 0.000000 0.038462 0.000000
# 6 0.000000 0.000000 0.000000 0.000000 0.000000 0.061446
#
#
# Mechanical properties :
#
#
# Convention : Reuss Voigt Hill
#
# Bulk Modulus (GPa) = 44.60684 62.39705 53.50195
# Shear Modulus (GPa) = -3.78373 15.60351 5.90989
#
# Velocity S-wave (km/s) = -1.67388 3.39919 2.09197
# Velocity P-wave (km/s) = 5.41257 7.84930 6.74194
#
# Compressibility (1/GPa) = 0.02241809
#
# Stress axis : x y z
#
# Youngs Moduli (GPa) = 59.46341 20.79704 56.81914
#
# Poissons Ratio (x) = 0.28923 0.24776
# Poissons Ratio (y) = 0.82698 0.66896
# Poissons Ratio (z) = 0.25929 0.24485
#
# Static dielectric constant tensor:
#      x y z
#    x 1.451980 0.000000 0.000000 
#    y 0.000000 1.447020 0.000000 
#    z 0.000000 0.000000 1.425930 
# 
# From -- ./inp_files/32131.got.cif
#   From: 2010.05.17/outbox.cif.g08.bks.cpg/sg67_17_cif.got.tgz:32131.got - 2010.06.03 18:28:57.
