data_PCOD9502931
_publ_section_title
;
Structure prediction by ZEFSAII (Michael W. Deem and Ramdas Pophale) SiO2 
 PCOD9502931
Probable space group: C M M A
;
_chemical_formula_sum "Si O2"
_cell_formula_units_Z 112
_cell_length_a 16.328193
_cell_length_b 24.831250
_cell_length_c 14.125764
_cell_angle_alpha 90.000000
_cell_angle_beta 90.000000
_cell_angle_gamma 90.000000
_cell_volume 5727.283138
_symmetry_space_group_name_H-M "C M M A"
_symmetry_group_IT_number 67
_symmetry_cell_setting 'orthorhombic'
loop_
_space_group_symop_operation_xyz
x,y,z
-x,1/2-y,z
x,-y,-z
-x,1/2+y,-z
-x,-y,-z
x,1/2+y,-z
-x,y,z
x,1/2-y,z
1/2+x,1/2+y,z
1/2-x,-y,z
1/2+x,1/2-y,-z
1/2-x,y,-z
1/2-x,1/2-y,-z
1/2+x,y,-z
1/2-x,1/2+y,z
1/2+x,-y,z
loop_
_atom_site_type_symbol
_atom_site_label
_atom_site_fract_x
_atom_site_fract_y
_atom_site_fract_z
Si Si1 0.400641 0.189415 0.274794
Si Si2 0.652182 0.811040 0.509099
Si Si3 0.402778 0.619041 0.337740
Si Si4 0.342613 0.981107 0.230665
Si Si5 0.400714 0.689623 0.159741
Si Si6 0.900841 0.914802 0.950252
Si Si7 0.596199 0.087611 0.161233
O O1 0.500000 0.188213 0.273990
O O2 0.375141 0.250000 0.246603
O O3 0.372592 0.180027 0.382354
O O4 0.368882 0.141746 0.207771
O O5 0.624139 0.750000 0.483120
O O6 0.750000 0.812425 0.500000
O O7 0.615833 0.855157 0.438715
O O8 0.500000 0.612456 0.325534
O O9 0.363321 0.561788 0.312104
O O10 0.373723 0.661910 0.257927
O O11 0.362250 0.950868 0.131878
O O12 0.250000 0.000000 0.235109
O O13 0.393564 0.036310 0.228473
O O14 0.500000 0.692655 0.163991
O O15 0.369067 0.750000 0.147737
O O16 0.382810 0.647152 0.076980
O O17 0.000000 0.923301 0.944316
O O18 0.871009 0.925630 0.056437
O O19 0.500000 0.097518 0.146453
#
# Coordination Sequence:
#
# PCOD9502931 Si02
#       7
#    16  16  16  16  16  16  16
#     4   9  19  36  58  85 113 146 192 237 280 343
#     4  10  21  36  60  89 119 153 187 230 289 349
#     4  10  20  36  59  86 114 148 192 239 287 342
#     4  11  23  36  56  81 110 149 189 243 290 344
#     4   8  14  26  48  80 113 139 173 225 278 327
#     4   9  18  33  53  80 112 148 191 234 277 337
#     4  10  20  35  57  79 109 151 190 235 284 337
#
# _framework density 19.555520999999999
#
# number of rings (size 3 to 8) (size 9 to 14) (size 15 to 20)
#    0.000    2.429    0.000    3.429    2.000    4.286 
#    0.000    3.571    0.000    2.571    0.000    3.000 
#    0.000    0.000    0.000    0.000    0.000    0.000 
#
# Total GULP energy -312453.690188 kJ/mol
# GULP energy per Si atom -5579.530182 kJ/mol
# Density = 1.951101 g / cm^3
# Si number density = 19.555521 Si / 1000 Ang^3
#
#
#
# Elastic Constant Matrix: (Units=GPa)
#
#
# Indices 1 2 3 4 5 6 
#
# 1 35.4809 22.1606 14.3264 0.0000 0.0000 0.0000
# 2 22.1606 125.5746 35.2250 0.0000 0.0000 0.0000
# 3 14.3264 35.2250 47.6531 0.0000 0.0000 0.0000
# 4 0.0000 0.0000 0.0000 26.6648 0.0000 0.0000
# 5 0.0000 0.0000 0.0000 0.0000 12.2194 0.0000
# 6 0.0000 0.0000 0.0000 0.0000 0.0000 2.6208
#
#
#
# Elastic Compliance Matrix: (Units=1/GPa)
#
#
# Indices 1 2 3 4 5 6 
#
# 1 0.033525 -0.003897 -0.007198 0.000000 0.000000 0.000000
# 2 -0.003897 0.010500 -0.006590 0.000000 0.000000 0.000000
# 3 -0.007198 -0.006590 0.028020 0.000000 0.000000 0.000000
# 4 0.000000 0.000000 0.000000 0.037503 0.000000 0.000000
# 5 0.000000 0.000000 0.000000 0.000000 0.081837 0.000000
# 6 0.000000 0.000000 0.000000 0.000000 0.000000 0.381558
#
#
# Mechanical properties :
#
#
# Convention : Reuss Voigt Hill
#
# Bulk Modulus (GPa) = 27.26683 39.12587 33.19635
# Shear Modulus (GPa) = 8.05755 17.43412 12.74583
#
# Velocity S-wave (km/s) = 2.03207 2.98907 2.55576
# Velocity P-wave (km/s) = 4.41353 5.65365 5.07164
#
# Compressibility (1/GPa) = 0.03667460
#
# Stress axis : x y z
#
# Youngs Moduli (GPa) = 29.82879 95.24182 35.68868
#
# Poissons Ratio (x) = 0.37116 0.25689
# Poissons Ratio (y) = 0.11624 0.23518
# Poissons Ratio (z) = 0.21471 0.62761
#
# Static dielectric constant tensor:
#      x y z
#    x 1.685170 0.000000 0.000000 
#    y 0.000000 1.699830 0.000000 
#    z 0.000000 0.000000 1.673420 
# 
# From -- ./inp_files/27593.got.cif
#   From: 2010.05.17/outbox.cif.g08.bks.cpg/sg67_14_cif.got.tgz:27593.got - 2010.06.03 18:28:57.
