data_PCOD9502516
_publ_section_title
;
Structure prediction by ZEFSAII (Michael W. Deem and Ramdas Pophale) SiO2 
 PCOD9502516
Probable space group: C M M A
;
_chemical_formula_sum "Si O2"
_cell_formula_units_Z 80
_cell_length_a 19.415121
_cell_length_b 8.272300
_cell_length_c 26.625003
_cell_angle_alpha 90.000000
_cell_angle_beta 90.000000
_cell_angle_gamma 90.000000
_cell_volume 4276.180639
_symmetry_space_group_name_H-M "C M M A"
_symmetry_group_IT_number 67
_symmetry_cell_setting 'orthorhombic'
loop_
_space_group_symop_operation_xyz
x,y,z
-x,1/2-y,z
x,-y,-z
-x,1/2+y,-z
-x,-y,-z
x,1/2+y,-z
-x,y,z
x,1/2-y,z
1/2+x,1/2+y,z
1/2-x,-y,z
1/2+x,1/2-y,-z
1/2-x,y,-z
1/2-x,1/2-y,-z
1/2+x,y,-z
1/2-x,1/2+y,z
1/2+x,-y,z
loop_
_atom_site_type_symbol
_atom_site_label
_atom_site_fract_x
_atom_site_fract_y
_atom_site_fract_z
Si Si1 0.920628 0.444996 0.757499
Si Si2 0.579077 0.445097 0.055784
Si Si3 0.828705 0.945677 0.148941
Si Si4 0.828675 0.943470 0.554620
Si Si5 0.079222 0.554744 0.647223
O O1 0.921722 0.250000 0.758796
O O2 0.870816 0.501486 0.801905
O O3 0.897342 0.498527 0.702204
O O4 0.000000 0.500730 0.764794
O O5 0.500000 0.499338 0.065032
O O6 0.578622 0.250000 0.056683
O O7 0.630450 0.501550 0.099221
O O8 0.599108 0.500000 0.000000
O O9 0.830040 0.750000 0.148948
O O10 0.750000 0.000000 0.149425
O O11 0.829454 0.750000 0.554875
O O12 0.874157 0.003289 0.601201
O O13 0.854190 0.000000 0.500000
O O14 0.750000 0.000000 0.559972
O O15 0.079810 0.750000 0.646794
O O16 0.000000 0.500738 0.640982
#
# Coordination Sequence:
#
# PCOD9502516 Si02
#       5
#    16  16  16  16  16
#     4   9  18  34  55  75  96 128 169 207 244 291
#     4   9  18  34  55  76  99 130 168 208 248 292
#     4  10  21  35  51  74 104 134 165 204 249 295
#     4  10  20  34  52  73 100 133 167 203 244 293
#     4   9  19  35  53  75 102 130 162 204 252 295
#
# _framework density 18.708283999999999
#
# number of rings (size 3 to 8) (size 9 to 14) (size 15 to 20)
#    0.000    2.600    0.000    1.800    0.000    7.200 
#    0.000    6.000    0.000    6.000    0.000    0.000 
#    0.000    0.000    0.000    0.000    0.000    0.000 
#
# Total GULP energy -223168.980580 kJ/mol
# GULP energy per Si atom -5579.224515 kJ/mol
# Density = 1.866570 g / cm^3
# Si number density = 18.708284 Si / 1000 Ang^3
#
#
#
# Elastic Constant Matrix: (Units=GPa)
#
#
# Indices 1 2 3 4 5 6 
#
# 1 108.6274 13.2342 128.5229 0.0000 0.0000 0.0000
# 2 13.2342 11.7109 19.5033 0.0000 0.0000 0.0000
# 3 128.5229 19.5033 222.1394 0.0000 0.0000 0.0000
# 4 0.0000 0.0000 0.0000 30.2191 0.0000 0.0000
# 5 0.0000 0.0000 0.0000 0.0000 10.3043 0.0000
# 6 0.0000 0.0000 0.0000 0.0000 0.0000 23.7259
#
#
#
# Elastic Compliance Matrix: (Units=1/GPa)
#
#
# Indices 1 2 3 4 5 6 
#
# 1 0.029509 -0.005756 -0.016568 0.000000 0.000000 0.000000
# 2 -0.005756 0.101137 -0.005549 0.000000 0.000000 0.000000
# 3 -0.016568 -0.005549 0.014575 0.000000 0.000000 0.000000
# 4 0.000000 0.000000 0.000000 0.033092 0.000000 0.000000
# 5 0.000000 0.000000 0.000000 0.000000 0.097047 0.000000
# 6 0.000000 0.000000 0.000000 0.000000 0.000000 0.042148
#
#
# Mechanical properties :
#
#
# Convention : Reuss Voigt Hill
#
# Bulk Modulus (GPa) = 11.17638 73.88871 42.53254
# Shear Modulus (GPa) = 12.40455 24.93101 18.66778
#
# Velocity S-wave (km/s) = 2.57777 3.65447 3.16228
# Velocity P-wave (km/s) = 3.85316 7.57547 6.00977
#
# Compressibility (1/GPa) = 0.08947444
#
# Stress axis : x y z
#
# Youngs Moduli (GPa) = 33.88764 9.88761 68.61289
#
# Poissons Ratio (x) = 0.05691 1.13677
# Poissons Ratio (y) = 0.19505 0.38076
# Poissons Ratio (z) = 0.56144 0.05487
#
# Static dielectric constant tensor:
#      x y z
#    x 1.628660 0.000000 0.000000 
#    y 0.000000 1.657620 0.000000 
#    z 0.000000 0.000000 1.638590 
# 
# From -- ./inp_files/43242.got.cif
#   From: 2010.05.17/outbox.cif.g08.bks.cpg/sg67_22_cif.got.tgz:43242.got - 2010.06.03 18:28:57.
