data_PCOD9502956
_publ_section_title
;
Structure prediction by ZEFSAII (Michael W. Deem and Ramdas Pophale) SiO2 
 PCOD9502956
Probable space group: C M M A
;
_chemical_formula_sum "Si O2"
_cell_formula_units_Z 96
_cell_length_a 29.154898
_cell_length_b 8.684664
_cell_length_c 20.944514
_cell_angle_alpha 90.000000
_cell_angle_beta 90.000000
_cell_angle_gamma 90.000000
_cell_volume 5303.161272
_symmetry_space_group_name_H-M "C M M A"
_symmetry_group_IT_number 67
_symmetry_cell_setting 'orthorhombic'
loop_
_space_group_symop_operation_xyz
x,y,z
-x,1/2-y,z
x,-y,-z
-x,1/2+y,-z
-x,-y,-z
x,1/2+y,-z
-x,y,z
x,1/2-y,z
1/2+x,1/2+y,z
1/2-x,-y,z
1/2+x,1/2-y,-z
1/2-x,y,-z
1/2-x,1/2-y,-z
1/2+x,y,-z
1/2-x,1/2+y,z
1/2+x,-y,z
loop_
_atom_site_type_symbol
_atom_site_label
_atom_site_fract_x
_atom_site_fract_y
_atom_site_fract_z
Si Si1 0.051607 0.565316 0.884147
Si Si2 0.800275 0.934341 0.429758
Si Si3 0.144610 0.933670 0.066027
Si Si4 0.198666 0.435523 0.805057
Si Si5 0.141878 0.566395 0.685244
Si Si6 0.552697 0.567128 0.740897
O O1 0.054847 0.750000 0.883807
O O2 0.093122 0.496073 0.924081
O O3 0.056959 0.502872 0.811945
O O4 0.000000 0.522124 0.905762
O O5 0.798292 0.750000 0.431796
O O6 0.810995 0.000000 0.500000
O O7 0.750000 0.000000 0.412214
O O8 0.836063 0.991836 0.377435
O O9 0.143365 0.750000 0.062730
O O10 0.174053 0.977971 0.128261
O O11 0.163625 0.000000 0.000000
O O12 0.198981 0.250000 0.799637
O O13 0.250000 0.500000 0.803600
O O14 0.170028 0.505057 0.746502
O O15 0.145116 0.750000 0.682080
O O16 0.089784 0.512922 0.696266
O O17 0.500000 0.544458 0.720418
O O18 0.561854 0.750000 0.744530
#
# Coordination Sequence:
#
# PCOD9502956 Si02
#       6
#    16  16  16  16  16  16
#     4  10  20  35  57  84 113 146 186 233 288 348
#     4  11  22  39  61  89 126 162 201 242 289 345
#     4  11  24  40  59  80 110 148 191 238 294 352
#     4  11  24  41  60  84 112 147 191 242 294 345
#     4  12  23  37  61  90 121 157 196 240 288 340
#     4  10  20  35  57  86 119 153 191 237 289 343
#
# _framework density 18.102409999999999
#
# number of rings (size 3 to 8) (size 9 to 14) (size 15 to 20)
#    0.000    1.167    1.667    6.000    0.000    4.667 
#    0.000    1.667    0.000    0.500    0.000    0.000 
#    0.000    0.000    0.000    0.000    0.000    0.000 
#
# Total GULP energy -268425.849759 kJ/mol
# GULP energy per Si atom -5592.205203 kJ/mol
# Density = 1.806121 g / cm^3
# Si number density = 18.102410 Si / 1000 Ang^3
#
#
#
# Elastic Constant Matrix: (Units=GPa)
#
#
# Indices 1 2 3 4 5 6 
#
# 1 89.9667 44.3748 45.3864 0.0000 0.0000 0.0000
# 2 44.3748 106.5700 39.7210 0.0000 0.0000 0.0000
# 3 45.3864 39.7210 76.5529 0.0000 0.0000 0.0000
# 4 0.0000 0.0000 0.0000 31.7455 0.0000 0.0000
# 5 0.0000 0.0000 0.0000 0.0000 33.3451 0.0000
# 6 0.0000 0.0000 0.0000 0.0000 0.0000 23.2578
#
#
#
# Elastic Compliance Matrix: (Units=1/GPa)
#
#
# Indices 1 2 3 4 5 6 
#
# 1 0.017238 -0.004176 -0.008053 0.000000 0.000000 0.000000
# 2 -0.004176 0.012645 -0.004085 0.000000 0.000000 0.000000
# 3 -0.008053 -0.004085 0.019957 0.000000 0.000000 0.000000
# 4 0.000000 0.000000 0.000000 0.031501 0.000000 0.000000
# 5 0.000000 0.000000 0.000000 0.000000 0.029989 0.000000
# 6 0.000000 0.000000 0.000000 0.000000 0.000000 0.042996
#
#
# Mechanical properties :
#
#
# Convention : Reuss Voigt Hill
#
# Bulk Modulus (GPa) = 58.10198 59.11712 58.60955
# Shear Modulus (GPa) = 25.94823 27.24349 26.59586
#
# Velocity S-wave (km/s) = 3.79015 3.88360 3.83716
# Velocity P-wave (km/s) = 7.16377 7.26895 7.21655
#
# Compressibility (1/GPa) = 0.01721112
#
# Stress axis : x y z
#
# Youngs Moduli (GPa) = 58.01292 79.08240 50.10782
#
# Poissons Ratio (x) = 0.33025 0.40351
# Poissons Ratio (y) = 0.24227 0.20470
# Poissons Ratio (z) = 0.46717 0.32307
#
# Static dielectric constant tensor:
#      x y z
#    x 1.616200 0.000000 0.000000 
#    y 0.000000 1.603100 0.000000 
#    z 0.000000 0.000000 1.602290 
# 
# From -- ./inp_files/37151.got.cif
#   From: 2010.05.17/outbox.cif.g08.bks.cpg/sg67_19_cif.got.tgz:37151.got - 2010.06.03 18:28:57.
