data_PCOD9502038
_publ_section_title
;
Structure prediction by ZEFSAII (Michael W. Deem and Ramdas Pophale) SiO2 
 PCOD9502038
Probable space group: C M M A
;
_chemical_formula_sum "Si O2"
_cell_formula_units_Z 116
_cell_length_a 18.054181
_cell_length_b 24.768955
_cell_length_c 13.181444
_cell_angle_alpha 90.000000
_cell_angle_beta 90.000000
_cell_angle_gamma 90.000000
_cell_volume 5894.520266
_symmetry_space_group_name_H-M "C M M A"
_symmetry_group_IT_number 67
_symmetry_cell_setting 'orthorhombic'
loop_
_space_group_symop_operation_xyz
x,y,z
-x,1/2-y,z
x,-y,-z
-x,1/2+y,-z
-x,-y,-z
x,1/2+y,-z
-x,y,z
x,1/2-y,z
1/2+x,1/2+y,z
1/2-x,-y,z
1/2+x,1/2-y,-z
1/2-x,y,-z
1/2-x,1/2-y,-z
1/2+x,y,-z
1/2-x,1/2+y,z
1/2+x,-y,z
loop_
_atom_site_type_symbol
_atom_site_label
_atom_site_fract_x
_atom_site_fract_y
_atom_site_fract_z
Si Si1 0.912668 0.810173 0.873388
Si Si2 0.330023 0.110340 0.729310
Si Si3 0.722230 0.313883 0.387139
Si Si4 0.415340 0.614113 0.664807
Si Si5 0.250000 0.500000 0.000000
Si Si6 0.188209 0.425301 0.828621
Si Si7 0.176756 0.190895 0.929940
Si Si8 0.915442 0.446666 0.452737
O O1 0.885567 0.750000 0.838724
O O2 0.878385 0.861092 0.815610
O O3 0.000000 0.811122 0.859264
O O4 0.890649 0.813109 0.991170
O O5 0.284015 0.159963 0.683311
O O6 0.267912 0.070647 0.773920
O O7 0.375123 0.080935 0.641078
O O8 0.720737 0.250000 0.383151
O O9 0.750000 0.330279 0.500000
O O10 0.643439 0.337593 0.351155
O O11 0.500000 0.627311 0.696540
O O12 0.377116 0.571883 0.744414
O O13 0.419284 0.591060 0.551054
O O14 0.197587 0.463386 0.926793
O O15 0.180339 0.363202 0.865911
O O16 0.174011 0.250000 0.877815
O O17 0.250000 0.190921 0.000000
O O18 0.878393 0.500000 0.500000
O O19 0.000000 0.460309 0.420825
#
# Coordination Sequence:
#
# PCOD9502038 Si02
#       8
#    16  16  16  16   4  16  16  16
#     4  10  20  33  56  91 123 153 198 252 305 366
#     4  11  20  37  61  89 118 162 201 250 301 364
#     4  10  20  36  58  88 124 164 202 239 294 363
#     4  10  23  43  62  89 125 163 208 255 302 360
#     4  12  24  44  56  94 132 148 200 264 320 378
#     4  11  24  38  64  91 120 161 202 258 309 374
#     4  10  19  38  60  82 115 158 203 249 304 359
#     4  10  22  40  61  85 122 162 205 255 305 360
#
# _framework density 19.679295
#
# number of rings (size 3 to 8) (size 9 to 14) (size 15 to 20)
#    0.000    1.655    3.448    0.828    1.931    3.034 
#    0.000    3.103    0.000    0.000    0.000    0.000 
#    0.000    0.000    0.000    0.000    0.000    0.000 
#
# Total GULP energy -323344.589021 kJ/mol
# GULP energy per Si atom -5574.906707 kJ/mol
# Density = 1.963450 g / cm^3
# Si number density = 19.679295 Si / 1000 Ang^3
#
#
#
# Elastic Constant Matrix: (Units=GPa)
#
#
# Indices 1 2 3 4 5 6 
#
# 1 98.3550 22.1672 34.5050 0.0000 0.0000 0.0000
# 2 22.1672 61.4907 29.0659 0.0000 0.0000 0.0000
# 3 34.5050 29.0659 90.8874 0.0000 0.0000 0.0000
# 4 0.0000 0.0000 0.0000 30.5393 0.0000 0.0000
# 5 0.0000 0.0000 0.0000 0.0000 17.0035 0.0000
# 6 0.0000 0.0000 0.0000 0.0000 0.0000 11.0585
#
#
#
# Elastic Compliance Matrix: (Units=1/GPa)
#
#
# Indices 1 2 3 4 5 6 
#
# 1 0.012065 -0.002573 -0.003758 0.000000 0.000000 0.000000
# 2 -0.002573 0.019708 -0.005326 0.000000 0.000000 0.000000
# 3 -0.003758 -0.005326 0.014132 0.000000 0.000000 0.000000
# 4 0.000000 0.000000 0.000000 0.032745 0.000000 0.000000
# 5 0.000000 0.000000 0.000000 0.000000 0.058811 0.000000
# 6 0.000000 0.000000 0.000000 0.000000 0.000000 0.090428
#
#
# Mechanical properties :
#
#
# Convention : Reuss Voigt Hill
#
# Bulk Modulus (GPa) = 44.26284 46.91213 45.58749
# Shear Modulus (GPa) = 19.32492 22.71994 21.02243
#
# Velocity S-wave (km/s) = 3.13708 3.40149 3.27196
# Velocity P-wave (km/s) = 5.97181 6.27032 6.12289
#
# Compressibility (1/GPa) = 0.02259231
#
# Stress axis : x y z
#
# Youngs Moduli (GPa) = 82.88098 50.74172 70.75978
#
# Poissons Ratio (x) = 0.13058 0.26589
# Poissons Ratio (y) = 0.21328 0.37683
# Poissons Ratio (z) = 0.31144 0.27023
#
# Static dielectric constant tensor:
#      x y z
#    x 1.693860 0.000000 0.000000 
#    y 0.000000 1.725530 0.000000 
#    z 0.000000 0.000000 1.769540 
# 
# From -- ./inp_files/28832.got.cif
#   From: 2010.05.17/outbox.cif.g08.bks.cpg/sg67_15_cif.got.tgz:28832.got - 2010.06.03 18:28:57.
