data_PCOD9502669
_publ_section_title
;
Structure prediction by ZEFSAII (Michael W. Deem and Ramdas Pophale) SiO2 
 PCOD9502669
Probable space group: C M M A
;
_chemical_formula_sum "Si O2"
_cell_formula_units_Z 128
_cell_length_a 23.028833
_cell_length_b 25.578288
_cell_length_c 10.437142
_cell_angle_alpha 90.000000
_cell_angle_beta 90.000000
_cell_angle_gamma 90.000000
_cell_volume 6147.874531
_symmetry_space_group_name_H-M "C M M A"
_symmetry_group_IT_number 67
_symmetry_cell_setting 'orthorhombic'
loop_
_space_group_symop_operation_xyz
x,y,z
-x,1/2-y,z
x,-y,-z
-x,1/2+y,-z
-x,-y,-z
x,1/2+y,-z
-x,y,z
x,1/2-y,z
1/2+x,1/2+y,z
1/2-x,-y,z
1/2+x,1/2-y,-z
1/2-x,y,-z
1/2-x,1/2-y,-z
1/2+x,y,-z
1/2-x,1/2+y,z
1/2+x,-y,z
loop_
_atom_site_type_symbol
_atom_site_label
_atom_site_fract_x
_atom_site_fract_y
_atom_site_fract_z
Si Si1 0.570199 0.126409 0.722646
Si Si2 0.251675 0.126392 0.220362
Si Si3 0.151414 0.190413 0.107632
Si Si4 0.434296 0.948355 0.048886
Si Si5 0.936155 0.593188 0.229627
Si Si6 0.866307 0.809364 0.193622
Si Si7 0.329229 0.579033 0.412007
Si Si8 0.325213 0.036190 0.305538
O O1 0.500000 0.130590 0.709851
O O2 0.601407 0.176437 0.788254
O O3 0.586683 0.083139 0.830775
O O4 0.606334 0.104001 0.602276
O O5 0.203703 0.148296 0.121368
O O6 0.302841 0.168381 0.226233
O O7 0.213803 0.120602 0.348953
O O8 0.285308 0.070211 0.207806
O O9 0.172627 0.250000 0.129142
O O10 0.128924 0.188434 0.961604
O O11 0.500000 0.964569 0.087810
O O12 0.438039 0.912277 0.924623
O O13 0.402051 0.000000 0.000000
O O14 0.911035 0.650249 0.256129
O O15 0.891587 0.549300 0.273726
O O16 0.000000 0.585027 0.281886
O O17 0.874247 0.750000 0.234334
O O18 0.315585 0.562719 0.555794
O O19 0.319614 0.525479 0.329094
#
# Coordination Sequence:
#
# PCOD9502669 Si02
#       8
#    16  16  16  16  16  16  16  16
#     4  10  20  34  54  82 116 148 180 222 272 324
#     4  10  20  34  56  80 106 137 177 230 284 326
#     4  10  20  35  57  83 111 144 184 229 275 327
#     4   9  16  28  47  72 107 146 175 206 258 321
#     4  10  20  34  54  82 116 148 180 222 272 324
#     4  10  20  35  57  83 111 144 184 229 275 327
#     4  10  21  37  58  82 108 144 189 230 268 319
#     4  10  21  37  58  82 108 144 189 230 268 319
#
# _framework density 20.820205000000001
#
# number of rings (size 3 to 8) (size 9 to 14) (size 15 to 20)
#    0.000    2.125    1.250    2.250    0.000    4.500 
#    0.000    2.500    0.000   33.750    0.000    7.000 
#    0.000    0.000    0.000    0.000    0.000    0.000 
#
# Total GULP energy -356610.086712 kJ/mol
# GULP energy per Si atom -5572.032605 kJ/mol
# Density = 2.077282 g / cm^3
# Si number density = 20.820205 Si / 1000 Ang^3
#
#
#
# Elastic Constant Matrix: (Units=GPa)
#
#
# Indices 1 2 3 4 5 6 
#
# 1 97.2725 24.3138 -4.6203 0.0000 0.0000 0.0000
# 2 24.3138 87.2320 10.5640 0.0000 0.0000 0.0000
# 3 -4.6203 10.5640 18.3264 0.0000 0.0000 0.0000
# 4 0.0000 0.0000 0.0000 26.5496 0.0000 0.0000
# 5 0.0000 0.0000 0.0000 0.0000 21.9702 0.0000
# 6 0.0000 0.0000 0.0000 0.0000 0.0000 14.1335
#
#
#
# Elastic Compliance Matrix: (Units=1/GPa)
#
#
# Indices 1 2 3 4 5 6 
#
# 1 0.011476 -0.003815 0.005093 0.000000 0.000000 0.000000
# 2 -0.003815 0.013592 -0.008797 0.000000 0.000000 0.000000
# 3 0.005093 -0.008797 0.060921 0.000000 0.000000 0.000000
# 4 0.000000 0.000000 0.000000 0.037665 0.000000 0.000000
# 5 0.000000 0.000000 0.000000 0.000000 0.045516 0.000000
# 6 0.000000 0.000000 0.000000 0.000000 0.000000 0.070754
#
#
# Mechanical properties :
#
#
# Convention : Reuss Voigt Hill
#
# Bulk Modulus (GPa) = 14.09450 29.26064 21.67757
# Shear Modulus (GPa) = 17.94594 24.03556 20.99075
#
# Velocity S-wave (km/s) = 2.93908 3.40138 3.17865
# Velocity P-wave (km/s) = 4.27807 5.43234 4.88939
#
# Compressibility (1/GPa) = 0.07094968
#
# Stress axis : x y z
#
# Youngs Moduli (GPa) = 87.13863 73.57007 16.41469
#
# Poissons Ratio (x) = 0.28070 -0.08359
# Poissons Ratio (y) = 0.33247 0.14440
# Poissons Ratio (z) = -0.44376 0.64720
#
# Static dielectric constant tensor:
#      x y z
#    x 1.802540 0.000000 0.000000 
#    y 0.000000 1.781970 0.000000 
#    z 0.000000 0.000000 1.771140 
# 
# From -- ./inp_files/22320.got.cif
#   From: 2010.05.17/outbox.cif.g08.bks.cpg/sg67_12_cif.got.tgz:22320.got - 2010.06.03 18:28:57.
