data_PCOD9502105
_publ_section_title
;
Structure prediction by ZEFSAII (Michael W. Deem and Ramdas Pophale) SiO2 
 PCOD9502105
Probable space group: C M M A
;
_chemical_formula_sum "Si O2"
_cell_formula_units_Z 88
_cell_length_a 16.343989
_cell_length_b 21.713619
_cell_length_c 12.090861
_cell_angle_alpha 90.000000
_cell_angle_beta 90.000000
_cell_angle_gamma 90.000000
_cell_volume 4290.891202
_symmetry_space_group_name_H-M "C M M A"
_symmetry_group_IT_number 67
_symmetry_cell_setting 'orthorhombic'
loop_
_space_group_symop_operation_xyz
x,y,z
-x,1/2-y,z
x,-y,-z
-x,1/2+y,-z
-x,-y,-z
x,1/2+y,-z
-x,y,z
x,1/2-y,z
1/2+x,1/2+y,z
1/2-x,-y,z
1/2+x,1/2-y,-z
1/2-x,y,-z
1/2-x,1/2-y,-z
1/2+x,y,-z
1/2-x,1/2+y,z
1/2+x,-y,z
loop_
_atom_site_type_symbol
_atom_site_label
_atom_site_fract_x
_atom_site_fract_y
_atom_site_fract_z
Si Si1 0.675534 0.080977 0.084423
Si Si2 0.095061 0.682167 0.935796
Si Si3 0.203406 0.365335 0.259208
Si Si4 0.588505 0.564018 0.565171
Si Si5 0.250000 0.361481 0.500000
Si Si6 0.406740 0.016217 0.776432
O O1 0.715927 0.113844 0.191906
O O2 0.634340 0.017075 0.119757
O O3 0.750000 0.072393 0.000000
O O4 0.615905 0.128241 0.021826
O O5 0.111738 0.750000 0.984508
O O6 0.150311 0.674196 0.826753
O O7 0.000000 0.678893 0.905765
O O8 0.223187 0.335384 0.378649
O O9 0.149506 0.428624 0.269812
O O10 0.589231 0.500000 0.500000
O O11 0.500000 0.594997 0.542293
O O12 0.669111 0.600522 0.533911
O O13 0.589784 0.539639 0.689622
O O14 0.500000 0.037441 0.796160
#
# Coordination Sequence:
#
# PCOD9502105 Si02
#       6
#    16  16  16  16   8  16
#     4  10  22  37  57  88 118 155 201 249 310 365
#     4  10  23  45  68  85 108 150 206 265 318 368
#     4  11  23  35  58  90 122 162 197 244 303 369
#     4  10  20  31  51  82 118 166 206 236 281 350
#     4  12  21  36  57  86 128 170 197 246 295 364
#     4  11  21  34  53  85 127 159 197 246 294 360
#
# _framework density 20.508559999999999
#
# number of rings (size 3 to 8) (size 9 to 14) (size 15 to 20)
#    0.000    1.455    3.636    1.909    0.000    9.091 
#    0.000    5.000    0.000    0.000    0.000    2.545 
#    0.000    0.000    0.000    0.000    0.000    0.000 
#
# Total GULP energy -245430.448687 kJ/mol
# GULP energy per Si atom -5577.964743 kJ/mol
# Density = 2.046188 g / cm^3
# Si number density = 20.508560 Si / 1000 Ang^3
#
#
#
# Elastic Constant Matrix: (Units=GPa)
#
#
# Indices 1 2 3 4 5 6 
#
# 1 105.7141 17.6152 16.6541 0.0000 0.0000 0.0000
# 2 17.6152 44.5411 1.1121 0.0000 0.0000 0.0000
# 3 16.6541 1.1121 102.7418 0.0000 0.0000 0.0000
# 4 0.0000 0.0000 0.0000 6.9014 0.0000 0.0000
# 5 0.0000 0.0000 0.0000 0.0000 12.9593 0.0000
# 6 0.0000 0.0000 0.0000 0.0000 0.0000 18.3818
#
#
#
# Elastic Compliance Matrix: (Units=1/GPa)
#
#
# Indices 1 2 3 4 5 6 
#
# 1 0.010396 -0.004071 -0.001641 0.000000 0.000000 0.000000
# 2 -0.004071 0.024051 0.000399 0.000000 0.000000 0.000000
# 3 -0.001641 0.000399 0.009995 0.000000 0.000000 0.000000
# 4 0.000000 0.000000 0.000000 0.144898 0.000000 0.000000
# 5 0.000000 0.000000 0.000000 0.000000 0.077165 0.000000
# 6 0.000000 0.000000 0.000000 0.000000 0.000000 0.054402
#
#
# Mechanical properties :
#
#
# Convention : Reuss Voigt Hill
#
# Bulk Modulus (GPa) = 29.57031 35.97332 32.77182
# Shear Modulus (GPa) = 14.58564 22.15621 18.37092
#
# Velocity S-wave (km/s) = 2.66972 3.29042 2.99619
# Velocity P-wave (km/s) = 4.89418 5.65814 5.28997
#
# Compressibility (1/GPa) = 0.03381770
#
# Stress axis : x y z
#
# Youngs Moduli (GPa) = 96.18798 41.57826 100.05163
#
# Poissons Ratio (x) = 0.16925 0.16420
# Poissons Ratio (y) = 0.39154 -0.03997
# Poissons Ratio (z) = 0.15786 -0.01661
#
# Static dielectric constant tensor:
#      x y z
#    x 1.747300 0.000000 0.000000 
#    y 0.000000 1.714000 0.000000 
#    z 0.000000 0.000000 1.911750 
# 
# From -- ./inp_files/18091.got.cif
#   From: 2010.05.17/outbox.cif.g08.bks.cpg/sg67_10_cif.got.tgz:18091.got - 2010.06.03 18:28:57.
