data_PCOD9502013
_publ_section_title
;
Structure prediction by ZEFSAII (Michael W. Deem and Ramdas Pophale) SiO2 
 PCOD9502013
Probable space group: C M M A
;
_chemical_formula_sum "Si O2"
_cell_formula_units_Z 72
_cell_length_a 22.345818
_cell_length_b 17.187667
_cell_length_c 7.332852
_cell_angle_alpha 90.000000
_cell_angle_beta 90.000000
_cell_angle_gamma 90.000000
_cell_volume 2816.346643
_symmetry_space_group_name_H-M "C M M A"
_symmetry_group_IT_number 67
_symmetry_cell_setting 'orthorhombic'
loop_
_space_group_symop_operation_xyz
x,y,z
-x,1/2-y,z
x,-y,-z
-x,1/2+y,-z
-x,-y,-z
x,1/2+y,-z
-x,y,z
x,1/2-y,z
1/2+x,1/2+y,z
1/2-x,-y,z
1/2+x,1/2-y,-z
1/2-x,y,-z
1/2-x,1/2-y,-z
1/2+x,y,-z
1/2-x,1/2+y,z
1/2+x,-y,z
loop_
_atom_site_type_symbol
_atom_site_label
_atom_site_fract_x
_atom_site_fract_y
_atom_site_fract_z
Si Si1 0.263743 0.834390 0.778171
Si Si2 0.064370 0.159609 0.054660
Si Si3 0.597938 0.837816 0.640892
Si Si4 0.901842 0.500000 0.500000
Si Si5 0.671150 0.949766 0.176544
O O1 0.239793 0.750000 0.719061
O O2 0.331260 0.838712 0.703898
O O3 0.224973 0.907573 0.720617
O O4 0.250000 0.836303 0.000000
O O5 0.068771 0.250000 0.105627
O O6 0.065398 0.156308 0.835193
O O7 0.000000 0.127089 0.116823
O O8 0.122791 0.114615 0.117767
O O9 0.587633 0.750000 0.564977
O O10 0.575267 0.909878 0.515045
O O11 0.863752 0.498317 0.682500
O O12 0.686947 0.000000 0.000000
#
# Coordination Sequence:
#
# PCOD9502013 Si02
#       5
#    16  16  16   8  16
#     4  10  19  36  65  94 129 174 219 268 322 390
#     4  10  21  43  72  95 125 171 222 278 334 390
#     4  10  22  42  65  98 135 172 221 272 328 390
#     4  12  26  43  65 102 132 182 215 271 328 394
#     4  12  24  41  63  97 132 173 218 270 327 391
#
# _framework density 25.565035000000002
#
# number of rings (size 3 to 8) (size 9 to 14) (size 15 to 20)
#    0.000    1.333    4.444    0.667    0.000    7.111 
#    0.000    4.444    0.000    2.667    0.000    0.000 
#    0.000    0.000    0.000    0.000    0.000    0.000 
#
# Total GULP energy -201058.310207 kJ/mol
# GULP energy per Si atom -5584.953061 kJ/mol
# Density = 2.550685 g / cm^3
# Si number density = 25.565035 Si / 1000 Ang^3
#
#
#
# Elastic Constant Matrix: (Units=GPa)
#
#
# Indices 1 2 3 4 5 6 
#
# 1 138.4725 39.7773 1.6010 0.0000 0.0000 0.0000
# 2 39.7773 170.2953 13.4945 0.0000 0.0000 0.0000
# 3 1.6010 13.4945 78.6797 0.0000 0.0000 0.0000
# 4 0.0000 0.0000 0.0000 30.9105 0.0000 0.0000
# 5 0.0000 0.0000 0.0000 0.0000 -4.9833 0.0000
# 6 0.0000 0.0000 0.0000 0.0000 0.0000 37.9371
#
#
#
# Elastic Compliance Matrix: (Units=1/GPa)
#
#
# Indices 1 2 3 4 5 6 
#
# 1 0.007743 -0.001821 0.000155 0.000000 0.000000 0.000000
# 2 -0.001821 0.006381 -0.001057 0.000000 0.000000 0.000000
# 3 0.000155 -0.001057 0.012888 0.000000 0.000000 0.000000
# 4 0.000000 0.000000 0.000000 0.032351 0.000000 0.000000
# 5 0.000000 0.000000 0.000000 0.000000 -0.200671 0.000000
# 6 0.000000 0.000000 0.000000 0.000000 0.000000 0.026359
#
#
# Mechanical properties :
#
#
# Convention : Reuss Voigt Hill
#
# Bulk Modulus (GPa) = 46.37119 55.24368 50.80744
# Shear Modulus (GPa) = -48.86992 34.94449 -6.96271
#
# Velocity S-wave (km/s) = -4.37692 3.70115 -1.65210
# Velocity P-wave (km/s) = 2.71391 6.31828 4.03456
#
# Compressibility (1/GPa) = 0.02156511
#
# Stress axis : x y z
#
# Youngs Moduli (GPa) = 129.15033 156.70899 77.59173
#
# Poissons Ratio (x) = 0.28534 -0.01201
# Poissons Ratio (y) = 0.23516 0.08205
# Poissons Ratio (z) = -0.01998 0.16571
#
# Static dielectric constant tensor:
#      x y z
#    x 2.033550 0.000000 0.000000 
#    y 0.000000 2.094860 0.000000 
#    z 0.000000 0.000000 2.026310 
# 
# From -- ./inp_files/12220.got.cif
#   From: 2010.05.17/outbox.cif.g08.bks.cpg/sg67_7_cif.got.tgz:12220.got - 2010.06.03 18:28:57.
