data_PCOD9502592
_publ_section_title
;
Structure prediction by ZEFSAII (Michael W. Deem and Ramdas Pophale) SiO2 
 PCOD9502592
Probable space group: C M M A
;
_chemical_formula_sum "Si O2"
_cell_formula_units_Z 96
_cell_length_a 8.840169
_cell_length_b 18.568478
_cell_length_c 31.962271
_cell_angle_alpha 90.000000
_cell_angle_beta 90.000000
_cell_angle_gamma 90.000000
_cell_volume 5246.558317
_symmetry_space_group_name_H-M "C M M A"
_symmetry_group_IT_number 67
_symmetry_cell_setting 'orthorhombic'
loop_
_space_group_symop_operation_xyz
x,y,z
-x,1/2-y,z
x,-y,-z
-x,1/2+y,-z
-x,-y,-z
x,1/2+y,-z
-x,y,z
x,1/2-y,z
1/2+x,1/2+y,z
1/2-x,-y,z
1/2+x,1/2-y,-z
1/2-x,y,-z
1/2-x,1/2-y,-z
1/2+x,y,-z
1/2-x,1/2+y,z
1/2+x,-y,z
loop_
_atom_site_type_symbol
_atom_site_label
_atom_site_fract_x
_atom_site_fract_y
_atom_site_fract_z
Si Si1 0.681732 0.420455 0.208489
Si Si2 0.325758 0.337701 0.043169
Si Si3 0.316801 0.920553 0.626694
Si Si4 0.317862 0.166147 0.455756
Si Si5 0.815815 0.332566 0.708955
Si Si6 0.820010 0.164531 0.130988
O O1 0.500000 0.424333 0.208097
O O2 0.750000 0.500000 0.210084
O O3 0.730162 0.375711 0.249622
O O4 0.738845 0.379342 0.167379
O O5 0.500000 0.360320 0.045441
O O6 0.323261 0.250000 0.042135
O O7 0.237674 0.358584 0.085141
O O8 0.250000 0.362620 0.000000
O O9 0.500000 0.924137 0.626996
O O10 0.270009 0.881249 0.583769
O O11 0.268979 0.873724 0.666885
O O12 0.250000 0.000000 0.629192
O O13 0.500000 0.163613 0.458258
O O14 0.274297 0.250000 0.449337
O O15 0.250000 0.141948 0.500000
O O16 0.763372 0.250000 0.709690
O O17 0.000000 0.331052 0.708761
O O18 0.786405 0.250000 0.135676
O O19 0.000000 0.155187 0.133673
#
# Coordination Sequence:
#
# PCOD9502592 Si02
#       6
#    16  16  16  16  16  16
#     4  11  22  36  55  78 106 139 175 216 264 318
#     4   9  16  27  46  74 107 141 178 221 268 315
#     4  10  20  34  53  77 106 138 172 212 259 313
#     4   9  18  33  53  75 100 134 176 219 261 306
#     4   9  18  34  57  81 103 132 173 217 260 311
#     4  10  20  34  53  78 108 141 179 223 268 315
#
# _framework density 18.297709000000001
#
# number of rings (size 3 to 8) (size 9 to 14) (size 15 to 20)
#    0.000    2.333    0.000    3.000    0.000    6.667 
#    0.000    2.500    0.000    4.000    0.000    3.500 
#    0.000    0.000    0.000    0.000    0.000    0.000 
#
# Total GULP energy -267932.455456 kJ/mol
# GULP energy per Si atom -5581.926155 kJ/mol
# Density = 1.825606 g / cm^3
# Si number density = 18.297709 Si / 1000 Ang^3
#
#
#
# Elastic Constant Matrix: (Units=GPa)
#
#
# Indices 1 2 3 4 5 6 
#
# 1 43.9779 44.7206 52.4355 0.0000 0.0000 0.0000
# 2 44.7206 118.2648 105.3791 0.0000 0.0000 0.0000
# 3 52.4355 105.3791 208.5770 0.0000 0.0000 0.0000
# 4 0.0000 0.0000 0.0000 -9.2283 0.0000 0.0000
# 5 0.0000 0.0000 0.0000 0.0000 24.2979 0.0000
# 6 0.0000 0.0000 0.0000 0.0000 0.0000 25.3162
#
#
#
# Elastic Compliance Matrix: (Units=1/GPa)
#
#
# Indices 1 2 3 4 5 6 
#
# 1 0.038932 -0.010914 -0.004273 0.000000 0.000000 0.000000
# 2 -0.010914 0.018439 -0.006572 0.000000 0.000000 0.000000
# 3 -0.004273 -0.006572 0.009189 0.000000 0.000000 0.000000
# 4 0.000000 0.000000 0.000000 -0.108362 0.000000 0.000000
# 5 0.000000 0.000000 0.000000 0.000000 0.041156 0.000000
# 6 0.000000 0.000000 0.000000 0.000000 0.000000 0.039500
#
#
# Mechanical properties :
#
#
# Convention : Reuss Voigt Hill
#
# Bulk Modulus (GPa) = 43.40068 86.21001 64.80535
# Shear Modulus (GPa) = 55.52304 19.29612 37.40958
#
# Velocity S-wave (km/s) = 5.51454 3.25093 4.52652
# Velocity P-wave (km/s) = 8.01982 7.83000 7.92548
#
# Compressibility (1/GPa) = 0.02304111
#
# Stress axis : x y z
#
# Youngs Moduli (GPa) = 25.68562 54.23420 108.82593
#
# Poissons Ratio (x) = 0.59192 0.46504
# Poissons Ratio (y) = 0.28034 0.71519
# Poissons Ratio (z) = 0.10976 0.35642
#
# Static dielectric constant tensor:
#      x y z
#    x 1.618160 0.000000 0.000000 
#    y 0.000000 1.605320 0.000000 
#    z 0.000000 0.000000 1.610820 
# 
# From -- ./inp_files/43492.got.cif
#   From: 2010.05.17/outbox.cif.g08.bks.cpg/sg67_22_cif.got.tgz:43492.got - 2010.06.03 18:28:57.
