data_PCOD9502024
_publ_section_title
;
Structure prediction by ZEFSAII (Michael W. Deem and Ramdas Pophale) SiO2 
 PCOD9502024
Probable space group: C M M A
;
_chemical_formula_sum "Si O2"
_cell_formula_units_Z 60
_cell_length_a 18.666414
_cell_length_b 18.600217
_cell_length_c 8.621009
_cell_angle_alpha 90.000000
_cell_angle_beta 90.000000
_cell_angle_gamma 90.000000
_cell_volume 2993.208730
_symmetry_space_group_name_H-M "C M M A"
_symmetry_group_IT_number 67
_symmetry_cell_setting 'orthorhombic'
loop_
_space_group_symop_operation_xyz
x,y,z
-x,1/2-y,z
x,-y,-z
-x,1/2+y,-z
-x,-y,-z
x,1/2+y,-z
-x,y,z
x,1/2-y,z
1/2+x,1/2+y,z
1/2-x,-y,z
1/2+x,1/2-y,-z
1/2-x,y,-z
1/2-x,1/2-y,-z
1/2+x,y,-z
1/2-x,1/2+y,z
1/2+x,-y,z
loop_
_atom_site_type_symbol
_atom_site_label
_atom_site_fract_x
_atom_site_fract_y
_atom_site_fract_z
Si Si1 0.500000 0.250000 0.057489
Si Si2 0.000000 0.588521 0.193529
Si Si3 0.750000 0.000000 0.500000
Si Si4 0.115450 0.500000 0.000000
Si Si5 0.348240 0.906962 0.276436
Si Si6 0.000000 0.592625 0.542979
Si Si7 0.624720 0.250000 0.798242
Si Si8 0.500000 0.750000 0.449899
O O1 0.500000 0.174120 0.150656
O O2 0.571979 0.250000 0.948528
O O3 0.000000 0.556280 0.372105
O O4 0.067118 0.553233 0.104390
O O5 0.701967 0.053662 0.601545
O O6 0.157518 0.451902 0.119910
O O7 0.429052 0.911999 0.350293
O O8 0.333538 0.824362 0.228514
O O9 0.000000 0.673844 0.471823
O O10 0.568857 0.250000 0.657667
#
# Coordination Sequence:
#
# PCOD9502024 Si02
#       8
#     4   8   4   8  16   8   8   4
#     4  11  17  34  58 102 134 160 210 266 322 384
#     4  11  20  29  57  96 129 161 200 258 320 380
#     4  12  28  42  64  92 124 174 224 276 320 382
#     4  11  22  35  58  90 124 164 208 256 320 382
#     4  11  23  43  65  94 129 170 215 266 328 383
#     4  10  19  37  60  93 127 157 200 261 317 376
#     4   9  18  37  64  86 126 167 206 259 321 381
#     4   7  15  28  56  88 112 152 190 242 306 366
#
# _framework density 20.045376999999998
#
# number of rings (size 3 to 8) (size 9 to 14) (size 15 to 20)
#    0.000    1.600    2.667    4.400    0.000    2.667 
#    0.000    0.000    0.000    4.800    0.000    0.000 
#    0.000    0.000    0.000    0.000    0.000    0.000 
#
# Total GULP energy -167127.965526 kJ/mol
# GULP energy per Si atom -5570.932184 kJ/mol
# Density = 1.999975 g / cm^3
# Si number density = 20.045377 Si / 1000 Ang^3
#
#
#
# Elastic Constant Matrix: (Units=GPa)
#
#
# Indices 1 2 3 4 5 6 
#
# 1 53.1171 36.1164 26.5160 0.0000 0.0000 0.0000
# 2 36.1164 179.0771 43.9093 0.0000 0.0000 0.0000
# 3 26.5160 43.9093 129.9252 0.0000 0.0000 0.0000
# 4 0.0000 0.0000 0.0000 31.1812 0.0000 0.0000
# 5 0.0000 0.0000 0.0000 0.0000 124.2561 0.0000
# 6 0.0000 0.0000 0.0000 0.0000 0.0000 14.1001
#
#
#
# Elastic Compliance Matrix: (Units=1/GPa)
#
#
# Indices 1 2 3 4 5 6 
#
# 1 0.023140 -0.003826 -0.003430 0.000000 0.000000 0.000000
# 2 -0.003826 0.006721 -0.001491 0.000000 0.000000 0.000000
# 3 -0.003430 -0.001491 0.008900 0.000000 0.000000 0.000000
# 4 0.000000 0.000000 0.000000 0.032071 0.000000 0.000000
# 5 0.000000 0.000000 0.000000 0.000000 0.008048 0.000000
# 6 0.000000 0.000000 0.000000 0.000000 0.000000 0.070921
#
#
# Mechanical properties :
#
#
# Convention : Reuss Voigt Hill
#
# Bulk Modulus (GPa) = 47.01630 63.91141 55.46385
# Shear Modulus (GPa) = 28.67246 50.94601 39.80923
#
# Velocity S-wave (km/s) = 3.78614 5.04683 4.46124
# Velocity P-wave (km/s) = 6.52832 8.11870 7.36655
#
# Compressibility (1/GPa) = 0.02126922
#
# Stress axis : x y z
#
# Youngs Moduli (GPa) = 43.21575 148.78036 112.35391
#
# Poissons Ratio (x) = 0.56922 0.38532
# Poissons Ratio (y) = 0.16534 0.16749
# Poissons Ratio (z) = 0.14821 0.22179
#
# Static dielectric constant tensor:
#      x y z
#    x 1.651600 0.000000 0.000000 
#    y 0.000000 1.843030 0.000000 
#    z 0.000000 0.000000 1.690950 
# 
# From -- ./inp_files/9462.got.cif
#   From: 2010.05.17/outbox.cif.g08.bks.cpg/sg67_5_cif.got.tgz:9462.got - 2010.06.03 18:28:57.
