data_PCOD9502204
_publ_section_title
;
Structure prediction by ZEFSAII (Michael W. Deem and Ramdas Pophale) SiO2 
 PCOD9502204
Probable space group: C M M A
;
_chemical_formula_sum "Si O2"
_cell_formula_units_Z 80
_cell_length_a 8.820100
_cell_length_b 19.739344
_cell_length_c 26.523076
_cell_angle_alpha 90.000000
_cell_angle_beta 90.000000
_cell_angle_gamma 90.000000
_cell_volume 4617.746783
_symmetry_space_group_name_H-M "C M M A"
_symmetry_group_IT_number 67
_symmetry_cell_setting 'orthorhombic'
loop_
_space_group_symop_operation_xyz
x,y,z
-x,1/2-y,z
x,-y,-z
-x,1/2+y,-z
-x,-y,-z
x,1/2+y,-z
-x,y,z
x,1/2-y,z
1/2+x,1/2+y,z
1/2-x,-y,z
1/2+x,1/2-y,-z
1/2-x,y,-z
1/2-x,1/2-y,-z
1/2+x,y,-z
1/2-x,1/2+y,z
1/2+x,-y,z
loop_
_atom_site_type_symbol
_atom_site_label
_atom_site_fract_x
_atom_site_fract_y
_atom_site_fract_z
Si Si1 0.181123 0.830234 0.362383
Si Si2 0.319217 0.425653 0.553722
Si Si3 0.182584 0.328638 0.753319
Si Si4 0.681257 0.075919 0.949683
Si Si5 0.818795 0.075346 0.162094
O O1 0.207996 0.750000 0.369694
O O2 0.269750 0.874868 0.402440
O O3 0.222926 0.846744 0.304450
O O4 0.000000 0.841567 0.367997
O O5 0.500000 0.430428 0.549785
O O6 0.250000 0.500000 0.563950
O O7 0.250000 0.403239 0.500000
O O8 0.225283 0.250000 0.761487
O O9 0.256377 0.377094 0.794198
O O10 0.000000 0.332855 0.756943
O O11 0.500000 0.072175 0.954860
O O12 0.718240 0.103899 0.894094
O O13 0.750000 0.000000 0.948312
O O14 0.750000 0.109257 0.000000
O O15 0.000000 0.070018 0.165272
O O16 0.750000 0.000000 0.166456
#
# Coordination Sequence:
#
# PCOD9502204 Si02
#       5
#    16  16  16  16  16
#     4   9  19  37  58  79 104 134 171 213 254 300
#     4  11  22  37  57  80 108 140 173 209 253 302
#     4   9  19  36  56  76 101 135 171 209 256 305
#     4   9  16  26  42  66  95 127 162 202 250 298
#     4  10  20  32  49  75 104 133 168 211 254 301
#
# _framework density 17.324466000000001
#
# number of rings (size 3 to 8) (size 9 to 14) (size 15 to 20)
#    0.000    2.400    0.000    5.400    0.000    5.200 
#    0.000    2.000    0.000    0.600    0.000    0.000 
#    0.000    0.000    0.000    0.000    0.000    0.000 
#
# Total GULP energy -223052.666827 kJ/mol
# GULP energy per Si atom -5576.316671 kJ/mol
# Density = 1.728503 g / cm^3
# Si number density = 17.324466 Si / 1000 Ang^3
#
#
#
# Elastic Constant Matrix: (Units=GPa)
#
#
# Indices 1 2 3 4 5 6 
#
# 1 90.0855 45.2905 84.8519 0.0000 0.0000 0.0000
# 2 45.2905 55.8125 87.9128 0.0000 0.0000 0.0000
# 3 84.8519 87.9128 185.8927 0.0000 0.0000 0.0000
# 4 0.0000 0.0000 0.0000 -123.3959 0.0000 0.0000
# 5 0.0000 0.0000 0.0000 0.0000 96.9371 0.0000
# 6 0.0000 0.0000 0.0000 0.0000 0.0000 23.8718
#
#
#
# Elastic Compliance Matrix: (Units=1/GPa)
#
#
# Indices 1 2 3 4 5 6 
#
# 1 0.020209 -0.007328 -0.005759 0.000000 0.000000 0.000000
# 2 -0.007328 0.072899 -0.031131 0.000000 0.000000 0.000000
# 3 -0.005759 -0.031131 0.022731 0.000000 0.000000 0.000000
# 4 0.000000 0.000000 0.000000 -0.008104 0.000000 0.000000
# 5 0.000000 0.000000 0.000000 0.000000 0.010316 0.000000
# 6 0.000000 0.000000 0.000000 0.000000 0.000000 0.041890
#
#
# Mechanical properties :
#
#
# Convention : Reuss Voigt Hill
#
# Bulk Modulus (GPa) = 36.49180 85.32233 60.90706
# Shear Modulus (GPa) = 19.41669 7.06497 13.24083
#
# Velocity S-wave (km/s) = 3.35142 2.02160 2.76757
# Velocity P-wave (km/s) = 6.00712 7.40309 6.74133
#
# Compressibility (1/GPa) = 0.02740342
#
# Stress axis : x y z
#
# Youngs Moduli (GPa) = 49.48253 13.71765 43.99363
#
# Poissons Ratio (x) = 0.10052 0.25336
# Poissons Ratio (y) = 0.36260 1.36955
# Poissons Ratio (z) = 0.28497 0.42704
#
# Static dielectric constant tensor:
#      x y z
#    x 1.577290 0.000000 0.000000 
#    y 0.000000 1.555300 0.000000 
#    z 0.000000 0.000000 1.613820 
# 
# From -- ./inp_files/43332.got.cif
#   From: 2010.05.17/outbox.cif.g08.bks.cpg/sg67_22_cif.got.tgz:43332.got - 2010.06.03 18:28:57.
