data_PCOD9502850
_publ_section_title
;
Structure prediction by ZEFSAII (Michael W. Deem and Ramdas Pophale) SiO2 
 PCOD9502850
Probable space group: C M M A
;
_chemical_formula_sum "Si O2"
_cell_formula_units_Z 88
_cell_length_a 15.944225
_cell_length_b 9.005676
_cell_length_c 30.169498
_cell_angle_alpha 90.000000
_cell_angle_beta 90.000000
_cell_angle_gamma 90.000000
_cell_volume 4331.993700
_symmetry_space_group_name_H-M "C M M A"
_symmetry_group_IT_number 67
_symmetry_cell_setting 'orthorhombic'
loop_
_space_group_symop_operation_xyz
x,y,z
-x,1/2-y,z
x,-y,-z
-x,1/2+y,-z
-x,-y,-z
x,1/2+y,-z
-x,y,z
x,1/2-y,z
1/2+x,1/2+y,z
1/2-x,-y,z
1/2+x,1/2-y,-z
1/2-x,y,-z
1/2-x,1/2-y,-z
1/2+x,y,-z
1/2-x,1/2+y,z
1/2+x,-y,z
loop_
_atom_site_type_symbol
_atom_site_label
_atom_site_fract_x
_atom_site_fract_y
_atom_site_fract_z
Si Si1 0.337861 0.571430 0.903925
Si Si2 0.101145 0.081244 0.635013
Si Si3 0.500000 0.570109 0.048891
Si Si4 0.339576 0.074580 0.724161
Si Si5 0.096327 0.580698 0.191761
Si Si6 0.602666 0.421002 0.545295
O O1 0.340265 0.750000 0.911344
O O2 0.250000 0.500000 0.918742
O O3 0.416727 0.492109 0.926954
O O4 0.348139 0.546411 0.850983
O O5 0.132554 0.250000 0.638676
O O6 0.000000 0.086095 0.633025
O O7 0.125434 0.989647 0.678261
O O8 0.130699 0.005957 0.589466
O O9 0.500000 0.750000 0.048168
O O10 0.500000 0.500000 0.000000
O O11 0.333249 0.250000 0.721396
O O12 0.250000 0.000000 0.731556
O O13 0.393015 0.025745 0.766648
O O14 0.114785 0.750000 0.206616
O O15 0.000000 0.577230 0.176440
O O16 0.629688 0.500000 0.500000
O O17 0.500000 0.423064 0.545389
O O18 0.628939 0.250000 0.546188
#
# Coordination Sequence:
#
# PCOD9502850 Si02
#       6
#    16  16   8  16  16  16
#     4  11  23  43  69 102 139 180 226 278 335 397
#     4  10  20  35  55  79 109 145 185 234 293 354
#     4  12  26  46  72 102 138 182 230 284 339 398
#     4  12  25  39  56  81 114 154 199 247 298 361
#     4  10  21  40  65  93 127 165 205 256 313 373
#     4   9  16  27  46  74 106 139 179 229 284 344
#
# _framework density 20.313972
#
# number of rings (size 3 to 8) (size 9 to 14) (size 15 to 20)
#    0.000    1.455    0.909    5.182    0.000    9.091 
#    0.000    1.818    0.000    0.545    0.000    3.818 
#    0.000    0.000    0.000    0.000    0.000    0.000 
#
# Total GULP energy -245995.075023 kJ/mol
# GULP energy per Si atom -5590.797160 kJ/mol
# Density = 2.026774 g / cm^3
# Si number density = 20.313972 Si / 1000 Ang^3
#
#
#
# Elastic Constant Matrix: (Units=GPa)
#
#
# Indices 1 2 3 4 5 6 
#
# 1 87.5133 49.7281 35.7812 0.0000 0.0000 0.0000
# 2 49.7281 188.8375 88.6127 0.0000 0.0000 0.0000
# 3 35.7812 88.6127 111.0600 0.0000 0.0000 0.0000
# 4 0.0000 0.0000 0.0000 34.7287 0.0000 0.0000
# 5 0.0000 0.0000 0.0000 0.0000 -29.8732 0.0000
# 6 0.0000 0.0000 0.0000 0.0000 0.0000 26.5238
#
#
#
# Elastic Compliance Matrix: (Units=1/GPa)
#
#
# Indices 1 2 3 4 5 6 
#
# 1 0.013853 -0.002483 -0.002482 0.000000 0.000000 0.000000
# 2 -0.002483 0.008910 -0.006309 0.000000 0.000000 0.000000
# 3 -0.002482 -0.006309 0.014838 0.000000 0.000000 0.000000
# 4 0.000000 0.000000 0.000000 0.028795 0.000000 0.000000
# 5 0.000000 0.000000 0.000000 0.000000 -0.033475 0.000000
# 6 0.000000 0.000000 0.000000 0.000000 0.000000 0.037702
#
#
# Mechanical properties :
#
#
# Convention : Reuss Voigt Hill
#
# Bulk Modulus (GPa) = 66.43575 81.73942 74.08758
# Shear Modulus (GPa) = 50.92294 20.49512 35.70903
#
# Velocity S-wave (km/s) = 5.01222 3.17979 4.19723
# Velocity P-wave (km/s) = 8.14076 7.33531 7.74851
#
# Compressibility (1/GPa) = 0.01505214
#
# Stress axis : x y z
#
# Youngs Moduli (GPa) = 72.18839 112.23209 67.39660
#
# Poissons Ratio (x) = 0.27872 0.16725
# Poissons Ratio (y) = 0.17928 0.42521
# Poissons Ratio (z) = 0.17914 0.70808
#
# Static dielectric constant tensor:
#      x y z
#    x 1.762930 0.000000 0.000000 
#    y 0.000000 1.695260 0.000000 
#    z 0.000000 0.000000 1.710370 
# 
# From -- ./inp_files/45781.got.cif
#   From: 2010.05.17/outbox.cif.g08.bks.cpg/sg67_23_cif.got.tgz:45781.got - 2010.06.03 18:28:57.
