data_PCOD9502134
_publ_section_title
;
Structure prediction by ZEFSAII (Michael W. Deem and Ramdas Pophale) SiO2 
 PCOD9502134
Probable space group: C M M A
;
_chemical_formula_sum "Si O2"
_cell_formula_units_Z 88
_cell_length_a 31.594556
_cell_length_b 8.600640
_cell_length_c 18.062521
_cell_angle_alpha 90.000000
_cell_angle_beta 90.000000
_cell_angle_gamma 90.000000
_cell_volume 4908.190282
_symmetry_space_group_name_H-M "C M M A"
_symmetry_group_IT_number 67
_symmetry_cell_setting 'orthorhombic'
loop_
_space_group_symop_operation_xyz
x,y,z
-x,1/2-y,z
x,-y,-z
-x,1/2+y,-z
-x,-y,-z
x,1/2+y,-z
-x,y,z
x,1/2-y,z
1/2+x,1/2+y,z
1/2-x,-y,z
1/2+x,1/2-y,-z
1/2-x,y,-z
1/2-x,1/2-y,-z
1/2+x,y,-z
1/2-x,1/2+y,z
1/2+x,-y,z
loop_
_atom_site_type_symbol
_atom_site_label
_atom_site_fract_x
_atom_site_fract_y
_atom_site_fract_z
Si Si1 0.452331 0.561962 0.083259
Si Si2 0.088673 0.937607 0.351231
Si Si3 0.000000 0.563032 0.418123
Si Si4 0.823903 0.935595 0.421146
Si Si5 0.619837 0.934876 0.196970
Si Si6 0.204792 0.936225 0.257501
O O1 0.500000 0.515350 0.109521
O O2 0.451625 0.750000 0.082377
O O3 0.413160 0.509110 0.134265
O O4 0.447645 0.500000 0.000000
O O5 0.089717 0.750000 0.339594
O O6 0.126308 0.972705 0.408940
O O7 0.042966 0.986733 0.378851
O O8 0.098915 0.021715 0.275122
O O9 0.000000 0.500000 0.500000
O O10 0.000000 0.750000 0.419462
O O11 0.819025 0.750000 0.423653
O O12 0.803226 0.990400 0.343316
O O13 0.808787 0.000000 0.500000
O O14 0.624450 0.750000 0.189369
O O15 0.666467 0.008246 0.205183
O O16 0.204591 0.750000 0.258843
O O17 0.250000 0.000000 0.233361
#
# Coordination Sequence:
#
# PCOD9502134 Si02
#       6
#    16  16   8  16  16  16
#     4   9  19  35  55  83 116 146 177 212 251 304
#     4   9  19  33  46  67  98 134 176 219 263 314
#     4  10  20  32  46  66  95 132 177 224 269 316
#     4   9  18  31  47  67  95 129 168 216 265 316
#     4  10  20  34  55  80 107 139 175 216 261 309
#     4  10  21  37  55  77 105 136 176 221 268 322
#
# _framework density 17.929214999999999
#
# number of rings (size 3 to 8) (size 9 to 14) (size 15 to 20)
#    0.000    2.545    0.000    2.727    1.273    6.182 
#    0.000    1.818    0.000    0.545    0.000    3.818 
#    0.000    0.000    0.000    0.000    0.000    0.000 
#
# Total GULP energy -245284.431400 kJ/mol
# GULP energy per Si atom -5574.646168 kJ/mol
# Density = 1.788841 g / cm^3
# Si number density = 17.929215 Si / 1000 Ang^3
#
#
#
# Elastic Constant Matrix: (Units=GPa)
#
#
# Indices 1 2 3 4 5 6 
#
# 1 162.0766 32.6706 57.4817 0.0000 0.0000 0.0000
# 2 32.6706 18.1517 18.0227 0.0000 0.0000 0.0000
# 3 57.4817 18.0227 73.1469 0.0000 0.0000 0.0000
# 4 0.0000 0.0000 0.0000 26.9239 0.0000 0.0000
# 5 0.0000 0.0000 0.0000 0.0000 13.0334 0.0000
# 6 0.0000 0.0000 0.0000 0.0000 0.0000 21.6473
#
#
#
# Elastic Compliance Matrix: (Units=1/GPa)
#
#
# Indices 1 2 3 4 5 6 
#
# 1 0.010879 -0.014684 -0.004931 0.000000 0.000000 0.000000
# 2 -0.014684 0.092755 -0.011314 0.000000 0.000000 0.000000
# 3 -0.004931 -0.011314 0.020334 0.000000 0.000000 0.000000
# 4 0.000000 0.000000 0.000000 0.037142 0.000000 0.000000
# 5 0.000000 0.000000 0.000000 0.000000 0.076726 0.000000
# 6 0.000000 0.000000 0.000000 0.000000 0.000000 0.046195
#
#
# Mechanical properties :
#
#
# Convention : Reuss Voigt Hill
#
# Bulk Modulus (GPa) = 16.10092 52.19170 34.14631
# Shear Modulus (GPa) = 13.63912 22.00093 17.82003
#
# Velocity S-wave (km/s) = 2.76111 3.50680 3.15605
# Velocity P-wave (km/s) = 4.37775 6.75055 5.68923
#
# Compressibility (1/GPa) = 0.06210825
#
# Stress axis : x y z
#
# Youngs Moduli (GPa) = 91.92311 10.78108 49.17937
#
# Poissons Ratio (x) = 0.15831 0.24249
# Poissons Ratio (y) = 1.34983 0.55644
# Poissons Ratio (z) = 0.45325 0.12198
#
# Static dielectric constant tensor:
#      x y z
#    x 1.642150 0.000000 0.000000 
#    y 0.000000 1.605610 0.000000 
#    z 0.000000 0.000000 1.583670 
# 
# From -- ./inp_files/36162.got.cif
#   From: 2010.05.17/outbox.cif.g08.bks.cpg/sg67_19_cif.got.tgz:36162.got - 2010.06.03 18:28:57.
