data_PCOD9502085
_publ_section_title
;
Structure prediction by ZEFSAII (Michael W. Deem and Ramdas Pophale) SiO2 
 PCOD9502085
Probable space group: C M M A
;
_chemical_formula_sum "Si O2"
_cell_formula_units_Z 96
_cell_length_a 19.403287
_cell_length_b 14.688335
_cell_length_c 16.766009
_cell_angle_alpha 90.000000
_cell_angle_beta 90.000000
_cell_angle_gamma 90.000000
_cell_volume 4778.345754
_symmetry_space_group_name_H-M "C M M A"
_symmetry_group_IT_number 67
_symmetry_cell_setting 'orthorhombic'
loop_
_space_group_symop_operation_xyz
x,y,z
-x,1/2-y,z
x,-y,-z
-x,1/2+y,-z
-x,-y,-z
x,1/2+y,-z
-x,y,z
x,1/2-y,z
1/2+x,1/2+y,z
1/2-x,-y,z
1/2+x,1/2-y,-z
1/2-x,y,-z
1/2-x,1/2-y,-z
1/2+x,y,-z
1/2-x,1/2+y,z
1/2+x,-y,z
loop_
_atom_site_type_symbol
_atom_site_label
_atom_site_fract_x
_atom_site_fract_y
_atom_site_fract_z
Si Si1 0.209576 0.861601 0.753525
Si Si2 0.150274 0.858779 0.323162
Si Si3 0.922587 0.392960 0.512559
Si Si4 0.719150 0.138891 0.084023
Si Si5 0.077129 0.855749 0.666347
Si Si6 0.577268 0.861175 0.837489
O O1 0.207190 0.750000 0.751436
O O2 0.273058 0.891448 0.697772
O O3 0.231037 0.887740 0.842829
O O4 0.136951 0.896716 0.720751
O O5 0.152955 0.750000 0.315198
O O6 0.124783 0.877517 0.411613
O O7 0.098466 0.888477 0.252711
O O8 0.926949 0.500000 0.500000
O O9 0.900300 0.356391 0.426314
O O10 0.000000 0.357354 0.528969
O O11 0.717873 0.250000 0.083299
O O12 0.641060 0.110120 0.106068
O O13 0.750000 0.108693 0.000000
O O14 0.070820 0.750000 0.689547
O O15 0.000000 0.896944 0.670578
O O16 0.500000 0.892719 0.857574
O O17 0.576120 0.750000 0.839832
#
# Coordination Sequence:
#
# PCOD9502085 Si02
#       6
#    16  16  16  16  16  16
#     4   8  15  27  42  61  82 107 142 177 207 245
#     4   9  16  27  44  62  82 111 144 176 210 249
#     4  10  20  31  42  60  87 113 139 176 216 249
#     4   8  13  22  36  55  83 113 133 159 208 257
#     4   9  17  30  46  60  79 112 149 177 202 242
#     4   8  13  21  35  56  79 104 138 174 202 238
#
# _framework density 20.090634999999999
#
# number of rings (size 3 to 8) (size 9 to 14) (size 15 to 20)
#    0.000    3.333    0.000    3.000    0.000    2.333 
#    0.000    5.000    0.000    5.000    0.000    0.000 
#    0.000   10.667    0.000   25.833    0.000   25.000 
#
# Total GULP energy -267555.296987 kJ/mol
# GULP energy per Si atom -5574.068687 kJ/mol
# Density = 2.004491 g / cm^3
# Si number density = 20.090635 Si / 1000 Ang^3
#
#
#
# Elastic Constant Matrix: (Units=GPa)
#
#
# Indices 1 2 3 4 5 6 
#
# 1 173.2244 8.3441 130.7451 0.0000 0.0000 0.0000
# 2 8.3441 38.8340 -0.7665 0.0000 0.0000 0.0000
# 3 130.7451 -0.7665 148.3101 0.0000 0.0000 0.0000
# 4 0.0000 0.0000 0.0000 -82.9572 0.0000 0.0000
# 5 0.0000 0.0000 0.0000 0.0000 21.8757 0.0000
# 6 0.0000 0.0000 0.0000 0.0000 0.0000 4.8329
#
#
#
# Elastic Compliance Matrix: (Units=1/GPa)
#
#
# Indices 1 2 3 4 5 6 
#
# 1 0.017899 -0.004158 -0.015801 0.000000 0.000000 0.000000
# 2 -0.004158 0.026719 0.003803 0.000000 0.000000 0.000000
# 3 -0.015801 0.003803 0.020692 0.000000 0.000000 0.000000
# 4 0.000000 0.000000 0.000000 -0.012054 0.000000 0.000000
# 5 0.000000 0.000000 0.000000 0.000000 0.045713 0.000000
# 6 0.000000 0.000000 0.000000 0.000000 0.000000 0.206915
#
#
# Mechanical properties :
#
#
# Convention : Reuss Voigt Hill
#
# Bulk Modulus (GPa) = 30.30332 70.77936 50.54134
# Shear Modulus (GPa) = 14.31872 3.55334 8.93603
#
# Velocity S-wave (km/s) = 2.67255 1.33135 2.11128
# Velocity P-wave (km/s) = 4.96381 6.13758 5.58163
#
# Compressibility (1/GPa) = 0.03299968
#
# Stress axis : x y z
#
# Youngs Moduli (GPa) = 55.86879 37.42649 48.32868
#
# Poissons Ratio (x) = 0.15561 0.76363
# Poissons Ratio (y) = 0.23229 -0.18382
# Poissons Ratio (z) = 0.88277 -0.14235
#
# Static dielectric constant tensor:
#      x y z
#    x 1.743530 0.000000 0.000000 
#    y 0.000000 1.647190 0.000000 
#    z 0.000000 0.000000 1.706240 
# 
# From -- ./inp_files/34237.got.cif
#   From: 2010.05.17/outbox.cif.g08.bks.cpg/sg67_18_cif.got.tgz:34237.got - 2010.06.03 18:28:57.
