data_PCOD9502869
_publ_section_title
;
Structure prediction by ZEFSAII (Michael W. Deem and Ramdas Pophale) SiO2 
 PCOD9502869
Probable space group: C M M A
;
_chemical_formula_sum "Si O2"
_cell_formula_units_Z 112
_cell_length_a 30.599609
_cell_length_b 14.336716
_cell_length_c 11.608690
_cell_angle_alpha 90.000000
_cell_angle_beta 90.000000
_cell_angle_gamma 90.000000
_cell_volume 5092.707971
_symmetry_space_group_name_H-M "C M M A"
_symmetry_group_IT_number 67
_symmetry_cell_setting 'orthorhombic'
loop_
_space_group_symop_operation_xyz
x,y,z
-x,1/2-y,z
x,-y,-z
-x,1/2+y,-z
-x,-y,-z
x,1/2+y,-z
-x,y,z
x,1/2-y,z
1/2+x,1/2+y,z
1/2-x,-y,z
1/2+x,1/2-y,-z
1/2-x,y,-z
1/2-x,1/2-y,-z
1/2+x,y,-z
1/2-x,1/2+y,z
1/2+x,-y,z
loop_
_atom_site_type_symbol
_atom_site_label
_atom_site_fract_x
_atom_site_fract_y
_atom_site_fract_z
Si Si1 0.549185 0.947072 0.853808
Si Si2 0.222923 0.140221 0.253067
Si Si3 0.821673 0.891429 0.977426
Si Si4 0.451997 0.964684 0.370164
Si Si5 0.178852 0.355170 0.756287
Si Si6 0.916941 0.647107 0.939080
Si Si7 0.855785 0.529407 0.633225
O O1 0.500000 0.928134 0.894131
O O2 0.549162 0.947571 0.716983
O O3 0.578801 0.876279 0.924364
O O4 0.561267 0.055145 0.883943
O O5 0.219161 0.250000 0.270611
O O6 0.272522 0.114494 0.284808
O O7 0.184791 0.089907 0.323069
O O8 0.215978 0.121299 0.116372
O O9 0.817693 0.850984 0.104926
O O10 0.865478 0.854720 0.916064
O O11 0.828153 0.000000 0.000000
O O12 0.500000 0.918119 0.347512
O O13 0.403519 0.921330 0.353495
O O14 0.452725 0.000000 0.500000
O O15 0.168934 0.250000 0.715232
O O16 0.146753 0.435349 0.711174
O O17 0.934804 0.750000 0.912439
O O18 0.850977 0.500000 0.500000
#
# Coordination Sequence:
#
# PCOD9502869 Si02
#       7
#    16  16  16  16  16  16  16
#     4  10  20  35  55  82 114 148 192 242 294 356
#     4  11  24  40  60  89 123 159 201 247 295 350
#     4  12  21  36  60  84 117 156 197 244 292 348
#     4   9  19  38  64  88 112 149 195 246 299 346
#     4  11  24  40  60  89 123 159 201 247 295 350
#     4  11  21  34  54  82 117 155 193 235 290 353
#     4  11  23  40  64  89 118 159 203 244 296 357
#
# _framework density 21.992228000000001
#
# number of rings (size 3 to 8) (size 9 to 14) (size 15 to 20)
#    0.000    1.286    2.857    4.714    0.000    4.571 
#    0.000    1.429    0.000    5.143    0.000   12.000 
#    0.000    0.000    0.000    0.000    0.000    0.000 
#
# Total GULP energy -312453.154764 kJ/mol
# GULP energy per Si atom -5579.520621 kJ/mol
# Density = 2.194217 g / cm^3
# Si number density = 21.992228 Si / 1000 Ang^3
#
#
#
# Elastic Constant Matrix: (Units=GPa)
#
#
# Indices 1 2 3 4 5 6 
#
# 1 128.6305 29.9269 6.8242 0.0000 0.0000 0.0000
# 2 29.9269 90.4445 -7.1353 0.0000 0.0000 0.0000
# 3 6.8242 -7.1353 86.3384 0.0000 0.0000 0.0000
# 4 0.0000 0.0000 0.0000 0.7477 0.0000 0.0000
# 5 0.0000 0.0000 0.0000 0.0000 33.3330 0.0000
# 6 0.0000 0.0000 0.0000 0.0000 0.0000 3.8017
#
#
#
# Elastic Compliance Matrix: (Units=1/GPa)
#
#
# Indices 1 2 3 4 5 6 
#
# 1 0.008493 -0.002882 -0.000909 0.000000 0.000000 0.000000
# 2 -0.002882 0.012107 0.001228 0.000000 0.000000 0.000000
# 3 -0.000909 0.001228 0.011756 0.000000 0.000000 0.000000
# 4 0.000000 0.000000 0.000000 1.337456 0.000000 0.000000
# 5 0.000000 0.000000 0.000000 0.000000 0.030000 0.000000
# 6 0.000000 0.000000 0.000000 0.000000 0.000000 0.263038
#
#
# Mechanical properties :
#
#
# Convention : Reuss Voigt Hill
#
# Bulk Modulus (GPa) = 36.72476 40.51610 38.62043
# Shear Modulus (GPa) = 2.98142 25.96299 14.47221
#
# Velocity S-wave (km/s) = 1.16560 3.43965 2.56805
# Velocity P-wave (km/s) = 4.30659 5.85131 5.13734
#
# Compressibility (1/GPa) = 0.02722958
#
# Stress axis : x y z
#
# Youngs Moduli (GPa) = 117.74455 82.59675 85.06493
#
# Poissons Ratio (x) = 0.23804 0.07736
# Poissons Ratio (y) = 0.33933 -0.10449
# Poissons Ratio (z) = 0.10708 -0.10146
#
# Static dielectric constant tensor:
#      x y z
#    x 1.871470 0.000000 0.000000 
#    y 0.000000 1.793480 0.000000 
#    z 0.000000 0.000000 1.859090 
# 
# From -- ./inp_files/23860.got.cif
#   From: 2010.05.17/outbox.cif.g08.bks.cpg/sg67_12_cif.got.tgz:23860.got - 2010.06.03 18:28:57.
