data_PCOD9502547
_publ_section_title
;
Structure prediction by ZEFSAII (Michael W. Deem and Ramdas Pophale) SiO2 
 PCOD9502547
Probable space group: C M M A
;
_chemical_formula_sum "Si O2"
_cell_formula_units_Z 112
_cell_length_a 28.302271
_cell_length_b 14.022179
_cell_length_c 16.024418
_cell_angle_alpha 90.000000
_cell_angle_beta 90.000000
_cell_angle_gamma 90.000000
_cell_volume 6359.442677
_symmetry_space_group_name_H-M "C M M A"
_symmetry_group_IT_number 67
_symmetry_cell_setting 'orthorhombic'
loop_
_space_group_symop_operation_xyz
x,y,z
-x,1/2-y,z
x,-y,-z
-x,1/2+y,-z
-x,-y,-z
x,1/2+y,-z
-x,y,z
x,1/2-y,z
1/2+x,1/2+y,z
1/2-x,-y,z
1/2+x,1/2-y,-z
1/2-x,y,-z
1/2-x,1/2-y,-z
1/2+x,y,-z
1/2-x,1/2+y,z
1/2+x,-y,z
loop_
_atom_site_type_symbol
_atom_site_label
_atom_site_fract_x
_atom_site_fract_y
_atom_site_fract_z
Si Si1 0.946779 0.365146 0.649913
Si Si2 0.555240 0.639669 0.234879
Si Si3 0.304489 0.472846 0.298970
Si Si4 0.121872 0.637296 0.195307
Si Si5 0.855988 0.865476 0.447422
Si Si6 0.363961 0.137676 0.641233
Si Si7 0.053997 0.022999 0.902403
O O1 0.950382 0.250000 0.644177
O O2 0.918463 0.385070 0.734809
O O3 0.908924 0.394657 0.580526
O O4 0.000000 0.403766 0.646632
O O5 0.500000 0.633571 0.253874
O O6 0.565939 0.750000 0.211326
O O7 0.584717 0.618193 0.318807
O O8 0.564179 0.567711 0.158112
O O9 0.250000 0.500000 0.292030
O O10 0.330192 0.413229 0.225771
O O11 0.319084 0.415460 0.384322
O O12 0.330260 0.574001 0.303463
O O13 0.128995 0.750000 0.193287
O O14 0.095951 0.597338 0.114395
O O15 0.851584 0.750000 0.437022
O O16 0.853624 0.887820 0.545092
O O17 0.355409 0.250000 0.648240
O O18 0.000000 0.056426 0.881335
O O19 0.053572 0.000000 0.000000
#
# Coordination Sequence:
#
# PCOD9502547 Si02
#       7
#    16  16  16  16  16  16  16
#     4   8  14  26  46  71 102 139 172 208 256 311
#     4   9  18  34  54  77 112 153 186 219 262 323
#     4  11  22  37  56  76 103 141 186 237 292 332
#     4  10  20  36  57  82 113 145 182 229 280 334
#     4   9  19  33  49  75 109 140 181 232 276 326
#     4  10  20  34  52  75 104 144 189 227 272 330
#     4  10  20  34  57  90 122 149 179 216 264 330
#
# _framework density 17.611606999999999
#
# number of rings (size 3 to 8) (size 9 to 14) (size 15 to 20)
#    0.000    2.429    1.429    2.143    0.000    4.286 
#    0.000    5.714    0.000    3.000    0.000    1.000 
#    0.000    0.000    0.000    0.000    0.000    0.000 
#
# Total GULP energy -311965.368166 kJ/mol
# GULP energy per Si atom -5570.810146 kJ/mol
# Density = 1.757152 g / cm^3
# Si number density = 17.611607 Si / 1000 Ang^3
#
#
#
# Elastic Constant Matrix: (Units=GPa)
#
#
# Indices 1 2 3 4 5 6 
#
# 1 121.4751 43.0921 30.0516 0.0000 0.0000 0.0000
# 2 43.0921 56.2687 30.2398 0.0000 0.0000 0.0000
# 3 30.0516 30.2398 54.2667 0.0000 0.0000 0.0000
# 4 0.0000 0.0000 0.0000 18.9194 0.0000 0.0000
# 5 0.0000 0.0000 0.0000 0.0000 8.7453 0.0000
# 6 0.0000 0.0000 0.0000 0.0000 0.0000 20.1618
#
#
#
# Elastic Compliance Matrix: (Units=1/GPa)
#
#
# Indices 1 2 3 4 5 6 
#
# 1 0.011465 -0.007663 -0.002079 0.000000 0.000000 0.000000
# 2 -0.007663 0.030491 -0.012747 0.000000 0.000000 0.000000
# 3 -0.002079 -0.012747 0.026682 0.000000 0.000000 0.000000
# 4 0.000000 0.000000 0.000000 0.052856 0.000000 0.000000
# 5 0.000000 0.000000 0.000000 0.000000 0.114347 0.000000
# 6 0.000000 0.000000 0.000000 0.000000 0.000000 0.049599
#
#
# Mechanical properties :
#
#
# Convention : Reuss Voigt Hill
#
# Bulk Modulus (GPa) = 42.26597 48.75304 45.50951
# Shear Modulus (GPa) = 14.77961 18.14045 16.46003
#
# Velocity S-wave (km/s) = 2.90003 3.21289 3.06046
# Velocity P-wave (km/s) = 5.93840 6.44251 6.19559
#
# Compressibility (1/GPa) = 0.02365970
#
# Stress axis : x y z
#
# Youngs Moduli (GPa) = 87.22413 32.79663 37.47827
#
# Poissons Ratio (x) = 0.25131 0.07791
# Poissons Ratio (y) = 0.66838 0.47775
# Poissons Ratio (z) = 0.18132 0.41807
#
# Static dielectric constant tensor:
#      x y z
#    x 1.622570 0.000000 0.000000 
#    y 0.000000 1.654970 0.000000 
#    z 0.000000 0.000000 1.618400 
# 
# From -- ./inp_files/30783.got.cif
#   From: 2010.05.17/outbox.cif.g08.bks.cpg/sg67_16_cif.got.tgz:30783.got - 2010.06.03 18:28:57.
