data_PCOD9502816
_publ_section_title
;
Structure prediction by ZEFSAII (Michael W. Deem and Ramdas Pophale) SiO2 
 PCOD9502816
Probable space group: C M M A
;
_chemical_formula_sum "Si O2"
_cell_formula_units_Z 80
_cell_length_a 25.870938
_cell_length_b 19.418943
_cell_length_c 8.543411
_cell_angle_alpha 90.000000
_cell_angle_beta 90.000000
_cell_angle_gamma 90.000000
_cell_volume 4292.092389
_symmetry_space_group_name_H-M "C M M A"
_symmetry_group_IT_number 67
_symmetry_cell_setting 'orthorhombic'
loop_
_space_group_symop_operation_xyz
x,y,z
-x,1/2-y,z
x,-y,-z
-x,1/2+y,-z
-x,-y,-z
x,1/2+y,-z
-x,y,z
x,1/2-y,z
1/2+x,1/2+y,z
1/2-x,-y,z
1/2+x,1/2-y,-z
1/2-x,y,-z
1/2-x,1/2-y,-z
1/2+x,y,-z
1/2-x,1/2+y,z
1/2+x,-y,z
loop_
_atom_site_type_symbol
_atom_site_label
_atom_site_fract_x
_atom_site_fract_y
_atom_site_fract_z
Si Si1 0.234655 0.827130 0.685918
Si Si2 0.651737 0.329989 0.269667
Si Si3 0.942290 0.388874 0.914184
Si Si4 0.056745 0.960395 0.756417
Si Si5 0.657375 0.929167 0.435803
O O1 0.215549 0.750000 0.725461
O O2 0.250000 0.825462 0.500000
O O3 0.288026 0.840599 0.778512
O O4 0.193008 0.887684 0.687059
O O5 0.648303 0.250000 0.316164
O O6 0.606824 0.346711 0.146643
O O7 0.645541 0.379137 0.419060
O O8 0.940993 0.462481 0.825411
O O9 0.000000 0.358627 0.885625
O O10 0.938646 0.408658 0.096502
O O11 0.103769 0.949087 0.642556
O O12 0.000000 0.950437 0.683984
O O13 0.682217 0.000000 0.500000
#
# Coordination Sequence:
#
# PCOD9502816 Si02
#       5
#    16  16  16  16  16
#     4   8  17  33  50  71 107 144 171 209 266 319
#     4  10  20  35  54  79 109 143 181 219 265 320
#     4   9  18  36  56  74 103 142 179 216 266 322
#     4   9  19  35  54  77 107 137 170 221 276 319
#     4  11  19  31  54  85 106 137 180 224 266 318
#
# _framework density 18.638929000000001
#
# number of rings (size 3 to 8) (size 9 to 14) (size 15 to 20)
#    0.000    2.600    2.000    3.000    0.000    5.200 
#    0.000    3.000    0.000    9.000    0.000    0.000 
#    0.000    0.000    0.000    0.000    0.000    0.000 
#
# Total GULP energy -222856.927062 kJ/mol
# GULP energy per Si atom -5571.423177 kJ/mol
# Density = 1.859651 g / cm^3
# Si number density = 18.638929 Si / 1000 Ang^3
#
#
#
# Elastic Constant Matrix: (Units=GPa)
#
#
# Indices 1 2 3 4 5 6 
#
# 1 128.4439 53.9081 27.4223 0.0000 0.0000 0.0000
# 2 53.9081 82.8780 19.8205 0.0000 0.0000 0.0000
# 3 27.4223 19.8205 15.6821 0.0000 0.0000 0.0000
# 4 0.0000 0.0000 0.0000 19.0237 0.0000 0.0000
# 5 0.0000 0.0000 0.0000 0.0000 6.5727 0.0000
# 6 0.0000 0.0000 0.0000 0.0000 0.0000 -2.9571
#
#
#
# Elastic Compliance Matrix: (Units=1/GPa)
#
#
# Indices 1 2 3 4 5 6 
#
# 1 0.013498 -0.004493 -0.017924 0.000000 0.000000 0.000000
# 2 -0.004493 0.018789 -0.015890 0.000000 0.000000 0.000000
# 3 -0.017924 -0.015890 0.115193 0.000000 0.000000 0.000000
# 4 0.000000 0.000000 0.000000 0.052566 0.000000 0.000000
# 5 0.000000 0.000000 0.000000 0.000000 0.152144 0.000000
# 6 0.000000 0.000000 0.000000 0.000000 0.000000 -0.338164
#
#
# Mechanical properties :
#
#
# Convention : Reuss Voigt Hill
#
# Bulk Modulus (GPa) = 14.11137 47.70065 30.90601
# Shear Modulus (GPa) = 43.75934 12.91807 28.33871
#
# Velocity S-wave (km/s) = 4.85060 2.63548 3.90347
# Velocity P-wave (km/s) = 6.24167 5.90834 6.07729
#
# Compressibility (1/GPa) = 0.07086487
#
# Stress axis : x y z
#
# Youngs Moduli (GPa) = 74.08467 53.22371 8.68110
#
# Poissons Ratio (x) = 0.23914 0.15560
# Poissons Ratio (y) = 0.33288 0.13794
# Poissons Ratio (z) = 1.32791 0.84572
#
# Static dielectric constant tensor:
#      x y z
#    x 1.686040 0.000000 0.000000 
#    y 0.000000 1.655550 0.000000 
#    z 0.000000 0.000000 1.648950 
# 
# From -- ./inp_files/9892.got.cif
#   From: 2010.05.17/outbox.cif.g08.bks.cpg/sg67_5_cif.got.tgz:9892.got - 2010.06.03 18:28:57.
