data_PCOD9502640
_publ_section_title
;
Structure prediction by ZEFSAII (Michael W. Deem and Ramdas Pophale) SiO2 
 PCOD9502640
Probable space group: C M M A
;
_chemical_formula_sum "Si O2"
_cell_formula_units_Z 80
_cell_length_a 17.032222
_cell_length_b 13.834245
_cell_length_c 18.800123
_cell_angle_alpha 90.000000
_cell_angle_beta 90.000000
_cell_angle_gamma 90.000000
_cell_volume 4429.834105
_symmetry_space_group_name_H-M "C M M A"
_symmetry_group_IT_number 67
_symmetry_cell_setting 'orthorhombic'
loop_
_space_group_symop_operation_xyz
x,y,z
-x,1/2-y,z
x,-y,-z
-x,1/2+y,-z
-x,-y,-z
x,1/2+y,-z
-x,y,z
x,1/2-y,z
1/2+x,1/2+y,z
1/2-x,-y,z
1/2+x,1/2-y,-z
1/2-x,y,-z
1/2-x,1/2-y,-z
1/2+x,y,-z
1/2-x,1/2+y,z
1/2+x,-y,z
loop_
_atom_site_type_symbol
_atom_site_label
_atom_site_fract_x
_atom_site_fract_y
_atom_site_fract_z
Si Si1 0.340173 0.031274 0.107753
Si Si2 0.905247 0.136934 0.754229
Si Si3 0.160227 0.361062 0.474037
Si Si4 0.407529 0.966424 0.607054
Si Si5 0.407797 0.639075 0.025918
O O1 0.366698 0.082715 0.179569
O O2 0.250000 0.000000 0.109259
O O3 0.389354 0.934747 0.089331
O O4 0.358123 0.102701 0.041678
O O5 0.883070 0.250000 0.752462
O O6 0.884326 0.084593 0.680346
O O7 0.000000 0.132616 0.761668
O O8 0.145997 0.250000 0.454573
O O9 0.250000 0.371169 0.500000
O O10 0.140320 0.436973 0.412223
O O11 0.108155 0.393750 0.541471
O O12 0.500000 0.989321 0.609703
O O13 0.500000 0.631821 0.007106
O O14 0.390074 0.750000 0.043217
#
# Coordination Sequence:
#
# PCOD9502640 Si02
#       5
#    16  16  16  16  16
#     4  11  22  34  54  82 110 139 174 221 269 318
#     4  10  21  38  58  78 104 141 183 224 266 315
#     4  10  20  34  54  79 109 143 174 212 266 323
#     4  10  20  34  55  80 105 136 180 228 263 305
#     4  10  20  36  58  80 106 142 180 218 261 313
#
# _framework density 18.059367000000002
#
# number of rings (size 3 to 8) (size 9 to 14) (size 15 to 20)
#    0.000    1.800    0.000    7.200    0.000    8.000 
#    0.000    1.000    0.000    1.200    0.000    0.000 
#    0.000    0.000    0.000    0.000    0.000    0.000 
#
# Total GULP energy -223380.978372 kJ/mol
# GULP energy per Si atom -5584.524459 kJ/mol
# Density = 1.801826 g / cm^3
# Si number density = 18.059367 Si / 1000 Ang^3
#
#
#
# Elastic Constant Matrix: (Units=GPa)
#
#
# Indices 1 2 3 4 5 6 
#
# 1 58.1522 55.3610 40.7958 0.0000 0.0000 0.0000
# 2 55.3610 186.3480 85.1690 0.0000 0.0000 0.0000
# 3 40.7958 85.1690 125.2676 0.0000 0.0000 0.0000
# 4 0.0000 0.0000 0.0000 18.8277 0.0000 0.0000
# 5 0.0000 0.0000 0.0000 0.0000 27.4673 0.0000
# 6 0.0000 0.0000 0.0000 0.0000 0.0000 37.5086
#
#
#
# Elastic Compliance Matrix: (Units=1/GPa)
#
#
# Indices 1 2 3 4 5 6 
#
# 1 0.025690 -0.005525 -0.004610 0.000000 0.000000 0.000000
# 2 -0.005525 0.008974 -0.004302 0.000000 0.000000 0.000000
# 3 -0.004610 -0.004302 0.012409 0.000000 0.000000 0.000000
# 4 0.000000 0.000000 0.000000 0.053113 0.000000 0.000000
# 5 0.000000 0.000000 0.000000 0.000000 0.036407 0.000000
# 6 0.000000 0.000000 0.000000 0.000000 0.000000 0.026661
#
#
# Mechanical properties :
#
#
# Convention : Reuss Voigt Hill
#
# Bulk Modulus (GPa) = 54.94783 81.37993 68.16388
# Shear Modulus (GPa) = 25.22773 29.32352 27.27563
#
# Velocity S-wave (km/s) = 3.74161 4.03392 3.89051
# Velocity P-wave (km/s) = 7.01131 8.17661 7.61628
#
# Compressibility (1/GPa) = 0.01819908
#
# Stress axis : x y z
#
# Youngs Moduli (GPa) = 38.92517 111.43386 80.58590
#
# Poissons Ratio (x) = 0.61570 0.37150
# Poissons Ratio (y) = 0.21507 0.34668
# Poissons Ratio (z) = 0.17944 0.47938
#
# Static dielectric constant tensor:
#      x y z
#    x 1.627470 0.000000 0.000000 
#    y 0.000000 1.616490 0.000000 
#    z 0.000000 0.000000 1.593790 
# 
# From -- ./inp_files/34098.got.cif
#   From: 2010.05.17/outbox.cif.g08.bks.cpg/sg67_18_cif.got.tgz:34098.got - 2010.06.03 18:28:57.
