data_PCOD9502578
_publ_section_title
;
Structure prediction by ZEFSAII (Michael W. Deem and Ramdas Pophale) SiO2 
 PCOD9502578
Probable space group: C M M A
;
_chemical_formula_sum "Si O2"
_cell_formula_units_Z 96
_cell_length_a 20.675264
_cell_length_b 8.747949
_cell_length_c 30.498012
_cell_angle_alpha 90.000000
_cell_angle_beta 90.000000
_cell_angle_gamma 90.000000
_cell_volume 5516.058167
_symmetry_space_group_name_H-M "C M M A"
_symmetry_group_IT_number 67
_symmetry_cell_setting 'orthorhombic'
loop_
_space_group_symop_operation_xyz
x,y,z
-x,1/2-y,z
x,-y,-z
-x,1/2+y,-z
-x,-y,-z
x,1/2+y,-z
-x,y,z
x,1/2-y,z
1/2+x,1/2+y,z
1/2-x,-y,z
1/2+x,1/2-y,-z
1/2-x,y,-z
1/2-x,1/2-y,-z
1/2+x,y,-z
1/2-x,1/2+y,z
1/2+x,-y,z
loop_
_atom_site_type_symbol
_atom_site_label
_atom_site_fract_x
_atom_site_fract_y
_atom_site_fract_z
Si Si1 0.574313 0.565395 0.547697
Si Si2 0.319598 0.567649 0.951674
Si Si3 0.320183 0.567071 0.719557
Si Si4 0.320133 0.065547 0.381513
Si Si5 0.424877 0.066176 0.886597
Si Si6 0.574099 0.934086 0.215355
O O1 0.591410 0.500000 0.500000
O O2 0.500000 0.520020 0.557418
O O3 0.576101 0.750000 0.545681
O O4 0.624299 0.514879 0.585005
O O5 0.315287 0.750000 0.954332
O O6 0.250000 0.500000 0.937737
O O7 0.375201 0.516314 0.918448
O O8 0.332957 0.500000 0.000000
O O9 0.317286 0.750000 0.721281
O O10 0.250000 0.500000 0.731344
O O11 0.333776 0.520808 0.668962
O O12 0.374919 0.507273 0.751985
O O13 0.317074 0.250000 0.382836
O O14 0.250000 0.000000 0.393572
O O15 0.500000 0.029326 0.896434
O O16 0.417706 0.250000 0.890911
O O17 0.412949 0.026472 0.835568
O O18 0.500000 0.979576 0.225395
O O19 0.577604 0.750000 0.218581
#
# Coordination Sequence:
#
# PCOD9502578 Si02
#       6
#    16  16  16  16  16  16
#     4   9  18  33  51  71  97 128 163 203 247 296
#     4  11  22  37  57  80 108 140 176 217 260 307
#     4  10  20  34  53  76 103 136 173 213 256 305
#     4   9  19  34  51  72  99 131 165 205 251 297
#     4   9  19  37  58  79 106 139 174 213 258 307
#     4   9  19  36  56  78 106 138 171 212 260 306
#
# _framework density 17.403732999999999
#
# number of rings (size 3 to 8) (size 9 to 14) (size 15 to 20)
#    0.000    2.500    0.000    3.500    0.000    4.667 
#    0.000    5.000    0.000    2.000    0.000    0.000 
#    0.000    0.000    0.000    0.000    0.000    0.000 
#
# Total GULP energy -267825.243216 kJ/mol
# GULP energy per Si atom -5579.692567 kJ/mol
# Density = 1.736412 g / cm^3
# Si number density = 17.403733 Si / 1000 Ang^3
#
#
#
# Elastic Constant Matrix: (Units=GPa)
#
#
# Indices 1 2 3 4 5 6 
#
# 1 160.7965 60.3345 126.3618 0.0000 0.0000 0.0000
# 2 60.3345 52.0654 52.3743 0.0000 0.0000 0.0000
# 3 126.3618 52.3743 117.4310 0.0000 0.0000 0.0000
# 4 0.0000 0.0000 0.0000 28.1691 0.0000 0.0000
# 5 0.0000 0.0000 0.0000 0.0000 43.3871 0.0000
# 6 0.0000 0.0000 0.0000 0.0000 0.0000 29.5314
#
#
#
# Elastic Compliance Matrix: (Units=1/GPa)
#
#
# Indices 1 2 3 4 5 6 
#
# 1 0.041197 -0.005708 -0.041784 0.000000 0.000000 0.000000
# 2 -0.005708 0.035626 -0.009748 0.000000 0.000000 0.000000
# 3 -0.041784 -0.009748 0.057825 0.000000 0.000000 0.000000
# 4 0.000000 0.000000 0.000000 0.035500 0.000000 0.000000
# 5 0.000000 0.000000 0.000000 0.000000 0.023048 0.000000
# 6 0.000000 0.000000 0.000000 0.000000 0.000000 0.033862
#
#
# Mechanical properties :
#
#
# Convention : Reuss Voigt Hill
#
# Bulk Modulus (GPa) = 49.58087 89.82601 69.70344
# Shear Modulus (GPa) = 14.35705 26.29899 20.32802
#
# Velocity S-wave (km/s) = 2.87529 3.89152 3.42135
# Velocity P-wave (km/s) = 6.29075 8.48039 7.46628
#
# Compressibility (1/GPa) = 0.02016907
#
# Stress axis : x y z
#
# Youngs Moduli (GPa) = 24.27371 28.06926 17.29349
#
# Poissons Ratio (x) = 0.16021 0.72260
# Poissons Ratio (y) = 0.13854 0.16857
# Poissons Ratio (z) = 1.01426 0.27361
#
# Static dielectric constant tensor:
#      x y z
#    x 1.569270 0.000000 0.000000 
#    y 0.000000 1.586060 0.000000 
#    z 0.000000 0.000000 1.573580 
# 
# From -- ./inp_files/43437.got.cif
#   From: 2010.05.17/outbox.cif.g08.bks.cpg/sg67_22_cif.got.tgz:43437.got - 2010.06.03 18:28:57.
