data_PCOD9502010
_publ_section_title
;
Structure prediction by ZEFSAII (Michael W. Deem and Ramdas Pophale) SiO2 
 PCOD9502010
Probable space group: C M M A
;
_chemical_formula_sum "Si O2"
_cell_formula_units_Z 64
_cell_length_a 22.178572
_cell_length_b 14.791955
_cell_length_c 7.289331
_cell_angle_alpha 90.000000
_cell_angle_beta 90.000000
_cell_angle_gamma 90.000000
_cell_volume 2391.370285
_symmetry_space_group_name_H-M "C M M A"
_symmetry_group_IT_number 67
_symmetry_cell_setting 'orthorhombic'
loop_
_space_group_symop_operation_xyz
x,y,z
-x,1/2-y,z
x,-y,-z
-x,1/2+y,-z
-x,-y,-z
x,1/2+y,-z
-x,y,z
x,1/2-y,z
1/2+x,1/2+y,z
1/2-x,-y,z
1/2+x,1/2-y,-z
1/2-x,y,-z
1/2-x,1/2-y,-z
1/2+x,y,-z
1/2-x,1/2+y,z
1/2+x,-y,z
loop_
_atom_site_type_symbol
_atom_site_label
_atom_site_fract_x
_atom_site_fract_y
_atom_site_fract_z
Si Si1 0.363260 0.360233 0.504232
Si Si2 0.786130 0.849957 0.172118
Si Si3 0.373546 0.902052 0.097340
Si Si4 0.500000 0.608300 0.021730
Si Si5 0.500000 0.353184 0.403891
O O1 0.363038 0.250000 0.499959
O O2 0.311508 0.390214 0.359788
O O3 0.343657 0.394686 0.704895
O O4 0.432584 0.391184 0.456635
O O5 0.759092 0.750000 0.206087
O O6 0.750000 0.895067 0.000000
O O7 0.848280 0.840049 0.061118
O O8 0.440982 0.868974 0.132052
O O9 0.372716 0.000000 0.000000
O O10 0.500000 0.500000 0.000000
O O11 0.500000 0.645236 0.817269
O O12 0.500000 0.250000 0.469979
#
# Coordination Sequence:
#
# PCOD9502010 Si02
#       5
#    16  16  16   8   8
#     4  10  21  38  63  95 128 168 220 274 327 387
#     4  10  22  41  64  90 122 165 218 276 329 382
#     4  11  23  39  60  92 129 171 214 260 329 396
#     4  10  21  38  56  92 129 172 210 265 334 394
#     4  10  19  36  64  94 127 170 220 278 332 386
#
# _framework density 26.762896999999999
#
# number of rings (size 3 to 8) (size 9 to 14) (size 15 to 20)
#    0.000    1.750    2.500    1.500    0.000    3.500 
#    0.000    6.250    0.000    3.000    0.000    0.000 
#    0.000    0.000    0.000    0.000    0.000    0.750 
#
# Total GULP energy -178530.444383 kJ/mol
# GULP energy per Si atom -5579.076387 kJ/mol
# Density = 2.670198 g / cm^3
# Si number density = 26.762897 Si / 1000 Ang^3
#
#
#
# Elastic Constant Matrix: (Units=GPa)
#
#
# Indices 1 2 3 4 5 6 
#
# 1 49.2869 9.7816 27.0671 0.0000 0.0000 0.0000
# 2 9.7816 103.2519 3.9597 0.0000 0.0000 0.0000
# 3 27.0671 3.9597 232.7035 0.0000 0.0000 0.0000
# 4 0.0000 0.0000 0.0000 25.2349 0.0000 0.0000
# 5 0.0000 0.0000 0.0000 0.0000 49.2147 0.0000
# 6 0.0000 0.0000 0.0000 0.0000 0.0000 7.2088
#
#
#
# Elastic Compliance Matrix: (Units=1/GPa)
#
#
# Indices 1 2 3 4 5 6 
#
# 1 0.022077 -0.001994 -0.002534 0.000000 0.000000 0.000000
# 2 -0.001994 0.009872 0.000064 0.000000 0.000000 0.000000
# 3 -0.002534 0.000064 0.004591 0.000000 0.000000 0.000000
# 4 0.000000 0.000000 0.000000 0.039628 0.000000 0.000000
# 5 0.000000 0.000000 0.000000 0.000000 0.020319 0.000000
# 6 0.000000 0.000000 0.000000 0.000000 0.000000 0.138720
#
#
# Mechanical properties :
#
#
# Convention : Reuss Voigt Hill
#
# Bulk Modulus (GPa) = 36.21774 51.87324 44.04549
# Shear Modulus (GPa) = 19.73651 39.29393 29.51522
#
# Velocity S-wave (km/s) = 2.71856 3.83590 3.32451
# Velocity P-wave (km/s) = 4.83904 6.24847 5.58837
#
# Compressibility (1/GPa) = 0.02761078
#
# Stress axis : x y z
#
# Youngs Moduli (GPa) = 45.29658 101.30146 217.81931
#
# Poissons Ratio (x) = 0.20202 0.55194
# Poissons Ratio (y) = 0.09033 -0.01394
# Poissons Ratio (z) = 0.11478 -0.00648
#
# Static dielectric constant tensor:
#      x y z
#    x 2.390600 0.000000 0.000000 
#    y 0.000000 2.113320 0.000000 
#    z 0.000000 0.000000 1.997190 
# 
# From -- ./inp_files/4032.got.cif
#   From: 2010.05.17/outbox.cif.g08.bks.cpg/sg67_3_cif.got.tgz:4032.got - 2010.06.03 18:28:57.
