data_PCOD9502933
_publ_section_title
;
Structure prediction by ZEFSAII (Michael W. Deem and Ramdas Pophale) SiO2 
 PCOD9502933
Probable space group: C M M A
;
_chemical_formula_sum "Si O2"
_cell_formula_units_Z 88
_cell_length_a 16.261874
_cell_length_b 8.810648
_cell_length_c 31.595021
_cell_angle_alpha 90.000000
_cell_angle_beta 90.000000
_cell_angle_gamma 90.000000
_cell_volume 4526.860286
_symmetry_space_group_name_H-M "C M M A"
_symmetry_group_IT_number 67
_symmetry_cell_setting 'orthorhombic'
loop_
_space_group_symop_operation_xyz
x,y,z
-x,1/2-y,z
x,-y,-z
-x,1/2+y,-z
-x,-y,-z
x,1/2+y,-z
-x,y,z
x,1/2-y,z
1/2+x,1/2+y,z
1/2-x,-y,z
1/2+x,1/2-y,-z
1/2-x,y,-z
1/2-x,1/2-y,-z
1/2+x,y,-z
1/2-x,1/2+y,z
1/2+x,-y,z
loop_
_atom_site_type_symbol
_atom_site_label
_atom_site_fract_x
_atom_site_fract_y
_atom_site_fract_z
Si Si1 0.658476 0.067551 0.542525
Si Si2 0.902975 0.920489 0.634714
Si Si3 0.342016 0.568630 0.197746
Si Si4 0.840815 0.570951 0.281680
Si Si5 0.000000 0.934086 0.953042
Si Si6 0.157639 0.432754 0.102591
O O1 0.659596 0.250000 0.539208
O O2 0.620920 0.025905 0.587859
O O3 0.617975 0.000000 0.500000
O O4 0.750000 0.000000 0.543505
O O5 0.866534 0.750000 0.640974
O O6 0.000000 0.907083 0.635254
O O7 0.878801 0.025529 0.673593
O O8 0.339103 0.750000 0.202287
O O9 0.250000 0.500000 0.197152
O O10 0.383087 0.499690 0.239730
O O11 0.372889 0.532123 0.150597
O O12 0.836733 0.750000 0.276590
O O13 0.750000 0.500000 0.283115
O O14 0.915493 0.980753 0.928972
O O15 0.000000 0.750000 0.953912
O O16 0.000000 0.000000 0.000000
O O17 0.166148 0.250000 0.099931
O O18 0.250000 0.500000 0.095873
#
# Coordination Sequence:
#
# PCOD9502933 Si02
#       6
#    16  16  16  16   8  16
#     4  10  20  35  57  81 103 131 171 218 266 318
#     4  10  22  39  55  75 107 144 180 219 268 326
#     4   9  16  30  53  80 107 141 182 226 275 328
#     4  11  21  34  55  81 110 143 182 226 272 325
#     4  10  22  40  58  84 118 154 196 242 289 350
#     4   9  19  36  59  84 115 151 195 241 291 347
#
# _framework density 19.439522
#
# number of rings (size 3 to 8) (size 9 to 14) (size 15 to 20)
#    0.000    2.182    0.000    4.909    0.000    5.455 
#    1.636    1.818    0.000    0.000    0.000    0.000 
#    0.000    0.000    0.000    0.000    0.000    0.000 
#
# Total GULP energy -245267.084390 kJ/mol
# GULP energy per Si atom -5574.251918 kJ/mol
# Density = 1.939528 g / cm^3
# Si number density = 19.439522 Si / 1000 Ang^3
#
#
#
# Elastic Constant Matrix: (Units=GPa)
#
#
# Indices 1 2 3 4 5 6 
#
# 1 65.7911 27.1157 67.3816 0.0000 0.0000 0.0000
# 2 27.1157 76.8459 73.1400 0.0000 0.0000 0.0000
# 3 67.3816 73.1400 210.0449 0.0000 0.0000 0.0000
# 4 0.0000 0.0000 0.0000 34.2230 0.0000 0.0000
# 5 0.0000 0.0000 0.0000 0.0000 50.5697 0.0000
# 6 0.0000 0.0000 0.0000 0.0000 0.0000 14.3287
#
#
#
# Elastic Compliance Matrix: (Units=1/GPa)
#
#
# Indices 1 2 3 4 5 6 
#
# 1 0.022771 -0.001619 -0.006741 0.000000 0.000000 0.000000
# 2 -0.001619 0.019579 -0.006298 0.000000 0.000000 0.000000
# 3 -0.006741 -0.006298 0.009117 0.000000 0.000000 0.000000
# 4 0.000000 0.000000 0.000000 0.029220 0.000000 0.000000
# 5 0.000000 0.000000 0.000000 0.000000 0.019775 0.000000
# 6 0.000000 0.000000 0.000000 0.000000 0.000000 0.069790
#
#
# Mechanical properties :
#
#
# Convention : Reuss Voigt Hill
#
# Bulk Modulus (GPa) = 45.14716 76.43961 60.79339
# Shear Modulus (GPa) = 24.16034 32.16059 28.16047
#
# Velocity S-wave (km/s) = 3.52923 4.07183 3.81020
# Velocity P-wave (km/s) = 6.31523 7.84306 7.12024
#
# Compressibility (1/GPa) = 0.02214979
#
# Stress axis : x y z
#
# Youngs Moduli (GPa) = 43.91568 51.07571 109.69094
#
# Poissons Ratio (x) = 0.08269 0.73944
# Poissons Ratio (y) = 0.07109 0.69086
# Poissons Ratio (z) = 0.29604 0.32169
#
# Static dielectric constant tensor:
#      x y z
#    x 1.664990 0.000000 0.000000 
#    y 0.000000 1.680400 0.000000 
#    z 0.000000 0.000000 1.761430 
# 
# From -- ./inp_files/45797.got.cif
#   From: 2010.05.17/outbox.cif.g08.bks.cpg/sg67_23_cif.got.tgz:45797.got - 2010.06.03 18:28:57.
