data_PCOD9502178
_publ_section_title
;
Structure prediction by ZEFSAII (Michael W. Deem and Ramdas Pophale) SiO2 
 PCOD9502178
Probable space group: C M M A
;
_chemical_formula_sum "Si O2"
_cell_formula_units_Z 80
_cell_length_a 8.774611
_cell_length_b 27.997910
_cell_length_c 19.314299
_cell_angle_alpha 90.000000
_cell_angle_beta 90.000000
_cell_angle_gamma 90.000000
_cell_volume 4744.958689
_symmetry_space_group_name_H-M "C M M A"
_symmetry_group_IT_number 67
_symmetry_cell_setting 'orthorhombic'
loop_
_space_group_symop_operation_xyz
x,y,z
-x,1/2-y,z
x,-y,-z
-x,1/2+y,-z
-x,-y,-z
x,1/2+y,-z
-x,y,z
x,1/2-y,z
1/2+x,1/2+y,z
1/2-x,-y,z
1/2+x,1/2-y,-z
1/2-x,y,-z
1/2-x,1/2-y,-z
1/2+x,y,-z
1/2-x,1/2+y,z
1/2+x,-y,z
loop_
_atom_site_type_symbol
_atom_site_label
_atom_site_fract_x
_atom_site_fract_y
_atom_site_fract_z
Si Si1 0.182686 0.948788 0.713035
Si Si2 0.183327 0.805660 0.927087
Si Si3 0.817299 0.804692 0.353537
Si Si4 0.817292 0.395777 0.426308
Si Si5 0.815400 0.149077 0.217365
O O1 0.229287 0.931107 0.636140
O O2 0.226147 0.905443 0.764084
O O3 0.000000 0.952020 0.713628
O O4 0.250000 0.000000 0.730050
O O5 0.228676 0.750000 0.918445
O O6 0.230868 0.834605 0.859057
O O7 0.000000 0.807279 0.930893
O O8 0.250000 0.822878 0.000000
O O9 0.776517 0.750000 0.370006
O O10 0.743292 0.843514 0.404433
O O11 0.757804 0.818190 0.276877
O O12 0.000000 0.809353 0.355759
O O13 0.750000 0.409889 0.500000
O O14 0.000000 0.394602 0.429068
O O15 0.000000 0.153333 0.223069
#
# Coordination Sequence:
#
# PCOD9502178 Si02
#       5
#    16  16  16  16  16
#     4   9  19  34  52  73  94 120 157 200 245 292
#     4   9  17  29  47  72 102 133 162 194 233 278
#     4  10  20  32  48  72  99 128 163 200 238 283
#     4  10  21  36  52  71  96 126 160 198 241 290
#     4   9  18  33  51  71  97 130 165 199 239 287
#
# _framework density 16.859998000000001
#
# number of rings (size 3 to 8) (size 9 to 14) (size 15 to 20)
#    0.000    2.600    0.000    3.000    0.000    8.000 
#    0.000    4.000    0.000    0.600    0.000    4.200 
#    0.000    0.000    0.000    0.000    0.000    0.000 
#
# Total GULP energy -223101.232268 kJ/mol
# GULP energy per Si atom -5577.530807 kJ/mol
# Density = 1.682162 g / cm^3
# Si number density = 16.859998 Si / 1000 Ang^3
#
#
#
# Elastic Constant Matrix: (Units=GPa)
#
#
# Indices 1 2 3 4 5 6 
#
# 1 18.2732 13.2905 14.2703 0.0000 0.0000 0.0000
# 2 13.2905 68.2043 21.2027 0.0000 0.0000 0.0000
# 3 14.2703 21.2027 105.3201 0.0000 0.0000 0.0000
# 4 0.0000 0.0000 0.0000 8.9081 0.0000 0.0000
# 5 0.0000 0.0000 0.0000 0.0000 28.6305 0.0000
# 6 0.0000 0.0000 0.0000 0.0000 0.0000 27.3064
#
#
#
# Elastic Compliance Matrix: (Units=1/GPa)
#
#
# Indices 1 2 3 4 5 6 
#
# 1 0.068296 -0.011128 -0.007013 0.000000 0.000000 0.000000
# 2 -0.011128 0.017454 -0.002006 0.000000 0.000000 0.000000
# 3 -0.007013 -0.002006 0.010849 0.000000 0.000000 0.000000
# 4 0.000000 0.000000 0.000000 0.112257 0.000000 0.000000
# 5 0.000000 0.000000 0.000000 0.000000 0.034928 0.000000
# 6 0.000000 0.000000 0.000000 0.000000 0.000000 0.036621
#
#
# Mechanical properties :
#
#
# Convention : Reuss Voigt Hill
#
# Bulk Modulus (GPa) = 17.76084 32.14720 24.95402
# Shear Modulus (GPa) = 14.72892 22.50461 18.61677
#
# Velocity S-wave (km/s) = 2.95888 3.65745 3.32655
# Velocity P-wave (km/s) = 4.71492 6.07819 5.43943
#
# Compressibility (1/GPa) = 0.05630364
#
# Stress axis : x y z
#
# Youngs Moduli (GPa) = 14.64220 57.29383 92.17450
#
# Poissons Ratio (x) = 0.63757 0.64646
# Poissons Ratio (y) = 0.16294 0.18490
# Poissons Ratio (z) = 0.10269 0.11493
#
# Static dielectric constant tensor:
#      x y z
#    x 1.569360 0.000000 0.000000 
#    y 0.000000 1.557370 0.000000 
#    z 0.000000 0.000000 1.559830 
# 
# From -- ./inp_files/32123.got.cif
#   From: 2010.05.17/outbox.cif.g08.bks.cpg/sg67_17_cif.got.tgz:32123.got - 2010.06.03 18:28:57.
