data_PCOD9502359
_publ_section_title
;
Structure prediction by ZEFSAII (Michael W. Deem and Ramdas Pophale) SiO2 
 PCOD9502359
Probable space group: C M M A
;
_chemical_formula_sum "Si O2"
_cell_formula_units_Z 80
_cell_length_a 10.321084
_cell_length_b 24.529261
_cell_length_c 17.939507
_cell_angle_alpha 90.000000
_cell_angle_beta 90.000000
_cell_angle_gamma 90.000000
_cell_volume 4541.719212
_symmetry_space_group_name_H-M "C M M A"
_symmetry_group_IT_number 67
_symmetry_cell_setting 'orthorhombic'
loop_
_space_group_symop_operation_xyz
x,y,z
-x,1/2-y,z
x,-y,-z
-x,1/2+y,-z
-x,-y,-z
x,1/2+y,-z
-x,y,z
x,1/2-y,z
1/2+x,1/2+y,z
1/2-x,-y,z
1/2+x,1/2-y,-z
1/2-x,y,-z
1/2-x,1/2-y,-z
1/2+x,y,-z
1/2-x,1/2+y,z
1/2+x,-y,z
loop_
_atom_site_type_symbol
_atom_site_label
_atom_site_fract_x
_atom_site_fract_y
_atom_site_fract_z
Si Si1 0.000000 0.552637 0.724323
Si Si2 0.765760 0.686636 0.626214
Si Si3 0.500000 0.610646 0.425549
Si Si4 0.500000 0.868448 0.588729
Si Si5 0.000000 0.574884 0.251519
Si Si6 0.231413 0.371640 0.218728
Si Si7 0.850012 0.315438 0.065253
O O1 0.000000 0.562152 0.634764
O O2 0.874629 0.583948 0.755947
O O3 0.000000 0.490163 0.747777
O O4 0.792122 0.750000 0.613542
O O5 0.875636 0.648207 0.591693
O O6 0.627586 0.668861 0.593324
O O7 0.763658 0.672750 0.714544
O O8 0.500000 0.597382 0.512609
O O9 0.500000 0.905583 0.662251
O O10 0.128743 0.599944 0.215119
O O11 0.189039 0.344456 0.141869
O O12 0.841136 0.250000 0.075277
O O13 0.000000 0.328198 0.046583
O O14 0.750000 0.330783 0.000000
#
# Coordination Sequence:
#
# PCOD9502359 Si02
#       7
#     8  16   8   8   8  16  16
#     4  10  20  38  58  79 101 142 193 237 281 324
#     4  10  20  33  51  76 107 145 182 218 270 333
#     4  10  21  33  52  76 105 138 186 232 277 332
#     4  10  21  35  48  76 109 140 180 232 281 328
#     4  10  22  36  58  79 105 144 189 235 285 324
#     4  10  20  37  57  82 110 143 185 230 270 323
#     4  10  21  37  60  90 121 150 177 211 262 322
#
# _framework density 17.614476
#
# number of rings (size 3 to 8) (size 9 to 14) (size 15 to 20)
#    0.000    2.000    1.000    2.400    1.400    2.800 
#    0.000    1.000    0.000   10.800    0.000    0.000 
#    0.000    0.000    0.000    0.000    0.000    0.000 
#
# Total GULP energy -223331.324913 kJ/mol
# GULP energy per Si atom -5583.283123 kJ/mol
# Density = 1.757438 g / cm^3
# Si number density = 17.614476 Si / 1000 Ang^3
#
#
#
# Elastic Constant Matrix: (Units=GPa)
#
#
# Indices 1 2 3 4 5 6 
#
# 1 139.7874 16.6965 33.2749 0.0000 0.0000 0.0000
# 2 16.6965 34.0434 10.0382 0.0000 0.0000 0.0000
# 3 33.2749 10.0382 104.6953 0.0000 0.0000 0.0000
# 4 0.0000 0.0000 0.0000 7.8556 0.0000 0.0000
# 5 0.0000 0.0000 0.0000 0.0000 60.9671 0.0000
# 6 0.0000 0.0000 0.0000 0.0000 0.0000 -0.9770
#
#
#
# Elastic Compliance Matrix: (Units=1/GPa)
#
#
# Indices 1 2 3 4 5 6 
#
# 1 0.008084 -0.003301 -0.002253 0.000000 0.000000 0.000000
# 2 -0.003301 0.031576 -0.001979 0.000000 0.000000 0.000000
# 3 -0.002253 -0.001979 0.010457 0.000000 0.000000 0.000000
# 4 0.000000 0.000000 0.000000 0.127298 0.000000 0.000000
# 5 0.000000 0.000000 0.000000 0.000000 0.016402 0.000000
# 6 0.000000 0.000000 0.000000 0.000000 0.000000 -1.023524
#
#
# Mechanical properties :
#
#
# Convention : Reuss Voigt Hill
#
# Bulk Modulus (GPa) = 28.52757 44.28281 36.40519
# Shear Modulus (GPa) = -6.22698 28.13689 10.95496
#
# Velocity S-wave (km/s) = -1.88224 4.00105 2.49656
# Velocity P-wave (km/s) = 3.39219 6.82196 5.38730
#
# Compressibility (1/GPa) = 0.03505381
#
# Stress axis : x y z
#
# Youngs Moduli (GPa) = 123.69757 31.66923 95.62731
#
# Poissons Ratio (x) = 0.10453 0.21544
# Poissons Ratio (y) = 0.40827 0.18920
# Poissons Ratio (z) = 0.27868 0.06266
#
# Static dielectric constant tensor:
#      x y z
#    x 1.600420 0.000000 0.000000 
#    y 0.000000 1.552790 0.000000 
#    z 0.000000 0.000000 1.593460 
# 
# From -- ./inp_files/29916.got.cif
#   From: 2010.05.17/outbox.cif.g08.bks.cpg/sg67_15_cif.got.tgz:29916.got - 2010.06.03 18:28:57.
