data_PCOD9502741
_publ_section_title
;
Structure prediction by ZEFSAII (Michael W. Deem and Ramdas Pophale) SiO2 
 PCOD9502741
Probable space group: C M M A
;
_chemical_formula_sum "Si O2"
_cell_formula_units_Z 104
_cell_length_a 27.821133
_cell_length_b 29.911443
_cell_length_c 5.325044
_cell_angle_alpha 90.000000
_cell_angle_beta 90.000000
_cell_angle_gamma 90.000000
_cell_volume 4431.343111
_symmetry_space_group_name_H-M "C M M A"
_symmetry_group_IT_number 67
_symmetry_cell_setting 'orthorhombic'
loop_
_space_group_symop_operation_xyz
x,y,z
-x,1/2-y,z
x,-y,-z
-x,1/2+y,-z
-x,-y,-z
x,1/2+y,-z
-x,y,z
x,1/2-y,z
1/2+x,1/2+y,z
1/2-x,-y,z
1/2+x,1/2-y,-z
1/2-x,y,-z
1/2-x,1/2-y,-z
1/2+x,y,-z
1/2-x,1/2+y,z
1/2+x,-y,z
loop_
_atom_site_type_symbol
_atom_site_label
_atom_site_fract_x
_atom_site_fract_y
_atom_site_fract_z
Si Si1 0.695608 0.479786 0.244084
Si Si2 0.445953 0.328332 0.824042
Si Si3 0.083825 0.874398 0.343315
Si Si4 0.814998 0.373803 0.813166
Si Si5 0.658999 0.798033 0.196287
Si Si6 0.943696 0.528034 0.249187
Si Si7 0.250000 0.318749 0.500000
O O1 0.674256 0.500000 0.500000
O O2 0.750000 0.500000 0.246162
O O3 0.695077 0.426671 0.201517
O O4 0.670911 0.500000 0.000000
O O5 0.500000 0.308808 0.810987
O O6 0.442889 0.366240 0.605731
O O7 0.398564 0.299532 0.752893
O O8 0.437849 0.346578 0.108272
O O9 0.140252 0.864145 0.373144
O O10 0.083811 0.925656 0.259593
O O11 0.767206 0.350258 0.722806
O O12 0.831935 0.345134 0.053246
O O13 0.666071 0.750000 0.052008
O O14 0.701173 0.795784 0.405051
O O15 0.935297 0.500000 0.500000
O O16 0.000000 0.540697 0.246771
O O17 0.934939 0.500000 0.000000
#
# Coordination Sequence:
#
# PCOD9502741 Si02
#       7
#    16  16  16  16  16  16   8
#     4  10  23  39  64  99 139 192 242 301 360 438
#     4  11  23  45  73 104 140 187 241 301 368 441
#     4  11  23  42  66 103 137 188 242 299 366 444
#     4  11  26  43  72 103 151 193 251 305 377 441
#     4  11  27  47  73 111 148 194 250 310 380 453
#     4  10  20  34  56  90 132 180 231 293 359 428
#     4  12  23  46  75 102 146 196 241 312 361 448
#
# _framework density 23.469183000000001
#
# number of rings (size 3 to 8) (size 9 to 14) (size 15 to 20)
#    0.000    1.231    1.538    3.923    6.462    4.615 
#    0.000    0.000    0.000    1.846    0.000    0.000 
#    0.000    0.000    0.000    0.000    0.000    0.000 
#
# Total GULP energy -289905.780495 kJ/mol
# GULP energy per Si atom -5575.111163 kJ/mol
# Density = 2.341577 g / cm^3
# Si number density = 23.469183 Si / 1000 Ang^3
#
#
#
# Elastic Constant Matrix: (Units=GPa)
#
#
# Indices 1 2 3 4 5 6 
#
# 1 180.3062 31.6498 5.5353 0.0000 0.0000 0.0000
# 2 31.6498 145.9366 32.6809 0.0000 0.0000 0.0000
# 3 5.5353 32.6809 114.1979 0.0000 0.0000 0.0000
# 4 0.0000 0.0000 0.0000 28.3600 0.0000 0.0000
# 5 0.0000 0.0000 0.0000 0.0000 32.4584 0.0000
# 6 0.0000 0.0000 0.0000 0.0000 0.0000 235.6998
#
#
#
# Elastic Compliance Matrix: (Units=1/GPa)
#
#
# Indices 1 2 3 4 5 6 
#
# 1 0.005766 -0.001269 0.000084 0.000000 0.000000 0.000000
# 2 -0.001269 0.007601 -0.002114 0.000000 0.000000 0.000000
# 3 0.000084 -0.002114 0.009358 0.000000 0.000000 0.000000
# 4 0.000000 0.000000 0.000000 0.035261 0.000000 0.000000
# 5 0.000000 0.000000 0.000000 0.000000 0.030809 0.000000
# 6 0.000000 0.000000 0.000000 0.000000 0.000000 0.004243
#
#
# Mechanical properties :
#
#
# Convention : Reuss Voigt Hill
#
# Bulk Modulus (GPa) = 62.01050 64.46365 63.23708
# Shear Modulus (GPa) = 47.61405 84.00862 65.81133
#
# Velocity S-wave (km/s) = 4.50910 5.98941 5.30118
# Velocity P-wave (km/s) = 7.32043 8.68088 8.02952
#
# Compressibility (1/GPa) = 0.01612630
#
# Stress axis : x y z
#
# Youngs Moduli (GPa) = 173.41963 131.56320 106.86552
#
# Poissons Ratio (x) = 0.16700 -0.00895
# Poissons Ratio (y) = 0.22013 0.22588
# Poissons Ratio (z) = -0.01452 0.27808
#
# Static dielectric constant tensor:
#      x y z
#    x 1.864120 0.000000 0.000000 
#    y 0.000000 1.922640 0.000000 
#    z 0.000000 0.000000 1.997170 
# 
# From -- ./inp_files/4938.got.cif
#   From: 2010.05.17/outbox.cif.g08.bks.cpg/sg67_3_cif.got.tgz:4938.got - 2010.06.03 18:28:57.
