data_PCOD9502278
_publ_section_title
;
Structure prediction by ZEFSAII (Michael W. Deem and Ramdas Pophale) SiO2 
 PCOD9502278
Probable space group: C M M A
;
_chemical_formula_sum "Si O2"
_cell_formula_units_Z 80
_cell_length_a 9.407446
_cell_length_b 18.704939
_cell_length_c 26.813973
_cell_angle_alpha 90.000000
_cell_angle_beta 90.000000
_cell_angle_gamma 90.000000
_cell_volume 4718.339625
_symmetry_space_group_name_H-M "C M M A"
_symmetry_group_IT_number 67
_symmetry_cell_setting 'orthorhombic'
loop_
_space_group_symop_operation_xyz
x,y,z
-x,1/2-y,z
x,-y,-z
-x,1/2+y,-z
-x,-y,-z
x,1/2+y,-z
-x,y,z
x,1/2-y,z
1/2+x,1/2+y,z
1/2-x,-y,z
1/2+x,1/2-y,-z
1/2-x,y,-z
1/2-x,1/2-y,-z
1/2+x,y,-z
1/2-x,1/2+y,z
1/2+x,-y,z
loop_
_atom_site_type_symbol
_atom_site_label
_atom_site_fract_x
_atom_site_fract_y
_atom_site_fract_z
Si Si1 0.669540 0.666144 0.549958
Si Si2 0.671636 0.924869 0.648003
Si Si3 0.336489 0.837287 0.048973
Si Si4 0.664292 0.662846 0.853932
Si Si5 0.172958 0.167826 0.743557
O O1 0.500000 0.660595 0.542239
O O2 0.702814 0.750000 0.558524
O O3 0.750000 0.642672 0.500000
O O4 0.706565 0.620763 0.598661
O O5 0.500000 0.933703 0.649284
O O6 0.715050 0.881268 0.697514
O O7 0.750000 0.000000 0.646457
O O8 0.500000 0.859958 0.046765
O O9 0.335188 0.750000 0.049160
O O10 0.259878 0.860607 0.099863
O O11 0.250000 0.859929 0.000000
O O12 0.500000 0.640813 0.860924
O O13 0.664120 0.750000 0.853334
O O14 0.716209 0.641664 0.798702
O O15 0.220127 0.250000 0.736388
O O16 0.000000 0.169484 0.744611
#
# Coordination Sequence:
#
# PCOD9502278 Si02
#       5
#    16  16  16  16  16
#     4   9  18  33  53  74  95 122 157 194 229 268
#     4  10  20  33  49  70  96 124 154 189 230 275
#     4   9  15  21  30  47  75 110 143 175 215 264
#     4   8  13  22  37  56  76 101 138 182 223 262
#     4   8  14  27  48  68  85 113 155 195 227 267
#
# _framework density 16.955116
#
# number of rings (size 3 to 8) (size 9 to 14) (size 15 to 20)
#    0.000    3.200    0.000    2.400    0.000    6.000 
#    0.000    3.000    0.000    3.000    0.000    0.000 
#    0.000    0.800    0.000    9.200    0.000   11.200 
#
# Total GULP energy -222782.965594 kJ/mol
# GULP energy per Si atom -5569.574140 kJ/mol
# Density = 1.691653 g / cm^3
# Si number density = 16.955116 Si / 1000 Ang^3
#
#
#
# Elastic Constant Matrix: (Units=GPa)
#
#
# Indices 1 2 3 4 5 6 
#
# 1 59.0948 29.9135 79.4379 0.0000 0.0000 0.0000
# 2 29.9135 46.3187 68.0813 0.0000 0.0000 0.0000
# 3 79.4379 68.0813 214.8046 0.0000 0.0000 0.0000
# 4 0.0000 0.0000 0.0000 -3.3426 0.0000 0.0000
# 5 0.0000 0.0000 0.0000 0.0000 26.8081 0.0000
# 6 0.0000 0.0000 0.0000 0.0000 0.0000 18.4721
#
#
#
# Elastic Compliance Matrix: (Units=1/GPa)
#
#
# Indices 1 2 3 4 5 6 
#
# 1 0.034709 -0.006644 -0.010730 0.000000 0.000000 0.000000
# 2 -0.006644 0.041691 -0.010757 0.000000 0.000000 0.000000
# 3 -0.010730 -0.010757 0.012033 0.000000 0.000000 0.000000
# 4 0.000000 0.000000 0.000000 -0.299171 0.000000 0.000000
# 5 0.000000 0.000000 0.000000 0.000000 0.037302 0.000000
# 6 0.000000 0.000000 0.000000 0.000000 0.000000 0.054136
#
#
# Mechanical properties :
#
#
# Convention : Reuss Voigt Hill
#
# Bulk Modulus (GPa) = 31.08382 75.00928 53.04655
# Shear Modulus (GPa) = -95.57667 17.90655 -38.83506
#
# Velocity S-wave (km/s) = -7.51617 3.25332 -4.79107
# Velocity P-wave (km/s) = 7.54658 7.64513 0.86520
#
# Compressibility (1/GPa) = 0.03217107
#
# Stress axis : x y z
#
# Youngs Moduli (GPa) = 28.81087 23.98590 83.10608
#
# Poissons Ratio (x) = 0.15937 0.89173
# Poissons Ratio (y) = 0.19143 0.89394
# Poissons Ratio (z) = 0.30914 0.25801
#
# Static dielectric constant tensor:
#      x y z
#    x 1.566160 0.000000 0.000000 
#    y 0.000000 1.543970 0.000000 
#    z 0.000000 0.000000 1.581820 
# 
# From -- ./inp_files/43218.got.cif
#   From: 2010.05.17/outbox.cif.g08.bks.cpg/sg67_22_cif.got.tgz:43218.got - 2010.06.03 18:28:57.
