data_PCOD9502699
_publ_section_title
;
Structure prediction by ZEFSAII (Michael W. Deem and Ramdas Pophale) SiO2 
 PCOD9502699
Probable space group: C M M A
;
_chemical_formula_sum "Si O2"
_cell_formula_units_Z 88
_cell_length_a 7.782769
_cell_length_b 16.820588
_cell_length_c 31.209634
_cell_angle_alpha 90.000000
_cell_angle_beta 90.000000
_cell_angle_gamma 90.000000
_cell_volume 4085.676621
_symmetry_space_group_name_H-M "C M M A"
_symmetry_group_IT_number 67
_symmetry_cell_setting 'orthorhombic'
loop_
_space_group_symop_operation_xyz
x,y,z
-x,1/2-y,z
x,-y,-z
-x,1/2+y,-z
-x,-y,-z
x,1/2+y,-z
-x,y,z
x,1/2-y,z
1/2+x,1/2+y,z
1/2-x,-y,z
1/2+x,1/2-y,-z
1/2-x,y,-z
1/2-x,1/2-y,-z
1/2+x,y,-z
1/2-x,1/2+y,z
1/2+x,-y,z
loop_
_atom_site_type_symbol
_atom_site_label
_atom_site_fract_x
_atom_site_fract_y
_atom_site_fract_z
Si Si1 0.292891 0.593481 0.728203
Si Si2 0.292373 0.839296 0.818128
Si Si3 0.792312 0.750000 0.950055
Si Si4 0.293367 0.407397 0.364491
Si Si5 0.701352 0.588984 0.094222
Si Si6 0.293338 0.340525 0.454356
O O1 0.500000 0.600899 0.727938
O O2 0.250000 0.500000 0.731238
O O3 0.229320 0.636237 0.770982
O O4 0.230966 0.624719 0.681698
O O5 0.500000 0.838881 0.816985
O O6 0.233042 0.750000 0.828934
O O7 0.238951 0.898918 0.855440
O O8 0.723468 0.667804 0.928940
O O9 0.000000 0.750000 0.944919
O O10 0.750000 0.750000 0.000000
O O11 0.500000 0.396738 0.364949
O O12 0.250000 0.500000 0.363588
O O13 0.226513 0.375397 0.409732
O O14 0.500000 0.593532 0.087544
O O15 0.750000 0.500000 0.080195
O O16 0.500000 0.339572 0.451996
O O17 0.228915 0.250000 0.456338
O O18 0.250000 0.380191 0.500000
#
# Coordination Sequence:
#
# PCOD9502699 Si02
#       6
#    16  16   8  16  16  16
#     4   9  18  32  49  72 102 136 175 218 265 322
#     4  10  20  34  55  84 115 150 192 237 284 336
#     4  10  24  44  66  92 126 162 202 250 299 348
#     4   9  18  32  49  69  96 129 165 209 260 313
#     4  11  23  41  63  91 124 162 203 246 297 351
#     4   9  18  32  49  68  90 120 158 201 253 310
#
# _framework density 21.538658999999999
#
# number of rings (size 3 to 8) (size 9 to 14) (size 15 to 20)
#    0.000    2.364    0.909    1.091    0.000    5.818 
#    0.000    7.273    0.000    0.000    0.000    7.636 
#    0.000    0.000    0.000    0.000    0.000    0.000 
#
# Total GULP energy -245357.369078 kJ/mol
# GULP energy per Si atom -5576.303843 kJ/mol
# Density = 2.148964 g / cm^3
# Si number density = 21.538659 Si / 1000 Ang^3
#
#
#
# Elastic Constant Matrix: (Units=GPa)
#
#
# Indices 1 2 3 4 5 6 
#
# 1 30.4317 11.0231 1.4339 0.0000 0.0000 0.0000
# 2 11.0231 103.1454 67.2352 0.0000 0.0000 0.0000
# 3 1.4339 67.2352 153.9364 0.0000 0.0000 0.0000
# 4 0.0000 0.0000 0.0000 36.3526 0.0000 0.0000
# 5 0.0000 0.0000 0.0000 0.0000 20.4841 0.0000
# 6 0.0000 0.0000 0.0000 0.0000 0.0000 18.7974
#
#
#
# Elastic Compliance Matrix: (Units=1/GPa)
#
#
# Indices 1 2 3 4 5 6 
#
# 1 0.034538 -0.004867 0.001804 0.000000 0.000000 0.000000
# 2 -0.004867 0.014240 -0.006174 0.000000 0.000000 0.000000
# 3 0.001804 -0.006174 0.009176 0.000000 0.000000 0.000000
# 4 0.000000 0.000000 0.000000 0.027508 0.000000 0.000000
# 5 0.000000 0.000000 0.000000 0.000000 0.048818 0.000000
# 6 0.000000 0.000000 0.000000 0.000000 0.000000 0.053199
#
#
# Mechanical properties :
#
#
# Convention : Reuss Voigt Hill
#
# Bulk Modulus (GPa) = 25.32934 49.65532 37.49233
# Shear Modulus (GPa) = 22.81913 28.98159 25.90036
#
# Velocity S-wave (km/s) = 3.25845 3.67217 3.47148
# Velocity P-wave (km/s) = 5.09334 6.40967 5.78904
#
# Compressibility (1/GPa) = 0.03947990
#
# Stress axis : x y z
#
# Youngs Moduli (GPa) = 28.95327 70.22529 108.97838
#
# Poissons Ratio (x) = 0.34179 -0.19661
# Poissons Ratio (y) = 0.14092 0.67286
# Poissons Ratio (z) = -0.05223 0.43359
#
# Static dielectric constant tensor:
#      x y z
#    x 1.768320 0.000000 0.000000 
#    y 0.000000 1.800450 0.000000 
#    z 0.000000 0.000000 1.824460 
# 
# From -- ./inp_files/45237.got.cif
#   From: 2010.05.17/outbox.cif.g08.bks.cpg/sg67_23_cif.got.tgz:45237.got - 2010.06.03 18:28:57.
