data_PCOD9502159
_publ_section_title
;
Structure prediction by ZEFSAII (Michael W. Deem and Ramdas Pophale) SiO2 
 PCOD9502159
Probable space group: C M M A
;
_chemical_formula_sum "Si O2"
_cell_formula_units_Z 88
_cell_length_a 9.221877
_cell_length_b 14.950021
_cell_length_c 31.381260
_cell_angle_alpha 90.000000
_cell_angle_beta 90.000000
_cell_angle_gamma 90.000000
_cell_volume 4326.448169
_symmetry_space_group_name_H-M "C M M A"
_symmetry_group_IT_number 67
_symmetry_cell_setting 'orthorhombic'
loop_
_space_group_symop_operation_xyz
x,y,z
-x,1/2-y,z
x,-y,-z
-x,1/2+y,-z
-x,-y,-z
x,1/2+y,-z
-x,y,z
x,1/2-y,z
1/2+x,1/2+y,z
1/2-x,-y,z
1/2+x,1/2-y,-z
1/2-x,y,-z
1/2-x,1/2-y,-z
1/2+x,y,-z
1/2-x,1/2+y,z
1/2+x,-y,z
loop_
_atom_site_type_symbol
_atom_site_label
_atom_site_fract_x
_atom_site_fract_y
_atom_site_fract_z
Si Si1 0.162058 0.645224 0.289593
Si Si2 0.675132 0.750000 0.045607
Si Si3 0.666247 0.859756 0.372039
Si Si4 0.166301 0.640604 0.457433
Si Si5 0.826493 0.903865 0.794626
Si Si6 0.826655 0.095564 0.110718
O O1 0.145106 0.750000 0.298844
O O2 0.250499 0.608545 0.329773
O O3 0.252581 0.639863 0.246152
O O4 0.000000 0.605849 0.284886
O O5 0.500000 0.750000 0.041125
O O6 0.716201 0.836326 0.073757
O O7 0.750000 0.750000 0.000000
O O8 0.500000 0.889825 0.372314
O O9 0.663646 0.750000 0.371640
O O10 0.750238 0.886647 0.414721
O O11 0.164532 0.750000 0.457597
O O12 0.250000 0.612486 0.500000
O O13 0.000000 0.610362 0.457376
O O14 0.798015 0.864978 0.841855
O O15 0.000000 0.908840 0.788965
O O16 0.750000 0.000000 0.796320
O O17 0.000000 0.082070 0.108521
O O18 0.750000 0.000000 0.106563
#
# Coordination Sequence:
#
# PCOD9502159 Si02
#       6
#    16   8  16  16  16  16
#     4  10  20  32  47  71 102 134 169 212 260 314
#     4  10  22  40  60  88 120 156 196 240 287 342
#     4   9  16  26  39  57  84 119 160 204 253 311
#     4   9  15  22  33  50  75 111 154 200 251 308
#     4  10  20  35  56  78 104 138 176 219 266 320
#     4   9  20  38  60  84 116 152 192 238 289 341
#
# _framework density 20.340009999999999
#
# number of rings (size 3 to 8) (size 9 to 14) (size 15 to 20)
#    0.000    2.545    0.000    2.182    1.273    7.273 
#    0.000    1.818    0.000    0.000    0.000    0.000 
#    0.000    0.727    0.000    7.273    0.000   11.273 
#
# Total GULP energy -245612.982726 kJ/mol
# GULP energy per Si atom -5582.113244 kJ/mol
# Density = 2.029372 g / cm^3
# Si number density = 20.340010 Si / 1000 Ang^3
#
#
#
# Elastic Constant Matrix: (Units=GPa)
#
#
# Indices 1 2 3 4 5 6 
#
# 1 158.3091 28.1337 116.0980 0.0000 0.0000 0.0000
# 2 28.1337 50.6007 43.4219 0.0000 0.0000 0.0000
# 3 116.0980 43.4219 222.8807 0.0000 0.0000 0.0000
# 4 0.0000 0.0000 0.0000 20.0006 0.0000 0.0000
# 5 0.0000 0.0000 0.0000 0.0000 34.8875 0.0000
# 6 0.0000 0.0000 0.0000 0.0000 0.0000 15.9027
#
#
#
# Elastic Compliance Matrix: (Units=1/GPa)
#
#
# Indices 1 2 3 4 5 6 
#
# 1 0.010297 -0.001348 -0.005101 0.000000 0.000000 0.000000
# 2 -0.001348 0.023906 -0.003955 0.000000 0.000000 0.000000
# 3 -0.005101 -0.003955 0.007915 0.000000 0.000000 0.000000
# 4 0.000000 0.000000 0.000000 0.049999 0.000000 0.000000
# 5 0.000000 0.000000 0.000000 0.000000 0.028664 0.000000
# 6 0.000000 0.000000 0.000000 0.000000 0.000000 0.062882
#
#
# Mechanical properties :
#
#
# Convention : Reuss Voigt Hill
#
# Bulk Modulus (GPa) = 46.92806 89.67752 68.30279
# Shear Modulus (GPa) = 23.63236 30.43397 27.03317
#
# Velocity S-wave (km/s) = 3.41231 3.87235 3.64959
# Velocity P-wave (km/s) = 6.21668 8.01114 7.17027
#
# Compressibility (1/GPa) = 0.02130921
#
# Stress axis : x y z
#
# Youngs Moduli (GPa) = 97.11218 41.83032 126.34939
#
# Poissons Ratio (x) = 0.05637 0.64455
# Poissons Ratio (y) = 0.13088 0.49976
# Poissons Ratio (z) = 0.49540 0.16546
#
# Static dielectric constant tensor:
#      x y z
#    x 1.693840 0.000000 0.000000 
#    y 0.000000 1.844490 0.000000 
#    z 0.000000 0.000000 1.708410 
# 
# From -- ./inp_files/45259.got.cif
#   From: 2010.05.17/outbox.cif.g08.bks.cpg/sg67_23_cif.got.tgz:45259.got - 2010.06.03 18:28:57.
