data_PCOD9502189
_publ_section_title
;
Structure prediction by ZEFSAII (Michael W. Deem and Ramdas Pophale) SiO2 
 PCOD9502189
Probable space group: C M M A
;
_chemical_formula_sum "Si O2"
_cell_formula_units_Z 72
_cell_length_a 16.056692
_cell_length_b 8.884724
_cell_length_c 25.722036
_cell_angle_alpha 90.000000
_cell_angle_beta 90.000000
_cell_angle_gamma 90.000000
_cell_volume 3669.487053
_symmetry_space_group_name_H-M "C M M A"
_symmetry_group_IT_number 67
_symmetry_cell_setting 'orthorhombic'
loop_
_space_group_symop_operation_xyz
x,y,z
-x,1/2-y,z
x,-y,-z
-x,1/2+y,-z
-x,-y,-z
x,1/2+y,-z
-x,y,z
x,1/2-y,z
1/2+x,1/2+y,z
1/2-x,-y,z
1/2+x,1/2-y,-z
1/2-x,y,-z
1/2-x,1/2-y,-z
1/2+x,y,-z
1/2-x,1/2+y,z
1/2+x,-y,z
loop_
_atom_site_type_symbol
_atom_site_label
_atom_site_fract_x
_atom_site_fract_y
_atom_site_fract_z
Si Si1 0.096721 0.075596 0.768709
Si Si2 0.656480 0.930558 0.448242
Si Si3 0.842033 0.429226 0.334340
Si Si4 0.663580 0.568006 0.877910
Si Si5 0.500000 0.568144 0.942795
O O1 0.119738 0.250000 0.759118
O O2 0.148384 0.018699 0.818103
O O3 0.000000 0.072354 0.784326
O O4 0.109359 0.987189 0.715585
O O5 0.661175 0.750000 0.453581
O O6 0.620188 0.967233 0.391253
O O7 0.616101 0.000000 0.500000
O O8 0.750000 0.000000 0.446425
O O9 0.834640 0.250000 0.332358
O O10 0.750000 0.500000 0.331488
O O11 0.667347 0.750000 0.877883
O O12 0.750000 0.500000 0.897299
O O13 0.583394 0.523071 0.911689
O O14 0.500000 0.750000 0.945542
O O15 0.500000 0.500000 0.000000
#
# Coordination Sequence:
#
# PCOD9502189 Si02
#       5
#    16  16  16  16   8
#     4  10  20  36  57  79 108 147 186 229 287 347
#     4   9  16  26  42  65  95 130 170 218 274 331
#     4  10  20  32  48  75 107 138 176 227 281 338
#     4  10  21  39  62  88 120 157 196 241 290 341
#     4  10  22  42  64  88 124 162 197 240 287 336
#
# _framework density 19.621269999999999
#
# number of rings (size 3 to 8) (size 9 to 14) (size 15 to 20)
#    0.000    2.222    1.111    2.667    0.000    7.111 
#    0.000    2.222    0.000    0.667    0.000    0.000 
#    0.000    0.000    0.000    0.000    0.000    0.000 
#
# Total GULP energy -200840.375120 kJ/mol
# GULP energy per Si atom -5578.899309 kJ/mol
# Density = 1.957661 g / cm^3
# Si number density = 19.621270 Si / 1000 Ang^3
#
#
#
# Elastic Constant Matrix: (Units=GPa)
#
#
# Indices 1 2 3 4 5 6 
#
# 1 88.5602 20.2161 55.3885 0.0000 0.0000 0.0000
# 2 20.2161 41.8909 42.7037 0.0000 0.0000 0.0000
# 3 55.3885 42.7037 151.3408 0.0000 0.0000 0.0000
# 4 0.0000 0.0000 0.0000 45.9199 0.0000 0.0000
# 5 0.0000 0.0000 0.0000 0.0000 24.4627 0.0000
# 6 0.0000 0.0000 0.0000 0.0000 0.0000 22.8929
#
#
#
# Elastic Compliance Matrix: (Units=1/GPa)
#
#
# Indices 1 2 3 4 5 6 
#
# 1 0.014796 -0.002274 -0.004773 0.000000 0.000000 0.000000
# 2 -0.002274 0.033860 -0.008722 0.000000 0.000000 0.000000
# 3 -0.004773 -0.008722 0.010816 0.000000 0.000000 0.000000
# 4 0.000000 0.000000 0.000000 0.021777 0.000000 0.000000
# 5 0.000000 0.000000 0.000000 0.000000 0.040879 0.000000
# 6 0.000000 0.000000 0.000000 0.000000 0.000000 0.043682
#
#
# Mechanical properties :
#
#
# Convention : Reuss Voigt Hill
#
# Bulk Modulus (GPa) = 35.80037 57.60094 46.70066
# Shear Modulus (GPa) = 24.19431 29.55404 26.87417
#
# Velocity S-wave (km/s) = 3.51531 3.88522 3.70489
# Velocity P-wave (km/s) = 5.89592 7.03894 6.49263
#
# Compressibility (1/GPa) = 0.02793267
#
# Stress axis : x y z
#
# Youngs Moduli (GPa) = 67.58372 29.53313 92.45831
#
# Poissons Ratio (x) = 0.06717 0.44135
# Poissons Ratio (y) = 0.15372 0.80641
# Poissons Ratio (z) = 0.32261 0.25759
#
# Static dielectric constant tensor:
#      x y z
#    x 1.690340 0.000000 0.000000 
#    y 0.000000 1.663930 0.000000 
#    z 0.000000 0.000000 1.720260 
# 
# From -- ./inp_files/40501.got.cif
#   From: 2010.05.17/outbox.cif.g08.bks.cpg/sg67_21_cif.got.tgz:40501.got - 2010.06.03 18:28:57.
