data_PCOD9502957
_publ_section_title
;
Structure prediction by ZEFSAII (Michael W. Deem and Ramdas Pophale) SiO2 
 PCOD9502957
Probable space group: C M M A
;
_chemical_formula_sum "Si O2"
_cell_formula_units_Z 80
_cell_length_a 23.463636
_cell_length_b 11.105529
_cell_length_c 15.041235
_cell_angle_alpha 90.000000
_cell_angle_beta 90.000000
_cell_angle_gamma 90.000000
_cell_volume 3919.386206
_symmetry_space_group_name_H-M "C M M A"
_symmetry_group_IT_number 67
_symmetry_cell_setting 'orthorhombic'
loop_
_space_group_symop_operation_xyz
x,y,z
-x,1/2-y,z
x,-y,-z
-x,1/2+y,-z
-x,-y,-z
x,1/2+y,-z
-x,y,z
x,1/2-y,z
1/2+x,1/2+y,z
1/2-x,-y,z
1/2+x,1/2-y,-z
1/2-x,y,-z
1/2-x,1/2-y,-z
1/2+x,y,-z
1/2-x,1/2+y,z
1/2+x,-y,z
loop_
_atom_site_type_symbol
_atom_site_label
_atom_site_fract_x
_atom_site_fract_y
_atom_site_fract_z
Si Si1 0.568497 0.384219 0.558528
Si Si2 0.234299 0.379385 0.228652
Si Si3 0.437747 0.117092 0.144653
Si Si4 0.816847 0.380951 0.944362
Si Si5 0.101640 0.882726 0.760292
O O1 0.584261 0.500000 0.500000
O O2 0.500000 0.391615 0.574696
O O3 0.579077 0.250000 0.519104
O O4 0.599292 0.388064 0.653644
O O5 0.243211 0.250000 0.273196
O O6 0.250000 0.500000 0.281074
O O7 0.276241 0.380878 0.142811
O O8 0.167215 0.387551 0.206828
O O9 0.500000 0.111847 0.100691
O O10 0.434793 0.250000 0.190547
O O11 0.383027 0.114389 0.082286
O O12 0.430943 0.999435 0.204938
O O13 0.809082 0.250000 0.989818
O O14 0.806493 0.500000 0.000000
O O15 0.078686 0.750000 0.786544
#
# Coordination Sequence:
#
# PCOD9502957 Si02
#       5
#    16  16  16  16  16
#     4   9  18  33  54  83 117 149 182 221 265 317
#     4  10  20  36  57  81 108 142 185 231 278 327
#     4  10  21  37  56  80 111 146 185 229 280 336
#     4  10  22  39  57  80 109 141 184 234 283 335
#     4  10  20  35  57  84 114 146 183 227 274 326
#
# _framework density 20.411359999999998
#
# number of rings (size 3 to 8) (size 9 to 14) (size 15 to 20)
#    0.000    2.200    2.000    0.600    0.000    4.400 
#    0.000    4.000    0.000    0.600    0.000    4.200 
#    0.000    0.000    0.000    0.000    0.000    0.000 
#
# Total GULP energy -222879.970129 kJ/mol
# GULP energy per Si atom -5571.999253 kJ/mol
# Density = 2.036490 g / cm^3
# Si number density = 20.411360 Si / 1000 Ang^3
#
#
#
# Elastic Constant Matrix: (Units=GPa)
#
#
# Indices 1 2 3 4 5 6 
#
# 1 128.5825 43.3960 30.5750 0.0000 0.0000 0.0000
# 2 43.3960 236.1397 40.9540 0.0000 0.0000 0.0000
# 3 30.5750 40.9540 31.1374 0.0000 0.0000 0.0000
# 4 0.0000 0.0000 0.0000 27.0077 0.0000 0.0000
# 5 0.0000 0.0000 0.0000 0.0000 6.6393 0.0000
# 6 0.0000 0.0000 0.0000 0.0000 0.0000 54.1803
#
#
#
# Elastic Compliance Matrix: (Units=1/GPa)
#
#
# Indices 1 2 3 4 5 6 
#
# 1 0.010152 -0.000177 -0.009735 0.000000 0.000000 0.000000
# 2 -0.000177 0.005489 -0.007046 0.000000 0.000000 0.000000
# 3 -0.009735 -0.007046 0.050943 0.000000 0.000000 0.000000
# 4 0.000000 0.000000 0.000000 0.037026 0.000000 0.000000
# 5 0.000000 0.000000 0.000000 0.000000 0.150618 0.000000
# 6 0.000000 0.000000 0.000000 0.000000 0.000000 0.018457
#
#
# Mechanical properties :
#
#
# Convention : Reuss Voigt Hill
#
# Bulk Modulus (GPa) = 30.61229 69.52331 50.06780
# Shear Modulus (GPa) = 15.74848 36.29444 26.02146
#
# Velocity S-wave (km/s) = 2.78070 4.22138 3.57438
# Velocity P-wave (km/s) = 5.03388 7.60889 6.45117
#
# Compressibility (1/GPa) = 0.03266662
#
# Stress axis : x y z
#
# Youngs Moduli (GPa) = 98.50424 182.17146 19.62996
#
# Poissons Ratio (x) = 0.03228 0.19111
# Poissons Ratio (y) = 0.01746 0.13831
# Poissons Ratio (z) = 0.95898 1.28357
#
# Static dielectric constant tensor:
#      x y z
#    x 1.741750 0.000000 0.000000 
#    y 0.000000 1.831470 0.000000 
#    z 0.000000 0.000000 1.690710 
# 
# From -- ./inp_files/29873.got.cif
#   From: 2010.05.17/outbox.cif.g08.bks.cpg/sg67_15_cif.got.tgz:29873.got - 2010.06.03 18:28:57.
