data_PCOD9502219
_publ_section_title
;
Structure prediction by ZEFSAII (Michael W. Deem and Ramdas Pophale) SiO2 
 PCOD9502219
Probable space group: C M M A
;
_chemical_formula_sum "Si O2"
_cell_formula_units_Z 80
_cell_length_a 14.360168
_cell_length_b 15.715257
_cell_length_c 14.687888
_cell_angle_alpha 90.000000
_cell_angle_beta 90.000000
_cell_angle_gamma 90.000000
_cell_volume 3314.670481
_symmetry_space_group_name_H-M "C M M A"
_symmetry_group_IT_number 67
_symmetry_cell_setting 'orthorhombic'
loop_
_space_group_symop_operation_xyz
x,y,z
-x,1/2-y,z
x,-y,-z
-x,1/2+y,-z
-x,-y,-z
x,1/2+y,-z
-x,y,z
x,1/2-y,z
1/2+x,1/2+y,z
1/2-x,-y,z
1/2+x,1/2-y,-z
1/2-x,y,-z
1/2-x,1/2-y,-z
1/2+x,y,-z
1/2-x,1/2+y,z
1/2+x,-y,z
loop_
_atom_site_type_symbol
_atom_site_label
_atom_site_fract_x
_atom_site_fract_y
_atom_site_fract_z
Si Si1 0.313462 0.656842 0.413193
Si Si2 0.140030 0.477652 0.296400
Si Si3 0.151578 0.155675 0.735774
Si Si4 0.392773 0.147752 0.065956
Si Si5 0.611220 0.152076 0.868524
O O1 0.357010 0.750000 0.426954
O O2 0.250000 0.636841 0.500000
O O3 0.379993 0.580976 0.383567
O O4 0.241829 0.664237 0.328153
O O5 0.250000 0.500000 0.297262
O O6 0.098505 0.571873 0.297623
O O7 0.121975 0.418555 0.209197
O O8 0.107215 0.250000 0.734003
O O9 0.166824 0.134061 0.842908
O O10 0.500000 0.117392 0.082168
O O11 0.397128 0.250000 0.055338
O O12 0.356315 0.119232 0.967665
O O13 0.500000 0.161007 0.879897
O O14 0.645688 0.250000 0.848341
#
# Coordination Sequence:
#
# PCOD9502219 Si02
#       5
#    16  16  16  16  16
#     4   9  18  34  55  75  97 130 172 222 282 336
#     4  10  20  32  50  77 107 140 177 224 273 324
#     4   9  18  31  46  69  99 132 172 213 255 309
#     4   8  15  30  51  72  98 136 177 215 260 320
#     4   9  18  34  56  80 107 142 184 230 280 330
#
# _framework density 24.135128999999999
#
# number of rings (size 3 to 8) (size 9 to 14) (size 15 to 20)
#    0.000    3.000    0.000    1.800    0.000    6.000 
#    0.000    9.000    0.000   16.800    0.000   12.600 
#    0.000    0.000    0.000    0.000    0.000    0.000 
#
# Total GULP energy -222856.847012 kJ/mol
# GULP energy per Si atom -5571.421175 kJ/mol
# Density = 2.408020 g / cm^3
# Si number density = 24.135129 Si / 1000 Ang^3
#
#
#
# Elastic Constant Matrix: (Units=GPa)
#
#
# Indices 1 2 3 4 5 6 
#
# 1 56.1697 -2.9154 -1.1700 0.0000 0.0000 0.0000
# 2 -2.9154 193.1250 48.5307 0.0000 0.0000 0.0000
# 3 -1.1700 48.5307 102.8295 0.0000 0.0000 0.0000
# 4 0.0000 0.0000 0.0000 -0.0728 0.0000 0.0000
# 5 0.0000 0.0000 0.0000 0.0000 -41.7056 0.0000
# 6 0.0000 0.0000 0.0000 0.0000 0.0000 -18.3750
#
#
#
# Elastic Compliance Matrix: (Units=1/GPa)
#
#
# Indices 1 2 3 4 5 6 
#
# 1 0.017818 0.000247 0.000086 0.000000 0.000000 0.000000
# 2 0.000247 0.005878 -0.002771 0.000000 0.000000 0.000000
# 3 0.000086 -0.002771 0.011034 0.000000 0.000000 0.000000
# 4 0.000000 0.000000 0.000000-13.742195 0.000000 0.000000
# 5 0.000000 0.000000 0.000000 0.000000 -0.023978 0.000000
# 6 0.000000 0.000000 0.000000 0.000000 0.000000 -0.054422
#
#
# Mechanical properties :
#
#
# Convention : Reuss Voigt Hill
#
# Bulk Modulus (GPa) = 33.49672 49.00165 41.24919
# Shear Modulus (GPa) = -0.36308 8.48125 4.05909
#
# Velocity S-wave (km/s) = -0.38828 1.87662 1.29826
# Velocity P-wave (km/s) = 3.70242 5.00427 4.40174
#
# Compressibility (1/GPa) = 0.02985367
#
# Stress axis : x y z
#
# Youngs Moduli (GPa) = 56.12358 170.12132 90.63070
#
# Poissons Ratio (x) = -0.04208 -0.00779
# Poissons Ratio (y) = -0.01388 0.25117
# Poissons Ratio (z) = -0.00483 0.47147
#
# Static dielectric constant tensor:
#      x y z
#    x 2.030420 0.000000 0.000000 
#    y 0.000000 2.063410 0.000000 
#    z 0.000000 0.000000 1.956400 
# 
# From -- ./inp_files/21641.got.cif
#   From: 2010.05.17/outbox.cif.g08.bks.cpg/sg67_11_cif.got.tgz:21641.got - 2010.06.03 18:28:57.
