data_PCOD9502524
_publ_section_title
;
Structure prediction by ZEFSAII (Michael W. Deem and Ramdas Pophale) SiO2 
 PCOD9502524
Probable space group: C M M A
;
_chemical_formula_sum "Si O2"
_cell_formula_units_Z 96
_cell_length_a 20.471402
_cell_length_b 8.627458
_cell_length_c 31.028769
_cell_angle_alpha 90.000000
_cell_angle_beta 90.000000
_cell_angle_gamma 90.000000
_cell_volume 5480.182060
_symmetry_space_group_name_H-M "C M M A"
_symmetry_group_IT_number 67
_symmetry_cell_setting 'orthorhombic'
loop_
_space_group_symop_operation_xyz
x,y,z
-x,1/2-y,z
x,-y,-z
-x,1/2+y,-z
-x,-y,-z
x,1/2+y,-z
-x,y,z
x,1/2-y,z
1/2+x,1/2+y,z
1/2-x,-y,z
1/2+x,1/2-y,-z
1/2-x,y,-z
1/2-x,1/2-y,-z
1/2+x,y,-z
1/2-x,1/2+y,z
1/2+x,-y,z
loop_
_atom_site_type_symbol
_atom_site_label
_atom_site_fract_x
_atom_site_fract_y
_atom_site_fract_z
Si Si1 0.924472 0.935684 0.047318
Si Si2 0.424983 0.062764 0.714169
Si Si3 0.177947 0.563388 0.452571
Si Si4 0.678427 0.937079 0.214596
Si Si5 0.321917 0.935939 0.115517
Si Si6 0.575118 0.063019 0.379806
O O1 0.920812 0.750000 0.046526
O O2 0.000000 0.980816 0.056144
O O3 0.875850 0.000669 0.083052
O O4 0.907513 0.000000 0.000000
O O5 0.500000 0.013984 0.722444
O O6 0.423847 0.250000 0.713261
O O7 0.375910 0.009866 0.751454
O O8 0.406138 0.001553 0.667020
O O9 0.161185 0.500000 0.500000
O O10 0.180300 0.750000 0.454175
O O11 0.250000 0.500000 0.441741
O O12 0.124889 0.514412 0.417112
O O13 0.680363 0.750000 0.215613
O O14 0.663934 0.983229 0.165148
O O15 0.750000 0.000000 0.225802
O O16 0.320668 0.750000 0.113552
O O17 0.250000 0.000000 0.104648
O O18 0.500000 0.014618 0.388541
O O19 0.576167 0.250000 0.377935
#
# Coordination Sequence:
#
# PCOD9502524 Si02
#       6
#    16  16  16  16  16  16
#     4  10  21  37  56  79 107 137 172 214 258 307
#     4   9  18  33  52  74 100 131 168 207 246 292
#     4  10  20  34  52  73  99 129 162 202 245 293
#     4   9  19  34  52  75 103 134 168 208 251 297
#     4  10  20  35  55  78 106 139 174 214 259 306
#     4   9  19  35  52  72  99 130 164 203 247 293
#
# _framework density 17.517665999999998
#
# number of rings (size 3 to 8) (size 9 to 14) (size 15 to 20)
#    0.000    2.500    0.000    2.000    0.000    5.667 
#    0.000    6.667    0.000    2.000    0.000    0.000 
#    0.000    0.000    0.000    0.000    0.000    0.000 
#
# Total GULP energy -267803.407852 kJ/mol
# GULP energy per Si atom -5579.237664 kJ/mol
# Density = 1.747780 g / cm^3
# Si number density = 17.517666 Si / 1000 Ang^3
#
#
#
# Elastic Constant Matrix: (Units=GPa)
#
#
# Indices 1 2 3 4 5 6 
#
# 1 134.1512 34.4221 133.7141 0.0000 0.0000 0.0000
# 2 34.4221 29.2463 36.2551 0.0000 0.0000 0.0000
# 3 133.7141 36.2551 156.9774 0.0000 0.0000 0.0000
# 4 0.0000 0.0000 0.0000 27.8150 0.0000 0.0000
# 5 0.0000 0.0000 0.0000 0.0000 45.2991 0.0000
# 6 0.0000 0.0000 0.0000 0.0000 0.0000 26.7448
#
#
#
# Elastic Compliance Matrix: (Units=1/GPa)
#
#
# Indices 1 2 3 4 5 6 
#
# 1 0.050884 -0.008629 -0.041350 0.000000 0.000000 0.000000
# 2 -0.008629 0.049372 -0.004052 0.000000 0.000000 0.000000
# 3 -0.041350 -0.004052 0.042529 0.000000 0.000000 0.000000
# 4 0.000000 0.000000 0.000000 0.035952 0.000000 0.000000
# 5 0.000000 0.000000 0.000000 0.000000 0.022075 0.000000
# 6 0.000000 0.000000 0.000000 0.000000 0.000000 0.037390
#
#
# Mechanical properties :
#
#
# Convention : Reuss Voigt Hill
#
# Bulk Modulus (GPa) = 28.80100 81.01751 54.90925
# Shear Modulus (GPa) = 13.97270 27.70403 20.83837
#
# Velocity S-wave (km/s) = 2.82731 3.98111 3.45275
# Velocity P-wave (km/s) = 5.20913 8.21473 6.87811
#
# Compressibility (1/GPa) = 0.03472102
#
# Stress axis : x y z
#
# Youngs Moduli (GPa) = 19.65252 20.25425 23.51354
#
# Poissons Ratio (x) = 0.17478 0.97229
# Poissons Ratio (y) = 0.16959 0.09529
# Poissons Ratio (z) = 0.81264 0.08208
#
# Static dielectric constant tensor:
#      x y z
#    x 1.580460 0.000000 0.000000 
#    y 0.000000 1.595910 0.000000 
#    z 0.000000 0.000000 1.573570 
# 
# From -- ./inp_files/43471.got.cif
#   From: 2010.05.17/outbox.cif.g08.bks.cpg/sg67_22_cif.got.tgz:43471.got - 2010.06.03 18:28:57.
