data_PCOD9502123
_publ_section_title
;
Structure prediction by ZEFSAII (Michael W. Deem and Ramdas Pophale) SiO2 
 PCOD9502123
Probable space group: C M M A
;
_chemical_formula_sum "Si O2"
_cell_formula_units_Z 96
_cell_length_a 28.795961
_cell_length_b 9.075129
_cell_length_c 21.586259
_cell_angle_alpha 90.000000
_cell_angle_beta 90.000000
_cell_angle_gamma 90.000000
_cell_volume 5641.073617
_symmetry_space_group_name_H-M "C M M A"
_symmetry_group_IT_number 67
_symmetry_cell_setting 'orthorhombic'
loop_
_space_group_symop_operation_xyz
x,y,z
-x,1/2-y,z
x,-y,-z
-x,1/2+y,-z
-x,-y,-z
x,1/2+y,-z
-x,y,z
x,1/2-y,z
1/2+x,1/2+y,z
1/2-x,-y,z
1/2+x,1/2-y,-z
1/2-x,y,-z
1/2-x,1/2-y,-z
1/2+x,y,-z
1/2-x,1/2+y,z
1/2+x,-y,z
loop_
_atom_site_type_symbol
_atom_site_label
_atom_site_fract_x
_atom_site_fract_y
_atom_site_fract_z
Si Si1 0.944274 0.917962 0.688174
Si Si2 0.690962 0.583839 0.061281
Si Si3 0.095767 0.926521 0.192975
Si Si4 0.203817 0.574862 0.189268
Si Si5 0.056609 0.579789 0.436752
Si Si6 0.920695 0.417408 0.063306
O O1 0.927009 0.750000 0.693608
O O2 0.000000 0.912137 0.684146
O O3 0.931348 0.011349 0.748292
O O4 0.927669 0.994582 0.624788
O O5 0.709483 0.750000 0.067400
O O6 0.702911 0.482494 0.118947
O O7 0.635117 0.595105 0.057820
O O8 0.704457 0.500000 0.000000
O O9 0.092901 0.750000 0.187262
O O10 0.150399 0.963748 0.207046
O O11 0.075618 0.996909 0.129053
O O12 0.208849 0.750000 0.193500
O O13 0.250000 0.500000 0.218486
O O14 0.071324 0.500000 0.500000
O O15 0.071130 0.750000 0.435620
O O16 0.000000 0.578393 0.436555
O O17 0.939403 0.250000 0.066782
O O18 0.936785 0.500000 0.000000
#
# Coordination Sequence:
#
# PCOD9502123 Si02
#       6
#    16  16  16  16  16  16
#     4  10  20  33  50  73 100 130 163 196 231 274
#     4   9  16  26  40  58  81 108 139 177 223 277
#     4  10  20  33  49  69  93 122 157 197 240 286
#     4  10  20  32  45  62  85 114 149 188 231 279
#     4   9  16  27  45  70 101 134 163 190 223 267
#     4   9  16  27  44  64  86 114 149 191 239 288
#
# _framework density 17.018038000000001
#
# number of rings (size 3 to 8) (size 9 to 14) (size 15 to 20)
#    0.000    2.500    0.000    3.000    0.000    9.333 
#    0.000    1.667    0.000    0.500    0.000    0.000 
#    0.000    0.667    0.000    7.000    0.000    4.167 
#
# Total GULP energy -267354.964357 kJ/mol
# GULP energy per Si atom -5569.895091 kJ/mol
# Density = 1.697930 g / cm^3
# Si number density = 17.018038 Si / 1000 Ang^3
#
#
#
# Elastic Constant Matrix: (Units=GPa)
#
#
# Indices 1 2 3 4 5 6 
#
# 1 13.5198 12.6892 10.8711 0.0000 0.0000 0.0000
# 2 12.6892 84.2684 52.8471 0.0000 0.0000 0.0000
# 3 10.8711 52.8471 119.9218 0.0000 0.0000 0.0000
# 4 0.0000 0.0000 0.0000 25.2453 0.0000 0.0000
# 5 0.0000 0.0000 0.0000 0.0000 3.9273 0.0000
# 6 0.0000 0.0000 0.0000 0.0000 0.0000 17.8504
#
#
#
# Elastic Compliance Matrix: (Units=1/GPa)
#
#
# Indices 1 2 3 4 5 6 
#
# 1 0.086872 -0.011252 -0.002916 0.000000 0.000000 0.000000
# 2 -0.011252 0.017856 -0.006849 0.000000 0.000000 0.000000
# 3 -0.002916 -0.006849 0.011621 0.000000 0.000000 0.000000
# 4 0.000000 0.000000 0.000000 0.039611 0.000000 0.000000
# 5 0.000000 0.000000 0.000000 0.000000 0.254626 0.000000
# 6 0.000000 0.000000 0.000000 0.000000 0.000000 0.056021
#
#
# Mechanical properties :
#
#
# Convention : Reuss Voigt Hill
#
# Bulk Modulus (GPa) = 13.45634 41.16942 27.31288
# Shear Modulus (GPa) = 9.37357 18.82479 14.09918
#
# Velocity S-wave (km/s) = 2.34946 3.32952 2.88146
# Velocity P-wave (km/s) = 3.90951 6.24700 5.21101
#
# Compressibility (1/GPa) = 0.07431441
#
# Stress axis : x y z
#
# Youngs Moduli (GPa) = 11.51121 56.00250 86.04875
#
# Poissons Ratio (x) = 0.63015 0.25096
# Poissons Ratio (y) = 0.12953 0.58934
# Poissons Ratio (z) = 0.03357 0.38356
#
# Static dielectric constant tensor:
#      x y z
#    x 1.645210 0.000000 0.000000 
#    y 0.000000 1.598410 0.000000 
#    z 0.000000 0.000000 1.540790 
# 
# From -- ./inp_files/39888.got.cif
#   From: 2010.05.17/outbox.cif.g08.bks.cpg/sg67_20_cif.got.tgz:39888.got - 2010.06.03 18:28:57.
