data_PCOD9502655
_publ_section_title
;
Structure prediction by ZEFSAII (Michael W. Deem and Ramdas Pophale) SiO2 
 PCOD9502655
Probable space group: C M M A
;
_chemical_formula_sum "Si O2"
_cell_formula_units_Z 104
_cell_length_a 8.289426
_cell_length_b 28.310060
_cell_length_c 21.550510
_cell_angle_alpha 90.000000
_cell_angle_beta 90.000000
_cell_angle_gamma 90.000000
_cell_volume 5057.347561
_symmetry_space_group_name_H-M "C M M A"
_symmetry_group_IT_number 67
_symmetry_cell_setting 'orthorhombic'
loop_
_space_group_symop_operation_xyz
x,y,z
-x,1/2-y,z
x,-y,-z
-x,1/2+y,-z
-x,-y,-z
x,1/2+y,-z
-x,y,z
x,1/2-y,z
1/2+x,1/2+y,z
1/2-x,-y,z
1/2+x,1/2-y,-z
1/2-x,y,-z
1/2-x,1/2-y,-z
1/2+x,y,-z
1/2-x,1/2+y,z
1/2+x,-y,z
loop_
_atom_site_type_symbol
_atom_site_label
_atom_site_fract_x
_atom_site_fract_y
_atom_site_fract_z
Si Si1 0.804851 0.302373 0.762504
Si Si2 0.695405 0.250000 0.429138
Si Si3 0.183570 0.599004 0.934954
Si Si4 0.696749 0.152660 0.361407
Si Si5 0.804652 0.947429 0.330553
Si Si6 0.305699 0.804076 0.906088
Si Si7 0.691147 0.448096 0.187951
O O1 0.755906 0.250000 0.742301
O O2 0.752698 0.337728 0.709803
O O3 0.758499 0.308432 0.833380
O O4 0.000000 0.303644 0.763064
O O5 0.500000 0.250000 0.424013
O O6 0.750000 0.250000 0.500000
O O7 0.750155 0.199623 0.398936
O O8 0.205389 0.655468 0.938572
O O9 0.264806 0.584605 0.870091
O O10 0.000000 0.584927 0.930017
O O11 0.250000 0.579107 0.000000
O O12 0.500000 0.153235 0.364901
O O13 0.747039 0.098073 0.371844
O O14 0.747418 0.940134 0.258558
O O15 0.000000 0.947427 0.330040
O O16 0.750000 0.000000 0.349730
O O17 0.500000 0.812373 0.911614
O O18 0.274757 0.750000 0.924879
O O19 0.500000 0.446347 0.193259
O O20 0.750000 0.500000 0.170176
#
# Coordination Sequence:
#
# PCOD9502655 Si02
#       7
#    16   8  16  16  16  16  16
#     4   8  12  22  45  77 103 123 160 211 264 320
#     4  10  20  34  54  80 114 152 193 230 267 310
#     4  12  25  39  54  72  98 135 180 225 270 323
#     4   9  15  27  50  79 108 143 183 224 262 315
#     4   9  18  32  54  83 113 141 175 219 272 328
#     4   9  18  33  54  78 103 131 166 216 274 332
#     4  10  20  37  59  83 110 135 166 211 267 328
#
# _framework density 20.564138
#
# number of rings (size 3 to 8) (size 9 to 14) (size 15 to 20)
#    0.000    2.462    0.769    3.692    0.000    4.000 
#    0.000    2.308    0.000    1.385    0.000    3.231 
#    0.000    0.000    0.000    0.000    0.000    0.000 
#
# Total GULP energy -289638.731485 kJ/mol
# GULP energy per Si atom -5569.975605 kJ/mol
# Density = 2.051733 g / cm^3
# Si number density = 20.564138 Si / 1000 Ang^3
#
#
#
# Elastic Constant Matrix: (Units=GPa)
#
#
# Indices 1 2 3 4 5 6 
#
# 1 15.2091 7.2485 1.9978 0.0000 0.0000 0.0000
# 2 7.2485 152.0864 45.3471 0.0000 0.0000 0.0000
# 3 1.9978 45.3471 49.9172 0.0000 0.0000 0.0000
# 4 0.0000 0.0000 0.0000 14.8493 0.0000 0.0000
# 5 0.0000 0.0000 0.0000 0.0000 16.4366 0.0000
# 6 0.0000 0.0000 0.0000 0.0000 0.0000 25.4243
#
#
#
# Elastic Compliance Matrix: (Units=1/GPa)
#
#
# Indices 1 2 3 4 5 6 
#
# 1 0.067282 -0.003297 0.000302 0.000000 0.000000 0.000000
# 2 -0.003297 0.009179 -0.008207 0.000000 0.000000 0.000000
# 3 0.000302 -0.008207 0.027477 0.000000 0.000000 0.000000
# 4 0.000000 0.000000 0.000000 0.067343 0.000000 0.000000
# 5 0.000000 0.000000 0.000000 0.000000 0.060840 0.000000
# 6 0.000000 0.000000 0.000000 0.000000 0.000000 0.039332
#
#
# Mechanical properties :
#
#
# Convention : Reuss Voigt Hill
#
# Bulk Modulus (GPa) = 12.26472 36.26662 24.26567
# Shear Modulus (GPa) = 15.57463 22.18333 18.87898
#
# Velocity S-wave (km/s) = 2.75502 3.28798 3.03323
# Velocity P-wave (km/s) = 4.01214 5.66468 4.90845
#
# Compressibility (1/GPa) = 0.08153471
#
# Stress axis : x y z
#
# Youngs Moduli (GPa) = 14.86287 108.93949 36.39442
#
# Poissons Ratio (x) = 0.35915 -0.01100
# Poissons Ratio (y) = 0.04900 0.29869
# Poissons Ratio (z) = -0.00449 0.89407
#
# Static dielectric constant tensor:
#      x y z
#    x 1.723570 0.000000 0.000000 
#    y 0.000000 1.790180 0.000000 
#    z 0.000000 0.000000 1.774030 
# 
# From -- ./inp_files/37340.got.cif
#   From: 2010.05.17/outbox.cif.g08.bks.cpg/sg67_19_cif.got.tgz:37340.got - 2010.06.03 18:28:57.
