data_PCOD9502215
_publ_section_title
;
Structure prediction by ZEFSAII (Michael W. Deem and Ramdas Pophale) SiO2 
 PCOD9502215
Probable space group: C M M A
;
_chemical_formula_sum "Si O2"
_cell_formula_units_Z 116
_cell_length_a 25.381052
_cell_length_b 9.407101
_cell_length_c 25.072750
_cell_angle_alpha 90.000000
_cell_angle_beta 90.000000
_cell_angle_gamma 90.000000
_cell_volume 5986.422935
_symmetry_space_group_name_H-M "C M M A"
_symmetry_group_IT_number 67
_symmetry_cell_setting 'orthorhombic'
loop_
_space_group_symop_operation_xyz
x,y,z
-x,1/2-y,z
x,-y,-z
-x,1/2+y,-z
-x,-y,-z
x,1/2+y,-z
-x,y,z
x,1/2-y,z
1/2+x,1/2+y,z
1/2-x,-y,z
1/2+x,1/2-y,-z
1/2-x,y,-z
1/2-x,1/2-y,-z
1/2+x,y,-z
1/2-x,1/2+y,z
1/2+x,-y,z
loop_
_atom_site_type_symbol
_atom_site_label
_atom_site_fract_x
_atom_site_fract_y
_atom_site_fract_z
Si Si1 0.942809 0.918770 0.944342
Si Si2 0.411883 0.089256 0.653394
Si Si3 0.163161 0.419901 0.804423
Si Si4 0.936778 0.090221 0.550187
Si Si5 0.560037 0.582290 0.224708
Si Si6 0.202838 0.414494 0.299498
Si Si7 0.750000 0.000000 0.000000
Si Si8 0.325311 0.912475 0.094973
O O1 0.943012 0.750000 0.953592
O O2 0.886690 0.946492 0.917434
O O3 0.000000 0.953431 0.918192
O O4 0.942071 0.000000 0.000000
O O5 0.427337 0.250000 0.638086
O O6 0.437165 0.059526 0.711301
O O7 0.349741 0.084822 0.665472
O O8 0.425904 0.983968 0.606426
O O9 0.164999 0.250000 0.800068
O O10 0.103106 0.480093 0.801346
O O11 0.190026 0.499098 0.754536
O O12 0.188893 0.475646 0.859119
O O13 0.915730 0.250000 0.549135
O O14 0.000000 0.097268 0.544746
O O15 0.916437 0.000000 0.500000
O O16 0.500000 0.561013 0.207339
O O17 0.574041 0.750000 0.215391
O O18 0.215821 0.250000 0.287676
O O19 0.250000 0.500000 0.326351
O O20 0.789776 0.923129 0.958347
O O21 0.322085 0.750000 0.115015
#
# Coordination Sequence:
#
# PCOD9502215 Si02
#       8
#    16  16  16  16  16  16   4  16
#     4   9  18  35  59  83 106 136 173 216 266 322
#     4   9  18  33  54  81 113 150 191 236 288 345
#     4  11  24  39  58  85 117 150 188 232 279 334
#     4  10  20  32  49  77 114 156 199 241 285 336
#     4   9  18  35  59  86 119 157 193 233 287 347
#     4  10  21  39  61  84 111 145 188 236 291 346
#     4  12  26  44  66  90 110 148 192 236 284 344
#     4  11  24  42  62  86 116 147 186 232 284 344
#
# _framework density 19.377179999999999
#
# number of rings (size 3 to 8) (size 9 to 14) (size 15 to 20)
#    0.000    2.069    0.690    3.517    0.966    6.621 
#    0.000    1.379    0.000    0.414    0.000    2.897 
#    0.000    0.000    0.000    0.000    0.000    0.000 
#
# Total GULP energy -323605.952416 kJ/mol
# GULP energy per Si atom -5579.412973 kJ/mol
# Density = 1.933308 g / cm^3
# Si number density = 19.377180 Si / 1000 Ang^3
#
#
#
# Elastic Constant Matrix: (Units=GPa)
#
#
# Indices 1 2 3 4 5 6 
#
# 1 82.9773 32.5885 5.5260 0.0000 0.0000 0.0000
# 2 32.5885 125.0111 61.0444 0.0000 0.0000 0.0000
# 3 5.5260 61.0444 77.7139 0.0000 0.0000 0.0000
# 4 0.0000 0.0000 0.0000 24.2464 0.0000 0.0000
# 5 0.0000 0.0000 0.0000 0.0000 -32.3859 0.0000
# 6 0.0000 0.0000 0.0000 0.0000 0.0000 20.0737
#
#
#
# Elastic Compliance Matrix: (Units=1/GPa)
#
#
# Indices 1 2 3 4 5 6 
#
# 1 0.013845 -0.005075 0.003002 0.000000 0.000000 0.000000
# 2 -0.005075 0.014837 -0.011294 0.000000 0.000000 0.000000
# 3 0.003002 -0.011294 0.021525 0.000000 0.000000 0.000000
# 4 0.000000 0.000000 0.000000 0.041243 0.000000 0.000000
# 5 0.000000 0.000000 0.000000 0.000000 -0.030878 0.000000
# 6 0.000000 0.000000 0.000000 0.000000 0.000000 0.049816
#
#
# Mechanical properties :
#
#
# Convention : Reuss Voigt Hill
#
# Bulk Modulus (GPa) = 42.60067 53.78003 48.19035
# Shear Modulus (GPa) = 34.49523 14.82306 24.65915
#
# Velocity S-wave (km/s) = 4.22382 2.76882 3.57120
# Velocity P-wave (km/s) = 6.76906 6.16736 6.47521
#
# Compressibility (1/GPa) = 0.02347381
#
# Stress axis : x y z
#
# Youngs Moduli (GPa) = 72.22969 67.39848 46.45658
#
# Poissons Ratio (x) = 0.34205 -0.13946
# Poissons Ratio (y) = 0.36657 0.52467
# Poissons Ratio (z) = -0.21683 0.76118
#
# Static dielectric constant tensor:
#      x y z
#    x 1.783870 0.000000 0.000000 
#    y 0.000000 1.661930 0.000000 
#    z 0.000000 0.000000 1.658160 
# 
# From -- ./inp_files/42855.got.cif
#   From: 2010.05.17/outbox.cif.g08.bks.cpg/sg67_22_cif.got.tgz:42855.got - 2010.06.03 18:28:57.
