data_PCOD9502175
_publ_section_title
;
Structure prediction by ZEFSAII (Michael W. Deem and Ramdas Pophale) SiO2 
 PCOD9502175
Probable space group: C M M A
;
_chemical_formula_sum "Si O2"
_cell_formula_units_Z 96
_cell_length_a 17.685741
_cell_length_b 33.596648
_cell_length_c 7.437401
_cell_angle_alpha 90.000000
_cell_angle_beta 90.000000
_cell_angle_gamma 90.000000
_cell_volume 4419.166938
_symmetry_space_group_name_H-M "C M M A"
_symmetry_group_IT_number 67
_symmetry_cell_setting 'orthorhombic'
loop_
_space_group_symop_operation_xyz
x,y,z
-x,1/2-y,z
x,-y,-z
-x,1/2+y,-z
-x,-y,-z
x,1/2+y,-z
-x,y,z
x,1/2-y,z
1/2+x,1/2+y,z
1/2-x,-y,z
1/2+x,1/2-y,-z
1/2-x,y,-z
1/2-x,1/2-y,-z
1/2+x,y,-z
1/2-x,1/2+y,z
1/2+x,-y,z
loop_
_atom_site_type_symbol
_atom_site_label
_atom_site_fract_x
_atom_site_fract_y
_atom_site_fract_z
Si Si1 0.158481 0.292608 0.983560
Si Si2 0.409697 0.206160 0.418857
Si Si3 0.913559 0.044091 0.535894
Si Si4 0.838403 0.625675 0.458271
Si Si5 0.914374 0.542620 0.033886
Si Si6 0.839157 0.377788 0.972627
O O1 0.132246 0.250000 0.060875
O O2 0.131911 0.292319 0.775415
O O3 0.132348 0.335806 0.052783
O O4 0.250000 0.293132 0.000000
O O5 0.500000 0.202064 0.391994
O O6 0.395589 0.250000 0.502354
O O7 0.378412 0.166834 0.516242
O O8 0.870513 0.083590 0.471090
O O9 0.917204 0.046918 0.751568
O O10 0.000000 0.044410 0.466966
O O11 0.880599 0.000000 0.500000
O O12 0.750000 0.628421 0.500000
O O13 0.850929 0.624223 0.242495
O O14 0.875985 0.581905 0.958294
O O15 0.000000 0.540602 0.963543
O O16 0.876409 0.500000 0.000000
O O17 0.750000 0.380427 0.000000
#
# Coordination Sequence:
#
# PCOD9502175 Si02
#       6
#    16  16  16  16  16  16
#     4   8  14  26  45  70  99 127 156 197 247 295
#     4   9  17  30  50  75 100 130 171 212 248 297
#     4   9  18  33  51  69  92 125 164 205 249 298
#     4  10  20  32  48  72 102 130 161 205 253 296
#     4   9  18  32  49  68  90 119 156 198 241 284
#     4   9  18  31  47  68  95 125 156 191 235 288
#
# _framework density 21.723552000000002
#
# number of rings (size 3 to 8) (size 9 to 14) (size 15 to 20)
#    0.000    3.000    0.000    0.500    0.000    6.333 
#    0.000    3.333    0.000    1.000    0.000    7.000 
#    0.000   45.333    0.000    0.000    0.000    0.000 
#
# Total GULP energy -267360.901215 kJ/mol
# GULP energy per Si atom -5570.018775 kJ/mol
# Density = 2.167411 g / cm^3
# Si number density = 21.723552 Si / 1000 Ang^3
#
#
#
# Elastic Constant Matrix: (Units=GPa)
#
#
# Indices 1 2 3 4 5 6 
#
# 1 54.6247 83.0447 5.1503 0.0000 0.0000 0.0000
# 2 83.0447 306.3504 13.4042 0.0000 0.0000 0.0000
# 3 5.1503 13.4042 70.3249 0.0000 0.0000 0.0000
# 4 0.0000 0.0000 0.0000 6.7194 0.0000 0.0000
# 5 0.0000 0.0000 0.0000 0.0000 19.3191 0.0000
# 6 0.0000 0.0000 0.0000 0.0000 0.0000 31.2779
#
#
#
# Elastic Compliance Matrix: (Units=1/GPa)
#
#
# Indices 1 2 3 4 5 6 
#
# 1 0.031172 -0.008420 -0.000678 0.000000 0.000000 0.000000
# 2 -0.008420 0.005566 -0.000444 0.000000 0.000000 0.000000
# 3 -0.000678 -0.000444 0.014354 0.000000 0.000000 0.000000
# 4 0.000000 0.000000 0.000000 0.148824 0.000000 0.000000
# 5 0.000000 0.000000 0.000000 0.000000 0.051762 0.000000
# 6 0.000000 0.000000 0.000000 0.000000 0.000000 0.031971
#
#
# Mechanical properties :
#
#
# Convention : Reuss Voigt Hill
#
# Bulk Modulus (GPa) = 31.24311 70.49982 50.87147
# Shear Modulus (GPa) = 15.95386 33.44332 24.69859
#
# Velocity S-wave (km/s) = 2.71293 3.92790 3.37553
# Velocity P-wave (km/s) = 4.92206 7.28662 6.21778
#
# Compressibility (1/GPa) = 0.03200706
#
# Stress axis : x y z
#
# Youngs Moduli (GPa) = 32.08015 179.65439 69.66679
#
# Poissons Ratio (x) = 1.51275 0.04723
# Poissons Ratio (y) = 0.27013 0.03095
# Poissons Ratio (z) = 0.02175 0.07982
#
# Static dielectric constant tensor:
#      x y z
#    x 1.703150 0.000000 0.000000 
#    y 0.000000 1.878330 0.000000 
#    z 0.000000 0.000000 1.736680 
# 
# From -- ./inp_files/19823.got.cif
#   From: 2010.05.17/outbox.cif.g08.bks.cpg/sg67_10_cif.got.tgz:19823.got - 2010.06.03 18:28:57.
