data_PCOD9502397
_publ_section_title
;
Structure prediction by ZEFSAII (Michael W. Deem and Ramdas Pophale) SiO2 
 PCOD9502397
Probable space group: C M M A
;
_chemical_formula_sum "Si O2"
_cell_formula_units_Z 112
_cell_length_a 15.579775
_cell_length_b 27.310544
_cell_length_c 14.643748
_cell_angle_alpha 90.000000
_cell_angle_beta 90.000000
_cell_angle_gamma 90.000000
_cell_volume 6230.799537
_symmetry_space_group_name_H-M "C M M A"
_symmetry_group_IT_number 67
_symmetry_cell_setting 'orthorhombic'
loop_
_space_group_symop_operation_xyz
x,y,z
-x,1/2-y,z
x,-y,-z
-x,1/2+y,-z
-x,-y,-z
x,1/2+y,-z
-x,y,z
x,1/2-y,z
1/2+x,1/2+y,z
1/2-x,-y,z
1/2+x,1/2-y,-z
1/2-x,y,-z
1/2-x,1/2-y,-z
1/2+x,y,-z
1/2-x,1/2+y,z
1/2+x,-y,z
loop_
_atom_site_type_symbol
_atom_site_label
_atom_site_fract_x
_atom_site_fract_y
_atom_site_fract_z
Si Si1 0.597582 0.479849 0.595489
Si Si2 0.600377 0.692966 0.939683
Si Si3 0.903921 0.693472 0.659097
Si Si4 0.781694 0.889873 0.603293
Si Si5 0.904051 0.847312 0.857149
Si Si6 0.181281 0.544664 0.266629
Si Si7 0.228006 0.105628 0.895419
O O1 0.636295 0.500000 0.500000
O O2 0.500000 0.467813 0.577301
O O3 0.645692 0.430546 0.619733
O O4 0.605460 0.519462 0.676217
O O5 0.500000 0.684161 0.913010
O O6 0.620654 0.750000 0.921245
O O7 0.668271 0.654452 0.897947
O O8 0.604728 0.682687 0.048709
O O9 0.895466 0.750000 0.635045
O O10 0.826625 0.661533 0.620842
O O11 0.901522 0.686568 0.768483
O O12 0.000000 0.676653 0.629730
O O13 0.750000 0.892882 0.500000
O O14 0.709311 0.908079 0.673477
O O15 0.821829 0.882921 0.852361
O O16 0.000000 0.870777 0.858794
O O17 0.250000 0.500000 0.268753
O O18 0.179037 0.564766 0.163847
O O19 0.250000 0.091811 0.000000
#
# Coordination Sequence:
#
# PCOD9502397 Si02
#       7
#    16  16  16  16  16  16  16
#     4  10  20  35  58  84 107 136 180 233 286 333
#     4   9  18  32  52  76 106 144 186 233 275 317
#     4  10  20  33  52  78 109 143 180 221 271 332
#     4  11  20  35  56  79 107 137 174 225 277 325
#     4   9  17  31  51  78 108 137 181 234 278 315
#     4  10  21  36  54  79 107 138 174 227 277 321
#     4  10  20  34  53  80 109 150 186 219 272 342
#
# _framework density 17.975221000000001
#
# number of rings (size 3 to 8) (size 9 to 14) (size 15 to 20)
#    0.000    2.143    2.857    0.857    0.000    6.000 
#    0.000    0.000    0.000    0.000    0.000    8.000 
#    0.000    0.000    0.000    0.000    0.000    0.000 
#
# Total GULP energy -311828.655380 kJ/mol
# GULP energy per Si atom -5568.368846 kJ/mol
# Density = 1.793431 g / cm^3
# Si number density = 17.975221 Si / 1000 Ang^3
#
#
#
# Elastic Constant Matrix: (Units=GPa)
#
#
# Indices 1 2 3 4 5 6 
#
# 1 56.8168 18.2804 12.2956 0.0000 0.0000 0.0000
# 2 18.2804 52.5660 21.3228 0.0000 0.0000 0.0000
# 3 12.2956 21.3228 60.1332 0.0000 0.0000 0.0000
# 4 0.0000 0.0000 0.0000 16.2979 0.0000 0.0000
# 5 0.0000 0.0000 0.0000 0.0000 13.4749 0.0000
# 6 0.0000 0.0000 0.0000 0.0000 0.0000 22.7831
#
#
#
# Elastic Compliance Matrix: (Units=1/GPa)
#
#
# Indices 1 2 3 4 5 6 
#
# 1 0.020001 -0.006187 -0.001896 0.000000 0.000000 0.000000
# 2 -0.006187 0.024133 -0.007293 0.000000 0.000000 0.000000
# 3 -0.001896 -0.007293 0.019603 0.000000 0.000000 0.000000
# 4 0.000000 0.000000 0.000000 0.061358 0.000000 0.000000
# 5 0.000000 0.000000 0.000000 0.000000 0.074212 0.000000
# 6 0.000000 0.000000 0.000000 0.000000 0.000000 0.043892
#
#
# Mechanical properties :
#
#
# Convention : Reuss Voigt Hill
#
# Bulk Modulus (GPa) = 30.31434 30.36817 30.34125
# Shear Modulus (GPa) = 17.54721 18.35233 17.94977
#
# Velocity S-wave (km/s) = 3.12779 3.19874 3.16347
# Velocity P-wave (km/s) = 5.47222 5.52935 5.50086
#
# Compressibility (1/GPa) = 0.03298769
#
# Stress axis : x y z
#
# Youngs Moduli (GPa) = 49.99700 41.43655 51.01176
#
# Poissons Ratio (x) = 0.25635 0.09672
# Poissons Ratio (y) = 0.30931 0.37200
# Poissons Ratio (z) = 0.09479 0.30218
#
# Static dielectric constant tensor:
#      x y z
#    x 1.651300 0.000000 0.000000 
#    y 0.000000 1.608670 0.000000 
#    z 0.000000 0.000000 1.651310 
# 
# From -- ./inp_files/27718.got.cif
#   From: 2010.05.17/outbox.cif.g08.bks.cpg/sg67_14_cif.got.tgz:27718.got - 2010.06.03 18:28:57.
