data_PCOD9502460
_publ_section_title
;
Structure prediction by ZEFSAII (Michael W. Deem and Ramdas Pophale) SiO2 
 PCOD9502460
Probable space group: C M M A
;
_chemical_formula_sum "Si O2"
_cell_formula_units_Z 96
_cell_length_a 27.897986
_cell_length_b 8.762743
_cell_length_c 25.024985
_cell_angle_alpha 90.000000
_cell_angle_beta 90.000000
_cell_angle_gamma 90.000000
_cell_volume 6117.679943
_symmetry_space_group_name_H-M "C M M A"
_symmetry_group_IT_number 67
_symmetry_cell_setting 'orthorhombic'
loop_
_space_group_symop_operation_xyz
x,y,z
-x,1/2-y,z
x,-y,-z
-x,1/2+y,-z
-x,-y,-z
x,1/2+y,-z
-x,y,z
x,1/2-y,z
1/2+x,1/2+y,z
1/2-x,-y,z
1/2+x,1/2-y,-z
1/2-x,y,-z
1/2-x,1/2-y,-z
1/2+x,y,-z
1/2-x,1/2+y,z
1/2+x,-y,z
loop_
_atom_site_type_symbol
_atom_site_label
_atom_site_fract_x
_atom_site_fract_y
_atom_site_fract_z
Si Si1 0.058251 0.427507 0.444783
Si Si2 0.151249 0.066747 0.942365
Si Si3 0.553467 0.066125 0.113631
Si Si4 0.300681 0.432692 0.838272
Si Si5 0.444217 0.563602 0.328165
Si Si6 0.898916 0.066023 0.217717
O O1 0.075394 0.500000 0.500000
O O2 0.070838 0.250000 0.446430
O O3 0.073070 0.490765 0.386656
O O4 0.000000 0.437966 0.444350
O O5 0.154182 0.250000 0.942899
O O6 0.096802 0.020370 0.925596
O O7 0.184927 0.001268 0.895838
O O8 0.163122 0.000000 0.000000
O O9 0.500000 0.015650 0.097903
O O10 0.553824 0.250000 0.115875
O O11 0.567080 0.002946 0.171993
O O12 0.298081 0.250000 0.842094
O O13 0.250000 0.500000 0.821011
O O14 0.344656 0.473345 0.798960
O O15 0.500000 0.520149 0.320927
O O16 0.443357 0.750000 0.330015
O O17 0.414192 0.514939 0.276713
O O18 0.903424 0.250000 0.215515
#
# Coordination Sequence:
#
# PCOD9502460 Si02
#       6
#    16  16  16  16  16  16
#     4   8  13  21  33  50  76 111 146 175 202 233
#     4  10  20  34  50  68  90 113 140 173 206 245
#     4   9  18  31  45  63  90 120 143 168 207 247
#     4  10  20  34  51  69  87 108 135 169 214 262
#     4   8  13  22  38  60  85 113 143 174 206 238
#     4   9  17  29  46  66  85 108 143 180 209 248
#
# _framework density 15.692224
#
# number of rings (size 3 to 8) (size 9 to 14) (size 15 to 20)
#    0.000    3.000    0.000    2.500    0.000    3.000 
#    0.000    2.500    0.000    3.000    0.000    0.000 
#    0.000    0.667    0.000    8.333    0.000    0.333 
#
# Total GULP energy -267325.969118 kJ/mol
# GULP energy per Si atom -5569.291023 kJ/mol
# Density = 1.565651 g / cm^3
# Si number density = 15.692224 Si / 1000 Ang^3
#
#
#
# Elastic Constant Matrix: (Units=GPa)
#
#
# Indices 1 2 3 4 5 6 
#
# 1 53.2598 11.7408 17.2637 0.0000 0.0000 0.0000
# 2 11.7408 16.4359 19.5258 0.0000 0.0000 0.0000
# 3 17.2637 19.5258 118.8509 0.0000 0.0000 0.0000
# 4 0.0000 0.0000 0.0000 20.3938 0.0000 0.0000
# 5 0.0000 0.0000 0.0000 0.0000 10.4641 0.0000
# 6 0.0000 0.0000 0.0000 0.0000 0.0000 15.9117
#
#
#
# Elastic Compliance Matrix: (Units=1/GPa)
#
#
# Indices 1 2 3 4 5 6 
#
# 1 0.022342 -0.015040 -0.000774 0.000000 0.000000 0.000000
# 2 -0.015040 0.085721 -0.011898 0.000000 0.000000 0.000000
# 3 -0.000774 -0.011898 0.010481 0.000000 0.000000 0.000000
# 4 0.000000 0.000000 0.000000 0.049035 0.000000 0.000000
# 5 0.000000 0.000000 0.000000 0.000000 0.095565 0.000000
# 6 0.000000 0.000000 0.000000 0.000000 0.000000 0.062847
#
#
# Mechanical properties :
#
#
# Convention : Reuss Voigt Hill
#
# Bulk Modulus (GPa) = 15.84304 31.73413 23.78859
# Shear Modulus (GPa) = 12.42373 18.68834 15.55603
#
# Velocity S-wave (km/s) = 2.81679 3.45473 3.15194
# Velocity P-wave (km/s) = 4.54941 6.01500 5.33279
#
# Compressibility (1/GPa) = 0.06311918
#
# Stress axis : x y z
#
# Youngs Moduli (GPa) = 44.75798 11.66575 95.40939
#
# Poissons Ratio (x) = 0.17545 0.07389
# Poissons Ratio (y) = 0.67316 1.13521
# Poissons Ratio (z) = 0.03466 0.13880
#
# Static dielectric constant tensor:
#      x y z
#    x 1.520500 0.000000 0.000000 
#    y 0.000000 1.534390 0.000000 
#    z 0.000000 0.000000 1.533420 
# 
# From -- ./inp_files/40926.got.cif
#   From: 2010.05.17/outbox.cif.g08.bks.cpg/sg67_21_cif.got.tgz:40926.got - 2010.06.03 18:28:57.
