data_PCOD9502352
_publ_section_title
;
Structure prediction by ZEFSAII (Michael W. Deem and Ramdas Pophale) SiO2 
 PCOD9502352
Probable space group: C M M A
;
_chemical_formula_sum "Si O2"
_cell_formula_units_Z 80
_cell_length_a 8.715112
_cell_length_b 18.769010
_cell_length_c 27.328427
_cell_angle_alpha 90.000000
_cell_angle_beta 90.000000
_cell_angle_gamma 90.000000
_cell_volume 4470.220782
_symmetry_space_group_name_H-M "C M M A"
_symmetry_group_IT_number 67
_symmetry_cell_setting 'orthorhombic'
loop_
_space_group_symop_operation_xyz
x,y,z
-x,1/2-y,z
x,-y,-z
-x,1/2+y,-z
-x,-y,-z
x,1/2+y,-z
-x,y,z
x,1/2-y,z
1/2+x,1/2+y,z
1/2-x,-y,z
1/2+x,1/2-y,-z
1/2-x,y,-z
1/2-x,1/2-y,-z
1/2+x,y,-z
1/2-x,1/2+y,z
1/2+x,-y,z
loop_
_atom_site_type_symbol
_atom_site_label
_atom_site_fract_x
_atom_site_fract_y
_atom_site_fract_z
Si Si1 0.683676 0.580525 0.950577
Si Si2 0.683872 0.580024 0.342465
Si Si3 0.183326 0.580378 0.549296
Si Si4 0.185612 0.332329 0.747929
Si Si5 0.314952 0.920213 0.842876
O O1 0.500000 0.577677 0.954619
O O2 0.750000 0.500000 0.949455
O O3 0.725593 0.609926 0.896870
O O4 0.750000 0.614960 0.000000
O O5 0.500000 0.576031 0.339138
O O6 0.750000 0.500000 0.338338
O O7 0.722850 0.609712 0.396879
O O8 0.749428 0.627550 0.299174
O O9 0.250000 0.500000 0.550372
O O10 0.250000 0.615130 0.500000
O O11 0.000000 0.577053 0.545000
O O12 0.232316 0.250000 0.748474
O O13 0.235823 0.372195 0.797543
O O14 0.000000 0.335288 0.746283
O O15 0.500000 0.924983 0.841600
O O16 0.250000 0.000000 0.838001
#
# Coordination Sequence:
#
# PCOD9502352 Si02
#       5
#    16  16  16  16  16
#     4   9  15  24  40  64  93 120 148 186 232 280
#     4  10  20  33  51  76 103 130 162 201 243 287
#     4   9  16  26  43  69  99 127 155 191 235 282
#     4  10  21  36  52  70  95 129 167 205 247 294
#     4   9  18  31  48  71  96 123 157 197 239 284
#
# _framework density 17.896208000000001
#
# number of rings (size 3 to 8) (size 9 to 14) (size 15 to 20)
#    0.000    2.600    0.000    3.600    0.000    6.000 
#    0.000    0.000    0.000    1.200    0.000    0.000 
#    0.000    0.000    0.000    0.000    0.000    5.400 
#
# Total GULP energy -222817.123545 kJ/mol
# GULP energy per Si atom -5570.428089 kJ/mol
# Density = 1.785547 g / cm^3
# Si number density = 17.896208 Si / 1000 Ang^3
#
#
#
# Elastic Constant Matrix: (Units=GPa)
#
#
# Indices 1 2 3 4 5 6 
#
# 1 37.6589 18.6664 52.7828 0.0000 0.0000 0.0000
# 2 18.6664 59.1570 73.4651 0.0000 0.0000 0.0000
# 3 52.7828 73.4651 238.3850 0.0000 0.0000 0.0000
# 4 0.0000 0.0000 0.0000 -5.0217 0.0000 0.0000
# 5 0.0000 0.0000 0.0000 0.0000 36.7245 0.0000
# 6 0.0000 0.0000 0.0000 0.0000 0.0000 12.9629
#
#
#
# Elastic Compliance Matrix: (Units=1/GPa)
#
#
# Indices 1 2 3 4 5 6 
#
# 1 0.038739 -0.002546 -0.007793 0.000000 0.000000 0.000000
# 2 -0.002546 0.027552 -0.007927 0.000000 0.000000 0.000000
# 3 -0.007793 -0.007927 0.008363 0.000000 0.000000 0.000000
# 4 0.000000 0.000000 0.000000 -0.199137 0.000000 0.000000
# 5 0.000000 0.000000 0.000000 0.000000 0.027230 0.000000
# 6 0.000000 0.000000 0.000000 0.000000 0.000000 0.077143
#
#
# Mechanical properties :
#
#
# Convention : Reuss Voigt Hill
#
# Bulk Modulus (GPa) = 26.23155 69.44773 47.83964
# Shear Modulus (GPa) = 171.64665 21.61893 96.63279
#
# Velocity S-wave (km/s) = 9.80411 3.47943 7.35619
# Velocity P-wave (km/s) = 11.95199 7.41835 9.94691
#
# Compressibility (1/GPa) = 0.03812203
#
# Stress axis : x y z
#
# Youngs Moduli (GPa) = 25.81409 36.29487 119.56891
#
# Poissons Ratio (x) = 0.09240 0.93178
# Poissons Ratio (y) = 0.06572 0.94785
# Poissons Ratio (z) = 0.20116 0.28772
#
# Static dielectric constant tensor:
#      x y z
#    x 1.607740 0.000000 0.000000 
#    y 0.000000 1.558870 0.000000 
#    z 0.000000 0.000000 1.686480 
# 
# From -- ./inp_files/43338.got.cif
#   From: 2010.05.17/outbox.cif.g08.bks.cpg/sg67_22_cif.got.tgz:43338.got - 2010.06.03 18:28:57.
