data_PCOD9502907
_publ_section_title
;
Structure prediction by ZEFSAII (Michael W. Deem and Ramdas Pophale) SiO2 
 PCOD9502907
Probable space group: C M M A
;
_chemical_formula_sum "Si O2"
_cell_formula_units_Z 72
_cell_length_a 14.956147
_cell_length_b 8.818393
_cell_length_c 26.380518
_cell_angle_alpha 90.000000
_cell_angle_beta 90.000000
_cell_angle_gamma 90.000000
_cell_volume 3479.304940
_symmetry_space_group_name_H-M "C M M A"
_symmetry_group_IT_number 67
_symmetry_cell_setting 'orthorhombic'
loop_
_space_group_symop_operation_xyz
x,y,z
-x,1/2-y,z
x,-y,-z
-x,1/2+y,-z
-x,-y,-z
x,1/2+y,-z
-x,y,z
x,1/2-y,z
1/2+x,1/2+y,z
1/2-x,-y,z
1/2+x,1/2-y,-z
1/2-x,y,-z
1/2-x,1/2-y,-z
1/2+x,y,-z
1/2-x,1/2+y,z
1/2+x,-y,z
loop_
_atom_site_type_symbol
_atom_site_label
_atom_site_fract_x
_atom_site_fract_y
_atom_site_fract_z
Si Si1 0.394124 0.581470 0.153519
Si Si2 0.649176 0.566835 0.629389
Si Si3 0.000000 0.433404 0.443530
Si Si4 0.349468 0.065956 0.734274
Si Si5 0.390375 0.921488 0.948000
O O1 0.500000 0.594266 0.145075
O O2 0.353831 0.750000 0.154117
O O3 0.385197 0.519743 0.210451
O O4 0.359354 0.493328 0.104849
O O5 0.651427 0.750000 0.628332
O O6 0.750000 0.500000 0.624400
O O7 0.586211 0.498363 0.586136
O O8 0.611046 0.508045 0.683601
O O9 0.000000 0.500000 0.500000
O O10 0.000000 0.250000 0.443440
O O11 0.353504 0.250000 0.730027
O O12 0.250000 0.000000 0.734466
O O13 0.500000 0.924113 0.947889
O O14 0.360596 0.750000 0.949562
O O15 0.362206 0.000000 0.000000
#
# Coordination Sequence:
#
# PCOD9502907 Si02
#       5
#    16  16   8  16  16
#     4   9  18  31  48  73 102 136 179 226 280 340
#     4  11  23  42  66  96 130 171 215 260 312 370
#     4  12  26  46  70 100 134 170 213 262 311 366
#     4  10  20  35  56  81 112 152 191 236 291 349
#     4   9  16  26  42  65  95 131 170 218 274 334
#
# _framework density 20.693788999999999
#
# number of rings (size 3 to 8) (size 9 to 14) (size 15 to 20)
#    0.000    2.000    0.000    5.667    1.556    4.889 
#    0.000    2.222    0.000    0.667    0.000    4.667 
#    0.000    0.000    0.000    0.000    0.000    0.000 
#
# Total GULP energy -200872.329635 kJ/mol
# GULP energy per Si atom -5579.786934 kJ/mol
# Density = 2.064669 g / cm^3
# Si number density = 20.693789 Si / 1000 Ang^3
#
#
#
# Elastic Constant Matrix: (Units=GPa)
#
#
# Indices 1 2 3 4 5 6 
#
# 1 64.4584 35.8130 47.1412 0.0000 0.0000 0.0000
# 2 35.8130 158.2574 114.3137 0.0000 0.0000 0.0000
# 3 47.1412 114.3137 246.7314 0.0000 0.0000 0.0000
# 4 0.0000 0.0000 0.0000 41.5943 0.0000 0.0000
# 5 0.0000 0.0000 0.0000 0.0000 87.7534 0.0000
# 6 0.0000 0.0000 0.0000 0.0000 0.0000 16.9355
#
#
#
# Elastic Compliance Matrix: (Units=1/GPa)
#
#
# Indices 1 2 3 4 5 6 
#
# 1 0.018658 -0.002476 -0.002418 0.000000 0.000000 0.000000
# 2 -0.002476 0.009826 -0.004079 0.000000 0.000000 0.000000
# 3 -0.002418 -0.004079 0.006405 0.000000 0.000000 0.000000
# 4 0.000000 0.000000 0.000000 0.024042 0.000000 0.000000
# 5 0.000000 0.000000 0.000000 0.000000 0.011396 0.000000
# 6 0.000000 0.000000 0.000000 0.000000 0.000000 0.059047
#
#
# Mechanical properties :
#
#
# Convention : Reuss Voigt Hill
#
# Bulk Modulus (GPa) = 59.02286 95.99812 77.51049
# Shear Modulus (GPa) = 32.68696 47.40192 40.04444
#
# Velocity S-wave (km/s) = 3.97867 4.79125 4.40374
# Velocity P-wave (km/s) = 7.04914 8.78058 7.96207
#
# Compressibility (1/GPa) = 0.01694259
#
# Stress axis : x y z
#
# Youngs Moduli (GPa) = 53.59748 101.77397 156.12956
#
# Poissons Ratio (x) = 0.25197 0.37748
# Poissons Ratio (y) = 0.13269 0.63691
# Poissons Ratio (z) = 0.12958 0.41517
#
# Static dielectric constant tensor:
#      x y z
#    x 1.734260 0.000000 0.000000 
#    y 0.000000 1.724830 0.000000 
#    z 0.000000 0.000000 1.802680 
# 
# From -- ./inp_files/44254.got.cif
#   From: 2010.05.17/outbox.cif.g08.bks.cpg/sg67_23_cif.got.tgz:44254.got - 2010.06.03 18:28:57.
