data_PCOD9502354
_publ_section_title
;
Structure prediction by ZEFSAII (Michael W. Deem and Ramdas Pophale) SiO2 
 PCOD9502354
Probable space group: C M M A
;
_chemical_formula_sum "Si O2"
_cell_formula_units_Z 80
_cell_length_a 8.808900
_cell_length_b 19.484170
_cell_length_c 26.773097
_cell_angle_alpha 90.000000
_cell_angle_beta 90.000000
_cell_angle_gamma 90.000000
_cell_volume 4595.176545
_symmetry_space_group_name_H-M "C M M A"
_symmetry_group_IT_number 67
_symmetry_cell_setting 'orthorhombic'
loop_
_space_group_symop_operation_xyz
x,y,z
-x,1/2-y,z
x,-y,-z
-x,1/2+y,-z
-x,-y,-z
x,1/2+y,-z
-x,y,z
x,1/2-y,z
1/2+x,1/2+y,z
1/2-x,-y,z
1/2+x,1/2-y,-z
1/2-x,y,-z
1/2-x,1/2-y,-z
1/2+x,y,-z
1/2-x,1/2+y,z
1/2+x,-y,z
loop_
_atom_site_type_symbol
_atom_site_label
_atom_site_fract_x
_atom_site_fract_y
_atom_site_fract_z
Si Si1 0.181357 0.669584 0.747329
Si Si2 0.682268 0.829895 0.853570
Si Si3 0.317304 0.424014 0.052630
Si Si4 0.181725 0.076562 0.660713
Si Si5 0.181377 0.423064 0.549863
O O1 0.223218 0.750000 0.741212
O O2 0.240494 0.647808 0.801944
O O3 0.253527 0.624301 0.703905
O O4 0.000000 0.663973 0.745633
O O5 0.500000 0.834023 0.847439
O O6 0.721942 0.750000 0.862283
O O7 0.724485 0.875810 0.900972
O O8 0.500000 0.427689 0.049099
O O9 0.250000 0.500000 0.060335
O O10 0.250000 0.398410 0.000000
O O11 0.217928 0.105280 0.604956
O O12 0.000000 0.071794 0.664492
O O13 0.250000 0.000000 0.664833
O O14 0.250000 0.500000 0.551208
O O15 0.250000 0.389259 0.500000
O O16 0.000000 0.426913 0.544724
#
# Coordination Sequence:
#
# PCOD9502354 Si02
#       5
#    16  16  16  16  16
#     4  10  21  36  54  76 102 134 171 211 256 304
#     4   9  19  36  55  74  98 131 170 208 248 296
#     4  10  20  34  53  76 103 134 165 200 245 295
#     4  10  20  33  51  76 104 134 169 210 254 302
#     4   9  16  26  43  68  97 129 163 201 248 297
#
# _framework density 17.409559999999999
#
# number of rings (size 3 to 8) (size 9 to 14) (size 15 to 20)
#    0.000    2.400    0.000    3.600    0.000    6.400 
#    0.000    2.000    0.000    0.600    0.000    0.000 
#    0.000    0.000    0.000    0.000    0.000    0.000 
#
# Total GULP energy -223042.597573 kJ/mol
# GULP energy per Si atom -5576.064939 kJ/mol
# Density = 1.736994 g / cm^3
# Si number density = 17.409560 Si / 1000 Ang^3
#
#
#
# Elastic Constant Matrix: (Units=GPa)
#
#
# Indices 1 2 3 4 5 6 
#
# 1 59.2541 33.0567 73.9767 0.0000 0.0000 0.0000
# 2 33.0567 48.5622 83.6087 0.0000 0.0000 0.0000
# 3 73.9767 83.6087 220.0636 0.0000 0.0000 0.0000
# 4 0.0000 0.0000 0.0000 -72.4102 0.0000 0.0000
# 5 0.0000 0.0000 0.0000 0.0000 37.0376 0.0000
# 6 0.0000 0.0000 0.0000 0.0000 0.0000 22.4689
#
#
#
# Elastic Compliance Matrix: (Units=1/GPa)
#
#
# Indices 1 2 3 4 5 6 
#
# 1 0.030370 -0.008952 -0.006808 0.000000 0.000000 0.000000
# 2 -0.008952 0.062174 -0.020612 0.000000 0.000000 0.000000
# 3 -0.006808 -0.020612 0.014664 0.000000 0.000000 0.000000
# 4 0.000000 0.000000 0.000000 -0.013810 0.000000 0.000000
# 5 0.000000 0.000000 0.000000 0.000000 0.027000 0.000000
# 6 0.000000 0.000000 0.000000 0.000000 0.000000 0.044506
#
#
# Mechanical properties :
#
#
# Convention : Reuss Voigt Hill
#
# Bulk Modulus (GPa) = 29.01624 78.79602 53.90613
# Shear Modulus (GPa) = 20.06936 6.56845 13.31890
#
# Velocity S-wave (km/s) = 3.39894 1.94450 2.76893
# Velocity P-wave (km/s) = 5.66628 7.09929 6.42288
#
# Compressibility (1/GPa) = 0.03446346
#
# Stress axis : x y z
#
# Youngs Moduli (GPa) = 32.92684 16.08397 68.19356
#
# Poissons Ratio (x) = 0.14398 0.46429
# Poissons Ratio (y) = 0.29475 1.40564
# Poissons Ratio (z) = 0.22418 0.33153
#
# Static dielectric constant tensor:
#      x y z
#    x 1.582550 0.000000 0.000000 
#    y 0.000000 1.564880 0.000000 
#    z 0.000000 0.000000 1.611910 
# 
# From -- ./inp_files/43278.got.cif
#   From: 2010.05.17/outbox.cif.g08.bks.cpg/sg67_22_cif.got.tgz:43278.got - 2010.06.03 18:28:57.
