data_PCOD9502218
_publ_section_title
;
Structure prediction by ZEFSAII (Michael W. Deem and Ramdas Pophale) SiO2 
 PCOD9502218
Probable space group: C M M A
;
_chemical_formula_sum "Si O2"
_cell_formula_units_Z 48
_cell_length_a 8.492612
_cell_length_b 23.975383
_cell_length_c 13.846322
_cell_angle_alpha 90.000000
_cell_angle_beta 90.000000
_cell_angle_gamma 90.000000
_cell_volume 2819.299820
_symmetry_space_group_name_H-M "C M M A"
_symmetry_group_IT_number 67
_symmetry_cell_setting 'orthorhombic'
loop_
_space_group_symop_operation_xyz
x,y,z
-x,1/2-y,z
x,-y,-z
-x,1/2+y,-z
-x,-y,-z
x,1/2+y,-z
-x,y,z
x,1/2-y,z
1/2+x,1/2+y,z
1/2-x,-y,z
1/2+x,1/2-y,-z
1/2-x,y,-z
1/2-x,1/2-y,-z
1/2+x,y,-z
1/2-x,1/2+y,z
1/2+x,-y,z
loop_
_atom_site_type_symbol
_atom_site_label
_atom_site_fract_x
_atom_site_fract_y
_atom_site_fract_z
Si Si1 0.312738 0.750000 0.391494
Si Si2 0.811246 0.750000 0.893605
Si Si3 0.310426 0.436779 0.105566
Si Si4 0.687288 0.157890 0.246358
O O1 0.500000 0.750000 0.389636
O O2 0.250000 0.750000 0.500000
O O3 0.256839 0.693296 0.336266
O O4 0.736289 0.802625 0.841392
O O5 0.000000 0.750000 0.884971
O O6 0.750000 0.750000 0.000000
O O7 0.500000 0.435667 0.101404
O O8 0.250000 0.500000 0.113661
O O9 0.261346 0.401783 0.201453
O O10 0.250000 0.415435 0.000000
O O11 0.500000 0.155972 0.260817
#
# Coordination Sequence:
#
# PCOD9502218 Si02
#       4
#     8   8  16  16
#     4  11  22  37  58  80 102 131 164 209 262 312
#     4  11  20  29  44  68  98 133 166 203 250 300
#     4  10  20  32  50  74 105 142 177 211 247 292
#     4  10  20  34  51  74 101 131 168 210 253 303
#
# _framework density 17.025504000000002
#
# number of rings (size 3 to 8) (size 9 to 14) (size 15 to 20)
#    0.000    1.667    0.000    9.000    0.000    8.000 
#    0.000    0.000    0.000    1.000    0.000    7.000 
#    0.000    0.000    0.000    0.000    0.000    0.000 
#
# Total GULP energy -133625.425788 kJ/mol
# GULP energy per Si atom -5567.726074 kJ/mol
# Density = 1.698675 g / cm^3
# Si number density = 17.025504 Si / 1000 Ang^3
#
#
#
# Elastic Constant Matrix: (Units=GPa)
#
#
# Indices 1 2 3 4 5 6 
#
# 1 57.0539 24.4637 31.4199 0.0000 0.0000 0.0000
# 2 24.4637 87.2792 54.3906 0.0000 0.0000 0.0000
# 3 31.4199 54.3906 144.0980 0.0000 0.0000 0.0000
# 4 0.0000 0.0000 0.0000 16.7205 0.0000 0.0000
# 5 0.0000 0.0000 0.0000 0.0000 28.9356 0.0000
# 6 0.0000 0.0000 0.0000 0.0000 0.0000 14.2262
#
#
#
# Elastic Compliance Matrix: (Units=1/GPa)
#
#
# Indices 1 2 3 4 5 6 
#
# 1 0.020910 -0.003948 -0.003069 0.000000 0.000000 0.000000
# 2 -0.003948 0.015727 -0.005075 0.000000 0.000000 0.000000
# 3 -0.003069 -0.005075 0.009525 0.000000 0.000000 0.000000
# 4 0.000000 0.000000 0.000000 0.059807 0.000000 0.000000
# 5 0.000000 0.000000 0.000000 0.000000 0.034560 0.000000
# 6 0.000000 0.000000 0.000000 0.000000 0.000000 0.070293
#
#
# Mechanical properties :
#
#
# Convention : Reuss Voigt Hill
#
# Bulk Modulus (GPa) = 45.50327 56.55329 51.02828
# Shear Modulus (GPa) = 20.63280 23.85358 22.24319
#
# Velocity S-wave (km/s) = 3.48498 3.74712 3.61842
# Velocity P-wave (km/s) = 6.55576 7.21181 6.89159
#
# Compressibility (1/GPa) = 0.02197644
#
# Stress axis : x y z
#
# Youngs Moduli (GPa) = 47.82289 63.58471 104.99108
#
# Poissons Ratio (x) = 0.25106 0.32222
# Poissons Ratio (y) = 0.18883 0.53286
# Poissons Ratio (z) = 0.14677 0.32271
#
# Static dielectric constant tensor:
#      x y z
#    x 1.573890 0.000000 0.000000 
#    y 0.000000 1.590960 0.000000 
#    z 0.000000 0.000000 1.574980 
# 
# From -- ./inp_files/21381.got.cif
#   From: 2010.05.17/outbox.cif.g08.bks.cpg/sg67_11_cif.got.tgz:21381.got - 2010.06.03 18:28:57.
