data_PCOD9502824
_publ_section_title
;
Structure prediction by ZEFSAII (Michael W. Deem and Ramdas Pophale) SiO2 
 PCOD9502824
Probable space group: C M M A
;
_chemical_formula_sum "Si O2"
_cell_formula_units_Z 116
_cell_length_a 18.411781
_cell_length_b 14.664705
_cell_length_c 22.347041
_cell_angle_alpha 90.000000
_cell_angle_beta 90.000000
_cell_angle_gamma 90.000000
_cell_volume 6033.775640
_symmetry_space_group_name_H-M "C M M A"
_symmetry_group_IT_number 67
_symmetry_cell_setting 'orthorhombic'
loop_
_space_group_symop_operation_xyz
x,y,z
-x,1/2-y,z
x,-y,-z
-x,1/2+y,-z
-x,-y,-z
x,1/2+y,-z
-x,y,z
x,1/2-y,z
1/2+x,1/2+y,z
1/2-x,-y,z
1/2+x,1/2-y,-z
1/2-x,y,-z
1/2-x,1/2-y,-z
1/2+x,y,-z
1/2-x,1/2+y,z
1/2+x,-y,z
loop_
_atom_site_type_symbol
_atom_site_label
_atom_site_fract_x
_atom_site_fract_y
_atom_site_fract_z
Si Si1 0.737185 0.391833 0.232357
Si Si2 0.867392 0.889870 0.001661
Si Si3 0.251521 0.889973 0.098273
Si Si4 0.000000 0.750000 0.001966
Si Si5 0.919587 0.645123 0.285578
Si Si6 0.189851 0.147506 0.355075
Si Si7 0.311062 0.856285 0.549895
Si Si8 0.083058 0.510801 0.399349
O O1 0.750000 0.500000 0.233265
O O2 0.754037 0.356388 0.166047
O O3 0.652563 0.372335 0.247023
O O4 0.789649 0.356876 0.285193
O O5 0.819193 0.866043 0.943409
O O6 0.937682 0.829780 0.001824
O O7 0.819772 0.866320 0.060367
O O8 0.878941 0.000000 0.000000
O O9 0.250000 0.000000 0.101589
O O10 0.915120 0.750000 0.306848
O O11 0.918944 0.576911 0.341286
O O12 0.000000 0.634798 0.255880
O O13 0.166346 0.250000 0.370933
O O14 0.266407 0.130989 0.388558
O O15 0.132152 0.074921 0.379457
O O16 0.333531 0.750000 0.544570
O O17 0.250000 0.874230 0.500000
O O18 0.376398 0.927365 0.551124
O O19 0.000000 0.486760 0.414671
#
# Coordination Sequence:
#
# PCOD9502824 Si02
#       8
#    16  16  16   4  16  16  16  16
#     4  11  18  35  62  89 116 160 206 250 301 368
#     4   9  19  41  59  85 118 156 197 252 305 360
#     4   8  18  36  64  84 112 156 209 251 297 358
#     4  12  22  34  64  86 124 158 194 244 314 384
#     4  10  20  35  54  85 121 150 184 242 307 358
#     4  11  22  38  58  85 119 161 210 250 297 355
#     4  10  21  39  64  93 122 154 196 250 304 360
#     4  11  22  38  62  86 122 160 200 249 297 361
#
# _framework density 19.225109
#
# number of rings (size 3 to 8) (size 9 to 14) (size 15 to 20)
#    0.000    1.931    2.759    2.276    0.000    3.310 
#    6.207    1.379    6.069    2.483    0.000    0.000 
#    0.000    0.000    0.000    0.000    0.000    0.000 
#
# Total GULP energy -323224.517513 kJ/mol
# GULP energy per Si atom -5572.836509 kJ/mol
# Density = 1.918135 g / cm^3
# Si number density = 19.225109 Si / 1000 Ang^3
#
#
#
# Elastic Constant Matrix: (Units=GPa)
#
#
# Indices 1 2 3 4 5 6 
#
# 1 158.1036 73.6475 28.9011 0.0000 0.0000 0.0000
# 2 73.6475 121.5874 10.8807 0.0000 0.0000 0.0000
# 3 28.9011 10.8807 74.6578 0.0000 0.0000 0.0000
# 4 0.0000 0.0000 0.0000 0.1702 0.0000 0.0000
# 5 0.0000 0.0000 0.0000 0.0000 8.2780 0.0000
# 6 0.0000 0.0000 0.0000 0.0000 0.0000 42.3988
#
#
#
# Elastic Compliance Matrix: (Units=1/GPa)
#
#
# Indices 1 2 3 4 5 6 
#
# 1 0.009369 -0.005421 -0.002837 0.000000 0.000000 0.000000
# 2 -0.005421 0.011470 0.000427 0.000000 0.000000 0.000000
# 3 -0.002837 0.000427 0.014430 0.000000 0.000000 0.000000
# 4 0.000000 0.000000 0.000000 5.874045 0.000000 0.000000
# 5 0.000000 0.000000 0.000000 0.000000 0.120802 0.000000
# 6 0.000000 0.000000 0.000000 0.000000 0.000000 0.023586
#
#
# Mechanical properties :
#
#
# Convention : Reuss Voigt Hill
#
# Bulk Modulus (GPa) = 51.00103 64.57861 57.78982
# Shear Modulus (GPa) = 0.82292 26.23070 13.52681
#
# Velocity S-wave (km/s) = 0.65496 3.69778 2.65543
# Velocity P-wave (km/s) = 5.21132 7.20383 6.28701
#
# Compressibility (1/GPa) = 0.01960745
#
# Stress axis : x y z
#
# Youngs Moduli (GPa) = 106.73884 87.18500 69.29833
#
# Poissons Ratio (x) = 0.47262 0.19658
# Poissons Ratio (y) = 0.57862 -0.02958
# Poissons Ratio (z) = 0.30279 -0.03722
#
# Static dielectric constant tensor:
#      x y z
#    x 1.654860 0.000000 0.000000 
#    y 0.000000 1.694730 0.000000 
#    z 0.000000 0.000000 1.700710 
# 
# From -- ./inp_files/42212.got.cif
#   From: 2010.05.17/outbox.cif.g08.bks.cpg/sg67_22_cif.got.tgz:42212.got - 2010.06.03 18:28:57.
