data_PCOD9502348
_publ_section_title
;
Structure prediction by ZEFSAII (Michael W. Deem and Ramdas Pophale) SiO2 
 PCOD9502348
Probable space group: C M M A
;
_chemical_formula_sum "Si O2"
_cell_formula_units_Z 96
_cell_length_a 13.581308
_cell_length_b 14.549777
_cell_length_c 22.248511
_cell_angle_alpha 90.000000
_cell_angle_beta 90.000000
_cell_angle_gamma 90.000000
_cell_volume 4396.417078
_symmetry_space_group_name_H-M "C M M A"
_symmetry_group_IT_number 67
_symmetry_cell_setting 'orthorhombic'
loop_
_space_group_symop_operation_xyz
x,y,z
-x,1/2-y,z
x,-y,-z
-x,1/2+y,-z
-x,-y,-z
x,1/2+y,-z
-x,y,z
x,1/2-y,z
1/2+x,1/2+y,z
1/2-x,-y,z
1/2+x,1/2-y,-z
1/2-x,y,-z
1/2-x,1/2-y,-z
1/2+x,y,-z
1/2-x,1/2+y,z
1/2+x,-y,z
loop_
_atom_site_type_symbol
_atom_site_label
_atom_site_fract_x
_atom_site_fract_y
_atom_site_fract_z
Si Si1 0.120004 0.539992 0.908817
Si Si2 0.233917 0.355605 0.432145
Si Si3 0.382521 0.651387 0.669837
Si Si4 0.880172 0.353992 0.969778
Si Si5 0.379978 0.352418 0.793680
Si Si6 0.881990 0.447716 0.326611
O O1 0.151118 0.436593 0.925625
O O2 0.152830 0.577045 0.844629
O O3 0.000000 0.538485 0.908132
O O4 0.145207 0.609354 0.963419
O O5 0.195031 0.250000 0.433781
O O6 0.250000 0.386970 0.500000
O O7 0.337216 0.351425 0.396840
O O8 0.166244 0.417939 0.389399
O O9 0.500000 0.653004 0.668840
O O10 0.349986 0.750000 0.697005
O O11 0.355550 0.551057 0.694580
O O12 0.846056 0.250000 0.958118
O O13 0.000000 0.351564 0.967330
O O14 0.500000 0.353470 0.794191
O O15 0.347645 0.250000 0.809357
O O16 0.351508 0.378886 0.726224
O O17 0.000000 0.443748 0.333128
#
# Coordination Sequence:
#
# PCOD9502348 Si02
#       6
#    16  16  16  16  16  16
#     4   8  13  20  31  49  75 112 158 203 249 296
#     4  10  21  36  55  79 105 133 166 208 260 315
#     4   9  19  36  54  72  98 133 170 206 249 306
#     4   8  12  18  29  47  74 110 155 206 250 287
#     4   9  16  26  40  59  86 121 161 205 254 306
#     4  10  20  33  51  75 103 135 172 216 263 311
#
# _framework density 21.835963
#
# number of rings (size 3 to 8) (size 9 to 14) (size 15 to 20)
#    0.000    3.000    0.000    2.500    0.000    5.000 
#    0.000    4.167    0.000    5.000    0.000    0.000 
#    0.000    0.000    0.000   12.000    0.000  110.000 
#
# Total GULP energy -267856.711702 kJ/mol
# GULP energy per Si atom -5580.348160 kJ/mol
# Density = 2.178626 g / cm^3
# Si number density = 21.835963 Si / 1000 Ang^3
#
#
#
# Elastic Constant Matrix: (Units=GPa)
#
#
# Indices 1 2 3 4 5 6 
#
# 1 58.1308 28.5161 16.5282 0.0000 0.0000 0.0000
# 2 28.5161 189.0030 56.7820 0.0000 0.0000 0.0000
# 3 16.5282 56.7820 95.8741 0.0000 0.0000 0.0000
# 4 0.0000 0.0000 0.0000 26.7900 0.0000 0.0000
# 5 0.0000 0.0000 0.0000 0.0000 17.0920 0.0000
# 6 0.0000 0.0000 0.0000 0.0000 0.0000 22.6399
#
#
#
# Elastic Compliance Matrix: (Units=1/GPa)
#
#
# Indices 1 2 3 4 5 6 
#
# 1 0.018859 -0.002273 -0.001905 0.000000 0.000000 0.000000
# 2 -0.002273 0.006710 -0.003582 0.000000 0.000000 0.000000
# 3 -0.001905 -0.003582 0.012880 0.000000 0.000000 0.000000
# 4 0.000000 0.000000 0.000000 0.037327 0.000000 0.000000
# 5 0.000000 0.000000 0.000000 0.000000 0.058507 0.000000
# 6 0.000000 0.000000 0.000000 0.000000 0.000000 0.044170
#
#
# Mechanical properties :
#
#
# Convention : Reuss Voigt Hill
#
# Bulk Modulus (GPa) = 43.61269 60.74005 52.17637
# Shear Modulus (GPa) = 24.79945 29.38316 27.09131
#
# Velocity S-wave (km/s) = 3.37369 3.67226 3.52614
# Velocity P-wave (km/s) = 5.93228 6.77183 6.36591
#
# Compressibility (1/GPa) = 0.02292911
#
# Stress axis : x y z
#
# Youngs Moduli (GPa) = 53.02427 149.02949 77.63766
#
# Poissons Ratio (x) = 0.33876 0.14790
# Poissons Ratio (y) = 0.12053 0.27811
# Poissons Ratio (z) = 0.10101 0.53386
#
# Static dielectric constant tensor:
#      x y z
#    x 1.847390 0.000000 0.000000 
#    y 0.000000 1.847680 0.000000 
#    z 0.000000 0.000000 1.727740 
# 
# From -- ./inp_files/38403.got.cif
#   From: 2010.05.17/outbox.cif.g08.bks.cpg/sg67_20_cif.got.tgz:38403.got - 2010.06.03 18:28:57.
