data_PCOD9502774
_publ_section_title
;
Structure prediction by ZEFSAII (Michael W. Deem and Ramdas Pophale) SiO2 
 PCOD9502774
Probable space group: C M M A
;
_chemical_formula_sum "Si O2"
_cell_formula_units_Z 104
_cell_length_a 31.492535
_cell_length_b 8.681697
_cell_length_c 23.511567
_cell_angle_alpha 90.000000
_cell_angle_beta 90.000000
_cell_angle_gamma 90.000000
_cell_volume 6428.265714
_symmetry_space_group_name_H-M "C M M A"
_symmetry_group_IT_number 67
_symmetry_cell_setting 'orthorhombic'
loop_
_space_group_symop_operation_xyz
x,y,z
-x,1/2-y,z
x,-y,-z
-x,1/2+y,-z
-x,-y,-z
x,1/2+y,-z
-x,y,z
x,1/2-y,z
1/2+x,1/2+y,z
1/2-x,-y,z
1/2+x,1/2-y,-z
1/2-x,y,-z
1/2-x,1/2-y,-z
1/2+x,y,-z
1/2-x,1/2+y,z
1/2+x,-y,z
loop_
_atom_site_type_symbol
_atom_site_label
_atom_site_fract_x
_atom_site_fract_y
_atom_site_fract_z
Si Si1 0.881710 0.069833 0.769060
Si Si2 0.051493 0.425937 0.441064
Si Si3 0.000000 0.066492 0.063177
Si Si4 0.295180 0.935993 0.819449
Si Si5 0.174261 0.933062 0.939558
Si Si6 0.951153 0.564309 0.319596
Si Si7 0.912113 0.570616 0.101226
O O1 0.876462 0.250000 0.753465
O O2 0.834148 0.007628 0.779513
O O3 0.915666 0.003981 0.724429
O O4 0.901602 0.064594 0.831986
O O5 0.066867 0.500000 0.500000
O O6 0.065886 0.250000 0.436271
O O7 0.061269 0.517862 0.383623
O O8 0.000000 0.424676 0.444209
O O9 0.000000 0.250000 0.062800
O O10 0.042327 0.002272 0.091761
O O11 0.000000 0.000000 0.000000
O O12 0.295679 0.750000 0.820399
O O13 0.250000 0.000000 0.800553
O O14 0.303654 0.993759 0.883983
O O15 0.179350 0.750000 0.938724
O O16 0.124787 0.979765 0.931607
O O17 0.189262 0.000000 0.000000
O O18 0.952489 0.750000 0.315232
O O19 0.000000 0.509886 0.308719
O O20 0.911280 0.750000 0.083279
#
# Coordination Sequence:
#
# PCOD9502774 Si02
#       7
#    16  16   8  16  16  16  16
#     4   8  17  32  51  72  95 123 157 195 234 284
#     4   9  16  26  40  61  92 129 167 203 237 269
#     4  12  24  36  48  66  88 118 159 202 243 288
#     4  10  20  36  54  74  97 123 157 195 242 291
#     4  11  21  35  53  73  96 120 148 187 238 295
#     4   9  16  27  46  70  96 129 166 197 230 275
#     4  10  20  35  52  69  91 122 157 197 240 286
#
# _framework density 16.178546000000001
#
# number of rings (size 3 to 8) (size 9 to 14) (size 15 to 20)
#    0.000    2.308    0.000    4.846    1.077    2.154 
#    0.000    6.154    0.000    0.000    0.000    0.000 
#    0.000    0.615    0.000    7.077    0.000    2.462 
#
# Total GULP energy -289901.588722 kJ/mol
# GULP energy per Si atom -5575.030552 kJ/mol
# Density = 1.614172 g / cm^3
# Si number density = 16.178546 Si / 1000 Ang^3
#
#
#
# Elastic Constant Matrix: (Units=GPa)
#
#
# Indices 1 2 3 4 5 6 
#
# 1 108.8264 22.0462 41.9265 0.0000 0.0000 0.0000
# 2 22.0462 63.9734 15.5334 0.0000 0.0000 0.0000
# 3 41.9265 15.5334 76.2180 0.0000 0.0000 0.0000
# 4 0.0000 0.0000 0.0000 19.3561 0.0000 0.0000
# 5 0.0000 0.0000 0.0000 0.0000 7.9744 0.0000
# 6 0.0000 0.0000 0.0000 0.0000 0.0000 21.0884
#
#
#
# Elastic Compliance Matrix: (Units=1/GPa)
#
#
# Indices 1 2 3 4 5 6 
#
# 1 0.012082 -0.002683 -0.006100 0.000000 0.000000 0.000000
# 2 -0.002683 0.017041 -0.001997 0.000000 0.000000 0.000000
# 3 -0.006100 -0.001997 0.016883 0.000000 0.000000 0.000000
# 4 0.000000 0.000000 0.000000 0.051663 0.000000 0.000000
# 5 0.000000 0.000000 0.000000 0.000000 0.125401 0.000000
# 6 0.000000 0.000000 0.000000 0.000000 0.000000 0.047419
#
#
# Mechanical properties :
#
#
# Convention : Reuss Voigt Hill
#
# Bulk Modulus (GPa) = 40.90519 45.33667 43.12093
# Shear Modulus (GPa) = 16.65569 20.98457 18.82013
#
# Velocity S-wave (km/s) = 3.21205 3.60538 3.41438
# Velocity P-wave (km/s) = 6.25259 6.73908 6.50039
#
# Compressibility (1/GPa) = 0.02444677
#
# Stress axis : x y z
#
# Youngs Moduli (GPa) = 82.76540 58.68220 59.23253
#
# Poissons Ratio (x) = 0.15743 0.36129
# Poissons Ratio (y) = 0.22204 0.11830
# Poissons Ratio (z) = 0.50484 0.11720
#
# Static dielectric constant tensor:
#      x y z
#    x 1.556820 0.000000 0.000000 
#    y 0.000000 1.550400 0.000000 
#    z 0.000000 0.000000 1.528810 
# 
# From -- ./inp_files/42943.got.cif
#   From: 2010.05.17/outbox.cif.g08.bks.cpg/sg67_22_cif.got.tgz:42943.got - 2010.06.03 18:28:57.
