data_PCOD9502665
_publ_section_title
;
Structure prediction by ZEFSAII (Michael W. Deem and Ramdas Pophale) SiO2 
 PCOD9502665
Probable space group: C M M A
;
_chemical_formula_sum "Si O2"
_cell_formula_units_Z 96
_cell_length_a 18.814015
_cell_length_b 8.879420
_cell_length_c 31.858071
_cell_angle_alpha 90.000000
_cell_angle_beta 90.000000
_cell_angle_gamma 90.000000
_cell_volume 5322.131005
_symmetry_space_group_name_H-M "C M M A"
_symmetry_group_IT_number 67
_symmetry_cell_setting 'orthorhombic'
loop_
_space_group_symop_operation_xyz
x,y,z
-x,1/2-y,z
x,-y,-z
-x,1/2+y,-z
-x,-y,-z
x,1/2+y,-z
-x,y,z
x,1/2-y,z
1/2+x,1/2+y,z
1/2-x,-y,z
1/2+x,1/2-y,-z
1/2-x,y,-z
1/2-x,1/2-y,-z
1/2+x,y,-z
1/2-x,1/2+y,z
1/2+x,-y,z
loop_
_atom_site_type_symbol
_atom_site_label
_atom_site_fract_x
_atom_site_fract_y
_atom_site_fract_z
Si Si1 0.086381 0.423725 0.204014
Si Si2 0.082497 0.931138 0.455720
Si Si3 0.414504 0.925129 0.882172
Si Si4 0.828204 0.068966 0.626114
Si Si5 0.083604 0.931946 0.702242
Si Si6 0.171839 0.070715 0.043711
O O1 0.108601 0.250000 0.197889
O O2 0.108392 0.522139 0.164322
O O3 0.107964 0.475186 0.250592
O O4 0.000000 0.423746 0.204950
O O5 0.084492 0.750000 0.458775
O O6 0.129948 0.976836 0.416229
O O7 0.000000 0.976183 0.448911
O O8 0.106198 0.000000 0.500000
O O9 0.500000 0.941964 0.884558
O O10 0.397032 0.750000 0.888680
O O11 0.377422 0.023779 0.917680
O O12 0.824861 0.250000 0.627322
O O13 0.750000 0.000000 0.625933
O O14 0.871223 0.009006 0.666182
O O15 0.089117 0.750000 0.699602
O O16 0.000000 0.970327 0.697602
O O17 0.177168 0.250000 0.039805
O O18 0.250000 0.000000 0.050315
O O19 0.144455 0.000000 0.000000
#
# Coordination Sequence:
#
# PCOD9502665 Si02
#       6
#    16  16  16  16  16  16
#     4   8  15  30  52  78 107 138 173 215 263 313
#     4   9  19  36  57  80 104 133 172 217 263 313
#     4  10  20  34  54  82 113 142 176 218 264 315
#     4  11  23  37  53  76 109 144 179 220 265 314
#     4   9  18  34  57  82 107 138 177 218 262 315
#     4  11  22  38  58  78 105 140 179 221 266 318
#
# _framework density 18.037887999999999
#
# number of rings (size 3 to 8) (size 9 to 14) (size 15 to 20)
#    0.000    2.333    0.000    4.500    0.000    4.667 
#    0.000    5.833    0.000    4.000    0.000    0.000 
#    0.000    0.000    0.000    0.000    0.000    0.000 
#
# Total GULP energy -267872.265230 kJ/mol
# GULP energy per Si atom -5580.672192 kJ/mol
# Density = 1.799683 g / cm^3
# Si number density = 18.037888 Si / 1000 Ang^3
#
#
#
# Elastic Constant Matrix: (Units=GPa)
#
#
# Indices 1 2 3 4 5 6 
#
# 1 53.6042 39.1349 65.1335 0.0000 0.0000 0.0000
# 2 39.1349 86.9654 69.8559 0.0000 0.0000 0.0000
# 3 65.1335 69.8559 171.3596 0.0000 0.0000 0.0000
# 4 0.0000 0.0000 0.0000 34.9972 0.0000 0.0000
# 5 0.0000 0.0000 0.0000 0.0000 -24.7739 0.0000
# 6 0.0000 0.0000 0.0000 0.0000 0.0000 22.4598
#
#
#
# Elastic Compliance Matrix: (Units=1/GPa)
#
#
# Indices 1 2 3 4 5 6 
#
# 1 0.038255 -0.008230 -0.011186 0.000000 0.000000 0.000000
# 2 -0.008230 0.018868 -0.004563 0.000000 0.000000 0.000000
# 3 -0.011186 -0.004563 0.011948 0.000000 0.000000 0.000000
# 4 0.000000 0.000000 0.000000 0.028574 0.000000 0.000000
# 5 0.000000 0.000000 0.000000 0.000000 -0.040365 0.000000
# 6 0.000000 0.000000 0.000000 0.000000 0.000000 0.044524
#
#
# Mechanical properties :
#
#
# Convention : Reuss Voigt Hill
#
# Bulk Modulus (GPa) = 47.36513 73.35310 60.35911
# Shear Modulus (GPa) = 31.88777 15.72362 23.80569
#
# Velocity S-wave (km/s) = 4.20911 2.95566 3.63679
# Velocity P-wave (km/s) = 7.06667 7.23894 7.15333
#
# Compressibility (1/GPa) = 0.02111258
#
# Stress axis : x y z
#
# Youngs Moduli (GPa) = 26.14006 52.99966 83.69810
#
# Poissons Ratio (x) = 0.43619 0.93623
# Poissons Ratio (y) = 0.21513 0.38195
# Poissons Ratio (z) = 0.29240 0.24186
#
# Static dielectric constant tensor:
#      x y z
#    x 1.598330 0.000000 0.000000 
#    y 0.000000 1.605180 0.000000 
#    z 0.000000 0.000000 1.612810 
# 
# From -- ./inp_files/44576.got.cif
#   From: 2010.05.17/outbox.cif.g08.bks.cpg/sg67_23_cif.got.tgz:44576.got - 2010.06.03 18:28:57.
