data_PCOD9502166
_publ_section_title
;
Structure prediction by ZEFSAII (Michael W. Deem and Ramdas Pophale) SiO2 
 PCOD9502166
Probable space group: C M M A
;
_chemical_formula_sum "Si O2"
_cell_formula_units_Z 80
_cell_length_a 9.211450
_cell_length_b 14.956878
_cell_length_c 27.513460
_cell_angle_alpha 90.000000
_cell_angle_beta 90.000000
_cell_angle_gamma 90.000000
_cell_volume 3790.654126
_symmetry_space_group_name_H-M "C M M A"
_symmetry_group_IT_number 67
_symmetry_cell_setting 'orthorhombic'
loop_
_space_group_symop_operation_xyz
x,y,z
-x,1/2-y,z
x,-y,-z
-x,1/2+y,-z
-x,-y,-z
x,1/2+y,-z
-x,y,z
x,1/2-y,z
1/2+x,1/2+y,z
1/2-x,-y,z
1/2+x,1/2-y,-z
1/2-x,y,-z
1/2-x,1/2-y,-z
1/2+x,y,-z
1/2-x,1/2+y,z
1/2+x,-y,z
loop_
_atom_site_type_symbol
_atom_site_label
_atom_site_fract_x
_atom_site_fract_y
_atom_site_fract_z
Si Si1 0.336915 0.144330 0.249220
Si Si2 0.327472 0.904795 0.153280
Si Si3 0.334175 0.640423 0.451609
Si Si4 0.670111 0.858743 0.644493
Si Si5 0.825108 0.098534 0.047061
O O1 0.500000 0.107173 0.240041
O O2 0.352928 0.250000 0.256005
O O3 0.236413 0.134309 0.202618
O O4 0.281258 0.110587 0.301618
O O5 0.500000 0.913281 0.157042
O O6 0.298438 0.860030 0.100530
O O7 0.250000 0.000000 0.150563
O O8 0.500000 0.611337 0.453606
O O9 0.332607 0.750000 0.451366
O O10 0.250000 0.612497 0.500000
O O11 0.259631 0.609531 0.401780
O O12 0.500000 0.881081 0.639766
O O13 0.679913 0.750000 0.643160
O O14 0.000000 0.091342 0.040471
O O15 0.750000 0.000000 0.049285
O O16 0.750000 0.142062 0.000000
#
# Coordination Sequence:
#
# PCOD9502166 Si02
#       5
#    16  16  16  16  16
#     4   9  18  32  49  68  92 124 158 191 231 278
#     4  10  20  32  48  71  97 123 153 191 231 272
#     4   9  15  21  31  49  74 105 140 178 220 264
#     4   8  14  25  39  55  78 109 144 180 219 266
#     4   9  16  26  42  65  90 116 146 182 225 270
#
# _framework density 21.104534999999998
#
# number of rings (size 3 to 8) (size 9 to 14) (size 15 to 20)
#    0.000    3.000    0.000    3.600    0.000    6.000 
#    0.000    2.000    0.000    0.600    0.000    0.000 
#    0.000    0.800    0.000    8.400    0.000   11.600 
#
# Total GULP energy -222864.639215 kJ/mol
# GULP energy per Si atom -5571.615980 kJ/mol
# Density = 2.105650 g / cm^3
# Si number density = 21.104535 Si / 1000 Ang^3
#
#
#
# Elastic Constant Matrix: (Units=GPa)
#
#
# Indices 1 2 3 4 5 6 
#
# 1 122.0092 8.4464 128.0447 0.0000 0.0000 0.0000
# 2 8.4464 34.0334 15.3463 0.0000 0.0000 0.0000
# 3 128.0447 15.3463 273.0261 0.0000 0.0000 0.0000
# 4 0.0000 0.0000 0.0000 -66.2989 0.0000 0.0000
# 5 0.0000 0.0000 0.0000 0.0000 31.8120 0.0000
# 6 0.0000 0.0000 0.0000 0.0000 0.0000 8.5366
#
#
#
# Elastic Compliance Matrix: (Units=1/GPa)
#
#
# Indices 1 2 3 4 5 6 
#
# 1 0.016152 -0.000608 -0.007541 0.000000 0.000000 0.000000
# 2 -0.000608 0.030170 -0.001411 0.000000 0.000000 0.000000
# 3 -0.007541 -0.001411 0.007278 0.000000 0.000000 0.000000
# 4 0.000000 0.000000 0.000000 -0.015083 0.000000 0.000000
# 5 0.000000 0.000000 0.000000 0.000000 0.031435 0.000000
# 6 0.000000 0.000000 0.000000 0.000000 0.000000 0.117143
#
#
# Mechanical properties :
#
#
# Convention : Reuss Voigt Hill
#
# Bulk Modulus (GPa) = 29.00138 81.41594 55.20866
# Shear Modulus (GPa) = 22.96654 13.29202 18.12928
#
# Velocity S-wave (km/s) = 3.30241 2.51234 2.93409
# Velocity P-wave (km/s) = 5.32098 6.86127 6.13962
#
# Compressibility (1/GPa) = 0.03448112
#
# Stress axis : x y z
#
# Youngs Moduli (GPa) = 61.91136 33.14559 137.39127
#
# Poissons Ratio (x) = 0.02016 1.03605
# Poissons Ratio (y) = 0.03766 0.19379
# Poissons Ratio (z) = 0.46687 0.04675
#
# Static dielectric constant tensor:
#      x y z
#    x 1.708770 0.000000 0.000000 
#    y 0.000000 2.039220 0.000000 
#    z 0.000000 0.000000 1.828100 
# 
# From -- ./inp_files/43284.got.cif
#   From: 2010.05.17/outbox.cif.g08.bks.cpg/sg67_22_cif.got.tgz:43284.got - 2010.06.03 18:28:57.
