data_PCOD9502617
_publ_section_title
;
Structure prediction by ZEFSAII (Michael W. Deem and Ramdas Pophale) SiO2 
 PCOD9502617
Probable space group: C M M A
;
_chemical_formula_sum "Si O2"
_cell_formula_units_Z 104
_cell_length_a 30.176474
_cell_length_b 7.761776
_cell_length_c 21.229658
_cell_angle_alpha 90.000000
_cell_angle_beta 90.000000
_cell_angle_gamma 90.000000
_cell_volume 4972.474858
_symmetry_space_group_name_H-M "C M M A"
_symmetry_group_IT_number 67
_symmetry_cell_setting 'orthorhombic'
loop_
_space_group_symop_operation_xyz
x,y,z
-x,1/2-y,z
x,-y,-z
-x,1/2+y,-z
-x,-y,-z
x,1/2+y,-z
-x,y,z
x,1/2-y,z
1/2+x,1/2+y,z
1/2-x,-y,z
1/2+x,1/2-y,-z
1/2-x,y,-z
1/2-x,1/2-y,-z
1/2+x,y,-z
1/2-x,1/2+y,z
1/2+x,-y,z
loop_
_atom_site_type_symbol
_atom_site_label
_atom_site_fract_x
_atom_site_fract_y
_atom_site_fract_z
Si Si1 0.854708 0.546541 0.931512
Si Si2 0.359466 0.538996 0.305029
Si Si3 0.901845 0.457108 0.426901
Si Si4 0.000000 0.043290 0.425727
Si Si5 0.547771 0.547835 0.249644
Si Si6 0.801393 0.042311 0.190063
Si Si7 0.047782 0.544441 0.104124
O O1 0.852212 0.750000 0.926183
O O2 0.829224 0.474567 0.870227
O O3 0.906613 0.499952 0.929390
O O4 0.835931 0.500000 0.000000
O O5 0.357894 0.750000 0.304309
O O6 0.364068 0.484974 0.377925
O O7 0.406391 0.479797 0.275926
O O8 0.321822 0.479798 0.256612
O O9 0.894813 0.500000 0.500000
O O10 0.903733 0.250000 0.423445
O O11 0.951179 0.519755 0.405243
O O12 0.000000 0.250000 0.416482
O O13 0.000000 0.000000 0.500000
O O14 0.500000 0.473190 0.269528
O O15 0.546889 0.750000 0.266756
O O16 0.550091 0.532749 0.174270
O O17 0.805796 0.250000 0.190172
O O18 0.750000 0.000000 0.183943
O O19 0.046620 0.750000 0.110025
O O20 0.000000 0.487351 0.076645
#
# Coordination Sequence:
#
# PCOD9502617 Si02
#       7
#    16  16  16   8  16  16  16
#     4  11  23  40  61  85 113 145 183 224 268 324
#     4   9  17  32  54  80 107 139 181 225 269 321
#     4   9  17  29  47  72 107 145 181 220 260 310
#     4   8  14  24  40  66 100 142 181 212 250 299
#     4   9  16  28  50  77 106 142 184 227 269 318
#     4  10  22  41  62  84 108 135 175 226 282 337
#     4  10  20  34  53  80 116 153 187 224 266 314
#
# _framework density 20.915139
#
# number of rings (size 3 to 8) (size 9 to 14) (size 15 to 20)
#    0.000    2.462    1.538    0.923    1.077    2.769 
#    0.000    3.077    0.000    0.462    0.000    3.231 
#    0.000    0.000    0.000    0.000    0.000    0.000 
#
# Total GULP energy -289922.271658 kJ/mol
# GULP energy per Si atom -5575.428301 kJ/mol
# Density = 2.086754 g / cm^3
# Si number density = 20.915139 Si / 1000 Ang^3
#
#
#
# Elastic Constant Matrix: (Units=GPa)
#
#
# Indices 1 2 3 4 5 6 
#
# 1 117.9532 3.3252 78.0947 0.0000 0.0000 0.0000
# 2 3.3252 34.3602 6.2260 0.0000 0.0000 0.0000
# 3 78.0947 6.2260 141.6552 0.0000 0.0000 0.0000
# 4 0.0000 0.0000 0.0000 12.7545 0.0000 0.0000
# 5 0.0000 0.0000 0.0000 0.0000 3.6197 0.0000
# 6 0.0000 0.0000 0.0000 0.0000 0.0000 16.1885
#
#
#
# Elastic Compliance Matrix: (Units=1/GPa)
#
#
# Indices 1 2 3 4 5 6 
#
# 1 0.013351 0.000042 -0.007362 0.000000 0.000000 0.000000
# 2 0.000042 0.029337 -0.001313 0.000000 0.000000 0.000000
# 3 -0.007362 -0.001313 0.011176 0.000000 0.000000 0.000000
# 4 0.000000 0.000000 0.000000 0.078404 0.000000 0.000000
# 5 0.000000 0.000000 0.000000 0.000000 0.276265 0.000000
# 6 0.000000 0.000000 0.000000 0.000000 0.000000 0.061772
#
#
# Mechanical properties :
#
#
# Convention : Reuss Voigt Hill
#
# Bulk Modulus (GPa) = 27.32354 52.14004 39.73179
# Shear Modulus (GPa) = 10.00459 20.26739 15.13599
#
# Velocity S-wave (km/s) = 2.18948 3.11630 2.69306
# Velocity P-wave (km/s) = 4.41408 6.15889 5.35798
#
# Compressibility (1/GPa) = 0.03659847
#
# Stress axis : x y z
#
# Youngs Moduli (GPa) = 74.89915 34.08641 89.47742
#
# Poissons Ratio (x) = -0.00143 0.65877
# Poissons Ratio (y) = -0.00314 0.11744
# Poissons Ratio (z) = 0.55144 0.04474
#
# Static dielectric constant tensor:
#      x y z
#    x 1.743080 0.000000 0.000000 
#    y 0.000000 1.778180 0.000000 
#    z 0.000000 0.000000 1.785270 
# 
# From -- ./inp_files/40232.got.cif
#   From: 2010.05.17/outbox.cif.g08.bks.cpg/sg67_21_cif.got.tgz:40232.got - 2010.06.03 18:28:57.
