data_PCOD9502930
_publ_section_title
;
Structure prediction by ZEFSAII (Michael W. Deem and Ramdas Pophale) SiO2 
 PCOD9502930
Probable space group: C M M A
;
_chemical_formula_sum "Si O2"
_cell_formula_units_Z 88
_cell_length_a 19.776710
_cell_length_b 15.094580
_cell_length_c 12.352520
_cell_angle_alpha 90.000000
_cell_angle_beta 90.000000
_cell_angle_gamma 90.000000
_cell_volume 3687.488244
_symmetry_space_group_name_H-M "C M M A"
_symmetry_group_IT_number 67
_symmetry_cell_setting 'orthorhombic'
loop_
_space_group_symop_operation_xyz
x,y,z
-x,1/2-y,z
x,-y,-z
-x,1/2+y,-z
-x,-y,-z
x,1/2+y,-z
-x,y,z
x,1/2-y,z
1/2+x,1/2+y,z
1/2-x,-y,z
1/2+x,1/2-y,-z
1/2-x,y,-z
1/2-x,1/2-y,-z
1/2+x,y,-z
1/2-x,1/2+y,z
1/2+x,-y,z
loop_
_atom_site_type_symbol
_atom_site_label
_atom_site_fract_x
_atom_site_fract_y
_atom_site_fract_z
Si Si1 0.668216 0.910174 0.168758
Si Si2 0.000000 0.529194 0.373190
Si Si3 0.630727 0.647810 0.631054
Si Si4 0.678159 0.111485 0.134018
Si Si5 0.875288 0.250000 0.042939
Si Si6 0.653613 0.149666 0.598622
Si Si7 0.000000 0.655129 0.667351
O O1 0.740999 0.884156 0.118355
O O2 0.673648 0.909362 0.299237
O O3 0.654614 0.009355 0.129672
O O4 0.619759 0.829962 0.134684
O O5 0.000000 0.500000 0.500000
O O6 0.934087 0.586747 0.355369
O O7 0.000000 0.445551 0.290862
O O8 0.611151 0.750000 0.612125
O O9 0.669402 0.642928 0.743112
O O10 0.670222 0.619686 0.522579
O O11 0.638989 0.173015 0.050478
O O12 0.679873 0.250000 0.616144
O O13 0.571047 0.154126 0.601994
O O14 0.000000 0.750000 0.726086
#
# Coordination Sequence:
#
# PCOD9502930 Si02
#       7
#    16   8  16  16   8  16   8
#     4  11  23  39  64  91 119 162 214 256 315 381
#     4  12  21  35  64  91 122 171 204 245 299 370
#     4  11  23  39  61  93 133 160 204 254 315 386
#     4  11  24  39  62  93 122 162 205 262 321 371
#     4  12  23  44  64  85 120 163 218 272 311 368
#     4  10  20  36  60  91 123 162 200 248 309 377
#     4  10  20  35  56  87 123 156 206 246 291 358
#
# _framework density 23.864484000000001
#
# number of rings (size 3 to 8) (size 9 to 14) (size 15 to 20)
#    0.000    1.091    3.636    3.545    0.000    2.182 
#    0.000    3.636    0.000    2.182    0.000    3.818 
#    0.000    0.000    0.000    0.000    0.000    0.000 
#
# Total GULP energy -244960.936801 kJ/mol
# GULP energy per Si atom -5567.294018 kJ/mol
# Density = 2.381017 g / cm^3
# Si number density = 23.864484 Si / 1000 Ang^3
#
#
#
# Elastic Constant Matrix: (Units=GPa)
#
#
# Indices 1 2 3 4 5 6 
#
# 1 43.5106 17.3440 3.5806 0.0000 0.0000 0.0000
# 2 17.3440 171.7524 33.7087 0.0000 0.0000 0.0000
# 3 3.5806 33.7087 154.8584 0.0000 0.0000 0.0000
# 4 0.0000 0.0000 0.0000 23.3935 0.0000 0.0000
# 5 0.0000 0.0000 0.0000 0.0000-2012.3911 0.0000
# 6 0.0000 0.0000 0.0000 0.0000 0.0000 -44.8270
#
#
#
# Elastic Compliance Matrix: (Units=1/GPa)
#
#
# Indices 1 2 3 4 5 6 
#
# 1 0.023947 -0.002413 -0.000029 0.000000 0.000000 0.000000
# 2 -0.002413 0.006325 -0.001321 0.000000 0.000000 0.000000
# 3 -0.000029 -0.001321 0.006746 0.000000 0.000000 0.000000
# 4 0.000000 0.000000 0.000000 0.042747 0.000000 0.000000
# 5 0.000000 0.000000 0.000000 0.000000 -0.000497 0.000000
# 6 0.000000 0.000000 0.000000 0.000000 0.000000 -0.022308
#
#
# Mechanical properties :
#
#
# Convention : Reuss Voigt Hill
#
# Bulk Modulus (GPa) = 33.90578 53.26533 43.58556
# Shear Modulus (GPa) = 67.28064 -385.73239 -159.22588
#
# Velocity S-wave (km/s) = 5.31545 -12.72735 -8.17714
# Velocity P-wave (km/s) = 7.20489 13.91446 8.41729
#
# Compressibility (1/GPa) = 0.02949350
#
# Stress axis : x y z
#
# Youngs Moduli (GPa) = 41.75899 158.09663 148.24186
#
# Poissons Ratio (x) = 0.38143 0.00423
# Poissons Ratio (y) = 0.10075 0.19584
# Poissons Ratio (z) = 0.00119 0.20886
#
# Static dielectric constant tensor:
#      x y z
#    x 1.952230 0.000000 0.000000 
#    y 0.000000 1.920870 0.000000 
#    z 0.000000 0.000000 1.944090 
# 
# From -- ./inp_files/21793.got.cif
#   From: 2010.05.17/outbox.cif.g08.bks.cpg/sg67_11_cif.got.tgz:21793.got - 2010.06.03 18:28:57.
