data_PCOD9502915
_publ_section_title
;
Structure prediction by ZEFSAII (Michael W. Deem and Ramdas Pophale) SiO2 
 PCOD9502915
Probable space group: C M M A
;
_chemical_formula_sum "Si O2"
_cell_formula_units_Z 112
_cell_length_a 32.067688
_cell_length_b 13.940047
_cell_length_c 11.606914
_cell_angle_alpha 90.000000
_cell_angle_beta 90.000000
_cell_angle_gamma 90.000000
_cell_volume 5188.581635
_symmetry_space_group_name_H-M "C M M A"
_symmetry_group_IT_number 67
_symmetry_cell_setting 'orthorhombic'
loop_
_space_group_symop_operation_xyz
x,y,z
-x,1/2-y,z
x,-y,-z
-x,1/2+y,-z
-x,-y,-z
x,1/2+y,-z
-x,y,z
x,1/2-y,z
1/2+x,1/2+y,z
1/2-x,-y,z
1/2+x,1/2-y,-z
1/2-x,y,-z
1/2-x,1/2-y,-z
1/2+x,y,-z
1/2-x,1/2+y,z
1/2+x,-y,z
loop_
_atom_site_type_symbol
_atom_site_label
_atom_site_fract_x
_atom_site_fract_y
_atom_site_fract_z
Si Si1 0.877399 0.143641 0.595907
Si Si2 0.321350 0.362817 0.032868
Si Si3 0.081306 0.359878 0.989132
Si Si4 0.294479 0.533522 0.185240
Si Si5 0.546453 0.616010 0.732648
Si Si6 0.546292 0.900632 0.219858
Si Si7 0.131764 0.080147 0.335942
O O1 0.859465 0.250000 0.631188
O O2 0.926022 0.152126 0.628150
O O3 0.868345 0.125228 0.462448
O O4 0.868932 0.037993 0.652903
O O5 0.316235 0.250000 0.056004
O O6 0.369702 0.380285 0.997722
O O7 0.313963 0.433556 0.139175
O O8 0.292254 0.400210 0.929128
O O9 0.073898 0.250000 0.024026
O O10 0.069079 0.367280 0.855439
O O11 0.054395 0.415797 0.083381
O O12 0.250000 0.500000 0.232916
O O13 0.324991 0.591488 0.268678
O O14 0.500000 0.653254 0.739417
O O15 0.542977 0.502679 0.719641
O O16 0.500000 0.854982 0.234216
O O17 0.591998 0.872090 0.269724
#
# Coordination Sequence:
#
# PCOD9502915 Si02
#       7
#    16  16  16  16  16  16  16
#     4  10  22  40  63  84 110 159 210 260 320 365
#     4  10  21  37  59  92 133 166 201 245 297 371
#     4  11  21  32  53  85 124 166 199 245 306 364
#     4  11  23  39  64  92 122 164 205 250 315 380
#     4  10  21  35  54  83 118 160 213 265 305 354
#     4  10  20  35  56  82 118 163 202 245 304 365
#     4  10  22  42  62  86 123 155 205 266 305 376
#
# _framework density 21.58586
#
# number of rings (size 3 to 8) (size 9 to 14) (size 15 to 20)
#    0.000    1.714    1.429    3.857    2.000    7.714 
#    0.000    4.286    0.000    0.857    0.000    0.000 
#    0.000    0.000    0.000    0.000    0.000    0.000 
#
# Total GULP energy -311778.956517 kJ/mol
# GULP energy per Si atom -5567.481366 kJ/mol
# Density = 2.153673 g / cm^3
# Si number density = 21.585860 Si / 1000 Ang^3
#
#
#
# Elastic Constant Matrix: (Units=GPa)
#
#
# Indices 1 2 3 4 5 6 
#
# 1 105.5848 -4.4094 45.8151 0.0000 0.0000 0.0000
# 2 -4.4094 103.2525 -1.1175 0.0000 0.0000 0.0000
# 3 45.8151 -1.1175 84.4994 0.0000 0.0000 0.0000
# 4 0.0000 0.0000 0.0000 -37.1913 0.0000 0.0000
# 5 0.0000 0.0000 0.0000 0.0000 3.1438 0.0000
# 6 0.0000 0.0000 0.0000 0.0000 0.0000 -13.2685
#
#
#
# Elastic Compliance Matrix: (Units=1/GPa)
#
#
# Indices 1 2 3 4 5 6 
#
# 1 0.012406 0.000457 -0.006721 0.000000 0.000000 0.000000
# 2 0.000457 0.009703 -0.000120 0.000000 0.000000 0.000000
# 3 -0.006721 -0.000120 0.015477 0.000000 0.000000 0.000000
# 4 0.000000 0.000000 0.000000 -0.026888 0.000000 0.000000
# 5 0.000000 0.000000 0.000000 0.000000 0.318091 0.000000
# 6 0.000000 0.000000 0.000000 0.000000 0.000000 -0.075367
#
#
# Mechanical properties :
#
#
# Convention : Reuss Voigt Hill
#
# Bulk Modulus (GPa) = 40.28978 41.54592 40.91785
# Shear Modulus (GPa) = 18.21746 7.40670 12.81208
#
# Velocity S-wave (km/s) = 2.90824 1.85438 2.43891
# Velocity P-wave (km/s) = 5.47563 4.88606 5.18923
#
# Compressibility (1/GPa) = 0.02482019
#
# Stress axis : x y z
#
# Youngs Moduli (GPa) = 80.60396 103.05858 64.61327
#
# Poissons Ratio (x) = -0.04711 0.43424
# Poissons Ratio (y) = -0.03684 0.00772
# Poissons Ratio (z) = 0.54171 0.01232
#
# Static dielectric constant tensor:
#      x y z
#    x 1.834700 0.000000 0.000000 
#    y 0.000000 1.930370 0.000000 
#    z 0.000000 0.000000 1.735980 
# 
# From -- ./inp_files/23797.got.cif
#   From: 2010.05.17/outbox.cif.g08.bks.cpg/sg67_12_cif.got.tgz:23797.got - 2010.06.03 18:28:57.
