data_PCOD9502022
_publ_section_title
;
Structure prediction by ZEFSAII (Michael W. Deem and Ramdas Pophale) SiO2 
 PCOD9502022
Probable space group: C M M A
;
_chemical_formula_sum "Si O2"
_cell_formula_units_Z 100
_cell_length_a 21.138336
_cell_length_b 7.721449
_cell_length_c 30.312590
_cell_angle_alpha 90.000000
_cell_angle_beta 90.000000
_cell_angle_gamma 90.000000
_cell_volume 4947.577998
_symmetry_space_group_name_H-M "C M M A"
_symmetry_group_IT_number 67
_symmetry_cell_setting 'orthorhombic'
loop_
_space_group_symop_operation_xyz
x,y,z
-x,1/2-y,z
x,-y,-z
-x,1/2+y,-z
-x,-y,-z
x,1/2+y,-z
-x,y,z
x,1/2-y,z
1/2+x,1/2+y,z
1/2-x,-y,z
1/2+x,1/2-y,-z
1/2-x,y,-z
1/2-x,1/2-y,-z
1/2+x,y,-z
1/2-x,1/2+y,z
1/2+x,-y,z
loop_
_atom_site_type_symbol
_atom_site_label
_atom_site_fract_x
_atom_site_fract_y
_atom_site_fract_z
Si Si1 0.928422 0.041496 0.550777
Si Si2 0.570414 0.458249 0.051275
Si Si3 0.177560 0.042657 0.718679
Si Si4 0.897388 0.942670 0.802791
Si Si5 0.820807 0.543019 0.116954
Si Si6 0.500000 0.750000 0.815508
Si Si7 0.821938 0.958298 0.382083
O O1 0.929968 0.250000 0.554719
O O2 0.875095 0.975800 0.584297
O O3 0.000000 0.977453 0.559856
O O4 0.913230 0.000000 0.500000
O O5 0.500000 0.522729 0.063638
O O6 0.568725 0.250000 0.055602
O O7 0.626332 0.521626 0.082397
O O8 0.581000 0.500000 0.000000
O O9 0.169862 0.250000 0.719604
O O10 0.168430 0.980047 0.668263
O O11 0.250000 0.000000 0.730818
O O12 0.128815 0.965040 0.753352
O O13 0.923931 0.750000 0.808295
O O14 0.838294 0.963410 0.835996
O O15 0.945190 0.096822 0.814287
O O16 0.825991 0.750000 0.120173
O O17 0.750000 0.500000 0.102905
O O18 0.826704 0.750000 0.380869
O O19 0.750000 0.000000 0.395518
#
# Coordination Sequence:
#
# PCOD9502022 Si02
#       7
#    16  16  16  16  16   4  16
#     4   9  18  34  53  76 105 146 192 237 297 361
#     4   9  20  38  62  87 121 164 208 260 321 381
#     4  10  19  37  60  88 121 160 202 255 307 367
#     4  12  25  43  67  95 127 169 211 255 313 373
#     4  11  23  40  64  93 128 166 214 268 318 375
#     4  12  26  48  64  94 134 166 208 262 312 370
#     4   9  19  34  55  83 112 150 193 240 296 354
#
# _framework density 20.21191
#
# number of rings (size 3 to 8) (size 9 to 14) (size 15 to 20)
#    0.000    1.920    1.600    1.680    1.120    3.200 
#    1.440    3.200    0.000    0.000    0.000    0.000 
#    0.000    0.000    0.000    0.000    0.000    0.000 
#
# Total GULP energy -278745.363977 kJ/mol
# GULP energy per Si atom -5574.907280 kJ/mol
# Density = 2.016591 g / cm^3
# Si number density = 20.211910 Si / 1000 Ang^3
#
#
#
# Elastic Constant Matrix: (Units=GPa)
#
#
# Indices 1 2 3 4 5 6 
#
# 1 133.7691 21.8447 76.5854 0.0000 0.0000 0.0000
# 2 21.8447 96.0184 8.9106 0.0000 0.0000 0.0000
# 3 76.5854 8.9106 85.2470 0.0000 0.0000 0.0000
# 4 0.0000 0.0000 0.0000 18.9106 0.0000 0.0000
# 5 0.0000 0.0000 0.0000 0.0000 -31.0264 0.0000
# 6 0.0000 0.0000 0.0000 0.0000 0.0000 32.3106
#
#
#
# Elastic Compliance Matrix: (Units=1/GPa)
#
#
# Indices 1 2 3 4 5 6 
#
# 1 0.015885 -0.002312 -0.014030 0.000000 0.000000 0.000000
# 2 -0.002312 0.010853 0.000943 0.000000 0.000000 0.000000
# 3 -0.014030 0.000943 0.024236 0.000000 0.000000 0.000000
# 4 0.000000 0.000000 0.000000 0.052881 0.000000 0.000000
# 5 0.000000 0.000000 0.000000 0.000000 -0.032231 0.000000
# 6 0.000000 0.000000 0.000000 0.000000 0.000000 0.030950
#
#
# Mechanical properties :
#
#
# Convention : Reuss Voigt Hill
#
# Bulk Modulus (GPa) = 49.56198 58.85731 54.20965
# Shear Modulus (GPa) = 35.68931 17.88520 26.78725
#
# Velocity S-wave (km/s) = 4.20665 2.97793 3.64444
# Velocity P-wave (km/s) = 6.94038 6.40370 6.67744
#
# Compressibility (1/GPa) = 0.02017676
#
# Stress axis : x y z
#
# Youngs Moduli (GPa) = 62.95094 92.13882 41.26050
#
# Poissons Ratio (x) = 0.21303 0.57887
# Poissons Ratio (y) = 0.14554 -0.03889
# Poissons Ratio (z) = 0.88318 -0.08686
#
# Static dielectric constant tensor:
#      x y z
#    x 1.700860 0.000000 0.000000 
#    y 0.000000 1.739040 0.000000 
#    z 0.000000 0.000000 1.711850 
# 
# From -- ./inp_files/44658.got.cif
#   From: 2010.05.17/outbox.cif.g08.bks.cpg/sg67_23_cif.got.tgz:44658.got - 2010.06.03 18:28:57.
