data_PCOD9502604
_publ_section_title
;
Structure prediction by ZEFSAII (Michael W. Deem and Ramdas Pophale) SiO2 
 PCOD9502604
Probable space group: C M M A
;
_chemical_formula_sum "Si O2"
_cell_formula_units_Z 96
_cell_length_a 8.647946
_cell_length_b 26.325988
_cell_length_c 24.019731
_cell_angle_alpha 90.000000
_cell_angle_beta 90.000000
_cell_angle_gamma 90.000000
_cell_volume 5468.469415
_symmetry_space_group_name_H-M "C M M A"
_symmetry_group_IT_number 67
_symmetry_cell_setting 'orthorhombic'
loop_
_space_group_symop_operation_xyz
x,y,z
-x,1/2-y,z
x,-y,-z
-x,1/2+y,-z
-x,-y,-z
x,1/2+y,-z
-x,y,z
x,1/2-y,z
1/2+x,1/2+y,z
1/2-x,-y,z
1/2+x,1/2-y,-z
1/2-x,y,-z
1/2-x,1/2-y,-z
1/2+x,y,-z
1/2-x,1/2+y,z
1/2+x,-y,z
loop_
_atom_site_type_symbol
_atom_site_label
_atom_site_fract_x
_atom_site_fract_y
_atom_site_fract_z
Si Si1 0.814023 0.348460 0.562073
Si Si2 0.812125 0.250000 0.632233
Si Si3 0.814005 0.945038 0.756579
Si Si4 0.314262 0.444555 0.627390
Si Si5 0.314924 0.690331 0.939599
Si Si6 0.185830 0.847280 0.826256
Si Si7 0.313747 0.250000 0.239128
O O1 0.750000 0.342817 0.500000
O O2 0.762703 0.300558 0.599657
O O3 0.753244 0.400172 0.589540
O O4 0.000000 0.349213 0.560663
O O5 0.762854 0.250000 0.696435
O O6 0.000000 0.250000 0.632420
O O7 0.768359 0.935429 0.692132
O O8 0.763370 0.899217 0.796177
O O9 0.000000 0.947106 0.757776
O O10 0.750000 0.000000 0.772986
O O11 0.500000 0.444768 0.623964
O O12 0.250000 0.500000 0.611706
O O13 0.500000 0.686742 0.939425
O O14 0.273393 0.750000 0.930526
O O15 0.245203 0.658472 0.889098
O O16 0.250000 0.675780 0.000000
O O17 0.251535 0.799749 0.791784
O O18 0.000000 0.845122 0.825625
O O19 0.500000 0.250000 0.236575
#
# Coordination Sequence:
#
# PCOD9502604 Si02
#       7
#    16   8  16  16  16  16   8
#     4  11  22  38  57  79 105 139 178 220 267 319
#     4   9  21  38  56  77 107 142 179 218 263 319
#     4   9  20  36  56  81 109 143 181 220 268 320
#     4  10  20  37  58  82 109 138 175 221 271 323
#     4  10  20  34  53  78 110 148 187 224 268 317
#     4  11  21  34  53  81 115 146 179 222 268 318
#     4  11  21  34  53  81 110 142 179 218 266 319
#
# _framework density 17.555185999999999
#
# number of rings (size 3 to 8) (size 9 to 14) (size 15 to 20)
#    0.000    1.833    0.833    3.500    0.000    3.000 
#    0.000    5.417    0.000    0.500    0.000    3.500 
#    0.000    0.000    0.000    0.000    0.000    0.000 
#
# Total GULP energy -268149.109744 kJ/mol
# GULP energy per Si atom -5586.439786 kJ/mol
# Density = 1.751523 g / cm^3
# Si number density = 17.555186 Si / 1000 Ang^3
#
#
#
# Elastic Constant Matrix: (Units=GPa)
#
#
# Indices 1 2 3 4 5 6 
#
# 1 47.1823 27.9938 34.2734 0.0000 0.0000 0.0000
# 2 27.9938 111.7152 79.4384 0.0000 0.0000 0.0000
# 3 34.2734 79.4384 139.9321 0.0000 0.0000 0.0000
# 4 0.0000 0.0000 0.0000 -10.2737 0.0000 0.0000
# 5 0.0000 0.0000 0.0000 0.0000 29.5589 0.0000
# 6 0.0000 0.0000 0.0000 0.0000 0.0000 22.1479
#
#
#
# Elastic Compliance Matrix: (Units=1/GPa)
#
#
# Indices 1 2 3 4 5 6 
#
# 1 0.026530 -0.003400 -0.004568 0.000000 0.000000 0.000000
# 2 -0.003400 0.015446 -0.007936 0.000000 0.000000 0.000000
# 3 -0.004568 -0.007936 0.012770 0.000000 0.000000 0.000000
# 4 0.000000 0.000000 0.000000 -0.097336 0.000000 0.000000
# 5 0.000000 0.000000 0.000000 0.000000 0.033831 0.000000
# 6 0.000000 0.000000 0.000000 0.000000 0.000000 0.045151
#
#
# Mechanical properties :
#
#
# Convention : Reuss Voigt Hill
#
# Bulk Modulus (GPa) = 43.59387 64.69342 54.14365
# Shear Modulus (GPa) = 65.92326 18.76157 42.34241
#
# Velocity S-wave (km/s) = 6.13462 3.27267 4.91650
# Velocity P-wave (km/s) = 8.66397 7.15626 7.94596
#
# Compressibility (1/GPa) = 0.02293900
#
# Stress axis : x y z
#
# Youngs Moduli (GPa) = 37.69376 64.73971 78.30594
#
# Poissons Ratio (x) = 0.22010 0.35769
# Poissons Ratio (y) = 0.12815 0.62145
# Poissons Ratio (z) = 0.17218 0.51378
#
# Static dielectric constant tensor:
#      x y z
#    x 1.591530 0.000000 0.000000 
#    y 0.000000 1.569450 0.000000 
#    z 0.000000 0.000000 1.583670 
# 
# From -- ./inp_files/40822.got.cif
#   From: 2010.05.17/outbox.cif.g08.bks.cpg/sg67_21_cif.got.tgz:40822.got - 2010.06.03 18:28:57.
