data_PCOD9502133
_publ_section_title
;
Structure prediction by ZEFSAII (Michael W. Deem and Ramdas Pophale) SiO2 
 PCOD9502133
Probable space group: C M M A
;
_chemical_formula_sum "Si O2"
_cell_formula_units_Z 68
_cell_length_a 9.313908
_cell_length_b 18.838032
_cell_length_c 21.222361
_cell_angle_alpha 90.000000
_cell_angle_beta 90.000000
_cell_angle_gamma 90.000000
_cell_volume 3723.584140
_symmetry_space_group_name_H-M "C M M A"
_symmetry_group_IT_number 67
_symmetry_cell_setting 'orthorhombic'
loop_
_space_group_symop_operation_xyz
x,y,z
-x,1/2-y,z
x,-y,-z
-x,1/2+y,-z
-x,-y,-z
x,1/2+y,-z
-x,y,z
x,1/2-y,z
1/2+x,1/2+y,z
1/2-x,-y,z
1/2+x,1/2-y,-z
1/2-x,y,-z
1/2-x,1/2-y,-z
1/2+x,y,-z
1/2-x,1/2+y,z
1/2+x,-y,z
loop_
_atom_site_type_symbol
_atom_site_label
_atom_site_fract_x
_atom_site_fract_y
_atom_site_fract_z
Si Si1 0.837647 0.137517 0.559882
Si Si2 0.250000 0.000000 0.500000
Si Si3 0.833912 0.836592 0.937142
Si Si4 0.836063 0.164524 0.312957
Si Si5 0.666134 0.663316 0.811196
O O1 0.750000 0.168183 0.500000
O O2 0.750130 0.148187 0.623556
O O3 0.000000 0.164100 0.564316
O O4 0.839072 0.053702 0.543154
O O5 0.834538 0.750000 0.937272
O O6 0.749795 0.858782 0.874253
O O7 0.000000 0.859275 0.937022
O O8 0.750000 0.859150 0.000000
O O9 0.843133 0.250000 0.308264
O O10 0.750305 0.139395 0.251262
O O11 0.000000 0.137810 0.315278
O O12 0.500000 0.640844 0.811242
O O13 0.665886 0.750000 0.810788
#
# Coordination Sequence:
#
# PCOD9502133 Si02
#       5
#    16   4  16  16  16
#     4  10  20  34  53  71  90 115 146 183 224 269
#     4   8  22  36  56  72  90 112 144 182 226 272
#     4   9  15  22  33  50  73 104 144 185 221 257
#     4  10  20  32  46  66  92 121 152 185 224 269
#     4   9  16  26  39  55  79 111 146 183 222 263
#
# _framework density 18.261975
#
# number of rings (size 3 to 8) (size 9 to 14) (size 15 to 20)
#    0.706    1.882    0.000    3.176    0.000    7.529 
#    0.000    0.000    0.000    0.000    0.000    0.000 
#    0.000    0.000    0.000    1.059    0.000   16.235 
#
# Total GULP energy -189376.478367 kJ/mol
# GULP energy per Si atom -5569.896423 kJ/mol
# Density = 1.822041 g / cm^3
# Si number density = 18.261975 Si / 1000 Ang^3
#
#
#
# Elastic Constant Matrix: (Units=GPa)
#
#
# Indices 1 2 3 4 5 6 
#
# 1 233.3674 5.7462 138.2135 0.0000 0.0000 0.0000
# 2 5.7462 19.1484 1.0852 0.0000 0.0000 0.0000
# 3 138.2135 1.0852 218.3949 0.0000 0.0000 0.0000
# 4 0.0000 0.0000 0.0000 -25.7694 0.0000 0.0000
# 5 0.0000 0.0000 0.0000 0.0000 37.6237 0.0000
# 6 0.0000 0.0000 0.0000 0.0000 0.0000 -4.8062
#
#
#
# Elastic Compliance Matrix: (Units=1/GPa)
#
#
# Indices 1 2 3 4 5 6 
#
# 1 0.006918 -0.001828 -0.004369 0.000000 0.000000 0.000000
# 2 -0.001828 0.052722 0.000895 0.000000 0.000000 0.000000
# 3 -0.004369 0.000895 0.007339 0.000000 0.000000 0.000000
# 4 0.000000 0.000000 0.000000 -0.038806 0.000000 0.000000
# 5 0.000000 0.000000 0.000000 0.000000 0.026579 0.000000
# 6 0.000000 0.000000 0.000000 0.000000 0.000000 -0.208063
#
#
# Mechanical properties :
#
#
# Convention : Reuss Voigt Hill
#
# Bulk Modulus (GPa) = 17.73857 84.55564 51.14710
# Shear Modulus (GPa) = -40.35002 23.13399 -8.60801
#
# Velocity S-wave (km/s) = -4.70564 3.56305 -2.17344
# Velocity P-wave (km/s) = 4.44855 7.95796 4.66581
#
# Compressibility (1/GPa) = 0.05637434
#
# Stress axis : x y z
#
# Youngs Moduli (GPa) = 144.56033 18.96759 136.25425
#
# Poissons Ratio (x) = 0.03468 0.59526
# Poissons Ratio (y) = 0.26429 -0.12196
# Poissons Ratio (z) = 0.63155 -0.01698
#
# Static dielectric constant tensor:
#      x y z
#    x 1.634740 0.000000 0.000000 
#    y 0.000000 1.636220 0.000000 
#    z 0.000000 0.000000 1.607120 
# 
# From -- ./inp_files/32254.got.cif
#   From: 2010.05.17/outbox.cif.g08.bks.cpg/sg67_17_cif.got.tgz:32254.got - 2010.06.03 18:28:57.
