data_PCOD9502422
_publ_section_title
;
Structure prediction by ZEFSAII (Michael W. Deem and Ramdas Pophale) SiO2 
 PCOD9502422
Probable space group: C M M A
;
_chemical_formula_sum "Si O2"
_cell_formula_units_Z 72
_cell_length_a 27.353170
_cell_length_b 8.661388
_cell_length_c 16.512056
_cell_angle_alpha 90.000000
_cell_angle_beta 90.000000
_cell_angle_gamma 90.000000
_cell_volume 3911.977168
_symmetry_space_group_name_H-M "C M M A"
_symmetry_group_IT_number 67
_symmetry_cell_setting 'orthorhombic'
loop_
_space_group_symop_operation_xyz
x,y,z
-x,1/2-y,z
x,-y,-z
-x,1/2+y,-z
-x,-y,-z
x,1/2+y,-z
-x,y,z
x,1/2-y,z
1/2+x,1/2+y,z
1/2-x,-y,z
1/2+x,1/2-y,-z
1/2-x,y,-z
1/2-x,1/2-y,-z
1/2+x,y,-z
1/2-x,1/2+y,z
1/2+x,-y,z
loop_
_atom_site_type_symbol
_atom_site_label
_atom_site_fract_x
_atom_site_fract_y
_atom_site_fract_z
Si Si1 0.134518 0.433210 0.242485
Si Si2 0.442533 0.434216 0.355629
Si Si3 0.299659 0.921077 0.622344
Si Si4 0.303295 0.435317 0.910733
Si Si5 0.119763 0.000000 0.500000
O O1 0.125282 0.250000 0.243652
O O2 0.087150 0.523919 0.274668
O O3 0.176347 0.475360 0.307818
O O4 0.155938 0.478000 0.155296
O O5 0.500000 0.463269 0.349489
O O6 0.435925 0.250000 0.374389
O O7 0.417856 0.536951 0.427044
O O8 0.289190 0.750000 0.654023
O O9 0.340340 0.906943 0.552425
O O10 0.250000 0.000000 0.594062
O O11 0.300157 0.250000 0.913969
O O12 0.250000 0.500000 0.886342
O O13 0.313933 0.500000 0.000000
#
# Coordination Sequence:
#
# PCOD9502422 Si02
#       5
#    16  16  16  16   8
#     4  10  21  36  55  80 108 140 177 217 263 313
#     4  10  22  39  58  79 103 135 176 222 272 320
#     4  11  23  36  52  75 105 143 182 219 262 314
#     4  10  20  33  53  82 113 144 176 209 251 304
#     4  10  20  34  52  74 102 134 172 218 262 310
#
# _framework density 18.405014000000001
#
# number of rings (size 3 to 8) (size 9 to 14) (size 15 to 20)
#    0.000    1.778    0.000    6.000    0.000   15.556 
#    0.000    0.000    0.000    0.667    0.000    0.000 
#    0.000    0.000    0.000    0.000    0.000    0.000 
#
# Total GULP energy -200511.527408 kJ/mol
# GULP energy per Si atom -5569.764650 kJ/mol
# Density = 1.836312 g / cm^3
# Si number density = 18.405014 Si / 1000 Ang^3
#
#
#
# Elastic Constant Matrix: (Units=GPa)
#
#
# Indices 1 2 3 4 5 6 
#
# 1 160.3545 27.5276 60.2000 0.0000 0.0000 0.0000
# 2 27.5276 30.3435 17.8729 0.0000 0.0000 0.0000
# 3 60.2000 17.8729 88.8678 0.0000 0.0000 0.0000
# 4 0.0000 0.0000 0.0000 97.9618 0.0000 0.0000
# 5 0.0000 0.0000 0.0000 0.0000 21.8634 0.0000
# 6 0.0000 0.0000 0.0000 0.0000 0.0000 22.7191
#
#
#
# Elastic Compliance Matrix: (Units=1/GPa)
#
#
# Indices 1 2 3 4 5 6 
#
# 1 0.009035 -0.005208 -0.005073 0.000000 0.000000 0.000000
# 2 -0.005208 0.040387 -0.004594 0.000000 0.000000 0.000000
# 3 -0.005073 -0.004594 0.015613 0.000000 0.000000 0.000000
# 4 0.000000 0.000000 0.000000 0.010208 0.000000 0.000000
# 5 0.000000 0.000000 0.000000 0.000000 0.045739 0.000000
# 6 0.000000 0.000000 0.000000 0.000000 0.000000 0.044016
#
#
# Mechanical properties :
#
#
# Convention : Reuss Voigt Hill
#
# Bulk Modulus (GPa) = 28.34150 54.52967 41.43558
# Shear Modulus (GPa) = 24.21198 40.10655 32.15926
#
# Velocity S-wave (km/s) = 3.63093 4.67316 4.18462
# Velocity P-wave (km/s) = 5.74547 7.66876 6.77570
#
# Compressibility (1/GPa) = 0.03528395
#
# Stress axis : x y z
#
# Youngs Moduli (GPa) = 110.68486 24.76034 64.04923
#
# Poissons Ratio (x) = 0.12896 0.32490
# Poissons Ratio (y) = 0.57648 0.29427
# Poissons Ratio (z) = 0.56147 0.11376
#
# Static dielectric constant tensor:
#      x y z
#    x 1.623180 0.000000 0.000000 
#    y 0.000000 1.760210 0.000000 
#    z 0.000000 0.000000 1.639070 
# 
# From -- ./inp_files/30530.got.cif
#   From: 2010.05.17/outbox.cif.g08.bks.cpg/sg67_16_cif.got.tgz:30530.got - 2010.06.03 18:28:57.
