data_PCOD9502428
_publ_section_title
;
Structure prediction by ZEFSAII (Michael W. Deem and Ramdas Pophale) SiO2 
 PCOD9502428
Probable space group: C M M A
;
_chemical_formula_sum "Si O2"
_cell_formula_units_Z 72
_cell_length_a 24.904184
_cell_length_b 9.729354
_cell_length_c 16.705465
_cell_angle_alpha 90.000000
_cell_angle_beta 90.000000
_cell_angle_gamma 90.000000
_cell_volume 4047.761269
_symmetry_space_group_name_H-M "C M M A"
_symmetry_group_IT_number 67
_symmetry_cell_setting 'orthorhombic'
loop_
_space_group_symop_operation_xyz
x,y,z
-x,1/2-y,z
x,-y,-z
-x,1/2+y,-z
-x,-y,-z
x,1/2+y,-z
-x,y,z
x,1/2-y,z
1/2+x,1/2+y,z
1/2-x,-y,z
1/2+x,1/2-y,-z
1/2-x,y,-z
1/2-x,1/2-y,-z
1/2+x,y,-z
1/2-x,1/2+y,z
1/2+x,-y,z
loop_
_atom_site_type_symbol
_atom_site_label
_atom_site_fract_x
_atom_site_fract_y
_atom_site_fract_z
Si Si1 0.861492 0.994773 0.168806
Si Si2 0.333349 0.250000 0.928950
Si Si3 0.690077 0.250000 0.538628
Si Si4 0.208676 0.750000 0.110420
Si Si5 0.688778 0.473910 0.674856
Si Si6 0.936649 0.750000 0.226871
Si Si7 0.132104 0.250000 0.621862
O O1 0.813066 0.887981 0.151364
O O2 0.909984 0.887467 0.186990
O O3 0.863259 0.110991 0.100226
O O4 0.845696 0.075259 0.249735
O O5 0.272826 0.250000 0.892690
O O6 0.319857 0.250000 0.023127
O O7 0.750000 0.250000 0.500000
O O8 0.686573 0.378954 0.597457
O O9 0.641896 0.250000 0.473713
O O10 0.750000 0.500000 0.697454
O O11 0.663831 0.618019 0.651130
O O12 0.921028 0.750000 0.322200
O O13 0.000000 0.750000 0.216447
#
# Coordination Sequence:
#
# PCOD9502428 Si02
#       7
#    16   8   8   8  16   8   8
#     4  10  21  34  55  82 109 151 199 233 271 342
#     4  11  19  32  54  88 125 155 184 221 266 336
#     4  12  21  30  46  75 117 150 168 216 281 333
#     4  10  20  33  53  83 129 166 176 205 272 344
#     4  11  19  30  47  73 111 146 178 214 266 336
#     4   9  21  43  62  75 101 148 199 253 305 333
#     4  10  21  32  51  76 100 144 188 213 274 348
#
# _framework density 17.787610000000001
#
# number of rings (size 3 to 8) (size 9 to 14) (size 15 to 20)
#    0.000    1.556    2.222    4.667    0.000    1.778 
#    0.000    0.556    0.000   21.333    0.000    0.000 
#    0.000    0.000    0.000    0.000    0.000    0.000 
#
# Total GULP energy -200645.839768 kJ/mol
# GULP energy per Si atom -5573.495549 kJ/mol
# Density = 1.774712 g / cm^3
# Si number density = 17.787610 Si / 1000 Ang^3
#
#
#
# Elastic Constant Matrix: (Units=GPa)
#
#
# Indices 1 2 3 4 5 6 
#
# 1 94.5360 26.8218 35.3711 0.0000 0.0000 0.0000
# 2 26.8218 96.8072 35.4815 0.0000 0.0000 0.0000
# 3 35.3711 35.4815 87.5839 0.0000 0.0000 0.0000
# 4 0.0000 0.0000 0.0000 42.3308 0.0000 0.0000
# 5 0.0000 0.0000 0.0000 0.0000 7.2424 0.0000
# 6 0.0000 0.0000 0.0000 0.0000 0.0000 9.0895
#
#
#
# Elastic Compliance Matrix: (Units=1/GPa)
#
#
# Indices 1 2 3 4 5 6 
#
# 1 0.012762 -0.001934 -0.004370 0.000000 0.000000 0.000000
# 2 -0.001934 0.012424 -0.004252 0.000000 0.000000 0.000000
# 3 -0.004370 -0.004252 0.014905 0.000000 0.000000 0.000000
# 4 0.000000 0.000000 0.000000 0.023623 0.000000 0.000000
# 5 0.000000 0.000000 0.000000 0.000000 0.138075 0.000000
# 6 0.000000 0.000000 0.000000 0.000000 0.000000 0.110017
#
#
# Mechanical properties :
#
#
# Convention : Reuss Voigt Hill
#
# Bulk Modulus (GPa) = 52.69232 52.69731 52.69481
# Shear Modulus (GPa) = 14.73856 23.81607 19.27731
#
# Velocity S-wave (km/s) = 2.88164 3.66309 3.29561
# Velocity P-wave (km/s) = 6.38429 6.89791 6.64606
#
# Compressibility (1/GPa) = 0.01897810
#
# Stress axis : x y z
#
# Youngs Moduli (GPa) = 78.35807 80.48851 67.09046
#
# Poissons Ratio (x) = 0.15567 0.29322
# Poissons Ratio (y) = 0.15155 0.28528
# Poissons Ratio (z) = 0.34246 0.34225
#
# Static dielectric constant tensor:
#      x y z
#    x 1.563670 0.000000 0.000000 
#    y 0.000000 1.577850 0.000000 
#    z 0.000000 0.000000 1.691350 
# 
# From -- ./inp_files/35761.got.cif
#   From: 2010.05.17/outbox.cif.g08.bks.cpg/sg67_18_cif.got.tgz:35761.got - 2010.06.03 18:28:57.
