data_PCOD9502813
_publ_section_title
;
Structure prediction by ZEFSAII (Michael W. Deem and Ramdas Pophale) SiO2 
 PCOD9502813
Probable space group: C M M A
;
_chemical_formula_sum "Si O2"
_cell_formula_units_Z 80
_cell_length_a 18.376768
_cell_length_b 14.365010
_cell_length_c 15.427867
_cell_angle_alpha 90.000000
_cell_angle_beta 90.000000
_cell_angle_gamma 90.000000
_cell_volume 4072.686223
_symmetry_space_group_name_H-M "C M M A"
_symmetry_group_IT_number 67
_symmetry_cell_setting 'orthorhombic'
loop_
_space_group_symop_operation_xyz
x,y,z
-x,1/2-y,z
x,-y,-z
-x,1/2+y,-z
-x,-y,-z
x,1/2+y,-z
-x,y,z
x,1/2-y,z
1/2+x,1/2+y,z
1/2-x,-y,z
1/2+x,1/2-y,-z
1/2-x,y,-z
1/2-x,1/2-y,-z
1/2+x,y,-z
1/2-x,1/2+y,z
1/2+x,-y,z
loop_
_atom_site_type_symbol
_atom_site_label
_atom_site_fract_x
_atom_site_fract_y
_atom_site_fract_z
Si Si1 0.266653 0.863063 0.097209
Si Si2 0.082258 0.982918 0.654096
Si Si3 0.182537 0.356014 0.733524
Si Si4 0.579280 0.639336 0.172684
Si Si5 0.784888 0.897768 0.585562
O O1 0.262524 0.750000 0.099165
O O2 0.210759 0.892737 0.173249
O O3 0.349347 0.888332 0.120140
O O4 0.250000 0.893322 0.000000
O O5 0.079620 0.917852 0.738801
O O6 0.129965 0.921591 0.586697
O O7 0.000000 0.003160 0.625746
O O8 0.125735 0.075352 0.685831
O O9 0.154631 0.250000 0.741842
O O10 0.254759 0.352404 0.672907
O O11 0.500000 0.623281 0.129920
O O12 0.584472 0.750000 0.190372
O O13 0.750000 0.853578 0.500000
O O14 0.750000 0.000000 0.589533
#
# Coordination Sequence:
#
# PCOD9502813 Si02
#       5
#    16  16  16  16  16
#     4   9  17  31  53  80 108 146 191 227 270 327
#     4  10  20  35  57  82 112 145 180 226 282 334
#     4  10  20  35  54  78 112 148 185 226 268 327
#     4   9  17  31  53  80 108 138 178 233 284 318
#     4   9  18  34  55  80 105 137 183 227 274 325
#
# _framework density 19.643056000000001
#
# number of rings (size 3 to 8) (size 9 to 14) (size 15 to 20)
#    0.000    2.600    2.000    0.000    0.000    0.800 
#    0.000   11.000    0.000    6.000    0.000    0.000 
#    0.000    0.000    0.000    0.000    0.000    0.000 
#
# Total GULP energy -222785.197106 kJ/mol
# GULP energy per Si atom -5569.629928 kJ/mol
# Density = 1.959835 g / cm^3
# Si number density = 19.643056 Si / 1000 Ang^3
#
#
#
# Elastic Constant Matrix: (Units=GPa)
#
#
# Indices 1 2 3 4 5 6 
#
# 1 150.4993 32.9713 33.8325 0.0000 0.0000 0.0000
# 2 32.9713 68.2132 13.0950 0.0000 0.0000 0.0000
# 3 33.8325 13.0950 86.3653 0.0000 0.0000 0.0000
# 4 0.0000 0.0000 0.0000 11.6846 0.0000 0.0000
# 5 0.0000 0.0000 0.0000 0.0000 24.5710 0.0000
# 6 0.0000 0.0000 0.0000 0.0000 0.0000 13.6286
#
#
#
# Elastic Compliance Matrix: (Units=1/GPa)
#
#
# Indices 1 2 3 4 5 6 
#
# 1 0.007965 -0.003349 -0.002613 0.000000 0.000000 0.000000
# 2 -0.003349 0.016507 -0.001191 0.000000 0.000000 0.000000
# 3 -0.002613 -0.001191 0.012783 0.000000 0.000000 0.000000
# 4 0.000000 0.000000 0.000000 0.085583 0.000000 0.000000
# 5 0.000000 0.000000 0.000000 0.000000 0.040698 0.000000
# 6 0.000000 0.000000 0.000000 0.000000 0.000000 0.073375
#
#
# Mechanical properties :
#
#
# Convention : Reuss Voigt Hill
#
# Bulk Modulus (GPa) = 43.57162 51.65282 47.61222
# Shear Modulus (GPa) = 19.31495 24.98876 22.15186
#
# Velocity S-wave (km/s) = 3.13916 3.57058 3.36180
# Velocity P-wave (km/s) = 5.94718 6.58419 6.27377
#
# Compressibility (1/GPa) = 0.02295072
#
# Stress axis : x y z
#
# Youngs Moduli (GPa) = 125.54147 60.57976 78.23020
#
# Poissons Ratio (x) = 0.20286 0.20439
# Poissons Ratio (y) = 0.42039 0.09318
# Poissons Ratio (z) = 0.32800 0.07216
#
# Static dielectric constant tensor:
#      x y z
#    x 1.734410 0.000000 0.000000 
#    y 0.000000 1.721540 0.000000 
#    z 0.000000 0.000000 1.739080 
# 
# From -- ./inp_files/26954.got.cif
#   From: 2010.05.17/outbox.cif.g08.bks.cpg/sg67_14_cif.got.tgz:26954.got - 2010.06.03 18:28:57.
