data_PCOD9502337
_publ_section_title
;
Structure prediction by ZEFSAII (Michael W. Deem and Ramdas Pophale) SiO2 
 PCOD9502337
Probable space group: C M M A
;
_chemical_formula_sum "Si O2"
_cell_formula_units_Z 88
_cell_length_a 8.807571
_cell_length_b 15.202032
_cell_length_c 32.302749
_cell_angle_alpha 90.000000
_cell_angle_beta 90.000000
_cell_angle_gamma 90.000000
_cell_volume 4325.111203
_symmetry_space_group_name_H-M "C M M A"
_symmetry_group_IT_number 67
_symmetry_cell_setting 'orthorhombic'
loop_
_space_group_symop_operation_xyz
x,y,z
-x,1/2-y,z
x,-y,-z
-x,1/2+y,-z
-x,-y,-z
x,1/2+y,-z
-x,y,z
x,1/2-y,z
1/2+x,1/2+y,z
1/2-x,-y,z
1/2+x,1/2-y,-z
1/2-x,y,-z
1/2-x,1/2-y,-z
1/2+x,y,-z
1/2-x,1/2+y,z
1/2+x,-y,z
loop_
_atom_site_type_symbol
_atom_site_label
_atom_site_fract_x
_atom_site_fract_y
_atom_site_fract_z
Si Si1 0.182542 0.401863 0.108961
Si Si2 0.329697 0.354309 0.631221
Si Si3 0.816993 0.599272 0.194277
Si Si4 0.680609 0.403059 0.283894
Si Si5 0.817184 0.854223 0.542293
Si Si6 0.317417 0.750000 0.045612
O O1 0.250000 0.500000 0.103413
O O2 0.245280 0.363580 0.152446
O O3 0.226244 0.336377 0.071994
O O4 0.000000 0.407747 0.111325
O O5 0.500000 0.391161 0.637604
O O6 0.344401 0.250000 0.624712
O O7 0.237244 0.364367 0.673089
O O8 0.265795 0.389356 0.587381
O O9 0.750000 0.500000 0.195430
O O10 0.777485 0.639423 0.239326
O O11 0.000000 0.597032 0.190468
O O12 0.500000 0.407076 0.284550
O O13 0.750000 0.500000 0.283131
O O14 0.776863 0.750000 0.541662
O O15 0.750000 0.892757 0.500000
O O16 0.000000 0.860869 0.541573
O O17 0.500000 0.750000 0.042885
O O18 0.250000 0.750000 0.000000
#
# Coordination Sequence:
#
# PCOD9502337 Si02
#       6
#    16  16  16  16  16   8
#     4  10  20  37  60  86 115 149 191 235 281 334
#     4   9  18  32  48  69  99 131 164 205 255 309
#     4   9  17  31  52  78 104 136 176 218 261 311
#     4  10  20  33  51  74 102 135 173 212 256 312
#     4   8  14  25  42  64  89 119 157 200 247 302
#     4  10  24  42  60  86 120 154 192 236 281 336
#
# _framework density 20.346298000000001
#
# number of rings (size 3 to 8) (size 9 to 14) (size 15 to 20)
#    0.000    2.727    0.000    3.818    0.000    5.091 
#    1.636    3.636    0.000    0.545    0.000    3.818 
#    0.000    0.000    0.000    0.000    0.000    0.000 
#
# Total GULP energy -245135.050448 kJ/mol
# GULP energy per Si atom -5571.251147 kJ/mol
# Density = 2.029999 g / cm^3
# Si number density = 20.346298 Si / 1000 Ang^3
#
#
#
# Elastic Constant Matrix: (Units=GPa)
#
#
# Indices 1 2 3 4 5 6 
#
# 1 50.7515 15.9307 64.8890 0.0000 0.0000 0.0000
# 2 15.9307 57.8031 52.8631 0.0000 0.0000 0.0000
# 3 64.8890 52.8631 254.2141 0.0000 0.0000 0.0000
# 4 0.0000 0.0000 0.0000 48.8383 0.0000 0.0000
# 5 0.0000 0.0000 0.0000 0.0000 34.3533 0.0000
# 6 0.0000 0.0000 0.0000 0.0000 0.0000 16.1672
#
#
#
# Elastic Compliance Matrix: (Units=1/GPa)
#
#
# Indices 1 2 3 4 5 6 
#
# 1 0.029359 -0.001529 -0.007176 0.000000 0.000000 0.000000
# 2 -0.001529 0.021442 -0.004069 0.000000 0.000000 0.000000
# 3 -0.007176 -0.004069 0.006611 0.000000 0.000000 0.000000
# 4 0.000000 0.000000 0.000000 0.020476 0.000000 0.000000
# 5 0.000000 0.000000 0.000000 0.000000 0.029109 0.000000
# 6 0.000000 0.000000 0.000000 0.000000 0.000000 0.061854
#
#
# Mechanical properties :
#
#
# Convention : Reuss Voigt Hill
#
# Bulk Modulus (GPa) = 31.38150 70.01491 50.69820
# Shear Modulus (GPa) = 24.38787 35.14414 29.76600
#
# Velocity S-wave (km/s) = 3.46589 4.16059 3.82903
# Velocity P-wave (km/s) = 5.61014 7.58729 6.67236
#
# Compressibility (1/GPa) = 0.03186591
#
# Stress axis : x y z
#
# Youngs Moduli (GPa) = 34.06144 46.63663 151.25208
#
# Poissons Ratio (x) = 0.07129 1.08539
# Poissons Ratio (y) = 0.05207 0.61540
# Poissons Ratio (z) = 0.24443 0.18975
#
# Static dielectric constant tensor:
#      x y z
#    x 1.679660 0.000000 0.000000 
#    y 0.000000 1.768580 0.000000 
#    z 0.000000 0.000000 1.794080 
# 
# From -- ./inp_files/45194.got.cif
#   From: 2010.05.17/outbox.cif.g08.bks.cpg/sg67_23_cif.got.tgz:45194.got - 2010.06.03 18:28:57.
