data_PCOD9502993
_publ_section_title
;
Structure prediction by ZEFSAII (Michael W. Deem and Ramdas Pophale) SiO2 
 PCOD9502993
Probable space group: C M M A
;
_chemical_formula_sum "Si O2"
_cell_formula_units_Z 96
_cell_length_a 26.373508
_cell_length_b 16.756868
_cell_length_c 12.114951
_cell_angle_alpha 90.000000
_cell_angle_beta 90.000000
_cell_angle_gamma 90.000000
_cell_volume 5354.049852
_symmetry_space_group_name_H-M "C M M A"
_symmetry_group_IT_number 67
_symmetry_cell_setting 'orthorhombic'
loop_
_space_group_symop_operation_xyz
x,y,z
-x,1/2-y,z
x,-y,-z
-x,1/2+y,-z
-x,-y,-z
x,1/2+y,-z
-x,y,z
x,1/2-y,z
1/2+x,1/2+y,z
1/2-x,-y,z
1/2+x,1/2-y,-z
1/2-x,y,-z
1/2-x,1/2-y,-z
1/2+x,y,-z
1/2-x,1/2+y,z
1/2+x,-y,z
loop_
_atom_site_type_symbol
_atom_site_label
_atom_site_fract_x
_atom_site_fract_y
_atom_site_fract_z
Si Si1 0.146075 0.844298 0.678165
Si Si2 0.775700 0.088005 0.154566
Si Si3 0.556755 0.155015 0.831823
Si Si4 0.692079 0.406814 0.469878
Si Si5 0.675247 0.157995 0.227845
Si Si6 0.366962 0.093177 0.010468
O O1 0.154382 0.750000 0.704167
O O2 0.187460 0.898793 0.740975
O O3 0.091833 0.869022 0.728023
O O4 0.154489 0.858820 0.549683
O O5 0.730564 0.149712 0.172031
O O6 0.750000 0.000000 0.150188
O O7 0.812475 0.103318 0.051111
O O8 0.500000 0.120568 0.834128
O O9 0.552227 0.250000 0.824497
O O10 0.590135 0.136832 0.939907
O O11 0.688061 0.500000 0.500000
O O12 0.750000 0.381891 0.500000
O O13 0.679838 0.389272 0.342702
O O14 0.663184 0.250000 0.248990
O O15 0.638075 0.120786 0.136267
O O16 0.377925 0.000000 0.000000
#
# Coordination Sequence:
#
# PCOD9502993 Si02
#       6
#    16  16  16  16  16  16
#     4  10  20  35  58  84 110 145 195 239 280 335
#     4  11  20  34  52  78 117 159 192 229 277 339
#     4   9  20  40  64  86 110 143 190 249 299 341
#     4  11  23  36  55  79 117 160 194 228 281 343
#     4  12  24  35  54  83 120 159 196 236 285 342
#     4  11  23  35  57  83 119 153 192 236 288 351
#
# _framework density 17.930351000000002
#
# number of rings (size 3 to 8) (size 9 to 14) (size 15 to 20)
#    0.000    1.333    3.333    3.000    2.333    3.667 
#    0.000    0.000    0.000    1.500    0.000    2.333 
#    0.000    0.000    0.000    0.000    0.000    0.000 
#
# Total GULP energy -267907.298536 kJ/mol
# GULP energy per Si atom -5581.402053 kJ/mol
# Density = 1.788954 g / cm^3
# Si number density = 17.930351 Si / 1000 Ang^3
#
#
#
# Elastic Constant Matrix: (Units=GPa)
#
#
# Indices 1 2 3 4 5 6 
#
# 1 111.3703 21.8323 48.2841 0.0000 0.0000 0.0000
# 2 21.8323 60.0621 32.6048 0.0000 0.0000 0.0000
# 3 48.2841 32.6048 111.8559 0.0000 0.0000 0.0000
# 4 0.0000 0.0000 0.0000 26.1327 0.0000 0.0000
# 5 0.0000 0.0000 0.0000 0.0000-2452.8948 0.0000
# 6 0.0000 0.0000 0.0000 0.0000 0.0000 17.6118
#
#
#
# Elastic Compliance Matrix: (Units=1/GPa)
#
#
# Indices 1 2 3 4 5 6 
#
# 1 0.011194 -0.001718 -0.004331 0.000000 0.000000 0.000000
# 2 -0.001718 0.020043 -0.005101 0.000000 0.000000 0.000000
# 3 -0.004331 -0.005101 0.012297 0.000000 0.000000 0.000000
# 4 0.000000 0.000000 0.000000 0.038266 0.000000 0.000000
# 5 0.000000 0.000000 0.000000 0.000000 -0.000408 0.000000
# 6 0.000000 0.000000 0.000000 0.000000 0.000000 0.056780
#
#
# Mechanical properties :
#
#
# Convention : Reuss Voigt Hill
#
# Bulk Modulus (GPa) = 47.09520 54.30344 50.69932
# Shear Modulus (GPa) = 29.84212 -469.79225 -219.97507
#
# Velocity S-wave (km/s) = 4.08405 -16.20427 -11.08826
# Velocity P-wave (km/s) = 6.96864 17.88164 11.64455
#
# Compressibility (1/GPa) = 0.02123359
#
# Stress axis : x y z
#
# Youngs Moduli (GPa) = 89.33738 49.89329 81.32381
#
# Poissons Ratio (x) = 0.08570 0.35223
# Poissons Ratio (y) = 0.15345 0.41482
# Poissons Ratio (z) = 0.38694 0.25450
#
# Static dielectric constant tensor:
#      x y z
#    x 1.620610 0.000000 0.000000 
#    y 0.000000 1.651270 0.000000 
#    z 0.000000 0.000000 1.647270 
# 
# From -- ./inp_files/21905.got.cif
#   From: 2010.05.17/outbox.cif.g08.bks.cpg/sg67_11_cif.got.tgz:21905.got - 2010.06.03 18:28:57.
