data_PCOD9502192
_publ_section_title
;
Structure prediction by ZEFSAII (Michael W. Deem and Ramdas Pophale) SiO2 
 PCOD9502192
Probable space group: C M M A
;
_chemical_formula_sum "Si O2"
_cell_formula_units_Z 96
_cell_length_a 15.155746
_cell_length_b 18.080198
_cell_length_c 18.714886
_cell_angle_alpha 90.000000
_cell_angle_beta 90.000000
_cell_angle_gamma 90.000000
_cell_volume 5128.232260
_symmetry_space_group_name_H-M "C M M A"
_symmetry_group_IT_number 67
_symmetry_cell_setting 'orthorhombic'
loop_
_space_group_symop_operation_xyz
x,y,z
-x,1/2-y,z
x,-y,-z
-x,1/2+y,-z
-x,-y,-z
x,1/2+y,-z
-x,y,z
x,1/2-y,z
1/2+x,1/2+y,z
1/2-x,-y,z
1/2+x,1/2-y,-z
1/2-x,y,-z
1/2-x,1/2-y,-z
1/2+x,y,-z
1/2-x,1/2+y,z
1/2+x,-y,z
loop_
_atom_site_type_symbol
_atom_site_label
_atom_site_fract_x
_atom_site_fract_y
_atom_site_fract_z
Si Si1 0.399726 0.662260 0.894438
Si Si2 0.101484 0.839822 0.551857
Si Si3 0.900047 0.340049 0.610271
Si Si4 0.896570 0.577954 0.961562
Si Si5 0.731838 0.085602 0.827459
Si Si6 0.776235 0.160505 0.317051
O O1 0.500000 0.638321 0.875719
O O2 0.394076 0.750000 0.885544
O O3 0.324163 0.623405 0.849186
O O4 0.386128 0.639445 0.977089
O O5 0.105103 0.750000 0.551094
O O6 0.124219 0.863054 0.470908
O O7 0.164885 0.863672 0.615431
O O8 0.000000 0.861008 0.565254
O O9 0.901108 0.250000 0.610013
O O10 0.824394 0.362163 0.664975
O O11 0.000000 0.364391 0.626146
O O12 0.834356 0.590971 0.894401
O O13 0.000000 0.574481 0.941045
O O14 0.873997 0.500000 0.000000
O O15 0.695309 0.125422 0.757238
O O16 0.750000 0.000000 0.812856
O O17 0.779950 0.250000 0.312431
#
# Coordination Sequence:
#
# PCOD9502192 Si02
#       6
#    16  16  16  16  16  16
#     4  10  22  40  63  89 113 142 188 244 292 337
#     4   8  14  27  49  75 102 136 181 229 276 328
#     4   8  14  27  50  77 103 138 184 229 274 328
#     4  10  21  40  63  83 107 145 191 235 283 345
#     4  12  24  36  56  82 114 154 190 227 287 353
#     4  10  20  32  48  77 113 143 176 228 285 335
#
# _framework density 18.719901
#
# number of rings (size 3 to 8) (size 9 to 14) (size 15 to 20)
#    0.000    2.333    1.667    2.500    0.000    5.333 
#    0.000    1.667    0.000    2.000    0.000    2.333 
#    0.000    0.000    0.000    0.000    0.000    0.000 
#
# Total GULP energy -267830.738087 kJ/mol
# GULP energy per Si atom -5579.807043 kJ/mol
# Density = 1.867729 g / cm^3
# Si number density = 18.719901 Si / 1000 Ang^3
#
#
#
# Elastic Constant Matrix: (Units=GPa)
#
#
# Indices 1 2 3 4 5 6 
#
# 1 62.1389 18.6826 38.9438 0.0000 0.0000 0.0000
# 2 18.6826 34.3760 11.6731 0.0000 0.0000 0.0000
# 3 38.9438 11.6731 65.8403 0.0000 0.0000 0.0000
# 4 0.0000 0.0000 0.0000 22.8339 0.0000 0.0000
# 5 0.0000 0.0000 0.0000 0.0000 5.7636 0.0000
# 6 0.0000 0.0000 0.0000 0.0000 0.0000 16.4993
#
#
#
# Elastic Compliance Matrix: (Units=1/GPa)
#
#
# Indices 1 2 3 4 5 6 
#
# 1 0.028727 -0.010473 -0.015135 0.000000 0.000000 0.000000
# 2 -0.010473 0.034772 0.000030 0.000000 0.000000 0.000000
# 3 -0.015135 0.000030 0.024135 0.000000 0.000000 0.000000
# 4 0.000000 0.000000 0.000000 0.043795 0.000000 0.000000
# 5 0.000000 0.000000 0.000000 0.000000 0.173501 0.000000
# 6 0.000000 0.000000 0.000000 0.000000 0.000000 0.060609
#
#
# Mechanical properties :
#
#
# Convention : Reuss Voigt Hill
#
# Bulk Modulus (GPa) = 27.41400 33.43936 30.42668
# Shear Modulus (GPa) = 11.65895 15.22307 13.44101
#
# Velocity S-wave (km/s) = 2.49832 2.85476 2.68247
# Velocity P-wave (km/s) = 4.79565 5.36358 5.08755
#
# Compressibility (1/GPa) = 0.03647772
#
# Stress axis : x y z
#
# Youngs Moduli (GPa) = 34.81004 28.75884 41.43326
#
# Poissons Ratio (x) = 0.30120 0.62710
# Poissons Ratio (y) = 0.36458 -0.00124
# Poissons Ratio (z) = 0.52685 -0.00086
#
# Static dielectric constant tensor:
#      x y z
#    x 1.662640 0.000000 0.000000 
#    y 0.000000 1.644180 0.000000 
#    z 0.000000 0.000000 1.630480 
# 
# From -- ./inp_files/34229.got.cif
#   From: 2010.05.17/outbox.cif.g08.bks.cpg/sg67_18_cif.got.tgz:34229.got - 2010.06.03 18:28:57.
