data_PCOD9502541
_publ_section_title
;
Structure prediction by ZEFSAII (Michael W. Deem and Ramdas Pophale) SiO2 
 PCOD9502541
Probable space group: C M M A
;
_chemical_formula_sum "Si O2"
_cell_formula_units_Z 96
_cell_length_a 27.968985
_cell_length_b 8.620316
_cell_length_c 24.260846
_cell_angle_alpha 90.000000
_cell_angle_beta 90.000000
_cell_angle_gamma 90.000000
_cell_volume 5849.326093
_symmetry_space_group_name_H-M "C M M A"
_symmetry_group_IT_number 67
_symmetry_cell_setting 'orthorhombic'
loop_
_space_group_symop_operation_xyz
x,y,z
-x,1/2-y,z
x,-y,-z
-x,1/2+y,-z
-x,-y,-z
x,1/2+y,-z
-x,y,z
x,1/2-y,z
1/2+x,1/2+y,z
1/2-x,-y,z
1/2+x,1/2-y,-z
1/2-x,y,-z
1/2-x,1/2-y,-z
1/2+x,y,-z
1/2-x,1/2+y,z
1/2+x,-y,z
loop_
_atom_site_type_symbol
_atom_site_label
_atom_site_fract_x
_atom_site_fract_y
_atom_site_fract_z
Si Si1 0.444691 0.436060 0.725899
Si Si2 0.696620 0.935709 0.439915
Si Si3 0.443849 0.935728 0.060488
Si Si4 0.606608 0.935279 0.832774
Si Si5 0.854891 0.064606 0.665786
Si Si6 0.697378 0.935678 0.226564
O O1 0.500000 0.472352 0.715226
O O2 0.438569 0.250000 0.725564
O O3 0.428830 0.498748 0.785706
O O4 0.407977 0.510896 0.682779
O O5 0.698079 0.750000 0.441015
O O6 0.682631 0.000000 0.500000
O O7 0.750000 0.000000 0.428653
O O8 0.662252 0.995773 0.391968
O O9 0.500000 0.972719 0.070590
O O10 0.438754 0.750000 0.061465
O O11 0.412245 0.010838 0.108174
O O12 0.431767 0.000000 0.000000
O O13 0.608011 0.750000 0.828848
O O14 0.658390 0.003679 0.817139
O O15 0.851805 0.250000 0.665374
O O16 0.820892 0.998884 0.714327
O O17 0.697407 0.750000 0.227698
O O18 0.750000 0.000000 0.215373
#
# Coordination Sequence:
#
# PCOD9502541 Si02
#       6
#    16  16  16  16  16  16
#     4  10  20  34  52  75 103 135 170 209 253 299
#     4  11  21  35  53  76 104 134 169 207 251 299
#     4  10  20  34  52  75 103 135 170 209 253 299
#     4  11  21  33  51  76 104 135 170 207 251 301
#     4  11  21  34  52  76 104 135 170 207 251 300
#     4  11  21  35  53  75 103 134 169 209 253 299
#
# _framework density 16.412146
#
# number of rings (size 3 to 8) (size 9 to 14) (size 15 to 20)
#    0.000    1.333    0.000   10.500    0.000    4.333 
#    0.000    0.000    0.000    1.000    0.000    3.500 
#    0.000    0.000    0.000    0.000    0.000    0.000 
#
# Total GULP energy -268271.499955 kJ/mol
# GULP energy per Si atom -5588.989582 kJ/mol
# Density = 1.637479 g / cm^3
# Si number density = 16.412146 Si / 1000 Ang^3
#
#
#
# Elastic Constant Matrix: (Units=GPa)
#
#
# Indices 1 2 3 4 5 6 
#
# 1 116.7147 66.7340 86.1139 0.0000 0.0000 0.0000
# 2 66.7340 159.7131 67.8371 0.0000 0.0000 0.0000
# 3 86.1139 67.8371 136.4994 0.0000 0.0000 0.0000
# 4 0.0000 0.0000 0.0000 31.8880 0.0000 0.0000
# 5 0.0000 0.0000 0.0000 0.0000 17.3247 0.0000
# 6 0.0000 0.0000 0.0000 0.0000 0.0000 27.5944
#
#
#
# Elastic Compliance Matrix: (Units=1/GPa)
#
#
# Indices 1 2 3 4 5 6 
#
# 1 0.017289 -0.003285 -0.009275 0.000000 0.000000 0.000000
# 2 -0.003285 0.008561 -0.002182 0.000000 0.000000 0.000000
# 3 -0.009275 -0.002182 0.014262 0.000000 0.000000 0.000000
# 4 0.000000 0.000000 0.000000 0.031360 0.000000 0.000000
# 5 0.000000 0.000000 0.000000 0.000000 0.057721 0.000000
# 6 0.000000 0.000000 0.000000 0.000000 0.000000 0.036239
#
#
# Mechanical properties :
#
#
# Convention : Reuss Voigt Hill
#
# Bulk Modulus (GPa) = 94.09035 94.92191 94.50613
# Shear Modulus (GPa) = 25.19430 28.17757 26.68593
#
# Velocity S-wave (km/s) = 3.92229 4.14801 4.03673
# Velocity P-wave (km/s) = 8.82987 8.99462 8.91263
#
# Compressibility (1/GPa) = 0.01062808
#
# Stress axis : x y z
#
# Youngs Moduli (GPa) = 57.84006 116.81519 70.11721
#
# Poissons Ratio (x) = 0.38369 0.65033
# Poissons Ratio (y) = 0.18998 0.15301
# Poissons Ratio (z) = 0.53646 0.25492
#
# Static dielectric constant tensor:
#      x y z
#    x 1.538830 0.000000 0.000000 
#    y 0.000000 1.545710 0.000000 
#    z 0.000000 0.000000 1.527630 
# 
# From -- ./inp_files/40936.got.cif
#   From: 2010.05.17/outbox.cif.g08.bks.cpg/sg67_21_cif.got.tgz:40936.got - 2010.06.03 18:28:57.
