data_PCOD9502899
_publ_section_title
;
Structure prediction by ZEFSAII (Michael W. Deem and Ramdas Pophale) SiO2 
 PCOD9502899
Probable space group: C M M A
;
_chemical_formula_sum "Si O2"
_cell_formula_units_Z 96
_cell_length_a 8.851764
_cell_length_b 19.005926
_cell_length_c 31.558559
_cell_angle_alpha 90.000000
_cell_angle_beta 90.000000
_cell_angle_gamma 90.000000
_cell_volume 5309.284834
_symmetry_space_group_name_H-M "C M M A"
_symmetry_group_IT_number 67
_symmetry_cell_setting 'orthorhombic'
loop_
_space_group_symop_operation_xyz
x,y,z
-x,1/2-y,z
x,-y,-z
-x,1/2+y,-z
-x,-y,-z
x,1/2+y,-z
-x,y,z
x,1/2-y,z
1/2+x,1/2+y,z
1/2-x,-y,z
1/2+x,1/2-y,-z
1/2-x,y,-z
1/2-x,1/2-y,-z
1/2+x,y,-z
1/2-x,1/2+y,z
1/2+x,-y,z
loop_
_atom_site_type_symbol
_atom_site_label
_atom_site_fract_x
_atom_site_fract_y
_atom_site_fract_z
Si Si1 0.681803 0.577885 0.373126
Si Si2 0.682667 0.831993 0.703419
Si Si3 0.318891 0.922803 0.880279
Si Si4 0.818248 0.331277 0.454615
Si Si5 0.818422 0.076887 0.783990
Si Si6 0.321981 0.834116 0.044660
O O1 0.500000 0.574280 0.371471
O O2 0.750000 0.500000 0.371360
O O3 0.742407 0.624054 0.334189
O O4 0.727031 0.617506 0.416586
O O5 0.500000 0.836378 0.699625
O O6 0.725157 0.750000 0.701709
O O7 0.726202 0.867712 0.748078
O O8 0.500000 0.925839 0.882831
O O9 0.276278 0.901941 0.831997
O O10 0.255523 0.871226 0.915697
O O11 0.250000 0.000000 0.887325
O O12 0.773031 0.250000 0.445621
O O13 0.750000 0.351267 0.500000
O O14 0.000000 0.332709 0.457591
O O15 0.000000 0.070538 0.782893
O O16 0.750000 0.000000 0.775202
O O17 0.500000 0.849331 0.044454
O O18 0.301304 0.750000 0.047837
O O19 0.250000 0.857216 0.000000
#
# Coordination Sequence:
#
# PCOD9502899 Si02
#       6
#    16  16  16  16  16  16
#     4  11  23  38  56  80 111 145 183 226 272 321
#     4  10  21  37  57  82 111 143 181 223 268 321
#     4  10  20  35  56  81 110 143 179 220 267 318
#     4   9  19  36  57  80 107 140 178 221 269 321
#     4   9  19  35  55  79 108 142 178 219 266 317
#     4  10  21  37  56  79 108 141 179 223 270 321
#
# _framework density 18.081530999999998
#
# number of rings (size 3 to 8) (size 9 to 14) (size 15 to 20)
#    0.000    2.167    0.000    2.500    0.000    7.333 
#    0.000    6.667    0.000    0.000    0.000    0.000 
#    0.000    0.000    0.000    0.000    0.000    0.000 
#
# Total GULP energy -268009.290662 kJ/mol
# GULP energy per Si atom -5583.526889 kJ/mol
# Density = 1.804038 g / cm^3
# Si number density = 18.081531 Si / 1000 Ang^3
#
#
#
# Elastic Constant Matrix: (Units=GPa)
#
#
# Indices 1 2 3 4 5 6 
#
# 1 46.7743 56.9405 65.4035 0.0000 0.0000 0.0000
# 2 56.9405 122.4989 112.3931 0.0000 0.0000 0.0000
# 3 65.4035 112.3931 170.0021 0.0000 0.0000 0.0000
# 4 0.0000 0.0000 0.0000 36.0057 0.0000 0.0000
# 5 0.0000 0.0000 0.0000 0.0000 28.6391 0.0000
# 6 0.0000 0.0000 0.0000 0.0000 0.0000 25.8125
#
#
#
# Elastic Compliance Matrix: (Units=1/GPa)
#
#
# Indices 1 2 3 4 5 6 
#
# 1 0.056442 -0.016046 -0.011106 0.000000 0.000000 0.000000
# 2 -0.016046 0.025312 -0.010561 0.000000 0.000000 0.000000
# 3 -0.011106 -0.010561 0.017137 0.000000 0.000000 0.000000
# 4 0.000000 0.000000 0.000000 0.027773 0.000000 0.000000
# 5 0.000000 0.000000 0.000000 0.000000 0.034917 0.000000
# 6 0.000000 0.000000 0.000000 0.000000 0.000000 0.038741
#
#
# Mechanical properties :
#
#
# Convention : Reuss Voigt Hill
#
# Bulk Modulus (GPa) = 42.61674 89.86106 66.23890
# Shear Modulus (GPa) = 17.63233 25.06066 21.34650
#
# Velocity S-wave (km/s) = 3.12614 3.72692 3.43967
# Velocity P-wave (km/s) = 6.05398 8.26592 7.24487
#
# Compressibility (1/GPa) = 0.02346496
#
# Stress axis : x y z
#
# Youngs Moduli (GPa) = 17.71731 39.50772 58.35217
#
# Poissons Ratio (x) = 0.63392 0.64808
# Poissons Ratio (y) = 0.28428 0.61626
# Poissons Ratio (z) = 0.19677 0.41724
#
# Static dielectric constant tensor:
#      x y z
#    x 1.605670 0.000000 0.000000 
#    y 0.000000 1.591000 0.000000 
#    z 0.000000 0.000000 1.607230 
# 
# From -- ./inp_files/43424.got.cif
#   From: 2010.05.17/outbox.cif.g08.bks.cpg/sg67_22_cif.got.tgz:43424.got - 2010.06.03 18:28:57.
