data_PCOD9502969
_publ_section_title
;
Structure prediction by ZEFSAII (Michael W. Deem and Ramdas Pophale) SiO2 
 PCOD9502969
Probable space group: C M M A
;
_chemical_formula_sum "Si O2"
_cell_formula_units_Z 96
_cell_length_a 14.741660
_cell_length_b 16.707646
_cell_length_c 20.568516
_cell_angle_alpha 90.000000
_cell_angle_beta 90.000000
_cell_angle_gamma 90.000000
_cell_volume 5065.993337
_symmetry_space_group_name_H-M "C M M A"
_symmetry_group_IT_number 67
_symmetry_cell_setting 'orthorhombic'
loop_
_space_group_symop_operation_xyz
x,y,z
-x,1/2-y,z
x,-y,-z
-x,1/2+y,-z
-x,-y,-z
x,1/2+y,-z
-x,y,z
x,1/2-y,z
1/2+x,1/2+y,z
1/2-x,-y,z
1/2+x,1/2-y,-z
1/2-x,y,-z
1/2-x,1/2-y,-z
1/2+x,y,-z
1/2-x,1/2+y,z
1/2+x,-y,z
loop_
_atom_site_type_symbol
_atom_site_label
_atom_site_fract_x
_atom_site_fract_y
_atom_site_fract_z
Si Si1 0.000000 0.566489 0.213776
Si Si2 0.500000 0.059478 0.438628
Si Si3 0.812694 0.346106 0.561950
Si Si4 0.000000 0.941310 0.682787
Si Si5 0.208245 0.589122 0.207646
Si Si6 0.683740 0.342901 0.678348
Si Si7 0.500000 0.159898 0.085874
Si Si8 0.300007 0.156409 0.062705
O O1 0.000000 0.478860 0.244854
O O2 0.102551 0.596818 0.231383
O O3 0.000000 0.588362 0.137798
O O4 0.409419 0.112197 0.441974
O O5 0.500000 0.000000 0.500000
O O6 0.500000 0.011500 0.370665
O O7 0.824935 0.250000 0.564546
O O8 0.750000 0.364896 0.500000
O O9 0.756677 0.372363 0.625417
O O10 0.909398 0.890548 0.673510
O O11 0.250000 0.500000 0.215858
O O12 0.270272 0.645337 0.251784
O O13 0.212915 0.613349 0.131803
O O14 0.666000 0.250000 0.665052
O O15 0.500000 0.250000 0.118502
O O16 0.407146 0.155286 0.047630
O O17 0.273073 0.250000 0.070858
O O18 0.250000 0.122153 0.000000
#
# Coordination Sequence:
#
# PCOD9502969 Si02
#       8
#     8   8  16   8  16  16   8  16
#     4  10  20  35  57  85 113 156 188 242 304 345
#     4  12  25  38  62  94 121 156 201 251 308 357
#     4  10  23  43  64  88 123 162 204 251 301 360
#     4  12  23  39  60  86 122 156 197 250 300 362
#     4  11  21  37  60  85 121 153 197 249 300 356
#     4  11  24  41  62  87 118 162 203 245 301 362
#     4   8  16  32  55  83 116 149 192 243 293 354
#     4   9  18  34  56  83 114 152 197 241 293 355
#
# _framework density 18.949887
#
# number of rings (size 3 to 8) (size 9 to 14) (size 15 to 20)
#    0.000    1.667    1.667    3.000    0.000    2.667 
#    0.000    6.667    0.000    5.000    0.000    0.000 
#    0.000    0.000    0.000    0.000    0.000    0.000 
#
# Total GULP energy -267654.006057 kJ/mol
# GULP energy per Si atom -5576.125126 kJ/mol
# Density = 1.890676 g / cm^3
# Si number density = 18.949887 Si / 1000 Ang^3
#
#
#
# Elastic Constant Matrix: (Units=GPa)
#
#
# Indices 1 2 3 4 5 6 
#
# 1 179.4708 53.6413 62.2616 0.0000 0.0000 0.0000
# 2 53.6413 54.3766 26.5273 0.0000 0.0000 0.0000
# 3 62.2616 26.5273 86.9294 0.0000 0.0000 0.0000
# 4 0.0000 0.0000 0.0000 19.9305 0.0000 0.0000
# 5 0.0000 0.0000 0.0000 0.0000 27.0404 0.0000
# 6 0.0000 0.0000 0.0000 0.0000 0.0000 24.3069
#
#
#
# Elastic Compliance Matrix: (Units=1/GPa)
#
#
# Indices 1 2 3 4 5 6 
#
# 1 0.009179 -0.006870 -0.004478 0.000000 0.000000 0.000000
# 2 -0.006870 0.026749 -0.003242 0.000000 0.000000 0.000000
# 3 -0.004478 -0.003242 0.015700 0.000000 0.000000 0.000000
# 4 0.000000 0.000000 0.000000 0.050174 0.000000 0.000000
# 5 0.000000 0.000000 0.000000 0.000000 0.036982 0.000000
# 6 0.000000 0.000000 0.000000 0.000000 0.000000 0.041141
#
#
# Mechanical properties :
#
#
# Convention : Reuss Voigt Hill
#
# Bulk Modulus (GPa) = 44.54721 67.29300 55.92011
# Shear Modulus (GPa) = 23.08542 26.14533 24.61537
#
# Velocity S-wave (km/s) = 3.49411 3.71847 3.60804
# Velocity P-wave (km/s) = 6.31168 7.35011 6.85060
#
# Compressibility (1/GPa) = 0.02244809
#
# Stress axis : x y z
#
# Youngs Moduli (GPa) = 108.94789 37.38424 63.69456
#
# Poissons Ratio (x) = 0.25684 0.28520
# Poissons Ratio (y) = 0.74850 0.20650
# Poissons Ratio (z) = 0.48782 0.12120
#
# Static dielectric constant tensor:
#      x y z
#    x 1.649650 0.000000 0.000000 
#    y 0.000000 1.667880 0.000000 
#    z 0.000000 0.000000 1.652970 
# 
# From -- ./inp_files/38599.got.cif
#   From: 2010.05.17/outbox.cif.g08.bks.cpg/sg67_20_cif.got.tgz:38599.got - 2010.06.03 18:28:57.
