data_PCOD9502921
_publ_section_title
;
Structure prediction by ZEFSAII (Michael W. Deem and Ramdas Pophale) SiO2 
 PCOD9502921
Probable space group: C M M A
;
_chemical_formula_sum "Si O2"
_cell_formula_units_Z 112
_cell_length_a 34.203509
_cell_length_b 16.056678
_cell_length_c 11.797389
_cell_angle_alpha 90.000000
_cell_angle_beta 90.000000
_cell_angle_gamma 90.000000
_cell_volume 6479.063872
_symmetry_space_group_name_H-M "C M M A"
_symmetry_group_IT_number 67
_symmetry_cell_setting 'orthorhombic'
loop_
_space_group_symop_operation_xyz
x,y,z
-x,1/2-y,z
x,-y,-z
-x,1/2+y,-z
-x,-y,-z
x,1/2+y,-z
-x,y,z
x,1/2-y,z
1/2+x,1/2+y,z
1/2-x,-y,z
1/2+x,1/2-y,-z
1/2-x,y,-z
1/2-x,1/2-y,-z
1/2+x,y,-z
1/2-x,1/2+y,z
1/2+x,-y,z
loop_
_atom_site_type_symbol
_atom_site_label
_atom_site_fract_x
_atom_site_fract_y
_atom_site_fract_z
Si Si1 0.204719 0.348316 0.490512
Si Si2 0.602481 0.153668 0.869288
Si Si3 0.176400 0.419519 0.258764
Si Si4 0.828021 0.884418 0.262175
Si Si5 0.749035 0.152860 0.868898
Si Si6 0.405910 0.657620 0.861914
Si Si7 0.544521 0.495905 0.862751
O O1 0.206273 0.250000 0.463771
O O2 0.250000 0.377623 0.500000
O O3 0.182480 0.393304 0.388762
O O4 0.183350 0.361583 0.609702
O O5 0.591702 0.250000 0.846892
O O6 0.642549 0.131209 0.805451
O O7 0.570125 0.085457 0.833602
O O8 0.606780 0.145206 0.006114
O O9 0.167344 0.516604 0.251499
O O10 0.217501 0.400565 0.198250
O O11 0.791459 0.856744 0.185771
O O12 0.867596 0.845161 0.215512
O O13 0.762811 0.250000 0.138802
O O14 0.750000 0.128655 0.000000
O O15 0.424162 0.750000 0.855125
O O16 0.434096 0.581584 0.828719
O O17 0.500000 0.490651 0.821143
O O18 0.543076 0.500000 0.000000
#
# Coordination Sequence:
#
# PCOD9502921 Si02
#       7
#    16  16  16  16  16  16  16
#     4  11  23  39  57  75 102 143 190 238 283 325
#     4  10  20  35  56  83 116 151 186 227 276 330
#     4  12  23  36  55  78 108 145 188 233 279 325
#     4  12  23  36  55  78 108 145 188 233 279 325
#     4  11  23  36  51  74 105 145 189 228 274 329
#     4  10  20  35  56  83 116 151 186 227 276 330
#     4   9  18  34  56  84 117 148 180 222 275 337
#
# _framework density 17.286446999999999
#
# number of rings (size 3 to 8) (size 9 to 14) (size 15 to 20)
#    0.000    1.286    2.857    4.286    0.000    5.714 
#    0.000    2.857    0.000    0.000    0.000    2.000 
#    0.000    3.429    0.000    0.000    0.000    0.000 
#
# Total GULP energy -312820.098424 kJ/mol
# GULP energy per Si atom -5586.073186 kJ/mol
# Density = 1.724710 g / cm^3
# Si number density = 17.286447 Si / 1000 Ang^3
#
#
#
# Elastic Constant Matrix: (Units=GPa)
#
#
# Indices 1 2 3 4 5 6 
#
# 1 93.9325 30.0790 16.2085 0.0000 0.0000 0.0000
# 2 30.0790 90.8157 14.5846 0.0000 0.0000 0.0000
# 3 16.2085 14.5846 71.5509 0.0000 0.0000 0.0000
# 4 0.0000 0.0000 0.0000 24.7502 0.0000 0.0000
# 5 0.0000 0.0000 0.0000 0.0000 -1.0961 0.0000
# 6 0.0000 0.0000 0.0000 0.0000 0.0000 18.7849
#
#
#
# Elastic Compliance Matrix: (Units=1/GPa)
#
#
# Indices 1 2 3 4 5 6 
#
# 1 0.012180 -0.003713 -0.002002 0.000000 0.000000 0.000000
# 2 -0.003713 0.012516 -0.001710 0.000000 0.000000 0.000000
# 3 -0.002002 -0.001710 0.014778 0.000000 0.000000 0.000000
# 4 0.000000 0.000000 0.000000 0.040404 0.000000 0.000000
# 5 0.000000 0.000000 0.000000 0.000000 -0.912360 0.000000
# 6 0.000000 0.000000 0.000000 0.000000 0.000000 0.053234
#
#
# Mechanical properties :
#
#
# Convention : Reuss Voigt Hill
#
# Bulk Modulus (GPa) = 40.61113 42.00483 41.30798
# Shear Modulus (GPa) = -6.61210 21.51629 7.45209
#
# Velocity S-wave (km/s) = -1.95789 3.53185 2.07853
# Velocity P-wave (km/s) = 4.29336 6.40187 5.45055
#
# Compressibility (1/GPa) = 0.02462379
#
# Stress axis : x y z
#
# Youngs Moduli (GPa) = 82.09953 79.90018 67.66698
#
# Poissons Ratio (x) = 0.29664 0.13550
# Poissons Ratio (y) = 0.30481 0.11572
# Poissons Ratio (z) = 0.16440 0.13664
#
# Static dielectric constant tensor:
#      x y z
#    x 1.559650 0.000000 0.000000 
#    y 0.000000 1.616340 0.000000 
#    z 0.000000 0.000000 1.562580 
# 
# From -- ./inp_files/18650.got.cif
#   From: 2010.05.17/outbox.cif.g08.bks.cpg/sg67_10_cif.got.tgz:18650.got - 2010.06.03 18:28:57.
