data_PCOD9502483
_publ_section_title
;
Structure prediction by ZEFSAII (Michael W. Deem and Ramdas Pophale) SiO2 
 PCOD9502483
Probable space group: C M M A
;
_chemical_formula_sum "Si O2"
_cell_formula_units_Z 112
_cell_length_a 14.702140
_cell_length_b 23.628110
_cell_length_c 13.795325
_cell_angle_alpha 90.000000
_cell_angle_beta 90.000000
_cell_angle_gamma 90.000000
_cell_volume 4792.272161
_symmetry_space_group_name_H-M "C M M A"
_symmetry_group_IT_number 67
_symmetry_cell_setting 'orthorhombic'
loop_
_space_group_symop_operation_xyz
x,y,z
-x,1/2-y,z
x,-y,-z
-x,1/2+y,-z
-x,-y,-z
x,1/2+y,-z
-x,y,z
x,1/2-y,z
1/2+x,1/2+y,z
1/2-x,-y,z
1/2+x,1/2-y,-z
1/2-x,y,-z
1/2-x,1/2-y,-z
1/2+x,y,-z
1/2-x,1/2+y,z
1/2+x,-y,z
loop_
_atom_site_type_symbol
_atom_site_label
_atom_site_fract_x
_atom_site_fract_y
_atom_site_fract_z
Si Si1 0.891748 0.517482 0.392710
Si Si2 0.602104 0.182942 0.580636
Si Si3 0.183710 0.954122 0.790752
Si Si4 0.607496 0.848330 0.637884
Si Si5 0.231345 0.664293 0.758276
Si Si6 0.110178 0.812399 0.943516
Si Si7 0.600781 0.436479 0.979178
O O1 0.859955 0.500000 0.500000
O O2 0.848031 0.477804 0.311653
O O3 0.876809 0.583705 0.368994
O O4 0.000000 0.508607 0.390086
O O5 0.500000 0.158562 0.590623
O O6 0.597927 0.250000 0.596277
O O7 0.631119 0.172858 0.470296
O O8 0.667654 0.160725 0.663200
O O9 0.245985 0.899596 0.789075
O O10 0.102290 0.938222 0.861904
O O11 0.250000 0.000000 0.834501
O O12 0.500000 0.838527 0.654348
O O13 0.671089 0.817592 0.716822
O O14 0.171577 0.689575 0.845587
O O15 0.123692 0.750000 0.991535
O O16 0.136102 0.871757 0.998045
O O17 0.000000 0.816680 0.923544
O O18 0.500000 0.436949 0.022847
O O19 0.637496 0.500000 0.000000
#
# Coordination Sequence:
#
# PCOD9502483 Si02
#       7
#    16  16  16  16  16  16  16
#     4  10  20  34  51  72 105 150 195 242 298 355
#     4  10  21  35  51  73 102 138 189 251 306 356
#     4  11  21  34  52  81 112 148 189 240 295 349
#     4  10  21  35  47  67 102 149 200 249 298 353
#     4  11  20  32  51  76 108 149 195 241 297 362
#     4   9  18  33  57  90 124 153 187 239 303 367
#     4   9  19  36  59  89 123 155 191 238 300 370
#
# _framework density 23.37096
#
# number of rings (size 3 to 8) (size 9 to 14) (size 15 to 20)
#    0.000    2.000    1.429    2.571    0.000    6.286 
#    0.000    0.000    0.000    0.000    0.000   10.000 
#    0.000   12.000    0.000    0.000    0.000    0.286 
#
# Total GULP energy -311994.510411 kJ/mol
# GULP energy per Si atom -5571.330543 kJ/mol
# Density = 2.331777 g / cm^3
# Si number density = 23.370960 Si / 1000 Ang^3
#
#
#
# Elastic Constant Matrix: (Units=GPa)
#
#
# Indices 1 2 3 4 5 6 
#
# 1 65.8630 15.7225 9.5898 0.0000 0.0000 0.0000
# 2 15.7225 158.8382 15.7291 0.0000 0.0000 0.0000
# 3 9.5898 15.7291 36.0552 0.0000 0.0000 0.0000
# 4 0.0000 0.0000 0.0000 23.6705 0.0000 0.0000
# 5 0.0000 0.0000 0.0000 0.0000 13.8176 0.0000
# 6 0.0000 0.0000 0.0000 0.0000 0.0000 -114.6979
#
#
#
# Elastic Compliance Matrix: (Units=1/GPa)
#
#
# Indices 1 2 3 4 5 6 
#
# 1 0.016016 -0.001216 -0.003729 0.000000 0.000000 0.000000
# 2 -0.001216 0.006672 -0.002587 0.000000 0.000000 0.000000
# 3 -0.003729 -0.002587 0.029856 0.000000 0.000000 0.000000
# 4 0.000000 0.000000 0.000000 0.042247 0.000000 0.000000
# 5 0.000000 0.000000 0.000000 0.000000 0.072372 0.000000
# 6 0.000000 0.000000 0.000000 0.000000 0.000000 -0.008719
#
#
# Mechanical properties :
#
#
# Convention : Reuss Voigt Hill
#
# Bulk Modulus (GPa) = 26.68175 38.09326 32.38751
# Shear Modulus (GPa) = 26.88128 -0.79430 13.04349
#
# Velocity S-wave (km/s) = 3.39514 -0.58361 2.36499
# Velocity P-wave (km/s) = 5.17791 3.98505 4.62014
#
# Compressibility (1/GPa) = 0.03747880
#
# Stress axis : x y z
#
# Youngs Moduli (GPa) = 62.43621 149.87336 33.49421
#
# Poissons Ratio (x) = 0.18225 0.12492
# Poissons Ratio (y) = 0.07593 0.08666
# Poissons Ratio (z) = 0.23285 0.38777
#
# Static dielectric constant tensor:
#      x y z
#    x 3.038410 0.000000 0.000000 
#    y 0.000000 1.954310 0.000000 
#    z 0.000000 0.000000 1.871350 
# 
# From -- ./inp_files/27545.got.cif
#   From: 2010.05.17/outbox.cif.g08.bks.cpg/sg67_14_cif.got.tgz:27545.got - 2010.06.03 18:28:57.
