data_PCOD9502840
_publ_section_title
;
Structure prediction by ZEFSAII (Michael W. Deem and Ramdas Pophale) SiO2 
 PCOD9502840
Probable space group: C M M A
;
_chemical_formula_sum "Si O2"
_cell_formula_units_Z 64
_cell_length_a 16.388834
_cell_length_b 24.195767
_cell_length_c 8.312474
_cell_angle_alpha 90.000000
_cell_angle_beta 90.000000
_cell_angle_gamma 90.000000
_cell_volume 3296.231839
_symmetry_space_group_name_H-M "C M M A"
_symmetry_group_IT_number 67
_symmetry_cell_setting 'orthorhombic'
loop_
_space_group_symop_operation_xyz
x,y,z
-x,1/2-y,z
x,-y,-z
-x,1/2+y,-z
-x,-y,-z
x,1/2+y,-z
-x,y,z
x,1/2-y,z
1/2+x,1/2+y,z
1/2-x,-y,z
1/2+x,1/2-y,-z
1/2-x,y,-z
1/2-x,1/2-y,-z
1/2+x,y,-z
1/2-x,1/2+y,z
1/2+x,-y,z
loop_
_atom_site_type_symbol
_atom_site_label
_atom_site_fract_x
_atom_site_fract_y
_atom_site_fract_z
Si Si1 0.191577 0.092820 0.629963
Si Si2 0.186806 0.651549 0.878216
Si Si3 0.097342 0.443072 0.917911
Si Si4 0.402859 0.312423 0.569764
O O1 0.250000 0.064409 0.500000
O O2 0.253507 0.117569 0.760953
O O3 0.128542 0.058115 0.734632
O O4 0.144105 0.142462 0.538287
O O5 0.129701 0.683775 0.753387
O O6 0.250000 0.681541 0.000000
O O7 0.133606 0.608687 0.983121
O O8 0.000000 0.440124 0.922442
O O9 0.124798 0.500000 0.000000
O O10 0.500000 0.322385 0.565534
O O11 0.386777 0.250000 0.510204
#
# Coordination Sequence:
#
# PCOD9502840 Si02
#       4
#    16  16  16  16
#     4   9  19  35  55  80 109 141 178 221 266 318
#     4   9  19  34  53  78 108 141 179 225 269 316
#     4  10  20  36  58  81 109 144 180 223 272 320
#     4  10  20  35  55  78 108 145 182 224 272 321
#
# _framework density 19.416111000000001
#
# number of rings (size 3 to 8) (size 9 to 14) (size 15 to 20)
#    0.000    2.500    0.000    1.500    0.000    9.500 
#    0.000   12.500    0.000   27.000    0.000    0.000 
#    0.000    0.000    0.000    0.000    0.000    0.000 
#
# Total GULP energy -178315.478120 kJ/mol
# GULP energy per Si atom -5572.358691 kJ/mol
# Density = 1.937192 g / cm^3
# Si number density = 19.416111 Si / 1000 Ang^3
#
#
#
# Elastic Constant Matrix: (Units=GPa)
#
#
# Indices 1 2 3 4 5 6 
#
# 1 81.8213 31.3257 35.1188 0.0000 0.0000 0.0000
# 2 31.3257 72.8057 30.0253 0.0000 0.0000 0.0000
# 3 35.1188 30.0253 110.4595 0.0000 0.0000 0.0000
# 4 0.0000 0.0000 0.0000 21.2827 0.0000 0.0000
# 5 0.0000 0.0000 0.0000 0.0000 48.0702 0.0000
# 6 0.0000 0.0000 0.0000 0.0000 0.0000 -5.4800
#
#
#
# Elastic Compliance Matrix: (Units=1/GPa)
#
#
# Indices 1 2 3 4 5 6 
#
# 1 0.015793 -0.005321 -0.003575 0.000000 0.000000 0.000000
# 2 -0.005321 0.017262 -0.003000 0.000000 0.000000 0.000000
# 3 -0.003575 -0.003000 0.011005 0.000000 0.000000 0.000000
# 4 0.000000 0.000000 0.000000 0.046986 0.000000 0.000000
# 5 0.000000 0.000000 0.000000 0.000000 0.020803 0.000000
# 6 0.000000 0.000000 0.000000 0.000000 0.000000 -0.182482
#
#
# Mechanical properties :
#
#
# Convention : Reuss Voigt Hill
#
# Bulk Modulus (GPa) = 49.33907 50.89178 50.11543
# Shear Modulus (GPa) = -124.74045 24.01569 -50.36238
#
# Velocity S-wave (km/s) = -8.02405 3.52077 -5.09851
# Velocity P-wave (km/s) = 7.77049 6.54185 2.96520
#
# Compressibility (1/GPa) = 0.02026791
#
# Stress axis : x y z
#
# Youngs Moduli (GPa) = 63.31795 57.93059 90.86572
#
# Poissons Ratio (x) = 0.30825 0.32483
# Poissons Ratio (y) = 0.33692 0.27264
# Poissons Ratio (z) = 0.22635 0.17382
#
# Static dielectric constant tensor:
#      x y z
#    x 1.682880 0.000000 0.000000 
#    y 0.000000 1.701280 0.000000 
#    z 0.000000 0.000000 1.701350 
# 
# From -- ./inp_files/7979.got.cif
#   From: 2010.05.17/outbox.cif.g08.bks.cpg/sg67_4_cif.got.tgz:7979.got - 2010.06.03 18:28:57.
