data_PCOD9502057
_publ_section_title
;
Structure prediction by ZEFSAII (Michael W. Deem and Ramdas Pophale) SiO2 
 PCOD9502057
Probable space group: C M M A
;
_chemical_formula_sum "Si O2"
_cell_formula_units_Z 116
_cell_length_a 17.140946
_cell_length_b 17.503526
_cell_length_c 19.036125
_cell_angle_alpha 90.000000
_cell_angle_beta 90.000000
_cell_angle_gamma 90.000000
_cell_volume 5711.351361
_symmetry_space_group_name_H-M "C M M A"
_symmetry_group_IT_number 67
_symmetry_cell_setting 'orthorhombic'
loop_
_space_group_symop_operation_xyz
x,y,z
-x,1/2-y,z
x,-y,-z
-x,1/2+y,-z
-x,-y,-z
x,1/2+y,-z
-x,y,z
x,1/2-y,z
1/2+x,1/2+y,z
1/2-x,-y,z
1/2+x,1/2-y,-z
1/2-x,y,-z
1/2-x,1/2-y,-z
1/2+x,y,-z
1/2-x,1/2+y,z
1/2+x,-y,z
loop_
_atom_site_type_symbol
_atom_site_label
_atom_site_fract_x
_atom_site_fract_y
_atom_site_fract_z
Si Si1 0.408958 0.338558 0.524267
Si Si2 0.000000 0.250000 0.179469
Si Si3 0.634075 0.617647 0.184650
Si Si4 0.661405 0.416884 0.397506
Si Si5 0.916079 0.341074 0.724620
Si Si6 0.334442 0.591444 0.349225
Si Si7 0.691045 0.338415 0.150150
Si Si8 0.843958 0.985428 0.078606
O O1 0.500000 0.354864 0.511433
O O2 0.393522 0.250000 0.506623
O O3 0.354796 0.393356 0.477232
O O4 0.389747 0.353673 0.605682
O O5 0.931702 0.317905 0.180028
O O6 0.648274 0.595347 0.266491
O O7 0.716427 0.650636 0.155771
O O8 0.619626 0.542234 0.136628
O O9 0.596520 0.374942 0.351529
O O10 0.655060 0.505878 0.379200
O O11 0.745258 0.388679 0.369368
O O12 0.914850 0.250000 0.719423
O O13 0.846137 0.363301 0.775560
O O14 0.000000 0.365042 0.753989
O O15 0.672627 0.250000 0.136989
O O16 0.651288 0.396048 0.096112
O O17 0.750000 0.000000 0.080781
O O18 0.872523 0.000000 0.000000
#
# Coordination Sequence:
#
# PCOD9502057 Si02
#       8
#    16   4  16  16  16  16  16  16
#     4  11  26  43  60  84 124 165 216 285 351 412
#     4  12  28  44  66 106 140 188 240 282 338 418
#     4  11  23  43  68  97 142 180 233 281 336 414
#     4  11  22  41  61  91 121 165 223 273 343 406
#     4  10  20  34  60  93 126 160 210 269 330 393
#     4  11  25  39  65  91 122 173 218 281 332 411
#     4  10  19  38  68  99 132 177 220 278 334 406
#     4   9  20  41  69 103 137 179 228 279 338 410
#
# _framework density 20.31043
#
# number of rings (size 3 to 8) (size 9 to 14) (size 15 to 20)
#    0.000    1.517    2.069    2.483    5.793    5.517 
#    4.966    1.724    0.000    0.000    0.000    0.000 
#    0.000    0.000    0.000    0.000    0.000    0.000 
#
# Total GULP energy -323273.958406 kJ/mol
# GULP energy per Si atom -5573.688938 kJ/mol
# Density = 2.026420 g / cm^3
# Si number density = 20.310430 Si / 1000 Ang^3
#
#
#
# Elastic Constant Matrix: (Units=GPa)
#
#
# Indices 1 2 3 4 5 6 
#
# 1 90.5360 37.7381 24.2894 0.0000 0.0000 0.0000
# 2 37.7381 89.6488 65.0575 0.0000 0.0000 0.0000
# 3 24.2894 65.0575 127.7646 0.0000 0.0000 0.0000
# 4 0.0000 0.0000 0.0000 50.5899 0.0000 0.0000
# 5 0.0000 0.0000 0.0000 0.0000 5.2409 0.0000
# 6 0.0000 0.0000 0.0000 0.0000 0.0000 2.5764
#
#
#
# Elastic Compliance Matrix: (Units=1/GPa)
#
#
# Indices 1 2 3 4 5 6 
#
# 1 0.013417 -0.006022 0.000516 0.000000 0.000000 0.000000
# 2 -0.006022 0.020396 -0.009240 0.000000 0.000000 0.000000
# 3 0.000516 -0.009240 0.012434 0.000000 0.000000 0.000000
# 4 0.000000 0.000000 0.000000 0.019767 0.000000 0.000000
# 5 0.000000 0.000000 0.000000 0.000000 0.190807 0.000000
# 6 0.000000 0.000000 0.000000 0.000000 0.000000 0.388138
#
#
# Mechanical properties :
#
#
# Convention : Reuss Voigt Hill
#
# Bulk Modulus (GPa) = 59.69149 62.45771 61.07460
# Shear Modulus (GPa) = 7.35254 23.73906 15.54580
#
# Velocity S-wave (km/s) = 1.90471 3.42250 2.76961
# Velocity P-wave (km/s) = 5.85582 6.81442 6.35322
#
# Compressibility (1/GPa) = 0.01675281
#
# Stress axis : x y z
#
# Youngs Moduli (GPa) = 74.53092 49.03038 80.42435
#
# Poissons Ratio (x) = 0.29528 -0.04149
# Poissons Ratio (y) = 0.44885 0.74316
# Poissons Ratio (z) = -0.03845 0.45306
#
# Static dielectric constant tensor:
#      x y z
#    x 1.728260 0.000000 0.000000 
#    y 0.000000 1.724810 0.000000 
#    z 0.000000 0.000000 1.730680 
# 
# From -- ./inp_files/34329.got.cif
#   From: 2010.05.17/outbox.cif.g08.bks.cpg/sg67_18_cif.got.tgz:34329.got - 2010.06.03 18:28:57.
