data_PCOD9502322
_publ_section_title
;
Structure prediction by ZEFSAII (Michael W. Deem and Ramdas Pophale) SiO2 
 PCOD9502322
Probable space group: C M M A
;
_chemical_formula_sum "Si O2"
_cell_formula_units_Z 96
_cell_length_a 8.883658
_cell_length_b 19.501534
_cell_length_c 31.249361
_cell_angle_alpha 90.000000
_cell_angle_beta 90.000000
_cell_angle_gamma 90.000000
_cell_volume 5413.794251
_symmetry_space_group_name_H-M "C M M A"
_symmetry_group_IT_number 67
_symmetry_cell_setting 'orthorhombic'
loop_
_space_group_symop_operation_xyz
x,y,z
-x,1/2-y,z
x,-y,-z
-x,1/2+y,-z
-x,-y,-z
x,1/2+y,-z
-x,y,z
x,1/2-y,z
1/2+x,1/2+y,z
1/2-x,-y,z
1/2+x,1/2-y,-z
1/2-x,y,-z
1/2-x,1/2-y,-z
1/2+x,y,-z
1/2-x,1/2+y,z
1/2+x,-y,z
loop_
_atom_site_type_symbol
_atom_site_label
_atom_site_fract_x
_atom_site_fract_y
_atom_site_fract_z
Si Si1 0.180470 0.074645 0.705674
Si Si2 0.319394 0.074101 0.196407
Si Si3 0.673594 0.833510 0.544057
Si Si4 0.681225 0.169449 0.117611
Si Si5 0.678734 0.831389 0.366578
Si Si6 0.680548 0.927122 0.047040
O O1 0.223183 0.092548 0.754802
O O2 0.242848 0.128084 0.671575
O O3 0.000000 0.071410 0.703127
O O4 0.250000 0.000000 0.696871
O O5 0.500000 0.067397 0.195396
O O6 0.276741 0.130649 0.161518
O O7 0.250000 0.000000 0.186082
O O8 0.500000 0.854615 0.545785
O O9 0.677327 0.750000 0.543274
O O10 0.750000 0.857023 0.500000
O O11 0.759043 0.854381 0.587165
O O12 0.500000 0.161951 0.111717
O O13 0.715096 0.250000 0.119443
O O14 0.766029 0.131559 0.079217
O O15 0.500000 0.841573 0.365068
O O16 0.709292 0.750000 0.362589
O O17 0.500000 0.931860 0.044685
O O18 0.750000 0.000000 0.061897
O O19 0.750000 0.914859 0.000000
#
# Coordination Sequence:
#
# PCOD9502322 Si02
#       6
#    16  16  16  16  16  16
#     4  10  20  35  55  78 105 138 177 218 263 316
#     4   9  19  35  56  79 103 137 178 219 262 312
#     4   9  16  27  45  70 100 134 172 214 260 310
#     4  10  21  37  56  81 114 147 178 217 267 318
#     4  10  20  33  50  75 106 138 174 218 266 313
#     4  11  22  38  60  84 110 142 183 225 266 314
#
# _framework density 17.732481
#
# number of rings (size 3 to 8) (size 9 to 14) (size 15 to 20)
#    0.000    2.167    0.000    4.000    0.000    7.000 
#    0.000    1.667    0.000    0.500    0.000    3.500 
#    0.000    0.000    0.000    0.000    0.000    0.000 
#
# Total GULP energy -267936.166570 kJ/mol
# GULP energy per Si atom -5582.003470 kJ/mol
# Density = 1.769212 g / cm^3
# Si number density = 17.732481 Si / 1000 Ang^3
#
#
#
# Elastic Constant Matrix: (Units=GPa)
#
#
# Indices 1 2 3 4 5 6 
#
# 1 91.4494 64.7670 71.0602 0.0000 0.0000 0.0000
# 2 64.7670 96.2484 91.0689 0.0000 0.0000 0.0000
# 3 71.0602 91.0689 131.3766 0.0000 0.0000 0.0000
# 4 0.0000 0.0000 0.0000 29.0143 0.0000 0.0000
# 5 0.0000 0.0000 0.0000 0.0000 28.4242 0.0000
# 6 0.0000 0.0000 0.0000 0.0000 0.0000 26.5297
#
#
#
# Elastic Compliance Matrix: (Units=1/GPa)
#
#
# Indices 1 2 3 4 5 6 
#
# 1 0.021857 -0.010235 -0.004728 0.000000 0.000000 0.000000
# 2 -0.010235 0.034985 -0.018716 0.000000 0.000000 0.000000
# 3 -0.004728 -0.018716 0.023142 0.000000 0.000000 0.000000
# 4 0.000000 0.000000 0.000000 0.034466 0.000000 0.000000
# 5 0.000000 0.000000 0.000000 0.000000 0.035181 0.000000
# 6 0.000000 0.000000 0.000000 0.000000 0.000000 0.037694
#
#
# Mechanical properties :
#
#
# Convention : Reuss Voigt Hill
#
# Bulk Modulus (GPa) = 79.18438 85.87405 82.52921
# Shear Modulus (GPa) = 19.31312 22.93886 21.12599
#
# Velocity S-wave (km/s) = 3.30379 3.60058 3.45537
# Velocity P-wave (km/s) = 7.70099 8.11284 7.90960
#
# Compressibility (1/GPa) = 0.01262875
#
# Stress axis : x y z
#
# Youngs Moduli (GPa) = 45.75160 28.58335 43.21086
#
# Poissons Ratio (x) = 0.29254 0.20429
# Poissons Ratio (y) = 0.46826 0.80872
# Poissons Ratio (z) = 0.21630 0.53496
#
# Static dielectric constant tensor:
#      x y z
#    x 1.592480 0.000000 0.000000 
#    y 0.000000 1.578890 0.000000 
#    z 0.000000 0.000000 1.601520 
# 
# From -- ./inp_files/43475.got.cif
#   From: 2010.05.17/outbox.cif.g08.bks.cpg/sg67_22_cif.got.tgz:43475.got - 2010.06.03 18:28:57.
