data_PCOD9502913
_publ_section_title
;
Structure prediction by ZEFSAII (Michael W. Deem and Ramdas Pophale) SiO2 
 PCOD9502913
Probable space group: C M M A
;
_chemical_formula_sum "Si O2"
_cell_formula_units_Z 88
_cell_length_a 8.680048
_cell_length_b 22.741601
_cell_length_c 24.425145
_cell_angle_alpha 90.000000
_cell_angle_beta 90.000000
_cell_angle_gamma 90.000000
_cell_volume 4821.479371
_symmetry_space_group_name_H-M "C M M A"
_symmetry_group_IT_number 67
_symmetry_cell_setting 'orthorhombic'
loop_
_space_group_symop_operation_xyz
x,y,z
-x,1/2-y,z
x,-y,-z
-x,1/2+y,-z
-x,-y,-z
x,1/2+y,-z
-x,y,z
x,1/2-y,z
1/2+x,1/2+y,z
1/2-x,-y,z
1/2+x,1/2-y,-z
1/2-x,y,-z
1/2-x,1/2-y,-z
1/2+x,y,-z
1/2-x,1/2+y,z
1/2+x,-y,z
loop_
_atom_site_type_symbol
_atom_site_label
_atom_site_fract_x
_atom_site_fract_y
_atom_site_fract_z
Si Si1 0.817137 0.647764 0.361974
Si Si2 0.323361 0.679841 0.247884
Si Si3 0.316219 0.750000 0.438552
Si Si4 0.314402 0.182109 0.127689
Si Si5 0.683900 0.435011 0.555016
Si Si6 0.813754 0.436721 0.938232
O O1 0.765261 0.653840 0.299526
O O2 0.740622 0.695905 0.401708
O O3 0.752129 0.589598 0.389254
O O4 0.000000 0.652391 0.365847
O O5 0.500000 0.659087 0.246572
O O6 0.325099 0.750000 0.257128
O O7 0.244457 0.671013 0.189261
O O8 0.500000 0.750000 0.442136
O O9 0.250000 0.750000 0.500000
O O10 0.500000 0.183385 0.127012
O O11 0.263714 0.250000 0.112046
O O12 0.267777 0.124565 0.092145
O O13 0.500000 0.432812 0.553456
O O14 0.750000 0.500000 0.552558
O O15 0.750000 0.403802 0.500000
O O16 0.750000 0.500000 0.916050
O O17 0.000000 0.439874 0.938430
O O18 0.750000 0.432644 0.000000
#
# Coordination Sequence:
#
# PCOD9502913 Si02
#       6
#    16  16   8  16  16  16
#     4  12  23  37  57  81 109 145 182 224 278 335
#     4  10  20  35  56  82 112 145 184 231 282 335
#     4  12  24  38  54  80 112 142 179 226 279 336
#     4   9  19  36  57  82 113 150 194 239 287 344
#     4  11  22  39  59  80 106 138 179 226 276 336
#     4  10  20  35  57  84 117 156 194 237 287 344
#
# _framework density 18.251659
#
# number of rings (size 3 to 8) (size 9 to 14) (size 15 to 20)
#    0.000    1.455    0.909    6.818    0.000    2.545 
#    0.000    0.909    0.000    2.182    0.000    0.000 
#    0.000    0.000    0.000    0.000    0.000    0.000 
#
# Total GULP energy -245358.947854 kJ/mol
# GULP energy per Si atom -5576.339724 kJ/mol
# Density = 1.821012 g / cm^3
# Si number density = 18.251659 Si / 1000 Ang^3
#
#
#
# Elastic Constant Matrix: (Units=GPa)
#
#
# Indices 1 2 3 4 5 6 
#
# 1 100.2099 39.2136 42.9167 0.0000 0.0000 0.0000
# 2 39.2136 119.3514 71.2088 0.0000 0.0000 0.0000
# 3 42.9167 71.2088 105.0791 0.0000 0.0000 0.0000
# 4 0.0000 0.0000 0.0000 10.8374 0.0000 0.0000
# 5 0.0000 0.0000 0.0000 0.0000 25.1072 0.0000
# 6 0.0000 0.0000 0.0000 0.0000 0.0000 -1.4567
#
#
#
# Elastic Compliance Matrix: (Units=1/GPa)
#
#
# Indices 1 2 3 4 5 6 
#
# 1 0.012309 -0.001754 -0.003839 0.000000 0.000000 0.000000
# 2 -0.001754 0.014316 -0.008985 0.000000 0.000000 0.000000
# 3 -0.003839 -0.008985 0.017173 0.000000 0.000000 0.000000
# 4 0.000000 0.000000 0.000000 0.092273 0.000000 0.000000
# 5 0.000000 0.000000 0.000000 0.000000 0.039829 0.000000
# 6 0.000000 0.000000 0.000000 0.000000 0.000000 -0.686485
#
#
# Mechanical properties :
#
#
# Convention : Reuss Voigt Hill
#
# Bulk Modulus (GPa) = 68.29227 70.14652 69.21939
# Shear Modulus (GPa) = -10.49212 18.31767 3.91277
#
# Velocity S-wave (km/s) = -2.40022 3.17143 1.46576
# Velocity P-wave (km/s) = 5.46048 7.20604 6.39311
#
# Compressibility (1/GPa) = 0.01464295
#
# Stress axis : x y z
#
# Youngs Moduli (GPa) = 81.23831 69.85430 58.23016
#
# Poissons Ratio (x) = 0.12252 0.22354
# Poissons Ratio (y) = 0.14249 0.52319
# Poissons Ratio (z) = 0.31186 0.62763
#
# Static dielectric constant tensor:
#      x y z
#    x 1.611010 0.000000 0.000000 
#    y 0.000000 1.698820 0.000000 
#    z 0.000000 0.000000 1.601400 
# 
# From -- ./inp_files/36938.got.cif
#   From: 2010.05.17/outbox.cif.g08.bks.cpg/sg67_19_cif.got.tgz:36938.got - 2010.06.03 18:28:57.
