data_PCOD9502008
_publ_section_title
;
Structure prediction by ZEFSAII (Michael W. Deem and Ramdas Pophale) SiO2 
 PCOD9502008
Probable space group: C M M A
;
_chemical_formula_sum "Si O2"
_cell_formula_units_Z 56
_cell_length_a 18.788319
_cell_length_b 27.678613
_cell_length_c 5.065963
_cell_angle_alpha 90.000000
_cell_angle_beta 90.000000
_cell_angle_gamma 90.000000
_cell_volume 2634.476096
_symmetry_space_group_name_H-M "C M M A"
_symmetry_group_IT_number 67
_symmetry_cell_setting 'orthorhombic'
loop_
_space_group_symop_operation_xyz
x,y,z
-x,1/2-y,z
x,-y,-z
-x,1/2+y,-z
-x,-y,-z
x,1/2+y,-z
-x,y,z
x,1/2-y,z
1/2+x,1/2+y,z
1/2-x,-y,z
1/2+x,1/2-y,-z
1/2-x,y,-z
1/2-x,1/2-y,-z
1/2+x,y,-z
1/2-x,1/2+y,z
1/2+x,-y,z
loop_
_atom_site_type_symbol
_atom_site_label
_atom_site_fract_x
_atom_site_fract_y
_atom_site_fract_z
Si Si1 0.750000 0.633393 0.000000
Si Si2 0.634663 0.397578 0.645449
Si Si3 0.582208 0.549071 0.866844
Si Si4 0.670050 0.695610 0.623534
O O1 0.714161 0.602083 0.228647
O O2 0.812112 0.668461 0.104406
O O3 0.621802 0.431713 0.393082
O O4 0.624771 0.342755 0.541954
O O5 0.586777 0.413151 0.891980
O O6 0.500000 0.540805 0.791139
O O7 0.611020 0.500000 0.000000
O O8 0.642841 0.750000 0.646654
O O9 0.750000 0.698423 0.500000
#
# Coordination Sequence:
#
# PCOD9502008 Si02
#       4
#     8  16  16  16
#     4  10  19  36  63  94 134 164 199 246 315 382
#     4  11  21  39  64  94 126 156 206 261 316 367
#     4  11  24  43  67  89 114 162 224 269 305 358
#     4   9  18  33  60  91 124 163 203 242 297 374
#
# _framework density 21.256599999999999
#
# number of rings (size 3 to 8) (size 9 to 14) (size 15 to 20)
#    0.000    1.714    2.857    2.143    0.000    3.429 
#    0.000    0.714   12.571    5.143    0.000    0.000 
#    0.000    0.000    0.000    0.000    0.000    0.000 
#
# Total GULP energy -156093.050173 kJ/mol
# GULP energy per Si atom -5574.751792 kJ/mol
# Density = 2.120822 g / cm^3
# Si number density = 21.256600 Si / 1000 Ang^3
#
#
#
# Elastic Constant Matrix: (Units=GPa)
#
#
# Indices 1 2 3 4 5 6 
#
# 1 28.9299 41.7155 34.9230 0.0000 0.0000 0.0000
# 2 41.7155 118.2810 63.1129 0.0000 0.0000 0.0000
# 3 34.9230 63.1129 171.2327 0.0000 0.0000 0.0000
# 4 0.0000 0.0000 0.0000 21.4251 0.0000 0.0000
# 5 0.0000 0.0000 0.0000 0.0000 29.3212 0.0000
# 6 0.0000 0.0000 0.0000 0.0000 0.0000 45.0681
#
#
#
# Elastic Compliance Matrix: (Units=1/GPa)
#
#
# Indices 1 2 3 4 5 6 
#
# 1 0.076618 -0.023258 -0.007054 0.000000 0.000000 0.000000
# 2 -0.023258 0.017584 -0.001738 0.000000 0.000000 0.000000
# 3 -0.007054 -0.001738 0.007919 0.000000 0.000000 0.000000
# 4 0.000000 0.000000 0.000000 0.046674 0.000000 0.000000
# 5 0.000000 0.000000 0.000000 0.000000 0.034105 0.000000
# 6 0.000000 0.000000 0.000000 0.000000 0.000000 0.022189
#
#
# Mechanical properties :
#
#
# Convention : Reuss Voigt Hill
#
# Bulk Modulus (GPa) = 26.30018 66.43849 46.36933
# Shear Modulus (GPa) = 17.73910 31.07572 24.40741
#
# Velocity S-wave (km/s) = 2.89194 3.82767 3.39223
# Velocity P-wave (km/s) = 4.85290 7.13148 6.09954
#
# Compressibility (1/GPa) = 0.03802256
#
# Stress axis : x y z
#
# Youngs Moduli (GPa) = 13.05169 56.86886 126.27602
#
# Poissons Ratio (x) = 1.32265 0.89074
# Poissons Ratio (y) = 0.30356 0.21944
# Poissons Ratio (z) = 0.09207 0.09882
#
# Static dielectric constant tensor:
#      x y z
#    x 1.799460 0.000000 0.000000 
#    y 0.000000 1.807570 0.000000 
#    z 0.000000 0.000000 1.847580 
# 
# From -- ./inp_files/2685.got.cif
#   From: 2010.05.17/outbox.cif.g08.bks.cpg/sg67_2_cif.got.tgz:2685.got - 2010.06.03 18:28:57.
