data_PCOD9502418
_publ_section_title
;
Structure prediction by ZEFSAII (Michael W. Deem and Ramdas Pophale) SiO2 
 PCOD9502418
Probable space group: C M M A
;
_chemical_formula_sum "Si O2"
_cell_formula_units_Z 88
_cell_length_a 9.150261
_cell_length_b 27.224857
_cell_length_c 18.917815
_cell_angle_alpha 90.000000
_cell_angle_beta 90.000000
_cell_angle_gamma 90.000000
_cell_volume 4712.702918
_symmetry_space_group_name_H-M "C M M A"
_symmetry_group_IT_number 67
_symmetry_cell_setting 'orthorhombic'
loop_
_space_group_symop_operation_xyz
x,y,z
-x,1/2-y,z
x,-y,-z
-x,1/2+y,-z
-x,-y,-z
x,1/2+y,-z
-x,y,z
x,1/2-y,z
1/2+x,1/2+y,z
1/2-x,-y,z
1/2+x,1/2-y,-z
1/2-x,y,-z
1/2-x,1/2-y,-z
1/2+x,y,-z
1/2-x,1/2+y,z
1/2+x,-y,z
loop_
_atom_site_type_symbol
_atom_site_label
_atom_site_fract_x
_atom_site_fract_y
_atom_site_fract_z
Si Si1 0.162325 0.691970 0.566893
Si Si2 0.329698 0.852263 0.690026
Si Si3 0.169767 0.050545 0.131205
Si Si4 0.673649 0.846802 0.859420
Si Si5 0.167481 0.548526 0.696643
Si Si6 0.323144 0.250000 0.923338
O O1 0.148971 0.750000 0.554563
O O2 0.250000 0.670929 0.500000
O O3 0.246171 0.685204 0.640186
O O4 0.000000 0.670673 0.571609
O O5 0.500000 0.851583 0.673362
O O6 0.314205 0.844701 0.774058
O O7 0.257642 0.904446 0.673561
O O8 0.256376 0.101234 0.114846
O O9 0.167344 0.048398 0.217157
O O10 0.000000 0.052278 0.107546
O O11 0.250000 0.000000 0.107486
O O12 0.500000 0.844692 0.877297
O O13 0.761549 0.799735 0.887475
O O14 0.250000 0.500000 0.672996
O O15 0.000000 0.550172 0.673810
O O16 0.500000 0.250000 0.924849
O O17 0.250000 0.250000 0.000000
#
# Coordination Sequence:
#
# PCOD9502418 Si02
#       6
#    16  16  16  16  16   8
#     4  10  21  36  53  74 102 139 180 223 273 328
#     4  10  20  33  53  80 110 142 179 225 272 318
#     4   9  16  28  49  79 113 148 184 229 281 330
#     4  10  21  37  57  85 116 149 190 234 280 331
#     4   9  16  27  45  71 105 140 177 219 268 321
#     4  12  26  44  64  84 113 152 191 230 276 334
#
# _framework density 18.672936
#
# number of rings (size 3 to 8) (size 9 to 14) (size 15 to 20)
#    0.000    2.182    0.000    3.545    1.273    7.636 
#    0.000    0.000    0.000    1.091    0.000    7.636 
#    0.000    0.000    0.000    0.000    0.000    0.000 
#
# Total GULP energy -245354.513465 kJ/mol
# GULP energy per Si atom -5576.238942 kJ/mol
# Density = 1.863044 g / cm^3
# Si number density = 18.672936 Si / 1000 Ang^3
#
#
#
# Elastic Constant Matrix: (Units=GPa)
#
#
# Indices 1 2 3 4 5 6 
#
# 1 202.2664 82.1213 47.9942 0.0000 0.0000 0.0000
# 2 82.1213 113.5957 26.8146 0.0000 0.0000 0.0000
# 3 47.9942 26.8146 18.9256 0.0000 0.0000 0.0000
# 4 0.0000 0.0000 0.0000 -21.1948 0.0000 0.0000
# 5 0.0000 0.0000 0.0000 0.0000 -14.8583 0.0000
# 6 0.0000 0.0000 0.0000 0.0000 0.0000 34.4411
#
#
#
# Elastic Compliance Matrix: (Units=1/GPa)
#
#
# Indices 1 2 3 4 5 6 
#
# 1 0.012834 -0.002397 -0.029150 0.000000 0.000000 0.000000
# 2 -0.002397 0.013675 -0.013296 0.000000 0.000000 0.000000
# 3 -0.029150 -0.013296 0.145599 0.000000 0.000000 0.000000
# 4 0.000000 0.000000 0.000000 -0.047181 0.000000 0.000000
# 5 0.000000 0.000000 0.000000 0.000000 -0.067302 0.000000
# 6 0.000000 0.000000 0.000000 0.000000 0.000000 0.029035
#
#
# Mechanical properties :
#
#
# Convention : Reuss Voigt Hill
#
# Bulk Modulus (GPa) = 12.13271 72.07198 42.10235
# Shear Modulus (GPa) = 24.53166 11.53477 18.03321
#
# Velocity S-wave (km/s) = 3.62851 2.48811 3.11101
# Velocity P-wave (km/s) = 4.90575 6.85092 5.95825
#
# Compressibility (1/GPa) = 0.08242183
#
# Stress axis : x y z
#
# Youngs Moduli (GPa) = 77.91849 73.12822 6.86818
#
# Poissons Ratio (x) = 0.17529 0.20021
# Poissons Ratio (y) = 0.18678 0.09132
# Poissons Ratio (z) = 2.27131 0.97231
#
# Static dielectric constant tensor:
#      x y z
#    x 1.645260 0.000000 0.000000 
#    y 0.000000 1.635790 0.000000 
#    z 0.000000 0.000000 1.641730 
# 
# From -- ./inp_files/36940.got.cif
#   From: 2010.05.17/outbox.cif.g08.bks.cpg/sg67_19_cif.got.tgz:36940.got - 2010.06.03 18:28:57.
