data_PCOD9502351
_publ_section_title
;
Structure prediction by ZEFSAII (Michael W. Deem and Ramdas Pophale) SiO2 
 PCOD9502351
Probable space group: C M M A
;
_chemical_formula_sum "Si O2"
_cell_formula_units_Z 112
_cell_length_a 30.234443
_cell_length_b 14.034413
_cell_length_c 12.423763
_cell_angle_alpha 90.000000
_cell_angle_beta 90.000000
_cell_angle_gamma 90.000000
_cell_volume 5271.684162
_symmetry_space_group_name_H-M "C M M A"
_symmetry_group_IT_number 67
_symmetry_cell_setting 'orthorhombic'
loop_
_space_group_symop_operation_xyz
x,y,z
-x,1/2-y,z
x,-y,-z
-x,1/2+y,-z
-x,-y,-z
x,1/2+y,-z
-x,y,z
x,1/2-y,z
1/2+x,1/2+y,z
1/2-x,-y,z
1/2+x,1/2-y,-z
1/2-x,y,-z
1/2-x,1/2-y,-z
1/2+x,y,-z
1/2-x,1/2+y,z
1/2+x,-y,z
loop_
_atom_site_type_symbol
_atom_site_label
_atom_site_fract_x
_atom_site_fract_y
_atom_site_fract_z
Si Si1 0.140106 0.862193 0.436034
Si Si2 0.332043 0.361955 0.675714
Si Si3 0.717242 0.857102 0.913975
Si Si4 0.269951 0.134568 0.324544
Si Si5 0.051058 0.145391 0.148363
Si Si6 0.380591 0.393646 0.039222
Si Si7 0.103404 0.986435 0.255502
O O1 0.134018 0.750000 0.407031
O O2 0.140381 0.867794 0.564598
O O3 0.189792 0.893661 0.401048
O O4 0.107951 0.930206 0.367776
O O5 0.332802 0.250000 0.711833
O O6 0.280987 0.389233 0.653840
O O7 0.355336 0.438497 0.752608
O O8 0.734841 0.750000 0.895281
O O9 0.718019 0.900000 0.795297
O O10 0.667916 0.849930 0.958654
O O11 0.750000 0.900974 0.000000
O O12 0.271144 0.250000 0.330871
O O13 0.056983 0.250000 0.200328
O O14 0.063760 0.058552 0.226922
O O15 0.000000 0.136055 0.115204
O O16 0.082808 0.143669 0.043487
O O17 0.395657 0.405967 0.162673
O O18 0.372886 0.500000 0.000000
#
# Coordination Sequence:
#
# PCOD9502351 Si02
#       7
#    16  16  16  16  16  16  16
#     4  10  20  37  58  83 121 168 215 261 311 361
#     4  10  21  36  57  84 119 166 217 267 310 356
#     4  10  20  33  51  75 113 164 208 247 296 359
#     4   9  18  33  53  78 114 165 219 263 303 351
#     4  10  23  44  70  96 122 154 196 249 311 382
#     4  10  22  36  54  82 118 158 195 242 295 364
#     4  11  22  37  60  90 121 152 195 256 313 372
#
# _framework density 21.245583
#
# number of rings (size 3 to 8) (size 9 to 14) (size 15 to 20)
#    0.000    2.000    1.429    1.714    4.000    5.714 
#    0.000    1.429    0.000    2.143    0.000    2.000 
#    0.000    2.286    0.000    0.000    0.000    0.000 
#
# Total GULP energy -312376.099050 kJ/mol
# GULP energy per Si atom -5578.144626 kJ/mol
# Density = 2.119723 g / cm^3
# Si number density = 21.245583 Si / 1000 Ang^3
#
#
#
# Elastic Constant Matrix: (Units=GPa)
#
#
# Indices 1 2 3 4 5 6 
#
# 1 89.2914 34.3839 39.3493 0.0000 0.0000 0.0000
# 2 34.3839 100.3110 13.9908 0.0000 0.0000 0.0000
# 3 39.3493 13.9908 49.8859 0.0000 0.0000 0.0000
# 4 0.0000 0.0000 0.0000 2.6854 0.0000 0.0000
# 5 0.0000 0.0000 0.0000 0.0000 21.3108 0.0000
# 6 0.0000 0.0000 0.0000 0.0000 0.0000 27.9817
#
#
#
# Elastic Compliance Matrix: (Units=1/GPa)
#
#
# Indices 1 2 3 4 5 6 
#
# 1 0.019012 -0.004605 -0.013705 0.000000 0.000000 0.000000
# 2 -0.004605 0.011490 0.000410 0.000000 0.000000 0.000000
# 3 -0.013705 0.000410 0.030741 0.000000 0.000000 0.000000
# 4 0.000000 0.000000 0.000000 0.372389 0.000000 0.000000
# 5 0.000000 0.000000 0.000000 0.000000 0.046925 0.000000
# 6 0.000000 0.000000 0.000000 0.000000 0.000000 0.035738
#
#
# Mechanical properties :
#
#
# Convention : Reuss Voigt Hill
#
# Bulk Modulus (GPa) = 39.30333 46.10404 42.70368
# Shear Modulus (GPa) = 8.91938 20.51318 14.71628
#
# Velocity S-wave (km/s) = 2.05118 3.11066 2.63473
# Velocity P-wave (km/s) = 4.91421 5.88636 5.42212
#
# Compressibility (1/GPa) = 0.02544314
#
# Stress axis : x y z
#
# Youngs Moduli (GPa) = 52.59756 87.02916 32.52981
#
# Poissons Ratio (x) = 0.40080 0.44582
# Poissons Ratio (y) = 0.24223 -0.01334
# Poissons Ratio (z) = 0.72085 -0.03569
#
# Static dielectric constant tensor:
#      x y z
#    x 1.747250 0.000000 0.000000 
#    y 0.000000 1.859050 0.000000 
#    z 0.000000 0.000000 1.860250 
# 
# From -- ./inp_files/23810.got.cif
#   From: 2010.05.17/outbox.cif.g08.bks.cpg/sg67_12_cif.got.tgz:23810.got - 2010.06.03 18:28:57.
