data_PCOD9502096
_publ_section_title
;
Structure prediction by ZEFSAII (Michael W. Deem and Ramdas Pophale) SiO2 
 PCOD9502096
Probable space group: C M M A
;
_chemical_formula_sum "Si O2"
_cell_formula_units_Z 100
_cell_length_a 7.973920
_cell_length_b 29.121737
_cell_length_c 23.706454
_cell_angle_alpha 90.000000
_cell_angle_beta 90.000000
_cell_angle_gamma 90.000000
_cell_volume 5504.980018
_symmetry_space_group_name_H-M "C M M A"
_symmetry_group_IT_number 67
_symmetry_cell_setting 'orthorhombic'
loop_
_space_group_symop_operation_xyz
x,y,z
-x,1/2-y,z
x,-y,-z
-x,1/2+y,-z
-x,-y,-z
x,1/2+y,-z
-x,y,z
x,1/2-y,z
1/2+x,1/2+y,z
1/2-x,-y,z
1/2+x,1/2-y,-z
1/2-x,y,-z
1/2-x,1/2-y,-z
1/2+x,y,-z
1/2-x,1/2+y,z
1/2+x,-y,z
loop_
_atom_site_type_symbol
_atom_site_label
_atom_site_fract_x
_atom_site_fract_y
_atom_site_fract_z
Si Si1 0.307269 0.649780 0.794766
Si Si2 0.306138 0.678899 0.086244
Si Si3 0.200814 0.048817 0.181666
Si Si4 0.699666 0.197339 0.439964
Si Si5 0.300683 0.197188 0.680962
Si Si6 0.196924 0.927892 0.939325
Si Si7 0.000000 0.750000 0.061952
O O1 0.500000 0.655724 0.811391
O O2 0.203782 0.673772 0.845346
O O3 0.265413 0.595866 0.791443
O O4 0.276356 0.671894 0.734233
O O5 0.500000 0.692849 0.071064
O O6 0.276110 0.627009 0.064806
O O7 0.153159 0.710517 0.065607
O O8 0.272355 0.050781 0.117402
O O9 0.000000 0.051943 0.181065
O O10 0.250000 0.000000 0.207341
O O11 0.500000 0.199331 0.438003
O O12 0.769083 0.250000 0.440856
O O13 0.750000 0.176006 0.500000
O O14 0.760771 0.176913 0.380828
O O15 0.500000 0.197491 0.688093
O O16 0.238578 0.250000 0.680938
O O17 0.000000 0.935407 0.935621
O O18 0.250000 0.945086 0.000000
#
# Coordination Sequence:
#
# PCOD9502096 Si02
#       7
#    16  16  16  16  16  16   4
#     4  11  21  35  53  77 104 139 172 212 265 313
#     4  10  22  38  53  77 104 135 178 220 261 309
#     4  10  21  38  57  82 106 133 165 207 261 320
#     4   9  16  27  42  62  92 132 176 222 263 307
#     4  10  20  31  46  71 102 140 180 223 261 302
#     4   9  20  36  58  77 104 136 164 210 261 309
#     4  12  22  36  58  78  94 146 180 214 266 306
#
# _framework density 18.165371
#
# number of rings (size 3 to 8) (size 9 to 14) (size 15 to 20)
#    0.000    2.080    0.800    4.080    2.240    4.480 
#    0.000    2.000    0.000    0.000    0.000    0.000 
#    0.000    0.640    0.000    6.400    0.000    4.160 
#
# Total GULP energy -278432.462149 kJ/mol
# GULP energy per Si atom -5568.649243 kJ/mol
# Density = 1.812403 g / cm^3
# Si number density = 18.165371 Si / 1000 Ang^3
#
#
#
# Elastic Constant Matrix: (Units=GPa)
#
#
# Indices 1 2 3 4 5 6 
#
# 1 90.1116 23.8353 5.6700 0.0000 0.0000 0.0000
# 2 23.8353 54.4546 20.4200 0.0000 0.0000 0.0000
# 3 5.6700 20.4200 89.6123 0.0000 0.0000 0.0000
# 4 0.0000 0.0000 0.0000 -6.2375 0.0000 0.0000
# 5 0.0000 0.0000 0.0000 0.0000 26.6302 0.0000
# 6 0.0000 0.0000 0.0000 0.0000 0.0000 3.1799
#
#
#
# Elastic Compliance Matrix: (Units=1/GPa)
#
#
# Indices 1 2 3 4 5 6 
#
# 1 0.012571 -0.005690 0.000501 0.000000 0.000000 0.000000
# 2 -0.005690 0.022656 -0.004802 0.000000 0.000000 0.000000
# 3 0.000501 -0.004802 0.012222 0.000000 0.000000 0.000000
# 4 0.000000 0.000000 0.000000 -0.160321 0.000000 0.000000
# 5 0.000000 0.000000 0.000000 0.000000 0.037551 0.000000
# 6 0.000000 0.000000 0.000000 0.000000 0.000000 0.314476
#
#
# Mechanical properties :
#
#
# Convention : Reuss Voigt Hill
#
# Bulk Modulus (GPa) = 36.40985 37.11436 36.76210
# Shear Modulus (GPa) = 18.63641 16.99807 17.81724
#
# Velocity S-wave (km/s) = 3.20649 3.06231 3.13523
# Velocity P-wave (km/s) = 5.81342 5.74277 5.77820
#
# Compressibility (1/GPa) = 0.02746510
#
# Stress axis : x y z
#
# Youngs Moduli (GPa) = 79.54842 44.13928 81.82095
#
# Poissons Ratio (x) = 0.25117 -0.04101
# Poissons Ratio (y) = 0.45266 0.39294
# Poissons Ratio (z) = -0.03988 0.21198
#
# Static dielectric constant tensor:
#      x y z
#    x 1.648980 0.000000 0.000000 
#    y 0.000000 1.602040 0.000000 
#    z 0.000000 0.000000 1.663600 
# 
# From -- ./inp_files/37566.got.cif
#   From: 2010.05.17/outbox.cif.g08.bks.cpg/sg67_19_cif.got.tgz:37566.got - 2010.06.03 18:28:57.
