data_PCOD9502514
_publ_section_title
;
Structure prediction by ZEFSAII (Michael W. Deem and Ramdas Pophale) SiO2 
 PCOD9502514
Probable space group: C M M A
;
_chemical_formula_sum "Si O2"
_cell_formula_units_Z 96
_cell_length_a 18.817119
_cell_length_b 8.949852
_cell_length_c 31.904874
_cell_angle_alpha 90.000000
_cell_angle_beta 90.000000
_cell_angle_gamma 90.000000
_cell_volume 5373.113553
_symmetry_space_group_name_H-M "C M M A"
_symmetry_group_IT_number 67
_symmetry_cell_setting 'orthorhombic'
loop_
_space_group_symop_operation_xyz
x,y,z
-x,1/2-y,z
x,-y,-z
-x,1/2+y,-z
-x,-y,-z
x,1/2+y,-z
-x,y,z
x,1/2-y,z
1/2+x,1/2+y,z
1/2-x,-y,z
1/2+x,1/2-y,-z
1/2-x,y,-z
1/2-x,1/2-y,-z
1/2+x,y,-z
1/2-x,1/2+y,z
1/2+x,-y,z
loop_
_atom_site_type_symbol
_atom_site_label
_atom_site_fract_x
_atom_site_fract_y
_atom_site_fract_z
Si Si1 0.583422 0.071543 0.625807
Si Si2 0.584712 0.072724 0.798685
Si Si3 0.172096 0.429596 0.874119
Si Si4 0.082492 0.070394 0.955841
Si Si5 0.586426 0.921877 0.711848
Si Si6 0.671797 0.070201 0.542985
O O1 0.500000 0.035485 0.620264
O O2 0.588750 0.250000 0.632305
O O3 0.625718 0.033144 0.583814
O O4 0.610373 0.990316 0.667672
O O5 0.500000 0.043375 0.803088
O O6 0.595757 0.250000 0.801864
O O7 0.627155 0.988320 0.834761
O O8 0.607477 0.014945 0.752787
O O9 0.176284 0.250000 0.872766
O O10 0.250000 0.500000 0.873436
O O11 0.131055 0.473937 0.916780
O O12 0.084681 0.250000 0.959343
O O13 0.000000 0.026824 0.948269
O O14 0.105016 0.000000 0.000000
O O15 0.500000 0.926482 0.710807
O O16 0.608340 0.750000 0.716071
O O17 0.676303 0.250000 0.539024
O O18 0.641921 0.000000 0.500000
O O19 0.750000 0.000000 0.548031
#
# Coordination Sequence:
#
# PCOD9502514 Si02
#       6
#    16  16  16  16  16  16
#     4   9  18  33  52  75 103 133 167 210 259 308
#     4  10  20  35  57  82 107 139 179 220 263 314
#     4  11  23  38  55  78 111 146 181 222 268 317
#     4   9  19  36  58  82 107 138 177 221 266 313
#     4   9  17  30  51  79 107 135 169 212 261 310
#     4  10  20  34  52  72  98 133 170 209 252 302
#
# _framework density 17.866734999999998
#
# number of rings (size 3 to 8) (size 9 to 14) (size 15 to 20)
#    0.000    2.333    0.000    3.000    0.000    7.000 
#    0.000    4.167    0.000    2.000    0.000    0.000 
#    0.000    0.000    0.000    0.000    0.000    0.000 
#
# Total GULP energy -267868.694830 kJ/mol
# GULP energy per Si atom -5580.597809 kJ/mol
# Density = 1.782607 g / cm^3
# Si number density = 17.866735 Si / 1000 Ang^3
#
#
#
# Elastic Constant Matrix: (Units=GPa)
#
#
# Indices 1 2 3 4 5 6 
#
# 1 55.9735 46.2371 74.0666 0.0000 0.0000 0.0000
# 2 46.2371 68.8257 76.5288 0.0000 0.0000 0.0000
# 3 74.0666 76.5288 189.9905 0.0000 0.0000 0.0000
# 4 0.0000 0.0000 0.0000 37.4157 0.0000 0.0000
# 5 0.0000 0.0000 0.0000 0.0000 -17.8995 0.0000
# 6 0.0000 0.0000 0.0000 0.0000 0.0000 20.7337
#
#
#
# Elastic Compliance Matrix: (Units=1/GPa)
#
#
# Indices 1 2 3 4 5 6 
#
# 1 0.049953 -0.021563 -0.010788 0.000000 0.000000 0.000000
# 2 -0.021563 0.035624 -0.005943 0.000000 0.000000 0.000000
# 3 -0.010788 -0.005943 0.011863 0.000000 0.000000 0.000000
# 4 0.000000 0.000000 0.000000 0.026727 0.000000 0.000000
# 5 0.000000 0.000000 0.000000 0.000000 -0.055868 0.000000
# 6 0.000000 0.000000 0.000000 0.000000 0.000000 0.048231
#
#
# Mechanical properties :
#
#
# Convention : Reuss Voigt Hill
#
# Bulk Modulus (GPa) = 47.95850 78.71719 63.33785
# Shear Modulus (GPa) = 24.99130 15.91378 20.45254
#
# Velocity S-wave (km/s) = 3.74406 2.98769 3.38705
# Velocity P-wave (km/s) = 6.75213 7.48701 7.12904
#
# Compressibility (1/GPa) = 0.02085136
#
# Stress axis : x y z
#
# Youngs Moduli (GPa) = 20.01870 28.07115 84.29432
#
# Poissons Ratio (x) = 0.60529 0.90940
# Poissons Ratio (y) = 0.43166 0.50098
# Poissons Ratio (z) = 0.21597 0.16683
#
# Static dielectric constant tensor:
#      x y z
#    x 1.594950 0.000000 0.000000 
#    y 0.000000 1.598880 0.000000 
#    z 0.000000 0.000000 1.595270 
# 
# From -- ./inp_files/44621.got.cif
#   From: 2010.05.17/outbox.cif.g08.bks.cpg/sg67_23_cif.got.tgz:44621.got - 2010.06.03 18:28:57.
