data_PCOD9502120
_publ_section_title
;
Structure prediction by ZEFSAII (Michael W. Deem and Ramdas Pophale) SiO2 
 PCOD9502120
Probable space group: C M M A
;
_chemical_formula_sum "Si O2"
_cell_formula_units_Z 96
_cell_length_a 9.255306
_cell_length_b 26.900823
_cell_length_c 25.778508
_cell_angle_alpha 90.000000
_cell_angle_beta 90.000000
_cell_angle_gamma 90.000000
_cell_volume 6418.213014
_symmetry_space_group_name_H-M "C M M A"
_symmetry_group_IT_number 67
_symmetry_cell_setting 'orthorhombic'
loop_
_space_group_symop_operation_xyz
x,y,z
-x,1/2-y,z
x,-y,-z
-x,1/2+y,-z
-x,-y,-z
x,1/2+y,-z
-x,y,z
x,1/2-y,z
1/2+x,1/2+y,z
1/2-x,-y,z
1/2+x,1/2-y,-z
1/2-x,y,-z
1/2-x,1/2-y,-z
1/2+x,y,-z
1/2-x,1/2+y,z
1/2+x,-y,z
loop_
_atom_site_type_symbol
_atom_site_label
_atom_site_fract_x
_atom_site_fract_y
_atom_site_fract_z
Si Si1 0.828189 0.142430 0.364896
Si Si2 0.674628 0.191211 0.271439
Si Si3 0.660808 0.808479 0.548371
Si Si4 0.665584 0.189365 0.948426
Si Si5 0.825266 0.551985 0.555636
Si Si6 0.164975 0.689744 0.153037
O O1 0.752330 0.153132 0.310139
O O2 0.755934 0.183814 0.401279
O O3 0.799779 0.092448 0.398787
O O4 0.000000 0.147748 0.360263
O O5 0.500000 0.188274 0.276991
O O6 0.712645 0.250000 0.280788
O O7 0.711897 0.178427 0.211724
O O8 0.500000 0.830524 0.552911
O O9 0.644102 0.750000 0.539854
O O10 0.750000 0.828825 0.500000
O O11 0.500000 0.173923 0.951159
O O12 0.668784 0.250000 0.948072
O O13 0.738407 0.172508 0.894807
O O14 0.750000 0.173524 0.000000
O O15 0.750000 0.500000 0.570919
O O16 0.750000 0.564049 0.500000
O O17 0.000000 0.547594 0.548812
O O18 0.162436 0.750000 0.150966
O O19 0.000000 0.672739 0.145968
#
# Coordination Sequence:
#
# PCOD9502120 Si02
#       6
#    16  16  16  16  16  16
#     4  11  22  32  45  66  87 107 134 166 201 243
#     4   9  18  31  45  61  83 114 148 177 207 244
#     4  10  20  32  45  61  82 108 136 164 196 235
#     4   9  15  21  31  48  69  95 130 172 215 252
#     4  10  21  36  53  71  87 104 128 161 204 252
#     4   8  14  25  38  51  71 100 135 174 210 242
#
# _framework density 14.957435
#
# number of rings (size 3 to 8) (size 9 to 14) (size 15 to 20)
#    0.000    2.500    0.000    4.500    0.000   10.000 
#    0.000    1.667    0.000    0.000    0.000    0.000 
#    0.000    0.000    0.000    0.000    0.000    0.833 
#
# Total GULP energy -267214.738803 kJ/mol
# GULP energy per Si atom -5566.973725 kJ/mol
# Density = 1.492339 g / cm^3
# Si number density = 14.957435 Si / 1000 Ang^3
#
#
#
# Elastic Constant Matrix: (Units=GPa)
#
#
# Indices 1 2 3 4 5 6 
#
# 1 93.0294 34.5308 80.6142 0.0000 0.0000 0.0000
# 2 34.5308 42.5776 27.8887 0.0000 0.0000 0.0000
# 3 80.6142 27.8887 144.7858 0.0000 0.0000 0.0000
# 4 0.0000 0.0000 0.0000 14.8851 0.0000 0.0000
# 5 0.0000 0.0000 0.0000 0.0000 29.3663 0.0000
# 6 0.0000 0.0000 0.0000 0.0000 0.0000 8.8467
#
#
#
# Elastic Compliance Matrix: (Units=1/GPa)
#
#
# Indices 1 2 3 4 5 6 
#
# 1 0.026015 -0.013287 -0.011925 0.000000 0.000000 0.000000
# 2 -0.013287 0.033664 0.000914 0.000000 0.000000 0.000000
# 3 -0.011925 0.000914 0.013371 0.000000 0.000000 0.000000
# 4 0.000000 0.000000 0.000000 0.067181 0.000000 0.000000
# 5 0.000000 0.000000 0.000000 0.000000 0.034053 0.000000
# 6 0.000000 0.000000 0.000000 0.000000 0.000000 0.113037
#
#
# Mechanical properties :
#
#
# Convention : Reuss Voigt Hill
#
# Bulk Modulus (GPa) = 40.89639 62.93999 51.91819
# Shear Modulus (GPa) = 14.53198 19.77691 17.15444
#
# Velocity S-wave (km/s) = 3.12036 3.64017 3.39024
# Velocity P-wave (km/s) = 6.35479 7.73554 7.07891
#
# Compressibility (1/GPa) = 0.02445203
#
# Stress axis : x y z
#
# Youngs Moduli (GPa) = 38.43915 29.70519 74.79103
#
# Poissons Ratio (x) = 0.39470 0.89191
# Poissons Ratio (y) = 0.51075 -0.06834
# Poissons Ratio (z) = 0.45840 -0.02714
#
# Static dielectric constant tensor:
#      x y z
#    x 1.513370 0.000000 0.000000 
#    y 0.000000 1.493950 0.000000 
#    z 0.000000 0.000000 1.450780 
# 
# From -- ./inp_files/43810.got.cif
#   From: 2010.05.17/outbox.cif.g08.bks.cpg/sg67_22_cif.got.tgz:43810.got - 2010.06.03 18:28:57.
