data_PCOD9502405
_publ_section_title
;
Structure prediction by ZEFSAII (Michael W. Deem and Ramdas Pophale) SiO2 
 PCOD9502405
Probable space group: C M M A
;
_chemical_formula_sum "Si O2"
_cell_formula_units_Z 104
_cell_length_a 21.389608
_cell_length_b 8.621087
_cell_length_c 30.347554
_cell_angle_alpha 90.000000
_cell_angle_beta 90.000000
_cell_angle_gamma 90.000000
_cell_volume 5596.139682
_symmetry_space_group_name_H-M "C M M A"
_symmetry_group_IT_number 67
_symmetry_cell_setting 'orthorhombic'
loop_
_space_group_symop_operation_xyz
x,y,z
-x,1/2-y,z
x,-y,-z
-x,1/2+y,-z
-x,-y,-z
x,1/2+y,-z
-x,y,z
x,1/2-y,z
1/2+x,1/2+y,z
1/2-x,-y,z
1/2+x,1/2-y,-z
1/2-x,y,-z
1/2-x,1/2-y,-z
1/2+x,y,-z
1/2-x,1/2+y,z
1/2+x,-y,z
loop_
_atom_site_type_symbol
_atom_site_label
_atom_site_fract_x
_atom_site_fract_y
_atom_site_fract_z
Si Si1 0.321032 0.436210 0.856780
Si Si2 0.930526 0.062380 0.305340
Si Si3 0.000000 0.563707 0.450536
Si Si4 0.929035 0.936098 0.206298
Si Si5 0.820631 0.435093 0.044602
Si Si6 0.862793 0.563654 0.450501
Si Si7 0.813649 0.435386 0.363564
O O1 0.317448 0.250000 0.853910
O O2 0.250000 0.500000 0.850308
O O3 0.372559 0.498188 0.822892
O O4 0.343833 0.477845 0.906582
O O5 0.928960 0.250000 0.303420
O O6 0.874108 0.010290 0.336317
O O7 0.000000 0.015977 0.321488
O O8 0.922743 0.997169 0.256230
O O9 0.000000 0.500000 0.500000
O O10 0.067526 0.513732 0.433724
O O11 0.000000 0.750000 0.450776
O O12 0.925851 0.750000 0.206148
O O13 0.000000 0.981145 0.191468
O O14 0.818898 0.250000 0.041284
O O15 0.750000 0.500000 0.044730
O O16 0.851632 0.500000 0.000000
O O17 0.853064 0.500000 0.500000
O O18 0.859348 0.750000 0.452156
O O19 0.818439 0.497100 0.413345
O O20 0.812534 0.250000 0.364007
O O21 0.750000 0.500000 0.343162
#
# Coordination Sequence:
#
# PCOD9502405 Si02
#       7
#    16  16   8  16  16  16  16
#     4  10  20  33  52  80 112 147 187 232 281 333
#     4   9  20  40  63  84 107 141 183 225 272 327
#     4   8  16  30  50  78 108 138 172 214 258 300
#     4  10  21  37  58  84 112 144 183 227 277 333
#     4   9  16  26  43  69 102 141 183 227 276 326
#     4  10  20  36  57  83 114 147 183 221 265 315
#     4  11  24  40  59  84 114 147 182 221 269 322
#
# _framework density 18.584240999999999
#
# number of rings (size 3 to 8) (size 9 to 14) (size 15 to 20)
#    0.000    2.308    0.000    2.769    1.077    5.538 
#    0.000    3.077    0.000    0.462    0.000    0.000 
#    0.000    0.000    0.000    0.000    0.000    0.000 
#
# Total GULP energy -289857.880365 kJ/mol
# GULP energy per Si atom -5574.190007 kJ/mol
# Density = 1.854194 g / cm^3
# Si number density = 18.584241 Si / 1000 Ang^3
#
#
#
# Elastic Constant Matrix: (Units=GPa)
#
#
# Indices 1 2 3 4 5 6 
#
# 1 143.4672 38.3638 82.1035 0.0000 0.0000 0.0000
# 2 38.3638 39.1442 27.5570 0.0000 0.0000 0.0000
# 3 82.1035 27.5570 103.7721 0.0000 0.0000 0.0000
# 4 0.0000 0.0000 0.0000 27.3400 0.0000 0.0000
# 5 0.0000 0.0000 0.0000 0.0000 23.9103 0.0000
# 6 0.0000 0.0000 0.0000 0.0000 0.0000 25.1259
#
#
#
# Elastic Compliance Matrix: (Units=1/GPa)
#
#
# Indices 1 2 3 4 5 6 
#
# 1 0.014308 -0.007445 -0.009343 0.000000 0.000000 0.000000
# 2 -0.007445 0.035295 -0.003482 0.000000 0.000000 0.000000
# 3 -0.009343 -0.003482 0.017954 0.000000 0.000000 0.000000
# 4 0.000000 0.000000 0.000000 0.036576 0.000000 0.000000
# 5 0.000000 0.000000 0.000000 0.000000 0.041823 0.000000
# 6 0.000000 0.000000 0.000000 0.000000 0.000000 0.039800
#
#
# Mechanical properties :
#
#
# Convention : Reuss Voigt Hill
#
# Bulk Modulus (GPa) = 37.01630 64.71468 50.86549
# Shear Modulus (GPa) = 21.24931 24.49918 22.87424
#
# Velocity S-wave (km/s) = 3.38510 3.63475 3.51214
# Velocity P-wave (km/s) = 5.93632 7.24659 6.62393
#
# Compressibility (1/GPa) = 0.02701512
#
# Stress axis : x y z
#
# Youngs Moduli (GPa) = 69.89011 28.33288 55.69930
#
# Poissons Ratio (x) = 0.21095 0.52042
# Poissons Ratio (y) = 0.52035 0.19394
# Poissons Ratio (z) = 0.65301 0.09865
#
# Static dielectric constant tensor:
#      x y z
#    x 1.678880 0.000000 0.000000 
#    y 0.000000 1.622590 0.000000 
#    z 0.000000 0.000000 1.645520 
# 
# From -- ./inp_files/45862.got.cif
#   From: 2010.05.17/outbox.cif.g08.bks.cpg/sg67_23_cif.got.tgz:45862.got - 2010.06.03 18:28:57.
