data_PCOD9502686
_publ_section_title
;
Structure prediction by ZEFSAII (Michael W. Deem and Ramdas Pophale) SiO2 
 PCOD9502686
Probable space group: C M M A
;
_chemical_formula_sum "Si O2"
_cell_formula_units_Z 96
_cell_length_a 8.960112
_cell_length_b 16.122522
_cell_length_c 32.866901
_cell_angle_alpha 90.000000
_cell_angle_beta 90.000000
_cell_angle_gamma 90.000000
_cell_volume 4747.939465
_symmetry_space_group_name_H-M "C M M A"
_symmetry_group_IT_number 67
_symmetry_cell_setting 'orthorhombic'
loop_
_space_group_symop_operation_xyz
x,y,z
-x,1/2-y,z
x,-y,-z
-x,1/2+y,-z
-x,-y,-z
x,1/2+y,-z
-x,y,z
x,1/2-y,z
1/2+x,1/2+y,z
1/2-x,-y,z
1/2+x,1/2-y,-z
1/2-x,y,-z
1/2-x,1/2-y,-z
1/2+x,y,-z
1/2-x,1/2+y,z
1/2+x,-y,z
loop_
_atom_site_type_symbol
_atom_site_label
_atom_site_fract_x
_atom_site_fract_y
_atom_site_fract_z
Si Si1 0.679115 0.348332 0.540925
Si Si2 0.821929 0.408872 0.120401
Si Si3 0.679078 0.407340 0.790262
Si Si4 0.677217 0.908788 0.709887
Si Si5 0.829772 0.849375 0.629761
Si Si6 0.832696 0.848911 0.040008
O O1 0.500000 0.353813 0.538620
O O2 0.719057 0.250000 0.541186
O O3 0.750000 0.384898 0.500000
O O4 0.722928 0.381850 0.585532
O O5 0.750000 0.500000 0.119935
O O6 0.788912 0.370267 0.165051
O O7 0.756418 0.363652 0.081375
O O8 0.000000 0.415058 0.117200
O O9 0.500000 0.412695 0.785339
O O10 0.750000 0.500000 0.791925
O O11 0.751423 0.367203 0.750244
O O12 0.500000 0.913197 0.714183
O O13 0.725324 0.868348 0.667587
O O14 0.750000 0.000000 0.708156
O O15 0.839118 0.750000 0.625899
O O16 0.000000 0.879753 0.637564
O O17 0.844218 0.750000 0.034606
O O18 0.000000 0.883580 0.043382
O O19 0.750000 0.882803 0.000000
#
# Coordination Sequence:
#
# PCOD9502686 Si02
#       6
#    16  16  16  16  16  16
#     4   8  14  25  43  67  94 125 159 196 240 291
#     4  10  20  34  55  81 106 132 166 209 253 297
#     4   9  17  31  51  74 100 131 166 205 249 296
#     4  11  21  33  52  75 100 132 170 208 247 297
#     4   9  18  33  51  72 101 133 164 203 251 297
#     4  10  21  37  56  77 104 138 173 209 250 298
#
# _framework density 20.219298999999999
#
# number of rings (size 3 to 8) (size 9 to 14) (size 15 to 20)
#    0.000    2.500    0.000    5.000    0.000    4.333 
#    0.000    4.167    0.000    1.500    0.000    3.500 
#    0.000    0.000    0.000    0.000    0.000    0.000 
#
# Total GULP energy -267562.151952 kJ/mol
# GULP energy per Si atom -5574.211499 kJ/mol
# Density = 2.017328 g / cm^3
# Si number density = 20.219299 Si / 1000 Ang^3
#
#
#
# Elastic Constant Matrix: (Units=GPa)
#
#
# Indices 1 2 3 4 5 6 
#
# 1 117.9089 5.2044 91.1810 0.0000 0.0000 0.0000
# 2 5.2044 6.8929 12.0664 0.0000 0.0000 0.0000
# 3 91.1810 12.0664 220.6897 0.0000 0.0000 0.0000
# 4 0.0000 0.0000 0.0000 34.3765 0.0000 0.0000
# 5 0.0000 0.0000 0.0000 0.0000 45.4831 0.0000
# 6 0.0000 0.0000 0.0000 0.0000 0.0000 16.6400
#
#
#
# Elastic Compliance Matrix: (Units=1/GPa)
#
#
# Indices 1 2 3 4 5 6 
#
# 1 0.012464 -0.000438 -0.005126 0.000000 0.000000 0.000000
# 2 -0.000438 0.160447 -0.008592 0.000000 0.000000 0.000000
# 3 -0.005126 -0.008592 0.007119 0.000000 0.000000 0.000000
# 4 0.000000 0.000000 0.000000 0.029090 0.000000 0.000000
# 5 0.000000 0.000000 0.000000 0.000000 0.021986 0.000000
# 6 0.000000 0.000000 0.000000 0.000000 0.000000 0.060096
#
#
# Mechanical properties :
#
#
# Convention : Reuss Voigt Hill
#
# Bulk Modulus (GPa) = 6.59111 62.48834 34.53972
# Shear Modulus (GPa) = 13.51034 35.10255 24.30645
#
# Velocity S-wave (km/s) = 2.58774 4.17116 3.47095
# Velocity P-wave (km/s) = 3.49220 7.36006 5.76047
#
# Compressibility (1/GPa) = 0.15171950
#
# Stress axis : x y z
#
# Youngs Moduli (GPa) = 80.22853 6.23258 140.47245
#
# Poissons Ratio (x) = 0.00273 0.72005
# Poissons Ratio (y) = 0.03514 1.20688
# Poissons Ratio (z) = 0.41124 0.05355
#
# Static dielectric constant tensor:
#      x y z
#    x 1.666130 0.000000 0.000000 
#    y 0.000000 1.744410 0.000000 
#    z 0.000000 0.000000 1.787720 
# 
# From -- ./inp_files/43417.got.cif
#   From: 2010.05.17/outbox.cif.g08.bks.cpg/sg67_22_cif.got.tgz:43417.got - 2010.06.03 18:28:57.
