data_PCOD9502905
_publ_section_title
;
Structure prediction by ZEFSAII (Michael W. Deem and Ramdas Pophale) SiO2 
 PCOD9502905
Probable space group: C M M A
;
_chemical_formula_sum "Si O2"
_cell_formula_units_Z 88
_cell_length_a 8.956064
_cell_length_b 14.705326
_cell_length_c 31.675558
_cell_angle_alpha 90.000000
_cell_angle_beta 90.000000
_cell_angle_gamma 90.000000
_cell_volume 4171.729297
_symmetry_space_group_name_H-M "C M M A"
_symmetry_group_IT_number 67
_symmetry_cell_setting 'orthorhombic'
loop_
_space_group_symop_operation_xyz
x,y,z
-x,1/2-y,z
x,-y,-z
-x,1/2+y,-z
-x,-y,-z
x,1/2+y,-z
-x,y,z
x,1/2-y,z
1/2+x,1/2+y,z
1/2-x,-y,z
1/2+x,1/2-y,-z
1/2-x,y,-z
1/2-x,1/2-y,-z
1/2+x,y,-z
1/2-x,1/2+y,z
1/2+x,-y,z
loop_
_atom_site_type_symbol
_atom_site_label
_atom_site_fract_x
_atom_site_fract_y
_atom_site_fract_z
Si Si1 0.668931 0.861228 0.457241
Si Si2 0.165652 0.642989 0.710895
Si Si3 0.681260 0.601773 0.891827
Si Si4 0.168123 0.861491 0.371836
Si Si5 0.681122 0.399768 0.805501
Si Si6 0.318424 0.750000 0.046754
O O1 0.500000 0.892424 0.458539
O O2 0.670337 0.750000 0.457258
O O3 0.750000 0.889899 0.500000
O O4 0.742067 0.889385 0.413249
O O5 0.151422 0.750000 0.702290
O O6 0.264984 0.607495 0.672807
O O7 0.219193 0.637148 0.759123
O O8 0.000000 0.601059 0.709634
O O9 0.500000 0.599953 0.892851
O O10 0.750000 0.500000 0.895440
O O11 0.740859 0.640876 0.846911
O O12 0.752020 0.663324 0.928290
O O13 0.166744 0.750000 0.371776
O O14 0.000000 0.893328 0.375827
O O15 0.500000 0.397660 0.810451
O O16 0.750000 0.500000 0.804489
O O17 0.500000 0.750000 0.046653
O O18 0.250000 0.750000 0.000000
#
# Coordination Sequence:
#
# PCOD9502905 Si02
#       6
#    16  16  16  16  16   8
#     4   9  15  22  33  49  73 109 152 197 246 306
#     4   9  18  31  47  69  97 134 175 215 267 327
#     4  11  23  42  66  96 130 170 213 260 314 370
#     4   9  16  25  37  56  84 117 155 203 257 313
#     4  10  20  35  56  81 111 149 189 235 285 339
#     4  12  26  46  70 100 134 170 214 264 313 370
#
# _framework density 21.094369
#
# number of rings (size 3 to 8) (size 9 to 14) (size 15 to 20)
#    0.000    2.182    0.000    5.182    1.273    6.182 
#    0.000    1.818    0.000    0.000    0.000    0.000 
#    0.000    0.727    0.000    7.636    0.000   11.455 
#
# Total GULP energy -245598.135513 kJ/mol
# GULP energy per Si atom -5581.775807 kJ/mol
# Density = 2.104636 g / cm^3
# Si number density = 21.094369 Si / 1000 Ang^3
#
#
#
# Elastic Constant Matrix: (Units=GPa)
#
#
# Indices 1 2 3 4 5 6 
#
# 1 191.4332 34.0547 134.7422 0.0000 0.0000 0.0000
# 2 34.0547 63.9535 31.4078 0.0000 0.0000 0.0000
# 3 134.7422 31.4078 230.5257 0.0000 0.0000 0.0000
# 4 0.0000 0.0000 0.0000 163.6299 0.0000 0.0000
# 5 0.0000 0.0000 0.0000 0.0000 43.3226 0.0000
# 6 0.0000 0.0000 0.0000 0.0000 0.0000 13.3712
#
#
#
# Elastic Compliance Matrix: (Units=1/GPa)
#
#
# Indices 1 2 3 4 5 6 
#
# 1 0.009213 -0.002423 -0.005055 0.000000 0.000000 0.000000
# 2 -0.002423 0.017395 -0.000954 0.000000 0.000000 0.000000
# 3 -0.005055 -0.000954 0.007422 0.000000 0.000000 0.000000
# 4 0.000000 0.000000 0.000000 0.006111 0.000000 0.000000
# 5 0.000000 0.000000 0.000000 0.000000 0.023083 0.000000
# 6 0.000000 0.000000 0.000000 0.000000 0.000000 0.074787
#
#
# Mechanical properties :
#
#
# Convention : Reuss Voigt Hill
#
# Bulk Modulus (GPa) = 58.25143 98.48021 78.36582
# Shear Modulus (GPa) = 31.13394 63.11192 47.12293
#
# Velocity S-wave (km/s) = 3.84596 5.47575 4.73155
# Velocity P-wave (km/s) = 6.88451 9.31479 8.19029
#
# Compressibility (1/GPa) = 0.01716696
#
# Stress axis : x y z
#
# Youngs Moduli (GPa) = 108.54756 57.48767 134.73049
#
# Poissons Ratio (x) = 0.13931 0.68101
# Poissons Ratio (y) = 0.26304 0.12847
# Poissons Ratio (z) = 0.54866 0.05482
#
# Static dielectric constant tensor:
#      x y z
#    x 1.732890 0.000000 0.000000 
#    y 0.000000 1.917970 0.000000 
#    z 0.000000 0.000000 1.789270 
# 
# From -- ./inp_files/45207.got.cif
#   From: 2010.05.17/outbox.cif.g08.bks.cpg/sg67_23_cif.got.tgz:45207.got - 2010.06.03 18:28:57.
