data_PCOD9502014
_publ_section_title
;
Structure prediction by ZEFSAII (Michael W. Deem and Ramdas Pophale) SiO2 
 PCOD9502014
Probable space group: C M M A
;
_chemical_formula_sum "Si O2"
_cell_formula_units_Z 116
_cell_length_a 16.520318
_cell_length_b 19.875168
_cell_length_c 19.901522
_cell_angle_alpha 90.000000
_cell_angle_beta 90.000000
_cell_angle_gamma 90.000000
_cell_volume 6534.547243
_symmetry_space_group_name_H-M "C M M A"
_symmetry_group_IT_number 67
_symmetry_cell_setting 'orthorhombic'
loop_
_space_group_symop_operation_xyz
x,y,z
-x,1/2-y,z
x,-y,-z
-x,1/2+y,-z
-x,-y,-z
x,1/2+y,-z
-x,y,z
x,1/2-y,z
1/2+x,1/2+y,z
1/2-x,-y,z
1/2+x,1/2-y,-z
1/2-x,y,-z
1/2-x,1/2-y,-z
1/2+x,y,-z
1/2-x,1/2+y,z
1/2+x,-y,z
loop_
_atom_site_type_symbol
_atom_site_label
_atom_site_fract_x
_atom_site_fract_y
_atom_site_fract_z
Si Si1 0.000000 0.250000 0.848995
Si Si2 0.093432 0.008274 0.077020
Si Si3 0.333576 0.673095 0.580590
Si Si4 0.139131 0.327030 0.432048
Si Si5 0.091976 0.425784 0.683418
Si Si6 0.208685 0.426726 0.183698
Si Si7 0.879693 0.377393 0.834825
Si Si8 0.905811 0.081325 0.307359
O O1 0.070978 0.190375 0.847096
O O2 0.150686 0.056538 0.120817
O O3 0.000000 0.031551 0.078064
O O4 0.097393 0.935263 0.112085
O O5 0.119820 0.000000 0.000000
O O6 0.359321 0.750000 0.595006
O O7 0.236704 0.673710 0.573514
O O8 0.374291 0.652210 0.509664
O O9 0.354020 0.623001 0.639733
O O10 0.110674 0.250000 0.424165
O O11 0.105422 0.373291 0.373179
O O12 0.097416 0.405887 0.761251
O O13 0.112561 0.503761 0.674892
O O14 0.000000 0.415818 0.660807
O O15 0.250000 0.500000 0.200148
O O16 0.281712 0.376344 0.166411
O O17 0.154972 0.402233 0.246416
O O18 0.000000 0.084084 0.285191
#
# Coordination Sequence:
#
# PCOD9502014 Si02
#       8
#     4  16  16  16  16  16  16  16
#     4  12  24  40  62  86 138 168 202 246 320 368
#     4  10  19  36  65  99 125 156 202 252 303 350
#     4   9  20  36  56  77 109 144 194 252 297 367
#     4   9  20  39  55  76 102 148 202 245 303 365
#     4  11  21  34  53  82 116 145 191 239 310 359
#     4  10  20  35  59  88 123 151 199 251 299 352
#     4  11  22  37  58  92 125 160 201 246 304 374
#     4  11  22  36  57  81 119 156 189 255 305 356
#
# _framework density 17.751804
#
# number of rings (size 3 to 8) (size 9 to 14) (size 15 to 20)
#    0.000    1.793    4.138    2.069    0.966    4.138 
#    1.241    4.138    0.000    1.655    0.000    0.000 
#    0.000    0.000    0.000    0.000    0.000    0.000 
#
# Total GULP energy -322972.817856 kJ/mol
# GULP energy per Si atom -5568.496860 kJ/mol
# Density = 1.771140 g / cm^3
# Si number density = 17.751804 Si / 1000 Ang^3
#
#
#
# Elastic Constant Matrix: (Units=GPa)
#
#
# Indices 1 2 3 4 5 6 
#
# 1 82.6472 35.3309 28.9923 0.0000 0.0000 0.0000
# 2 35.3309 74.4563 40.9842 0.0000 0.0000 0.0000
# 3 28.9923 40.9842 100.2269 0.0000 0.0000 0.0000
# 4 0.0000 0.0000 0.0000 -6.5562 0.0000 0.0000
# 5 0.0000 0.0000 0.0000 0.0000 21.8199 0.0000
# 6 0.0000 0.0000 0.0000 0.0000 0.0000 34.5412
#
#
#
# Elastic Compliance Matrix: (Units=1/GPa)
#
#
# Indices 1 2 3 4 5 6 
#
# 1 0.015454 -0.006288 -0.001899 0.000000 0.000000 0.000000
# 2 -0.006288 0.019890 -0.006315 0.000000 0.000000 0.000000
# 3 -0.001899 -0.006315 0.013109 0.000000 0.000000 0.000000
# 4 0.000000 0.000000 0.000000 -0.152527 0.000000 0.000000
# 5 0.000000 0.000000 0.000000 0.000000 0.045830 0.000000
# 6 0.000000 0.000000 0.000000 0.000000 0.000000 0.028951
#
#
# Mechanical properties :
#
#
# Convention : Reuss Voigt Hill
#
# Bulk Modulus (GPa) = 51.41397 51.99391 51.70394
# Shear Modulus (GPa) = 807.40573 20.09583 413.75078
#
# Velocity S-wave (km/s) = 21.34989 3.36824 15.28337
# Velocity P-wave (km/s) = 25.23455 6.66931 18.45619
#
# Compressibility (1/GPa) = 0.01944997
#
# Stress axis : x y z
#
# Youngs Moduli (GPa) = 64.70915 50.27608 76.28450
#
# Poissons Ratio (x) = 0.31612 0.14487
# Poissons Ratio (y) = 0.40687 0.48170
# Poissons Ratio (z) = 0.12289 0.31747
#
# Static dielectric constant tensor:
#      x y z
#    x 1.656430 0.000000 0.000000 
#    y 0.000000 1.576420 0.000000 
#    z 0.000000 0.000000 1.600260 
# 
# From -- ./inp_files/34374.got.cif
#   From: 2010.05.17/outbox.cif.g08.bks.cpg/sg67_18_cif.got.tgz:34374.got - 2010.06.03 18:28:57.
