data_PCOD9502220
_publ_section_title
;
Structure prediction by ZEFSAII (Michael W. Deem and Ramdas Pophale) SiO2 
 PCOD9502220
Probable space group: C M M A
;
_chemical_formula_sum "Si O2"
_cell_formula_units_Z 80
_cell_length_a 8.630386
_cell_length_b 27.733977
_cell_length_c 19.174179
_cell_angle_alpha 90.000000
_cell_angle_beta 90.000000
_cell_angle_gamma 90.000000
_cell_volume 4589.434211
_symmetry_space_group_name_H-M "C M M A"
_symmetry_group_IT_number 67
_symmetry_cell_setting 'orthorhombic'
loop_
_space_group_symop_operation_xyz
x,y,z
-x,1/2-y,z
x,-y,-z
-x,1/2+y,-z
-x,-y,-z
x,1/2+y,-z
-x,y,z
x,1/2-y,z
1/2+x,1/2+y,z
1/2-x,-y,z
1/2+x,1/2-y,-z
1/2-x,y,-z
1/2-x,1/2-y,-z
1/2+x,y,-z
1/2-x,1/2+y,z
1/2+x,-y,z
loop_
_atom_site_type_symbol
_atom_site_label
_atom_site_fract_x
_atom_site_fract_y
_atom_site_fract_z
Si Si1 0.685152 0.648082 0.424614
Si Si2 0.814957 0.947205 0.356211
Si Si3 0.185679 0.601306 0.780943
Si Si4 0.185412 0.445901 0.073434
Si Si5 0.685597 0.694843 0.713269
O O1 0.500000 0.649617 0.423653
O O2 0.750000 0.661523 0.500000
O O3 0.742297 0.594189 0.404911
O O4 0.752556 0.681795 0.363703
O O5 0.765056 0.932140 0.277721
O O6 0.000000 0.946302 0.362083
O O7 0.750000 0.000000 0.372255
O O8 0.228468 0.584550 0.858404
O O9 0.238490 0.655473 0.763878
O O10 0.000000 0.597266 0.772558
O O11 0.250000 0.500000 0.081946
O O12 0.000000 0.448251 0.069258
O O13 0.250000 0.426808 0.000000
O O14 0.500000 0.688639 0.713874
O O15 0.722661 0.750000 0.730834
#
# Coordination Sequence:
#
# PCOD9502220 Si02
#       5
#    16  16  16  16  16
#     4  11  22  37  55  76 103 134 169 211 259 308
#     4  11  21  34  52  75 103 137 175 212 253 303
#     4  10  20  34  53  78 105 136 173 213 258 304
#     4  10  20  32  50  77 109 143 176 209 248 297
#     4  10  21  37  57  80 103 131 169 212 260 310
#
# _framework density 17.431343999999999
#
# number of rings (size 3 to 8) (size 9 to 14) (size 15 to 20)
#    0.000    1.600    0.000    9.000    0.000    7.200 
#    0.000    2.000    0.000    0.600    0.000    0.000 
#    0.000    0.000    0.000    0.000    0.000    0.000 
#
# Total GULP energy -223504.506081 kJ/mol
# GULP energy per Si atom -5587.612652 kJ/mol
# Density = 1.739167 g / cm^3
# Si number density = 17.431344 Si / 1000 Ang^3
#
#
#
# Elastic Constant Matrix: (Units=GPa)
#
#
# Indices 1 2 3 4 5 6 
#
# 1 65.1737 3.1138 13.6320 0.0000 0.0000 0.0000
# 2 3.1138 48.9969 9.2305 0.0000 0.0000 0.0000
# 3 13.6320 9.2305 102.7624 0.0000 0.0000 0.0000
# 4 0.0000 0.0000 0.0000 49.7955 0.0000 0.0000
# 5 0.0000 0.0000 0.0000 0.0000 30.6360 0.0000
# 6 0.0000 0.0000 0.0000 0.0000 0.0000 -8.7877
#
#
#
# Elastic Compliance Matrix: (Units=1/GPa)
#
#
# Indices 1 2 3 4 5 6 
#
# 1 0.015800 -0.000620 -0.002040 0.000000 0.000000 0.000000
# 2 -0.000620 0.020785 -0.001785 0.000000 0.000000 0.000000
# 3 -0.002040 -0.001785 0.010162 0.000000 0.000000 0.000000
# 4 0.000000 0.000000 0.000000 0.020082 0.000000 0.000000
# 5 0.000000 0.000000 0.000000 0.000000 0.032641 0.000000
# 6 0.000000 0.000000 0.000000 0.000000 0.000000 -0.113795
#
#
# Mechanical properties :
#
#
# Convention : Reuss Voigt Hill
#
# Bulk Modulus (GPa) = 26.41476 29.87617 28.14547
# Shear Modulus (GPa) = 695.94276 27.05919 361.50097
#
# Velocity S-wave (km/s) = 20.00287 3.94424 14.41651
# Velocity P-wave (km/s) = 23.42376 6.15786 17.12589
#
# Compressibility (1/GPa) = 0.03785762
#
# Stress axis : x y z
#
# Youngs Moduli (GPa) = 63.29119 48.11142 98.40431
#
# Poissons Ratio (x) = 0.02982 0.20077
# Poissons Ratio (y) = 0.03922 0.17563
# Poissons Ratio (z) = 0.12913 0.08587
#
# Static dielectric constant tensor:
#      x y z
#    x 1.582970 0.000000 0.000000 
#    y 0.000000 1.576990 0.000000 
#    z 0.000000 0.000000 1.586180 
# 
# From -- ./inp_files/32137.got.cif
#   From: 2010.05.17/outbox.cif.g08.bks.cpg/sg67_17_cif.got.tgz:32137.got - 2010.06.03 18:28:57.
