data_PCOD9502639
_publ_section_title
;
Structure prediction by ZEFSAII (Michael W. Deem and Ramdas Pophale) SiO2 
 PCOD9502639
Probable space group: C M M A
;
_chemical_formula_sum "Si O2"
_cell_formula_units_Z 56
_cell_length_a 8.754294
_cell_length_b 15.444943
_cell_length_c 20.994845
_cell_angle_alpha 90.000000
_cell_angle_beta 90.000000
_cell_angle_gamma 90.000000
_cell_volume 2838.704003
_symmetry_space_group_name_H-M "C M M A"
_symmetry_group_IT_number 67
_symmetry_cell_setting 'orthorhombic'
loop_
_space_group_symop_operation_xyz
x,y,z
-x,1/2-y,z
x,-y,-z
-x,1/2+y,-z
-x,-y,-z
x,1/2+y,-z
-x,y,z
x,1/2-y,z
1/2+x,1/2+y,z
1/2-x,-y,z
1/2+x,1/2-y,-z
1/2-x,y,-z
1/2-x,1/2-y,-z
1/2+x,y,-z
1/2-x,1/2+y,z
1/2+x,-y,z
loop_
_atom_site_type_symbol
_atom_site_label
_atom_site_fract_x
_atom_site_fract_y
_atom_site_fract_z
Si Si1 0.816200 0.750000 0.570494
Si Si2 0.670462 0.146648 0.063448
Si Si3 0.816151 0.902748 0.665632
Si Si4 0.184930 0.903330 0.202157
O O1 0.750000 0.750000 0.500000
O O2 0.771948 0.836032 0.610066
O O3 0.000000 0.750000 0.567117
O O4 0.500000 0.109503 0.065289
O O5 0.660557 0.250000 0.055755
O O6 0.737443 0.132942 0.133779
O O7 0.750000 0.112095 0.000000
O O8 0.752994 0.865627 0.732762
O O9 0.000000 0.908656 0.669200
O O10 0.750000 0.000000 0.656295
O O11 0.000000 0.899523 0.205441
O O12 0.250000 0.000000 0.202521
#
# Coordination Sequence:
#
# PCOD9502639 Si02
#       4
#     8  16  16  16
#     4  10  24  42  62  90 121 152 191 230 277 340
#     4   9  19  34  50  72 102 138 182 227 275 329
#     4  10  21  39  60  87 119 152 191 235 282 336
#     4  10  20  34  54  79 107 141 183 229 277 332
#
# _framework density 19.727314
#
# number of rings (size 3 to 8) (size 9 to 14) (size 15 to 20)
#    0.000    2.286    0.000    3.429    2.000    5.714 
#    0.000    5.714    0.000    0.000    0.000    0.000 
#    0.000    0.000    0.000    0.000    0.000    0.000 
#
# Total GULP energy -156053.619020 kJ/mol
# GULP energy per Si atom -5573.343536 kJ/mol
# Density = 1.968241 g / cm^3
# Si number density = 19.727314 Si / 1000 Ang^3
#
#
#
# Elastic Constant Matrix: (Units=GPa)
#
#
# Indices 1 2 3 4 5 6 
#
# 1 52.2238 24.5398 58.4598 0.0000 0.0000 0.0000
# 2 24.5398 65.4414 66.0853 0.0000 0.0000 0.0000
# 3 58.4598 66.0853 231.4930 0.0000 0.0000 0.0000
# 4 0.0000 0.0000 0.0000 67.6542 0.0000 0.0000
# 5 0.0000 0.0000 0.0000 0.0000 38.3575 0.0000
# 6 0.0000 0.0000 0.0000 0.0000 0.0000 12.4502
#
#
#
# Elastic Compliance Matrix: (Units=1/GPa)
#
#
# Indices 1 2 3 4 5 6 
#
# 1 0.027672 -0.004665 -0.005657 0.000000 0.000000 0.000000
# 2 -0.004665 0.022257 -0.005176 0.000000 0.000000 0.000000
# 3 -0.005657 -0.005176 0.007226 0.000000 0.000000 0.000000
# 4 0.000000 0.000000 0.000000 0.014781 0.000000 0.000000
# 5 0.000000 0.000000 0.000000 0.000000 0.026071 0.000000
# 6 0.000000 0.000000 0.000000 0.000000 0.000000 0.080320
#
#
# Mechanical properties :
#
#
# Convention : Reuss Voigt Hill
#
# Bulk Modulus (GPa) = 38.22490 71.92533 55.07512
# Shear Modulus (GPa) = 22.93156 37.03061 29.98108
#
# Velocity S-wave (km/s) = 3.41314 4.33728 3.90266
# Velocity P-wave (km/s) = 5.91197 7.84994 6.94885
#
# Compressibility (1/GPa) = 0.02616096
#
# Stress axis : x y z
#
# Youngs Moduli (GPa) = 36.13729 44.93037 138.39298
#
# Poissons Ratio (x) = 0.20958 0.78283
# Poissons Ratio (y) = 0.16856 0.71629
# Poissons Ratio (z) = 0.20441 0.23255
#
# Static dielectric constant tensor:
#      x y z
#    x 1.702210 0.000000 0.000000 
#    y 0.000000 1.825890 0.000000 
#    z 0.000000 0.000000 1.740700 
# 
# From -- ./inp_files/31594.got.cif
#   From: 2010.05.17/outbox.cif.g08.bks.cpg/sg67_16_cif.got.tgz:31594.got - 2010.06.03 18:28:57.
