data_PCOD9502765
_publ_section_title
;
Structure prediction by ZEFSAII (Michael W. Deem and Ramdas Pophale) SiO2 
 PCOD9502765
Probable space group: C M M A
;
_chemical_formula_sum "Si O2"
_cell_formula_units_Z 116
_cell_length_a 32.286965
_cell_length_b 17.353772
_cell_length_c 11.345990
_cell_angle_alpha 90.000000
_cell_angle_beta 90.000000
_cell_angle_gamma 90.000000
_cell_volume 6357.165336
_symmetry_space_group_name_H-M "C M M A"
_symmetry_group_IT_number 67
_symmetry_cell_setting 'orthorhombic'
loop_
_space_group_symop_operation_xyz
x,y,z
-x,1/2-y,z
x,-y,-z
-x,1/2+y,-z
-x,-y,-z
x,1/2+y,-z
-x,y,z
x,1/2-y,z
1/2+x,1/2+y,z
1/2-x,-y,z
1/2+x,1/2-y,-z
1/2-x,y,-z
1/2-x,1/2-y,-z
1/2+x,y,-z
1/2-x,1/2+y,z
1/2+x,-y,z
loop_
_atom_site_type_symbol
_atom_site_label
_atom_site_fract_x
_atom_site_fract_y
_atom_site_fract_z
Si Si1 0.570248 0.622694 0.234136
Si Si2 0.172274 0.341826 0.833456
Si Si3 0.656688 0.342848 0.895118
Si Si4 0.451479 0.033802 0.120524
Si Si5 0.743334 0.408949 0.862986
Si Si6 0.500000 0.250000 0.821902
Si Si7 0.411466 0.341427 0.271907
Si Si8 0.049620 0.092115 0.491348
O O1 0.614216 0.634982 0.170168
O O2 0.555332 0.535012 0.212488
O O3 0.536491 0.682265 0.183810
O O4 0.570442 0.629243 0.375725
O O5 0.173995 0.250000 0.839941
O O6 0.217518 0.371282 0.799636
O O7 0.136801 0.363004 0.740717
O O8 0.158610 0.367832 0.966191
O O9 0.660704 0.250000 0.891957
O O10 0.697129 0.381181 0.834669
O O11 0.500000 0.047027 0.103725
O O12 0.432572 0.112632 0.165378
O O13 0.433370 0.000000 0.000000
O O14 0.750000 0.500000 0.854771
O O15 0.750000 0.385578 0.000000
O O16 0.415899 0.250000 0.258248
O O17 0.432458 0.369133 0.391629
O O18 0.000000 0.104911 0.482854
O O19 0.056445 0.000000 0.500000
#
# Coordination Sequence:
#
# PCOD9502765 Si02
#       8
#    16  16  16  16  16   4  16  16
#     4  12  23  40  59  87 119 158 204 257 312 361
#     4   9  19  37  55  81 123 156 192 243 302 358
#     4  10  20  34  58  87 119 156 200 244 301 376
#     4  11  23  40  57  82 119 159 196 247 313 367
#     4   9  18  31  53  86 116 153 196 242 298 360
#     4  12  24  40  60  88 122 162 210 262 314 360
#     4  11  24  39  61  89 116 161 210 250 305 365
#     4  11  23  40  62  82 115 155 207 263 311 358
#
# _framework density 18.247126000000002
#
# number of rings (size 3 to 8) (size 9 to 14) (size 15 to 20)
#    0.000    1.517    3.448    1.655    2.897    2.759 
#    1.241    0.000    0.000    0.828    0.000    4.828 
#    0.000    0.000    0.000    0.000    0.000    0.000 
#
# Total GULP energy -323105.841206 kJ/mol
# GULP energy per Si atom -5570.790366 kJ/mol
# Density = 1.820559 g / cm^3
# Si number density = 18.247126 Si / 1000 Ang^3
#
#
#
# Elastic Constant Matrix: (Units=GPa)
#
#
# Indices 1 2 3 4 5 6 
#
# 1 139.7660 36.7117 24.6541 0.0000 0.0000 0.0000
# 2 36.7117 51.8671 8.7598 0.0000 0.0000 0.0000
# 3 24.6541 8.7598 58.7444 0.0000 0.0000 0.0000
# 4 0.0000 0.0000 0.0000 10.8076 0.0000 0.0000
# 5 0.0000 0.0000 0.0000 0.0000 18.0410 0.0000
# 6 0.0000 0.0000 0.0000 0.0000 0.0000 19.6436
#
#
#
# Elastic Compliance Matrix: (Units=1/GPa)
#
#
# Indices 1 2 3 4 5 6 
#
# 1 0.009273 -0.006059 -0.002988 0.000000 0.000000 0.000000
# 2 -0.006059 0.023737 -0.000997 0.000000 0.000000 0.000000
# 3 -0.002988 -0.000997 0.018426 0.000000 0.000000 0.000000
# 4 0.000000 0.000000 0.000000 0.092528 0.000000 0.000000
# 5 0.000000 0.000000 0.000000 0.000000 0.055429 0.000000
# 6 0.000000 0.000000 0.000000 0.000000 0.000000 0.050907
#
#
# Mechanical properties :
#
#
# Convention : Reuss Voigt Hill
#
# Bulk Modulus (GPa) = 31.90018 43.40319 37.65168
# Shear Modulus (GPa) = 17.80385 21.71522 19.75953
#
# Velocity S-wave (km/s) = 3.12702 3.45347 3.29429
# Velocity P-wave (km/s) = 5.52792 6.30396 5.92865
#
# Compressibility (1/GPa) = 0.03134779
#
# Stress axis : x y z
#
# Youngs Moduli (GPa) = 107.83444 42.12826 54.27201
#
# Poissons Ratio (x) = 0.25526 0.16219
# Poissons Ratio (y) = 0.65338 0.05409
# Poissons Ratio (z) = 0.32225 0.04199
#
# Static dielectric constant tensor:
#      x y z
#    x 1.634640 0.000000 0.000000 
#    y 0.000000 1.633740 0.000000 
#    z 0.000000 0.000000 1.667960 
# 
# From -- ./inp_files/23942.got.cif
#   From: 2010.05.17/outbox.cif.g08.bks.cpg/sg67_12_cif.got.tgz:23942.got - 2010.06.03 18:28:57.
