data_PCOD9502723
_publ_section_title
;
Structure prediction by ZEFSAII (Michael W. Deem and Ramdas Pophale) SiO2 
 PCOD9502723
Probable space group: C M M A
;
_chemical_formula_sum "Si O2"
_cell_formula_units_Z 96
_cell_length_a 16.883269
_cell_length_b 15.413545
_cell_length_c 18.233153
_cell_angle_alpha 90.000000
_cell_angle_beta 90.000000
_cell_angle_gamma 90.000000
_cell_volume 4744.832121
_symmetry_space_group_name_H-M "C M M A"
_symmetry_group_IT_number 67
_symmetry_cell_setting 'orthorhombic'
loop_
_space_group_symop_operation_xyz
x,y,z
-x,1/2-y,z
x,-y,-z
-x,1/2+y,-z
-x,-y,-z
x,1/2+y,-z
-x,y,z
x,1/2-y,z
1/2+x,1/2+y,z
1/2-x,-y,z
1/2+x,1/2-y,-z
1/2-x,y,-z
1/2-x,1/2-y,-z
1/2+x,y,-z
1/2-x,1/2+y,z
1/2+x,-y,z
loop_
_atom_site_type_symbol
_atom_site_label
_atom_site_fract_x
_atom_site_fract_y
_atom_site_fract_z
Si Si1 0.592454 0.644788 0.336024
Si Si2 0.595278 0.149600 0.346893
Si Si3 0.364532 0.152332 0.186531
Si Si4 0.407733 0.995865 0.084392
Si Si5 0.594150 0.644769 0.496575
Si Si6 0.200018 0.412404 0.201595
O O1 0.500000 0.617071 0.327435
O O2 0.592230 0.750000 0.335501
O O3 0.623698 0.616794 0.416726
O O4 0.647336 0.612233 0.271022
O O5 0.500000 0.150485 0.351991
O O6 0.623329 0.250000 0.343896
O O7 0.615511 0.113355 0.267306
O O8 0.624866 0.111550 0.424631
O O9 0.397097 0.250000 0.181661
O O10 0.269549 0.154424 0.183576
O O11 0.396764 0.088603 0.124509
O O12 0.500000 0.971711 0.086381
O O13 0.355817 0.930345 0.132316
O O14 0.381869 0.000000 0.000000
O O15 0.500000 0.626307 0.493972
O O16 0.601826 0.750000 0.499721
O O17 0.250000 0.500000 0.215059
#
# Coordination Sequence:
#
# PCOD9502723 Si02
#       6
#    16  16  16  16  16  16
#     4   9  16  29  52  78 103 135 179 225 259 295
#     4   8  13  24  45  74 105 134 171 220 265 298
#     4  10  20  34  56  84 110 136 170 215 261 304
#     4  10  22  41  62  80 101 133 172 212 258 314
#     4   7  11  21  41  71 102 132 170 218 265 298
#     4  10  21  35  52  75 108 145 172 202 255 321
#
# _framework density 20.232538000000002
#
# number of rings (size 3 to 8) (size 9 to 14) (size 15 to 20)
#    0.000    3.000    0.000    3.500    0.000    4.000 
#    0.000    3.333    0.000   13.000    0.000   15.167 
#    0.000    0.000    0.000    0.000    0.000    0.000 
#
# Total GULP energy -267459.178943 kJ/mol
# GULP energy per Si atom -5572.066228 kJ/mol
# Density = 2.018649 g / cm^3
# Si number density = 20.232538 Si / 1000 Ang^3
#
#
#
# Elastic Constant Matrix: (Units=GPa)
#
#
# Indices 1 2 3 4 5 6 
#
# 1 43.1102 6.1417 45.0354 0.0000 0.0000 0.0000
# 2 6.1417 26.1083 14.3711 0.0000 0.0000 0.0000
# 3 45.0354 14.3711 205.2703 0.0000 0.0000 0.0000
# 4 0.0000 0.0000 0.0000 24.2746 0.0000 0.0000
# 5 0.0000 0.0000 0.0000 0.0000 -50.7786 0.0000
# 6 0.0000 0.0000 0.0000 0.0000 0.0000 5.2082
#
#
#
# Elastic Compliance Matrix: (Units=1/GPa)
#
#
# Indices 1 2 3 4 5 6 
#
# 1 0.030419 -0.003622 -0.006420 0.000000 0.000000 0.000000
# 2 -0.003622 0.040268 -0.002025 0.000000 0.000000 0.000000
# 3 -0.006420 -0.002025 0.006422 0.000000 0.000000 0.000000
# 4 0.000000 0.000000 0.000000 0.041195 0.000000 0.000000
# 5 0.000000 0.000000 0.000000 0.000000 -0.019693 0.000000
# 6 0.000000 0.000000 0.000000 0.000000 0.000000 0.192004
#
#
# Mechanical properties :
#
#
# Convention : Reuss Voigt Hill
#
# Bulk Modulus (GPa) = 18.87636 45.06502 31.97069
# Shear Modulus (GPa) = 15.04176 9.67022 12.35599
#
# Velocity S-wave (km/s) = 2.72958 2.18859 2.47391
# Velocity P-wave (km/s) = 4.39136 5.35803 4.89860
#
# Compressibility (1/GPa) = 0.05297632
#
# Stress axis : x y z
#
# Youngs Moduli (GPa) = 32.87379 24.83332 155.71584
#
# Poissons Ratio (x) = 0.08994 0.99974
# Poissons Ratio (y) = 0.11906 0.31526
# Poissons Ratio (z) = 0.21106 0.05028
#
# Static dielectric constant tensor:
#      x y z
#    x 1.712600 0.000000 0.000000 
#    y 0.000000 1.761330 0.000000 
#    z 0.000000 0.000000 1.739120 
# 
# From -- ./inp_files/34212.got.cif
#   From: 2010.05.17/outbox.cif.g08.bks.cpg/sg67_18_cif.got.tgz:34212.got - 2010.06.03 18:28:57.
