data_PCOD9502381
_publ_section_title
;
Structure prediction by ZEFSAII (Michael W. Deem and Ramdas Pophale) SiO2 
 PCOD9502381
Probable space group: C M M A
;
_chemical_formula_sum "Si O2"
_cell_formula_units_Z 96
_cell_length_a 23.024422
_cell_length_b 17.372744
_cell_length_c 13.577484
_cell_angle_alpha 90.000000
_cell_angle_beta 90.000000
_cell_angle_gamma 90.000000
_cell_volume 5430.958151
_symmetry_space_group_name_H-M "C M M A"
_symmetry_group_IT_number 67
_symmetry_cell_setting 'orthorhombic'
loop_
_space_group_symop_operation_xyz
x,y,z
-x,1/2-y,z
x,-y,-z
-x,1/2+y,-z
-x,-y,-z
x,1/2+y,-z
-x,y,z
x,1/2-y,z
1/2+x,1/2+y,z
1/2-x,-y,z
1/2+x,1/2-y,-z
1/2-x,y,-z
1/2-x,1/2-y,-z
1/2+x,y,-z
1/2-x,1/2+y,z
1/2+x,-y,z
loop_
_atom_site_type_symbol
_atom_site_label
_atom_site_fract_x
_atom_site_fract_y
_atom_site_fract_z
Si Si1 0.931105 0.574953 0.872944
Si Si2 0.430907 0.334974 0.070029
Si Si3 0.244808 0.661141 0.117000
Si Si4 0.680806 0.986178 0.386308
Si Si5 0.353344 0.838797 0.262657
Si Si6 0.639237 0.070732 0.202856
O O1 0.913478 0.637282 0.790056
O O2 0.890622 0.502708 0.848487
O O3 0.000000 0.556490 0.870431
O O4 0.916474 0.608492 0.980200
O O5 0.500000 0.334818 0.077939
O O6 0.410383 0.250000 0.041970
O O7 0.403456 0.360746 0.172378
O O8 0.224920 0.750000 0.134455
O O9 0.304892 0.653281 0.176264
O O10 0.200254 0.598273 0.158214
O O11 0.250000 0.651465 0.000000
O O12 0.663562 0.901513 0.345547
O O13 0.666034 0.000000 0.500000
O O14 0.750000 0.000000 0.375068
O O15 0.648873 0.046853 0.315000
O O16 0.353453 0.750000 0.295687
#
# Coordination Sequence:
#
# PCOD9502381 Si02
#       6
#    16  16  16  16  16  16
#     4  10  21  35  54  82 115 151 190 226 262 318
#     4  10  20  34  52  79 115 151 184 219 262 320
#     4  10  20  33  51  82 118 148 178 218 274 339
#     4  10  21  40  58  79 108 141 182 238 284 327
#     4  10  20  36  58  84 112 145 185 226 273 330
#     4  11  20  34  56  79 107 146 185 229 278 329
#
# _framework density 17.676438999999998
#
# number of rings (size 3 to 8) (size 9 to 14) (size 15 to 20)
#    0.000    1.833    1.667    3.000    0.000    5.000 
#    0.000    5.000    0.000   12.500    0.000    0.000 
#    0.000    0.000    0.000    0.000    0.000    0.000 
#
# Total GULP energy -267779.575247 kJ/mol
# GULP energy per Si atom -5578.741151 kJ/mol
# Density = 1.763621 g / cm^3
# Si number density = 17.676439 Si / 1000 Ang^3
#
#
#
# Elastic Constant Matrix: (Units=GPa)
#
#
# Indices 1 2 3 4 5 6 
#
# 1 53.0922 27.0615 32.8032 0.0000 0.0000 0.0000
# 2 27.0615 66.0551 52.9058 0.0000 0.0000 0.0000
# 3 32.8032 52.9058 132.8142 0.0000 0.0000 0.0000
# 4 0.0000 0.0000 0.0000 16.8970 0.0000 0.0000
# 5 0.0000 0.0000 0.0000 0.0000 21.5354 0.0000
# 6 0.0000 0.0000 0.0000 0.0000 0.0000 27.9651
#
#
#
# Elastic Compliance Matrix: (Units=1/GPa)
#
#
# Indices 1 2 3 4 5 6 
#
# 1 0.024609 -0.007656 -0.003028 0.000000 0.000000 0.000000
# 2 -0.007656 0.024614 -0.007914 0.000000 0.000000 0.000000
# 3 -0.003028 -0.007914 0.011430 0.000000 0.000000 0.000000
# 4 0.000000 0.000000 0.000000 0.059182 0.000000 0.000000
# 5 0.000000 0.000000 0.000000 0.000000 0.046435 0.000000
# 6 0.000000 0.000000 0.000000 0.000000 0.000000 0.035759
#
#
# Mechanical properties :
#
#
# Convention : Reuss Voigt Hill
#
# Bulk Modulus (GPa) = 42.63365 53.05583 47.84474
# Shear Modulus (GPa) = 20.23935 22.55890 21.39912
#
# Velocity S-wave (km/s) = 3.38744 3.57629 3.48314
# Velocity P-wave (km/s) = 6.28259 6.86537 6.58043
#
# Compressibility (1/GPa) = 0.02345565
#
# Stress axis : x y z
#
# Youngs Moduli (GPa) = 40.63623 40.62731 87.49175
#
# Poissons Ratio (x) = 0.31106 0.26493
# Poissons Ratio (y) = 0.31112 0.69240
# Poissons Ratio (z) = 0.12305 0.32152
#
# Static dielectric constant tensor:
#      x y z
#    x 1.627190 0.000000 0.000000 
#    y 0.000000 1.659610 0.000000 
#    z 0.000000 0.000000 1.564610 
# 
# From -- ./inp_files/19611.got.cif
#   From: 2010.05.17/outbox.cif.g08.bks.cpg/sg67_10_cif.got.tgz:19611.got - 2010.06.03 18:28:57.
