data_PCOD9502412
_publ_section_title
;
Structure prediction by ZEFSAII (Michael W. Deem and Ramdas Pophale) SiO2 
 PCOD9502412
Probable space group: C M M A
;
_chemical_formula_sum "Si O2"
_cell_formula_units_Z 80
_cell_length_a 24.251936
_cell_length_b 8.615925
_cell_length_c 20.752243
_cell_angle_alpha 90.000000
_cell_angle_beta 90.000000
_cell_angle_gamma 90.000000
_cell_volume 4336.240561
_symmetry_space_group_name_H-M "C M M A"
_symmetry_group_IT_number 67
_symmetry_cell_setting 'orthorhombic'
loop_
_space_group_symop_operation_xyz
x,y,z
-x,1/2-y,z
x,-y,-z
-x,1/2+y,-z
-x,-y,-z
x,1/2+y,-z
-x,y,z
x,1/2-y,z
1/2+x,1/2+y,z
1/2-x,-y,z
1/2+x,1/2-y,-z
1/2-x,y,-z
1/2-x,1/2-y,-z
1/2+x,y,-z
1/2-x,1/2+y,z
1/2+x,-y,z
loop_
_atom_site_type_symbol
_atom_site_label
_atom_site_fract_x
_atom_site_fract_y
_atom_site_fract_z
Si Si1 0.886511 0.563043 0.303559
Si Si2 0.311425 0.563570 0.193008
Si Si3 0.563998 0.936292 0.428426
Si Si4 0.500000 0.571034 0.909180
Si Si5 0.500000 0.430196 0.244648
Si Si6 0.380237 0.064826 0.933075
O O1 0.884082 0.750000 0.301165
O O2 0.837930 0.497229 0.259474
O O3 0.893886 0.506956 0.376692
O O4 0.943269 0.502010 0.270606
O O5 0.311061 0.750000 0.193829
O O6 0.250000 0.500000 0.185478
O O7 0.348437 0.511754 0.131519
O O8 0.500000 0.980669 0.411989
O O9 0.567109 0.750000 0.427887
O O10 0.574287 0.000000 0.500000
O O11 0.500000 0.750000 0.931289
O O12 0.500000 0.567706 0.831835
O O13 0.556445 0.490165 0.929518
O O14 0.500000 0.250000 0.265879
O O15 0.378483 0.250000 0.934842
O O16 0.356164 0.000000 0.000000
#
# Coordination Sequence:
#
# PCOD9502412 Si02
#       6
#    16  16  16   8   8  16
#     4  11  20  36  60  87 119 154 193 238 290 345
#     4  11  25  43  62  85 111 147 196 246 294 344
#     4  10  20  33  52  84 124 163 198 235 282 339
#     4  11  20  36  59  86 119 153 188 230 285 348
#     4   9  18  30  53  86 115 149 187 228 284 345
#     4  11  24  40  59  85 116 151 190 236 291 349
#
# _framework density 18.449161
#
# number of rings (size 3 to 8) (size 9 to 14) (size 15 to 20)
#    0.000    1.400    3.000    3.000    0.000    3.600 
#    0.000    2.000    0.000    0.600    0.000    4.200 
#    0.000    0.000    0.000    0.000    0.000    0.000 
#
# Total GULP energy -223385.413448 kJ/mol
# GULP energy per Si atom -5584.635336 kJ/mol
# Density = 1.840717 g / cm^3
# Si number density = 18.449161 Si / 1000 Ang^3
#
#
#
# Elastic Constant Matrix: (Units=GPa)
#
#
# Indices 1 2 3 4 5 6 
#
# 1 104.5124 31.5823 65.0317 0.0000 0.0000 0.0000
# 2 31.5823 66.8466 44.8083 0.0000 0.0000 0.0000
# 3 65.0317 44.8083 133.9575 0.0000 0.0000 0.0000
# 4 0.0000 0.0000 0.0000 31.7700 0.0000 0.0000
# 5 0.0000 0.0000 0.0000 0.0000 -7.1601 0.0000
# 6 0.0000 0.0000 0.0000 0.0000 0.0000 25.1775
#
#
#
# Elastic Compliance Matrix: (Units=1/GPa)
#
#
# Indices 1 2 3 4 5 6 
#
# 1 0.014069 -0.002667 -0.005938 0.000000 0.000000 0.000000
# 2 -0.002667 0.019789 -0.005325 0.000000 0.000000 0.000000
# 3 -0.005938 -0.005325 0.012129 0.000000 0.000000 0.000000
# 4 0.000000 0.000000 0.000000 0.031476 0.000000 0.000000
# 5 0.000000 0.000000 0.000000 0.000000 -0.139664 0.000000
# 6 0.000000 0.000000 0.000000 0.000000 0.000000 0.039718
#
#
# Mechanical properties :
#
#
# Convention : Reuss Voigt Hill
#
# Bulk Modulus (GPa) = 55.16385 65.35123 60.25754
# Shear Modulus (GPa) = 437.89021 20.88378 229.38699
#
# Velocity S-wave (km/s) = 15.42287 3.36812 11.16264
# Velocity P-wave (km/s) = 18.63112 7.11511 14.10219
#
# Compressibility (1/GPa) = 0.01812781
#
# Stress axis : x y z
#
# Youngs Moduli (GPa) = 71.07869 50.53379 82.44823
#
# Poissons Ratio (x) = 0.13476 0.48958
# Poissons Ratio (y) = 0.18954 0.43901
# Poissons Ratio (z) = 0.42206 0.26908
#
# Static dielectric constant tensor:
#      x y z
#    x 1.620120 0.000000 0.000000 
#    y 0.000000 1.626960 0.000000 
#    z 0.000000 0.000000 1.651460 
# 
# From -- ./inp_files/36874.got.cif
#   From: 2010.05.17/outbox.cif.g08.bks.cpg/sg67_19_cif.got.tgz:36874.got - 2010.06.03 18:28:57.
