data_PCOD9502368
_publ_section_title
;
Structure prediction by ZEFSAII (Michael W. Deem and Ramdas Pophale) SiO2 
 PCOD9502368
Probable space group: C M M A
;
_chemical_formula_sum "Si O2"
_cell_formula_units_Z 88
_cell_length_a 10.321799
_cell_length_b 23.815848
_cell_length_c 18.133104
_cell_angle_alpha 90.000000
_cell_angle_beta 90.000000
_cell_angle_gamma 90.000000
_cell_volume 4457.523073
_symmetry_space_group_name_H-M "C M M A"
_symmetry_group_IT_number 67
_symmetry_cell_setting 'orthorhombic'
loop_
_space_group_symop_operation_xyz
x,y,z
-x,1/2-y,z
x,-y,-z
-x,1/2+y,-z
-x,-y,-z
x,1/2+y,-z
-x,y,z
x,1/2-y,z
1/2+x,1/2+y,z
1/2-x,-y,z
1/2+x,1/2-y,-z
1/2-x,y,-z
1/2-x,1/2-y,-z
1/2+x,y,-z
1/2-x,1/2+y,z
1/2+x,-y,z
loop_
_atom_site_type_symbol
_atom_site_label
_atom_site_fract_x
_atom_site_fract_y
_atom_site_fract_z
Si Si1 0.500000 0.863225 0.424971
Si Si2 0.143505 0.750000 0.938426
Si Si3 0.000000 0.813100 0.726683
Si Si4 0.500000 0.363064 0.411516
Si Si5 0.500000 0.684123 0.749105
Si Si6 0.346918 0.622645 0.070018
Si Si7 0.243315 0.113974 0.222199
Si Si8 0.751575 0.435362 0.378492
O O1 0.500000 0.816372 0.361766
O O2 0.500000 0.838231 0.506700
O O3 0.375718 0.902703 0.410018
O O4 0.157500 0.688534 0.903666
O O5 0.000000 0.750000 0.972096
O O6 0.250000 0.750000 0.000000
O O7 0.874490 0.846222 0.752857
O O8 0.000000 0.750000 0.755047
O O9 0.500000 0.322681 0.340282
O O10 0.625434 0.402325 0.404988
O O11 0.500000 0.750000 0.768876
O O12 0.625969 0.651008 0.778272
O O13 0.500000 0.610611 0.054460
O O14 0.292725 0.590611 0.141631
O O15 0.250000 0.616432 0.000000
O O16 0.251523 0.069904 0.289159
O O17 0.750000 0.500000 0.400595
#
# Coordination Sequence:
#
# PCOD9502368 Si02
#       8
#     8   8   8   8   8  16  16  16
#     4  10  21  35  56  86 109 139 182 225 271 331
#     4   8  16  28  42  66  98 130 161 199 252 304
#     4  10  20  34  56  78 107 145 187 220 262 319
#     4  10  21  37  54  82 117 137 178 229 271 327
#     4  10  22  36  52  76 109 155 187 216 264 321
#     4  10  20  33  51  77 108 140 176 224 273 319
#     4  10  21  36  53  78 108 144 187 227 264 324
#     4  10  21  37  57  81 108 142 181 226 281 326
#
# _framework density 19.741904999999999
#
# number of rings (size 3 to 8) (size 9 to 14) (size 15 to 20)
#    0.000    2.182    0.909    1.636    3.818    2.545 
#    0.000    0.000    0.000    7.091    0.000    1.273 
#    0.000    0.000    0.000    0.000    0.000    0.000 
#
# Total GULP energy -245334.027026 kJ/mol
# GULP energy per Si atom -5575.773342 kJ/mol
# Density = 1.969697 g / cm^3
# Si number density = 19.741905 Si / 1000 Ang^3
#
#
#
# Elastic Constant Matrix: (Units=GPa)
#
#
# Indices 1 2 3 4 5 6 
#
# 1 150.4177 8.1594 31.8758 0.0000 0.0000 0.0000
# 2 8.1594 26.5731 -17.0689 0.0000 0.0000 0.0000
# 3 31.8758 -17.0689 136.2896 0.0000 0.0000 0.0000
# 4 0.0000 0.0000 0.0000 -5.4452 0.0000 0.0000
# 5 0.0000 0.0000 0.0000 0.0000 23.6012 0.0000
# 6 0.0000 0.0000 0.0000 0.0000 0.0000 24.5926
#
#
#
# Elastic Compliance Matrix: (Units=1/GPa)
#
#
# Indices 1 2 3 4 5 6 
#
# 1 0.007304 -0.003632 -0.002163 0.000000 0.000000 0.000000
# 2 -0.003632 0.042730 0.006201 0.000000 0.000000 0.000000
# 3 -0.002163 0.006201 0.008620 0.000000 0.000000 0.000000
# 4 0.000000 0.000000 0.000000 -0.183647 0.000000 0.000000
# 5 0.000000 0.000000 0.000000 0.000000 0.042371 0.000000
# 6 0.000000 0.000000 0.000000 0.000000 0.000000 0.040663
#
#
# Mechanical properties :
#
#
# Convention : Reuss Voigt Hill
#
# Bulk Modulus (GPa) = 16.81640 39.91254 28.36447
# Shear Modulus (GPa) = -217.86359 27.90399 -94.97980
#
# Velocity S-wave (km/s) = -10.51644 3.76365 -6.94372
# Velocity P-wave (km/s) = 11.78660 6.25682 7.06315
#
# Compressibility (1/GPa) = 0.05946574
#
# Stress axis : x y z
#
# Youngs Moduli (GPa) = 136.91960 23.40254 116.01154
#
# Poissons Ratio (x) = 0.08500 0.25094
# Poissons Ratio (y) = 0.49729 -0.71939
# Poissons Ratio (z) = 0.29616 -0.14512
#
# Static dielectric constant tensor:
#      x y z
#    x 1.616290 0.000000 0.000000 
#    y 0.000000 1.656600 0.000000 
#    z 0.000000 0.000000 1.745660 
# 
# From -- ./inp_files/32509.got.cif
#   From: 2010.05.17/outbox.cif.g08.bks.cpg/sg67_17_cif.got.tgz:32509.got - 2010.06.03 18:28:57.
