data_PCOD9502131
_publ_section_title
;
Structure prediction by ZEFSAII (Michael W. Deem and Ramdas Pophale) SiO2 
 PCOD9502131
Probable space group: C M M A
;
_chemical_formula_sum "Si O2"
_cell_formula_units_Z 96
_cell_length_a 8.871734
_cell_length_b 28.035959
_cell_length_c 25.043823
_cell_angle_alpha 90.000000
_cell_angle_beta 90.000000
_cell_angle_gamma 90.000000
_cell_volume 6229.089255
_symmetry_space_group_name_H-M "C M M A"
_symmetry_group_IT_number 67
_symmetry_cell_setting 'orthorhombic'
loop_
_space_group_symop_operation_xyz
x,y,z
-x,1/2-y,z
x,-y,-z
-x,1/2+y,-z
-x,-y,-z
x,1/2+y,-z
-x,y,z
x,1/2-y,z
1/2+x,1/2+y,z
1/2-x,-y,z
1/2+x,1/2-y,-z
1/2-x,y,-z
1/2-x,1/2-y,-z
1/2+x,y,-z
1/2-x,1/2+y,z
1/2+x,-y,z
loop_
_atom_site_type_symbol
_atom_site_label
_atom_site_fract_x
_atom_site_fract_y
_atom_site_fract_z
Si Si1 0.819562 0.449053 0.336569
Si Si2 0.325308 0.808036 0.054675
Si Si3 0.819133 0.605849 0.556534
Si Si4 0.682606 0.648202 0.281675
Si Si5 0.183891 0.194696 0.171270
Si Si6 0.819385 0.304989 0.614524
O O1 0.750000 0.500000 0.324547
O O2 0.776129 0.430204 0.395655
O O3 0.777123 0.406156 0.296540
O O4 0.000000 0.453033 0.335601
O O5 0.500000 0.821475 0.052490
O O6 0.317914 0.750000 0.055177
O O7 0.262540 0.822470 0.112821
O O8 0.250000 0.824680 0.000000
O O9 0.750000 0.591935 0.500000
O O10 0.756143 0.657434 0.574335
O O11 0.000000 0.607815 0.553728
O O12 0.500000 0.652702 0.286275
O O13 0.728438 0.664223 0.222575
O O14 0.756953 0.681195 0.326917
O O15 0.228872 0.250000 0.178908
O O16 0.000000 0.194449 0.169038
O O17 0.783145 0.250000 0.602370
O O18 0.000000 0.310775 0.613393
#
# Coordination Sequence:
#
# PCOD9502131 Si02
#       6
#    16  16  16  16  16  16
#     4   9  19  33  49  68  87 109 136 169 214 263
#     4   8  13  21  33  51  77 111 147 177 206 240
#     4  10  21  36  52  70  89 111 142 175 208 250
#     4   9  17  30  47  66  86 111 147 183 213 252
#     4   8  13  22  39  61  84 113 147 179 209 243
#     4  10  20  32  46  66  92 120 146 173 209 250
#
# _framework density 15.411562999999999
#
# number of rings (size 3 to 8) (size 9 to 14) (size 15 to 20)
#    0.000    3.000    0.000    3.500    0.000    6.000 
#    0.000    2.500    0.000    3.000    0.000    0.000 
#    0.000    0.667    0.000    8.333    0.000    0.333 
#
# Total GULP energy -267330.060242 kJ/mol
# GULP energy per Si atom -5569.376255 kJ/mol
# Density = 1.537649 g / cm^3
# Si number density = 15.411563 Si / 1000 Ang^3
#
#
#
# Elastic Constant Matrix: (Units=GPa)
#
#
# Indices 1 2 3 4 5 6 
#
# 1 17.5565 13.0494 18.5154 0.0000 0.0000 0.0000
# 2 13.0494 63.4433 30.3612 0.0000 0.0000 0.0000
# 3 18.5154 30.3612 125.4678 0.0000 0.0000 0.0000
# 4 0.0000 0.0000 0.0000 10.1128 0.0000 0.0000
# 5 0.0000 0.0000 0.0000 0.0000 20.9868 0.0000
# 6 0.0000 0.0000 0.0000 0.0000 0.0000 21.4468
#
#
#
# Elastic Compliance Matrix: (Units=1/GPa)
#
#
# Indices 1 2 3 4 5 6 
#
# 1 0.073990 -0.011302 -0.008184 0.000000 0.000000 0.000000
# 2 -0.011302 0.019553 -0.003064 0.000000 0.000000 0.000000
# 3 -0.008184 -0.003064 0.009919 0.000000 0.000000 0.000000
# 4 0.000000 0.000000 0.000000 0.098885 0.000000 0.000000
# 5 0.000000 0.000000 0.000000 0.000000 0.047649 0.000000
# 6 0.000000 0.000000 0.000000 0.000000 0.000000 0.046627
#
#
# Mechanical properties :
#
#
# Convention : Reuss Voigt Hill
#
# Bulk Modulus (GPa) = 17.13415 36.70219 26.91817
# Shear Modulus (GPa) = 13.84362 20.14537 16.99449
#
# Velocity S-wave (km/s) = 3.00035 3.61939 3.32431
# Velocity P-wave (km/s) = 4.81089 6.42908 5.67793
#
# Compressibility (1/GPa) = 0.05836297
#
# Stress axis : x y z
#
# Youngs Moduli (GPa) = 13.51528 51.14321 100.81443
#
# Poissons Ratio (x) = 0.57804 0.82505
# Poissons Ratio (y) = 0.15275 0.30886
# Poissons Ratio (z) = 0.11061 0.15668
#
# Static dielectric constant tensor:
#      x y z
#    x 1.524830 0.000000 0.000000 
#    y 0.000000 1.490210 0.000000 
#    z 0.000000 0.000000 1.533600 
# 
# From -- ./inp_files/40781.got.cif
#   From: 2010.05.17/outbox.cif.g08.bks.cpg/sg67_21_cif.got.tgz:40781.got - 2010.06.03 18:28:57.
