data_PCOD9502583
_publ_section_title
;
Structure prediction by ZEFSAII (Michael W. Deem and Ramdas Pophale) SiO2 
 PCOD9502583
Probable space group: C M M A
;
_chemical_formula_sum "Si O2"
_cell_formula_units_Z 88
_cell_length_a 16.351022
_cell_length_b 8.816991
_cell_length_c 31.316904
_cell_angle_alpha 90.000000
_cell_angle_beta 90.000000
_cell_angle_gamma 90.000000
_cell_volume 4514.858268
_symmetry_space_group_name_H-M "C M M A"
_symmetry_group_IT_number 67
_symmetry_cell_setting 'orthorhombic'
loop_
_space_group_symop_operation_xyz
x,y,z
-x,1/2-y,z
x,-y,-z
-x,1/2+y,-z
-x,-y,-z
x,1/2+y,-z
-x,y,z
x,1/2-y,z
1/2+x,1/2+y,z
1/2-x,-y,z
1/2+x,1/2-y,-z
1/2-x,y,-z
1/2-x,1/2-y,-z
1/2+x,y,-z
1/2-x,1/2+y,z
1/2+x,-y,z
loop_
_atom_site_type_symbol
_atom_site_label
_atom_site_fract_x
_atom_site_fract_y
_atom_site_fract_z
Si Si1 0.904259 0.917164 0.220698
Si Si2 0.657600 0.432039 0.957148
Si Si3 0.842510 0.066920 0.402772
Si Si4 0.839457 0.930192 0.695718
Si Si5 0.500000 0.566628 0.547663
Si Si6 0.159932 0.430796 0.135570
O O1 0.864072 0.750000 0.221161
O O2 0.000000 0.900224 0.216754
O O3 0.888681 0.999030 0.265451
O O4 0.877493 0.007389 0.178956
O O5 0.662164 0.250000 0.960948
O O6 0.750000 0.500000 0.956042
O O7 0.620130 0.470050 0.910613
O O8 0.618275 0.500000 0.000000
O O9 0.839533 0.250000 0.408997
O O10 0.865049 0.036300 0.353000
O O11 0.750000 0.000000 0.410398
O O12 0.916284 0.994392 0.430027
O O13 0.837474 0.750000 0.700290
O O14 0.750000 0.000000 0.700009
O O15 0.500000 0.750000 0.547873
O O16 0.500000 0.500000 0.500000
O O17 0.163720 0.250000 0.137568
O O18 0.250000 0.500000 0.134214
#
# Coordination Sequence:
#
# PCOD9502583 Si02
#       6
#    16  16  16  16   8  16
#     4  11  24  38  53  77 109 146 187 232 281 337
#     4   9  16  26  44  71  99 128 165 212 267 323
#     4  10  22  42  67  98 132 170 216 265 320 380
#     4  10  21  38  62  88 118 153 192 239 290 347
#     4  12  26  44  68  98 134 176 220 270 321 376
#     4  10  20  34  53  76 104 139 177 221 273 332
#
# _framework density 19.491198000000001
#
# number of rings (size 3 to 8) (size 9 to 14) (size 15 to 20)
#    0.000    1.818    0.000    4.636    1.273    6.182 
#    0.000    1.818    0.000    0.545    0.000    0.000 
#    0.000    0.000    0.000    0.000    0.000    0.000 
#
# Total GULP energy -245356.298110 kJ/mol
# GULP energy per Si atom -5576.279503 kJ/mol
# Density = 1.944683 g / cm^3
# Si number density = 19.491198 Si / 1000 Ang^3
#
#
#
# Elastic Constant Matrix: (Units=GPa)
#
#
# Indices 1 2 3 4 5 6 
#
# 1 70.5182 47.7615 86.3936 0.0000 0.0000 0.0000
# 2 47.7615 120.9193 91.1442 0.0000 0.0000 0.0000
# 3 86.3936 91.1442 176.1090 0.0000 0.0000 0.0000
# 4 0.0000 0.0000 0.0000 34.7537 0.0000 0.0000
# 5 0.0000 0.0000 0.0000 0.0000 214.3160 0.0000
# 6 0.0000 0.0000 0.0000 0.0000 0.0000 22.9391
#
#
#
# Elastic Compliance Matrix: (Units=1/GPa)
#
#
# Indices 1 2 3 4 5 6 
#
# 1 0.035701 -0.001476 -0.016750 0.000000 0.000000 0.000000
# 2 -0.001476 0.013621 -0.006325 0.000000 0.000000 0.000000
# 3 -0.016750 -0.006325 0.017169 0.000000 0.000000 0.000000
# 4 0.000000 0.000000 0.000000 0.028774 0.000000 0.000000
# 5 0.000000 0.000000 0.000000 0.000000 0.004666 0.000000
# 6 0.000000 0.000000 0.000000 0.000000 0.000000 0.043594
#
#
# Mechanical properties :
#
#
# Convention : Reuss Voigt Hill
#
# Bulk Modulus (GPa) = 57.50969 90.90501 74.20735
# Shear Modulus (GPa) = 25.19866 63.88491 44.54178
#
# Velocity S-wave (km/s) = 3.59948 5.73127 4.78559
# Velocity P-wave (km/s) = 6.84431 9.51509 8.28799
#
# Compressibility (1/GPa) = 0.01738837
#
# Stress axis : x y z
#
# Youngs Moduli (GPa) = 28.01016 73.41777 58.24478
#
# Poissons Ratio (x) = 0.10837 0.97560
# Poissons Ratio (y) = 0.04134 0.36841
# Poissons Ratio (z) = 0.46917 0.46438
#
# Static dielectric constant tensor:
#      x y z
#    x 1.648010 0.000000 0.000000 
#    y 0.000000 1.718720 0.000000 
#    z 0.000000 0.000000 1.758190 
# 
# From -- ./inp_files/45218.got.cif
#   From: 2010.05.17/outbox.cif.g08.bks.cpg/sg67_23_cif.got.tgz:45218.got - 2010.06.03 18:28:57.
