data_PCOD9502505
_publ_section_title
;
Structure prediction by ZEFSAII (Michael W. Deem and Ramdas Pophale) SiO2 
 PCOD9502505
Probable space group: C M M A
;
_chemical_formula_sum "Si O2"
_cell_formula_units_Z 88
_cell_length_a 15.537395
_cell_length_b 9.484351
_cell_length_c 30.910300
_cell_angle_alpha 90.000000
_cell_angle_beta 90.000000
_cell_angle_gamma 90.000000
_cell_volume 4555.006961
_symmetry_space_group_name_H-M "C M M A"
_symmetry_group_IT_number 67
_symmetry_cell_setting 'orthorhombic'
loop_
_space_group_symop_operation_xyz
x,y,z
-x,1/2-y,z
x,-y,-z
-x,1/2+y,-z
-x,-y,-z
x,1/2+y,-z
-x,y,z
x,1/2-y,z
1/2+x,1/2+y,z
1/2-x,-y,z
1/2+x,1/2-y,-z
1/2-x,y,-z
1/2-x,1/2-y,-z
1/2+x,y,-z
1/2-x,1/2+y,z
1/2+x,-y,z
loop_
_atom_site_type_symbol
_atom_site_label
_atom_site_fract_x
_atom_site_fract_y
_atom_site_fract_z
Si Si1 0.397552 0.593010 0.362388
Si Si2 0.500000 0.081317 0.955043
Si Si3 0.105578 0.410270 0.717394
Si Si4 0.841735 0.579499 0.540772
Si Si5 0.665261 0.080953 0.896558
Si Si6 0.603853 0.914739 0.198825
O O1 0.500000 0.600667 0.355721
O O2 0.361151 0.750000 0.355274
O O3 0.364483 0.484996 0.326666
O O4 0.383747 0.556587 0.412507
O O5 0.500000 0.250000 0.962383
O O6 0.583980 0.047074 0.926598
O O7 0.500000 0.000000 0.000000
O O8 0.134684 0.250000 0.719298
O O9 0.131998 0.495105 0.760051
O O10 0.000000 0.410135 0.717199
O O11 0.885170 0.500000 0.500000
O O12 0.835316 0.750000 0.533712
O O13 0.750000 0.500000 0.544092
O O14 0.677444 0.250000 0.897641
O O15 0.643895 0.041488 0.846876
O O16 0.750000 0.000000 0.911002
O O17 0.500000 0.926589 0.194714
O O18 0.623026 0.750000 0.206341
#
# Coordination Sequence:
#
# PCOD9502505 Si02
#       6
#    16   8  16  16  16  16
#     4   9  18  33  51  72  99 132 170 209 254 313
#     4  10  22  42  64  88 120 158 200 242 291 350
#     4   9  17  28  46  76 108 136 170 216 265 313
#     4  10  20  34  52  71  93 124 163 206 255 312
#     4  10  21  38  60  87 119 154 196 243 290 343
#     4   9  16  31  55  77 103 145 187 222 267 327
#
# _framework density 19.319400000000002
#
# number of rings (size 3 to 8) (size 9 to 14) (size 15 to 20)
#    0.000    2.545    0.909    1.636    0.000    5.818 
#    0.000    2.727    0.000    0.000    0.000    0.000 
#    0.000    0.000    0.000    0.000    0.000    0.000 
#
# Total GULP energy -245451.385983 kJ/mol
# GULP energy per Si atom -5578.440591 kJ/mol
# Density = 1.927543 g / cm^3
# Si number density = 19.319400 Si / 1000 Ang^3
#
#
#
# Elastic Constant Matrix: (Units=GPa)
#
#
# Indices 1 2 3 4 5 6 
#
# 1 57.2513 44.0008 46.7823 0.0000 0.0000 0.0000
# 2 44.0008 94.0613 93.7274 0.0000 0.0000 0.0000
# 3 46.7823 93.7274 168.9756 0.0000 0.0000 0.0000
# 4 0.0000 0.0000 0.0000 37.4646 0.0000 0.0000
# 5 0.0000 0.0000 0.0000 0.0000 -36.1612 0.0000
# 6 0.0000 0.0000 0.0000 0.0000 0.0000 18.5129
#
#
#
# Elastic Compliance Matrix: (Units=1/GPa)
#
#
# Indices 1 2 3 4 5 6 
#
# 1 0.027357 -0.011738 -0.001063 0.000000 0.000000 0.000000
# 2 -0.011738 0.028805 -0.012728 0.000000 0.000000 0.000000
# 3 -0.001063 -0.012728 0.013272 0.000000 0.000000 0.000000
# 4 0.000000 0.000000 0.000000 0.026692 0.000000 0.000000
# 5 0.000000 0.000000 0.000000 0.000000 -0.027654 0.000000
# 6 0.000000 0.000000 0.000000 0.000000 0.000000 0.054016
#
#
# Mechanical properties :
#
#
# Convention : Reuss Voigt Hill
#
# Bulk Modulus (GPa) = 54.41793 76.58990 65.50392
# Shear Modulus (GPa) = 27.82875 13.01511 20.42193
#
# Velocity S-wave (km/s) = 3.79945 2.59835 3.25479
# Velocity P-wave (km/s) = 6.89031 6.98083 6.93572
#
# Compressibility (1/GPa) = 0.01837629
#
# Stress axis : x y z
#
# Youngs Moduli (GPa) = 36.55407 34.71678 75.34563
#
# Poissons Ratio (x) = 0.40749 0.08012
# Poissons Ratio (y) = 0.42906 0.95897
# Poissons Ratio (z) = 0.03887 0.44186
#
# Static dielectric constant tensor:
#      x y z
#    x 1.694340 0.000000 0.000000 
#    y 0.000000 1.658810 0.000000 
#    z 0.000000 0.000000 1.670820 
# 
# From -- ./inp_files/45765.got.cif
#   From: 2010.05.17/outbox.cif.g08.bks.cpg/sg67_23_cif.got.tgz:45765.got - 2010.06.03 18:28:57.
