data_PCOD9502429
_publ_section_title
;
Structure prediction by ZEFSAII (Michael W. Deem and Ramdas Pophale) SiO2 
 PCOD9502429
Probable space group: C M M A
;
_chemical_formula_sum "Si O2"
_cell_formula_units_Z 96
_cell_length_a 29.556211
_cell_length_b 8.608427
_cell_length_c 21.026235
_cell_angle_alpha 90.000000
_cell_angle_beta 90.000000
_cell_angle_gamma 90.000000
_cell_volume 5349.757217
_symmetry_space_group_name_H-M "C M M A"
_symmetry_group_IT_number 67
_symmetry_cell_setting 'orthorhombic'
loop_
_space_group_symop_operation_xyz
x,y,z
-x,1/2-y,z
x,-y,-z
-x,1/2+y,-z
-x,-y,-z
x,1/2+y,-z
-x,y,z
x,1/2-y,z
1/2+x,1/2+y,z
1/2-x,-y,z
1/2+x,1/2-y,-z
1/2-x,y,-z
1/2-x,1/2-y,-z
1/2+x,y,-z
1/2-x,1/2+y,z
1/2+x,-y,z
loop_
_atom_site_type_symbol
_atom_site_label
_atom_site_fract_x
_atom_site_fract_y
_atom_site_fract_z
Si Si1 0.948712 0.435827 0.762172
Si Si2 0.700494 0.564762 0.929608
Si Si3 0.800633 0.562490 0.693134
Si Si4 0.050186 0.937823 0.618798
Si Si5 0.858899 0.063758 0.183297
Si Si6 0.145529 0.437374 0.432837
O O1 0.943937 0.250000 0.760049
O O2 0.943709 0.502277 0.690731
O O3 0.909916 0.508199 0.805402
O O4 0.000000 0.473104 0.782984
O O5 0.702567 0.750000 0.931903
O O6 0.750000 0.500000 0.910948
O O7 0.664247 0.508481 0.878450
O O8 0.690687 0.500000 0.000000
O O9 0.799527 0.750000 0.692825
O O10 0.750000 0.500000 0.697400
O O11 0.830209 0.514728 0.754195
O O12 0.825018 0.511807 0.627866
O O13 0.050792 0.750000 0.620476
O O14 0.093531 0.989530 0.578661
O O15 0.000000 0.987785 0.596566
O O16 0.857352 0.250000 0.179253
O O17 0.162351 0.500000 0.500000
O O18 0.146033 0.250000 0.434151
#
# Coordination Sequence:
#
# PCOD9502429 Si02
#       6
#    16  16  16  16  16  16
#     4  10  20  33  53  84 116 144 181 229 278 331
#     4  11  22  38  59  88 123 159 195 233 277 330
#     4  10  22  38  55  77 105 137 181 229 277 330
#     4   9  17  33  55  75 102 139 176 220 277 338
#     4  11  21  37  60  85 114 150 189 232 279 332
#     4  10  21  37  52  74 103 138 180 226 277 336
#
# _framework density 17.944741
#
# number of rings (size 3 to 8) (size 9 to 14) (size 15 to 20)
#    0.000    1.833    1.667    3.500    0.000    5.667 
#    0.000    1.667    0.000    0.500    0.000    0.000 
#    0.000    0.000    0.000    0.000    0.000    0.000 
#
# Total GULP energy -268072.229542 kJ/mol
# GULP energy per Si atom -5584.838115 kJ/mol
# Density = 1.790390 g / cm^3
# Si number density = 17.944741 Si / 1000 Ang^3
#
#
#
# Elastic Constant Matrix: (Units=GPa)
#
#
# Indices 1 2 3 4 5 6 
#
# 1 113.0410 29.0769 55.2044 0.0000 0.0000 0.0000
# 2 29.0769 38.8578 23.7351 0.0000 0.0000 0.0000
# 3 55.2044 23.7351 78.6664 0.0000 0.0000 0.0000
# 4 0.0000 0.0000 0.0000 20.0469 0.0000 0.0000
# 5 0.0000 0.0000 0.0000 0.0000 18.1162 0.0000
# 6 0.0000 0.0000 0.0000 0.0000 0.0000 26.2039
#
#
#
# Elastic Compliance Matrix: (Units=1/GPa)
#
#
# Indices 1 2 3 4 5 6 
#
# 1 0.014402 -0.005644 -0.008404 0.000000 0.000000 0.000000
# 2 -0.005644 0.033761 -0.006226 0.000000 0.000000 0.000000
# 3 -0.008404 -0.006226 0.020488 0.000000 0.000000 0.000000
# 4 0.000000 0.000000 0.000000 0.049883 0.000000 0.000000
# 5 0.000000 0.000000 0.000000 0.000000 0.055199 0.000000
# 6 0.000000 0.000000 0.000000 0.000000 0.000000 0.038162
#
#
# Mechanical properties :
#
#
# Convention : Reuss Voigt Hill
#
# Bulk Modulus (GPa) = 35.58217 49.62200 42.60209
# Shear Modulus (GPa) = 19.09781 21.04333 20.07057
#
# Velocity S-wave (km/s) = 3.26583 3.42815 3.34797
# Velocity P-wave (km/s) = 5.83889 6.58652 6.22394
#
# Compressibility (1/GPa) = 0.02810396
#
# Stress axis : x y z
#
# Youngs Moduli (GPa) = 69.43385 29.62015 48.80940
#
# Poissons Ratio (x) = 0.16717 0.41019
# Poissons Ratio (y) = 0.39186 0.30388
# Poissons Ratio (z) = 0.58352 0.18441
#
# Static dielectric constant tensor:
#      x y z
#    x 1.617570 0.000000 0.000000 
#    y 0.000000 1.607520 0.000000 
#    z 0.000000 0.000000 1.587500 
# 
# From -- ./inp_files/37157.got.cif
#   From: 2010.05.17/outbox.cif.g08.bks.cpg/sg67_19_cif.got.tgz:37157.got - 2010.06.03 18:28:57.
