data_PCOD9502688
_publ_section_title
;
Structure prediction by ZEFSAII (Michael W. Deem and Ramdas Pophale) SiO2 
 PCOD9502688
Probable space group: C M M A
;
_chemical_formula_sum "Si O2"
_cell_formula_units_Z 88
_cell_length_a 37.396518
_cell_length_b 7.655717
_cell_length_c 14.823771
_cell_angle_alpha 90.000000
_cell_angle_beta 90.000000
_cell_angle_gamma 90.000000
_cell_volume 4244.003517
_symmetry_space_group_name_H-M "C M M A"
_symmetry_group_IT_number 67
_symmetry_cell_setting 'orthorhombic'
loop_
_space_group_symop_operation_xyz
x,y,z
-x,1/2-y,z
x,-y,-z
-x,1/2+y,-z
-x,-y,-z
x,1/2+y,-z
-x,y,z
x,1/2-y,z
1/2+x,1/2+y,z
1/2-x,-y,z
1/2+x,1/2-y,-z
1/2-x,y,-z
1/2-x,1/2-y,-z
1/2+x,y,-z
1/2-x,1/2+y,z
1/2+x,-y,z
loop_
_atom_site_type_symbol
_atom_site_label
_atom_site_fract_x
_atom_site_fract_y
_atom_site_fract_z
Si Si1 0.429271 0.464158 0.290150
Si Si2 0.500000 0.539988 0.606175
Si Si3 0.320319 0.459457 0.099778
Si Si4 0.141629 0.959573 0.394948
Si Si5 0.210057 0.459646 0.713699
Si Si6 0.097392 0.959288 0.100156
O O1 0.429844 0.250000 0.291258
O O2 0.464417 0.524205 0.342973
O O3 0.393454 0.521893 0.342042
O O4 0.425342 0.520153 0.185951
O O5 0.500000 0.750000 0.613739
O O6 0.500000 0.500000 0.500000
O O7 0.321974 0.250000 0.106642
O O8 0.297562 0.524766 0.184426
O O9 0.361456 0.525232 0.106447
O O10 0.306423 0.500000 0.000000
O O11 0.141707 0.750000 0.384964
O O12 0.178225 0.026069 0.350000
O O13 0.139586 0.000000 0.500000
O O14 0.207296 0.250000 0.715510
O O15 0.250000 0.500000 0.683569
O O16 0.099354 0.750000 0.107182
O O17 0.083730 0.000000 0.000000
#
# Coordination Sequence:
#
# PCOD9502688 Si02
#       6
#    16   8  16  16  16  16
#     4   9  17  33  56  78 105 139 171 204 251 309
#     4  10  20  34  55  82 108 138 173 212 257 302
#     4   9  17  31  51  73  98 131 167 206 250 298
#     4  10  20  36  55  74  98 132 171 211 255 304
#     4  10  21  36  52  71 100 134 168 209 257 304
#     4   9  16  30  52  76 102 134 171 207 245 297
#
# _framework density 20.735139
#
# number of rings (size 3 to 8) (size 9 to 14) (size 15 to 20)
#    0.000    2.545    1.818    0.545    0.000    2.182 
#    0.000    5.909    0.000    0.000    0.000    0.000 
#    0.000    0.000    0.000    0.000    0.000    0.000 
#
# Total GULP energy -245579.622724 kJ/mol
# GULP energy per Si atom -5581.355062 kJ/mol
# Density = 2.068794 g / cm^3
# Si number density = 20.735139 Si / 1000 Ang^3
#
#
#
# Elastic Constant Matrix: (Units=GPa)
#
#
# Indices 1 2 3 4 5 6 
#
# 1 160.9817 7.3214 103.5995 0.0000 0.0000 0.0000
# 2 7.3214 35.8669 0.2581 0.0000 0.0000 0.0000
# 3 103.5995 0.2581 176.3259 0.0000 0.0000 0.0000
# 4 0.0000 0.0000 0.0000 26.1711 0.0000 0.0000
# 5 0.0000 0.0000 0.0000 0.0000 16.8034 0.0000
# 6 0.0000 0.0000 0.0000 0.0000 0.0000 11.2497
#
#
#
# Elastic Compliance Matrix: (Units=1/GPa)
#
#
# Indices 1 2 3 4 5 6 
#
# 1 0.010134 -0.002026 -0.005951 0.000000 0.000000 0.000000
# 2 -0.002026 0.028286 0.001149 0.000000 0.000000 0.000000
# 3 -0.005951 0.001149 0.009166 0.000000 0.000000 0.000000
# 4 0.000000 0.000000 0.000000 0.038210 0.000000 0.000000
# 5 0.000000 0.000000 0.000000 0.000000 0.059512 0.000000
# 6 0.000000 0.000000 0.000000 0.000000 0.000000 0.088891
#
#
# Mechanical properties :
#
#
# Convention : Reuss Voigt Hill
#
# Bulk Modulus (GPa) = 29.47241 66.17027 47.82134
# Shear Modulus (GPa) = 19.29269 28.31121 23.80195
#
# Velocity S-wave (km/s) = 3.05361 3.69910 3.39175
# Velocity P-wave (km/s) = 5.16501 7.08703 6.20094
#
# Compressibility (1/GPa) = 0.03393004
#
# Stress axis : x y z
#
# Youngs Moduli (GPa) = 98.67903 35.35301 109.09640
#
# Poissons Ratio (x) = 0.07162 0.64925
# Poissons Ratio (y) = 0.19990 -0.12533
# Poissons Ratio (z) = 0.58725 -0.04061
#
# Static dielectric constant tensor:
#      x y z
#    x 1.728150 0.000000 0.000000 
#    y 0.000000 1.789380 0.000000 
#    z 0.000000 0.000000 1.730400 
# 
# From -- ./inp_files/16870.got.cif
#   From: 2010.05.17/outbox.cif.g08.bks.cpg/sg67_9_cif.got.tgz:16870.got - 2010.06.03 18:28:57.
