data_PCOD9502150
_publ_section_title
;
Structure prediction by ZEFSAII (Michael W. Deem and Ramdas Pophale) SiO2 
 PCOD9502150
Probable space group: C M M A
;
_chemical_formula_sum "Si O2"
_cell_formula_units_Z 112
_cell_length_a 29.068635
_cell_length_b 13.809882
_cell_length_c 11.617216
_cell_angle_alpha 90.000000
_cell_angle_beta 90.000000
_cell_angle_gamma 90.000000
_cell_volume 4663.550358
_symmetry_space_group_name_H-M "C M M A"
_symmetry_group_IT_number 67
_symmetry_cell_setting 'orthorhombic'
loop_
_space_group_symop_operation_xyz
x,y,z
-x,1/2-y,z
x,-y,-z
-x,1/2+y,-z
-x,-y,-z
x,1/2+y,-z
-x,y,z
x,1/2-y,z
1/2+x,1/2+y,z
1/2-x,-y,z
1/2+x,1/2-y,-z
1/2-x,y,-z
1/2-x,1/2-y,-z
1/2+x,y,-z
1/2-x,1/2+y,z
1/2+x,-y,z
loop_
_atom_site_type_symbol
_atom_site_label
_atom_site_fract_x
_atom_site_fract_y
_atom_site_fract_z
Si Si1 0.085627 0.632123 0.187352
Si Si2 0.050163 0.599836 0.430444
Si Si3 0.315380 0.368051 0.286292
Si Si4 0.732764 0.367473 0.874469
Si Si5 0.864001 0.868485 0.778277
Si Si6 0.448022 0.631622 0.067203
Si Si7 0.148885 0.858018 0.522452
O O1 0.081756 0.750000 0.194721
O O2 0.056309 0.591232 0.293454
O O3 0.138970 0.607575 0.212741
O O4 0.068345 0.604488 0.061084
O O5 0.050551 0.500000 0.500000
O O6 0.097032 0.649248 0.472800
O O7 0.000000 0.644282 0.453713
O O8 0.315131 0.250000 0.291570
O O9 0.269338 0.398481 0.221847
O O10 0.321689 0.401475 0.418177
O O11 0.732524 0.250000 0.871542
O O12 0.680789 0.397363 0.849894
O O13 0.750000 0.395299 0.000000
O O14 0.866002 0.750000 0.775401
O O15 0.910840 0.900417 0.838649
O O16 0.856586 0.903190 0.647958
O O17 0.500000 0.599339 0.089738
O O18 0.448191 0.750000 0.069306
O O19 0.167844 0.750000 0.542632
#
# Coordination Sequence:
#
# PCOD9502150 Si02
#       7
#    16  16  16  16  16  16  16
#     4   9  16  28  47  70  94 121 159 201 238 280
#     4  10  20  32  47  68  93 121 155 196 239 281
#     4   8  14  24  39  61  88 118 151 186 228 278
#     4   9  15  23  38  62  94 126 150 184 238 285
#     4   9  17  27  40  64  96 125 155 191 234 284
#     4   9  16  25  39  61  90 123 158 198 239 277
#     4   9  18  31  46  66  93 124 156 190 230 282
#
# _framework density 24.016038000000002
#
# number of rings (size 3 to 8) (size 9 to 14) (size 15 to 20)
#    0.000    3.000    0.000    2.571    0.000    6.286 
#    0.000    4.286    0.000    0.857    0.000   11.000 
#    0.000    4.571    0.000    0.000    0.000    0.000 
#
# Total GULP energy -313175.807079 kJ/mol
# GULP energy per Si atom -5592.425126 kJ/mol
# Density = 2.396138 g / cm^3
# Si number density = 24.016038 Si / 1000 Ang^3
#
#
#
# Elastic Constant Matrix: (Units=GPa)
#
#
# Indices 1 2 3 4 5 6 
#
# 1 154.5264 18.3828 104.3382 0.0000 0.0000 0.0000
# 2 18.3828 94.4296 26.3383 0.0000 0.0000 0.0000
# 3 104.3382 26.3383 215.1744 0.0000 0.0000 0.0000
# 4 0.0000 0.0000 0.0000 16.0195 0.0000 0.0000
# 5 0.0000 0.0000 0.0000 0.0000 27.8205 0.0000
# 6 0.0000 0.0000 0.0000 0.0000 0.0000 -7.9544
#
#
#
# Elastic Compliance Matrix: (Units=1/GPa)
#
#
# Indices 1 2 3 4 5 6 
#
# 1 0.009654 -0.000594 -0.004608 0.000000 0.000000 0.000000
# 2 -0.000594 0.011001 -0.001059 0.000000 0.000000 0.000000
# 3 -0.004608 -0.001059 0.007012 0.000000 0.000000 0.000000
# 4 0.000000 0.000000 0.000000 0.062424 0.000000 0.000000
# 5 0.000000 0.000000 0.000000 0.000000 0.035945 0.000000
# 6 0.000000 0.000000 0.000000 0.000000 0.000000 -0.125717
#
#
# Mechanical properties :
#
#
# Convention : Reuss Voigt Hill
#
# Bulk Modulus (GPa) = 66.03143 84.69435 75.36289
# Shear Modulus (GPa) = 279.52856 28.18188 153.85522
#
# Velocity S-wave (km/s) = 10.80024 3.42930 8.01265
# Velocity P-wave (km/s) = 13.53075 7.14300 10.81905
#
# Compressibility (1/GPa) = 0.01514430
#
# Stress axis : x y z
#
# Youngs Moduli (GPa) = 103.58754 90.90275 142.62156
#
# Poissons Ratio (x) = 0.05399 0.65725
# Poissons Ratio (y) = 0.06152 0.15097
# Poissons Ratio (z) = 0.47737 0.09622
#
# Static dielectric constant tensor:
#      x y z
#    x 1.851080 0.000000 0.000000 
#    y 0.000000 1.971640 0.000000 
#    z 0.000000 0.000000 1.862630 
# 
# From -- ./inp_files/23152.got.cif
#   From: 2010.05.17/outbox.cif.g08.bks.cpg/sg67_12_cif.got.tgz:23152.got - 2010.06.03 18:28:57.
