data_PCOD9502761
_publ_section_title
;
Structure prediction by ZEFSAII (Michael W. Deem and Ramdas Pophale) SiO2 
 PCOD9502761
Probable space group: C M M A
;
_chemical_formula_sum "Si O2"
_cell_formula_units_Z 68
_cell_length_a 17.408234
_cell_length_b 17.786944
_cell_length_c 11.301550
_cell_angle_alpha 90.000000
_cell_angle_beta 90.000000
_cell_angle_gamma 90.000000
_cell_volume 3499.403842
_symmetry_space_group_name_H-M "C M M A"
_symmetry_group_IT_number 67
_symmetry_cell_setting 'orthorhombic'
loop_
_space_group_symop_operation_xyz
x,y,z
-x,1/2-y,z
x,-y,-z
-x,1/2+y,-z
-x,-y,-z
x,1/2+y,-z
-x,y,z
x,1/2-y,z
1/2+x,1/2+y,z
1/2-x,-y,z
1/2+x,1/2-y,-z
1/2-x,y,-z
1/2-x,1/2-y,-z
1/2+x,y,-z
1/2-x,1/2+y,z
1/2+x,-y,z
loop_
_atom_site_type_symbol
_atom_site_label
_atom_site_fract_x
_atom_site_fract_y
_atom_site_fract_z
Si Si1 0.750000 0.000000 0.500000
Si Si2 0.814491 0.839287 0.247524
Si Si3 0.344338 0.593660 0.309967
Si Si4 0.916865 0.660695 0.472207
Si Si5 0.409472 0.030491 0.132116
O O1 0.696883 0.954067 0.411861
O O2 0.825734 0.750000 0.225918
O O3 0.724205 0.858933 0.250038
O O4 0.851310 0.859357 0.376723
O O5 0.859261 0.895364 0.159932
O O6 0.400290 0.642865 0.391139
O O7 0.384189 0.536234 0.220700
O O8 0.920982 0.750000 0.461783
O O9 0.000000 0.627306 0.437982
O O10 0.500000 0.047005 0.146725
O O11 0.396575 0.000000 0.000000
#
# Coordination Sequence:
#
# PCOD9502761 Si02
#       5
#     4  16  16  16  16
#     4  12  20  32  58  92 124 148 192 242 296 364
#     4  11  22  38  63  91 122 157 198 250 308 367
#     4  12  20  38  59  91 125 158 200 249 301 354
#     4  10  20  34  57  91 127 161 196 242 306 369
#     4  11  25  44  64  86 117 163 214 255 294 350
#
# _framework density 19.431882000000002
#
# number of rings (size 3 to 8) (size 9 to 14) (size 15 to 20)
#    0.000    0.941    4.706    2.118    0.000    5.176 
#    0.000    7.059    0.000    2.824    0.000    0.000 
#    0.000    0.000    0.000    0.000    0.000    0.000 
#
# Total GULP energy -189738.053606 kJ/mol
# GULP energy per Si atom -5580.530988 kJ/mol
# Density = 1.938765 g / cm^3
# Si number density = 19.431882 Si / 1000 Ang^3
#
#
#
# Elastic Constant Matrix: (Units=GPa)
#
#
# Indices 1 2 3 4 5 6 
#
# 1 61.2827 27.6975 16.4220 0.0000 0.0000 0.0000
# 2 27.6975 85.4516 34.8978 0.0000 0.0000 0.0000
# 3 16.4220 34.8978 84.3079 0.0000 0.0000 0.0000
# 4 0.0000 0.0000 0.0000 10.4896 0.0000 0.0000
# 5 0.0000 0.0000 0.0000 0.0000 32.7001 0.0000
# 6 0.0000 0.0000 0.0000 0.0000 0.0000 19.8843
#
#
#
# Elastic Compliance Matrix: (Units=1/GPa)
#
#
# Indices 1 2 3 4 5 6 
#
# 1 0.019256 -0.005668 -0.001405 0.000000 0.000000 0.000000
# 2 -0.005668 0.015751 -0.005416 0.000000 0.000000 0.000000
# 3 -0.001405 -0.005416 0.014377 0.000000 0.000000 0.000000
# 4 0.000000 0.000000 0.000000 0.095333 0.000000 0.000000
# 5 0.000000 0.000000 0.000000 0.000000 0.030581 0.000000
# 6 0.000000 0.000000 0.000000 0.000000 0.000000 0.050291
#
#
# Mechanical properties :
#
#
# Convention : Reuss Voigt Hill
#
# Bulk Modulus (GPa) = 40.97167 43.23075 42.10121
# Shear Modulus (GPa) = 19.32730 22.74980 21.03855
#
# Velocity S-wave (km/s) = 3.15718 3.42533 3.29398
# Velocity P-wave (km/s) = 5.86693 6.15950 6.01500
#
# Compressibility (1/GPa) = 0.02440711
#
# Stress axis : x y z
#
# Youngs Moduli (GPa) = 51.93235 63.48602 69.55657
#
# Poissons Ratio (x) = 0.35982 0.09771
# Poissons Ratio (y) = 0.29434 0.37672
# Poissons Ratio (z) = 0.07295 0.34384
#
# Static dielectric constant tensor:
#      x y z
#    x 1.766990 0.000000 0.000000 
#    y 0.000000 1.725560 0.000000 
#    z 0.000000 0.000000 1.649410 
# 
# From -- ./inp_files/9482.got.cif
#   From: 2010.05.17/outbox.cif.g08.bks.cpg/sg67_5_cif.got.tgz:9482.got - 2010.06.03 18:28:57.
