data_PCOD9502858
_publ_section_title
;
Structure prediction by ZEFSAII (Michael W. Deem and Ramdas Pophale) SiO2 
 PCOD9502858
Probable space group: C M M A
;
_chemical_formula_sum "Si O2"
_cell_formula_units_Z 80
_cell_length_a 19.419857
_cell_length_b 8.600567
_cell_length_c 26.077670
_cell_angle_alpha 90.000000
_cell_angle_beta 90.000000
_cell_angle_gamma 90.000000
_cell_volume 4355.538894
_symmetry_space_group_name_H-M "C M M A"
_symmetry_group_IT_number 67
_symmetry_cell_setting 'orthorhombic'
loop_
_space_group_symop_operation_xyz
x,y,z
-x,1/2-y,z
x,-y,-z
-x,1/2+y,-z
-x,-y,-z
x,1/2+y,-z
-x,y,z
x,1/2-y,z
1/2+x,1/2+y,z
1/2-x,-y,z
1/2+x,1/2-y,-z
1/2-x,y,-z
1/2-x,1/2-y,-z
1/2+x,y,-z
1/2-x,1/2+y,z
1/2+x,-y,z
loop_
_atom_site_type_symbol
_atom_site_label
_atom_site_fract_x
_atom_site_fract_y
_atom_site_fract_z
Si Si1 0.826731 0.562586 0.650020
Si Si2 0.419430 0.563263 0.146580
Si Si3 0.172676 0.064065 0.761412
Si Si4 0.825113 0.935980 0.057194
Si Si5 0.579487 0.062657 0.554577
O O1 0.825523 0.750000 0.653239
O O2 0.750000 0.500000 0.640526
O O3 0.848754 0.495305 0.705034
O O4 0.875698 0.514305 0.603310
O O5 0.500000 0.521228 0.148229
O O6 0.413933 0.750000 0.145736
O O7 0.378700 0.498611 0.195608
O O8 0.382248 0.494952 0.096511
O O9 0.174955 0.250000 0.762255
O O10 0.250000 0.000000 0.770718
O O11 0.822733 0.750000 0.056137
O O12 0.750000 0.000000 0.073453
O O13 0.837808 0.000000 0.000000
O O14 0.500000 0.011501 0.560345
O O15 0.580322 0.250000 0.552751
O O16 0.605415 0.000000 0.500000
#
# Coordination Sequence:
#
# PCOD9502858 Si02
#       5
#    16  16  16  16  16
#     4  10  20  35  55  80 109 141 180 225 275 327
#     4  11  24  41  60  84 116 152 189 231 281 333
#     4  11  22  38  60  84 112 146 187 231 278 333
#     4  11  22  39  63  89 118 151 192 235 278 331
#     4   9  19  35  54  76 104 140 180 221 268 324
#
# _framework density 18.367417
#
# number of rings (size 3 to 8) (size 9 to 14) (size 15 to 20)
#    0.000    1.600    0.000    7.200    0.000    4.800 
#    0.000    4.000    0.000    0.000    0.000    0.000 
#    0.000    0.000    0.000    0.000    0.000    0.000 
#
# Total GULP energy -223558.465252 kJ/mol
# GULP energy per Si atom -5588.961631 kJ/mol
# Density = 1.832561 g / cm^3
# Si number density = 18.367417 Si / 1000 Ang^3
#
#
#
# Elastic Constant Matrix: (Units=GPa)
#
#
# Indices 1 2 3 4 5 6 
#
# 1 118.1259 60.5226 114.1841 0.0000 0.0000 0.0000
# 2 60.5226 113.8960 61.9820 0.0000 0.0000 0.0000
# 3 114.1841 61.9820 153.3738 0.0000 0.0000 0.0000
# 4 0.0000 0.0000 0.0000 35.6286 0.0000 0.0000
# 5 0.0000 0.0000 0.0000 0.0000 87.1280 0.0000
# 6 0.0000 0.0000 0.0000 0.0000 0.0000 24.4370
#
#
#
# Elastic Compliance Matrix: (Units=1/GPa)
#
#
# Indices 1 2 3 4 5 6 
#
# 1 0.032477 -0.005256 -0.022055 0.000000 0.000000 0.000000
# 2 -0.005256 0.012106 -0.000979 0.000000 0.000000 0.000000
# 3 -0.022055 -0.000979 0.023335 0.000000 0.000000 0.000000
# 4 0.000000 0.000000 0.000000 0.028067 0.000000 0.000000
# 5 0.000000 0.000000 0.000000 0.000000 0.011477 0.000000
# 6 0.000000 0.000000 0.000000 0.000000 0.000000 0.040921
#
#
# Mechanical properties :
#
#
# Convention : Reuss Voigt Hill
#
# Bulk Modulus (GPa) = 88.19624 95.41922 91.80773
# Shear Modulus (GPa) = 23.95291 39.35252 31.65272
#
# Velocity S-wave (km/s) = 3.61515 4.63376 4.15578
# Velocity P-wave (km/s) = 8.09616 8.98287 8.55101
#
# Compressibility (1/GPa) = 0.01133835
#
# Stress axis : x y z
#
# Youngs Moduli (GPa) = 30.79105 82.60537 42.85394
#
# Poissons Ratio (x) = 0.43415 0.94513
# Poissons Ratio (y) = 0.16183 0.04197
# Poissons Ratio (z) = 0.67908 0.08091
#
# Static dielectric constant tensor:
#      x y z
#    x 1.611010 0.000000 0.000000 
#    y 0.000000 1.618530 0.000000 
#    z 0.000000 0.000000 1.615220 
# 
# From -- ./inp_files/43266.got.cif
#   From: 2010.05.17/outbox.cif.g08.bks.cpg/sg67_22_cif.got.tgz:43266.got - 2010.06.03 18:28:57.
