data_PCOD9502449
_publ_section_title
;
Structure prediction by ZEFSAII (Michael W. Deem and Ramdas Pophale) SiO2 
 PCOD9502449
Probable space group: C M M A
;
_chemical_formula_sum "Si O2"
_cell_formula_units_Z 60
_cell_length_a 18.957721
_cell_length_b 27.574199
_cell_length_c 5.203861
_cell_angle_alpha 90.000000
_cell_angle_beta 90.000000
_cell_angle_gamma 90.000000
_cell_volume 2720.286966
_symmetry_space_group_name_H-M "C M M A"
_symmetry_group_IT_number 67
_symmetry_cell_setting 'orthorhombic'
loop_
_space_group_symop_operation_xyz
x,y,z
-x,1/2-y,z
x,-y,-z
-x,1/2+y,-z
-x,-y,-z
x,1/2+y,-z
-x,y,z
x,1/2-y,z
1/2+x,1/2+y,z
1/2-x,-y,z
1/2+x,1/2-y,-z
1/2-x,y,-z
1/2-x,1/2-y,-z
1/2+x,y,-z
1/2-x,1/2+y,z
1/2+x,-y,z
loop_
_atom_site_type_symbol
_atom_site_label
_atom_site_fract_x
_atom_site_fract_y
_atom_site_fract_z
Si Si1 0.085465 0.634128 0.813529
Si Si2 0.915991 0.304595 0.673881
Si Si3 0.144742 0.552271 0.126677
Si Si4 0.750000 0.500000 0.500000
Si Si5 0.000000 0.966563 0.256195
O O1 0.092202 0.673079 0.043891
O O2 0.139105 0.591342 0.899308
O O3 0.000000 0.619816 0.802911
O O4 0.108854 0.659546 0.550463
O O5 0.886928 0.250000 0.655941
O O6 0.000000 0.301361 0.628247
O O7 0.205963 0.537744 0.322424
O O8 0.071250 0.563844 0.270287
O O9 0.135773 0.500000 0.000000
O O10 0.000000 0.000000 0.500000
O O11 0.000000 0.000000 0.000000
#
# Coordination Sequence:
#
# PCOD9502449 Si02
#       5
#    16  16  16   4   8
#     4  10  20  33  58  89 119 160 201 243 303 364
#     4   9  18  33  54  87 126 155 189 246 311 367
#     4  11  24  40  59  88 123 165 210 256 300 366
#     4  12  26  42  60  78 130 170 210 252 314 350
#     4  10  20  36  60  82 111 154 201 252 294 344
#
# _framework density 22.056495000000002
#
# number of rings (size 3 to 8) (size 9 to 14) (size 15 to 20)
#    0.000    1.867    2.667    1.200    3.733    3.200 
#    0.000    0.000    0.000    0.000    0.000    5.600 
#    0.000    0.000    0.000    0.000    0.000    0.000 
#
# Total GULP energy -167223.869712 kJ/mol
# GULP energy per Si atom -5574.128990 kJ/mol
# Density = 2.200629 g / cm^3
# Si number density = 22.056495 Si / 1000 Ang^3
#
#
#
# Elastic Constant Matrix: (Units=GPa)
#
#
# Indices 1 2 3 4 5 6 
#
# 1 71.7213 10.0533 15.9633 0.0000 0.0000 0.0000
# 2 10.0533 123.0186 24.7571 0.0000 0.0000 0.0000
# 3 15.9633 24.7571 90.9765 0.0000 0.0000 0.0000
# 4 0.0000 0.0000 0.0000 28.2946 0.0000 0.0000
# 5 0.0000 0.0000 0.0000 0.0000 23.0084 0.0000
# 6 0.0000 0.0000 0.0000 0.0000 0.0000 -58.7535
#
#
#
# Elastic Compliance Matrix: (Units=1/GPa)
#
#
# Indices 1 2 3 4 5 6 
#
# 1 0.014569 -0.000715 -0.002362 0.000000 0.000000 0.000000
# 2 -0.000715 0.008635 -0.002224 0.000000 0.000000 0.000000
# 3 -0.002362 -0.002224 0.012012 0.000000 0.000000 0.000000
# 4 0.000000 0.000000 0.000000 0.035342 0.000000 0.000000
# 5 0.000000 0.000000 0.000000 0.000000 0.043462 0.000000
# 6 0.000000 0.000000 0.000000 0.000000 0.000000 -0.017020
#
#
# Mechanical properties :
#
#
# Convention : Reuss Voigt Hill
#
# Bulk Modulus (GPa) = 40.62941 43.02932 41.82936
# Shear Modulus (GPa) = 43.17541 14.17273 28.67407
#
# Velocity S-wave (km/s) = 4.42916 2.53764 3.60950
# Velocity P-wave (km/s) = 6.67961 5.30445 6.03135
#
# Compressibility (1/GPa) = 0.02461271
#
# Stress axis : x y z
#
# Youngs Moduli (GPa) = 68.64000 115.80859 83.25338
#
# Poissons Ratio (x) = 0.08284 0.19662
# Poissons Ratio (y) = 0.04910 0.18518
# Poissons Ratio (z) = 0.16210 0.25759
#
# Static dielectric constant tensor:
#      x y z
#    x 1.982460 0.000000 0.000000 
#    y 0.000000 1.858160 0.000000 
#    z 0.000000 0.000000 1.872060 
# 
# From -- ./inp_files/2059.got.cif
#   From: 2010.05.17/outbox.cif.g08.bks.cpg/sg67_2_cif.got.tgz:2059.got - 2010.06.03 18:28:57.
