data_PCOD9502786
_publ_section_title
;
Structure prediction by ZEFSAII (Michael W. Deem and Ramdas Pophale) SiO2 
 PCOD9502786
Probable space group: C M M A
;
_chemical_formula_sum "Si O2"
_cell_formula_units_Z 96
_cell_length_a 26.361283
_cell_length_b 8.633422
_cell_length_c 24.016366
_cell_angle_alpha 90.000000
_cell_angle_beta 90.000000
_cell_angle_gamma 90.000000
_cell_volume 5465.838641
_symmetry_space_group_name_H-M "C M M A"
_symmetry_group_IT_number 67
_symmetry_cell_setting 'orthorhombic'
loop_
_space_group_symop_operation_xyz
x,y,z
-x,1/2-y,z
x,-y,-z
-x,1/2+y,-z
-x,-y,-z
x,1/2+y,-z
-x,y,z
x,1/2-y,z
1/2+x,1/2+y,z
1/2-x,-y,z
1/2+x,1/2-y,-z
1/2-x,y,-z
1/2-x,1/2-y,-z
1/2+x,y,-z
1/2-x,1/2+y,z
1/2+x,-y,z
loop_
_atom_site_type_symbol
_atom_site_label
_atom_site_fract_x
_atom_site_fract_y
_atom_site_fract_z
Si Si1 0.695176 0.436404 0.131868
Si Si2 0.000000 0.938497 0.132706
Si Si3 0.694487 0.063835 0.261253
Si Si4 0.000000 0.436840 0.738378
Si Si5 0.401879 0.934646 0.325991
Si Si6 0.059786 0.064635 0.560581
Si Si7 0.097874 0.437627 0.937764
O O1 0.696832 0.250000 0.130354
O O2 0.750000 0.500000 0.115174
O O3 0.685611 0.481138 0.196335
O O4 0.649714 0.488742 0.092244
O O5 0.000000 0.986448 0.197010
O O6 0.050068 0.988084 0.099541
O O7 0.000000 0.750000 0.133183
O O8 0.694390 0.250000 0.264475
O O9 0.750000 0.000000 0.276734
O O10 0.649693 0.996835 0.298677
O O11 0.949803 0.497943 0.708003
O O12 0.000000 0.250000 0.735667
O O13 0.403124 0.750000 0.323768
O O14 0.408796 0.991526 0.389264
O O15 0.064446 0.250000 0.561441
O O16 0.000000 0.026093 0.569460
O O17 0.073979 0.000000 0.500000
O O18 0.097665 0.250000 0.939289
O O19 0.093949 0.500000 0.000000
#
# Coordination Sequence:
#
# PCOD9502786 Si02
#       7
#    16   8  16   8  16  16  16
#     4   9  19  35  55  77 103 134 172 218 270 324
#     4   9  19  36  56  73  99 136 175 216 267 327
#     4  10  20  37  59  82 109 145 186 229 278 331
#     4  11  21  36  57  81 108 144 183 228 282 331
#     4  12  23  35  54  84 119 150 185 229 274 330
#     4  10  20  35  56  81 114 154 192 231 277 324
#     4  10  20  35  53  75 100 133 173 215 263 321
#
# _framework density 17.563635999999999
#
# number of rings (size 3 to 8) (size 9 to 14) (size 15 to 20)
#    0.000    1.833    0.833    4.000    0.000    5.000 
#    0.000    5.000    0.000    0.500    0.000    3.500 
#    0.000    0.000    0.000    0.000    0.000    0.000 
#
# Total GULP energy -268140.698474 kJ/mol
# GULP energy per Si atom -5586.264552 kJ/mol
# Density = 1.752366 g / cm^3
# Si number density = 17.563636 Si / 1000 Ang^3
#
#
#
# Elastic Constant Matrix: (Units=GPa)
#
#
# Indices 1 2 3 4 5 6 
#
# 1 133.4236 38.5565 93.7776 0.0000 0.0000 0.0000
# 2 38.5565 56.3858 40.6570 0.0000 0.0000 0.0000
# 3 93.7776 40.6570 145.8808 0.0000 0.0000 0.0000
# 4 0.0000 0.0000 0.0000 30.4475 0.0000 0.0000
# 5 0.0000 0.0000 0.0000 0.0000 0.6725 0.0000
# 6 0.0000 0.0000 0.0000 0.0000 0.0000 27.5984
#
#
#
# Elastic Compliance Matrix: (Units=1/GPa)
#
#
# Indices 1 2 3 4 5 6 
#
# 1 0.014344 -0.003954 -0.008119 0.000000 0.000000 0.000000
# 2 -0.003954 0.023285 -0.003948 0.000000 0.000000 0.000000
# 3 -0.008119 -0.003948 0.013174 0.000000 0.000000 0.000000
# 4 0.000000 0.000000 0.000000 0.032843 0.000000 0.000000
# 5 0.000000 0.000000 0.000000 0.000000 1.486899 0.000000
# 6 0.000000 0.000000 0.000000 0.000000 0.000000 0.036234
#
#
# Mechanical properties :
#
#
# Convention : Reuss Voigt Hill
#
# Bulk Modulus (GPa) = 53.29915 75.74137 64.52026
# Shear Modulus (GPa) = 3.03937 22.59028 12.81483
#
# Velocity S-wave (km/s) = 1.31691 3.59025 2.70408
# Velocity P-wave (km/s) = 5.72053 7.77201 6.82380
#
# Compressibility (1/GPa) = 0.01876202
#
# Stress axis : x y z
#
# Youngs Moduli (GPa) = 69.71575 42.94539 75.90622
#
# Poissons Ratio (x) = 0.16982 0.61626
# Poissons Ratio (y) = 0.27568 0.29965
# Poissons Ratio (z) = 0.56600 0.16953
#
# Static dielectric constant tensor:
#      x y z
#    x 1.571790 0.000000 0.000000 
#    y 0.000000 1.595140 0.000000 
#    z 0.000000 0.000000 1.578810 
# 
# From -- ./inp_files/42582.got.cif
#   From: 2010.05.17/outbox.cif.g08.bks.cpg/sg67_22_cif.got.tgz:42582.got - 2010.06.03 18:28:57.
