data_PCOD9502297
_publ_section_title
;
Structure prediction by ZEFSAII (Michael W. Deem and Ramdas Pophale) SiO2 
 PCOD9502297
Probable space group: C M M A
;
_chemical_formula_sum "Si O2"
_cell_formula_units_Z 80
_cell_length_a 8.830256
_cell_length_b 27.820305
_cell_length_c 19.104500
_cell_angle_alpha 90.000000
_cell_angle_beta 90.000000
_cell_angle_gamma 90.000000
_cell_volume 4693.219401
_symmetry_space_group_name_H-M "C M M A"
_symmetry_group_IT_number 67
_symmetry_cell_setting 'orthorhombic'
loop_
_space_group_symop_operation_xyz
x,y,z
-x,1/2-y,z
x,-y,-z
-x,1/2+y,-z
-x,-y,-z
x,1/2+y,-z
-x,y,z
x,1/2-y,z
1/2+x,1/2+y,z
1/2-x,-y,z
1/2+x,1/2-y,-z
1/2-x,y,-z
1/2-x,1/2-y,-z
1/2+x,y,-z
1/2-x,1/2+y,z
1/2+x,-y,z
loop_
_atom_site_type_symbol
_atom_site_label
_atom_site_fract_x
_atom_site_fract_y
_atom_site_fract_z
Si Si1 0.318767 0.051095 0.715785
Si Si2 0.818263 0.396599 0.425885
Si Si3 0.679846 0.807355 0.925222
Si Si4 0.318441 0.305109 0.352952
Si Si5 0.681937 0.650485 0.214461
O O1 0.500000 0.047255 0.716226
O O2 0.272808 0.068089 0.637624
O O3 0.277573 0.095418 0.766322
O O4 0.250000 0.000000 0.734197
O O5 0.750000 0.411117 0.500000
O O6 0.756589 0.344092 0.404029
O O7 0.000000 0.395093 0.429045
O O8 0.500000 0.815814 0.924962
O O9 0.705052 0.750000 0.916663
O O10 0.758017 0.833892 0.860679
O O11 0.750000 0.821336 0.000000
O O12 0.500000 0.310814 0.353826
O O13 0.281970 0.250000 0.370984
O O14 0.256416 0.317288 0.275457
O O15 0.500000 0.655273 0.218537
#
# Coordination Sequence:
#
# PCOD9502297 Si02
#       5
#    16  16  16  16  16
#     4   9  20  36  54  76  99 127 165 208 255 305
#     4  10  21  36  52  73 100 130 166 207 254 306
#     4  10  20  33  51  78 110 143 176 207 244 291
#     4  10  20  33  50  73 100 133 172 209 248 297
#     4  10  20  34  52  76 105 135 169 209 252 298
#
# _framework density 17.045869
#
# number of rings (size 3 to 8) (size 9 to 14) (size 15 to 20)
#    0.000    2.200    0.000    4.200    0.000   10.800 
#    0.000    2.000    0.000    0.600    0.000    4.200 
#    0.000    0.000    0.000    0.000    0.000    0.000 
#
# Total GULP energy -223297.038863 kJ/mol
# GULP energy per Si atom -5582.425972 kJ/mol
# Density = 1.700707 g / cm^3
# Si number density = 17.045869 Si / 1000 Ang^3
#
#
#
# Elastic Constant Matrix: (Units=GPa)
#
#
# Indices 1 2 3 4 5 6 
#
# 1 47.5414 21.9288 23.4833 0.0000 0.0000 0.0000
# 2 21.9288 50.7105 2.6704 0.0000 0.0000 0.0000
# 3 23.4833 2.6704 82.1268 0.0000 0.0000 0.0000
# 4 0.0000 0.0000 0.0000 7.1475 0.0000 0.0000
# 5 0.0000 0.0000 0.0000 0.0000 34.0046 0.0000
# 6 0.0000 0.0000 0.0000 0.0000 0.0000 27.7581
#
#
#
# Elastic Compliance Matrix: (Units=1/GPa)
#
#
# Indices 1 2 3 4 5 6 
#
# 1 0.031272 -0.013074 -0.008517 0.000000 0.000000 0.000000
# 2 -0.013074 0.025220 0.002918 0.000000 0.000000 0.000000
# 3 -0.008517 0.002918 0.014517 0.000000 0.000000 0.000000
# 4 0.000000 0.000000 0.000000 0.139909 0.000000 0.000000
# 5 0.000000 0.000000 0.000000 0.000000 0.029408 0.000000
# 6 0.000000 0.000000 0.000000 0.000000 0.000000 0.036026
#
#
# Mechanical properties :
#
#
# Convention : Reuss Voigt Hill
#
# Bulk Modulus (GPa) = 29.70622 30.72707 30.21665
# Shear Modulus (GPa) = 15.38853 22.60179 18.99516
#
# Velocity S-wave (km/s) = 3.00788 3.64530 3.34182
# Velocity P-wave (km/s) = 5.43398 5.98187 5.71450
#
# Compressibility (1/GPa) = 0.03366298
#
# Stress axis : x y z
#
# Youngs Moduli (GPa) = 31.97759 39.65124 68.88634
#
# Poissons Ratio (x) = 0.51842 0.58669
# Poissons Ratio (y) = 0.41809 -0.20104
# Poissons Ratio (z) = 0.27234 -0.11572
#
# Static dielectric constant tensor:
#      x y z
#    x 1.568720 0.000000 0.000000 
#    y 0.000000 1.562870 0.000000 
#    z 0.000000 0.000000 1.560000 
# 
# From -- ./inp_files/32108.got.cif
#   From: 2010.05.17/outbox.cif.g08.bks.cpg/sg67_17_cif.got.tgz:32108.got - 2010.06.03 18:28:57.
