data_PCOD9502805
_publ_section_title
;
Structure prediction by ZEFSAII (Michael W. Deem and Ramdas Pophale) SiO2 
 PCOD9502805
Probable space group: C M M A
;
_chemical_formula_sum "Si O2"
_cell_formula_units_Z 104
_cell_length_a 26.776373
_cell_length_b 8.593529
_cell_length_c 22.906742
_cell_angle_alpha 90.000000
_cell_angle_beta 90.000000
_cell_angle_gamma 90.000000
_cell_volume 5270.922376
_symmetry_space_group_name_H-M "C M M A"
_symmetry_group_IT_number 67
_symmetry_cell_setting 'orthorhombic'
loop_
_space_group_symop_operation_xyz
x,y,z
-x,1/2-y,z
x,-y,-z
-x,1/2+y,-z
-x,-y,-z
x,1/2+y,-z
-x,y,z
x,1/2-y,z
1/2+x,1/2+y,z
1/2-x,-y,z
1/2+x,1/2-y,-z
1/2-x,y,-z
1/2-x,1/2-y,-z
1/2+x,y,-z
1/2-x,1/2+y,z
1/2+x,-y,z
loop_
_atom_site_type_symbol
_atom_site_label
_atom_site_fract_x
_atom_site_fract_y
_atom_site_fract_z
Si Si1 0.555759 0.561818 0.810964
Si Si2 0.196481 0.063022 0.651414
Si Si3 0.660371 0.064914 0.774431
Si Si4 0.197057 0.563844 0.102723
Si Si5 0.410385 0.436473 0.060427
Si Si6 0.391590 0.438128 0.434112
Si Si7 0.500000 0.562385 0.566182
O O1 0.500000 0.519950 0.791040
O O2 0.560957 0.750000 0.806847
O O3 0.602224 0.485453 0.778119
O O4 0.562133 0.519390 0.879553
O O5 0.197145 0.250000 0.653273
O O6 0.153115 0.010604 0.607262
O O7 0.250000 0.000000 0.632248
O O8 0.184294 0.999296 0.715535
O O9 0.664888 0.250000 0.777162
O O10 0.687221 0.991802 0.830997
O O11 0.198311 0.750000 0.101662
O O12 0.250000 0.500000 0.081489
O O13 0.147431 0.511065 0.068276
O O14 0.411035 0.250000 0.057878
O O15 0.431183 0.500000 0.000000
O O16 0.386573 0.500000 0.500000
O O17 0.390729 0.250000 0.436509
O O18 0.446206 0.486714 0.409334
O O19 0.500000 0.750000 0.565558
O O20 0.500000 0.500000 0.500000
#
# Coordination Sequence:
#
# PCOD9502805 Si02
#       7
#    16  16  16  16  16  16   8
#     4   9  19  38  60  80 107 144 182 223 273 330
#     4  11  23  39  57  82 114 152 192 233 281 339
#     4  11  22  37  57  81 109 140 179 230 280 331
#     4  10  20  35  54  76 103 138 180 223 273 330
#     4   9  19  33  50  75 107 141 178 219 265 323
#     4   9  19  35  58  84 114 148 189 231 278 334
#     4   8  14  30  54  80 106 138 178 222 265 316
#
# _framework density 19.730892000000001
#
# number of rings (size 3 to 8) (size 9 to 14) (size 15 to 20)
#    0.000    2.308    0.000    3.692    0.000    5.538 
#    1.385    3.077    0.000    0.000    0.000    0.000 
#    0.000    0.000    0.000    0.000    0.000    0.000 
#
# Total GULP energy -290273.578296 kJ/mol
# GULP energy per Si atom -5582.184198 kJ/mol
# Density = 1.968598 g / cm^3
# Si number density = 19.730892 Si / 1000 Ang^3
#
#
#
# Elastic Constant Matrix: (Units=GPa)
#
#
# Indices 1 2 3 4 5 6 
#
# 1 125.7677 16.7712 19.8385 0.0000 0.0000 0.0000
# 2 16.7712 30.7987 0.4852 0.0000 0.0000 0.0000
# 3 19.8385 0.4852 48.7849 0.0000 0.0000 0.0000
# 4 0.0000 0.0000 0.0000 22.8300 0.0000 0.0000
# 5 0.0000 0.0000 0.0000 0.0000 4.1083 0.0000
# 6 0.0000 0.0000 0.0000 0.0000 0.0000 -29.6178
#
#
#
# Elastic Compliance Matrix: (Units=1/GPa)
#
#
# Indices 1 2 3 4 5 6 
#
# 1 0.009193 -0.004948 -0.003689 0.000000 0.000000 0.000000
# 2 -0.004948 0.035137 0.001663 0.000000 0.000000 0.000000
# 3 -0.003689 0.001663 0.021982 0.000000 0.000000 0.000000
# 4 0.000000 0.000000 0.000000 0.043802 0.000000 0.000000
# 5 0.000000 0.000000 0.000000 0.000000 0.243407 0.000000
# 6 0.000000 0.000000 0.000000 0.000000 0.000000 -0.033763
#
#
# Mechanical properties :
#
#
# Convention : Reuss Voigt Hill
#
# Bulk Modulus (GPa) = 19.09743 31.06010 25.07876
# Shear Modulus (GPa) = 14.23851 10.68120 12.45986
#
# Velocity S-wave (km/s) = 2.68924 2.32920 2.51567
# Velocity P-wave (km/s) = 4.39803 4.79683 4.60175
#
# Compressibility (1/GPa) = 0.05236306
#
# Stress axis : x y z
#
# Youngs Moduli (GPa) = 108.77992 28.46003 45.49217
#
# Poissons Ratio (x) = 0.14081 0.16782
# Poissons Ratio (y) = 0.53822 -0.07563
# Poissons Ratio (z) = 0.40130 -0.04732
#
# Static dielectric constant tensor:
#      x y z
#    x 1.722960 0.000000 0.000000 
#    y 0.000000 1.672060 0.000000 
#    z 0.000000 0.000000 1.658880 
# 
# From -- ./inp_files/39956.got.cif
#   From: 2010.05.17/outbox.cif.g08.bks.cpg/sg67_20_cif.got.tgz:39956.got - 2010.06.03 18:28:57.
