data_PCOD9502579
_publ_section_title
;
Structure prediction by ZEFSAII (Michael W. Deem and Ramdas Pophale) SiO2 
 PCOD9502579
Probable space group: C M M A
;
_chemical_formula_sum "Si O2"
_cell_formula_units_Z 96
_cell_length_a 21.386430
_cell_length_b 16.354149
_cell_length_c 13.094584
_cell_angle_alpha 90.000000
_cell_angle_beta 90.000000
_cell_angle_gamma 90.000000
_cell_volume 4579.920619
_symmetry_space_group_name_H-M "C M M A"
_symmetry_group_IT_number 67
_symmetry_cell_setting 'orthorhombic'
loop_
_space_group_symop_operation_xyz
x,y,z
-x,1/2-y,z
x,-y,-z
-x,1/2+y,-z
-x,-y,-z
x,1/2+y,-z
-x,y,z
x,1/2-y,z
1/2+x,1/2+y,z
1/2-x,-y,z
1/2+x,1/2-y,-z
1/2-x,y,-z
1/2-x,1/2-y,-z
1/2+x,y,-z
1/2-x,1/2+y,z
1/2+x,-y,z
loop_
_atom_site_type_symbol
_atom_site_label
_atom_site_fract_x
_atom_site_fract_y
_atom_site_fract_z
Si Si1 0.568297 0.966463 0.709349
Si Si2 0.171340 0.436869 0.406452
Si Si3 0.182888 0.094117 0.040018
Si Si4 0.378241 0.842281 0.855576
Si Si5 0.068492 0.342390 0.520635
Si Si6 0.739419 0.847047 0.242400
O O1 0.500000 0.007260 0.713037
O O2 0.579615 0.913558 0.810080
O O3 0.567271 0.901990 0.616475
O O4 0.626712 0.021213 0.677955
O O5 0.182427 0.500000 0.500000
O O6 0.126833 0.366510 0.452126
O O7 0.229534 0.396621 0.347619
O O8 0.192170 0.112244 0.159170
O O9 0.250000 0.124715 0.000000
O O10 0.132384 0.144120 0.976065
O O11 0.177601 0.000000 0.000000
O O12 0.399735 0.750000 0.834762
O O13 0.310412 0.853689 0.799540
O O14 0.074429 0.250000 0.556378
O O15 0.000000 0.351392 0.469040
O O16 0.726255 0.750000 0.253339
#
# Coordination Sequence:
#
# PCOD9502579 Si02
#       6
#    16  16  16  16  16  16
#     4  10  20  34  53  76 103 138 181 226 269 314
#     4  10  20  34  53  76 107 141 179 223 271 322
#     4   9  17  31  54  82 110 138 172 214 262 318
#     4  10  20  34  54  81 110 139 175 218 264 319
#     4   9  17  31  51  73  98 134 182 229 270 317
#     4  10  20  35  56  82 112 145 179 218 270 328
#
# _framework density 20.961061999999998
#
# number of rings (size 3 to 8) (size 9 to 14) (size 15 to 20)
#    0.000    2.333    0.000    3.000    0.000    7.000 
#    0.000    5.833    0.000   14.500    0.000    0.000 
#    0.000    0.000    0.000    0.000    0.000    0.000 
#
# Total GULP energy -267695.041900 kJ/mol
# GULP energy per Si atom -5576.980040 kJ/mol
# Density = 2.091335 g / cm^3
# Si number density = 20.961062 Si / 1000 Ang^3
#
#
#
# Elastic Constant Matrix: (Units=GPa)
#
#
# Indices 1 2 3 4 5 6 
#
# 1 40.7022 12.8272 8.9514 0.0000 0.0000 0.0000
# 2 12.8272 49.9847 10.4585 0.0000 0.0000 0.0000
# 3 8.9514 10.4585 69.1028 0.0000 0.0000 0.0000
# 4 0.0000 0.0000 0.0000 32.1724 0.0000 0.0000
# 5 0.0000 0.0000 0.0000 0.0000 19.8671 0.0000
# 6 0.0000 0.0000 0.0000 0.0000 0.0000 22.3850
#
#
#
# Elastic Compliance Matrix: (Units=1/GPa)
#
#
# Indices 1 2 3 4 5 6 
#
# 1 0.027157 -0.006437 -0.002544 0.000000 0.000000 0.000000
# 2 -0.006437 0.022186 -0.002524 0.000000 0.000000 0.000000
# 3 -0.002544 -0.002524 0.015183 0.000000 0.000000 0.000000
# 4 0.000000 0.000000 0.000000 0.031083 0.000000 0.000000
# 5 0.000000 0.000000 0.000000 0.000000 0.050334 0.000000
# 6 0.000000 0.000000 0.000000 0.000000 0.000000 0.044673
#
#
# Mechanical properties :
#
#
# Convention : Reuss Voigt Hill
#
# Bulk Modulus (GPa) = 24.08677 24.91823 24.50250
# Shear Modulus (GPa) = 21.98163 23.38842 22.68503
#
# Velocity S-wave (km/s) = 3.24186 3.34399 3.29332
# Velocity P-wave (km/s) = 5.05262 5.17913 5.11627
#
# Compressibility (1/GPa) = 0.04151657
#
# Stress axis : x y z
#
# Youngs Moduli (GPa) = 36.82344 45.07334 65.86452
#
# Poissons Ratio (x) = 0.29013 0.16753
# Poissons Ratio (y) = 0.23702 0.16624
# Poissons Ratio (z) = 0.09367 0.11376
#
# Static dielectric constant tensor:
#      x y z
#    x 1.792540 0.000000 0.000000 
#    y 0.000000 1.766140 0.000000 
#    z 0.000000 0.000000 1.777920 
# 
# From -- ./inp_files/19642.got.cif
#   From: 2010.05.17/outbox.cif.g08.bks.cpg/sg67_10_cif.got.tgz:19642.got - 2010.06.03 18:28:57.
