data_PCOD9502614
_publ_section_title
;
Structure prediction by ZEFSAII (Michael W. Deem and Ramdas Pophale) SiO2 
 PCOD9502614
Probable space group: C M M A
;
_chemical_formula_sum "Si O2"
_cell_formula_units_Z 96
_cell_length_a 8.675025
_cell_length_b 29.310873
_cell_length_c 21.118127
_cell_angle_alpha 90.000000
_cell_angle_beta 90.000000
_cell_angle_gamma 90.000000
_cell_volume 5369.760131
_symmetry_space_group_name_H-M "C M M A"
_symmetry_group_IT_number 67
_symmetry_cell_setting 'orthorhombic'
loop_
_space_group_symop_operation_xyz
x,y,z
-x,1/2-y,z
x,-y,-z
-x,1/2+y,-z
-x,-y,-z
x,1/2+y,-z
-x,y,z
x,1/2-y,z
1/2+x,1/2+y,z
1/2-x,-y,z
1/2+x,1/2-y,-z
1/2-x,y,-z
1/2-x,1/2-y,-z
1/2+x,y,-z
1/2-x,1/2+y,z
1/2+x,-y,z
loop_
_atom_site_type_symbol
_atom_site_label
_atom_site_fract_x
_atom_site_fract_y
_atom_site_fract_z
Si Si1 0.685667 0.895575 0.306852
Si Si2 0.185316 0.449281 0.431683
Si Si3 0.683773 0.949074 0.813694
Si Si4 0.682458 0.604978 0.066431
Si Si5 0.684163 0.698923 0.249019
Si Si6 0.316751 0.301831 0.108500
O O1 0.500000 0.900068 0.301895
O O2 0.731349 0.916013 0.374533
O O3 0.759381 0.924164 0.249905
O O4 0.724361 0.842554 0.295153
O O5 0.250000 0.500000 0.418800
O O6 0.250000 0.434969 0.500000
O O7 0.000000 0.451582 0.434830
O O8 0.500000 0.950290 0.814857
O O9 0.744571 0.921087 0.874104
O O10 0.750000 0.000000 0.815333
O O11 0.500000 0.599564 0.067740
O O12 0.726709 0.658218 0.073588
O O13 0.750000 0.587936 0.000000
O O14 0.500000 0.695732 0.235271
O O15 0.713990 0.750000 0.273810
O O16 0.773490 0.693913 0.182803
O O17 0.500000 0.308084 0.100286
O O18 0.275850 0.250000 0.089215
#
# Coordination Sequence:
#
# PCOD9502614 Si02
#       6
#    16  16  16  16  16  16
#     4  10  20  35  57  86 116 148 187 232 279 332
#     4  10  20  34  53  79 113 150 189 231 280 334
#     4  12  25  41  61  85 112 145 185 232 283 335
#     4  12  25  42  61  82 111 147 189 233 284 341
#     4   9  17  31  54  82 112 147 185 227 276 329
#     4  10  20  35  56  84 115 146 184 230 282 337
#
# _framework density 17.877893
#
# number of rings (size 3 to 8) (size 9 to 14) (size 15 to 20)
#    0.000    1.500    1.667    5.000    0.000    4.333 
#    0.000    1.667    0.000    0.500    0.000    0.000 
#    0.000    0.000    0.000    0.000    0.000    0.667 
#
# Total GULP energy -268214.522424 kJ/mol
# GULP energy per Si atom -5587.802550 kJ/mol
# Density = 1.783720 g / cm^3
# Si number density = 17.877893 Si / 1000 Ang^3
#
#
#
# Elastic Constant Matrix: (Units=GPa)
#
#
# Indices 1 2 3 4 5 6 
#
# 1 67.6581 41.1106 43.6108 0.0000 0.0000 0.0000
# 2 41.1106 106.7307 66.4017 0.0000 0.0000 0.0000
# 3 43.6108 66.4017 127.4639 0.0000 0.0000 0.0000
# 4 0.0000 0.0000 0.0000 -24.5336 0.0000 0.0000
# 5 0.0000 0.0000 0.0000 0.0000 24.3577 0.0000
# 6 0.0000 0.0000 0.0000 0.0000 0.0000 3.5969
#
#
#
# Elastic Compliance Matrix: (Units=1/GPa)
#
#
# Indices 1 2 3 4 5 6 
#
# 1 0.020813 -0.005306 -0.004357 0.000000 0.000000 0.000000
# 2 -0.005306 0.015215 -0.006111 0.000000 0.000000 0.000000
# 3 -0.004357 -0.006111 0.012519 0.000000 0.000000 0.000000
# 4 0.000000 0.000000 0.000000 -0.040760 0.000000 0.000000
# 5 0.000000 0.000000 0.000000 0.000000 0.041055 0.000000
# 6 0.000000 0.000000 0.000000 0.000000 0.000000 0.278017
#
#
# Mechanical properties :
#
#
# Convention : Reuss Voigt Hill
#
# Bulk Modulus (GPa) = 58.82420 67.12208 62.97314
# Shear Modulus (GPa) = 13.73357 10.73285 12.23321
#
# Velocity S-wave (km/s) = 2.77463 2.45285 2.61868
# Velocity P-wave (km/s) = 6.57567 6.75634 6.66662
#
# Compressibility (1/GPa) = 0.01699981
#
# Stress axis : x y z
#
# Youngs Moduli (GPa) = 48.04804 65.72500 79.87688
#
# Poissons Ratio (x) = 0.34875 0.34799
# Poissons Ratio (y) = 0.25495 0.48810
# Poissons Ratio (z) = 0.20933 0.40162
#
# Static dielectric constant tensor:
#      x y z
#    x 1.599110 0.000000 0.000000 
#    y 0.000000 1.619510 0.000000 
#    z 0.000000 0.000000 1.590290 
# 
# From -- ./inp_files/37208.got.cif
#   From: 2010.05.17/outbox.cif.g08.bks.cpg/sg67_19_cif.got.tgz:37208.got - 2010.06.03 18:28:57.
