data_PCOD9502118
_publ_section_title
;
Structure prediction by ZEFSAII (Michael W. Deem and Ramdas Pophale) SiO2 
 PCOD9502118
Probable space group: C M M A
;
_chemical_formula_sum "Si O2"
_cell_formula_units_Z 88
_cell_length_a 31.367355
_cell_length_b 8.849716
_cell_length_c 17.502472
_cell_angle_alpha 90.000000
_cell_angle_beta 90.000000
_cell_angle_gamma 90.000000
_cell_volume 4858.549418
_symmetry_space_group_name_H-M "C M M A"
_symmetry_group_IT_number 67
_symmetry_cell_setting 'orthorhombic'
loop_
_space_group_symop_operation_xyz
x,y,z
-x,1/2-y,z
x,-y,-z
-x,1/2+y,-z
-x,-y,-z
x,1/2+y,-z
-x,y,z
x,1/2-y,z
1/2+x,1/2+y,z
1/2-x,-y,z
1/2+x,1/2-y,-z
1/2-x,y,-z
1/2-x,1/2-y,-z
1/2+x,y,-z
1/2-x,1/2+y,z
1/2+x,-y,z
loop_
_atom_site_type_symbol
_atom_site_label
_atom_site_fract_x
_atom_site_fract_y
_atom_site_fract_z
Si Si1 0.451685 0.568680 0.084794
Si Si2 0.092106 0.925459 0.366104
Si Si3 0.000000 0.932321 0.416402
Si Si4 0.823639 0.070857 0.421051
Si Si5 0.620744 0.074719 0.190741
Si Si6 0.294932 0.931479 0.251185
O O1 0.500000 0.530482 0.112924
O O2 0.448557 0.750000 0.081490
O O3 0.413899 0.503002 0.136431
O O4 0.448067 0.500000 0.000000
O O5 0.096046 0.750000 0.391587
O O6 0.102492 0.929933 0.276756
O O7 0.044049 0.979502 0.377684
O O8 0.127017 0.022813 0.410482
O O9 0.000000 0.750000 0.418003
O O10 0.000000 0.000000 0.500000
O O11 0.819657 0.250000 0.426167
O O12 0.802717 0.020643 0.340384
O O13 0.807111 0.000000 0.500000
O O14 0.626520 0.250000 0.168762
O O15 0.666222 0.992371 0.199720
O O16 0.294468 0.750000 0.249431
O O17 0.250000 0.000000 0.226611
#
# Coordination Sequence:
#
# PCOD9502118 Si02
#       6
#    16  16   8  16  16  16
#     4  10  21  37  58  87 121 154 187 224 266 317
#     4   9  19  33  49  69  97 134 178 222 268 323
#     4  10  20  32  44  64  93 130 175 222 267 312
#     4  10  20  33  50  71  99 133 174 226 280 333
#     4  10  20  35  58  83 110 145 182 225 275 327
#     4  10  21  37  56  79 108 141 183 231 280 334
#
# _framework density 18.112403
#
# number of rings (size 3 to 8) (size 9 to 14) (size 15 to 20)
#    0.000    2.182    0.000    2.727    1.273    6.545 
#    0.000    1.818    0.000    0.545    0.000    3.818 
#    0.000    0.000    0.000    0.000    0.000    0.000 
#
# Total GULP energy -245525.901297 kJ/mol
# GULP energy per Si atom -5580.134120 kJ/mol
# Density = 1.807118 g / cm^3
# Si number density = 18.112403 Si / 1000 Ang^3
#
#
#
# Elastic Constant Matrix: (Units=GPa)
#
#
# Indices 1 2 3 4 5 6 
#
# 1 156.2616 49.9160 45.0700 0.0000 0.0000 0.0000
# 2 49.9160 66.5197 33.3797 0.0000 0.0000 0.0000
# 3 45.0700 33.3797 55.0490 0.0000 0.0000 0.0000
# 4 0.0000 0.0000 0.0000 30.4408 0.0000 0.0000
# 5 0.0000 0.0000 0.0000 0.0000 12.5550 0.0000
# 6 0.0000 0.0000 0.0000 0.0000 0.0000 27.9266
#
#
#
# Elastic Compliance Matrix: (Units=1/GPa)
#
#
# Indices 1 2 3 4 5 6 
#
# 1 0.009230 -0.004505 -0.004825 0.000000 0.000000 0.000000
# 2 -0.004505 0.023807 -0.010747 0.000000 0.000000 0.000000
# 3 -0.004825 -0.010747 0.028633 0.000000 0.000000 0.000000
# 4 0.000000 0.000000 0.000000 0.032851 0.000000 0.000000
# 5 0.000000 0.000000 0.000000 0.000000 0.079649 0.000000
# 6 0.000000 0.000000 0.000000 0.000000 0.000000 0.035808
#
#
# Mechanical properties :
#
#
# Convention : Reuss Voigt Hill
#
# Bulk Modulus (GPa) = 46.47953 59.39574 52.93763
# Shear Modulus (GPa) = 19.43219 24.14878 21.79049
#
# Velocity S-wave (km/s) = 3.27902 3.65536 3.47229
# Velocity P-wave (km/s) = 6.32877 7.11896 6.73546
#
# Compressibility (1/GPa) = 0.02151485
#
# Stress axis : x y z
#
# Youngs Moduli (GPa) = 108.33776 42.00526 34.92474
#
# Poissons Ratio (x) = 0.18923 0.16853
# Poissons Ratio (y) = 0.48806 0.37534
# Poissons Ratio (z) = 0.52278 0.45143
#
# Static dielectric constant tensor:
#      x y z
#    x 1.627880 0.000000 0.000000 
#    y 0.000000 1.616820 0.000000 
#    z 0.000000 0.000000 1.599320 
# 
# From -- ./inp_files/32436.got.cif
#   From: 2010.05.17/outbox.cif.g08.bks.cpg/sg67_17_cif.got.tgz:32436.got - 2010.06.03 18:28:57.
