data_PCOD9502936
_publ_section_title
;
Structure prediction by ZEFSAII (Michael W. Deem and Ramdas Pophale) SiO2 
 PCOD9502936
Probable space group: C M M A
;
_chemical_formula_sum "Si O2"
_cell_formula_units_Z 112
_cell_length_a 26.669699
_cell_length_b 15.803329
_cell_length_c 14.363818
_cell_angle_alpha 90.000000
_cell_angle_beta 90.000000
_cell_angle_gamma 90.000000
_cell_volume 6053.918769
_symmetry_space_group_name_H-M "C M M A"
_symmetry_group_IT_number 67
_symmetry_cell_setting 'orthorhombic'
loop_
_space_group_symop_operation_xyz
x,y,z
-x,1/2-y,z
x,-y,-z
-x,1/2+y,-z
-x,-y,-z
x,1/2+y,-z
-x,y,z
x,1/2-y,z
1/2+x,1/2+y,z
1/2-x,-y,z
1/2+x,1/2-y,-z
1/2-x,y,-z
1/2-x,1/2-y,-z
1/2+x,y,-z
1/2-x,1/2+y,z
1/2+x,-y,z
loop_
_atom_site_type_symbol
_atom_site_label
_atom_site_fract_x
_atom_site_fract_y
_atom_site_fract_z
Si Si1 0.713543 0.345093 0.918313
Si Si2 0.560580 0.503827 0.723893
Si Si3 0.595733 0.651938 0.590658
Si Si4 0.441940 0.843142 0.391604
Si Si5 0.291091 0.649176 0.575118
Si Si6 0.216297 0.416503 0.782949
Si Si7 0.867831 0.488777 0.108327
O O1 0.698397 0.250000 0.944734
O O2 0.750711 0.344682 0.830878
O O3 0.666731 0.404297 0.893836
O O4 0.750000 0.381256 0.000000
O O5 0.500000 0.508652 0.724946
O O6 0.581812 0.587036 0.671801
O O7 0.578886 0.423111 0.663143
O O8 0.583991 0.488802 0.825396
O O9 0.593808 0.750000 0.622874
O O10 0.559937 0.641562 0.502040
O O11 0.651002 0.637653 0.546739
O O12 0.500000 0.838294 0.363430
O O13 0.418655 0.750000 0.374186
O O14 0.282463 0.750000 0.587255
O O15 0.250000 0.618803 0.500000
O O16 0.290262 0.605203 0.675495
O O17 0.250000 0.500000 0.789518
O O18 0.167269 0.438573 0.844047
O O19 0.880222 0.500000 0.000000
#
# Coordination Sequence:
#
# PCOD9502936 Si02
#       7
#    16  16  16  16  16  16  16
#     4  10  20  35  61  89 112 146 195 247 301 364
#     4  11  23  39  61  88 119 162 212 258 315 377
#     4  10  20  36  60  87 120 159 203 254 304 368
#     4   9  19  37  61  85 111 146 193 252 309 365
#     4  10  21  37  54  80 119 159 197 239 293 364
#     4  10  20  35  57  81 114 157 188 237 293 360
#     4  11  22  39  59  85 119 154 202 260 309 359
#
# _framework density 18.500413999999999
#
# number of rings (size 3 to 8) (size 9 to 14) (size 15 to 20)
#    0.000    1.857    2.857    1.286    0.000    5.429 
#    2.571    2.143    0.000    0.000    0.000    2.000 
#    0.000    0.000    0.000    0.000    0.000    0.000 
#
# Total GULP energy -311967.410191 kJ/mol
# GULP energy per Si atom -5570.846611 kJ/mol
# Density = 1.845831 g / cm^3
# Si number density = 18.500414 Si / 1000 Ang^3
#
#
#
# Elastic Constant Matrix: (Units=GPa)
#
#
# Indices 1 2 3 4 5 6 
#
# 1 75.1208 38.3119 38.1887 0.0000 0.0000 0.0000
# 2 38.3119 88.0225 49.4265 0.0000 0.0000 0.0000
# 3 38.1887 49.4265 113.6992 0.0000 0.0000 0.0000
# 4 0.0000 0.0000 0.0000 19.9559 0.0000 0.0000
# 5 0.0000 0.0000 0.0000 0.0000 38.3126 0.0000
# 6 0.0000 0.0000 0.0000 0.0000 0.0000 12.8407
#
#
#
# Elastic Compliance Matrix: (Units=1/GPa)
#
#
# Indices 1 2 3 4 5 6 
#
# 1 0.018113 -0.005910 -0.003514 0.000000 0.000000 0.000000
# 2 -0.005910 0.016958 -0.005387 0.000000 0.000000 0.000000
# 3 -0.003514 -0.005387 0.012317 0.000000 0.000000 0.000000
# 4 0.000000 0.000000 0.000000 0.050111 0.000000 0.000000
# 5 0.000000 0.000000 0.000000 0.000000 0.026101 0.000000
# 6 0.000000 0.000000 0.000000 0.000000 0.000000 0.077878
#
#
# Mechanical properties :
#
#
# Convention : Reuss Voigt Hill
#
# Bulk Modulus (GPa) = 56.28971 58.74407 57.51689
# Shear Modulus (GPa) = 21.09515 24.28286 22.68900
#
# Velocity S-wave (km/s) = 3.38043 3.62685 3.50581
# Velocity P-wave (km/s) = 6.76229 7.02571 6.89526
#
# Compressibility (1/GPa) = 0.01776524
#
# Stress axis : x y z
#
# Youngs Moduli (GPa) = 55.20990 58.96948 81.18729
#
# Poissons Ratio (x) = 0.34852 0.28532
# Poissons Ratio (y) = 0.32630 0.43733
# Poissons Ratio (z) = 0.19403 0.31765
#
# Static dielectric constant tensor:
#      x y z
#    x 1.671260 0.000000 0.000000 
#    y 0.000000 1.677760 0.000000 
#    z 0.000000 0.000000 1.638470 
# 
# From -- ./inp_files/30129.got.cif
#   From: 2010.05.17/outbox.cif.g08.bks.cpg/sg67_16_cif.got.tgz:30129.got - 2010.06.03 18:28:57.
