data_PCOD9502975
_publ_section_title
;
Structure prediction by ZEFSAII (Michael W. Deem and Ramdas Pophale) SiO2 
 PCOD9502975
Probable space group: C M M A
;
_chemical_formula_sum "Si O2"
_cell_formula_units_Z 100
_cell_length_a 8.831824
_cell_length_b 25.451559
_cell_length_c 20.667051
_cell_angle_alpha 90.000000
_cell_angle_beta 90.000000
_cell_angle_gamma 90.000000
_cell_volume 4645.615977
_symmetry_space_group_name_H-M "C M M A"
_symmetry_group_IT_number 67
_symmetry_cell_setting 'orthorhombic'
loop_
_space_group_symop_operation_xyz
x,y,z
-x,1/2-y,z
x,-y,-z
-x,1/2+y,-z
-x,-y,-z
x,1/2+y,-z
-x,y,z
x,1/2-y,z
1/2+x,1/2+y,z
1/2-x,-y,z
1/2+x,1/2-y,-z
1/2-x,y,-z
1/2-x,1/2-y,-z
1/2+x,y,-z
1/2-x,1/2+y,z
1/2+x,-y,z
loop_
_atom_site_type_symbol
_atom_site_label
_atom_site_fract_x
_atom_site_fract_y
_atom_site_fract_z
Si Si1 0.319193 0.192031 0.104437
Si Si2 0.320625 0.662915 0.748747
Si Si3 0.319276 0.946122 0.572159
Si Si4 0.321248 0.584081 0.065328
Si Si5 0.667307 0.341875 0.622759
Si Si6 0.818080 0.554039 0.789711
Si Si7 0.500000 0.250000 0.561401
O O1 0.500000 0.184024 0.095570
O O2 0.278048 0.250000 0.081055
O O3 0.289924 0.189039 0.181772
O O4 0.230122 0.144648 0.072380
O O5 0.500000 0.664239 0.738296
O O6 0.234663 0.685102 0.686821
O O7 0.259891 0.603559 0.756267
O O8 0.500000 0.950584 0.570149
O O9 0.250000 0.943515 0.500000
O O10 0.270711 0.890912 0.603652
O O11 0.250000 0.000000 0.601604
O O12 0.500000 0.580795 0.059815
O O13 0.276260 0.558816 0.133799
O O14 0.250000 0.562059 0.000000
O O15 0.500000 0.363923 0.639088
O O16 0.630395 0.297063 0.570120
O O17 0.750000 0.500000 0.764670
O O18 0.000000 0.556162 0.784283
#
# Coordination Sequence:
#
# PCOD9502975 Si02
#       7
#    16  16  16  16  16  16   4
#     4   9  19  34  53  77 104 137 176 223 278 336
#     4  10  20  35  57  86 115 148 190 241 289 348
#     4  11  22  40  68 100 130 168 213 268 321 372
#     4  10  21  36  53  74 100 133 176 224 276 339
#     4  10  21  40  61  90 127 170 212 254 308 364
#     4  10  21  37  55  79 109 144 182 228 290 353
#     4   8  24  40  64  86 134 176 212 260 308 362
#
# _framework density 21.525670999999999
#
# number of rings (size 3 to 8) (size 9 to 14) (size 15 to 20)
#    0.480    1.600    0.000    3.840    1.120    4.160 
#    0.000    6.400    0.000    0.000    0.000    0.000 
#    0.000    0.000    0.000    0.000    0.000    0.000 
#
# Total GULP energy -278625.121686 kJ/mol
# GULP energy per Si atom -5572.502434 kJ/mol
# Density = 2.147668 g / cm^3
# Si number density = 21.525671 Si / 1000 Ang^3
#
#
#
# Elastic Constant Matrix: (Units=GPa)
#
#
# Indices 1 2 3 4 5 6 
#
# 1 77.7691 18.5624 18.7437 0.0000 0.0000 0.0000
# 2 18.5624 111.3610 3.2051 0.0000 0.0000 0.0000
# 3 18.7437 3.2051 54.9888 0.0000 0.0000 0.0000
# 4 0.0000 0.0000 0.0000 21.8438 0.0000 0.0000
# 5 0.0000 0.0000 0.0000 0.0000 27.8507 0.0000
# 6 0.0000 0.0000 0.0000 0.0000 0.0000 26.1962
#
#
#
# Elastic Compliance Matrix: (Units=1/GPa)
#
#
# Indices 1 2 3 4 5 6 
#
# 1 0.014570 -0.002290 -0.004833 0.000000 0.000000 0.000000
# 2 -0.002290 0.009355 0.000235 0.000000 0.000000 0.000000
# 3 -0.004833 0.000235 0.019819 0.000000 0.000000 0.000000
# 4 0.000000 0.000000 0.000000 0.045780 0.000000 0.000000
# 5 0.000000 0.000000 0.000000 0.000000 0.035906 0.000000
# 6 0.000000 0.000000 0.000000 0.000000 0.000000 0.038173
#
#
# Mechanical properties :
#
#
# Convention : Reuss Voigt Hill
#
# Bulk Modulus (GPa) = 33.36754 36.12680 34.74717
# Shear Modulus (GPa) = 26.68563 28.75198 27.71881
#
# Velocity S-wave (km/s) = 3.52477 3.65870 3.59236
# Velocity P-wave (km/s) = 5.66571 5.88792 5.77789
#
# Compressibility (1/GPa) = 0.02996924
#
# Stress axis : x y z
#
# Youngs Moduli (GPa) = 68.63488 106.89851 50.45617
#
# Poissons Ratio (x) = 0.24475 0.24385
# Poissons Ratio (y) = 0.15714 -0.01187
# Poissons Ratio (z) = 0.33170 -0.02514
#
# Static dielectric constant tensor:
#      x y z
#    x 1.730780 0.000000 0.000000 
#    y 0.000000 1.815930 0.000000 
#    z 0.000000 0.000000 1.851790 
# 
# From -- ./inp_files/37329.got.cif
#   From: 2010.05.17/outbox.cif.g08.bks.cpg/sg67_19_cif.got.tgz:37329.got - 2010.06.03 18:28:57.
