data_PCOD9502252
_publ_section_title
;
Structure prediction by ZEFSAII (Michael W. Deem and Ramdas Pophale) SiO2 
 PCOD9502252
Probable space group: C M M A
;
_chemical_formula_sum "Si O2"
_cell_formula_units_Z 104
_cell_length_a 22.342486
_cell_length_b 9.932173
_cell_length_c 29.410689
_cell_angle_alpha 90.000000
_cell_angle_beta 90.000000
_cell_angle_gamma 90.000000
_cell_volume 6526.509414
_symmetry_space_group_name_H-M "C M M A"
_symmetry_group_IT_number 67
_symmetry_cell_setting 'orthorhombic'
loop_
_space_group_symop_operation_xyz
x,y,z
-x,1/2-y,z
x,-y,-z
-x,1/2+y,-z
-x,-y,-z
x,1/2+y,-z
-x,y,z
x,1/2-y,z
1/2+x,1/2+y,z
1/2-x,-y,z
1/2+x,1/2-y,-z
1/2-x,y,-z
1/2-x,1/2-y,-z
1/2+x,y,-z
1/2-x,1/2+y,z
1/2+x,-y,z
loop_
_atom_site_type_symbol
_atom_site_label
_atom_site_fract_x
_atom_site_fract_y
_atom_site_fract_z
Si Si1 0.927049 0.093695 0.542549
Si Si2 0.500000 0.599180 0.042312
Si Si3 0.381864 0.508205 0.092701
Si Si4 0.427341 0.596189 0.271612
Si Si5 0.927191 0.095149 0.375121
Si Si6 0.695093 0.750000 0.064489
Si Si7 0.665454 0.750000 0.958819
Si Si8 0.071906 0.908609 0.188576
O O1 0.907556 0.250000 0.539796
O O2 0.000000 0.096666 0.542508
O O3 0.909169 0.000000 0.500000
O O4 0.907764 0.015148 0.588201
O O5 0.500000 0.750000 0.024266
O O6 0.441786 0.575009 0.072895
O O7 0.500000 0.500000 0.000000
O O8 0.329364 0.617450 0.089127
O O9 0.366170 0.381882 0.060788
O O10 0.395015 0.458532 0.143436
O O11 0.500000 0.593754 0.272222
O O12 0.409548 0.750000 0.260965
O O13 0.408199 0.564943 0.323305
O O14 0.408667 0.493087 0.232695
O O15 0.909731 0.250000 0.386408
O O16 0.000000 0.094455 0.375576
O O17 0.766134 0.750000 0.058642
O O18 0.667835 0.750000 0.013332
O O19 0.081804 0.750000 0.195072
O O20 0.000000 0.928311 0.182245
#
# Coordination Sequence:
#
# PCOD9502252 Si02
#       8
#    16   8  16  16  16   8   8  16
#     4   9  15  20  27  40  60  88 124 170 222 270
#     4  12  26  38  56  82 108 134 158 190 239 292
#     4  12  23  38  57  80 106 130 161 197 241 290
#     4   8  15  26  42  58  78 108 143 180 220 276
#     4   8  13  22  33  47  65  91 128 171 219 268
#     4  11  24  41  61  81  97 132 169 201 234 281
#     4  11  24  43  61  77 103 130 165 203 238 279
#     4  10  20  33  46  68  98 127 150 183 235 287
#
# _framework density 15.935010999999999
#
# number of rings (size 3 to 8) (size 9 to 14) (size 15 to 20)
#    0.000    2.154    2.308    3.231    2.154    3.692 
#    0.000    3.077    0.000    0.000    0.000    0.000 
#    0.000    0.000    0.000    0.000    0.000    0.000 
#
# Total GULP energy -289947.812731 kJ/mol
# GULP energy per Si atom -5575.919476 kJ/mol
# Density = 1.589874 g / cm^3
# Si number density = 15.935011 Si / 1000 Ang^3
#
#
#
# Elastic Constant Matrix: (Units=GPa)
#
#
# Indices 1 2 3 4 5 6 
#
# 1 26.3933 17.3841 12.6699 0.0000 0.0000 0.0000
# 2 17.3841 137.5871 81.1467 0.0000 0.0000 0.0000
# 3 12.6699 81.1467 121.3275 0.0000 0.0000 0.0000
# 4 0.0000 0.0000 0.0000 32.9947 0.0000 0.0000
# 5 0.0000 0.0000 0.0000 0.0000 4.8177 0.0000
# 6 0.0000 0.0000 0.0000 0.0000 0.0000 -78.1203
#
#
#
# Elastic Compliance Matrix: (Units=1/GPa)
#
#
# Indices 1 2 3 4 5 6 
#
# 1 0.041464 -0.004434 -0.001364 0.000000 0.000000 0.000000
# 2 -0.004434 0.012477 -0.007882 0.000000 0.000000 0.000000
# 3 -0.001364 -0.007882 0.013656 0.000000 0.000000 0.000000
# 4 0.000000 0.000000 0.000000 0.030308 0.000000 0.000000
# 5 0.000000 0.000000 0.000000 0.000000 0.207567 0.000000
# 6 0.000000 0.000000 0.000000 0.000000 0.000000 -0.012801
#
#
# Mechanical properties :
#
#
# Convention : Reuss Voigt Hill
#
# Bulk Modulus (GPa) = 24.85311 56.41213 40.63262
# Shear Modulus (GPa) = 14.99503 3.54557 9.27030
#
# Velocity S-wave (km/s) = 3.07092 1.49327 2.41458
# Velocity P-wave (km/s) = 5.31079 6.20092 5.77303
#
# Compressibility (1/GPa) = 0.04023641
#
# Stress axis : x y z
#
# Youngs Moduli (GPa) = 24.11730 80.14748 73.22696
#
# Poissons Ratio (x) = 0.35541 0.09989
# Poissons Ratio (y) = 0.10695 0.57716
# Poissons Ratio (z) = 0.03290 0.63171
#
# Static dielectric constant tensor:
#      x y z
#    x 1.507470 0.000000 0.000000 
#    y 0.000000 1.541550 0.000000 
#    z 0.000000 0.000000 1.531570 
# 
# From -- ./inp_files/45998.got.cif
#   From: 2010.05.17/outbox.cif.g08.bks.cpg/sg67_23_cif.got.tgz:45998.got - 2010.06.03 18:28:57.
