data_PCOD9502572
_publ_section_title
;
Structure prediction by ZEFSAII (Michael W. Deem and Ramdas Pophale) SiO2 
 PCOD9502572
Probable space group: C M M A
;
_chemical_formula_sum "Si O2"
_cell_formula_units_Z 88
_cell_length_a 9.923377
_cell_length_b 22.187630
_cell_length_c 23.011273
_cell_angle_alpha 90.000000
_cell_angle_beta 90.000000
_cell_angle_gamma 90.000000
_cell_volume 5066.535043
_symmetry_space_group_name_H-M "C M M A"
_symmetry_group_IT_number 67
_symmetry_cell_setting 'orthorhombic'
loop_
_space_group_symop_operation_xyz
x,y,z
-x,1/2-y,z
x,-y,-z
-x,1/2+y,-z
-x,-y,-z
x,1/2+y,-z
-x,y,z
x,1/2-y,z
1/2+x,1/2+y,z
1/2-x,-y,z
1/2+x,1/2-y,-z
1/2-x,y,-z
1/2-x,1/2-y,-z
1/2+x,y,-z
1/2-x,1/2+y,z
1/2+x,-y,z
loop_
_atom_site_type_symbol
_atom_site_label
_atom_site_fract_x
_atom_site_fract_y
_atom_site_fract_z
Si Si1 0.152314 0.115361 0.776199
Si Si2 0.161896 0.321255 0.315873
Si Si3 0.154492 0.418729 0.052478
Si Si4 0.653651 0.176766 0.551337
Si Si5 0.750000 0.000000 0.154185
Si Si6 0.347466 0.320717 0.102418
O O1 0.258754 0.136542 0.728467
O O2 0.180843 0.050321 0.805516
O O3 0.160584 0.162370 0.829669
O O4 0.000000 0.116405 0.752957
O O5 0.194976 0.250000 0.306886
O O6 0.195433 0.337730 0.382713
O O7 0.000000 0.326753 0.309161
O O8 0.159014 0.462545 0.108544
O O9 0.228752 0.357369 0.072007
O O10 0.000000 0.411859 0.034617
O O11 0.250000 0.439471 0.000000
O O12 0.500000 0.156495 0.542393
O O13 0.652236 0.250000 0.549279
O O14 0.750000 0.155153 0.500000
O O15 0.500000 0.339534 0.084035
O O16 0.334503 0.250000 0.093051
#
# Coordination Sequence:
#
# PCOD9502572 Si02
#       6
#    16  16  16  16   8  16
#     4  10  20  34  53  76 100 129 168 211 251 293
#     4   9  18  31  47  72 107 141 170 203 247 298
#     4  11  23  38  58  80 101 128 162 202 248 298
#     4   8  14  25  41  64  97 135 171 205 241 284
#     4  10  23  40  56  74  99 128 164 208 254 300
#     4   9  19  36  55  76 105 136 164 199 243 292
#
# _framework density 17.368872
#
# number of rings (size 3 to 8) (size 9 to 14) (size 15 to 20)
#    0.000    2.545    0.000    3.000    0.000    9.091 
#    0.000    1.818    0.000    0.000    0.000    0.636 
#    0.000    4.364    0.000    0.000    0.000    0.000 
#
# Total GULP energy -245189.190470 kJ/mol
# GULP energy per Si atom -5572.481602 kJ/mol
# Density = 1.732934 g / cm^3
# Si number density = 17.368872 Si / 1000 Ang^3
#
#
#
# Elastic Constant Matrix: (Units=GPa)
#
#
# Indices 1 2 3 4 5 6 
#
# 1 120.6029 46.4375 69.0476 0.0000 0.0000 0.0000
# 2 46.4375 70.3666 47.7917 0.0000 0.0000 0.0000
# 3 69.0476 47.7917 109.8977 0.0000 0.0000 0.0000
# 4 0.0000 0.0000 0.0000 20.3184 0.0000 0.0000
# 5 0.0000 0.0000 0.0000 0.0000 29.3955 0.0000
# 6 0.0000 0.0000 0.0000 0.0000 0.0000 -5.2917
#
#
#
# Elastic Compliance Matrix: (Units=1/GPa)
#
#
# Indices 1 2 3 4 5 6 
#
# 1 0.013930 -0.004610 -0.006747 0.000000 0.000000 0.000000
# 2 -0.004610 0.021694 -0.006538 0.000000 0.000000 0.000000
# 3 -0.006747 -0.006538 0.016181 0.000000 0.000000 0.000000
# 4 0.000000 0.000000 0.000000 0.049217 0.000000 0.000000
# 5 0.000000 0.000000 0.000000 0.000000 0.034019 0.000000
# 6 0.000000 0.000000 0.000000 0.000000 0.000000 -0.188975
#
#
# Mechanical properties :
#
#
# Convention : Reuss Voigt Hill
#
# Bulk Modulus (GPa) = 62.43973 69.71342 66.07657
# Shear Modulus (GPa) = -390.40861 18.05712 -186.17574
#
# Velocity S-wave (km/s) = -15.00876 3.22782 -10.36446
# Velocity P-wave (km/s) = 16.25802 7.35635 10.25201
#
# Compressibility (1/GPa) = 0.01601544
#
# Stress axis : x y z
#
# Youngs Moduli (GPa) = 71.78966 46.09580 61.79921
#
# Poissons Ratio (x) = 0.21251 0.41696
# Poissons Ratio (y) = 0.33097 0.40402
# Poissons Ratio (z) = 0.48436 0.30136
#
# Static dielectric constant tensor:
#      x y z
#    x 1.594630 0.000000 0.000000 
#    y 0.000000 1.591730 0.000000 
#    z 0.000000 0.000000 1.598740 
# 
# From -- ./inp_files/40670.got.cif
#   From: 2010.05.17/outbox.cif.g08.bks.cpg/sg67_21_cif.got.tgz:40670.got - 2010.06.03 18:28:57.
