data_PCOD9502951
_publ_section_title
;
Structure prediction by ZEFSAII (Michael W. Deem and Ramdas Pophale) SiO2 
 PCOD9502951
Probable space group: C M M A
;
_chemical_formula_sum "Si O2"
_cell_formula_units_Z 88
_cell_length_a 20.097891
_cell_length_b 8.039529
_cell_length_c 25.487123
_cell_angle_alpha 90.000000
_cell_angle_beta 90.000000
_cell_angle_gamma 90.000000
_cell_volume 4118.147593
_symmetry_space_group_name_H-M "C M M A"
_symmetry_group_IT_number 67
_symmetry_cell_setting 'orthorhombic'
loop_
_space_group_symop_operation_xyz
x,y,z
-x,1/2-y,z
x,-y,-z
-x,1/2+y,-z
-x,-y,-z
x,1/2+y,-z
-x,y,z
x,1/2-y,z
1/2+x,1/2+y,z
1/2-x,-y,z
1/2+x,1/2-y,-z
1/2-x,y,-z
1/2-x,1/2-y,-z
1/2+x,y,-z
1/2-x,1/2+y,z
1/2+x,-y,z
loop_
_atom_site_type_symbol
_atom_site_label
_atom_site_fract_x
_atom_site_fract_y
_atom_site_fract_z
Si Si1 0.818848 0.551981 0.330756
Si Si2 0.500000 0.950087 0.439352
Si Si3 0.642770 0.053720 0.559096
Si Si4 0.423079 0.046583 0.246999
Si Si5 0.424820 0.950592 0.939758
Si Si6 0.827427 0.049238 0.848928
O O1 0.821045 0.750000 0.332798
O O2 0.750000 0.500000 0.303056
O O3 0.815936 0.484312 0.389713
O O4 0.883649 0.491955 0.299228
O O5 0.500000 0.750000 0.431462
O O6 0.570905 0.019665 0.423182
O O7 0.500000 0.000000 0.500000
O O8 0.636511 0.250000 0.553952
O O9 0.662179 0.000000 0.500000
O O10 0.500000 0.990951 0.243834
O O11 0.424791 0.250000 0.246821
O O12 0.375132 0.995157 0.199114
O O13 0.500000 0.007525 0.924517
O O14 0.425695 0.750000 0.936769
O O15 0.366355 0.009502 0.901291
O O16 0.413823 0.000000 0.000000
O O17 0.828227 0.250000 0.848625
O O18 0.750000 0.000000 0.845718
#
# Coordination Sequence:
#
# PCOD9502951 Si02
#       6
#    16   8  16  16  16  16
#     4  11  23  38  58  83 113 147 182 226 278 333
#     4   8  16  30  50  76 106 138 170 212 259 308
#     4  10  20  36  57  83 114 147 184 224 273 330
#     4   9  19  37  61  86 109 140 186 234 278 331
#     4   9  18  33  54  80 111 151 196 240 283 328
#     4  10  20  35  57  83 114 150 188 232 282 336
#
# _framework density 21.368829999999999
#
# number of rings (size 3 to 8) (size 9 to 14) (size 15 to 20)
#    0.000    2.364    0.000    2.182    1.273    4.364 
#    0.000    4.545    0.000    3.818    0.000    0.000 
#    0.000    0.000    0.000    0.000    0.000    0.000 
#
# Total GULP energy -245193.910752 kJ/mol
# GULP energy per Si atom -5572.588881 kJ/mol
# Density = 2.132019 g / cm^3
# Si number density = 21.368830 Si / 1000 Ang^3
#
#
#
# Elastic Constant Matrix: (Units=GPa)
#
#
# Indices 1 2 3 4 5 6 
#
# 1 194.4949 -6.1155 94.4357 0.0000 0.0000 0.0000
# 2 -6.1155 15.2981 7.2339 0.0000 0.0000 0.0000
# 3 94.4357 7.2339 133.3837 0.0000 0.0000 0.0000
# 4 0.0000 0.0000 0.0000 11.3268 0.0000 0.0000
# 5 0.0000 0.0000 0.0000 0.0000 27.2798 0.0000
# 6 0.0000 0.0000 0.0000 0.0000 0.0000 26.1626
#
#
#
# Elastic Compliance Matrix: (Units=1/GPa)
#
#
# Indices 1 2 3 4 5 6 
#
# 1 0.008392 0.006326 -0.006285 0.000000 0.000000 0.000000
# 2 0.006326 0.071858 -0.008376 0.000000 0.000000 0.000000
# 3 -0.006285 -0.008376 0.012401 0.000000 0.000000 0.000000
# 4 0.000000 0.000000 0.000000 0.088286 0.000000 0.000000
# 5 0.000000 0.000000 0.000000 0.000000 0.036657 0.000000
# 6 0.000000 0.000000 0.000000 0.000000 0.000000 0.038222
#
#
# Mechanical properties :
#
#
# Convention : Reuss Voigt Hill
#
# Bulk Modulus (GPa) = 13.16105 59.36497 36.26301
# Shear Modulus (GPa) = 16.78912 29.46203 23.12557
#
# Velocity S-wave (km/s) = 2.80604 3.71716 3.29327
# Velocity P-wave (km/s) = 4.08300 6.80180 5.60961
#
# Compressibility (1/GPa) = 0.07598176
#
# Stress axis : x y z
#
# Youngs Moduli (GPa) = 119.16281 13.91640 80.63914
#
# Poissons Ratio (x) = -0.08804 0.50678
# Poissons Ratio (y) = -0.75388 0.67546
# Poissons Ratio (z) = 0.74889 0.11657
#
# Static dielectric constant tensor:
#      x y z
#    x 1.933120 0.000000 0.000000 
#    y 0.000000 1.764070 0.000000 
#    z 0.000000 0.000000 1.764430 
# 
# From -- ./inp_files/42345.got.cif
#   From: 2010.05.17/outbox.cif.g08.bks.cpg/sg67_22_cif.got.tgz:42345.got - 2010.06.03 18:28:57.
