data_PCOD9502333
_publ_section_title
;
Structure prediction by ZEFSAII (Michael W. Deem and Ramdas Pophale) SiO2 
 PCOD9502333
Probable space group: C M M A
;
_chemical_formula_sum "Si O2"
_cell_formula_units_Z 128
_cell_length_a 23.108188
_cell_length_b 26.856733
_cell_length_c 11.461092
_cell_angle_alpha 90.000000
_cell_angle_beta 90.000000
_cell_angle_gamma 90.000000
_cell_volume 7112.873294
_symmetry_space_group_name_H-M "C M M A"
_symmetry_group_IT_number 67
_symmetry_cell_setting 'orthorhombic'
loop_
_space_group_symop_operation_xyz
x,y,z
-x,1/2-y,z
x,-y,-z
-x,1/2+y,-z
-x,-y,-z
x,1/2+y,-z
-x,y,z
x,1/2-y,z
1/2+x,1/2+y,z
1/2-x,-y,z
1/2+x,1/2-y,-z
1/2-x,y,-z
1/2-x,1/2-y,-z
1/2+x,y,-z
1/2-x,1/2+y,z
1/2+x,-y,z
loop_
_atom_site_type_symbol
_atom_site_label
_atom_site_fract_x
_atom_site_fract_y
_atom_site_fract_z
Si Si1 0.753250 0.696076 0.236473
Si Si2 0.744076 0.903019 0.637661
Si Si3 0.433205 0.501505 0.138813
Si Si4 0.612778 0.407096 0.272379
Si Si5 0.630832 0.807082 0.133758
Si Si6 0.067071 0.442177 0.488621
Si Si7 0.880960 0.806596 0.137958
Si Si8 0.367815 0.409742 0.735216
O O1 0.749459 0.750000 0.291989
O O2 0.750496 0.655890 0.338236
O O3 0.700526 0.691740 0.146165
O O4 0.812468 0.692619 0.165591
O O5 0.750000 0.915667 0.500000
O O6 0.680411 0.914472 0.689582
O O7 0.799341 0.921150 0.713929
O O8 0.500000 0.504946 0.180186
O O9 0.405107 0.451087 0.186224
O O10 0.397038 0.548139 0.185804
O O11 0.433200 0.500000 0.000000
O O12 0.576465 0.415416 0.389156
O O13 0.598809 0.353746 0.213797
O O14 0.613368 0.750000 0.169052
O O15 0.616632 0.855326 0.212279
O O16 0.610943 0.814261 0.000466
O O17 0.085887 0.500000 0.500000
O O18 0.104436 0.415053 0.391749
O O19 0.000000 0.442456 0.455007
O O20 0.901599 0.750000 0.167030
#
# Coordination Sequence:
#
# PCOD9502333 Si02
#       8
#    16  16  16  16  16  16  16  16
#     4   8  15  27  47  75 109 152 197 228 258 321
#     4  10  20  33  50  81 121 157 178 222 284 344
#     4  11  24  42  63  84 108 144 194 249 290 327
#     4  11  21  37  58  87 117 148 191 231 286 344
#     4   9  17  31  53  81 115 152 186 226 278 337
#     4  11  22  39  62  82 105 145 198 247 284 329
#     4   9  17  31  53  81 115 152 186 226 278 337
#     4  11  21  37  58  87 117 148 191 231 286 344
#
# _framework density 17.995539999999998
#
# number of rings (size 3 to 8) (size 9 to 14) (size 15 to 20)
#    0.000    2.000    2.500    1.875    0.000    2.250 
#    0.000    4.375    0.000    3.750    0.000    8.750 
#    0.000    0.000    0.000    0.000    0.000    0.000 
#
# Total GULP energy -356448.059877 kJ/mol
# GULP energy per Si atom -5569.500936 kJ/mol
# Density = 1.795458 g / cm^3
# Si number density = 17.995540 Si / 1000 Ang^3
#
#
#
# Elastic Constant Matrix: (Units=GPa)
#
#
# Indices 1 2 3 4 5 6 
#
# 1 48.3330 25.4068 17.4915 0.0000 0.0000 0.0000
# 2 25.4068 122.2631 52.0898 0.0000 0.0000 0.0000
# 3 17.4915 52.0898 80.9886 0.0000 0.0000 0.0000
# 4 0.0000 0.0000 0.0000 26.4907 0.0000 0.0000
# 5 0.0000 0.0000 0.0000 0.0000 17.5874 0.0000
# 6 0.0000 0.0000 0.0000 0.0000 0.0000 -36.1749
#
#
#
# Elastic Compliance Matrix: (Units=1/GPa)
#
#
# Indices 1 2 3 4 5 6 
#
# 1 0.023642 -0.003771 -0.002681 0.000000 0.000000 0.000000
# 2 -0.003771 0.011868 -0.006819 0.000000 0.000000 0.000000
# 3 -0.002681 -0.006819 0.017312 0.000000 0.000000 0.000000
# 4 0.000000 0.000000 0.000000 0.037749 0.000000 0.000000
# 5 0.000000 0.000000 0.000000 0.000000 0.056859 0.000000
# 6 0.000000 0.000000 0.000000 0.000000 0.000000 -0.027643
#
#
# Mechanical properties :
#
#
# Convention : Reuss Voigt Hill
#
# Bulk Modulus (GPa) = 38.04980 49.06233 43.55607
# Shear Modulus (GPa) = 32.23992 12.02042 22.13017
#
# Velocity S-wave (km/s) = 4.23726 2.58731 3.51060
# Velocity P-wave (km/s) = 6.71782 6.02066 6.37877
#
# Compressibility (1/GPa) = 0.02628134
#
# Stress axis : x y z
#
# Youngs Moduli (GPa) = 42.29737 84.26219 57.76352
#
# Poissons Ratio (x) = 0.31773 0.15485
# Poissons Ratio (y) = 0.15949 0.39387
# Poissons Ratio (z) = 0.11339 0.57455
#
# Static dielectric constant tensor:
#      x y z
#    x 1.631400 0.000000 0.000000 
#    y 0.000000 1.637910 0.000000 
#    z 0.000000 0.000000 1.616260 
# 
# From -- ./inp_files/22429.got.cif
#   From: 2010.05.17/outbox.cif.g08.bks.cpg/sg67_12_cif.got.tgz:22429.got - 2010.06.03 18:28:57.
