data_PCOD9502338
_publ_section_title
;
Structure prediction by ZEFSAII (Michael W. Deem and Ramdas Pophale) SiO2 
 PCOD9502338
Probable space group: C M M A
;
_chemical_formula_sum "Si O2"
_cell_formula_units_Z 72
_cell_length_a 9.094893
_cell_length_b 20.797266
_cell_length_c 24.153272
_cell_angle_alpha 90.000000
_cell_angle_beta 90.000000
_cell_angle_gamma 90.000000
_cell_volume 4568.565047
_symmetry_space_group_name_H-M "C M M A"
_symmetry_group_IT_number 67
_symmetry_cell_setting 'orthorhombic'
loop_
_space_group_symop_operation_xyz
x,y,z
-x,1/2-y,z
x,-y,-z
-x,1/2+y,-z
-x,-y,-z
x,1/2+y,-z
-x,y,z
x,1/2-y,z
1/2+x,1/2+y,z
1/2-x,-y,z
1/2+x,1/2-y,-z
1/2-x,y,-z
1/2-x,1/2-y,-z
1/2+x,y,-z
1/2-x,1/2+y,z
1/2+x,-y,z
loop_
_atom_site_type_symbol
_atom_site_label
_atom_site_fract_x
_atom_site_fract_y
_atom_site_fract_z
Si Si1 0.675985 0.568494 0.136466
Si Si2 0.175585 0.824709 0.060092
Si Si3 0.324083 0.250000 0.440858
Si Si4 0.173833 0.932809 0.732730
Si Si5 0.674017 0.822059 0.664322
O O1 0.500000 0.565960 0.127381
O O2 0.750000 0.500000 0.121869
O O3 0.749635 0.625371 0.101704
O O4 0.702818 0.579181 0.202011
O O5 0.198832 0.750000 0.076871
O O6 0.000000 0.835553 0.056657
O O7 0.250000 0.832805 0.000000
O O8 0.500000 0.250000 0.447041
O O9 0.250000 0.250000 0.500000
O O10 0.286665 0.310330 0.400498
O O11 0.236490 0.875497 0.695864
O O12 0.000000 0.938584 0.725556
O O13 0.250000 0.000000 0.717930
O O14 0.500000 0.835926 0.667549
O O15 0.696772 0.750000 0.688733
#
# Coordination Sequence:
#
# PCOD9502338 Si02
#       5
#    16  16   8  16  16
#     4  10  21  36  53  75 102 132 169 210 252 302
#     4  10  21  37  56  77 101 131 166 206 255 305
#     4   8  16  30  50  76 104 136 169 208 251 292
#     4  10  20  33  51  74 102 136 170 208 254 301
#     4   8  17  32  49  73 103 134 168 206 248 295
#
# _framework density 15.759872
#
# number of rings (size 3 to 8) (size 9 to 14) (size 15 to 20)
#    0.667    2.000    0.000    2.000    0.000    6.667 
#    0.000    6.667    0.000    0.667    0.000    4.667 
#    0.000    0.000    0.000    0.000    0.000    0.000 
#
# Total GULP energy -200482.782184 kJ/mol
# GULP energy per Si atom -5568.966172 kJ/mol
# Density = 1.572400 g / cm^3
# Si number density = 15.759872 Si / 1000 Ang^3
#
#
#
# Elastic Constant Matrix: (Units=GPa)
#
#
# Indices 1 2 3 4 5 6 
#
# 1 89.1504 80.1703 70.7132 0.0000 0.0000 0.0000
# 2 80.1703 125.5576 91.7637 0.0000 0.0000 0.0000
# 3 70.7132 91.7637 90.3856 0.0000 0.0000 0.0000
# 4 0.0000 0.0000 0.0000 -199.1739 0.0000 0.0000
# 5 0.0000 0.0000 0.0000 0.0000 31.4345 0.0000
# 6 0.0000 0.0000 0.0000 0.0000 0.0000 34.8589
#
#
#
# Elastic Compliance Matrix: (Units=1/GPa)
#
#
# Indices 1 2 3 4 5 6 
#
# 1 0.031585 -0.008169 -0.016416 0.000000 0.000000 0.000000
# 2 -0.008169 0.032982 -0.027094 0.000000 0.000000 0.000000
# 3 -0.016416 -0.027094 0.051414 0.000000 0.000000 0.000000
# 4 0.000000 0.000000 0.000000 -0.005021 0.000000 0.000000
# 5 0.000000 0.000000 0.000000 0.000000 0.031812 0.000000
# 6 0.000000 0.000000 0.000000 0.000000 0.000000 0.028687
#
#
# Mechanical properties :
#
#
# Convention : Reuss Voigt Hill
#
# Bulk Modulus (GPa) = 79.22793 87.82090 83.52442
# Shear Modulus (GPa) = 17.91951 -22.41301 -2.24675
#
# Velocity S-wave (km/s) = 3.37565 -3.77524 -1.19529
# Velocity P-wave (km/s) = 8.09780 6.06977 7.15600
#
# Compressibility (1/GPa) = 0.01262181
#
# Stress axis : x y z
#
# Youngs Moduli (GPa) = 31.66071 30.31944 19.45005
#
# Poissons Ratio (x) = 0.24769 0.31930
# Poissons Ratio (y) = 0.25865 0.52697
# Poissons Ratio (z) = 0.51975 0.82146
#
# Static dielectric constant tensor:
#      x y z
#    x 1.519180 0.000000 0.000000 
#    y 0.000000 1.507300 0.000000 
#    z 0.000000 0.000000 1.512860 
# 
# From -- ./inp_files/36770.got.cif
#   From: 2010.05.17/outbox.cif.g08.bks.cpg/sg67_19_cif.got.tgz:36770.got - 2010.06.03 18:28:57.
