data_PCOD9502312
_publ_section_title
;
Structure prediction by ZEFSAII (Michael W. Deem and Ramdas Pophale) SiO2 
 PCOD9502312
Probable space group: C M M A
;
_chemical_formula_sum "Si O2"
_cell_formula_units_Z 96
_cell_length_a 18.237468
_cell_length_b 14.424373
_cell_length_c 15.882955
_cell_angle_alpha 90.000000
_cell_angle_beta 90.000000
_cell_angle_gamma 90.000000
_cell_volume 4178.234325
_symmetry_space_group_name_H-M "C M M A"
_symmetry_group_IT_number 67
_symmetry_cell_setting 'orthorhombic'
loop_
_space_group_symop_operation_xyz
x,y,z
-x,1/2-y,z
x,-y,-z
-x,1/2+y,-z
-x,-y,-z
x,1/2+y,-z
-x,y,z
x,1/2-y,z
1/2+x,1/2+y,z
1/2-x,-y,z
1/2+x,1/2-y,-z
1/2-x,y,-z
1/2-x,1/2-y,-z
1/2+x,y,-z
1/2-x,1/2+y,z
1/2+x,-y,z
loop_
_atom_site_type_symbol
_atom_site_label
_atom_site_fract_x
_atom_site_fract_y
_atom_site_fract_z
Si Si1 0.579180 0.108457 0.485966
Si Si2 0.309934 0.358796 0.629655
Si Si3 0.915520 0.635948 0.775283
Si Si4 0.414324 0.863803 0.857033
Si Si5 0.089183 0.358797 0.040440
Si Si6 0.652374 0.360722 0.316379
O O1 0.500000 0.147424 0.514190
O O2 0.649824 0.138030 0.539909
O O3 0.591642 0.125747 0.387834
O O4 0.576104 0.000000 0.500000
O O5 0.303751 0.250000 0.648276
O O6 0.365734 0.398052 0.699052
O O7 0.228584 0.397007 0.644095
O O8 0.915243 0.750000 0.776162
O O9 0.000000 0.608468 0.763015
O O10 0.888835 0.604605 0.867844
O O11 0.500000 0.889360 0.847260
O O12 0.412656 0.750000 0.859438
O O13 0.387995 0.897042 0.949372
O O14 0.369580 0.895924 0.775761
O O15 0.109919 0.250000 0.040401
O O16 0.000000 0.362638 0.040243
O O17 0.658788 0.250000 0.306174
#
# Coordination Sequence:
#
# PCOD9502312 Si02
#       6
#    16  16  16  16  16  16
#     4  11  24  39  54  72  92 119 160 205 246 290
#     4  10  20  33  50  74 102 130 160 194 236 288
#     4   8  13  23  41  65  94 128 163 197 232 271
#     4   8  13  23  41  65  94 128 163 197 232 271
#     4   7  10  18  35  61  92 125 160 195 230 268
#     4  10  20  33  50  74 102 130 160 194 236 288
#
# _framework density 22.976213000000001
#
# number of rings (size 3 to 8) (size 9 to 14) (size 15 to 20)
#    0.000    3.000    0.000    4.000    0.000    5.333 
#    0.000    0.833    0.000    5.000    0.000    1.167 
#    0.000    9.333    0.000    0.000    0.000    0.000 
#
# Total GULP energy -267840.791572 kJ/mol
# GULP energy per Si atom -5580.016491 kJ/mol
# Density = 2.292392 g / cm^3
# Si number density = 22.976213 Si / 1000 Ang^3
#
#
#
# Elastic Constant Matrix: (Units=GPa)
#
#
# Indices 1 2 3 4 5 6 
#
# 1 80.4457 -7.6701 38.4888 0.0000 0.0000 0.0000
# 2 -7.6701 48.8856 -11.4070 0.0000 0.0000 0.0000
# 3 38.4888 -11.4070 154.4289 0.0000 0.0000 0.0000
# 4 0.0000 0.0000 0.0000 10.0266 0.0000 0.0000
# 5 0.0000 0.0000 0.0000 0.0000 18.4473 0.0000
# 6 0.0000 0.0000 0.0000 0.0000 0.0000 -254.0428
#
#
#
# Elastic Compliance Matrix: (Units=1/GPa)
#
#
# Indices 1 2 3 4 5 6 
#
# 1 0.014211 0.001428 -0.003436 0.000000 0.000000 0.000000
# 2 0.001428 0.020958 0.001192 0.000000 0.000000 0.000000
# 3 -0.003436 0.001192 0.007420 0.000000 0.000000 0.000000
# 4 0.000000 0.000000 0.000000 0.099734 0.000000 0.000000
# 5 0.000000 0.000000 0.000000 0.000000 0.054208 0.000000
# 6 0.000000 0.000000 0.000000 0.000000 0.000000 -0.003936
#
#
# Mechanical properties :
#
#
# Convention : Reuss Voigt Hill
#
# Bulk Modulus (GPa) = 24.41613 35.84260 30.12937
# Shear Modulus (GPa) = 24.05229 -27.49054 -1.71913
#
# Velocity S-wave (km/s) = 3.23899 -3.46277 -0.86594
# Velocity P-wave (km/s) = 4.96365 0.59493 3.48453
#
# Compressibility (1/GPa) = 0.04095653
#
# Stress axis : x y z
#
# Youngs Moduli (GPa) = 70.36801 47.71411 134.77090
#
# Poissons Ratio (x) = -0.06813 0.46312
# Poissons Ratio (y) = -0.10047 -0.16068
# Poissons Ratio (z) = 0.24181 -0.05689
#
# Static dielectric constant tensor:
#      x y z
#    x 1.851880 0.000000 0.000000 
#    y 0.000000 1.850300 0.000000 
#    z 0.000000 0.000000 1.881540 
# 
# From -- ./inp_files/29267.got.cif
#   From: 2010.05.17/outbox.cif.g08.bks.cpg/sg67_15_cif.got.tgz:29267.got - 2010.06.03 18:28:57.
