data_PCOD9502603
_publ_section_title
;
Structure prediction by ZEFSAII (Michael W. Deem and Ramdas Pophale) SiO2 
 PCOD9502603
Probable space group: C M M A
;
_chemical_formula_sum "Si O2"
_cell_formula_units_Z 88
_cell_length_a 9.175175
_cell_length_b 16.041998
_cell_length_c 30.328856
_cell_angle_alpha 90.000000
_cell_angle_beta 90.000000
_cell_angle_gamma 90.000000
_cell_volume 4464.047873
_symmetry_space_group_name_H-M "C M M A"
_symmetry_group_IT_number 67
_symmetry_cell_setting 'orthorhombic'
loop_
_space_group_symop_operation_xyz
x,y,z
-x,1/2-y,z
x,-y,-z
-x,1/2+y,-z
-x,-y,-z
x,1/2+y,-z
-x,y,z
x,1/2-y,z
1/2+x,1/2+y,z
1/2-x,-y,z
1/2+x,1/2-y,-z
1/2-x,y,-z
1/2-x,1/2-y,-z
1/2+x,y,-z
1/2-x,1/2+y,z
1/2+x,-y,z
loop_
_atom_site_type_symbol
_atom_site_label
_atom_site_fract_x
_atom_site_fract_y
_atom_site_fract_z
Si Si1 0.326283 0.411642 0.280613
Si Si2 0.824603 0.250000 0.047339
Si Si3 0.331858 0.852056 0.544500
Si Si4 0.326350 0.084067 0.897939
Si Si5 0.830647 0.152539 0.815840
Si Si6 0.833928 0.149717 0.367637
O O1 0.500000 0.419334 0.286381
O O2 0.250000 0.500000 0.273986
O O3 0.299667 0.360551 0.235770
O O4 0.255418 0.372748 0.324101
O O5 0.784854 0.333815 0.074096
O O6 0.000000 0.250000 0.042731
O O7 0.750000 0.250000 0.000000
O O8 0.500000 0.878555 0.544827
O O9 0.331365 0.750000 0.544747
O O10 0.250000 0.878298 0.500000
O O11 0.247161 0.880208 0.588236
O O12 0.500000 0.075000 0.899001
O O13 0.271622 0.101005 0.848213
O O14 0.250000 0.000000 0.914486
O O15 0.814609 0.250000 0.826222
O O16 0.000000 0.128420 0.823348
O O17 0.840359 0.250000 0.370500
O O18 0.000000 0.117963 0.365143
#
# Coordination Sequence:
#
# PCOD9502603 Si02
#       6
#    16   8  16  16  16  16
#     4  11  23  38  55  79 112 149 191 237 287 348
#     4  10  24  44  66  94 130 170 216 266 319 374
#     4   9  16  27  46  73 104 137 175 224 280 337
#     4  11  23  41  64  95 130 168 213 262 315 374
#     4  10  21  38  62  91 121 157 200 247 302 362
#     4  10  20  34  53  78 107 141 183 230 284 343
#
# _framework density 19.713051
#
# number of rings (size 3 to 8) (size 9 to 14) (size 15 to 20)
#    0.000    1.818    0.909    3.273    0.000    8.727 
#    0.000    1.818    0.000    0.545    0.000    3.818 
#    0.000    0.000    0.000    0.000    0.000    0.000 
#
# Total GULP energy -245864.598295 kJ/mol
# GULP energy per Si atom -5587.831779 kJ/mol
# Density = 1.966818 g / cm^3
# Si number density = 19.713051 Si / 1000 Ang^3
#
#
#
# Elastic Constant Matrix: (Units=GPa)
#
#
# Indices 1 2 3 4 5 6 
#
# 1 121.8888 49.1142 75.4869 0.0000 0.0000 0.0000
# 2 49.1142 77.6454 44.1975 0.0000 0.0000 0.0000
# 3 75.4869 44.1975 135.8920 0.0000 0.0000 0.0000
# 4 0.0000 0.0000 0.0000 -7.1465 0.0000 0.0000
# 5 0.0000 0.0000 0.0000 0.0000 39.7312 0.0000
# 6 0.0000 0.0000 0.0000 0.0000 0.0000 27.5288
#
#
#
# Elastic Compliance Matrix: (Units=1/GPa)
#
#
# Indices 1 2 3 4 5 6 
#
# 1 0.014200 -0.005513 -0.006095 0.000000 0.000000 0.000000
# 2 -0.005513 0.017945 -0.002774 0.000000 0.000000 0.000000
# 3 -0.006095 -0.002774 0.011647 0.000000 0.000000 0.000000
# 4 0.000000 0.000000 0.000000 -0.139928 0.000000 0.000000
# 5 0.000000 0.000000 0.000000 0.000000 0.025169 0.000000
# 6 0.000000 0.000000 0.000000 0.000000 0.000000 0.036326
#
#
# Mechanical properties :
#
#
# Convention : Reuss Voigt Hill
#
# Bulk Modulus (GPa) = 66.54194 74.78038 70.66116
# Shear Modulus (GPa) = -5766.79771 23.13120 -2871.83326
#
# Velocity S-wave (km/s) = -54.14537 3.42920 -38.20970
# Velocity P-wave (km/s) = 62.25057 7.32776 43.71177
#
# Compressibility (1/GPa) = 0.01502812
#
# Stress axis : x y z
#
# Youngs Moduli (GPa) = 70.42069 55.72485 85.85982
#
# Poissons Ratio (x) = 0.30720 0.52333
# Poissons Ratio (y) = 0.38822 0.23819
# Poissons Ratio (z) = 0.42923 0.15459
#
# Static dielectric constant tensor:
#      x y z
#    x 1.664840 0.000000 0.000000 
#    y 0.000000 1.717650 0.000000 
#    z 0.000000 0.000000 1.670250 
# 
# From -- ./inp_files/45219.got.cif
#   From: 2010.05.17/outbox.cif.g08.bks.cpg/sg67_23_cif.got.tgz:45219.got - 2010.06.03 18:28:57.
