data_PCOD9502530
_publ_section_title
;
Structure prediction by ZEFSAII (Michael W. Deem and Ramdas Pophale) SiO2 
 PCOD9502530
Probable space group: C M M A
;
_chemical_formula_sum "Si O2"
_cell_formula_units_Z 88
_cell_length_a 8.850841
_cell_length_b 16.365458
_cell_length_c 30.904879
_cell_angle_alpha 90.000000
_cell_angle_beta 90.000000
_cell_angle_gamma 90.000000
_cell_volume 4476.511973
_symmetry_space_group_name_H-M "C M M A"
_symmetry_group_IT_number 67
_symmetry_cell_setting 'orthorhombic'
loop_
_space_group_symop_operation_xyz
x,y,z
-x,1/2-y,z
x,-y,-z
-x,1/2+y,-z
-x,-y,-z
x,1/2+y,-z
-x,y,z
x,1/2-y,z
1/2+x,1/2+y,z
1/2-x,-y,z
1/2+x,1/2-y,-z
1/2-x,y,-z
1/2-x,1/2-y,-z
1/2+x,y,-z
1/2-x,1/2+y,z
1/2+x,-y,z
loop_
_atom_site_type_symbol
_atom_site_label
_atom_site_fract_x
_atom_site_fract_y
_atom_site_fract_z
Si Si1 0.319751 0.844410 0.681813
Si Si2 0.181022 0.909146 0.223620
Si Si3 0.827923 0.848207 0.956476
Si Si4 0.317195 0.750000 0.452209
Si Si5 0.680187 0.414815 0.598486
Si Si6 0.682701 0.591001 0.136206
O O1 0.500000 0.856475 0.676077
O O2 0.283638 0.750000 0.672638
O O3 0.284687 0.863454 0.731725
O O4 0.232502 0.900092 0.647826
O O5 0.252360 0.870485 0.180296
O O6 0.000000 0.914133 0.218515
O O7 0.250000 0.000000 0.227801
O O8 0.827961 0.750000 0.958828
O O9 0.765805 0.870764 0.909328
O O10 0.000000 0.877617 0.957286
O O11 0.750000 0.879710 0.000000
O O12 0.500000 0.750000 0.453746
O O13 0.250000 0.750000 0.500000
O O14 0.270516 0.833370 0.427553
O O15 0.500000 0.420152 0.596400
O O16 0.750000 0.500000 0.582410
O O17 0.500000 0.591197 0.138235
O O18 0.750000 0.500000 0.135946
#
# Coordination Sequence:
#
# PCOD9502530 Si02
#       6
#    16  16  16   8  16  16
#     4  10  21  37  58  86 119 156 198 245 296 351
#     4  10  20  34  52  76 107 143 184 227 275 336
#     4   9  19  35  53  73  97 127 166 211 261 321
#     4  10  24  44  66  94 130 166 210 260 309 364
#     4  11  23  41  64  94 127 165 210 257 307 366
#     4  10  20  34  52  74 102 135 173 219 270 327
#
# _framework density 19.658162999999998
#
# number of rings (size 3 to 8) (size 9 to 14) (size 15 to 20)
#    0.000    2.000    0.909    3.273    0.000    7.273 
#    0.000    3.636    0.000    0.000    0.000    0.000 
#    0.000    0.000    0.000    0.000    0.000    0.000 
#
# Total GULP energy -245535.130035 kJ/mol
# GULP energy per Si atom -5580.343864 kJ/mol
# Density = 1.961342 g / cm^3
# Si number density = 19.658163 Si / 1000 Ang^3
#
#
#
# Elastic Constant Matrix: (Units=GPa)
#
#
# Indices 1 2 3 4 5 6 
#
# 1 43.1383 33.2469 43.5846 0.0000 0.0000 0.0000
# 2 33.2469 84.2983 49.6351 0.0000 0.0000 0.0000
# 3 43.5846 49.6351 144.4738 0.0000 0.0000 0.0000
# 4 0.0000 0.0000 0.0000 131.0592 0.0000 0.0000
# 5 0.0000 0.0000 0.0000 0.0000 36.8161 0.0000
# 6 0.0000 0.0000 0.0000 0.0000 0.0000 20.1938
#
#
#
# Elastic Compliance Matrix: (Units=1/GPa)
#
#
# Indices 1 2 3 4 5 6 
#
# 1 0.039961 -0.010859 -0.008325 0.000000 0.000000 0.000000
# 2 -0.010859 0.017822 -0.002847 0.000000 0.000000 0.000000
# 3 -0.008325 -0.002847 0.010411 0.000000 0.000000 0.000000
# 4 0.000000 0.000000 0.000000 0.007630 0.000000 0.000000
# 5 0.000000 0.000000 0.000000 0.000000 0.027162 0.000000
# 6 0.000000 0.000000 0.000000 0.000000 0.000000 0.049520
#
#
# Mechanical properties :
#
#
# Convention : Reuss Voigt Hill
#
# Bulk Modulus (GPa) = 41.43723 58.31594 49.87658
# Shear Modulus (GPa) = 24.43658 47.31007 35.87333
#
# Velocity S-wave (km/s) = 3.52955 4.91107 4.27647
# Velocity P-wave (km/s) = 6.14288 7.86686 7.05771
#
# Compressibility (1/GPa) = 0.02413289
#
# Stress axis : x y z
#
# Youngs Moduli (GPa) = 25.02432 56.11187 96.05112
#
# Poissons Ratio (x) = 0.60931 0.79960
# Poissons Ratio (y) = 0.27174 0.27344
# Poissons Ratio (z) = 0.20832 0.15974
#
# Static dielectric constant tensor:
#      x y z
#    x 1.674760 0.000000 0.000000 
#    y 0.000000 1.694340 0.000000 
#    z 0.000000 0.000000 1.714360 
# 
# From -- ./inp_files/45271.got.cif
#   From: 2010.05.17/outbox.cif.g08.bks.cpg/sg67_23_cif.got.tgz:45271.got - 2010.06.03 18:28:57.
