data_PCOD9502073
_publ_section_title
;
Structure prediction by ZEFSAII (Michael W. Deem and Ramdas Pophale) SiO2 
 PCOD9502073
Probable space group: C M M A
;
_chemical_formula_sum "Si O2"
_cell_formula_units_Z 112
_cell_length_a 17.785627
_cell_length_b 14.866002
_cell_length_c 22.001092
_cell_angle_alpha 90.000000
_cell_angle_beta 90.000000
_cell_angle_gamma 90.000000
_cell_volume 5817.114390
_symmetry_space_group_name_H-M "C M M A"
_symmetry_group_IT_number 67
_symmetry_cell_setting 'orthorhombic'
loop_
_space_group_symop_operation_xyz
x,y,z
-x,1/2-y,z
x,-y,-z
-x,1/2+y,-z
-x,-y,-z
x,1/2+y,-z
-x,y,z
x,1/2-y,z
1/2+x,1/2+y,z
1/2-x,-y,z
1/2+x,1/2-y,-z
1/2-x,y,-z
1/2-x,1/2-y,-z
1/2+x,y,-z
1/2-x,1/2+y,z
1/2+x,-y,z
loop_
_atom_site_type_symbol
_atom_site_label
_atom_site_fract_x
_atom_site_fract_y
_atom_site_fract_z
Si Si1 0.177374 0.854243 0.544880
Si Si2 0.585550 0.109964 0.996347
Si Si3 0.724959 0.147828 0.213445
Si Si4 0.317093 0.562226 0.104590
Si Si5 0.588080 0.604953 0.866849
Si Si6 0.915663 0.639733 0.435759
Si Si7 0.722065 0.860853 0.649489
O O1 0.158226 0.750000 0.557109
O O2 0.250000 0.854711 0.500000
O O3 0.111891 0.891935 0.502469
O O4 0.208024 0.893082 0.607921
O O5 0.500000 0.136919 0.980611
O O6 0.647597 0.128543 0.945295
O O7 0.602315 0.142264 0.064731
O O8 0.585413 0.000000 0.000000
O O9 0.749944 0.250000 0.219359
O O10 0.778367 0.102846 0.163808
O O11 0.641905 0.145438 0.183915
O O12 0.724846 0.108577 0.281105
O O13 0.250000 0.500000 0.076872
O O14 0.384631 0.498269 0.127203
O O15 0.500000 0.613577 0.854567
O O16 0.914219 0.750000 0.437527
O O17 0.854380 0.613271 0.385454
O O18 0.000000 0.611166 0.421976
O O19 0.723006 0.750000 0.648689
#
# Coordination Sequence:
#
# PCOD9502073 Si02
#       7
#    16  16  16  16  16  16  16
#     4   7  10  18  32  48  69 101 139 175 208 243
#     4   8  14  27  48  68  82 104 145 194 236 267
#     4  10  20  30  42  65  97 128 151 174 213 269
#     4   9  17  29  47  68  88 113 150 193 226 260
#     4   9  18  32  50  69  87 112 148 190 233 271
#     4   8  12  18  32  54  75 100 140 182 213 244
#     4   8  14  24  35  50  80 120 147 163 201 262
#
# _framework density 19.253533000000001
#
# number of rings (size 3 to 8) (size 9 to 14) (size 15 to 20)
#    0.000    3.571    0.000    3.000    0.000    7.429 
#    0.000    2.857    0.000    4.286    0.000    4.000 
#    0.000   46.286    0.000   23.143    0.000   18.000 
#
# Total GULP energy -311763.670742 kJ/mol
# GULP energy per Si atom -5567.208406 kJ/mol
# Density = 1.920971 g / cm^3
# Si number density = 19.253533 Si / 1000 Ang^3
#
#
#
# Elastic Constant Matrix: (Units=GPa)
#
#
# Indices 1 2 3 4 5 6 
#
# 1 82.3571 13.9665 77.0243 0.0000 0.0000 0.0000
# 2 13.9665 33.0250 15.8467 0.0000 0.0000 0.0000
# 3 77.0243 15.8467 172.2825 0.0000 0.0000 0.0000
# 4 0.0000 0.0000 0.0000 11.3311 0.0000 0.0000
# 5 0.0000 0.0000 0.0000 0.0000 16.2149 0.0000
# 6 0.0000 0.0000 0.0000 0.0000 0.0000 4.9373
#
#
#
# Elastic Compliance Matrix: (Units=1/GPa)
#
#
# Indices 1 2 3 4 5 6 
#
# 1 0.021542 -0.004696 -0.009199 0.000000 0.000000 0.000000
# 2 -0.004696 0.032702 -0.000908 0.000000 0.000000 0.000000
# 3 -0.009199 -0.000908 0.010001 0.000000 0.000000 0.000000
# 4 0.000000 0.000000 0.000000 0.088253 0.000000 0.000000
# 5 0.000000 0.000000 0.000000 0.000000 0.061672 0.000000
# 6 0.000000 0.000000 0.000000 0.000000 0.000000 0.202540
#
#
# Mechanical properties :
#
#
# Convention : Reuss Voigt Hill
#
# Bulk Modulus (GPa) = 28.87045 55.70441 42.28743
# Shear Modulus (GPa) = 10.92029 18.55178 14.73604
#
# Velocity S-wave (km/s) = 2.38415 3.10748 2.76953
# Velocity P-wave (km/s) = 4.75461 6.47071 5.67787
#
# Compressibility (1/GPa) = 0.03463749
#
# Stress axis : x y z
#
# Youngs Moduli (GPa) = 46.42072 30.57911 99.99265
#
# Poissons Ratio (x) = 0.14361 0.91984
# Poissons Ratio (y) = 0.21800 0.09083
# Poissons Ratio (z) = 0.42703 0.02778
#
# Static dielectric constant tensor:
#      x y z
#    x 1.666920 0.000000 0.000000 
#    y 0.000000 1.770570 0.000000 
#    z 0.000000 0.000000 1.703300 
# 
# From -- ./inp_files/39110.got.cif
#   From: 2010.05.17/outbox.cif.g08.bks.cpg/sg67_20_cif.got.tgz:39110.got - 2010.06.03 18:28:57.
