data_PCOD9502926
_publ_section_title
;
Structure prediction by ZEFSAII (Michael W. Deem and Ramdas Pophale) SiO2 
 PCOD9502926
Probable space group: C M M A
;
_chemical_formula_sum "Si O2"
_cell_formula_units_Z 68
_cell_length_a 15.354243
_cell_length_b 18.156759
_cell_length_c 12.055887
_cell_angle_alpha 90.000000
_cell_angle_beta 90.000000
_cell_angle_gamma 90.000000
_cell_volume 3360.979839
_symmetry_space_group_name_H-M "C M M A"
_symmetry_group_IT_number 67
_symmetry_cell_setting 'orthorhombic'
loop_
_space_group_symop_operation_xyz
x,y,z
-x,1/2-y,z
x,-y,-z
-x,1/2+y,-z
-x,-y,-z
x,1/2+y,-z
-x,y,z
x,1/2-y,z
1/2+x,1/2+y,z
1/2-x,-y,z
1/2+x,1/2-y,-z
1/2-x,y,-z
1/2-x,1/2-y,-z
1/2+x,y,-z
1/2-x,1/2+y,z
1/2+x,-y,z
loop_
_atom_site_type_symbol
_atom_site_label
_atom_site_fract_x
_atom_site_fract_y
_atom_site_fract_z
Si Si1 0.250000 0.000000 0.500000
Si Si2 0.097960 0.037500 0.652911
Si Si3 0.396235 0.169169 0.759171
Si Si4 0.394981 0.022843 0.880254
Si Si5 0.150445 0.836172 0.501339
O O1 0.172331 0.990336 0.594428
O O2 0.101632 0.115329 0.589474
O O3 0.000000 0.006141 0.639215
O O4 0.117171 0.037596 0.783541
O O5 0.500000 0.170966 0.776898
O O6 0.359972 0.250000 0.789651
O O7 0.361633 0.100008 0.828833
O O8 0.383153 0.161040 0.626777
O O9 0.500000 0.031103 0.892004
O O10 0.360207 0.000000 0.000000
O O11 0.152845 0.750000 0.469384
O O12 0.250000 0.867130 0.500000
#
# Coordination Sequence:
#
# PCOD9502926 Si02
#       5
#     4  16  16  16  16
#     4  12  22  36  56  86 120 148 190 244 300 366
#     4  11  22  36  58  86 118 155 194 244 301 352
#     4   9  17  31  54  81 110 150 195 235 288 360
#     4   9  19  36  56  81 116 155 198 245 288 339
#     4  10  20  35  56  84 121 156 190 243 305 360
#
# _framework density 20.232195999999998
#
# number of rings (size 3 to 8) (size 9 to 14) (size 15 to 20)
#    0.000    2.118    1.176    2.471    0.000    3.294 
#    0.000    1.765    0.000    4.235    0.000    4.941 
#    0.000    0.000    0.000    0.000    0.000    0.000 
#
# Total GULP energy -189298.978743 kJ/mol
# GULP energy per Si atom -5567.617022 kJ/mol
# Density = 2.018615 g / cm^3
# Si number density = 20.232196 Si / 1000 Ang^3
#
#
#
# Elastic Constant Matrix: (Units=GPa)
#
#
# Indices 1 2 3 4 5 6 
#
# 1 74.5150 19.9220 20.4577 0.0000 0.0000 0.0000
# 2 19.9220 111.4591 79.2089 0.0000 0.0000 0.0000
# 3 20.4577 79.2089 173.8657 0.0000 0.0000 0.0000
# 4 0.0000 0.0000 0.0000 28.1550 0.0000 0.0000
# 5 0.0000 0.0000 0.0000 0.0000 817.5034 0.0000
# 6 0.0000 0.0000 0.0000 0.0000 0.0000 20.5120
#
#
#
# Elastic Compliance Matrix: (Units=1/GPa)
#
#
# Indices 1 2 3 4 5 6 
#
# 1 0.014161 -0.001992 -0.000759 0.000000 0.000000 0.000000
# 2 -0.001992 0.013547 -0.005938 0.000000 0.000000 0.000000
# 3 -0.000759 -0.005938 0.008546 0.000000 0.000000 0.000000
# 4 0.000000 0.000000 0.000000 0.035518 0.000000 0.000000
# 5 0.000000 0.000000 0.000000 0.000000 0.001223 0.000000
# 6 0.000000 0.000000 0.000000 0.000000 0.000000 0.048752
#
#
# Mechanical properties :
#
#
# Convention : Reuss Voigt Hill
#
# Bulk Modulus (GPa) = 52.97196 66.55744 59.76470
# Shear Modulus (GPa) = 34.38410 189.25084 111.81747
#
# Velocity S-wave (km/s) = 4.12694 9.68207 7.44225
# Velocity P-wave (km/s) = 6.99626 12.56814 10.17118
#
# Compressibility (1/GPa) = 0.01887791
#
# Stress axis : x y z
#
# Youngs Moduli (GPa) = 70.61665 73.81469 117.01611
#
# Poissons Ratio (x) = 0.14703 0.08879
# Poissons Ratio (y) = 0.14066 0.69478
# Poissons Ratio (z) = 0.05358 0.43828
#
# Static dielectric constant tensor:
#      x y z
#    x 1.758720 0.000000 0.000000 
#    y 0.000000 1.668860 0.000000 
#    z 0.000000 0.000000 1.703160 
# 
# From -- ./inp_files/17706.got.cif
#   From: 2010.05.17/outbox.cif.g08.bks.cpg/sg67_9_cif.got.tgz:17706.got - 2010.06.03 18:28:57.
