data_PCOD9502047
_publ_section_title
;
Structure prediction by ZEFSAII (Michael W. Deem and Ramdas Pophale) SiO2 
 PCOD9502047
Probable space group: C M M A
;
_chemical_formula_sum "Si O2"
_cell_formula_units_Z 108
_cell_length_a 31.925332
_cell_length_b 13.400389
_cell_length_c 12.514050
_cell_angle_alpha 90.000000
_cell_angle_beta 90.000000
_cell_angle_gamma 90.000000
_cell_volume 5353.659104
_symmetry_space_group_name_H-M "C M M A"
_symmetry_group_IT_number 67
_symmetry_cell_setting 'orthorhombic'
loop_
_space_group_symop_operation_xyz
x,y,z
-x,1/2-y,z
x,-y,-z
-x,1/2+y,-z
-x,-y,-z
x,1/2+y,-z
-x,y,z
x,1/2-y,z
1/2+x,1/2+y,z
1/2-x,-y,z
1/2+x,1/2-y,-z
1/2-x,y,-z
1/2-x,1/2-y,-z
1/2+x,y,-z
1/2-x,1/2+y,z
1/2+x,-y,z
loop_
_atom_site_type_symbol
_atom_site_label
_atom_site_fract_x
_atom_site_fract_y
_atom_site_fract_z
Si Si1 0.662051 0.973307 0.376548
Si Si2 0.000000 0.874688 0.533079
Si Si3 0.078416 0.365671 0.311589
Si Si4 0.176180 0.367517 0.793325
Si Si5 0.072878 0.089841 0.082564
Si Si6 0.833011 0.864859 0.967770
Si Si7 0.500000 0.250000 0.957984
Si Si8 0.275887 0.367427 0.773757
O O1 0.622393 0.901810 0.358265
O O2 0.702958 0.921273 0.326285
O O3 0.666868 0.000000 0.500000
O O4 0.655402 0.069900 0.301226
O O5 0.042141 0.871260 0.601453
O O6 0.000000 0.750000 0.484838
O O7 0.000000 0.000000 0.500000
O O8 0.080948 0.250000 0.275569
O O9 0.066129 0.430825 0.208144
O O10 0.165894 0.250000 0.784068
O O11 0.164358 0.405783 0.911827
O O12 0.226337 0.379315 0.782339
O O13 0.120525 0.130739 0.079091
O O14 0.036960 0.164834 0.047216
O O15 0.071757 0.000000 0.000000
O O16 0.820032 0.750000 0.985531
O O17 0.799139 0.902339 0.882164
O O18 0.284843 0.250000 0.763315
#
# Coordination Sequence:
#
# PCOD9502047 Si02
#       8
#    16   8  16  16  16  16   4  16
#     4  12  25  40  60  92 130 173 224 279 338 403
#     4  10  23  44  76 106 138 180 240 309 367 423
#     4  11  22  43  72  98 127 176 236 289 342 423
#     4  10  23  40  61  90 129 171 216 276 345 405
#     4  12  23  39  66  98 136 175 219 272 330 412
#     4  10  19  38  64  93 127 163 210 275 334 401
#     4  12  24  40  58  98 136 174 216 260 340 406
#     4  10  21  39  63  92 121 166 225 277 334 403
#
# _framework density 20.173119
#
# number of rings (size 3 to 8) (size 9 to 14) (size 15 to 20)
#    0.000    1.185    2.963    3.333    1.037    4.148 
#    0.000    3.704    3.259    0.000    0.000    0.000 
#    0.000    0.000    0.000    0.000    0.000    0.000 
#
# Total GULP energy -300606.496243 kJ/mol
# GULP energy per Si atom -5566.786967 kJ/mol
# Density = 2.012720 g / cm^3
# Si number density = 20.173119 Si / 1000 Ang^3
#
#
#
# Elastic Constant Matrix: (Units=GPa)
#
#
# Indices 1 2 3 4 5 6 
#
# 1 47.5930 7.7811 6.6987 0.0000 0.0000 0.0000
# 2 7.7811 78.5022 31.7506 0.0000 0.0000 0.0000
# 3 6.6987 31.7506 109.3606 0.0000 0.0000 0.0000
# 4 0.0000 0.0000 0.0000 -3.7784 0.0000 0.0000
# 5 0.0000 0.0000 0.0000 0.0000 19.1756 0.0000
# 6 0.0000 0.0000 0.0000 0.0000 0.0000 34.7702
#
#
#
# Elastic Compliance Matrix: (Units=1/GPa)
#
#
# Indices 1 2 3 4 5 6 
#
# 1 0.021417 -0.001804 -0.000788 0.000000 0.000000 0.000000
# 2 -0.001804 0.014585 -0.004124 0.000000 0.000000 0.000000
# 3 -0.000788 -0.004124 0.010390 0.000000 0.000000 0.000000
# 4 0.000000 0.000000 0.000000 -0.264665 0.000000 0.000000
# 5 0.000000 0.000000 0.000000 0.000000 0.052150 0.000000
# 6 0.000000 0.000000 0.000000 0.000000 0.000000 0.028760
#
#
# Mechanical properties :
#
#
# Convention : Reuss Voigt Hill
#
# Bulk Modulus (GPa) = 30.33998 36.43518 33.38758
# Shear Modulus (GPa) = -44.26996 22.64850 -10.81073
#
# Velocity S-wave (km/s) = -4.68963 3.35432 -2.31746
# Velocity P-wave (km/s) = 3.77506 5.75347 3.07012
#
# Compressibility (1/GPa) = 0.03295981
#
# Stress axis : x y z
#
# Youngs Moduli (GPa) = 46.69108 68.56209 96.24947
#
# Poissons Ratio (x) = 0.12370 0.07585
# Poissons Ratio (y) = 0.08424 0.39694
# Poissons Ratio (z) = 0.03680 0.28275
#
# Static dielectric constant tensor:
#      x y z
#    x 1.673610 0.000000 0.000000 
#    y 0.000000 1.863740 0.000000 
#    z 0.000000 0.000000 1.716990 
# 
# From -- ./inp_files/23874.got.cif
#   From: 2010.05.17/outbox.cif.g08.bks.cpg/sg67_12_cif.got.tgz:23874.got - 2010.06.03 18:28:57.
