data_PCOD9502512
_publ_section_title
;
Structure prediction by ZEFSAII (Michael W. Deem and Ramdas Pophale) SiO2 
 PCOD9502512
Probable space group: C M M A
;
_chemical_formula_sum "Si O2"
_cell_formula_units_Z 80
_cell_length_a 19.572482
_cell_length_b 8.889955
_cell_length_c 26.678226
_cell_angle_alpha 90.000000
_cell_angle_beta 90.000000
_cell_angle_gamma 90.000000
_cell_volume 4641.970886
_symmetry_space_group_name_H-M "C M M A"
_symmetry_group_IT_number 67
_symmetry_cell_setting 'orthorhombic'
loop_
_space_group_symop_operation_xyz
x,y,z
-x,1/2-y,z
x,-y,-z
-x,1/2+y,-z
-x,-y,-z
x,1/2+y,-z
-x,y,z
x,1/2-y,z
1/2+x,1/2+y,z
1/2-x,-y,z
1/2+x,1/2-y,-z
1/2-x,y,-z
1/2-x,1/2-y,-z
1/2+x,y,-z
1/2-x,1/2+y,z
1/2+x,-y,z
loop_
_atom_site_type_symbol
_atom_site_label
_atom_site_fract_x
_atom_site_fract_y
_atom_site_fract_z
Si Si1 0.583160 0.423702 0.948558
Si Si2 0.420943 0.069272 0.155626
Si Si3 0.920937 0.069205 0.447311
Si Si4 0.325239 0.568511 0.751301
Si Si5 0.674773 0.068499 0.645723
O O1 0.500000 0.432236 0.949090
O O2 0.602720 0.250000 0.948003
O O3 0.604530 0.502726 0.897048
O O4 0.607148 0.500000 0.000000
O O5 0.500000 0.021748 0.163134
O O6 0.420424 0.250000 0.151601
O O7 0.374601 0.027340 0.202833
O O8 0.919357 0.250000 0.451437
O O9 0.874322 0.027093 0.400256
O O10 0.000000 0.022994 0.439489
O O11 0.897402 0.000000 0.500000
O O12 0.321172 0.750000 0.747625
O O13 0.250000 0.500000 0.759765
O O14 0.349967 0.499996 0.698508
O O15 0.678793 0.250000 0.649407
O O16 0.750000 0.000000 0.637284
#
# Coordination Sequence:
#
# PCOD9502512 Si02
#       5
#    16  16  16  16  16
#     4   9  16  26  43  68  97 128 160 196 240 287
#     4   9  18  32  49  71  98 126 160 201 241 285
#     4   9  19  35  53  74 100 130 162 197 240 287
#     4  10  20  34  52  72  97 130 164 199 242 289
#     4  10  20  34  52  73  98 127 162 202 240 284
#
# _framework density 17.234058000000001
#
# number of rings (size 3 to 8) (size 9 to 14) (size 15 to 20)
#    0.000    2.600    0.000    3.000    0.000    6.800 
#    0.000    2.000    0.000    0.600    0.000    4.200 
#    0.000    0.000    0.000    0.000    0.000    0.000 
#
# Total GULP energy -223023.816137 kJ/mol
# GULP energy per Si atom -5575.595403 kJ/mol
# Density = 1.719483 g / cm^3
# Si number density = 17.234058 Si / 1000 Ang^3
#
#
#
# Elastic Constant Matrix: (Units=GPa)
#
#
# Indices 1 2 3 4 5 6 
#
# 1 47.6431 30.6978 85.9558 0.0000 0.0000 0.0000
# 2 30.6978 49.5451 66.6598 0.0000 0.0000 0.0000
# 3 85.9558 66.6598 219.1981 0.0000 0.0000 0.0000
# 4 0.0000 0.0000 0.0000 35.0118 0.0000 0.0000
# 5 0.0000 0.0000 0.0000 0.0000 -32.6522 0.0000
# 6 0.0000 0.0000 0.0000 0.0000 0.0000 16.7705
#
#
#
# Elastic Compliance Matrix: (Units=1/GPa)
#
#
# Indices 1 2 3 4 5 6 
#
# 1 0.075603 -0.011772 -0.026067 0.000000 0.000000 0.000000
# 2 -0.011772 0.035994 -0.006330 0.000000 0.000000 0.000000
# 3 -0.026067 -0.006330 0.016709 0.000000 0.000000 0.000000
# 4 0.000000 0.000000 0.000000 0.028562 0.000000 0.000000
# 5 0.000000 0.000000 0.000000 0.000000 -0.030626 0.000000
# 6 0.000000 0.000000 0.000000 0.000000 0.000000 0.059629
#
#
# Mechanical properties :
#
#
# Convention : Reuss Voigt Hill
#
# Bulk Modulus (GPa) = 25.01951 75.89033 50.45492
# Shear Modulus (GPa) = 17.38946 12.69755 15.04350
#
# Velocity S-wave (km/s) = 3.17995 2.71730 2.95768
# Velocity P-wave (km/s) = 5.29450 7.34681 6.40341
#
# Compressibility (1/GPa) = 0.03996880
#
# Stress axis : x y z
#
# Youngs Moduli (GPa) = 13.22693 27.78267 59.84834
#
# Poissons Ratio (x) = 0.32705 1.56007
# Poissons Ratio (y) = 0.15570 0.37883
# Poissons Ratio (z) = 0.34479 0.17586
#
# Static dielectric constant tensor:
#      x y z
#    x 1.573450 0.000000 0.000000 
#    y 0.000000 1.580830 0.000000 
#    z 0.000000 0.000000 1.574750 
# 
# From -- ./inp_files/43321.got.cif
#   From: 2010.05.17/outbox.cif.g08.bks.cpg/sg67_22_cif.got.tgz:43321.got - 2010.06.03 18:28:57.
