data_PCOD9502426
_publ_section_title
;
Structure prediction by ZEFSAII (Michael W. Deem and Ramdas Pophale) SiO2 
 PCOD9502426
Probable space group: C M M A
;
_chemical_formula_sum "Si O2"
_cell_formula_units_Z 116
_cell_length_a 26.404119
_cell_length_b 9.488737
_cell_length_c 24.003480
_cell_angle_alpha 90.000000
_cell_angle_beta 90.000000
_cell_angle_gamma 90.000000
_cell_volume 6013.873667
_symmetry_space_group_name_H-M "C M M A"
_symmetry_group_IT_number 67
_symmetry_cell_setting 'orthorhombic'
loop_
_space_group_symop_operation_xyz
x,y,z
-x,1/2-y,z
x,-y,-z
-x,1/2+y,-z
-x,-y,-z
x,1/2+y,-z
-x,y,z
x,1/2-y,z
1/2+x,1/2+y,z
1/2-x,-y,z
1/2+x,1/2-y,-z
1/2-x,y,-z
1/2-x,1/2-y,-z
1/2+x,y,-z
1/2-x,1/2+y,z
1/2+x,-y,z
loop_
_atom_site_type_symbol
_atom_site_label
_atom_site_fract_x
_atom_site_fract_y
_atom_site_fract_z
Si Si1 0.500000 0.250000 0.177863
Si Si2 0.801818 0.416639 0.775027
Si Si3 0.092908 0.478594 0.827911
Si Si4 0.633800 0.413263 0.550916
Si Si5 0.199055 0.416625 0.337225
Si Si6 0.940174 0.084094 0.054650
Si Si7 0.939544 0.591890 0.386008
Si Si8 0.060869 0.400705 0.284154
O O1 0.545767 0.129761 0.177654
O O2 0.791362 0.250000 0.765164
O O3 0.750000 0.500000 0.792651
O O4 0.850259 0.423898 0.815948
O O5 0.817870 0.499781 0.718397
O O6 0.088482 0.542545 0.889306
O O7 0.082256 0.585411 0.777373
O O8 0.657419 0.500000 0.500000
O O9 0.627802 0.250000 0.536487
O O10 0.664725 0.425414 0.608222
O O11 0.581653 0.490148 0.566834
O O12 0.206275 0.250000 0.325094
O O13 0.250000 0.500000 0.351850
O O14 0.936319 0.250000 0.044285
O O15 0.000000 0.049825 0.063137
O O16 0.923146 0.000000 0.000000
O O17 0.919138 0.750000 0.391628
O O18 0.926326 0.527478 0.325531
O O19 0.000000 0.596390 0.388627
O O20 0.077247 0.250000 0.309399
O O21 0.000000 0.400446 0.280398
#
# Coordination Sequence:
#
# PCOD9502426 Si02
#       8
#     4  16  16  16  16  16  16  16
#     4  12  24  36  60 100 130 166 212 264 332 370
#     4  11  24  40  63  93 124 167 209 254 309 368
#     4  12  23  37  62  89 131 165 209 262 317 379
#     4  11  24  40  59  83 112 146 189 238 296 354
#     4  10  22  41  64  89 116 150 193 244 296 355
#     4  10  22  37  58  87 125 169 215 262 319 379
#     4  10  22  37  56  80 110 149 193 236 289 355
#     4  10  20  33  53  82 118 153 193 242 305 372
#
# _framework density 19.288733000000001
#
# number of rings (size 3 to 8) (size 9 to 14) (size 15 to 20)
#    0.000    1.379    2.069    3.724    1.931    9.103 
#    0.000    1.379    0.000    0.414    0.000    1.931 
#    0.000    0.000    0.000    0.000    0.000    0.000 
#
# Total GULP energy -323108.726308 kJ/mol
# GULP energy per Si atom -5570.840109 kJ/mol
# Density = 1.924483 g / cm^3
# Si number density = 19.288733 Si / 1000 Ang^3
#
#
#
# Elastic Constant Matrix: (Units=GPa)
#
#
# Indices 1 2 3 4 5 6 
#
# 1 99.8548 44.6863 39.9923 0.0000 0.0000 0.0000
# 2 44.6863 147.8650 55.8425 0.0000 0.0000 0.0000
# 3 39.9923 55.8425 108.4117 0.0000 0.0000 0.0000
# 4 0.0000 0.0000 0.0000 -20.5479 0.0000 0.0000
# 5 0.0000 0.0000 0.0000 0.0000 20.1038 0.0000
# 6 0.0000 0.0000 0.0000 0.0000 0.0000 14.3981
#
#
#
# Elastic Compliance Matrix: (Units=1/GPa)
#
#
# Indices 1 2 3 4 5 6 
#
# 1 0.012464 -0.002521 -0.003300 0.000000 0.000000 0.000000
# 2 -0.002521 0.008906 -0.003658 0.000000 0.000000 0.000000
# 3 -0.003300 -0.003658 0.012325 0.000000 0.000000 0.000000
# 4 0.000000 0.000000 0.000000 -0.048667 0.000000 0.000000
# 5 0.000000 0.000000 0.000000 0.000000 0.049742 0.000000
# 6 0.000000 0.000000 0.000000 0.000000 0.000000 0.069453
#
#
# Mechanical properties :
#
#
# Convention : Reuss Voigt Hill
#
# Bulk Modulus (GPa) = 67.84362 70.79708 69.32035
# Shear Modulus (GPa) = 39.03422 17.16482 28.09952
#
# Velocity S-wave (km/s) = 4.50341 2.98634 3.82093
# Velocity P-wave (km/s) = 7.89240 6.97671 7.44864
#
# Compressibility (1/GPa) = 0.01473978
#
# Stress axis : x y z
#
# Youngs Moduli (GPa) = 80.23073 112.28351 81.13403
#
# Poissons Ratio (x) = 0.28303 0.26770
# Poissons Ratio (y) = 0.20224 0.29676
# Poissons Ratio (z) = 0.26472 0.41069
#
# Static dielectric constant tensor:
#      x y z
#    x 1.716880 0.000000 0.000000 
#    y 0.000000 1.689140 0.000000 
#    z 0.000000 0.000000 1.663190 
# 
# From -- ./inp_files/42843.got.cif
#   From: 2010.05.17/outbox.cif.g08.bks.cpg/sg67_22_cif.got.tgz:42843.got - 2010.06.03 18:28:57.
