data_PCOD9502642
_publ_section_title
;
Structure prediction by ZEFSAII (Michael W. Deem and Ramdas Pophale) SiO2 
 PCOD9502642
Probable space group: C M M A
;
_chemical_formula_sum "Si O2"
_cell_formula_units_Z 64
_cell_length_a 18.654337
_cell_length_b 8.738895
_cell_length_c 21.413509
_cell_angle_alpha 90.000000
_cell_angle_beta 90.000000
_cell_angle_gamma 90.000000
_cell_volume 3490.793670
_symmetry_space_group_name_H-M "C M M A"
_symmetry_group_IT_number 67
_symmetry_cell_setting 'orthorhombic'
loop_
_space_group_symop_operation_xyz
x,y,z
-x,1/2-y,z
x,-y,-z
-x,1/2+y,-z
-x,-y,-z
x,1/2+y,-z
-x,y,z
x,1/2-y,z
1/2+x,1/2+y,z
1/2-x,-y,z
1/2+x,1/2-y,-z
1/2-x,y,-z
1/2-x,1/2-y,-z
1/2+x,y,-z
1/2-x,1/2+y,z
1/2+x,-y,z
loop_
_atom_site_type_symbol
_atom_site_label
_atom_site_fract_x
_atom_site_fract_y
_atom_site_fract_z
Si Si1 0.170455 0.567191 0.566716
Si Si2 0.330620 0.066250 0.798709
Si Si3 0.330676 0.432586 0.937333
Si Si4 0.584900 0.068244 0.317957
O O1 0.146214 0.500000 0.500000
O O2 0.174406 0.750000 0.563286
O O3 0.250000 0.500000 0.578141
O O4 0.119840 0.513751 0.622511
O O5 0.327251 0.250000 0.792599
O O6 0.360230 0.030426 0.868469
O O7 0.250000 0.000000 0.793945
O O8 0.378195 0.995634 0.744354
O O9 0.326839 0.250000 0.943344
O O10 0.250000 0.500000 0.935805
O O11 0.365861 0.500000 0.000000
O O12 0.500000 0.041710 0.316185
O O13 0.598049 0.250000 0.322653
#
# Coordination Sequence:
#
# PCOD9502642 Si02
#       4
#    16  16  16  16
#     4  11  22  39  63  88 115 144 178 220 265 316
#     4  10  20  34  54  80 109 142 181 224 271 322
#     4   9  16  26  44  72 104 136 171 216 267 318
#     4  11  24  40  57  79 109 145 184 225 270 320
#
# _framework density 18.333939000000001
#
# number of rings (size 3 to 8) (size 9 to 14) (size 15 to 20)
#    0.000    1.750    0.000    6.750    0.000    5.500 
#    0.000    0.000    0.000    0.750    0.000    0.000 
#    0.000    0.000    0.000    0.000    0.000    0.000 
#
# Total GULP energy -178659.294781 kJ/mol
# GULP energy per Si atom -5583.102962 kJ/mol
# Density = 1.829221 g / cm^3
# Si number density = 18.333939 Si / 1000 Ang^3
#
#
#
# Elastic Constant Matrix: (Units=GPa)
#
#
# Indices 1 2 3 4 5 6 
#
# 1 46.9891 56.7565 75.2942 0.0000 0.0000 0.0000
# 2 56.7565 137.5678 100.3889 0.0000 0.0000 0.0000
# 3 75.2942 100.3889 200.5169 0.0000 0.0000 0.0000
# 4 0.0000 0.0000 0.0000 38.2591 0.0000 0.0000
# 5 0.0000 0.0000 0.0000 0.0000 -10.8042 0.0000
# 6 0.0000 0.0000 0.0000 0.0000 0.0000 20.1747
#
#
#
# Elastic Compliance Matrix: (Units=1/GPa)
#
#
# Indices 1 2 3 4 5 6 
#
# 1 0.068705 -0.014999 -0.018289 0.000000 0.000000 0.000000
# 2 -0.014999 0.014728 -0.001741 0.000000 0.000000 0.000000
# 3 -0.018289 -0.001741 0.012727 0.000000 0.000000 0.000000
# 4 0.000000 0.000000 0.000000 0.026138 0.000000 0.000000
# 5 0.000000 0.000000 0.000000 0.000000 -0.092557 0.000000
# 6 0.000000 0.000000 0.000000 0.000000 0.000000 0.049567
#
#
# Mechanical properties :
#
#
# Convention : Reuss Voigt Hill
#
# Bulk Modulus (GPa) = 38.31457 94.43923 66.37690
# Shear Modulus (GPa) = 31.63193 19.70153 25.66673
#
# Velocity S-wave (km/s) = 4.15820 3.28166 3.74566
# Velocity P-wave (km/s) = 6.63308 8.12290 7.41550
#
# Compressibility (1/GPa) = 0.02609973
#
# Stress axis : x y z
#
# Youngs Moduli (GPa) = 14.55497 67.89690 78.57514
#
# Poissons Ratio (x) = 1.01840 1.43709
# Poissons Ratio (y) = 0.21831 0.13684
# Poissons Ratio (z) = 0.26620 0.11824
#
# Static dielectric constant tensor:
#      x y z
#    x 1.586740 0.000000 0.000000 
#    y 0.000000 1.613410 0.000000 
#    z 0.000000 0.000000 1.663990 
# 
# From -- ./inp_files/36562.got.cif
#   From: 2010.05.17/outbox.cif.g08.bks.cpg/sg67_19_cif.got.tgz:36562.got - 2010.06.03 18:28:57.
