data_PCOD9502112
_publ_section_title
;
Structure prediction by ZEFSAII (Michael W. Deem and Ramdas Pophale) SiO2 
 PCOD9502112
Probable space group: C M M A
;
_chemical_formula_sum "Si O2"
_cell_formula_units_Z 104
_cell_length_a 31.105942
_cell_length_b 9.019308
_cell_length_c 23.292748
_cell_angle_alpha 90.000000
_cell_angle_beta 90.000000
_cell_angle_gamma 90.000000
_cell_volume 6534.875288
_symmetry_space_group_name_H-M "C M M A"
_symmetry_group_IT_number 67
_symmetry_cell_setting 'orthorhombic'
loop_
_space_group_symop_operation_xyz
x,y,z
-x,1/2-y,z
x,-y,-z
-x,1/2+y,-z
-x,-y,-z
x,1/2+y,-z
-x,y,z
x,1/2-y,z
1/2+x,1/2+y,z
1/2-x,-y,z
1/2+x,1/2-y,-z
1/2-x,y,-z
1/2-x,1/2-y,-z
1/2+x,y,-z
1/2-x,1/2+y,z
1/2+x,-y,z
loop_
_atom_site_type_symbol
_atom_site_label
_atom_site_fract_x
_atom_site_fract_y
_atom_site_fract_z
Si Si1 0.379309 0.921949 0.731673
Si Si2 0.823532 0.425949 0.441667
Si Si3 0.705062 0.071780 0.687433
Si Si4 0.449611 0.930230 0.186071
Si Si5 0.500000 0.928473 0.561838
Si Si6 0.592929 0.921304 0.599462
Si Si7 0.447850 0.080962 0.942847
O O1 0.372965 0.750000 0.748592
O O2 0.396736 0.923417 0.666577
O O3 0.334104 0.007852 0.725300
O O4 0.415012 0.999399 0.771305
O O5 0.806288 0.500000 0.500000
O O6 0.820692 0.250000 0.447410
O O7 0.802487 0.468967 0.380295
O O8 0.872796 0.478580 0.433480
O O9 0.705797 0.250000 0.690752
O O10 0.750000 0.000000 0.705180
O O11 0.500000 0.969696 0.197878
O O12 0.447532 0.750000 0.187915
O O13 0.438439 0.979171 0.120728
O O14 0.500000 0.750000 0.558661
O O15 0.544257 0.972624 0.591622
O O16 0.500000 0.000000 0.500000
O O17 0.597462 0.750000 0.579295
O O18 0.500000 0.082588 0.945336
O O19 0.432864 0.250000 0.944838
O O20 0.432272 0.000000 0.000000
#
# Coordination Sequence:
#
# PCOD9502112 Si02
#       7
#    16  16  16  16   8  16  16
#     4  10  20  33  51  72  95 124 160 201 242 285
#     4  10  20  33  50  70  92 115 143 182 230 287
#     4  10  21  37  55  73  95 121 152 191 240 295
#     4   9  18  31  46  68 101 138 171 205 243 282
#     4  10  20  32  44  60  82 110 147 190 231 272
#     4   9  19  33  47  62  86 117 150 192 236 278
#     4   8  14  25  41  62  92 130 169 206 242 277
#
# _framework density 15.914611000000001
#
# number of rings (size 3 to 8) (size 9 to 14) (size 15 to 20)
#    0.000    2.615    0.000    2.769    1.077    5.538 
#    0.000    3.077    0.000    0.000    0.000    0.000 
#    0.000    0.615    0.000    6.462    0.000    3.846 
#
# Total GULP energy -289725.105822 kJ/mol
# GULP energy per Si atom -5571.636650 kJ/mol
# Density = 1.587839 g / cm^3
# Si number density = 15.914611 Si / 1000 Ang^3
#
#
#
# Elastic Constant Matrix: (Units=GPa)
#
#
# Indices 1 2 3 4 5 6 
#
# 1 106.0260 35.8811 36.2262 0.0000 0.0000 0.0000
# 2 35.8811 44.4903 34.5164 0.0000 0.0000 0.0000
# 3 36.2262 34.5164 74.7627 0.0000 0.0000 0.0000
# 4 0.0000 0.0000 0.0000 26.0019 0.0000 0.0000
# 5 0.0000 0.0000 0.0000 0.0000 7.8582 0.0000
# 6 0.0000 0.0000 0.0000 0.0000 0.0000 22.0493
#
#
#
# Elastic Compliance Matrix: (Units=1/GPa)
#
#
# Indices 1 2 3 4 5 6 
#
# 1 0.013224 -0.008871 -0.002312 0.000000 0.000000 0.000000
# 2 -0.008871 0.040972 -0.014617 0.000000 0.000000 0.000000
# 3 -0.002312 -0.014617 0.021244 0.000000 0.000000 0.000000
# 4 0.000000 0.000000 0.000000 0.038459 0.000000 0.000000
# 5 0.000000 0.000000 0.000000 0.000000 0.127255 0.000000
# 6 0.000000 0.000000 0.000000 0.000000 0.000000 0.045353
#
#
# Mechanical properties :
#
#
# Convention : Reuss Voigt Hill
#
# Bulk Modulus (GPa) = 41.94794 48.72515 45.33654
# Shear Modulus (GPa) = 14.44864 19.09225 16.77045
#
# Velocity S-wave (km/s) = 3.01638 3.46738 3.24971
# Velocity P-wave (km/s) = 6.20860 6.83472 6.52917
#
# Compressibility (1/GPa) = 0.02383907
#
# Stress axis : x y z
#
# Youngs Moduli (GPa) = 75.62158 24.40714 47.07137
#
# Poissons Ratio (x) = 0.21652 0.10882
# Poissons Ratio (y) = 0.67086 0.68805
# Poissons Ratio (z) = 0.17483 0.35676
#
# Static dielectric constant tensor:
#      x y z
#    x 1.511100 0.000000 0.000000 
#    y 0.000000 1.547150 0.000000 
#    z 0.000000 0.000000 1.531750 
# 
# From -- ./inp_files/40234.got.cif
#   From: 2010.05.17/outbox.cif.g08.bks.cpg/sg67_21_cif.got.tgz:40234.got - 2010.06.03 18:28:57.
