data_PCOD9502146
_publ_section_title
;
Structure prediction by ZEFSAII (Michael W. Deem and Ramdas Pophale) SiO2 
 PCOD9502146
Probable space group: C M M A
;
_chemical_formula_sum "Si O2"
_cell_formula_units_Z 88
_cell_length_a 10.018189
_cell_length_b 26.347128
_cell_length_c 21.444109
_cell_angle_alpha 90.000000
_cell_angle_beta 90.000000
_cell_angle_gamma 90.000000
_cell_volume 5660.183462
_symmetry_space_group_name_H-M "C M M A"
_symmetry_group_IT_number 67
_symmetry_cell_setting 'orthorhombic'
loop_
_space_group_symop_operation_xyz
x,y,z
-x,1/2-y,z
x,-y,-z
-x,1/2+y,-z
-x,-y,-z
x,1/2+y,-z
-x,y,z
x,1/2-y,z
1/2+x,1/2+y,z
1/2-x,-y,z
1/2+x,1/2-y,-z
1/2-x,y,-z
1/2-x,1/2-y,-z
1/2+x,y,-z
1/2-x,1/2+y,z
1/2+x,-y,z
loop_
_atom_site_type_symbol
_atom_site_label
_atom_site_fract_x
_atom_site_fract_y
_atom_site_fract_z
Si Si1 0.844369 0.811667 0.442537
Si Si2 0.352435 0.193083 0.092963
Si Si3 0.843483 0.352800 0.190743
Si Si4 0.750000 0.387914 0.000000
Si Si5 0.844557 0.810835 0.672789
Si Si6 0.346367 0.452227 0.884333
O O1 0.848645 0.750000 0.445090
O O2 0.750000 0.828337 0.500000
O O3 0.763051 0.824880 0.379772
O O4 0.000000 0.828633 0.444780
O O5 0.500000 0.189822 0.121163
O O6 0.335376 0.250000 0.067632
O O7 0.243931 0.181827 0.145456
O O8 0.340200 0.150366 0.040191
O O9 0.818987 0.339819 0.262596
O O10 0.816825 0.410569 0.169225
O O11 0.000000 0.343330 0.178512
O O12 0.824826 0.422852 0.050127
O O13 0.834318 0.750000 0.683719
O O14 0.000000 0.820138 0.653469
O O15 0.500000 0.468127 0.879373
O O16 0.250000 0.500000 0.881324
#
# Coordination Sequence:
#
# PCOD9502146 Si02
#       6
#    16  16  16   8  16  16
#     4   9  16  25  38  59  89 124 159 190 217 246
#     4  10  20  32  47  68  92 117 147 184 223 264
#     4   9  19  34  49  66  89 119 152 184 224 275
#     4  10  20  34  50  66  88 116 148 180 222 276
#     4   9  16  27  44  64  88 120 154 184 215 254
#     4  10  21  35  51  68  86 110 143 185 232 279
#
# _framework density 15.547199000000001
#
# number of rings (size 3 to 8) (size 9 to 14) (size 15 to 20)
#    0.000    2.545    0.000    2.182    0.000    9.091 
#    0.000    1.818    0.000    0.000    0.000    0.000 
#    0.000    0.727    0.000    8.364    0.000    2.909 
#
# Total GULP energy -245130.941378 kJ/mol
# GULP energy per Si atom -5571.157759 kJ/mol
# Density = 1.551181 g / cm^3
# Si number density = 15.547199 Si / 1000 Ang^3
#
#
#
# Elastic Constant Matrix: (Units=GPa)
#
#
# Indices 1 2 3 4 5 6 
#
# 1 106.6722 54.8527 70.8008 0.0000 0.0000 0.0000
# 2 54.8527 64.8659 38.1023 0.0000 0.0000 0.0000
# 3 70.8008 38.1023 104.3550 0.0000 0.0000 0.0000
# 4 0.0000 0.0000 0.0000 6.3996 0.0000 0.0000
# 5 0.0000 0.0000 0.0000 0.0000 20.7227 0.0000
# 6 0.0000 0.0000 0.0000 0.0000 0.0000 22.3694
#
#
#
# Elastic Compliance Matrix: (Units=1/GPa)
#
#
# Indices 1 2 3 4 5 6 
#
# 1 0.023736 -0.013510 -0.011171 0.000000 0.000000 0.000000
# 2 -0.013510 0.027315 -0.000807 0.000000 0.000000 0.000000
# 3 -0.011171 -0.000807 0.017457 0.000000 0.000000 0.000000
# 4 0.000000 0.000000 0.000000 0.156259 0.000000 0.000000
# 5 0.000000 0.000000 0.000000 0.000000 0.048256 0.000000
# 6 0.000000 0.000000 0.000000 0.000000 0.000000 0.044704
#
#
# Mechanical properties :
#
#
# Convention : Reuss Voigt Hill
#
# Bulk Modulus (GPa) = 57.04245 67.04495 62.04370
# Shear Modulus (GPa) = 13.34941 17.37417 15.36179
#
# Velocity S-wave (km/s) = 2.93343 3.34655 3.14678
# Velocity P-wave (km/s) = 6.94571 7.62559 7.29357
#
# Compressibility (1/GPa) = 0.01753080
#
# Stress axis : x y z
#
# Youngs Moduli (GPa) = 42.12943 36.60954 57.28448
#
# Poissons Ratio (x) = 0.49460 0.63994
# Poissons Ratio (y) = 0.56918 0.04624
# Poissons Ratio (z) = 0.47064 0.02955
#
# Static dielectric constant tensor:
#      x y z
#    x 1.530660 0.000000 0.000000 
#    y 0.000000 1.499880 0.000000 
#    z 0.000000 0.000000 1.512000 
# 
# From -- ./inp_files/37414.got.cif
#   From: 2010.05.17/outbox.cif.g08.bks.cpg/sg67_19_cif.got.tgz:37414.got - 2010.06.03 18:28:57.
