data_PCOD9502407
_publ_section_title
;
Structure prediction by ZEFSAII (Michael W. Deem and Ramdas Pophale) SiO2 
 PCOD9502407
Probable space group: C M M A
;
_chemical_formula_sum "Si O2"
_cell_formula_units_Z 112
_cell_length_a 34.479745
_cell_length_b 30.291778
_cell_length_c 5.159748
_cell_angle_alpha 90.000000
_cell_angle_beta 90.000000
_cell_angle_gamma 90.000000
_cell_volume 5389.113148
_symmetry_space_group_name_H-M "C M M A"
_symmetry_group_IT_number 67
_symmetry_cell_setting 'orthorhombic'
loop_
_space_group_symop_operation_xyz
x,y,z
-x,1/2-y,z
x,-y,-z
-x,1/2+y,-z
-x,-y,-z
x,1/2+y,-z
-x,y,z
x,1/2-y,z
1/2+x,1/2+y,z
1/2-x,-y,z
1/2+x,1/2-y,-z
1/2-x,y,-z
1/2-x,1/2-y,-z
1/2+x,y,-z
1/2-x,1/2+y,z
1/2+x,-y,z
loop_
_atom_site_type_symbol
_atom_site_label
_atom_site_fract_x
_atom_site_fract_y
_atom_site_fract_z
Si Si1 0.860120 0.837340 0.249525
Si Si2 0.775597 0.376787 0.742251
Si Si3 0.890489 0.572335 0.085596
Si Si4 0.044807 0.382357 0.284291
Si Si5 0.460379 0.959204 0.688001
Si Si6 0.098571 0.800960 0.736181
Si Si7 0.188190 0.528214 0.231040
O O1 0.814644 0.847827 0.228553
O O2 0.880254 0.885684 0.265532
O O3 0.872151 0.810049 0.499777
O O4 0.878810 0.814991 0.996857
O O5 0.750000 0.361759 0.500000
O O6 0.788414 0.427676 0.694563
O O7 0.750000 0.374924 0.000000
O O8 0.918689 0.535717 0.195269
O O9 0.849221 0.548380 0.072226
O O10 0.920041 0.593016 0.871877
O O11 0.041081 0.412479 0.539772
O O12 0.061818 0.333221 0.309571
O O13 0.000000 0.380328 0.180847
O O14 0.500000 0.958769 0.853143
O O15 0.463724 0.000000 0.500000
O O16 0.087311 0.750000 0.748014
O O17 0.180979 0.500000 0.500000
O O18 0.207289 0.500000 0.000000
#
# Coordination Sequence:
#
# PCOD9502407 Si02
#       7
#    16  16  16  16  16  16  16
#     4  10  22  41  65  93 125 159 205 249 311 381
#     4  11  23  41  67  93 127 169 207 251 319 387
#     4  10  21  35  57  79 121 164 216 256 312 361
#     4  10  22  38  58  87 125 167 215 272 328 375
#     4  10  20  33  52  80 117 162 211 259 312 360
#     4  11  22  41  68  95 125 164 206 261 321 387
#     4  11  25  38  58  90 125 168 221 270 312 363
#
# _framework density 20.782639
#
# number of rings (size 3 to 8) (size 9 to 14) (size 15 to 20)
#    0.000    1.571    1.429    3.000    4.000    4.286 
#    0.000    2.143    0.000   10.286    0.000    0.000 
#    0.000    0.000    0.000    0.000    0.000    0.000 
#
# Total GULP energy -311883.537830 kJ/mol
# GULP energy per Si atom -5569.348890 kJ/mol
# Density = 2.073534 g / cm^3
# Si number density = 20.782639 Si / 1000 Ang^3
#
#
#
# Elastic Constant Matrix: (Units=GPa)
#
#
# Indices 1 2 3 4 5 6 
#
# 1 146.8652 40.4379 35.1638 0.0000 0.0000 0.0000
# 2 40.4379 128.2129 36.3570 0.0000 0.0000 0.0000
# 3 35.1638 36.3570 86.7095 0.0000 0.0000 0.0000
# 4 0.0000 0.0000 0.0000 -359.1204 0.0000 0.0000
# 5 0.0000 0.0000 0.0000 0.0000 27.8600 0.0000
# 6 0.0000 0.0000 0.0000 0.0000 0.0000 17.5375
#
#
#
# Elastic Compliance Matrix: (Units=1/GPa)
#
#
# Indices 1 2 3 4 5 6 
#
# 1 0.007889 -0.001794 -0.002447 0.000000 0.000000 0.000000
# 2 -0.001794 0.009260 -0.003155 0.000000 0.000000 0.000000
# 3 -0.002447 -0.003155 0.013848 0.000000 0.000000 0.000000
# 4 0.000000 0.000000 0.000000 -0.002785 0.000000 0.000000
# 5 0.000000 0.000000 0.000000 0.000000 0.035894 0.000000
# 6 0.000000 0.000000 0.000000 0.000000 0.000000 0.057021
#
#
# Mechanical properties :
#
#
# Convention : Reuss Voigt Hill
#
# Bulk Modulus (GPa) = 61.71139 65.07834 63.39487
# Shear Modulus (GPa) = 35.38046 -46.08934 -5.35444
#
# Velocity S-wave (km/s) = 4.13050 -4.71434 -1.60686
# Velocity P-wave (km/s) = 7.24612 1.32229 5.20839
#
# Compressibility (1/GPa) = 0.01620446
#
# Stress axis : x y z
#
# Youngs Moduli (GPa) = 126.76114 107.99003 72.21267
#
# Poissons Ratio (x) = 0.19376 0.17670
# Poissons Ratio (y) = 0.22744 0.22784
# Poissons Ratio (z) = 0.31017 0.34072
#
# Static dielectric constant tensor:
#      x y z
#    x 1.761370 0.000000 0.000000 
#    y 0.000000 1.690210 0.000000 
#    z 0.000000 0.000000 1.869610 
# 
# From -- ./inp_files/4926.got.cif
#   From: 2010.05.17/outbox.cif.g08.bks.cpg/sg67_3_cif.got.tgz:4926.got - 2010.06.03 18:28:57.
