data_PCOD9502187
_publ_section_title
;
Structure prediction by ZEFSAII (Michael W. Deem and Ramdas Pophale) SiO2 
 PCOD9502187
Probable space group: C M M A
;
_chemical_formula_sum "Si O2"
_cell_formula_units_Z 116
_cell_length_a 9.888042
_cell_length_b 25.805805
_cell_length_c 25.615089
_cell_angle_alpha 90.000000
_cell_angle_beta 90.000000
_cell_angle_gamma 90.000000
_cell_volume 6536.173666
_symmetry_space_group_name_H-M "C M M A"
_symmetry_group_IT_number 67
_symmetry_cell_setting 'orthorhombic'
loop_
_space_group_symop_operation_xyz
x,y,z
-x,1/2-y,z
x,-y,-z
-x,1/2+y,-z
-x,-y,-z
x,1/2+y,-z
-x,y,z
x,1/2-y,z
1/2+x,1/2+y,z
1/2-x,-y,z
1/2+x,1/2-y,-z
1/2-x,y,-z
1/2-x,1/2-y,-z
1/2+x,y,-z
1/2-x,1/2+y,z
1/2+x,-y,z
loop_
_atom_site_type_symbol
_atom_site_label
_atom_site_fract_x
_atom_site_fract_y
_atom_site_fract_z
Si Si1 0.846891 0.954811 0.919790
Si Si2 0.157147 0.813074 0.548920
Si Si3 0.000000 0.250000 0.238521
Si Si4 0.655312 0.952846 0.203135
Si Si5 0.655445 0.812659 0.645947
Si Si6 0.156421 0.660966 0.952895
Si Si7 0.270395 0.341858 0.756633
Si Si8 0.854445 0.688518 0.137892
O O1 0.814853 0.942750 0.858649
O O2 0.840813 0.901489 0.951097
O O3 0.000000 0.974286 0.921624
O O4 0.750000 0.000000 0.937956
O O5 0.153640 0.750000 0.547940
O O6 0.250000 0.829391 0.500000
O O7 0.236717 0.827983 0.601551
O O8 0.000000 0.830167 0.546872
O O9 0.117864 0.296208 0.239290
O O10 0.500000 0.969570 0.206214
O O11 0.672306 0.899477 0.234343
O O12 0.750000 0.000000 0.220431
O O13 0.500000 0.825495 0.631844
O O14 0.662369 0.750000 0.650590
O O15 0.697384 0.836039 0.701276
O O16 0.228648 0.676920 0.899385
O O17 0.000000 0.677768 0.956066
O O18 0.250000 0.680253 0.000000
O O19 0.169186 0.333775 0.804960
O O20 0.860081 0.750000 0.142639
O O21 0.000000 0.669911 0.115981
#
# Coordination Sequence:
#
# PCOD9502187 Si02
#       8
#    16  16   4  16  16  16  16  16
#     4   9  19  36  57  80 105 134 170 215 268 325
#     4   9  17  28  45  67 100 146 196 240 288 345
#     4  12  24  32  62  92 120 156 188 248 292 342
#     4  10  21  37  57  82 113 148 190 230 278 345
#     4  10  20  32  48  74 112 149 191 240 290 343
#     4  11  24  41  60  81 106 136 174 220 272 334
#     4  12  22  36  59  86 119 150 193 233 294 344
#     4  11  24  40  59  82 109 140 179 223 278 341
#
# _framework density 17.747385000000001
#
# number of rings (size 3 to 8) (size 9 to 14) (size 15 to 20)
#    0.000    1.655    3.448    1.241    1.931    5.793 
#    0.000    1.379    0.000    0.000    0.000    0.000 
#    0.000    0.552    0.000    3.862    0.000    1.241 
#
# Total GULP energy -323093.423959 kJ/mol
# GULP energy per Si atom -5570.576275 kJ/mol
# Density = 1.770699 g / cm^3
# Si number density = 17.747385 Si / 1000 Ang^3
#
#
#
# Elastic Constant Matrix: (Units=GPa)
#
#
# Indices 1 2 3 4 5 6 
#
# 1 142.4588 34.1528 63.0453 0.0000 0.0000 0.0000
# 2 34.1528 66.2683 7.2019 0.0000 0.0000 0.0000
# 3 63.0453 7.2019 107.0184 0.0000 0.0000 0.0000
# 4 0.0000 0.0000 0.0000 10.6346 0.0000 0.0000
# 5 0.0000 0.0000 0.0000 0.0000 20.3654 0.0000
# 6 0.0000 0.0000 0.0000 0.0000 0.0000 20.6783
#
#
#
# Elastic Compliance Matrix: (Units=1/GPa)
#
#
# Indices 1 2 3 4 5 6 
#
# 1 0.010903 -0.004957 -0.006089 0.000000 0.000000 0.000000
# 2 -0.004957 0.017455 0.001746 0.000000 0.000000 0.000000
# 3 -0.006089 0.001746 0.012814 0.000000 0.000000 0.000000
# 4 0.000000 0.000000 0.000000 0.094032 0.000000 0.000000
# 5 0.000000 0.000000 0.000000 0.000000 0.049103 0.000000
# 6 0.000000 0.000000 0.000000 0.000000 0.000000 0.048360
#
#
# Mechanical properties :
#
#
# Convention : Reuss Voigt Hill
#
# Bulk Modulus (GPa) = 44.30603 58.28285 51.29444
# Shear Modulus (GPa) = 19.32048 24.42535 21.87292
#
# Velocity S-wave (km/s) = 3.30303 3.71385 3.51445
# Velocity P-wave (km/s) = 6.29013 7.16252 6.74045
#
# Compressibility (1/GPa) = 0.02257029
#
# Stress axis : x y z
#
# Youngs Moduli (GPa) = 91.71905 57.28924 78.03975
#
# Poissons Ratio (x) = 0.28400 0.47521
# Poissons Ratio (y) = 0.45467 -0.13623
# Poissons Ratio (z) = 0.55851 -0.10001
#
# Static dielectric constant tensor:
#      x y z
#    x 1.636550 0.000000 0.000000 
#    y 0.000000 1.585930 0.000000 
#    z 0.000000 0.000000 1.612920 
# 
# From -- ./inp_files/41083.got.cif
#   From: 2010.05.17/outbox.cif.g08.bks.cpg/sg67_21_cif.got.tgz:41083.got - 2010.06.03 18:28:57.
