data_PCOD9502298
_publ_section_title
;
Structure prediction by ZEFSAII (Michael W. Deem and Ramdas Pophale) SiO2 
 PCOD9502298
Probable space group: C M M A
;
_chemical_formula_sum "Si O2"
_cell_formula_units_Z 64
_cell_length_a 24.016309
_cell_length_b 17.157763
_cell_length_c 8.386797
_cell_angle_alpha 90.000000
_cell_angle_beta 90.000000
_cell_angle_gamma 90.000000
_cell_volume 3455.915050
_symmetry_space_group_name_H-M "C M M A"
_symmetry_group_IT_number 67
_symmetry_cell_setting 'orthorhombic'
loop_
_space_group_symop_operation_xyz
x,y,z
-x,1/2-y,z
x,-y,-z
-x,1/2+y,-z
-x,-y,-z
x,1/2+y,-z
-x,y,z
x,1/2-y,z
1/2+x,1/2+y,z
1/2-x,-y,z
1/2+x,1/2-y,-z
1/2-x,y,-z
1/2-x,1/2-y,-z
1/2+x,y,-z
1/2-x,1/2+y,z
1/2+x,-y,z
loop_
_atom_site_type_symbol
_atom_site_label
_atom_site_fract_x
_atom_site_fract_y
_atom_site_fract_z
Si Si1 0.258111 0.841158 0.185530
Si Si2 0.939265 0.492744 0.305816
Si Si3 0.665172 0.572693 0.618712
Si Si4 0.879811 0.661156 0.673932
O O1 0.243464 0.750000 0.215434
O O2 0.218727 0.895503 0.291506
O O3 0.322705 0.849990 0.228803
O O4 0.250000 0.857837 0.000000
O O5 0.941687 0.500000 0.500000
O O6 0.884550 0.543089 0.265396
O O7 0.924538 0.402921 0.273604
O O8 0.000000 0.515475 0.243114
O O9 0.678114 0.500000 0.500000
O O10 0.638889 0.639396 0.506175
O O11 0.898431 0.750000 0.686392
#
# Coordination Sequence:
#
# PCOD9502298 Si02
#       4
#    16  16  16  16
#     4  10  20  33  50  73 101 130 161 200 244 291
#     4   8  16  30  46  67  95 123 156 201 245 284
#     4   9  18  31  49  71  99 130 160 197 243 291
#     4   9  17  29  48  72  95 124 162 200 241 289
#
# _framework density 18.518975000000001
#
# number of rings (size 3 to 8) (size 9 to 14) (size 15 to 20)
#    0.000    3.500    0.000    1.500    0.000   10.500 
#    0.000   10.000    0.000    5.250    0.000    3.500 
#    0.000    0.000    0.000    0.000    0.000    0.000 
#
# Total GULP energy -178266.909778 kJ/mol
# GULP energy per Si atom -5570.840931 kJ/mol
# Density = 1.847682 g / cm^3
# Si number density = 18.518975 Si / 1000 Ang^3
#
#
#
# Elastic Constant Matrix: (Units=GPa)
#
#
# Indices 1 2 3 4 5 6 
#
# 1 68.6349 34.8964 22.1929 0.0000 0.0000 0.0000
# 2 34.8964 61.1518 27.3259 0.0000 0.0000 0.0000
# 3 22.1929 27.3259 22.6002 0.0000 0.0000 0.0000
# 4 0.0000 0.0000 0.0000 14.6848 0.0000 0.0000
# 5 0.0000 0.0000 0.0000 0.0000 0.0857 0.0000
# 6 0.0000 0.0000 0.0000 0.0000 0.0000 17.3383
#
#
#
# Elastic Compliance Matrix: (Units=1/GPa)
#
#
# Indices 1 2 3 4 5 6 
#
# 1 0.022457 -0.006441 -0.014265 0.000000 0.000000 0.000000
# 2 -0.006441 0.037419 -0.038919 0.000000 0.000000 0.000000
# 3 -0.014265 -0.038919 0.105312 0.000000 0.000000 0.000000
# 4 0.000000 0.000000 0.000000 0.068098 0.000000 0.000000
# 5 0.000000 0.000000 0.000000 0.000000 11.662072 0.000000
# 6 0.000000 0.000000 0.000000 0.000000 0.000000 0.057676
#
#
# Mechanical properties :
#
#
# Convention : Reuss Voigt Hill
#
# Bulk Modulus (GPa) = 21.76783 35.69082 28.72932
# Shear Modulus (GPa) = 0.41365 10.95321 5.68343
#
# Velocity S-wave (km/s) = 0.47313 2.43463 1.75375
# Velocity P-wave (km/s) = 3.47539 5.21705 4.43260
#
# Compressibility (1/GPa) = 0.04593936
#
# Stress axis : x y z
#
# Youngs Moduli (GPa) = 44.52935 26.72416 9.49564
#
# Poissons Ratio (x) = 0.17213 0.13545
# Poissons Ratio (y) = 0.28682 0.36956
# Poissons Ratio (z) = 0.63519 1.04007
#
# Static dielectric constant tensor:
#      x y z
#    x 1.668560 0.000000 0.000000 
#    y 0.000000 1.666150 0.000000 
#    z 0.000000 0.000000 1.640550 
# 
# From -- ./inp_files/9626.got.cif
#   From: 2010.05.17/outbox.cif.g08.bks.cpg/sg67_5_cif.got.tgz:9626.got - 2010.06.03 18:28:57.
