data_PCOD9502690
_publ_section_title
;
Structure prediction by ZEFSAII (Michael W. Deem and Ramdas Pophale) SiO2 
 PCOD9502690
Probable space group: C M M A
;
_chemical_formula_sum "Si O2"
_cell_formula_units_Z 80
_cell_length_a 9.721326
_cell_length_b 26.750630
_cell_length_c 16.642619
_cell_angle_alpha 90.000000
_cell_angle_beta 90.000000
_cell_angle_gamma 90.000000
_cell_volume 4327.939615
_symmetry_space_group_name_H-M "C M M A"
_symmetry_group_IT_number 67
_symmetry_cell_setting 'orthorhombic'
loop_
_space_group_symop_operation_xyz
x,y,z
-x,1/2-y,z
x,-y,-z
-x,1/2+y,-z
-x,-y,-z
x,1/2+y,-z
-x,y,z
x,1/2-y,z
1/2+x,1/2+y,z
1/2-x,-y,z
1/2+x,1/2-y,-z
1/2-x,y,-z
1/2-x,1/2-y,-z
1/2+x,y,-z
1/2-x,1/2+y,z
1/2+x,-y,z
loop_
_atom_site_type_symbol
_atom_site_label
_atom_site_fract_x
_atom_site_fract_y
_atom_site_fract_z
Si Si1 0.657539 0.808736 0.363056
Si Si2 0.000000 0.191270 0.881263
Si Si3 0.000000 0.311111 0.065964
Si Si4 0.164110 0.050649 0.746204
Si Si5 0.223801 0.848529 0.812026
Si Si6 0.660939 0.897551 0.572948
O O1 0.500000 0.817572 0.390708
O O2 0.688084 0.750000 0.371944
O O3 0.664361 0.824335 0.269239
O O4 0.766622 0.844537 0.406458
O O5 0.869615 0.175086 0.831256
O O6 0.000000 0.250000 0.889625
O O7 0.000000 0.172533 0.973149
O O8 0.128655 0.333747 0.113619
O O9 0.000000 0.250000 0.071403
O O10 0.243374 0.093377 0.796762
O O11 0.170290 0.069655 0.653803
O O12 0.000000 0.046774 0.766722
O O13 0.250000 0.000000 0.754577
O O14 0.500000 0.892147 0.552921
O O15 0.750000 0.919562 0.500000
#
# Coordination Sequence:
#
# PCOD9502690 Si02
#       6
#    16   8   8  16  16  16
#     4  10  20  34  55  82 115 160 204 239 284 344
#     4  11  22  36  59  89 128 163 193 241 293 353
#     4  11  22  36  59  93 124 163 201 233 293 355
#     4  10  23  41  64  89 112 152 202 247 302 350
#     4  11  21  38  58  88 123 157 202 249 292 351
#     4  10  22  39  58  86 119 150 191 240 295 352
#
# _framework density 18.484546000000002
#
# number of rings (size 3 to 8) (size 9 to 14) (size 15 to 20)
#    0.000    1.600    2.000    3.000    2.800    4.400 
#    0.000    2.000    0.000    3.600    0.000    0.000 
#    0.000    0.000    0.000    0.000    0.000    0.000 
#
# Total GULP energy -223285.648766 kJ/mol
# GULP energy per Si atom -5582.141219 kJ/mol
# Density = 1.844247 g / cm^3
# Si number density = 18.484546 Si / 1000 Ang^3
#
#
#
# Elastic Constant Matrix: (Units=GPa)
#
#
# Indices 1 2 3 4 5 6 
#
# 1 119.7603 37.3845 5.6507 0.0000 0.0000 0.0000
# 2 37.3845 90.6768 16.3207 0.0000 0.0000 0.0000
# 3 5.6507 16.3207 40.6635 0.0000 0.0000 0.0000
# 4 0.0000 0.0000 0.0000 6.2249 0.0000 0.0000
# 5 0.0000 0.0000 0.0000 0.0000 32.6207 0.0000
# 6 0.0000 0.0000 0.0000 0.0000 0.0000 28.9309
#
#
#
# Elastic Compliance Matrix: (Units=1/GPa)
#
#
# Indices 1 2 3 4 5 6 
#
# 1 0.009586 -0.004002 0.000274 0.000000 0.000000 0.000000
# 2 -0.004002 0.013557 -0.004885 0.000000 0.000000 0.000000
# 3 0.000274 -0.004885 0.026515 0.000000 0.000000 0.000000
# 4 0.000000 0.000000 0.000000 0.160644 0.000000 0.000000
# 5 0.000000 0.000000 0.000000 0.000000 0.030655 0.000000
# 6 0.000000 0.000000 0.000000 0.000000 0.000000 0.034565
#
#
# Mechanical properties :
#
#
# Convention : Reuss Voigt Hill
#
# Bulk Modulus (GPa) = 30.83330 41.09026 35.96178
# Shear Modulus (GPa) = 16.47125 26.33829 21.40477
#
# Velocity S-wave (km/s) = 2.98834 3.77886 3.40661
# Velocity P-wave (km/s) = 5.35011 6.42786 5.91359
#
# Compressibility (1/GPa) = 0.03243247
#
# Stress axis : x y z
#
# Youngs Moduli (GPa) = 104.31645 73.76139 37.71487
#
# Poissons Ratio (x) = 0.29516 -0.01033
# Poissons Ratio (y) = 0.41743 0.18425
# Poissons Ratio (z) = -0.02858 0.36034
#
# Static dielectric constant tensor:
#      x y z
#    x 1.758850 0.000000 0.000000 
#    y 0.000000 1.627140 0.000000 
#    z 0.000000 0.000000 1.651630 
# 
# From -- ./inp_files/32187.got.cif
#   From: 2010.05.17/outbox.cif.g08.bks.cpg/sg67_17_cif.got.tgz:32187.got - 2010.06.03 18:28:57.
