data_PCOD9502885
_publ_section_title
;
Structure prediction by ZEFSAII (Michael W. Deem and Ramdas Pophale) SiO2 
 PCOD9502885
Probable space group: C M M A
;
_chemical_formula_sum "Si O2"
_cell_formula_units_Z 80
_cell_length_a 8.842481
_cell_length_b 18.705860
_cell_length_c 26.809447
_cell_angle_alpha 90.000000
_cell_angle_beta 90.000000
_cell_angle_gamma 90.000000
_cell_volume 4434.449064
_symmetry_space_group_name_H-M "C M M A"
_symmetry_group_IT_number 67
_symmetry_cell_setting 'orthorhombic'
loop_
_space_group_symop_operation_xyz
x,y,z
-x,1/2-y,z
x,-y,-z
-x,1/2+y,-z
-x,-y,-z
x,1/2+y,-z
-x,y,z
x,1/2-y,z
1/2+x,1/2+y,z
1/2-x,-y,z
1/2+x,1/2-y,-z
1/2-x,y,-z
1/2-x,1/2-y,-z
1/2+x,y,-z
1/2-x,1/2+y,z
1/2+x,-y,z
loop_
_atom_site_type_symbol
_atom_site_label
_atom_site_fract_x
_atom_site_fract_y
_atom_site_fract_z
Si Si1 0.674690 0.837085 0.948937
Si Si2 0.184622 0.667271 0.160187
Si Si3 0.681606 0.421217 0.257245
Si Si4 0.181435 0.921317 0.552621
Si Si5 0.818234 0.666626 0.651487
O O1 0.500000 0.858129 0.950670
O O2 0.680619 0.750000 0.948781
O O3 0.738470 0.857844 0.894630
O O4 0.750000 0.862159 0.000000
O O5 0.230704 0.750000 0.168136
O O6 0.230484 0.618049 0.206091
O O7 0.000000 0.667526 0.158266
O O8 0.500000 0.425008 0.257760
O O9 0.750000 0.500000 0.260067
O O10 0.737949 0.375043 0.303940
O O11 0.250000 0.896180 0.500000
O O12 0.218858 0.869969 0.598643
O O13 0.000000 0.926810 0.548355
O O14 0.250000 0.000000 0.562105
O O15 0.777200 0.750000 0.651748
O O16 0.000000 0.660998 0.657982
#
# Coordination Sequence:
#
# PCOD9502885 Si02
#       5
#    16  16  16  16  16
#     4   8  13  23  41  66  95 124 156 198 247 298
#     4   8  15  29  49  72  98 129 166 208 253 303
#     4  11  22  36  55  77 102 136 177 216 259 313
#     4  10  20  35  56  80 108 142 177 213 253 300
#     4  10  22  39  57  80 110 139 170 215 266 309
#
# _framework density 18.040572000000001
#
# number of rings (size 3 to 8) (size 9 to 14) (size 15 to 20)
#    0.000    2.600    0.000    4.200    0.000    4.800 
#    0.000    2.000    0.000    5.400    0.000    4.200 
#    0.000    0.000    0.000    0.000    0.000    0.000 
#
# Total GULP energy -223060.616974 kJ/mol
# GULP energy per Si atom -5576.515424 kJ/mol
# Density = 1.799951 g / cm^3
# Si number density = 18.040572 Si / 1000 Ang^3
#
#
#
# Elastic Constant Matrix: (Units=GPa)
#
#
# Indices 1 2 3 4 5 6 
#
# 1 37.7987 39.8039 64.3360 0.0000 0.0000 0.0000
# 2 39.8039 104.1181 105.9028 0.0000 0.0000 0.0000
# 3 64.3360 105.9028 211.6803 0.0000 0.0000 0.0000
# 4 0.0000 0.0000 0.0000 -170.1513 0.0000 0.0000
# 5 0.0000 0.0000 0.0000 0.0000 24.5605 0.0000
# 6 0.0000 0.0000 0.0000 0.0000 0.0000 8.2037
#
#
#
# Elastic Compliance Matrix: (Units=1/GPa)
#
#
# Indices 1 2 3 4 5 6 
#
# 1 0.058444 -0.008706 -0.013407 0.000000 0.000000 0.000000
# 2 -0.008706 0.020853 -0.007787 0.000000 0.000000 0.000000
# 3 -0.013407 -0.007787 0.012695 0.000000 0.000000 0.000000
# 4 0.000000 0.000000 0.000000 -0.005877 0.000000 0.000000
# 5 0.000000 0.000000 0.000000 0.000000 0.040716 0.000000
# 6 0.000000 0.000000 0.000000 0.000000 0.000000 0.121896
#
#
# Mechanical properties :
#
#
# Convention : Reuss Voigt Hill
#
# Bulk Modulus (GPa) = 31.06382 85.96474 58.51428
# Shear Modulus (GPa) = 15.66142 -17.90712 -1.12285
#
# Velocity S-wave (km/s) = 2.94959 -3.15398 -0.78978
# Velocity P-wave (km/s) = 5.37181 5.87289 5.62793
#
# Compressibility (1/GPa) = 0.03219179
#
# Stress axis : x y z
#
# Youngs Moduli (GPa) = 17.11049 47.95548 78.77328
#
# Poissons Ratio (x) = 0.41748 1.05615
# Poissons Ratio (y) = 0.14896 0.61338
# Poissons Ratio (z) = 0.22941 0.37341
#
# Static dielectric constant tensor:
#      x y z
#    x 1.610580 0.000000 0.000000 
#    y 0.000000 1.591180 0.000000 
#    z 0.000000 0.000000 1.632150 
# 
# From -- ./inp_files/43293.got.cif
#   From: 2010.05.17/outbox.cif.g08.bks.cpg/sg67_22_cif.got.tgz:43293.got - 2010.06.03 18:28:57.
