data_PCOD9502755
_publ_section_title
;
Structure prediction by ZEFSAII (Michael W. Deem and Ramdas Pophale) SiO2 
 PCOD9502755
Probable space group: C M M A
;
_chemical_formula_sum "Si O2"
_cell_formula_units_Z 80
_cell_length_a 17.030289
_cell_length_b 27.827711
_cell_length_c 7.793052
_cell_angle_alpha 90.000000
_cell_angle_beta 90.000000
_cell_angle_gamma 90.000000
_cell_volume 3693.236138
_symmetry_space_group_name_H-M "C M M A"
_symmetry_group_IT_number 67
_symmetry_cell_setting 'orthorhombic'
loop_
_space_group_symop_operation_xyz
x,y,z
-x,1/2-y,z
x,-y,-z
-x,1/2+y,-z
-x,-y,-z
x,1/2+y,-z
-x,y,z
x,1/2-y,z
1/2+x,1/2+y,z
1/2-x,-y,z
1/2+x,1/2-y,-z
1/2-x,y,-z
1/2-x,1/2-y,-z
1/2+x,y,-z
1/2-x,1/2+y,z
1/2+x,-y,z
loop_
_atom_site_type_symbol
_atom_site_label
_atom_site_fract_x
_atom_site_fract_y
_atom_site_fract_z
Si Si1 0.087722 0.156742 0.008388
Si Si2 0.588114 0.550858 0.090248
Si Si3 0.303771 0.804249 0.719990
Si Si4 0.838663 0.550253 0.565648
Si Si5 0.358329 0.655343 0.389957
O O1 0.098459 0.099186 0.981087
O O2 0.094710 0.164294 0.214409
O O3 0.000000 0.170430 0.954354
O O4 0.151558 0.183593 0.894467
O O5 0.500000 0.556296 0.169785
O O6 0.655779 0.548815 0.230012
O O7 0.588285 0.500000 0.000000
O O8 0.272583 0.750000 0.725378
O O9 0.360198 0.809859 0.553601
O O10 0.231423 0.839956 0.681588
O O11 0.875092 0.500000 0.500000
O O12 0.750000 0.551606 0.500000
O O13 0.875977 0.602458 0.532535
#
# Coordination Sequence:
#
# PCOD9502755 Si02
#       5
#    16  16  16  16  16
#     4  10  23  40  60  90 123 156 201 252 305 362
#     4   9  20  38  59  85 120 164 201 237 299 371
#     4  11  23  40  65  90 115 160 210 251 301 363
#     4  10  20  34  57  89 122 153 197 249 305 352
#     4  10  21  41  62  85 125 159 201 251 303 368
#
# _framework density 21.661218999999999
#
# number of rings (size 3 to 8) (size 9 to 14) (size 15 to 20)
#    0.000    2.000    2.000    1.800    2.800    4.000 
#    0.000    4.000    0.000    0.000    0.000    0.000 
#    0.000    0.000    0.000    0.000    0.000    0.000 
#
# Total GULP energy -222905.907482 kJ/mol
# GULP energy per Si atom -5572.647687 kJ/mol
# Density = 2.161192 g / cm^3
# Si number density = 21.661219 Si / 1000 Ang^3
#
#
#
# Elastic Constant Matrix: (Units=GPa)
#
#
# Indices 1 2 3 4 5 6 
#
# 1 47.5739 11.1248 24.0943 0.0000 0.0000 0.0000
# 2 11.1248 85.2248 13.3780 0.0000 0.0000 0.0000
# 3 24.0943 13.3780 57.0917 0.0000 0.0000 0.0000
# 4 0.0000 0.0000 0.0000 31.4743 0.0000 0.0000
# 5 0.0000 0.0000 0.0000 0.0000 9.7978 0.0000
# 6 0.0000 0.0000 0.0000 0.0000 0.0000 8.6756
#
#
#
# Elastic Compliance Matrix: (Units=1/GPa)
#
#
# Indices 1 2 3 4 5 6 
#
# 1 0.026998 -0.001802 -0.010972 0.000000 0.000000 0.000000
# 2 -0.001802 0.012302 -0.002122 0.000000 0.000000 0.000000
# 3 -0.010972 -0.002122 0.022643 0.000000 0.000000 0.000000
# 4 0.000000 0.000000 0.000000 0.031772 0.000000 0.000000
# 5 0.000000 0.000000 0.000000 0.000000 0.102064 0.000000
# 6 0.000000 0.000000 0.000000 0.000000 0.000000 0.115266
#
#
# Mechanical properties :
#
#
# Convention : Reuss Voigt Hill
#
# Bulk Modulus (GPa) = 31.10252 31.89828 31.50040
# Shear Modulus (GPa) = 14.22259 19.40911 16.81585
#
# Velocity S-wave (km/s) = 2.56519 2.99662 2.78926
# Velocity P-wave (km/s) = 4.81283 5.17020 4.99471
#
# Compressibility (1/GPa) = 0.03215174
#
# Stress axis : x y z
#
# Youngs Moduli (GPa) = 37.03983 81.28749 44.16316
#
# Poissons Ratio (x) = 0.14647 0.48454
# Poissons Ratio (y) = 0.06674 0.09372
# Poissons Ratio (z) = 0.40639 0.17251
#
# Static dielectric constant tensor:
#      x y z
#    x 1.967640 0.000000 0.000000 
#    y 0.000000 1.860940 0.000000 
#    z 0.000000 0.000000 1.802110 
# 
# From -- ./inp_files/9899.got.cif
#   From: 2010.05.17/outbox.cif.g08.bks.cpg/sg67_5_cif.got.tgz:9899.got - 2010.06.03 18:28:57.
