data_PCOD9502273
_publ_section_title
;
Structure prediction by ZEFSAII (Michael W. Deem and Ramdas Pophale) SiO2 
 PCOD9502273
Probable space group: C M M A
;
_chemical_formula_sum "Si O2"
_cell_formula_units_Z 80
_cell_length_a 18.508482
_cell_length_b 9.514698
_cell_length_c 26.767370
_cell_angle_alpha 90.000000
_cell_angle_beta 90.000000
_cell_angle_gamma 90.000000
_cell_volume 4713.803898
_symmetry_space_group_name_H-M "C M M A"
_symmetry_group_IT_number 67
_symmetry_cell_setting 'orthorhombic'
loop_
_space_group_symop_operation_xyz
x,y,z
-x,1/2-y,z
x,-y,-z
-x,1/2+y,-z
-x,-y,-z
x,1/2+y,-z
-x,y,z
x,1/2-y,z
1/2+x,1/2+y,z
1/2-x,-y,z
1/2+x,1/2-y,-z
1/2-x,y,-z
1/2-x,1/2-y,-z
1/2+x,y,-z
1/2-x,1/2+y,z
1/2+x,-y,z
loop_
_atom_site_type_symbol
_atom_site_label
_atom_site_fract_x
_atom_site_fract_y
_atom_site_fract_z
Si Si1 0.583200 0.421187 0.842207
Si Si2 0.175314 0.081341 0.254066
Si Si3 0.411858 0.587908 0.047710
Si Si4 0.411878 0.411882 0.451656
Si Si5 0.085977 0.914958 0.645682
O O1 0.500000 0.466426 0.834941
O O2 0.582081 0.250000 0.843656
O O3 0.632229 0.462858 0.795792
O O4 0.609423 0.466595 0.897274
O O5 0.186612 0.250000 0.251485
O O6 0.127593 0.053769 0.303287
O O7 0.250000 0.000000 0.257361
O O8 0.500000 0.586165 0.048198
O O9 0.389586 0.750000 0.042577
O O10 0.387382 0.500000 0.000000
O O11 0.388129 0.500000 0.500000
O O12 0.500000 0.412321 0.452240
O O13 0.388442 0.250000 0.453655
O O14 0.390238 0.488927 0.400545
O O15 0.096805 0.750000 0.633171
O O16 0.000000 0.934698 0.653365
#
# Coordination Sequence:
#
# PCOD9502273 Si02
#       5
#    16  16  16  16  16
#     4   8  14  27  48  70  90 118 157 193 224 267
#     4  10  20  33  49  68  92 122 155 192 233 276
#     4   8  13  22  39  64  91 115 142 181 227 271
#     4   9  16  26  43  69  99 126 151 184 227 272
#     4   9  17  30  49  71  93 120 156 193 226 266
#
# _framework density 16.971432
#
# number of rings (size 3 to 8) (size 9 to 14) (size 15 to 20)
#    0.000    3.200    0.000    2.400    0.000    5.600 
#    0.000    1.000    0.000    4.200    0.000    8.400 
#    0.000    0.000    0.000    0.000    0.000    0.000 
#
# Total GULP energy -222773.619484 kJ/mol
# GULP energy per Si atom -5569.340487 kJ/mol
# Density = 1.693280 g / cm^3
# Si number density = 16.971432 Si / 1000 Ang^3
#
#
#
# Elastic Constant Matrix: (Units=GPa)
#
#
# Indices 1 2 3 4 5 6 
#
# 1 38.7454 34.8533 56.0460 0.0000 0.0000 0.0000
# 2 34.8533 69.4070 91.2326 0.0000 0.0000 0.0000
# 3 56.0460 91.2326 196.4452 0.0000 0.0000 0.0000
# 4 0.0000 0.0000 0.0000 28.4457 0.0000 0.0000
# 5 0.0000 0.0000 0.0000 0.0000 -3.9618 0.0000
# 6 0.0000 0.0000 0.0000 0.0000 0.0000 18.3172
#
#
#
# Elastic Compliance Matrix: (Units=1/GPa)
#
#
# Indices 1 2 3 4 5 6 
#
# 1 0.050314 -0.016422 -0.006728 0.000000 0.000000 0.000000
# 2 -0.016422 0.042346 -0.014981 0.000000 0.000000 0.000000
# 3 -0.006728 -0.014981 0.013968 0.000000 0.000000 0.000000
# 4 0.000000 0.000000 0.000000 0.035155 0.000000 0.000000
# 5 0.000000 0.000000 0.000000 0.000000 -0.252413 0.000000
# 6 0.000000 0.000000 0.000000 0.000000 0.000000 0.054594
#
#
# Mechanical properties :
#
#
# Convention : Reuss Voigt Hill
#
# Bulk Modulus (GPa) = 32.93196 74.31792 53.62494
# Shear Modulus (GPa) = 164.76315 16.72460 90.74388
#
# Velocity S-wave (km/s) = 9.86374 3.14260 7.32016
# Velocity P-wave (km/s) = 12.21356 7.55334 10.15441
#
# Compressibility (1/GPa) = 0.03036564
#
# Stress axis : x y z
#
# Youngs Moduli (GPa) = 19.87521 23.61484 71.59472
#
# Poissons Ratio (x) = 0.38780 0.48169
# Poissons Ratio (y) = 0.32639 1.07257
# Poissons Ratio (z) = 0.13372 0.35378
#
# Static dielectric constant tensor:
#      x y z
#    x 1.543520 0.000000 0.000000 
#    y 0.000000 1.568900 0.000000 
#    z 0.000000 0.000000 1.582380 
# 
# From -- ./inp_files/43204.got.cif
#   From: 2010.05.17/outbox.cif.g08.bks.cpg/sg67_22_cif.got.tgz:43204.got - 2010.06.03 18:28:57.
