data_PCOD9502852
_publ_section_title
;
Structure prediction by ZEFSAII (Michael W. Deem and Ramdas Pophale) SiO2 
 PCOD9502852
Probable space group: C M M A
;
_chemical_formula_sum "Si O2"
_cell_formula_units_Z 96
_cell_length_a 15.591074
_cell_length_b 26.786100
_cell_length_c 10.172057
_cell_angle_alpha 90.000000
_cell_angle_beta 90.000000
_cell_angle_gamma 90.000000
_cell_volume 4248.095817
_symmetry_space_group_name_H-M "C M M A"
_symmetry_group_IT_number 67
_symmetry_cell_setting 'orthorhombic'
loop_
_space_group_symop_operation_xyz
x,y,z
-x,1/2-y,z
x,-y,-z
-x,1/2+y,-z
-x,-y,-z
x,1/2+y,-z
-x,y,z
x,1/2-y,z
1/2+x,1/2+y,z
1/2-x,-y,z
1/2+x,1/2-y,-z
1/2-x,y,-z
1/2-x,1/2-y,-z
1/2+x,y,-z
1/2-x,1/2+y,z
1/2+x,-y,z
loop_
_atom_site_type_symbol
_atom_site_label
_atom_site_fract_x
_atom_site_fract_y
_atom_site_fract_z
Si Si1 0.349482 0.855552 0.532635
Si Si2 0.099990 0.029563 0.136171
Si Si3 0.371492 0.693115 0.271318
Si Si4 0.596465 0.368545 0.973845
Si Si5 0.899478 0.036081 0.624933
Si Si6 0.331747 0.193769 0.208816
O O1 0.250000 0.845937 0.500000
O O2 0.393667 0.842319 0.394614
O O3 0.141908 0.911695 0.415100
O O4 0.123715 0.820407 0.346504
O O5 0.137306 0.083748 0.100735
O O6 0.000000 0.038638 0.175831
O O7 0.136936 0.994563 0.250666
O O8 0.101417 0.000000 0.000000
O O9 0.394192 0.750000 0.303381
O O10 0.410122 0.673543 0.136644
O O11 0.269449 0.692255 0.239743
O O12 0.500000 0.383253 0.018176
O O13 0.645860 0.346308 0.097587
O O14 0.000000 0.047029 0.652287
O O15 0.894238 0.000000 0.500000
O O16 0.354216 0.250000 0.165949
#
# Coordination Sequence:
#
# PCOD9502852 Si02
#       6
#    16  16  16  16  16  16
#     4  10  21  37  59  85 111 143 190 241 284 331
#     4   9  18  33  53  77 106 141 178 217 267 325
#     4  10  21  38  58  80 112 152 188 227 284 348
#     4  11  22  36  57  85 114 146 190 239 281 330
#     4  10  20  35  55  79 110 148 185 222 273 336
#     4  10  21  38  59  82 111 149 190 232 283 343
#
# _framework density 22.598358999999999
#
# number of rings (size 3 to 8) (size 9 to 14) (size 15 to 20)
#    0.000    2.000    0.000    3.500    0.000    9.000 
#    0.000    0.000    0.000   11.000    0.000    0.000 
#    0.000    0.000    0.000    0.000    0.000    0.000 
#
# Total GULP energy -268135.895513 kJ/mol
# GULP energy per Si atom -5586.164490 kJ/mol
# Density = 2.254692 g / cm^3
# Si number density = 22.598359 Si / 1000 Ang^3
#
#
#
# Elastic Constant Matrix: (Units=GPa)
#
#
# Indices 1 2 3 4 5 6 
#
# 1 24.5691 2.4985 19.9278 0.0000 0.0000 0.0000
# 2 2.4985 109.5704 53.9184 0.0000 0.0000 0.0000
# 3 19.9278 53.9184 146.1859 0.0000 0.0000 0.0000
# 4 0.0000 0.0000 0.0000 51.0302 0.0000 0.0000
# 5 0.0000 0.0000 0.0000 0.0000 70.7875 0.0000
# 6 0.0000 0.0000 0.0000 0.0000 0.0000 -171.9554
#
#
#
# Elastic Compliance Matrix: (Units=1/GPa)
#
#
# Indices 1 2 3 4 5 6 
#
# 1 0.046317 0.002506 -0.007238 0.000000 0.000000 0.000000
# 2 0.002506 0.011286 -0.004504 0.000000 0.000000 0.000000
# 3 -0.007238 -0.004504 0.009489 0.000000 0.000000 0.000000
# 4 0.000000 0.000000 0.000000 0.019596 0.000000 0.000000
# 5 0.000000 0.000000 0.000000 0.000000 0.014127 0.000000
# 6 0.000000 0.000000 0.000000 0.000000 0.000000 -0.005815
#
#
# Mechanical properties :
#
#
# Convention : Reuss Voigt Hill
#
# Bulk Modulus (GPa) = 20.56822 48.11274 34.34048
# Shear Modulus (GPa) = 38.55674 3.57118 21.06396
#
# Velocity S-wave (km/s) = 4.13507 1.25846 3.05635
# Velocity P-wave (km/s) = 5.64976 4.84233 5.26156
#
# Compressibility (1/GPa) = 0.04861869
#
# Stress axis : x y z
#
# Youngs Moduli (GPa) = 21.59012 88.60632 105.38983
#
# Poissons Ratio (x) = -0.22201 0.76282
# Poissons Ratio (y) = -0.05410 0.47469
# Poissons Ratio (z) = 0.15627 0.39910
#
# Static dielectric constant tensor:
#      x y z
#    x 1.896220 0.000000 0.000000 
#    y 0.000000 1.830780 0.000000 
#    z 0.000000 0.000000 1.757630 
# 
# From -- ./inp_files/19842.got.cif
#   From: 2010.05.17/outbox.cif.g08.bks.cpg/sg67_10_cif.got.tgz:19842.got - 2010.06.03 18:28:57.
