data_PCOD9502239
_publ_section_title
;
Structure prediction by ZEFSAII (Michael W. Deem and Ramdas Pophale) SiO2 
 PCOD9502239
Probable space group: C M M A
;
_chemical_formula_sum "Si O2"
_cell_formula_units_Z 104
_cell_length_a 16.501108
_cell_length_b 22.389950
_cell_length_c 13.990169
_cell_angle_alpha 90.000000
_cell_angle_beta 90.000000
_cell_angle_gamma 90.000000
_cell_volume 5168.793612
_symmetry_space_group_name_H-M "C M M A"
_symmetry_group_IT_number 67
_symmetry_cell_setting 'orthorhombic'
loop_
_space_group_symop_operation_xyz
x,y,z
-x,1/2-y,z
x,-y,-z
-x,1/2+y,-z
-x,-y,-z
x,1/2+y,-z
-x,y,z
x,1/2-y,z
1/2+x,1/2+y,z
1/2-x,-y,z
1/2+x,1/2-y,-z
1/2-x,y,-z
1/2-x,1/2-y,-z
1/2+x,y,-z
1/2-x,1/2+y,z
1/2+x,-y,z
loop_
_atom_site_type_symbol
_atom_site_label
_atom_site_fract_x
_atom_site_fract_y
_atom_site_fract_z
Si Si1 0.811513 0.449787 0.796893
Si Si2 0.759714 0.250000 0.692257
Si Si3 0.790022 0.750000 0.893624
Si Si4 0.906256 0.545229 0.687136
Si Si5 0.835301 0.121684 0.151720
Si Si6 0.674400 0.350996 0.569667
Si Si7 0.091979 0.750000 0.449186
Si Si8 0.089015 0.069356 0.974833
O O1 0.750000 0.500000 0.839944
O O2 0.852404 0.485846 0.709082
O O3 0.749145 0.395048 0.795153
O O4 0.882447 0.429619 0.866214
O O5 0.773445 0.250000 0.805425
O O6 0.708840 0.307051 0.652629
O O7 0.843799 0.250000 0.636076
O O8 0.841753 0.808565 0.868606
O O9 0.750000 0.750000 0.000000
O O10 0.900009 0.585851 0.783903
O O11 0.866228 0.588900 0.609024
O O12 0.000000 0.531242 0.667615
O O13 0.844458 0.096027 0.045097
O O14 0.750000 0.364218 0.500000
O O15 0.612237 0.308700 0.512132
O O16 0.000000 0.750000 0.417895
O O17 0.000000 0.096807 0.988955
O O18 0.083616 0.000000 0.000000
#
# Coordination Sequence:
#
# PCOD9502239 Si02
#       8
#    16   8   8  16  16  16   8  16
#     4  10  20  32  53  81 113 156 208 250 290 360
#     4   9  18  35  55  88 121 160 216 255 293 366
#     4  12  23  39  61  85 118 170 212 256 300 364
#     4  11  20  33  58  95 127 152 191 252 318 366
#     4  11  23  37  56  85 119 162 213 255 308 366
#     4   9  18  34  57  91 126 160 201 255 315 387
#     4   9  17  32  60  91 122 162 211 263 311 369
#     4  11  19  31  51  79 113 152 201 256 301 344
#
# _framework density 20.120749
#
# number of rings (size 3 to 8) (size 9 to 14) (size 15 to 20)
#    0.000    1.692    4.615    3.692    0.000    0.000 
#    0.000    2.308    0.000    9.692    0.000   12.923 
#    0.000    0.000    0.000    0.000    0.000    0.000 
#
# Total GULP energy -289613.523469 kJ/mol
# GULP energy per Si atom -5569.490836 kJ/mol
# Density = 2.007495 g / cm^3
# Si number density = 20.120749 Si / 1000 Ang^3
#
#
#
# Elastic Constant Matrix: (Units=GPa)
#
#
# Indices 1 2 3 4 5 6 
#
# 1 103.2355 22.2871 12.4050 0.0000 0.0000 0.0000
# 2 22.2871 88.3094 10.8935 0.0000 0.0000 0.0000
# 3 12.4050 10.8935 74.9797 0.0000 0.0000 0.0000
# 4 0.0000 0.0000 0.0000 26.8090 0.0000 0.0000
# 5 0.0000 0.0000 0.0000 0.0000 21.4189 0.0000
# 6 0.0000 0.0000 0.0000 0.0000 0.0000 8.8895
#
#
#
# Elastic Compliance Matrix: (Units=1/GPa)
#
#
# Indices 1 2 3 4 5 6 
#
# 1 0.010379 -0.002452 -0.001361 0.000000 0.000000 0.000000
# 2 -0.002452 0.012110 -0.001354 0.000000 0.000000 0.000000
# 3 -0.001361 -0.001354 0.013759 0.000000 0.000000 0.000000
# 4 0.000000 0.000000 0.000000 0.037301 0.000000 0.000000
# 5 0.000000 0.000000 0.000000 0.000000 0.046688 0.000000
# 6 0.000000 0.000000 0.000000 0.000000 0.000000 0.112493
#
#
# Mechanical properties :
#
#
# Convention : Reuss Voigt Hill
#
# Bulk Modulus (GPa) = 38.58773 39.74398 39.16585
# Shear Modulus (GPa) = 19.86492 26.15275 23.00883
#
# Velocity S-wave (km/s) = 3.14552 3.60917 3.38529
# Velocity P-wave (km/s) = 5.69316 6.09621 5.89813
#
# Compressibility (1/GPa) = 0.02591498
#
# Stress axis : x y z
#
# Youngs Moduli (GPa) = 96.34467 82.57948 72.68074
#
# Poissons Ratio (x) = 0.20245 0.09892
# Poissons Ratio (y) = 0.23620 0.09839
# Poissons Ratio (z) = 0.13113 0.11179
#
# Static dielectric constant tensor:
#      x y z
#    x 1.709730 0.000000 0.000000 
#    y 0.000000 1.763180 0.000000 
#    z 0.000000 0.000000 1.762920 
# 
# From -- ./inp_files/28671.got.cif
#   From: 2010.05.17/outbox.cif.g08.bks.cpg/sg67_15_cif.got.tgz:28671.got - 2010.06.03 18:28:57.
