data_PCOD9502635
_publ_section_title
;
Structure prediction by ZEFSAII (Michael W. Deem and Ramdas Pophale) SiO2 
 PCOD9502635
Probable space group: C M M A
;
_chemical_formula_sum "Si O2"
_cell_formula_units_Z 80
_cell_length_a 9.511403
_cell_length_b 14.533888
_cell_length_c 25.379686
_cell_angle_alpha 90.000000
_cell_angle_beta 90.000000
_cell_angle_gamma 90.000000
_cell_volume 3508.428555
_symmetry_space_group_name_H-M "C M M A"
_symmetry_group_IT_number 67
_symmetry_cell_setting 'orthorhombic'
loop_
_space_group_symop_operation_xyz
x,y,z
-x,1/2-y,z
x,-y,-z
-x,1/2+y,-z
-x,-y,-z
x,1/2+y,-z
-x,y,z
x,1/2-y,z
1/2+x,1/2+y,z
1/2-x,-y,z
1/2+x,1/2-y,-z
1/2-x,y,-z
1/2-x,1/2-y,-z
1/2+x,y,-z
1/2-x,1/2+y,z
1/2+x,-y,z
loop_
_atom_site_type_symbol
_atom_site_label
_atom_site_fract_x
_atom_site_fract_y
_atom_site_fract_z
Si Si1 0.500000 0.637157 0.533470
Si Si2 0.169228 0.099376 0.166436
Si Si3 0.500000 0.636787 0.412298
Si Si4 0.669599 0.598896 0.049341
Si Si5 0.289813 0.858852 0.621251
Si Si6 0.339012 0.406952 0.261411
O O1 0.500000 0.750000 0.531114
O O2 0.500000 0.607839 0.473194
O O3 0.628464 0.606238 0.570061
O O4 0.186965 0.140409 0.107847
O O5 0.248529 0.144379 0.216194
O O6 0.000000 0.092330 0.174881
O O7 0.250000 0.000000 0.163905
O O8 0.500000 0.750000 0.411689
O O9 0.634549 0.602140 0.381526
O O10 0.500000 0.589982 0.040265
O O11 0.750000 0.500000 0.052798
O O12 0.750000 0.644392 0.000000
O O13 0.283645 0.750000 0.611551
O O14 0.346344 0.867733 0.679844
O O15 0.250000 0.500000 0.268758
O O16 0.000000 0.580579 0.243332
#
# Coordination Sequence:
#
# PCOD9502635 Si02
#       6
#     8  16   8  16  16  16
#     4   9  16  32  53  77 103 123 156 199 242 292
#     4   9  17  28  42  61  88 122 162 199 235 286
#     4   9  18  30  53  81 101 125 154 197 248 290
#     4   9  15  22  35  56  82 115 151 194 238 277
#     4  10  20  34  54  79 101 125 161 202 244 288
#     4  11  22  34  51  70  97 135 167 202 243 289
#
# _framework density 22.802232
#
# number of rings (size 3 to 8) (size 9 to 14) (size 15 to 20)
#    0.000    2.400    1.000    4.200    2.800    4.800 
#    0.000    0.000    0.000    3.600    0.000    0.000 
#    0.000    0.800    0.000    1.600    0.000    6.600 
#
# Total GULP energy -222762.237491 kJ/mol
# GULP energy per Si atom -5569.055937 kJ/mol
# Density = 2.275033 g / cm^3
# Si number density = 22.802232 Si / 1000 Ang^3
#
#
#
# Elastic Constant Matrix: (Units=GPa)
#
#
# Indices 1 2 3 4 5 6 
#
# 1 207.1031 8.3990 79.7544 0.0000 0.0000 0.0000
# 2 8.3990 51.7165 -2.5386 0.0000 0.0000 0.0000
# 3 79.7544 -2.5386 186.2573 0.0000 0.0000 0.0000
# 4 0.0000 0.0000 0.0000 180.2899 0.0000 0.0000
# 5 0.0000 0.0000 0.0000 0.0000 46.9091 0.0000
# 6 0.0000 0.0000 0.0000 0.0000 0.0000 -5.6009
#
#
#
# Elastic Compliance Matrix: (Units=1/GPa)
#
#
# Indices 1 2 3 4 5 6 
#
# 1 0.005841 -0.001072 -0.002516 0.000000 0.000000 0.000000
# 2 -0.001072 0.019546 0.000725 0.000000 0.000000 0.000000
# 3 -0.002516 0.000725 0.006456 0.000000 0.000000 0.000000
# 4 0.000000 0.000000 0.000000 0.005547 0.000000 0.000000
# 5 0.000000 0.000000 0.000000 0.000000 0.021318 0.000000
# 6 0.000000 0.000000 0.000000 0.000000 0.000000 -0.178542
#
#
# Mechanical properties :
#
#
# Convention : Reuss Voigt Hill
#
# Bulk Modulus (GPa) = 38.28744 68.47849 53.38296
# Shear Modulus (GPa) = -47.43640 68.28376 10.42368
#
# Velocity S-wave (km/s) = -4.56602 5.47824 2.14039
# Velocity P-wave (km/s) = 3.31218 8.37326 5.43787
#
# Compressibility (1/GPa) = 0.02611823
#
# Stress axis : x y z
#
# Youngs Moduli (GPa) = 171.21155 51.16164 154.89556
#
# Poissons Ratio (x) = 0.05485 0.38965
# Poissons Ratio (y) = 0.18355 -0.11237
# Poissons Ratio (z) = 0.43070 -0.03711
#
# Static dielectric constant tensor:
#      x y z
#    x 1.809020 0.000000 0.000000 
#    y 0.000000 1.921630 0.000000 
#    z 0.000000 0.000000 1.876600 
# 
# From -- ./inp_files/43357.got.cif
#   From: 2010.05.17/outbox.cif.g08.bks.cpg/sg67_22_cif.got.tgz:43357.got - 2010.06.03 18:28:57.
