data_PCOD9502520
_publ_section_title
;
Structure prediction by ZEFSAII (Michael W. Deem and Ramdas Pophale) SiO2 
 PCOD9502520
Probable space group: C M M A
;
_chemical_formula_sum "Si O2"
_cell_formula_units_Z 116
_cell_length_a 21.277360
_cell_length_b 9.679021
_cell_length_c 31.174165
_cell_angle_alpha 90.000000
_cell_angle_beta 90.000000
_cell_angle_gamma 90.000000
_cell_volume 6420.132681
_symmetry_space_group_name_H-M "C M M A"
_symmetry_group_IT_number 67
_symmetry_cell_setting 'orthorhombic'
loop_
_space_group_symop_operation_xyz
x,y,z
-x,1/2-y,z
x,-y,-z
-x,1/2+y,-z
-x,-y,-z
x,1/2+y,-z
-x,y,z
x,1/2-y,z
1/2+x,1/2+y,z
1/2-x,-y,z
1/2+x,1/2-y,-z
1/2-x,y,-z
1/2-x,1/2-y,-z
1/2+x,y,-z
1/2-x,1/2+y,z
1/2+x,-y,z
loop_
_atom_site_type_symbol
_atom_site_label
_atom_site_fract_x
_atom_site_fract_y
_atom_site_fract_z
Si Si1 0.575936 0.407842 0.193698
Si Si2 0.665111 0.897916 0.424469
Si Si3 0.428978 0.093478 0.457587
Si Si4 0.804983 0.095275 0.327506
Si Si5 0.188381 0.082082 0.044833
Si Si6 0.072771 0.084831 0.277314
Si Si7 0.250000 0.500000 0.500000
Si Si8 0.073769 0.912351 0.889483
O O1 0.500000 0.401021 0.194073
O O2 0.599762 0.250000 0.194617
O O3 0.592154 0.497401 0.235573
O O4 0.591657 0.490742 0.150500
O O5 0.630971 0.750000 0.426902
O O6 0.699532 0.900016 0.379165
O O7 0.618813 0.026226 0.425142
O O8 0.708249 0.912879 0.466631
O O9 0.500000 0.089557 0.441445
O O10 0.412250 0.250000 0.468037
O O11 0.426150 0.000000 0.500000
O O12 0.795059 0.250000 0.311326
O O13 0.875541 0.055329 0.313748
O O14 0.750000 0.000000 0.310369
O O15 0.199472 0.250000 0.039841
O O16 0.125674 0.067436 0.073543
O O17 0.250000 0.000000 0.063106
O O18 0.178000 0.000000 0.000000
O O19 0.074091 0.250000 0.268383
O O20 0.000000 0.051384 0.288661
O O21 0.075999 0.750000 0.876900
O O22 0.000000 0.940432 0.901489
#
# Coordination Sequence:
#
# PCOD9502520 Si02
#       8
#    16  16  16  16  16  16   4  16
#     4   9  17  30  52  83 113 139 173 221 276 328
#     4  11  23  37  57  82 107 138 176 216 257 307
#     4  10  21  36  54  77 104 132 163 202 249 297
#     4  10  22  39  57  82 111 143 177 216 266 314
#     4  10  20  34  52  73 103 146 192 237 284 336
#     4   9  18  35  59  82 107 142 182 219 261 321
#     4  12  22  36  58  82 106 136 178 218 258 304
#     4   9  18  33  53  78 108 142 182 228 279 333
#
# _framework density 18.068162000000001
#
# number of rings (size 3 to 8) (size 9 to 14) (size 15 to 20)
#    0.000    2.207    1.379    1.862    0.000    6.069 
#    0.000    2.069    0.000    1.655    0.000    0.000 
#    0.000    0.000    0.000    0.000    0.000    0.000 
#
# Total GULP energy -322925.461426 kJ/mol
# GULP energy per Si atom -5567.680369 kJ/mol
# Density = 1.802704 g / cm^3
# Si number density = 18.068162 Si / 1000 Ang^3
#
#
#
# Elastic Constant Matrix: (Units=GPa)
#
#
# Indices 1 2 3 4 5 6 
#
# 1 92.1969 56.4784 40.0026 0.0000 0.0000 0.0000
# 2 56.4784 110.9290 35.8457 0.0000 0.0000 0.0000
# 3 40.0026 35.8457 71.2119 0.0000 0.0000 0.0000
# 4 0.0000 0.0000 0.0000 20.9598 0.0000 0.0000
# 5 0.0000 0.0000 0.0000 0.0000 12.6539 0.0000
# 6 0.0000 0.0000 0.0000 0.0000 0.0000 32.2192
#
#
#
# Elastic Compliance Matrix: (Units=1/GPa)
#
#
# Indices 1 2 3 4 5 6 
#
# 1 0.018016 -0.007049 -0.006572 0.000000 0.000000 0.000000
# 2 -0.007049 0.013524 -0.002848 0.000000 0.000000 0.000000
# 3 -0.006572 -0.002848 0.019168 0.000000 0.000000 0.000000
# 4 0.000000 0.000000 0.000000 0.047710 0.000000 0.000000
# 5 0.000000 0.000000 0.000000 0.000000 0.079027 0.000000
# 6 0.000000 0.000000 0.000000 0.000000 0.000000 0.031037
#
#
# Mechanical properties :
#
#
# Convention : Reuss Voigt Hill
#
# Bulk Modulus (GPa) = 56.27438 59.88793 58.08115
# Shear Modulus (GPa) = 20.21482 22.63399 21.42440
#
# Velocity S-wave (km/s) = 3.34849 3.54319 3.44721
# Velocity P-wave (km/s) = 6.79434 7.06799 6.93251
#
# Compressibility (1/GPa) = 0.01777008
#
# Stress axis : x y z
#
# Youngs Moduli (GPa) = 55.50646 73.94316 52.17057
#
# Poissons Ratio (x) = 0.52122 0.34287
# Poissons Ratio (y) = 0.39126 0.14857
# Poissons Ratio (z) = 0.36479 0.21058
#
# Static dielectric constant tensor:
#      x y z
#    x 1.645870 0.000000 0.000000 
#    y 0.000000 1.647960 0.000000 
#    z 0.000000 0.000000 1.608880 
# 
# From -- ./inp_files/46011.got.cif
#   From: 2010.05.17/outbox.cif.g08.bks.cpg/sg67_24_cif.got.tgz:46011.got - 2010.06.03 18:28:57.
