data_PCOD9502370
_publ_section_title
;
Structure prediction by ZEFSAII (Michael W. Deem and Ramdas Pophale) SiO2 
 PCOD9502370
Probable space group: C M M A
;
_chemical_formula_sum "Si O2"
_cell_formula_units_Z 100
_cell_length_a 8.937857
_cell_length_b 19.434574
_cell_length_c 31.333197
_cell_angle_alpha 90.000000
_cell_angle_beta 90.000000
_cell_angle_gamma 90.000000
_cell_volume 5442.684207
_symmetry_space_group_name_H-M "C M M A"
_symmetry_group_IT_number 67
_symmetry_cell_setting 'orthorhombic'
loop_
_space_group_symop_operation_xyz
x,y,z
-x,1/2-y,z
x,-y,-z
-x,1/2+y,-z
-x,-y,-z
x,1/2+y,-z
-x,y,z
x,1/2-y,z
1/2+x,1/2+y,z
1/2-x,-y,z
1/2+x,1/2-y,-z
1/2-x,y,-z
1/2-x,1/2-y,-z
1/2+x,y,-z
1/2-x,1/2+y,z
1/2+x,-y,z
loop_
_atom_site_type_symbol
_atom_site_label
_atom_site_fract_x
_atom_site_fract_y
_atom_site_fract_z
Si Si1 0.177134 0.071299 0.868396
Si Si2 0.317913 0.171184 0.703511
Si Si3 0.500000 0.750000 0.043728
Si Si4 0.664594 0.106398 0.956667
Si Si5 0.319944 0.329494 0.545646
Si Si6 0.324383 0.667580 0.199832
Si Si7 0.818686 0.075573 0.374775
O O1 0.242018 0.087140 0.915165
O O2 0.229476 0.129963 0.835790
O O3 0.000000 0.065954 0.869682
O O4 0.250000 0.000000 0.853491
O O5 0.500000 0.172733 0.703231
O O6 0.268959 0.250000 0.695136
O O7 0.275341 0.150982 0.751713
O O8 0.270443 0.118642 0.667003
O O9 0.627418 0.811908 0.044016
O O10 0.500000 0.072101 0.954807
O O11 0.750000 0.089252 0.000000
O O12 0.500000 0.331751 0.542319
O O13 0.278379 0.250000 0.555554
O O14 0.250000 0.347618 0.500000
O O15 0.274840 0.380605 0.583413
O O16 0.500000 0.648860 0.194744
O O17 0.315219 0.750000 0.195418
O O18 0.000000 0.071162 0.374253
O O19 0.750000 0.000000 0.375311
#
# Coordination Sequence:
#
# PCOD9502370 Si02
#       7
#    16  16   4  16  16  16  16
#     4  12  26  42  59  83 115 155 194 232 278 332
#     4   8  15  32  58  83 105 137 181 224 267 320
#     4   8  22  36  66  90 126 148 184 232 282 324
#     4  10  21  39  61  91 119 152 186 228 276 329
#     4   9  18  33  53  75 100 135 179 226 270 319
#     4   9  19  37  62  88 114 144 181 228 280 333
#     4  10  20  33  51  77 108 141 179 220 269 322
#
# _framework density 18.373287999999999
#
# number of rings (size 3 to 8) (size 9 to 14) (size 15 to 20)
#    0.480    1.920    0.000    3.600    1.120    4.160 
#    0.000    5.600    0.000    2.400    0.000    0.000 
#    0.000    0.000    0.000    0.000    0.000    0.000 
#
# Total GULP energy -278415.272132 kJ/mol
# GULP energy per Si atom -5568.305443 kJ/mol
# Density = 1.833147 g / cm^3
# Si number density = 18.373288 Si / 1000 Ang^3
#
#
#
# Elastic Constant Matrix: (Units=GPa)
#
#
# Indices 1 2 3 4 5 6 
#
# 1 80.8557 38.3803 60.2890 0.0000 0.0000 0.0000
# 2 38.3803 72.3322 75.1147 0.0000 0.0000 0.0000
# 3 60.2890 75.1147 150.3478 0.0000 0.0000 0.0000
# 4 0.0000 0.0000 0.0000 -89.5885 0.0000 0.0000
# 5 0.0000 0.0000 0.0000 0.0000 17.2362 0.0000
# 6 0.0000 0.0000 0.0000 0.0000 0.0000 29.8952
#
#
#
# Elastic Compliance Matrix: (Units=1/GPa)
#
#
# Indices 1 2 3 4 5 6 
#
# 1 0.018275 -0.004337 -0.005161 0.000000 0.000000 0.000000
# 2 -0.004337 0.029761 -0.013130 0.000000 0.000000 0.000000
# 3 -0.005161 -0.013130 0.015281 0.000000 0.000000 0.000000
# 4 0.000000 0.000000 0.000000 -0.011162 0.000000 0.000000
# 5 0.000000 0.000000 0.000000 0.000000 0.058018 0.000000
# 6 0.000000 0.000000 0.000000 0.000000 0.000000 0.033450
#
#
# Mechanical properties :
#
#
# Convention : Reuss Voigt Hill
#
# Bulk Modulus (GPa) = 55.36931 72.34484 63.85708
# Shear Modulus (GPa) = 25.65435 0.15867 12.90651
#
# Velocity S-wave (km/s) = 3.74074 0.29419 2.65327
# Velocity P-wave (km/s) = 6.98990 6.29094 6.64961
#
# Compressibility (1/GPa) = 0.01806055
#
# Stress axis : x y z
#
# Youngs Moduli (GPa) = 54.71989 33.60084 65.44202
#
# Poissons Ratio (x) = 0.14572 0.33778
# Poissons Ratio (y) = 0.23731 0.85924
# Poissons Ratio (z) = 0.28243 0.44117
#
# Static dielectric constant tensor:
#      x y z
#    x 1.627670 0.000000 0.000000 
#    y 0.000000 1.627130 0.000000 
#    z 0.000000 0.000000 1.620380 
# 
# From -- ./inp_files/43607.got.cif
#   From: 2010.05.17/outbox.cif.g08.bks.cpg/sg67_22_cif.got.tgz:43607.got - 2010.06.03 18:28:57.
