data_PCOD9502903
_publ_section_title
;
Structure prediction by ZEFSAII (Michael W. Deem and Ramdas Pophale) SiO2 
 PCOD9502903
Probable space group: C M M A
;
_chemical_formula_sum "Si O2"
_cell_formula_units_Z 72
_cell_length_a 8.512700
_cell_length_b 16.266603
_cell_length_c 25.752570
_cell_angle_alpha 90.000000
_cell_angle_beta 90.000000
_cell_angle_gamma 90.000000
_cell_volume 3566.028192
_symmetry_space_group_name_H-M "C M M A"
_symmetry_group_IT_number 67
_symmetry_cell_setting 'orthorhombic'
loop_
_space_group_symop_operation_xyz
x,y,z
-x,1/2-y,z
x,-y,-z
-x,1/2+y,-z
-x,-y,-z
x,1/2+y,-z
-x,y,z
x,1/2-y,z
1/2+x,1/2+y,z
1/2-x,-y,z
1/2+x,1/2-y,-z
1/2-x,y,-z
1/2-x,1/2-y,-z
1/2+x,y,-z
1/2-x,1/2+y,z
1/2+x,-y,z
loop_
_atom_site_type_symbol
_atom_site_label
_atom_site_fract_x
_atom_site_fract_y
_atom_site_fract_z
Si Si1 0.688115 0.594357 0.946546
Si Si2 0.310179 0.593307 0.833783
Si Si3 0.689670 0.343080 0.277447
Si Si4 0.190323 0.750000 0.558578
Si Si5 0.312804 0.086729 0.619358
O O1 0.500000 0.592920 0.949102
O O2 0.750000 0.500000 0.945851
O O3 0.736814 0.629367 0.890186
O O4 0.750000 0.632947 0.000000
O O5 0.500000 0.592812 0.833394
O O6 0.250000 0.500000 0.831290
O O7 0.258025 0.637548 0.781241
O O8 0.500000 0.348892 0.278820
O O9 0.735723 0.250000 0.290659
O O10 0.758940 0.401634 0.321152
O O11 0.250000 0.750000 0.500000
O O12 0.243943 0.832974 0.587913
O O13 0.000000 0.750000 0.559099
O O14 0.500000 0.085526 0.617521
O O15 0.250000 0.000000 0.598917
#
# Coordination Sequence:
#
# PCOD9502903 Si02
#       5
#    16  16  16   8  16
#     4   9  15  24  39  60  89 123 163 214 271 330
#     4   9  18  30  45  70 100 131 172 223 277 337
#     4  10  20  35  56  81 110 148 191 235 288 349
#     4  10  24  44  66  92 128 164 201 244 289 338
#     4  11  23  41  63  92 125 160 200 245 294 345
#
# _framework density 20.190529999999999
#
# number of rings (size 3 to 8) (size 9 to 14) (size 15 to 20)
#    0.000    2.222    1.111    2.667    0.000    5.778 
#    0.000    2.222    0.000    0.667    0.000    0.000 
#    0.000    0.000    0.000    0.000    0.000    6.000 
#
# Total GULP energy -200827.578559 kJ/mol
# GULP energy per Si atom -5578.543849 kJ/mol
# Density = 2.014458 g / cm^3
# Si number density = 20.190530 Si / 1000 Ang^3
#
#
#
# Elastic Constant Matrix: (Units=GPa)
#
#
# Indices 1 2 3 4 5 6 
#
# 1 19.7099 18.3165 21.2099 0.0000 0.0000 0.0000
# 2 18.3165 106.6276 54.8329 0.0000 0.0000 0.0000
# 3 21.2099 54.8329 146.7323 0.0000 0.0000 0.0000
# 4 0.0000 0.0000 0.0000 55.5702 0.0000 0.0000
# 5 0.0000 0.0000 0.0000 0.0000 39.8576 0.0000
# 6 0.0000 0.0000 0.0000 0.0000 0.0000 18.7934
#
#
#
# Elastic Compliance Matrix: (Units=1/GPa)
#
#
# Indices 1 2 3 4 5 6 
#
# 1 0.064975 -0.007838 -0.006463 0.000000 0.000000 0.000000
# 2 -0.007838 0.012555 -0.003559 0.000000 0.000000 0.000000
# 3 -0.006463 -0.003559 0.009079 0.000000 0.000000 0.000000
# 4 0.000000 0.000000 0.000000 0.017995 0.000000 0.000000
# 5 0.000000 0.000000 0.000000 0.000000 0.025089 0.000000
# 6 0.000000 0.000000 0.000000 0.000000 0.000000 0.053210
#
#
# Mechanical properties :
#
#
# Convention : Reuss Voigt Hill
#
# Bulk Modulus (GPa) = 19.65035 51.30983 35.48009
# Shear Modulus (GPa) = 21.22369 34.75826 27.99097
#
# Velocity S-wave (km/s) = 3.24569 4.15361 3.72740
# Velocity P-wave (km/s) = 4.87849 6.96213 6.01128
#
# Compressibility (1/GPa) = 0.05088967
#
# Stress axis : x y z
#
# Youngs Moduli (GPa) = 15.39061 79.65030 110.14142
#
# Poissons Ratio (x) = 0.62428 0.71185
# Poissons Ratio (y) = 0.12063 0.39196
# Poissons Ratio (z) = 0.09947 0.28345
#
# Static dielectric constant tensor:
#      x y z
#    x 1.685200 0.000000 0.000000 
#    y 0.000000 1.715060 0.000000 
#    z 0.000000 0.000000 1.748250 
# 
# From -- ./inp_files/42134.got.cif
#   From: 2010.05.17/outbox.cif.g08.bks.cpg/sg67_22_cif.got.tgz:42134.got - 2010.06.03 18:28:57.
