data_PCOD9502439
_publ_section_title
;
Structure prediction by ZEFSAII (Michael W. Deem and Ramdas Pophale) SiO2 
 PCOD9502439
Probable space group: C M M A
;
_chemical_formula_sum "Si O2"
_cell_formula_units_Z 116
_cell_length_a 27.603134
_cell_length_b 17.861471
_cell_length_c 12.281333
_cell_angle_alpha 90.000000
_cell_angle_beta 90.000000
_cell_angle_gamma 90.000000
_cell_volume 6055.097264
_symmetry_space_group_name_H-M "C M M A"
_symmetry_group_IT_number 67
_symmetry_cell_setting 'orthorhombic'
loop_
_space_group_symop_operation_xyz
x,y,z
-x,1/2-y,z
x,-y,-z
-x,1/2+y,-z
-x,-y,-z
x,1/2+y,-z
-x,y,z
x,1/2-y,z
1/2+x,1/2+y,z
1/2-x,-y,z
1/2+x,1/2-y,-z
1/2-x,y,-z
1/2-x,1/2-y,-z
1/2+x,y,-z
1/2-x,1/2+y,z
1/2+x,-y,z
loop_
_atom_site_type_symbol
_atom_site_label
_atom_site_fract_x
_atom_site_fract_y
_atom_site_fract_z
Si Si1 0.203451 0.159128 0.930807
Si Si2 0.942606 0.969199 0.882660
Si Si3 0.372916 0.339040 0.890765
Si Si4 0.666438 0.606810 0.337187
Si Si5 0.230460 0.661568 0.312838
Si Si6 0.867815 0.832639 0.445165
Si Si7 0.590345 0.021532 0.343302
Si Si8 0.500000 0.000000 0.500000
O O1 0.203561 0.250000 0.929972
O O2 0.210553 0.136514 0.805708
O O3 0.250000 0.134136 0.000000
O O4 0.156062 0.137820 0.999697
O O5 0.921783 0.885503 0.876795
O O6 0.000000 0.970143 0.873884
O O7 0.920900 0.017779 0.784526
O O8 0.928276 0.000000 0.000000
O O9 0.379243 0.250000 0.891879
O O10 0.342128 0.363093 0.784838
O O11 0.724017 0.612893 0.351241
O O12 0.639439 0.657924 0.426155
O O13 0.639315 0.527848 0.355790
O O14 0.245929 0.750000 0.304970
O O15 0.185639 0.659083 0.394342
O O16 0.886345 0.750000 0.418572
O O17 0.900304 0.896904 0.392649
O O18 0.543577 0.989602 0.406920
#
# Coordination Sequence:
#
# PCOD9502439 Si02
#       8
#    16  16  16  16  16  16  16   4
#     4   9  16  30  51  80 117 159 197 229 286 354
#     4  10  23  42  63  84 114 157 200 249 319 375
#     4  10  20  34  60  90 118 152 202 257 297 356
#     4  11  20  37  59  91 123 163 201 243 298 365
#     4  10  20  33  55  86 128 167 194 238 298 355
#     4  11  23  38  59  90 125 161 205 250 297 363
#     4  11  24  42  67  88 120 161 205 254 309 369
#     4  12  20  48  72  82 116 164 206 250 316 370
#
# _framework density 19.157413999999999
#
# number of rings (size 3 to 8) (size 9 to 14) (size 15 to 20)
#    0.000    1.655    3.448    1.655    1.931    1.931 
#    0.000    1.724    0.000    1.241    0.000    0.000 
#    0.000    0.000    0.000    0.000    0.000    0.000 
#
# Total GULP energy -323055.613713 kJ/mol
# GULP energy per Si atom -5569.924374 kJ/mol
# Density = 1.911381 g / cm^3
# Si number density = 19.157414 Si / 1000 Ang^3
#
#
#
# Elastic Constant Matrix: (Units=GPa)
#
#
# Indices 1 2 3 4 5 6 
#
# 1 49.5107 29.3601 13.8284 0.0000 0.0000 0.0000
# 2 29.3601 66.7095 12.9676 0.0000 0.0000 0.0000
# 3 13.8284 12.9676 89.0407 0.0000 0.0000 0.0000
# 4 0.0000 0.0000 0.0000 20.9373 0.0000 0.0000
# 5 0.0000 0.0000 0.0000 0.0000 23.8393 0.0000
# 6 0.0000 0.0000 0.0000 0.0000 0.0000 15.5217
#
#
#
# Elastic Compliance Matrix: (Units=1/GPa)
#
#
# Indices 1 2 3 4 5 6 
#
# 1 0.027912 -0.011775 -0.002620 0.000000 0.000000 0.000000
# 2 -0.011775 0.020395 -0.001141 0.000000 0.000000 0.000000
# 3 -0.002620 -0.001141 0.011804 0.000000 0.000000 0.000000
# 4 0.000000 0.000000 0.000000 0.047762 0.000000 0.000000
# 5 0.000000 0.000000 0.000000 0.000000 0.041947 0.000000
# 6 0.000000 0.000000 0.000000 0.000000 0.000000 0.064426
#
#
# Mechanical properties :
#
#
# Convention : Reuss Voigt Hill
#
# Bulk Modulus (GPa) = 34.43837 35.28589 34.86213
# Shear Modulus (GPa) = 19.60793 21.99999 20.80396
#
# Velocity S-wave (km/s) = 3.20272 3.39245 3.29895
# Velocity P-wave (km/s) = 5.62957 5.81411 5.72258
#
# Compressibility (1/GPa) = 0.02903738
#
# Stress axis : x y z
#
# Youngs Moduli (GPa) = 35.82655 49.03201 84.71738
#
# Poissons Ratio (x) = 0.57737 0.22196
# Poissons Ratio (y) = 0.42187 0.09670
# Poissons Ratio (z) = 0.09386 0.05597
#
# Static dielectric constant tensor:
#      x y z
#    x 1.477780 0.000000 0.000000 
#    y 0.000000 1.675430 0.000000 
#    z 0.000000 0.000000 1.694590 
# 
# From -- ./inp_files/23943.got.cif
#   From: 2010.05.17/outbox.cif.g08.bks.cpg/sg67_12_cif.got.tgz:23943.got - 2010.06.03 18:28:57.
