data_PCOD9502814
_publ_section_title
;
Structure prediction by ZEFSAII (Michael W. Deem and Ramdas Pophale) SiO2 
 PCOD9502814
Probable space group: C M M A
;
_chemical_formula_sum "Si O2"
_cell_formula_units_Z 68
_cell_length_a 24.780740
_cell_length_b 9.471382
_cell_length_c 13.455798
_cell_angle_alpha 90.000000
_cell_angle_beta 90.000000
_cell_angle_gamma 90.000000
_cell_volume 3158.181483
_symmetry_space_group_name_H-M "C M M A"
_symmetry_group_IT_number 67
_symmetry_cell_setting 'orthorhombic'
loop_
_space_group_symop_operation_xyz
x,y,z
-x,1/2-y,z
x,-y,-z
-x,1/2+y,-z
-x,-y,-z
x,1/2+y,-z
-x,y,z
x,1/2-y,z
1/2+x,1/2+y,z
1/2-x,-y,z
1/2+x,1/2-y,-z
1/2-x,y,-z
1/2-x,1/2-y,-z
1/2+x,y,-z
1/2-x,1/2+y,z
1/2+x,-y,z
loop_
_atom_site_type_symbol
_atom_site_label
_atom_site_fract_x
_atom_site_fract_y
_atom_site_fract_z
Si Si1 0.200797 0.586764 0.845096
Si Si2 0.836368 0.911215 0.346406
Si Si3 0.250000 0.500000 0.500000
Si Si4 0.579710 0.588644 0.093651
Si Si5 0.061099 0.081303 0.323551
O O1 0.215844 0.750000 0.827460
O O2 0.250000 0.500000 0.890060
O O3 0.186795 0.506971 0.742592
O O4 0.144986 0.585400 0.904483
O O5 0.846420 0.750000 0.314978
O O6 0.791030 0.913456 0.431006
O O7 0.892672 0.987740 0.374065
O O8 0.562615 0.750000 0.082238
O O9 0.562867 0.544378 0.205129
O O10 0.560838 0.500000 0.000000
O O11 0.073650 0.250000 0.330377
O O12 0.000000 0.058895 0.359478
#
# Coordination Sequence:
#
# PCOD9502814 Si02
#       5
#    16  16   4  16  16
#     4  10  20  35  54  78 114 156 198 242 294 351
#     4  11  23  38  61  91 121 153 194 241 292 355
#     4  12  26  40  62  94 128 152 186 234 302 356
#     4   9  19  33  51  80 115 153 198 245 291 341
#     4   9  20  41  64  85 118 161 200 243 297 349
#
# _framework density 21.531378
#
# number of rings (size 3 to 8) (size 9 to 14) (size 15 to 20)
#    0.000    2.118    1.176    3.176    0.000    8.941 
#    0.000    2.941    0.000    0.000    0.000    0.000 
#    0.000    0.000    0.000    0.000    0.000    0.000 
#
# Total GULP energy -189864.118184 kJ/mol
# GULP energy per Si atom -5584.238770 kJ/mol
# Density = 2.148237 g / cm^3
# Si number density = 21.531378 Si / 1000 Ang^3
#
#
#
# Elastic Constant Matrix: (Units=GPa)
#
#
# Indices 1 2 3 4 5 6 
#
# 1 171.1384 66.4232 20.6013 0.0000 0.0000 0.0000
# 2 66.4232 136.5775 40.0733 0.0000 0.0000 0.0000
# 3 20.6013 40.0733 63.9491 0.0000 0.0000 0.0000
# 4 0.0000 0.0000 0.0000 8.4950 0.0000 0.0000
# 5 0.0000 0.0000 0.0000 0.0000 -19.4864 0.0000
# 6 0.0000 0.0000 0.0000 0.0000 0.0000 89.1362
#
#
#
# Elastic Compliance Matrix: (Units=1/GPa)
#
#
# Indices 1 2 3 4 5 6 
#
# 1 0.007204 -0.003459 -0.000153 0.000000 0.000000 0.000000
# 2 -0.003459 0.010632 -0.005548 0.000000 0.000000 0.000000
# 3 -0.000153 -0.005548 0.019164 0.000000 0.000000 0.000000
# 4 0.000000 0.000000 0.000000 0.117716 0.000000 0.000000
# 5 0.000000 0.000000 0.000000 0.000000 -0.051318 0.000000
# 6 0.000000 0.000000 0.000000 0.000000 0.000000 0.011219
#
#
# Mechanical properties :
#
#
# Convention : Reuss Voigt Hill
#
# Bulk Modulus (GPa) = 53.53617 69.54011 61.53814
# Shear Modulus (GPa) = 35.92909 31.93344 33.93127
#
# Velocity S-wave (km/s) = 4.08939 3.85530 3.97407
# Velocity P-wave (km/s) = 6.87137 7.22392 7.04985
#
# Compressibility (1/GPa) = 0.01867896
#
# Stress axis : x y z
#
# Youngs Moduli (GPa) = 138.81040 94.05748 52.18228
#
# Poissons Ratio (x) = 0.32531 0.00801
# Poissons Ratio (y) = 0.48009 0.28952
# Poissons Ratio (z) = 0.02131 0.52185
#
# Static dielectric constant tensor:
#      x y z
#    x 1.843320 0.000000 0.000000 
#    y 0.000000 1.738550 0.000000 
#    z 0.000000 0.000000 1.796450 
# 
# From -- ./inp_files/30488.got.cif
#   From: 2010.05.17/outbox.cif.g08.bks.cpg/sg67_16_cif.got.tgz:30488.got - 2010.06.03 18:28:57.
