data_PCOD9502912
_publ_section_title
;
Structure prediction by ZEFSAII (Michael W. Deem and Ramdas Pophale) SiO2 
 PCOD9502912
Probable space group: C M M A
;
_chemical_formula_sum "Si O2"
_cell_formula_units_Z 80
_cell_length_a 19.720738
_cell_length_b 8.693582
_cell_length_c 25.784056
_cell_angle_alpha 90.000000
_cell_angle_beta 90.000000
_cell_angle_gamma 90.000000
_cell_volume 4420.517904
_symmetry_space_group_name_H-M "C M M A"
_symmetry_group_IT_number 67
_symmetry_cell_setting 'orthorhombic'
loop_
_space_group_symop_operation_xyz
x,y,z
-x,1/2-y,z
x,-y,-z
-x,1/2+y,-z
-x,-y,-z
x,1/2+y,-z
-x,y,z
x,1/2-y,z
1/2+x,1/2+y,z
1/2-x,-y,z
1/2+x,1/2-y,-z
1/2-x,y,-z
1/2-x,1/2-y,-z
1/2+x,y,-z
1/2-x,1/2+y,z
1/2+x,-y,z
loop_
_atom_site_type_symbol
_atom_site_label
_atom_site_fract_x
_atom_site_fract_y
_atom_site_fract_z
Si Si1 0.322870 0.933932 0.057731
Si Si2 0.824232 0.935092 0.237604
Si Si3 0.420657 0.066088 0.555577
Si Si4 0.921006 0.936182 0.144051
Si Si5 0.824551 0.934570 0.356369
O O1 0.319389 0.750000 0.055827
O O2 0.250000 0.000000 0.075831
O O3 0.381428 0.990172 0.095983
O O4 0.333880 0.000000 0.000000
O O5 0.820016 0.750000 0.236522
O O6 0.880626 0.982461 0.196109
O O7 0.840759 0.980924 0.296836
O O8 0.750000 0.000000 0.224346
O O9 0.500000 0.024496 0.561852
O O10 0.415054 0.250000 0.554719
O O11 0.397874 0.000000 0.500000
O O12 0.377389 0.998827 0.602443
O O13 0.917298 0.750000 0.139760
O O14 0.000000 0.979295 0.145715
O O15 0.823257 0.750000 0.358837
O O16 0.750000 0.000000 0.367973
#
# Coordination Sequence:
#
# PCOD9502912 Si02
#       5
#    16  16  16  16  16
#     4  11  22  38  60  84 110 142 183 226 271 323
#     4   9  19  35  56  80 107 143 182 222 268 319
#     4  10  21  37  56  79 108 142 180 222 270 324
#     4  10  21  37  56  81 114 148 182 222 269 320
#     4  10  20  35  56  82 111 142 180 224 270 320
#
# _framework density 18.097425999999999
#
# number of rings (size 3 to 8) (size 9 to 14) (size 15 to 20)
#    0.000    2.000    0.000    4.200    0.000    6.400 
#    0.000    4.000    0.000    0.000    0.000    0.000 
#    0.000    0.000    0.000    0.000    0.000    0.000 
#
# Total GULP energy -223416.230249 kJ/mol
# GULP energy per Si atom -5585.405756 kJ/mol
# Density = 1.805624 g / cm^3
# Si number density = 18.097426 Si / 1000 Ang^3
#
#
#
# Elastic Constant Matrix: (Units=GPa)
#
#
# Indices 1 2 3 4 5 6 
#
# 1 152.0532 54.2842 114.5996 0.0000 0.0000 0.0000
# 2 54.2842 57.6048 49.0784 0.0000 0.0000 0.0000
# 3 114.5996 49.0784 130.3599 0.0000 0.0000 0.0000
# 4 0.0000 0.0000 0.0000 22.4445 0.0000 0.0000
# 5 0.0000 0.0000 0.0000 0.0000 119.6663 0.0000
# 6 0.0000 0.0000 0.0000 0.0000 0.0000 29.3127
#
#
#
# Elastic Compliance Matrix: (Units=1/GPa)
#
#
# Indices 1 2 3 4 5 6 
#
# 1 0.020774 -0.005914 -0.016036 0.000000 0.000000 0.000000
# 2 -0.005914 0.027241 -0.005057 0.000000 0.000000 0.000000
# 3 -0.016036 -0.005057 0.023672 0.000000 0.000000 0.000000
# 4 0.000000 0.000000 0.000000 0.044554 0.000000 0.000000
# 5 0.000000 0.000000 0.000000 0.000000 0.008357 0.000000
# 6 0.000000 0.000000 0.000000 0.000000 0.000000 0.034115
#
#
# Mechanical properties :
#
#
# Convention : Reuss Voigt Hill
#
# Bulk Modulus (GPa) = 56.58138 86.21582 71.39860
# Shear Modulus (GPa) = 22.87102 42.42175 32.64639
#
# Velocity S-wave (km/s) = 3.55881 4.84682 4.25187
# Velocity P-wave (km/s) = 6.94404 8.89188 7.97763
#
# Compressibility (1/GPa) = 0.01767366
#
# Stress axis : x y z
#
# Youngs Moduli (GPa) = 48.13724 36.70922 42.24414
#
# Poissons Ratio (x) = 0.21710 0.67742
# Poissons Ratio (y) = 0.28469 0.21362
# Poissons Ratio (z) = 0.77192 0.18563
#
# Static dielectric constant tensor:
#      x y z
#    x 1.590220 0.000000 0.000000 
#    y 0.000000 1.605960 0.000000 
#    z 0.000000 0.000000 1.611940 
# 
# From -- ./inp_files/44423.got.cif
#   From: 2010.05.17/outbox.cif.g08.bks.cpg/sg67_23_cif.got.tgz:44423.got - 2010.06.03 18:28:57.
