data_PCOD9502998
_publ_section_title
;
Structure prediction by ZEFSAII (Michael W. Deem and Ramdas Pophale) SiO2 
 PCOD9502998
Probable space group: C M M A
;
_chemical_formula_sum "Si O2"
_cell_formula_units_Z 112
_cell_length_a 14.401114
_cell_length_b 17.403978
_cell_length_c 22.124435
_cell_angle_alpha 90.000000
_cell_angle_beta 90.000000
_cell_angle_gamma 90.000000
_cell_volume 5545.194741
_symmetry_space_group_name_H-M "C M M A"
_symmetry_group_IT_number 67
_symmetry_cell_setting 'orthorhombic'
loop_
_space_group_symop_operation_xyz
x,y,z
-x,1/2-y,z
x,-y,-z
-x,1/2+y,-z
-x,-y,-z
x,1/2+y,-z
-x,y,z
x,1/2-y,z
1/2+x,1/2+y,z
1/2-x,-y,z
1/2+x,1/2-y,-z
1/2-x,y,-z
1/2-x,1/2-y,-z
1/2+x,y,-z
1/2-x,1/2+y,z
1/2+x,-y,z
loop_
_atom_site_type_symbol
_atom_site_label
_atom_site_fract_x
_atom_site_fract_y
_atom_site_fract_z
Si Si1 0.899409 0.838777 0.247462
Si Si2 0.895452 0.657341 0.035756
Si Si3 0.743692 0.667051 0.572021
Si Si4 0.282304 0.411236 0.787474
Si Si5 0.607253 0.616565 0.335781
Si Si6 0.301737 0.342830 0.908165
Si Si7 0.100654 0.938174 0.369351
O O1 0.893748 0.750000 0.265454
O O2 0.811375 0.861078 0.209031
O O3 0.895519 0.892689 0.306104
O O4 0.000000 0.850606 0.217449
O O5 0.898084 0.750000 0.042908
O O6 0.803927 0.632916 0.073299
O O7 0.000000 0.628494 0.049741
O O8 0.867158 0.642640 0.966006
O O9 0.700154 0.750000 0.588526
O O10 0.750000 0.665597 0.500000
O O11 0.837313 0.660438 0.611542
O O12 0.681694 0.595794 0.591257
O O13 0.250000 0.500000 0.781763
O O14 0.338607 0.383769 0.728189
O O15 0.333083 0.390546 0.849621
O O16 0.500000 0.640928 0.329421
O O17 0.608430 0.527502 0.355909
O O18 0.302582 0.250000 0.897289
O O19 0.000000 0.922752 0.397614
#
# Coordination Sequence:
#
# PCOD9502998 Si02
#       7
#    16  16  16  16  16  16  16
#     4  10  20  35  58  85 111 143 190 244 292 337
#     4   8  15  33  57  78 107 146 191 245 295 339
#     4  11  24  41  62  89 119 151 192 243 296 349
#     4  12  22  36  57  85 123 160 191 237 295 359
#     4  11  24  42  61  83 118 162 200 235 285 355
#     4   9  19  33  54  84 110 144 196 242 286 345
#     4  10  20  38  62  86 110 145 194 241 289 340
#
# _framework density 20.197668
#
# number of rings (size 3 to 8) (size 9 to 14) (size 15 to 20)
#    0.000    1.857    2.857    2.143    0.000    4.571 
#    0.000    5.714    0.000    0.857    0.000    0.000 
#    0.000    0.000    0.000    0.000    0.000    0.000 
#
# Total GULP energy -312364.547822 kJ/mol
# GULP energy per Si atom -5577.938354 kJ/mol
# Density = 2.015170 g / cm^3
# Si number density = 20.197668 Si / 1000 Ang^3
#
#
#
# Elastic Constant Matrix: (Units=GPa)
#
#
# Indices 1 2 3 4 5 6 
#
# 1 83.4400 6.9773 26.5763 0.0000 0.0000 0.0000
# 2 6.9773 41.3356 11.5333 0.0000 0.0000 0.0000
# 3 26.5763 11.5333 101.4501 0.0000 0.0000 0.0000
# 4 0.0000 0.0000 0.0000 19.3980 0.0000 0.0000
# 5 0.0000 0.0000 0.0000 0.0000 -8.3027 0.0000
# 6 0.0000 0.0000 0.0000 0.0000 0.0000 16.5865
#
#
#
# Elastic Compliance Matrix: (Units=1/GPa)
#
#
# Indices 1 2 3 4 5 6 
#
# 1 0.013143 -0.001299 -0.003295 0.000000 0.000000 0.000000
# 2 -0.001299 0.025113 -0.002515 0.000000 0.000000 0.000000
# 3 -0.003295 -0.002515 0.011006 0.000000 0.000000 0.000000
# 4 0.000000 0.000000 0.000000 0.051552 0.000000 0.000000
# 5 0.000000 0.000000 0.000000 0.000000 -0.120443 0.000000
# 6 0.000000 0.000000 0.000000 0.000000 0.000000 0.060290
#
#
# Mechanical properties :
#
#
# Convention : Reuss Voigt Hill
#
# Bulk Modulus (GPa) = 28.53540 35.15552 31.84546
# Shear Modulus (GPa) = 75.12023 17.61229 46.36626
#
# Velocity S-wave (km/s) = 6.10518 2.95616 4.79647
# Velocity P-wave (km/s) = 7.99102 5.39401 6.81732
#
# Compressibility (1/GPa) = 0.03504419
#
# Stress axis : x y z
#
# Youngs Moduli (GPa) = 76.08697 39.81983 90.85802
#
# Poissons Ratio (x) = 0.05173 0.29940
# Poissons Ratio (y) = 0.09884 0.22848
# Poissons Ratio (z) = 0.25073 0.10013
#
# Static dielectric constant tensor:
#      x y z
#    x 1.796850 0.000000 0.000000 
#    y 0.000000 1.698260 0.000000 
#    z 0.000000 0.000000 1.752960 
# 
# From -- ./inp_files/41918.got.cif
#   From: 2010.05.17/outbox.cif.g08.bks.cpg/sg67_21_cif.got.tgz:41918.got - 2010.06.03 18:28:57.
