data_PCOD9502122
_publ_section_title
;
Structure prediction by ZEFSAII (Michael W. Deem and Ramdas Pophale) SiO2 
 PCOD9502122
Probable space group: C M M A
;
_chemical_formula_sum "Si O2"
_cell_formula_units_Z 96
_cell_length_a 8.810841
_cell_length_b 27.624778
_cell_length_c 25.827977
_cell_angle_alpha 90.000000
_cell_angle_beta 90.000000
_cell_angle_gamma 90.000000
_cell_volume 6286.465719
_symmetry_space_group_name_H-M "C M M A"
_symmetry_group_IT_number 67
_symmetry_cell_setting 'orthorhombic'
loop_
_space_group_symop_operation_xyz
x,y,z
-x,1/2-y,z
x,-y,-z
-x,1/2+y,-z
-x,-y,-z
x,1/2+y,-z
-x,y,z
x,1/2-y,z
1/2+x,1/2+y,z
1/2-x,-y,z
1/2+x,1/2-y,-z
1/2-x,y,-z
1/2-x,1/2-y,-z
1/2+x,y,-z
1/2-x,1/2+y,z
1/2+x,-y,z
loop_
_atom_site_type_symbol
_atom_site_label
_atom_site_fract_x
_atom_site_fract_y
_atom_site_fract_z
Si Si1 0.682544 0.693965 0.770005
Si Si2 0.827497 0.691372 0.660342
Si Si3 0.679235 0.368276 0.134152
Si Si4 0.175378 0.808980 0.446171
Si Si5 0.827635 0.692469 0.947404
Si Si6 0.682525 0.946675 0.056765
O O1 0.500000 0.695456 0.772757
O O2 0.735910 0.750000 0.781033
O O3 0.733792 0.680801 0.712081
O O4 0.732924 0.652264 0.810218
O O5 0.829734 0.750000 0.657115
O O6 0.757171 0.674181 0.606191
O O7 0.000000 0.674539 0.665925
O O8 0.500000 0.379060 0.136246
O O9 0.715901 0.322581 0.097875
O O10 0.763694 0.411129 0.102995
O O11 0.182359 0.750000 0.446135
O O12 0.250000 0.825074 0.500000
O O13 0.000000 0.822708 0.444850
O O14 0.838521 0.750000 0.949567
O O15 0.000000 0.673296 0.941158
O O16 0.750000 0.675402 0.000000
O O17 0.500000 0.948227 0.053557
O O18 0.750000 0.000000 0.066999
O O19 0.750000 0.932652 0.000000
#
# Coordination Sequence:
#
# PCOD9502122 Si02
#       6
#    16  16  16  16  16  16
#     4   9  18  31  45  61  84 116 150 181 213 251
#     4   9  16  25  37  53  75 104 139 179 219 255
#     4  11  21  33  49  68  89 113 142 174 211 255
#     4   9  15  22  33  49  70  97 133 177 221 260
#     4  10  20  32  45  62  85 112 141 173 209 248
#     4  11  22  38  57  75  93 111 135 169 213 262
#
# _framework density 15.270902
#
# number of rings (size 3 to 8) (size 9 to 14) (size 15 to 20)
#    0.000    2.167    0.000    5.000    0.000    7.000 
#    0.000    1.667    0.000    0.000    0.000    0.000 
#    0.000    0.000    0.000    0.000    0.000    0.833 
#
# Total GULP energy -267339.690326 kJ/mol
# GULP energy per Si atom -5569.576882 kJ/mol
# Density = 1.523615 g / cm^3
# Si number density = 15.270902 Si / 1000 Ang^3
#
#
#
# Elastic Constant Matrix: (Units=GPa)
#
#
# Indices 1 2 3 4 5 6 
#
# 1 61.4044 27.2208 30.1662 0.0000 0.0000 0.0000
# 2 27.2208 58.3005 35.4696 0.0000 0.0000 0.0000
# 3 30.1662 35.4696 122.6001 0.0000 0.0000 0.0000
# 4 0.0000 0.0000 0.0000 5.6452 0.0000 0.0000
# 5 0.0000 0.0000 0.0000 0.0000 24.7013 0.0000
# 6 0.0000 0.0000 0.0000 0.0000 0.0000 14.2511
#
#
#
# Elastic Compliance Matrix: (Units=1/GPa)
#
#
# Indices 1 2 3 4 5 6 
#
# 1 0.021339 -0.008215 -0.002874 0.000000 0.000000 0.000000
# 2 -0.008215 0.023979 -0.004916 0.000000 0.000000 0.000000
# 3 -0.002874 -0.004916 0.010286 0.000000 0.000000 0.000000
# 4 0.000000 0.000000 0.000000 0.177141 0.000000 0.000000
# 5 0.000000 0.000000 0.000000 0.000000 0.040484 0.000000
# 6 0.000000 0.000000 0.000000 0.000000 0.000000 0.070170
#
#
# Mechanical properties :
#
#
# Convention : Reuss Voigt Hill
#
# Bulk Modulus (GPa) = 42.38304 47.55757 44.97030
# Shear Modulus (GPa) = 13.04554 18.88275 15.96414
#
# Velocity S-wave (km/s) = 2.92597 3.52023 3.23677
# Velocity P-wave (km/s) = 6.26334 6.90890 6.59402
#
# Compressibility (1/GPa) = 0.02359434
#
# Stress axis : x y z
#
# Youngs Moduli (GPa) = 46.86256 41.70321 97.21944
#
# Poissons Ratio (x) = 0.34258 0.27940
# Poissons Ratio (y) = 0.38497 0.47794
# Poissons Ratio (z) = 0.13468 0.20502
#
# Static dielectric constant tensor:
#      x y z
#    x 1.534760 0.000000 0.000000 
#    y 0.000000 1.510490 0.000000 
#    z 0.000000 0.000000 1.467820 
# 
# From -- ./inp_files/40920.got.cif
#   From: 2010.05.17/outbox.cif.g08.bks.cpg/sg67_21_cif.got.tgz:40920.got - 2010.06.03 18:28:57.
