data_PCOD9502800
_publ_section_title
;
Structure prediction by ZEFSAII (Michael W. Deem and Ramdas Pophale) SiO2 
 PCOD9502800
Probable space group: C M M A
;
_chemical_formula_sum "Si O2"
_cell_formula_units_Z 96
_cell_length_a 8.977750
_cell_length_b 18.331153
_cell_length_c 32.294636
_cell_angle_alpha 90.000000
_cell_angle_beta 90.000000
_cell_angle_gamma 90.000000
_cell_volume 5314.809269
_symmetry_space_group_name_H-M "C M M A"
_symmetry_group_IT_number 67
_symmetry_cell_setting 'orthorhombic'
loop_
_space_group_symop_operation_xyz
x,y,z
-x,1/2-y,z
x,-y,-z
-x,1/2+y,-z
-x,-y,-z
x,1/2+y,-z
-x,y,z
x,1/2-y,z
1/2+x,1/2+y,z
1/2-x,-y,z
1/2+x,1/2-y,-z
1/2-x,y,-z
1/2-x,1/2-y,-z
1/2+x,y,-z
1/2-x,1/2+y,z
1/2+x,-y,z
loop_
_atom_site_type_symbol
_atom_site_label
_atom_site_fract_x
_atom_site_fract_y
_atom_site_fract_z
Si Si1 0.327444 0.161117 0.873182
Si Si2 0.828252 0.660971 0.042294
Si Si3 0.177906 0.664849 0.211306
Si Si4 0.320327 0.919914 0.704759
Si Si5 0.179128 0.080877 0.379952
Si Si6 0.674335 0.837892 0.543481
O O1 0.500000 0.141784 0.874267
O O2 0.316044 0.250000 0.872934
O O3 0.248516 0.136104 0.915271
O O4 0.254138 0.135644 0.830360
O O5 0.821487 0.750000 0.042348
O O6 0.000000 0.639915 0.042024
O O7 0.750000 0.636551 0.000000
O O8 0.218294 0.750000 0.215768
O O9 0.215371 0.624065 0.253652
O O10 0.000000 0.660628 0.205591
O O11 0.500000 0.923524 0.699921
O O12 0.246278 0.888283 0.663091
O O13 0.250000 0.000000 0.709195
O O14 0.236384 0.127192 0.418669
O O15 0.000000 0.077003 0.378274
O O16 0.250000 0.000000 0.383918
O O17 0.500000 0.859403 0.544567
O O18 0.681053 0.750000 0.546336
O O19 0.750000 0.859330 0.500000
#
# Coordination Sequence:
#
# PCOD9502800 Si02
#       6
#    16  16  16  16  16  16
#     4   9  16  25  38  58  85 116 151 193 240 288
#     4   9  15  22  33  50  76 112 152 191 233 284
#     4   9  18  32  49  69  94 126 163 201 244 295
#     4  10  20  35  54  75 101 133 168 208 255 302
#     4  11  22  37  57  80 107 138 175 215 257 304
#     4  10  21  38  59  83 112 143 175 212 255 302
#
# _framework density 18.062736999999998
#
# number of rings (size 3 to 8) (size 9 to 14) (size 15 to 20)
#    0.000    2.333    0.000    4.500    0.000    7.333 
#    0.000    3.333    0.000    0.000    0.000    0.000 
#    0.000    0.667    0.000    7.000    0.000   10.500 
#
# Total GULP energy -267753.186506 kJ/mol
# GULP energy per Si atom -5578.191386 kJ/mol
# Density = 1.802163 g / cm^3
# Si number density = 18.062737 Si / 1000 Ang^3
#
#
#
# Elastic Constant Matrix: (Units=GPa)
#
#
# Indices 1 2 3 4 5 6 
#
# 1 132.8650 27.9967 112.0969 0.0000 0.0000 0.0000
# 2 27.9967 12.0755 42.4543 0.0000 0.0000 0.0000
# 3 112.0969 42.4543 228.7273 0.0000 0.0000 0.0000
# 4 0.0000 0.0000 0.0000 -64.7190 0.0000 0.0000
# 5 0.0000 0.0000 0.0000 0.0000 39.9783 0.0000
# 6 0.0000 0.0000 0.0000 0.0000 0.0000 16.5576
#
#
#
# Elastic Compliance Matrix: (Units=1/GPa)
#
#
# Indices 1 2 3 4 5 6 
#
# 1 0.015243 -0.026124 -0.002622 0.000000 0.000000 0.000000
# 2 -0.026124 0.283124 -0.039748 0.000000 0.000000 0.000000
# 3 -0.002622 -0.039748 0.013034 0.000000 0.000000 0.000000
# 4 0.000000 0.000000 0.000000 -0.015451 0.000000 0.000000
# 5 0.000000 0.000000 0.000000 0.000000 0.025014 0.000000
# 6 0.000000 0.000000 0.000000 0.000000 0.000000 0.060395
#
#
# Mechanical properties :
#
#
# Convention : Reuss Voigt Hill
#
# Bulk Modulus (GPa) = 5.73346 82.08485 43.90915
# Shear Modulus (GPa) = 8.67329 11.10469 9.88899
#
# Velocity S-wave (km/s) = 2.19367 2.48218 2.34237
# Velocity P-wave (km/s) = 3.09796 7.33198 5.62829
#
# Compressibility (1/GPa) = 0.17441477
#
# Stress axis : x y z
#
# Youngs Moduli (GPa) = 65.60453 3.53203 76.71958
#
# Poissons Ratio (x) = 0.09227 0.20112
# Poissons Ratio (y) = 1.71382 3.04945
# Poissons Ratio (z) = 0.17199 0.14039
#
# Static dielectric constant tensor:
#      x y z
#    x 1.604810 0.000000 0.000000 
#    y 0.000000 1.611190 0.000000 
#    z 0.000000 0.000000 1.622410 
# 
# From -- ./inp_files/43502.got.cif
#   From: 2010.05.17/outbox.cif.g08.bks.cpg/sg67_22_cif.got.tgz:43502.got - 2010.06.03 18:28:57.
