data_PCOD9502612
_publ_section_title
;
Structure prediction by ZEFSAII (Michael W. Deem and Ramdas Pophale) SiO2 
 PCOD9502612
Probable space group: C M M A
;
_chemical_formula_sum "Si O2"
_cell_formula_units_Z 80
_cell_length_a 20.298750
_cell_length_b 17.663834
_cell_length_c 9.508795
_cell_angle_alpha 90.000000
_cell_angle_beta 90.000000
_cell_angle_gamma 90.000000
_cell_volume 3409.414109
_symmetry_space_group_name_H-M "C M M A"
_symmetry_group_IT_number 67
_symmetry_cell_setting 'orthorhombic'
loop_
_space_group_symop_operation_xyz
x,y,z
-x,1/2-y,z
x,-y,-z
-x,1/2+y,-z
-x,-y,-z
x,1/2+y,-z
-x,y,z
x,1/2-y,z
1/2+x,1/2+y,z
1/2-x,-y,z
1/2+x,1/2-y,-z
1/2-x,y,-z
1/2-x,1/2-y,-z
1/2+x,y,-z
1/2-x,1/2+y,z
1/2+x,-y,z
loop_
_atom_site_type_symbol
_atom_site_label
_atom_site_fract_x
_atom_site_fract_y
_atom_site_fract_z
Si Si1 0.074887 0.449993 0.805770
Si Si2 0.742010 0.167478 0.768492
Si Si3 0.834355 0.444684 0.368597
Si Si4 0.924041 0.336555 0.540642
Si Si5 0.636962 0.666461 0.985185
O O1 0.128150 0.511561 0.756751
O O2 0.078279 0.385866 0.682769
O O3 0.091621 0.404607 0.948199
O O4 0.000000 0.479469 0.806520
O O5 0.742182 0.250000 0.697398
O O6 0.734230 0.093718 0.674548
O O7 0.805737 0.163759 0.866504
O O8 0.678277 0.163712 0.870998
O O9 0.830833 0.500000 0.500000
O O10 0.878962 0.375234 0.424331
O O11 0.904937 0.250000 0.568622
O O12 0.000000 0.338181 0.492859
O O13 0.604621 0.750000 0.976590
#
# Coordination Sequence:
#
# PCOD9502612 Si02
#       5
#    16  16  16  16  16
#     4  10  20  34  53  79 112 145 178 221 274 330
#     4   9  19  38  61  81 105 141 184 228 272 318
#     4  10  20  34  53  79 114 146 179 220 269 325
#     4   9  17  31  52  75 103 145 190 228 270 319
#     4   9  19  37  60  82 104 138 185 230 272 319
#
# _framework density 23.464441000000001
#
# number of rings (size 3 to 8) (size 9 to 14) (size 15 to 20)
#    0.000    2.600    0.000    3.000    0.000    5.200 
#    0.000   12.000    0.000   13.200    0.000    0.000 
#    0.000    0.000    0.000    0.000    0.000    0.000 
#
# Total GULP energy -223728.345255 kJ/mol
# GULP energy per Si atom -5593.208631 kJ/mol
# Density = 2.341103 g / cm^3
# Si number density = 23.464441 Si / 1000 Ang^3
#
#
#
# Elastic Constant Matrix: (Units=GPa)
#
#
# Indices 1 2 3 4 5 6 
#
# 1 53.4997 25.1726 11.5665 0.0000 0.0000 0.0000
# 2 25.1726 109.8082 10.0286 0.0000 0.0000 0.0000
# 3 11.5665 10.0286 46.9018 0.0000 0.0000 0.0000
# 4 0.0000 0.0000 0.0000 32.0200 0.0000 0.0000
# 5 0.0000 0.0000 0.0000 0.0000 35.4568 0.0000
# 6 0.0000 0.0000 0.0000 0.0000 0.0000 18.1912
#
#
#
# Elastic Compliance Matrix: (Units=1/GPa)
#
#
# Indices 1 2 3 4 5 6 
#
# 1 0.021805 -0.004597 -0.004394 0.000000 0.000000 0.000000
# 2 -0.004597 0.010257 -0.001060 0.000000 0.000000 0.000000
# 3 -0.004394 -0.001060 0.022631 0.000000 0.000000 0.000000
# 4 0.000000 0.000000 0.000000 0.031230 0.000000 0.000000
# 5 0.000000 0.000000 0.000000 0.000000 0.028203 0.000000
# 6 0.000000 0.000000 0.000000 0.000000 0.000000 0.054972
#
#
# Mechanical properties :
#
#
# Convention : Reuss Voigt Hill
#
# Bulk Modulus (GPa) = 28.90886 33.74945 31.32915
# Shear Modulus (GPa) = 24.90888 28.02975 26.46932
#
# Velocity S-wave (km/s) = 3.26169 3.45999 3.36231
# Velocity P-wave (km/s) = 5.15091 5.51149 5.33425
#
# Compressibility (1/GPa) = 0.03459147
#
# Stress axis : x y z
#
# Youngs Moduli (GPa) = 45.86148 97.49038 44.18640
#
# Poissons Ratio (x) = 0.44819 0.19417
# Poissons Ratio (y) = 0.21084 0.04682
# Poissons Ratio (z) = 0.20153 0.10329
#
# Static dielectric constant tensor:
#      x y z
#    x 1.877020 0.000000 0.000000 
#    y 0.000000 1.910140 0.000000 
#    z 0.000000 0.000000 1.903100 
# 
# From -- ./inp_files/21624.got.cif
#   From: 2010.05.17/outbox.cif.g08.bks.cpg/sg67_11_cif.got.tgz:21624.got - 2010.06.03 18:28:57.
