data_PCOD9502629
_publ_section_title
;
Structure prediction by ZEFSAII (Michael W. Deem and Ramdas Pophale) SiO2 
 PCOD9502629
Probable space group: C M M A
;
_chemical_formula_sum "Si O2"
_cell_formula_units_Z 80
_cell_length_a 10.704877
_cell_length_b 29.453922
_cell_length_c 14.025180
_cell_angle_alpha 90.000000
_cell_angle_beta 90.000000
_cell_angle_gamma 90.000000
_cell_volume 4422.147840
_symmetry_space_group_name_H-M "C M M A"
_symmetry_group_IT_number 67
_symmetry_cell_setting 'orthorhombic'
loop_
_space_group_symop_operation_xyz
x,y,z
-x,1/2-y,z
x,-y,-z
-x,1/2+y,-z
-x,-y,-z
x,1/2+y,-z
-x,y,z
x,1/2-y,z
1/2+x,1/2+y,z
1/2-x,-y,z
1/2+x,1/2-y,-z
1/2-x,y,-z
1/2-x,1/2-y,-z
1/2+x,y,-z
1/2-x,1/2+y,z
1/2+x,-y,z
loop_
_atom_site_type_symbol
_atom_site_label
_atom_site_fract_x
_atom_site_fract_y
_atom_site_fract_z
Si Si1 0.651003 0.198573 0.288564
Si Si2 0.140305 0.034079 0.725589
Si Si3 0.355664 0.305357 0.075229
Si Si4 0.146217 0.383384 0.578672
Si Si5 0.134119 0.550159 0.049359
O O1 0.500000 0.200699 0.288091
O O2 0.698531 0.250000 0.301417
O O3 0.682502 0.180762 0.182671
O O4 0.684323 0.163990 0.371622
O O5 0.147836 0.078726 0.661371
O O6 0.153545 0.044976 0.838006
O O7 0.000000 0.014548 0.713509
O O8 0.250000 0.000000 0.698335
O O9 0.500000 0.319229 0.056014
O O10 0.357883 0.250000 0.077356
O O11 0.250000 0.318777 0.000000
O O12 0.250000 0.394628 0.500000
O O13 0.000000 0.380721 0.545309
O O14 0.000000 0.572086 0.033023
O O15 0.127798 0.500000 0.000000
O O16 0.250000 0.573986 0.000000
#
# Coordination Sequence:
#
# PCOD9502629 Si02
#       5
#    16  16  16  16  16
#     4   8  15  31  55  78 102 137 176 213 259 314
#     4  10  20  34  54  78 105 138 171 209 257 308
#     4   8  13  23  43  70  99 132 166 199 241 297
#     4  10  22  39  56  76 103 134 174 222 267 312
#     4   9  15  26  47  74 101 131 164 201 246 296
#
# _framework density 18.090755999999999
#
# number of rings (size 3 to 8) (size 9 to 14) (size 15 to 20)
#    0.000    3.000    2.000    1.200    0.000    1.600 
#    0.000    4.000    0.000    1.200    0.000    0.000 
#    0.000    0.000    0.000    0.000    0.000    0.000 
#
# Total GULP energy -222728.701262 kJ/mol
# GULP energy per Si atom -5568.217532 kJ/mol
# Density = 1.804958 g / cm^3
# Si number density = 18.090756 Si / 1000 Ang^3
#
#
#
# Elastic Constant Matrix: (Units=GPa)
#
#
# Indices 1 2 3 4 5 6 
#
# 1 116.5759 30.8557 48.1435 0.0000 0.0000 0.0000
# 2 30.8557 51.1931 25.9688 0.0000 0.0000 0.0000
# 3 48.1435 25.9688 93.4947 0.0000 0.0000 0.0000
# 4 0.0000 0.0000 0.0000 26.6871 0.0000 0.0000
# 5 0.0000 0.0000 0.0000 0.0000 20.0220 0.0000
# 6 0.0000 0.0000 0.0000 0.0000 0.0000 9.3665
#
#
#
# Elastic Compliance Matrix: (Units=1/GPa)
#
#
# Indices 1 2 3 4 5 6 
#
# 1 0.011788 -0.004686 -0.004768 0.000000 0.000000 0.000000
# 2 -0.004686 0.024600 -0.004420 0.000000 0.000000 0.000000
# 3 -0.004768 -0.004420 0.014379 0.000000 0.000000 0.000000
# 4 0.000000 0.000000 0.000000 0.037471 0.000000 0.000000
# 5 0.000000 0.000000 0.000000 0.000000 0.049945 0.000000
# 6 0.000000 0.000000 0.000000 0.000000 0.000000 0.106763
#
#
# Mechanical properties :
#
#
# Convention : Reuss Voigt Hill
#
# Bulk Modulus (GPa) = 43.44351 52.35552 47.89952
# Shear Modulus (GPa) = 17.83375 21.63485 19.73430
#
# Velocity S-wave (km/s) = 3.14314 3.46194 3.30638
# Velocity P-wave (km/s) = 6.10236 6.70696 6.41179
#
# Compressibility (1/GPa) = 0.02301840
#
# Stress axis : x y z
#
# Youngs Moduli (GPa) = 84.83497 40.64979 69.54675
#
# Poissons Ratio (x) = 0.19048 0.33162
# Poissons Ratio (y) = 0.39753 0.30740
# Poissons Ratio (z) = 0.40452 0.17967
#
# Static dielectric constant tensor:
#      x y z
#    x 1.639610 0.000000 0.000000 
#    y 0.000000 1.652900 0.000000 
#    z 0.000000 0.000000 1.615910 
# 
# From -- ./inp_files/16776.got.cif
#   From: 2010.05.17/outbox.cif.g08.bks.cpg/sg67_9_cif.got.tgz:16776.got - 2010.06.03 18:28:57.
