data_PCOD9502275
_publ_section_title
;
Structure prediction by ZEFSAII (Michael W. Deem and Ramdas Pophale) SiO2 
 PCOD9502275
Probable space group: C M M A
;
_chemical_formula_sum "Si O2"
_cell_formula_units_Z 112
_cell_length_a 18.793788
_cell_length_b 14.951379
_cell_length_c 19.112436
_cell_angle_alpha 90.000000
_cell_angle_beta 90.000000
_cell_angle_gamma 90.000000
_cell_volume 5370.461632
_symmetry_space_group_name_H-M "C M M A"
_symmetry_group_IT_number 67
_symmetry_cell_setting 'orthorhombic'
loop_
_space_group_symop_operation_xyz
x,y,z
-x,1/2-y,z
x,-y,-z
-x,1/2+y,-z
-x,-y,-z
x,1/2+y,-z
-x,y,z
x,1/2-y,z
1/2+x,1/2+y,z
1/2-x,-y,z
1/2+x,1/2-y,-z
1/2-x,y,-z
1/2-x,1/2-y,-z
1/2+x,y,-z
1/2-x,1/2+y,z
1/2+x,-y,z
loop_
_atom_site_type_symbol
_atom_site_label
_atom_site_fract_x
_atom_site_fract_y
_atom_site_fract_z
Si Si1 0.082058 0.857811 0.724948
Si Si2 0.168315 0.605384 0.864636
Si Si3 0.413399 0.855273 0.577682
Si Si4 0.418266 0.109619 0.999542
Si Si5 0.581132 0.357551 0.270594
Si Si6 0.584702 0.141729 0.572696
Si Si7 0.828750 0.607516 0.132931
O O1 0.079387 0.750000 0.721994
O O2 0.129890 0.882202 0.790615
O O3 0.111017 0.888423 0.648845
O O4 0.000000 0.888732 0.734143
O O5 0.174794 0.499256 0.876100
O O6 0.248264 0.642582 0.865617
O O7 0.120296 0.639467 0.928491
O O8 0.500000 0.859832 0.577333
O O9 0.394347 0.750000 0.577457
O O10 0.392507 0.892400 0.653599
O O11 0.388289 0.892409 0.502618
O O12 0.500000 0.138356 0.002166
O O13 0.374623 0.140769 0.067317
O O14 0.418822 0.000000 0.000000
O O15 0.500000 0.389494 0.257975
O O16 0.577280 0.250000 0.277043
O O17 0.631155 0.377122 0.205703
O O18 0.500000 0.122878 0.574449
O O19 0.591817 0.250000 0.570497
#
# Coordination Sequence:
#
# PCOD9502275 Si02
#       7
#    16  16  16  16  16  16  16
#     4   9  17  29  47  72  98 122 152 192 235 276
#     4  10  20  33  49  69  94 124 156 188 225 273
#     4   7  10  19  38  64  91 117 147 186 230 271
#     4   9  17  31  52  73  90 113 150 194 234 271
#     4   9  17  29  47  72  98 122 152 192 235 276
#     4   7  10  19  38  64  91 117 147 186 230 271
#     4  10  20  33  49  69  94 124 156 188 225 273
#
# _framework density 20.854818000000002
#
# number of rings (size 3 to 8) (size 9 to 14) (size 15 to 20)
#    0.000    3.286    0.000    3.857    0.000    4.000 
#    0.000    0.714    0.000    6.000    0.000   10.000 
#    0.000    0.000    0.000    0.000    0.000    0.000 
#
# Total GULP energy -312082.554314 kJ/mol
# GULP energy per Si atom -5572.902756 kJ/mol
# Density = 2.080735 g / cm^3
# Si number density = 20.854818 Si / 1000 Ang^3
#
#
#
# Elastic Constant Matrix: (Units=GPa)
#
#
# Indices 1 2 3 4 5 6 
#
# 1 116.3534 0.1966 98.5064 0.0000 0.0000 0.0000
# 2 0.1966 51.2052 -9.7492 0.0000 0.0000 0.0000
# 3 98.5064 -9.7492 232.6486 0.0000 0.0000 0.0000
# 4 0.0000 0.0000 0.0000 22.5430 0.0000 0.0000
# 5 0.0000 0.0000 0.0000 0.0000 -12.1772 0.0000
# 6 0.0000 0.0000 0.0000 0.0000 0.0000 11.8147
#
#
#
# Elastic Compliance Matrix: (Units=1/GPa)
#
#
# Indices 1 2 3 4 5 6 
#
# 1 0.013463 -0.001146 -0.005749 0.000000 0.000000 0.000000
# 2 -0.001146 0.019784 0.001314 0.000000 0.000000 0.000000
# 3 -0.005749 0.001314 0.006787 0.000000 0.000000 0.000000
# 4 0.000000 0.000000 0.000000 0.044360 0.000000 0.000000
# 5 0.000000 0.000000 0.000000 0.000000 -0.082121 0.000000
# 6 0.000000 0.000000 0.000000 0.000000 0.000000 0.084641
#
#
# Mechanical properties :
#
#
# Convention : Reuss Voigt Hill
#
# Bulk Modulus (GPa) = 34.63343 64.23498 49.43420
# Shear Modulus (GPa) = 46.42546 25.18631 35.80589
#
# Velocity S-wave (km/s) = 4.72330 3.47896 4.14806
# Velocity P-wave (km/s) = 6.81095 6.85605 6.83354
#
# Compressibility (1/GPa) = 0.02887384
#
# Stress axis : x y z
#
# Youngs Moduli (GPa) = 74.27630 50.54611 147.33151
#
# Poissons Ratio (x) = 0.05793 0.84694
# Poissons Ratio (y) = 0.08513 -0.19365
# Poissons Ratio (z) = 0.42698 -0.06644
#
# Static dielectric constant tensor:
#      x y z
#    x 1.701600 0.000000 0.000000 
#    y 0.000000 1.823690 0.000000 
#    z 0.000000 0.000000 1.780690 
# 
# From -- ./inp_files/34418.got.cif
#   From: 2010.05.17/outbox.cif.g08.bks.cpg/sg67_18_cif.got.tgz:34418.got - 2010.06.03 18:28:57.
