data_PCOD9502075
_publ_section_title
;
Structure prediction by ZEFSAII (Michael W. Deem and Ramdas Pophale) SiO2 
 PCOD9502075
Probable space group: C M M A
;
_chemical_formula_sum "Si O2"
_cell_formula_units_Z 112
_cell_length_a 14.960872
_cell_length_b 24.215056
_cell_length_c 17.351012
_cell_angle_alpha 90.000000
_cell_angle_beta 90.000000
_cell_angle_gamma 90.000000
_cell_volume 6285.896055
_symmetry_space_group_name_H-M "C M M A"
_symmetry_group_IT_number 67
_symmetry_cell_setting 'orthorhombic'
loop_
_space_group_symop_operation_xyz
x,y,z
-x,1/2-y,z
x,-y,-z
-x,1/2+y,-z
-x,-y,-z
x,1/2+y,-z
-x,y,z
x,1/2-y,z
1/2+x,1/2+y,z
1/2-x,-y,z
1/2+x,1/2-y,-z
1/2-x,y,-z
1/2-x,1/2-y,-z
1/2+x,y,-z
1/2-x,1/2+y,z
1/2+x,-y,z
loop_
_atom_site_type_symbol
_atom_site_label
_atom_site_fract_x
_atom_site_fract_y
_atom_site_fract_z
Si Si1 0.733108 0.909830 0.417557
Si Si2 0.094790 0.184608 0.148593
Si Si3 0.603814 0.601350 0.841765
Si Si4 0.103285 0.009097 0.613383
Si Si5 0.144896 0.185385 0.980595
Si Si6 0.898307 0.517960 0.794761
Si Si7 0.725109 0.120045 0.753053
O O1 0.750000 0.881487 0.500000
O O2 0.651805 0.954549 0.421419
O O3 0.713744 0.877661 0.338638
O O4 0.825341 0.943172 0.403193
O O5 0.095165 0.250000 0.141367
O O6 0.175833 0.168084 0.201880
O O7 0.000000 0.166550 0.183036
O O8 0.102113 0.164952 0.060670
O O9 0.500000 0.606772 0.820910
O O10 0.623403 0.641601 0.913808
O O11 0.620082 0.534960 0.849166
O O12 0.671790 0.619054 0.775314
O O13 0.101646 0.002901 0.706122
O O14 0.000000 0.016265 0.588716
O O15 0.118880 0.250000 0.963165
O O16 0.250000 0.186419 0.000000
O O17 0.824437 0.565945 0.790087
O O18 0.000000 0.537402 0.811594
#
# Coordination Sequence:
#
# PCOD9502075 Si02
#       7
#    16  16  16  16  16  16  16
#     4  10  20  30  45  74 106 139 181 222 269 322
#     4  10  21  38  61  84 104 132 178 234 282 323
#     4  11  21  33  53  79 109 146 181 214 265 332
#     4   9  16  29  47  69 102 141 178 220 264 311
#     4  10  20  37  59  84 110 138 172 220 276 320
#     4   9  18  32  51  76 106 145 185 217 264 325
#     4  11  20  35  55  75 109 147 181 227 276 323
#
# _framework density 17.817665999999999
#
# number of rings (size 3 to 8) (size 9 to 14) (size 15 to 20)
#    0.000    2.000    2.857    2.143    0.000    2.571 
#    0.000    0.714    0.000    3.000    0.000    0.000 
#    0.000    0.000    0.000    0.000    0.000    0.000 
#
# Total GULP energy -311843.399608 kJ/mol
# GULP energy per Si atom -5568.632136 kJ/mol
# Density = 1.777711 g / cm^3
# Si number density = 17.817666 Si / 1000 Ang^3
#
#
#
# Elastic Constant Matrix: (Units=GPa)
#
#
# Indices 1 2 3 4 5 6 
#
# 1 105.4487 4.5358 8.7846 0.0000 0.0000 0.0000
# 2 4.5358 40.6649 35.7673 0.0000 0.0000 0.0000
# 3 8.7846 35.7673 81.0655 0.0000 0.0000 0.0000
# 4 0.0000 0.0000 0.0000 6.4157 0.0000 0.0000
# 5 0.0000 0.0000 0.0000 0.0000 16.1343 0.0000
# 6 0.0000 0.0000 0.0000 0.0000 0.0000 28.6567
#
#
#
# Elastic Compliance Matrix: (Units=1/GPa)
#
#
# Indices 1 2 3 4 5 6 
#
# 1 0.009571 -0.000254 -0.000925 0.000000 0.000000 0.000000
# 2 -0.000254 0.040193 -0.017706 0.000000 0.000000 0.000000
# 3 -0.000925 -0.017706 0.020248 0.000000 0.000000 0.000000
# 4 0.000000 0.000000 0.000000 0.155868 0.000000 0.000000
# 5 0.000000 0.000000 0.000000 0.000000 0.061980 0.000000
# 6 0.000000 0.000000 0.000000 0.000000 0.000000 0.034896
#
#
# Mechanical properties :
#
#
# Convention : Reuss Voigt Hill
#
# Bulk Modulus (GPa) = 31.01533 36.15050 33.58291
# Shear Modulus (GPa) = 13.46709 22.11409 17.79059
#
# Velocity S-wave (km/s) = 2.75221 3.52679 3.16330
# Velocity P-wave (km/s) = 5.24828 6.07598 5.67723
#
# Compressibility (1/GPa) = 0.03224212
#
# Stress axis : x y z
#
# Youngs Moduli (GPa) = 104.47925 24.87965 49.38682
#
# Poissons Ratio (x) = 0.00631 0.04569
# Poissons Ratio (y) = 0.02652 0.87447
# Poissons Ratio (z) = 0.09666 0.44053
#
# Static dielectric constant tensor:
#      x y z
#    x 1.661190 0.000000 0.000000 
#    y 0.000000 1.625430 0.000000 
#    z 0.000000 0.000000 1.629200 
# 
# From -- ./inp_files/27692.got.cif
#   From: 2010.05.17/outbox.cif.g08.bks.cpg/sg67_14_cif.got.tgz:27692.got - 2010.06.03 18:28:57.
