data_PCOD9502006
_publ_section_title
;
Structure prediction by ZEFSAII (Michael W. Deem and Ramdas Pophale) SiO2 
 PCOD9502006
Probable space group: C M M A
;
_chemical_formula_sum "Si O2"
_cell_formula_units_Z 96
_cell_length_a 15.000899
_cell_length_b 27.008547
_cell_length_c 12.156392
_cell_angle_alpha 90.000000
_cell_angle_beta 90.000000
_cell_angle_gamma 90.000000
_cell_volume 4925.192436
_symmetry_space_group_name_H-M "C M M A"
_symmetry_group_IT_number 67
_symmetry_cell_setting 'orthorhombic'
loop_
_space_group_symop_operation_xyz
x,y,z
-x,1/2-y,z
x,-y,-z
-x,1/2+y,-z
-x,-y,-z
x,1/2+y,-z
-x,y,z
x,1/2-y,z
1/2+x,1/2+y,z
1/2-x,-y,z
1/2+x,1/2-y,-z
1/2-x,y,-z
1/2-x,1/2-y,-z
1/2+x,y,-z
1/2-x,1/2+y,z
1/2+x,-y,z
loop_
_atom_site_type_symbol
_atom_site_label
_atom_site_fract_x
_atom_site_fract_y
_atom_site_fract_z
Si Si1 0.322104 0.852185 0.798462
Si Si2 0.397113 0.440346 0.514305
Si Si3 0.604118 0.808690 0.012758
Si Si4 0.500000 0.309842 0.567640
Si Si5 0.257266 0.559005 0.678753
Si Si6 0.856884 0.191243 0.259049
Si Si7 0.000000 0.810282 0.309353
O O1 0.335261 0.836452 0.924609
O O2 0.287174 0.908031 0.781550
O O3 0.246547 0.820730 0.735958
O O4 0.414236 0.836446 0.742561
O O5 0.401343 0.500000 0.500000
O O6 0.500000 0.422976 0.516221
O O7 0.333876 0.426969 0.411074
O O8 0.337853 0.428822 0.622126
O O9 0.500000 0.813266 0.981673
O O10 0.626560 0.750000 0.009029
O O11 0.613334 0.827068 0.138201
O O12 0.500000 0.250000 0.570987
O O13 0.414602 0.326645 0.638155
O O14 0.500000 0.320287 0.439427
O O15 0.250000 0.500000 0.698158
O O16 0.870492 0.250000 0.254796
O O17 0.000000 0.750000 0.289951
#
# Coordination Sequence:
#
# PCOD9502006 Si02
#       7
#    16  16  16   8  16  16   8
#     4  12  23  35  57  90 121 161 193 247 312 366
#     4   8  15  32  57  77 105 152 203 255 302 338
#     4  10  19  36  63  90 116 149 201 263 303 345
#     4   9  20  37  55  80 122 168 200 235 296 372
#     4   9  20  36  52  82 117 151 202 249 296 362
#     4  10  20  38  61  83 112 156 208 256 299 347
#     4  11  24  39  55  88 134 168 202 243 300 384
#
# _framework density 19.491624000000002
#
# number of rings (size 3 to 8) (size 9 to 14) (size 15 to 20)
#    0.000    2.167    1.667    3.000    1.167    4.667 
#    1.500    2.500    0.000    2.000    0.000    1.167 
#    0.000    0.000    0.000    0.000    0.000    0.000 
#
# Total GULP energy -267676.938067 kJ/mol
# GULP energy per Si atom -5576.602876 kJ/mol
# Density = 1.944726 g / cm^3
# Si number density = 19.491624 Si / 1000 Ang^3
#
#
#
# Elastic Constant Matrix: (Units=GPa)
#
#
# Indices 1 2 3 4 5 6 
#
# 1 144.3517 19.8120 51.2961 0.0000 0.0000 0.0000
# 2 19.8120 80.5594 30.7463 0.0000 0.0000 0.0000
# 3 51.2961 30.7463 84.6854 0.0000 0.0000 0.0000
# 4 0.0000 0.0000 0.0000 -11.2428 0.0000 0.0000
# 5 0.0000 0.0000 0.0000 0.0000 20.3887 0.0000
# 6 0.0000 0.0000 0.0000 0.0000 0.0000 21.0677
#
#
#
# Elastic Compliance Matrix: (Units=1/GPa)
#
#
# Indices 1 2 3 4 5 6 
#
# 1 0.008829 -0.000151 -0.005293 0.000000 0.000000 0.000000
# 2 -0.000151 0.014413 -0.005141 0.000000 0.000000 0.000000
# 3 -0.005293 -0.005141 0.016881 0.000000 0.000000 0.000000
# 4 0.000000 0.000000 0.000000 -0.088946 0.000000 0.000000
# 5 0.000000 0.000000 0.000000 0.000000 0.049047 0.000000
# 6 0.000000 0.000000 0.000000 0.000000 0.000000 0.047466
#
#
# Mechanical properties :
#
#
# Convention : Reuss Voigt Hill
#
# Bulk Modulus (GPa) = 52.76495 57.03393 54.89944
# Shear Modulus (GPa) = 66.50868 19.89220 43.20044
#
# Velocity S-wave (km/s) = 5.84771 3.19807 4.71293
# Velocity P-wave (km/s) = 8.52782 6.55448 7.60542
#
# Compressibility (1/GPa) = 0.01895198
#
# Stress axis : x y z
#
# Youngs Moduli (GPa) = 113.26002 69.38409 59.23754
#
# Poissons Ratio (x) = 0.01049 0.31356
# Poissons Ratio (y) = 0.01712 0.30455
# Poissons Ratio (z) = 0.59951 0.35671
#
# Static dielectric constant tensor:
#      x y z
#    x 1.717980 0.000000 0.000000 
#    y 0.000000 1.731040 0.000000 
#    z 0.000000 0.000000 1.697270 
# 
# From -- ./inp_files/18528.got.cif
#   From: 2010.05.17/outbox.cif.g08.bks.cpg/sg67_10_cif.got.tgz:18528.got - 2010.06.03 18:28:57.
