data_PCOD9502313
_publ_section_title
;
Structure prediction by ZEFSAII (Michael W. Deem and Ramdas Pophale) SiO2 
 PCOD9502313
Probable space group: C M M A
;
_chemical_formula_sum "Si O2"
_cell_formula_units_Z 96
_cell_length_a 31.429317
_cell_length_b 8.858750
_cell_length_c 21.233495
_cell_angle_alpha 90.000000
_cell_angle_beta 90.000000
_cell_angle_gamma 90.000000
_cell_volume 5911.924421
_symmetry_space_group_name_H-M "C M M A"
_symmetry_group_IT_number 67
_symmetry_cell_setting 'orthorhombic'
loop_
_space_group_symop_operation_xyz
x,y,z
-x,1/2-y,z
x,-y,-z
-x,1/2+y,-z
-x,-y,-z
x,1/2+y,-z
-x,y,z
x,1/2-y,z
1/2+x,1/2+y,z
1/2-x,-y,z
1/2+x,1/2-y,-z
1/2-x,y,-z
1/2-x,1/2-y,-z
1/2+x,y,-z
1/2-x,1/2+y,z
1/2+x,-y,z
loop_
_atom_site_type_symbol
_atom_site_label
_atom_site_fract_x
_atom_site_fract_y
_atom_site_fract_z
Si Si1 0.206387 0.418985 0.269937
Si Si2 0.887096 0.068151 0.297293
Si Si3 0.793099 0.920279 0.578929
Si Si4 0.382532 0.429093 0.434670
Si Si5 0.948252 0.423862 0.064985
Si Si6 0.949219 0.571537 0.197078
O O1 0.205709 0.250000 0.242758
O O2 0.250000 0.500000 0.248376
O O3 0.158345 0.485930 0.266765
O O4 0.209920 0.406823 0.345590
O O5 0.883919 0.250000 0.303636
O O6 0.895731 0.000207 0.367064
O O7 0.923911 0.018786 0.250087
O O8 0.799026 0.750000 0.553963
O O9 0.750000 0.000000 0.560517
O O10 0.832703 0.026711 0.564679
O O11 0.400558 0.500000 0.500000
O O12 0.388901 0.250000 0.434453
O O13 0.934577 0.250000 0.068909
O O14 0.936140 0.514064 0.127710
O O15 0.000000 0.424639 0.063292
O O16 0.933678 0.500000 0.000000
O O17 0.941195 0.750000 0.203147
O O18 0.000000 0.546905 0.203188
#
# Coordination Sequence:
#
# PCOD9502313 Si02
#       6
#    16  16  16  16  16  16
#     4   8  15  26  42  63  88 117 150 189 232 281
#     4  10  20  34  50  70  95 124 160 200 243 291
#     4   9  16  27  41  60  84 111 144 183 230 286
#     4  11  21  33  47  63  84 113 150 194 244 294
#     4   9  16  27  45  70 101 135 165 193 228 273
#     4  10  20  33  50  74 102 132 166 200 235 279
#
# _framework density 16.238368000000001
#
# number of rings (size 3 to 8) (size 9 to 14) (size 15 to 20)
#    0.000    2.500    0.000    4.500    0.000    8.000 
#    0.000    1.667    0.000    0.500    0.000    0.000 
#    0.000    0.667    0.000    7.000    0.000    4.333 
#
# Total GULP energy -267219.242496 kJ/mol
# GULP energy per Si atom -5567.067552 kJ/mol
# Density = 1.620141 g / cm^3
# Si number density = 16.238368 Si / 1000 Ang^3
#
#
#
# Elastic Constant Matrix: (Units=GPa)
#
#
# Indices 1 2 3 4 5 6 
#
# 1 32.1929 27.0134 30.8704 0.0000 0.0000 0.0000
# 2 27.0134 95.0466 39.4749 0.0000 0.0000 0.0000
# 3 30.8704 39.4749 95.2646 0.0000 0.0000 0.0000
# 4 0.0000 0.0000 0.0000 25.9539 0.0000 0.0000
# 5 0.0000 0.0000 0.0000 0.0000 -3.3276 0.0000
# 6 0.0000 0.0000 0.0000 0.0000 0.0000 18.0010
#
#
#
# Elastic Compliance Matrix: (Units=1/GPa)
#
#
# Indices 1 2 3 4 5 6 
#
# 1 0.050971 -0.009212 -0.012700 0.000000 0.000000 0.000000
# 2 -0.009212 0.014373 -0.002971 0.000000 0.000000 0.000000
# 3 -0.012700 -0.002971 0.015843 0.000000 0.000000 0.000000
# 4 0.000000 0.000000 0.000000 0.038530 0.000000 0.000000
# 5 0.000000 0.000000 0.000000 0.000000 -0.300518 0.000000
# 6 0.000000 0.000000 0.000000 0.000000 0.000000 0.055552
#
#
# Mechanical properties :
#
#
# Convention : Reuss Voigt Hill
#
# Bulk Modulus (GPa) = 31.82455 46.35796 39.09126
# Shear Modulus (GPa) = -76.91160 16.46850 -30.22155
#
# Velocity S-wave (km/s) = -6.88963 3.18806 -4.31875
# Velocity P-wave (km/s) = 6.60669 6.49323 0.86206
#
# Compressibility (1/GPa) = 0.03142228
#
# Stress axis : x y z
#
# Youngs Moduli (GPa) = 19.61907 69.57444 63.11778
#
# Poissons Ratio (x) = 0.64092 0.80159
# Poissons Ratio (y) = 0.18073 0.18750
# Poissons Ratio (z) = 0.24916 0.20668
#
# Static dielectric constant tensor:
#      x y z
#    x 1.550800 0.000000 0.000000 
#    y 0.000000 1.568090 0.000000 
#    z 0.000000 0.000000 1.555120 
# 
# From -- ./inp_files/39880.got.cif
#   From: 2010.05.17/outbox.cif.g08.bks.cpg/sg67_20_cif.got.tgz:39880.got - 2010.06.03 18:28:57.
