data_PCOD9502667
_publ_section_title
;
Structure prediction by ZEFSAII (Michael W. Deem and Ramdas Pophale) SiO2 
 PCOD9502667
Probable space group: C M M A
;
_chemical_formula_sum "Si O2"
_cell_formula_units_Z 104
_cell_length_a 22.124241
_cell_length_b 8.831495
_cell_length_c 30.495364
_cell_angle_alpha 90.000000
_cell_angle_beta 90.000000
_cell_angle_gamma 90.000000
_cell_volume 5958.492946
_symmetry_space_group_name_H-M "C M M A"
_symmetry_group_IT_number 67
_symmetry_cell_setting 'orthorhombic'
loop_
_space_group_symop_operation_xyz
x,y,z
-x,1/2-y,z
x,-y,-z
-x,1/2+y,-z
-x,-y,-z
x,1/2+y,-z
-x,y,z
x,1/2-y,z
1/2+x,1/2+y,z
1/2-x,-y,z
1/2+x,1/2-y,-z
1/2-x,y,-z
1/2-x,1/2-y,-z
1/2+x,y,-z
1/2-x,1/2+y,z
1/2+x,-y,z
loop_
_atom_site_type_symbol
_atom_site_label
_atom_site_fract_x
_atom_site_fract_y
_atom_site_fract_z
Si Si1 0.000000 0.928996 0.451797
Si Si2 0.318914 0.067734 0.856876
Si Si3 0.684450 0.428094 0.542437
Si Si4 0.889485 0.569623 0.386391
Si Si5 0.429046 0.932291 0.799197
Si Si6 0.927968 0.575588 0.703605
Si Si7 0.682906 0.429988 0.956800
O O1 0.055733 0.965172 0.419851
O O2 0.000000 0.750000 0.459028
O O3 0.000000 0.000000 0.500000
O O4 0.314687 0.250000 0.850915
O O5 0.338919 0.037973 0.907539
O O6 0.250000 0.000000 0.850230
O O7 0.373505 0.000551 0.827563
O O8 0.650553 0.500000 0.500000
O O9 0.684733 0.250000 0.536521
O O10 0.750000 0.500000 0.541173
O O11 0.661800 0.475498 0.589871
O O12 0.879129 0.750000 0.387042
O O13 0.900882 0.513148 0.337506
O O14 0.500000 0.974425 0.810949
O O15 0.426008 0.750000 0.800753
O O16 0.418733 0.992199 0.749768
O O17 0.906656 0.750000 0.705645
O O18 0.000000 0.578619 0.696235
O O19 0.686133 0.250000 0.962402
O O20 0.750000 0.500000 0.956232
O O21 0.651656 0.500000 0.000000
#
# Coordination Sequence:
#
# PCOD9502667 Si02
#       7
#     8  16  16  16  16  16  16
#     4  10  22  34  50  76 108 138 164 198 247 300
#     4  10  20  34  54  82 115 149 187 234 286 336
#     4  11  22  38  57  78 102 136 175 213 254 305
#     4  11  21  36  55  79 107 138 170 210 256 305
#     4  10  21  37  58  82 109 145 188 233 281 337
#     4  10  20  35  56  81 107 139 177 218 263 317
#     4   9  16  26  44  72 106 144 184 227 275 330
#
# _framework density 17.454077999999999
#
# number of rings (size 3 to 8) (size 9 to 14) (size 15 to 20)
#    0.000    1.846    0.769    5.077    0.000    5.846 
#    0.000    0.769    0.000    0.462    0.000    0.000 
#    0.000    0.000    0.000    0.000    0.000    0.000 
#
# Total GULP energy -289566.457437 kJ/mol
# GULP energy per Si atom -5568.585720 kJ/mol
# Density = 1.741435 g / cm^3
# Si number density = 17.454078 Si / 1000 Ang^3
#
#
#
# Elastic Constant Matrix: (Units=GPa)
#
#
# Indices 1 2 3 4 5 6 
#
# 1 68.8861 47.8741 57.3957 0.0000 0.0000 0.0000
# 2 47.8741 111.2582 70.1421 0.0000 0.0000 0.0000
# 3 57.3957 70.1421 146.5319 0.0000 0.0000 0.0000
# 4 0.0000 0.0000 0.0000 35.2562 0.0000 0.0000
# 5 0.0000 0.0000 0.0000 0.0000 21.5817 0.0000
# 6 0.0000 0.0000 0.0000 0.0000 0.0000 18.5448
#
#
#
# Elastic Compliance Matrix: (Units=1/GPa)
#
#
# Indices 1 2 3 4 5 6 
#
# 1 0.024362 -0.006398 -0.006480 0.000000 0.000000 0.000000
# 2 -0.006398 0.014553 -0.004460 0.000000 0.000000 0.000000
# 3 -0.006480 -0.004460 0.011498 0.000000 0.000000 0.000000
# 4 0.000000 0.000000 0.000000 0.028364 0.000000 0.000000
# 5 0.000000 0.000000 0.000000 0.000000 0.046336 0.000000
# 6 0.000000 0.000000 0.000000 0.000000 0.000000 0.053924
#
#
# Mechanical properties :
#
#
# Convention : Reuss Voigt Hill
#
# Bulk Modulus (GPa) = 63.54547 75.27777 69.41162
# Shear Modulus (GPa) = 22.83550 25.16082 23.99816
#
# Velocity S-wave (km/s) = 3.62099 3.80089 3.71203
# Velocity P-wave (km/s) = 7.34632 7.90474 7.63064
#
# Compressibility (1/GPa) = 0.01573676
#
# Stress axis : x y z
#
# Youngs Moduli (GPa) = 41.04736 68.71449 86.97368
#
# Poissons Ratio (x) = 0.43961 0.56360
# Poissons Ratio (y) = 0.26261 0.38793
# Poissons Ratio (z) = 0.26599 0.30649
#
# Static dielectric constant tensor:
#      x y z
#    x 2.033850 0.000000 0.000000 
#    y 0.000000 1.588500 0.000000 
#    z 0.000000 0.000000 1.607290 
# 
# From -- ./inp_files/44835.got.cif
#   From: 2010.05.17/outbox.cif.g08.bks.cpg/sg67_23_cif.got.tgz:44835.got - 2010.06.03 18:28:57.
