data_PCOD9502050
_publ_section_title
;
Structure prediction by ZEFSAII (Michael W. Deem and Ramdas Pophale) SiO2 
 PCOD9502050
Probable space group: C M M A
;
_chemical_formula_sum "Si O2"
_cell_formula_units_Z 80
_cell_length_a 23.456253
_cell_length_b 18.743996
_cell_length_c 9.701700
_cell_angle_alpha 90.000000
_cell_angle_beta 90.000000
_cell_angle_gamma 90.000000
_cell_volume 4265.487379
_symmetry_space_group_name_H-M "C M M A"
_symmetry_group_IT_number 67
_symmetry_cell_setting 'orthorhombic'
loop_
_space_group_symop_operation_xyz
x,y,z
-x,1/2-y,z
x,-y,-z
-x,1/2+y,-z
-x,-y,-z
x,1/2+y,-z
-x,y,z
x,1/2-y,z
1/2+x,1/2+y,z
1/2-x,-y,z
1/2+x,1/2-y,-z
1/2-x,y,-z
1/2-x,1/2-y,-z
1/2+x,y,-z
1/2-x,1/2+y,z
1/2+x,-y,z
loop_
_atom_site_type_symbol
_atom_site_label
_atom_site_fract_x
_atom_site_fract_y
_atom_site_fract_z
Si Si1 0.000000 0.666586 0.012528
Si Si2 0.184865 0.526788 0.145982
Si Si3 0.615064 0.334065 0.191136
Si Si4 0.000000 0.467184 0.151912
Si Si5 0.398259 0.464148 0.647898
Si Si6 0.566587 0.666390 0.501376
O O1 0.000000 0.617179 0.879023
O O2 0.000000 0.750000 0.978809
O O3 0.942332 0.652357 0.100836
O O4 0.250000 0.500000 0.143042
O O5 0.165293 0.609708 0.157291
O O6 0.158825 0.488153 0.278886
O O7 0.159288 0.500000 0.000000
O O8 0.630160 0.250000 0.172299
O O9 0.596186 0.344178 0.350228
O O10 0.946115 0.486977 0.243322
O O11 0.000000 0.500000 0.000000
O O12 0.407249 0.500000 0.500000
O O13 0.403743 0.380874 0.614548
O O14 0.500000 0.644747 0.511260
O O15 0.568613 0.750000 0.470321
#
# Coordination Sequence:
#
# PCOD9502050 Si02
#       6
#     8  16  16   8  16  16
#     4  10  20  34  59  91 128 163 197 241 302 377
#     4  11  25  45  64  88 123 162 211 267 315 362
#     4  10  19  38  65  94 126 165 205 250 314 381
#     4  12  25  34  55  90 130 162 199 250 308 371
#     4  12  23  38  61  89 121 160 208 256 310 366
#     4  10  20  36  59  91 131 163 196 248 311 377
#
# _framework density 18.755185000000001
#
# number of rings (size 3 to 8) (size 9 to 14) (size 15 to 20)
#    0.000    1.200    4.000    3.300    0.000    1.200 
#    0.000    4.000    0.000    2.400    0.000    0.000 
#    0.000    0.000    0.000    0.000    0.000    0.000 
#
# Total GULP energy -223279.325630 kJ/mol
# GULP energy per Si atom -5581.983141 kJ/mol
# Density = 1.871250 g / cm^3
# Si number density = 18.755185 Si / 1000 Ang^3
#
#
#
# Elastic Constant Matrix: (Units=GPa)
#
#
# Indices 1 2 3 4 5 6 
#
# 1 90.5260 54.1399 37.3491 0.0000 0.0000 0.0000
# 2 54.1399 121.5434 44.3667 0.0000 0.0000 0.0000
# 3 37.3491 44.3667 113.8107 0.0000 0.0000 0.0000
# 4 0.0000 0.0000 0.0000 39.4054 0.0000 0.0000
# 5 0.0000 0.0000 0.0000 0.0000 22.3695 0.0000
# 6 0.0000 0.0000 0.0000 0.0000 0.0000 27.2691
#
#
#
# Elastic Compliance Matrix: (Units=1/GPa)
#
#
# Indices 1 2 3 4 5 6 
#
# 1 0.015812 -0.006004 -0.002849 0.000000 0.000000 0.000000
# 2 -0.006004 0.011872 -0.002658 0.000000 0.000000 0.000000
# 3 -0.002849 -0.002658 0.010757 0.000000 0.000000 0.000000
# 4 0.000000 0.000000 0.000000 0.025377 0.000000 0.000000
# 5 0.000000 0.000000 0.000000 0.000000 0.044704 0.000000
# 6 0.000000 0.000000 0.000000 0.000000 0.000000 0.036672
#
#
# Mechanical properties :
#
#
# Convention : Reuss Voigt Hill
#
# Bulk Modulus (GPa) = 64.84463 66.39905 65.62184
# Shear Modulus (GPa) = 28.84254 30.47709 29.65982
#
# Velocity S-wave (km/s) = 3.92579 4.03550 3.98102
# Velocity P-wave (km/s) = 7.42956 7.56264 7.49640
#
# Compressibility (1/GPa) = 0.01542148
#
# Stress axis : x y z
#
# Youngs Moduli (GPa) = 63.24172 84.23257 92.95842
#
# Poissons Ratio (x) = 0.50569 0.26482
# Poissons Ratio (y) = 0.37967 0.24707
# Poissons Ratio (z) = 0.18016 0.22388
#
# Static dielectric constant tensor:
#      x y z
#    x 1.668030 0.000000 0.000000 
#    y 0.000000 1.716830 0.000000 
#    z 0.000000 0.000000 1.632730 
# 
# From -- ./inp_files/22892.got.cif
#   From: 2010.05.17/outbox.cif.g08.bks.cpg/sg67_12_cif.got.tgz:22892.got - 2010.06.03 18:28:57.
