data_PCOD9502901
_publ_section_title
;
Structure prediction by ZEFSAII (Michael W. Deem and Ramdas Pophale) SiO2 
 PCOD9502901
Probable space group: C M M A
;
_chemical_formula_sum "Si O2"
_cell_formula_units_Z 104
_cell_length_a 26.932525
_cell_length_b 8.741122
_cell_length_c 23.030833
_cell_angle_alpha 90.000000
_cell_angle_beta 90.000000
_cell_angle_gamma 90.000000
_cell_volume 5421.929916
_symmetry_space_group_name_H-M "C M M A"
_symmetry_group_IT_number 67
_symmetry_cell_setting 'orthorhombic'
loop_
_space_group_symop_operation_xyz
x,y,z
-x,1/2-y,z
x,-y,-z
-x,1/2+y,-z
-x,-y,-z
x,1/2+y,-z
-x,y,z
x,1/2-y,z
1/2+x,1/2+y,z
1/2-x,-y,z
1/2+x,1/2-y,-z
1/2-x,y,-z
1/2-x,1/2-y,-z
1/2+x,y,-z
1/2-x,1/2+y,z
1/2+x,-y,z
loop_
_atom_site_type_symbol
_atom_site_label
_atom_site_fract_x
_atom_site_fract_y
_atom_site_fract_z
Si Si1 0.199352 0.067659 0.819296
Si Si2 0.555767 0.067423 0.880374
Si Si3 0.594993 0.433109 0.236454
Si Si4 0.500000 0.565951 0.436184
Si Si5 0.847276 0.566816 0.062072
Si Si6 0.303869 0.934777 0.434969
Si Si7 0.402937 0.565351 0.363827
O O1 0.203131 0.250000 0.820768
O O2 0.151576 0.028291 0.781457
O O3 0.187898 0.014049 0.885045
O O4 0.250000 0.000000 0.796555
O O5 0.500000 0.031425 0.900035
O O6 0.562955 0.250000 0.882359
O O7 0.562578 0.010270 0.814104
O O8 0.597823 0.987446 0.918907
O O9 0.588486 0.250000 0.233431
O O10 0.587865 0.493710 0.300889
O O11 0.500000 0.750000 0.438393
O O12 0.500000 0.500000 0.500000
O O13 0.449565 0.519153 0.403574
O O14 0.846526 0.750000 0.059943
O O15 0.833574 0.500000 0.000000
O O16 0.301194 0.750000 0.437767
O O17 0.350199 0.977766 0.393468
O O18 0.312713 0.000000 0.500000
O O19 0.250000 0.000000 0.415975
O O20 0.402913 0.750000 0.358607
#
# Coordination Sequence:
#
# PCOD9502901 Si02
#       7
#    16  16  16   8  16  16  16
#     4   9  20  37  56  80 110 146 185 229 278 330
#     4  10  21  37  58  81 108 145 184 227 281 334
#     4  10  22  38  56  82 113 144 184 230 276 329
#     4  10  22  40  60  84 116 150 189 234 283 340
#     4  10  21  37  56  82 114 146 187 233 278 333
#     4  10  20  35  56  81 110 145 185 231 283 336
#     4  10  22  38  57  83 114 149 188 233 283 339
#
# _framework density 19.181360999999999
#
# number of rings (size 3 to 8) (size 9 to 14) (size 15 to 20)
#    0.000    2.154    0.000    3.692    1.077    8.000 
#    0.000    4.615    0.000    0.000    0.000    0.000 
#    0.000    0.000    0.000    0.000    0.000    0.000 
#
# Total GULP energy -290351.644721 kJ/mol
# GULP energy per Si atom -5583.685475 kJ/mol
# Density = 1.913770 g / cm^3
# Si number density = 19.181361 Si / 1000 Ang^3
#
#
#
# Elastic Constant Matrix: (Units=GPa)
#
#
# Indices 1 2 3 4 5 6 
#
# 1 60.1475 8.3900 -6.0722 0.0000 0.0000 0.0000
# 2 8.3900 24.3333 3.9975 0.0000 0.0000 0.0000
# 3 -6.0722 3.9975 70.9174 0.0000 0.0000 0.0000
# 4 0.0000 0.0000 0.0000 31.4836 0.0000 0.0000
# 5 0.0000 0.0000 0.0000 0.0000 -4.3003 0.0000
# 6 0.0000 0.0000 0.0000 0.0000 0.0000 23.9031
#
#
#
# Elastic Compliance Matrix: (Units=1/GPa)
#
#
# Indices 1 2 3 4 5 6 
#
# 1 0.017710 -0.006415 0.001878 0.000000 0.000000 0.000000
# 2 -0.006415 0.043804 -0.003018 0.000000 0.000000 0.000000
# 3 0.001878 -0.003018 0.014432 0.000000 0.000000 0.000000
# 4 0.000000 0.000000 0.000000 0.031763 0.000000 0.000000
# 5 0.000000 0.000000 0.000000 0.000000 -0.232544 0.000000
# 6 0.000000 0.000000 0.000000 0.000000 0.000000 0.041836
#
#
# Mechanical properties :
#
#
# Convention : Reuss Voigt Hill
#
# Bulk Modulus (GPa) = 16.43789 18.66988 17.55389
# Shear Modulus (GPa) = -105.01726 20.15616 -42.43055
#
# Velocity S-wave (km/s) = -7.40733 3.24515 -4.70837
# Velocity P-wave (km/s) = 8.03553 4.87810 4.51519
#
# Compressibility (1/GPa) = 0.06083505
#
# Stress axis : x y z
#
# Youngs Moduli (GPa) = 56.46457 22.82913 69.29119
#
# Poissons Ratio (x) = 0.14645 -0.13013
# Poissons Ratio (y) = 0.36222 0.20915
# Poissons Ratio (z) = -0.10604 0.06891
#
# Static dielectric constant tensor:
#      x y z
#    x 1.677370 0.000000 0.000000 
#    y 0.000000 1.647100 0.000000 
#    z 0.000000 0.000000 1.642730 
# 
# From -- ./inp_files/39993.got.cif
#   From: 2010.05.17/outbox.cif.g08.bks.cpg/sg67_20_cif.got.tgz:39993.got - 2010.06.03 18:28:57.
