data_PCOD9502138
_publ_section_title
;
Structure prediction by ZEFSAII (Michael W. Deem and Ramdas Pophale) SiO2 
 PCOD9502138
Probable space group: C M M A
;
_chemical_formula_sum "Si O2"
_cell_formula_units_Z 64
_cell_length_a 8.497373
_cell_length_b 28.146196
_cell_length_c 14.670946
_cell_angle_alpha 90.000000
_cell_angle_beta 90.000000
_cell_angle_gamma 90.000000
_cell_volume 3508.831463
_symmetry_space_group_name_H-M "C M M A"
_symmetry_group_IT_number 67
_symmetry_cell_setting 'orthorhombic'
loop_
_space_group_symop_operation_xyz
x,y,z
-x,1/2-y,z
x,-y,-z
-x,1/2+y,-z
-x,-y,-z
x,1/2+y,-z
-x,y,z
x,1/2-y,z
1/2+x,1/2+y,z
1/2-x,-y,z
1/2+x,1/2-y,-z
1/2-x,y,-z
1/2-x,1/2-y,-z
1/2+x,y,-z
1/2-x,1/2+y,z
1/2+x,-y,z
loop_
_atom_site_type_symbol
_atom_site_label
_atom_site_fract_x
_atom_site_fract_y
_atom_site_fract_z
Si Si1 0.186602 0.553354 0.900464
Si Si2 0.809316 0.196293 0.603109
Si Si3 0.679855 0.193417 0.902461
Si Si4 0.317678 0.628718 0.759257
O O1 0.250000 0.500000 0.887408
O O2 0.237003 0.586171 0.815376
O O3 0.000000 0.552107 0.906588
O O4 0.250000 0.569917 0.000000
O O5 0.760343 0.250000 0.634234
O O6 0.750000 0.191131 0.500000
O O7 0.753916 0.152223 0.665782
O O8 0.000000 0.195609 0.604953
O O9 0.500000 0.175476 0.891337
O O10 0.674885 0.250000 0.896588
O O11 0.795280 0.172637 0.827826
O O12 0.750000 0.180580 0.000000
O O13 0.500000 0.616191 0.746543
#
# Coordination Sequence:
#
# PCOD9502138 Si02
#       4
#    16  16  16  16
#     4  11  22  38  58  81 109 141 178 220 267 317
#     4   9  19  35  55  79 108 142 179 220 265 314
#     4  10  20  32  46  68 100 137 174 212 255 306
#     4  11  21  34  53  77 105 138 176 217 264 316
#
# _framework density 18.239691000000001
#
# number of rings (size 3 to 8) (size 9 to 14) (size 15 to 20)
#    0.000    1.750    0.000    6.000    0.000    4.500 
#    0.000    2.500    0.000    0.750    0.000    5.250 
#    0.000    0.000    0.000    0.000    0.000    0.000 
#
# Total GULP energy -178467.038450 kJ/mol
# GULP energy per Si atom -5577.094952 kJ/mol
# Density = 1.819818 g / cm^3
# Si number density = 18.239691 Si / 1000 Ang^3
#
#
#
# Elastic Constant Matrix: (Units=GPa)
#
#
# Indices 1 2 3 4 5 6 
#
# 1 68.1663 35.2507 12.0756 0.0000 0.0000 0.0000
# 2 35.2507 114.9091 56.8521 0.0000 0.0000 0.0000
# 3 12.0756 56.8521 89.8383 0.0000 0.0000 0.0000
# 4 0.0000 0.0000 0.0000 33.6125 0.0000 0.0000
# 5 0.0000 0.0000 0.0000 0.0000 23.6371 0.0000
# 6 0.0000 0.0000 0.0000 0.0000 0.0000 3.2767
#
#
#
# Elastic Compliance Matrix: (Units=1/GPa)
#
#
# Indices 1 2 3 4 5 6 
#
# 1 0.017579 -0.006149 0.001528 0.000000 0.000000 0.000000
# 2 -0.006149 0.014820 -0.008552 0.000000 0.000000 0.000000
# 3 0.001528 -0.008552 0.016338 0.000000 0.000000 0.000000
# 4 0.000000 0.000000 0.000000 0.029751 0.000000 0.000000
# 5 0.000000 0.000000 0.000000 0.000000 0.042306 0.000000
# 6 0.000000 0.000000 0.000000 0.000000 0.000000 0.305188
#
#
# Mechanical properties :
#
#
# Convention : Reuss Voigt Hill
#
# Bulk Modulus (GPa) = 44.65983 53.47451 49.06717
# Shear Modulus (GPa) = 10.87450 23.35426 17.11438
#
# Velocity S-wave (km/s) = 2.44437 3.58216 3.06650
# Velocity P-wave (km/s) = 5.70129 6.81839 6.28471
#
# Compressibility (1/GPa) = 0.02239149
#
# Stress axis : x y z
#
# Youngs Moduli (GPa) = 56.88598 67.47656 61.20855
#
# Poissons Ratio (x) = 0.41490 -0.09354
# Poissons Ratio (y) = 0.34978 0.52345
# Poissons Ratio (z) = -0.08694 0.57706
#
# Static dielectric constant tensor:
#      x y z
#    x 1.644690 0.000000 0.000000 
#    y 0.000000 1.653630 0.000000 
#    z 0.000000 0.000000 1.653950 
# 
# From -- ./inp_files/15802.got.cif
#   From: 2010.05.17/outbox.cif.g08.bks.cpg/sg67_8_cif.got.tgz:15802.got - 2010.06.03 18:28:57.
