data_PCOD9502751
_publ_section_title
;
Structure prediction by ZEFSAII (Michael W. Deem and Ramdas Pophale) SiO2 
 PCOD9502751
Probable space group: C M M A
;
_chemical_formula_sum "Si O2"
_cell_formula_units_Z 112
_cell_length_a 14.660231
_cell_length_b 14.789696
_cell_length_c 25.174080
_cell_angle_alpha 90.000000
_cell_angle_beta 90.000000
_cell_angle_gamma 90.000000
_cell_volume 5458.253083
_symmetry_space_group_name_H-M "C M M A"
_symmetry_group_IT_number 67
_symmetry_cell_setting 'orthorhombic'
loop_
_space_group_symop_operation_xyz
x,y,z
-x,1/2-y,z
x,-y,-z
-x,1/2+y,-z
-x,-y,-z
x,1/2+y,-z
-x,y,z
x,1/2-y,z
1/2+x,1/2+y,z
1/2-x,-y,z
1/2+x,1/2-y,-z
1/2-x,y,-z
1/2-x,1/2-y,-z
1/2+x,y,-z
1/2-x,1/2+y,z
1/2+x,-y,z
loop_
_atom_site_type_symbol
_atom_site_label
_atom_site_fract_x
_atom_site_fract_y
_atom_site_fract_z
Si Si1 0.646402 0.647827 0.483445
Si Si2 0.891880 0.150439 0.673946
Si Si3 0.892616 0.855270 0.847311
Si Si4 0.893386 0.646158 0.138249
Si Si5 0.765404 0.099981 0.768140
Si Si6 0.603962 0.480121 0.418532
Si Si7 0.892084 0.509304 0.940755
O O1 0.609531 0.750000 0.474381
O O2 0.750000 0.658375 0.500000
O O3 0.647392 0.575165 0.435501
O O4 0.603679 0.590669 0.532146
O O5 0.888842 0.250000 0.648012
O O6 0.822308 0.151091 0.723050
O O7 0.861989 0.074288 0.632352
O O8 0.000000 0.136461 0.689145
O O9 0.888754 0.750000 0.863223
O O10 0.828573 0.866105 0.795254
O O11 0.858727 0.918683 0.896263
O O12 0.000000 0.878010 0.836556
O O13 0.863626 0.750000 0.133844
O O14 0.834682 0.597368 0.182542
O O15 0.884067 0.589335 0.085062
O O16 0.000000 0.645056 0.153186
O O17 0.750000 0.000000 0.747167
O O18 0.500000 0.503934 0.407047
O O19 0.000000 0.532118 0.945988
O O20 0.854126 0.500000 0.000000
#
# Coordination Sequence:
#
# PCOD9502751 Si02
#       7
#    16  16  16  16  16  16  16
#     4  10  20  34  57  87 123 166 207 244 285 344
#     4  10  22  40  62  90 122 154 197 256 313 363
#     4  10  21  38  59  84 118 157 197 239 290 362
#     4  10  20  36  59  86 115 147 192 246 294 347
#     4  12  23  37  61  85 113 154 197 245 301 358
#     4  10  20  35  58  89 123 157 196 244 300 356
#     4   9  18  34  57  87 121 154 191 239 295 353
#
# _framework density 20.519385
#
# number of rings (size 3 to 8) (size 9 to 14) (size 15 to 20)
#    0.000    1.857    1.429    3.857    0.000    5.143 
#    0.000    4.286    0.000    3.429    0.000    0.000 
#    0.000    0.000    0.000    0.000    0.000    0.000 
#
# Total GULP energy -312133.002480 kJ/mol
# GULP energy per Si atom -5573.803616 kJ/mol
# Density = 2.047268 g / cm^3
# Si number density = 20.519385 Si / 1000 Ang^3
#
#
#
# Elastic Constant Matrix: (Units=GPa)
#
#
# Indices 1 2 3 4 5 6 
#
# 1 70.6885 26.6261 42.2459 0.0000 0.0000 0.0000
# 2 26.6261 128.4614 37.6380 0.0000 0.0000 0.0000
# 3 42.2459 37.6380 91.3029 0.0000 0.0000 0.0000
# 4 0.0000 0.0000 0.0000 -2.0930 0.0000 0.0000
# 5 0.0000 0.0000 0.0000 0.0000 -28.7095 0.0000
# 6 0.0000 0.0000 0.0000 0.0000 0.0000 22.7917
#
#
#
# Elastic Compliance Matrix: (Units=1/GPa)
#
#
# Indices 1 2 3 4 5 6 
#
# 1 0.019845 -0.001618 -0.008515 0.000000 0.000000 0.000000
# 2 -0.001618 0.008986 -0.002955 0.000000 0.000000 0.000000
# 3 -0.008515 -0.002955 0.016111 0.000000 0.000000 0.000000
# 4 0.000000 0.000000 0.000000 -0.477793 0.000000 0.000000
# 5 0.000000 0.000000 0.000000 0.000000 -0.034832 0.000000
# 6 0.000000 0.000000 0.000000 0.000000 0.000000 0.043876
#
#
# Mechanical properties :
#
#
# Convention : Reuss Voigt Hill
#
# Bulk Modulus (GPa) = 53.29417 55.94144 54.61780
# Shear Modulus (GPa) = -12.77549 10.66071 -1.05739
#
# Velocity S-wave (km/s) = -2.49791 2.28182 -0.71863
# Velocity P-wave (km/s) = 4.20827 5.85356 5.09773
#
# Compressibility (1/GPa) = 0.01876378
#
# Stress axis : x y z
#
# Youngs Moduli (GPa) = 50.39009 111.28686 62.07000
#
# Poissons Ratio (x) = 0.18011 0.52854
# Poissons Ratio (y) = 0.08155 0.18344
# Poissons Ratio (z) = 0.42908 0.32890
#
# Static dielectric constant tensor:
#      x y z
#    x 1.780920 0.000000 0.000000 
#    y 0.000000 1.767790 0.000000 
#    z 0.000000 0.000000 1.726860 
# 
# From -- ./inp_files/41968.got.cif
#   From: 2010.05.17/outbox.cif.g08.bks.cpg/sg67_21_cif.got.tgz:41968.got - 2010.06.03 18:28:57.
