data_PCOD9502748
_publ_section_title
;
Structure prediction by ZEFSAII (Michael W. Deem and Ramdas Pophale) SiO2 
 PCOD9502748
Probable space group: C M M A
;
_chemical_formula_sum "Si O2"
_cell_formula_units_Z 72
_cell_length_a 8.736747
_cell_length_b 32.631600
_cell_length_c 13.735890
_cell_angle_alpha 90.000000
_cell_angle_beta 90.000000
_cell_angle_gamma 90.000000
_cell_volume 3916.020283
_symmetry_space_group_name_H-M "C M M A"
_symmetry_group_IT_number 67
_symmetry_cell_setting 'orthorhombic'
loop_
_space_group_symop_operation_xyz
x,y,z
-x,1/2-y,z
x,-y,-z
-x,1/2+y,-z
-x,-y,-z
x,1/2+y,-z
-x,y,z
x,1/2-y,z
1/2+x,1/2+y,z
1/2-x,-y,z
1/2+x,1/2-y,-z
1/2-x,y,-z
1/2-x,1/2-y,-z
1/2+x,y,-z
1/2-x,1/2+y,z
1/2+x,-y,z
loop_
_atom_site_type_symbol
_atom_site_label
_atom_site_fract_x
_atom_site_fract_y
_atom_site_fract_z
Si Si1 0.814886 0.664652 0.205283
Si Si2 0.817481 0.373871 0.396830
Si Si3 0.684603 0.250000 0.108026
Si Si4 0.183103 0.080624 0.896224
Si Si5 0.315957 0.543751 0.690144
O O1 0.740528 0.654487 0.308715
O O2 0.768833 0.708494 0.163160
O O3 0.772097 0.627254 0.132886
O O4 0.000000 0.663376 0.215631
O O5 0.750000 0.360439 0.500000
O O6 0.752308 0.419075 0.372119
O O7 0.000000 0.374992 0.399751
O O8 0.500000 0.250000 0.103056
O O9 0.750000 0.250000 0.000000
O O10 0.227922 0.053291 0.802989
O O11 0.000000 0.079322 0.902980
O O12 0.250000 0.068526 0.000000
O O13 0.500000 0.544510 0.683272
O O14 0.250000 0.500000 0.660833
#
# Coordination Sequence:
#
# PCOD9502748 Si02
#       5
#    16  16   8  16  16
#     4   9  19  36  54  79 112 145 181 224 268 316
#     4  11  22  38  60  82 105 139 178 222 273 326
#     4  10  20  34  57  86 119 152 183 222 268 316
#     4   9  18  31  49  72 104 142 180 219 262 313
#     4  10  21  37  54  78 109 140 178 225 270 319
#
# _framework density 18.386013999999999
#
# number of rings (size 3 to 8) (size 9 to 14) (size 15 to 20)
#    0.000    2.222    0.000    4.667    0.000    6.222 
#    0.000    5.000    0.000    0.000    0.000    0.000 
#    0.000    0.000    0.000    0.000    0.000    0.000 
#
# Total GULP energy -201032.441379 kJ/mol
# GULP energy per Si atom -5584.234483 kJ/mol
# Density = 1.834417 g / cm^3
# Si number density = 18.386014 Si / 1000 Ang^3
#
#
#
# Elastic Constant Matrix: (Units=GPa)
#
#
# Indices 1 2 3 4 5 6 
#
# 1 54.4777 25.7192 30.1534 0.0000 0.0000 0.0000
# 2 25.7192 99.9446 21.9958 0.0000 0.0000 0.0000
# 3 30.1534 21.9958 98.7789 0.0000 0.0000 0.0000
# 4 0.0000 0.0000 0.0000 5.0404 0.0000 0.0000
# 5 0.0000 0.0000 0.0000 0.0000 33.6543 0.0000
# 6 0.0000 0.0000 0.0000 0.0000 0.0000 11.8545
#
#
#
# Elastic Compliance Matrix: (Units=1/GPa)
#
#
# Indices 1 2 3 4 5 6 
#
# 1 0.024112 -0.004821 -0.006287 0.000000 0.000000 0.000000
# 2 -0.004821 0.011485 -0.001086 0.000000 0.000000 0.000000
# 3 -0.006287 -0.001086 0.012285 0.000000 0.000000 0.000000
# 4 0.000000 0.000000 0.000000 0.198395 0.000000 0.000000
# 5 0.000000 0.000000 0.000000 0.000000 0.029714 0.000000
# 6 0.000000 0.000000 0.000000 0.000000 0.000000 0.084356
#
#
# Mechanical properties :
#
#
# Convention : Reuss Voigt Hill
#
# Bulk Modulus (GPa) = 42.56408 45.43755 44.00082
# Shear Modulus (GPa) = 12.73671 21.79872 17.26772
#
# Velocity S-wave (km/s) = 2.63485 3.44701 3.06792
# Velocity P-wave (km/s) = 5.69711 6.37254 6.04427
#
# Compressibility (1/GPa) = 0.02349399
#
# Stress axis : x y z
#
# Youngs Moduli (GPa) = 41.47306 87.06885 81.40317
#
# Poissons Ratio (x) = 0.41978 0.51177
# Poissons Ratio (y) = 0.19995 0.08838
# Poissons Ratio (z) = 0.26074 0.09454
#
# Static dielectric constant tensor:
#      x y z
#    x 1.599210 0.000000 0.000000 
#    y 0.000000 1.624880 0.000000 
#    z 0.000000 0.000000 1.617110 
# 
# From -- ./inp_files/25291.got.cif
#   From: 2010.05.17/outbox.cif.g08.bks.cpg/sg67_13_cif.got.tgz:25291.got - 2010.06.03 18:28:57.
