data_PCOD9502732
_publ_section_title
;
Structure prediction by ZEFSAII (Michael W. Deem and Ramdas Pophale) SiO2 
 PCOD9502732
Probable space group: C M M A
;
_chemical_formula_sum "Si O2"
_cell_formula_units_Z 96
_cell_length_a 22.487230
_cell_length_b 19.906755
_cell_length_c 12.035028
_cell_angle_alpha 90.000000
_cell_angle_beta 90.000000
_cell_angle_gamma 90.000000
_cell_volume 5387.453545
_symmetry_space_group_name_H-M "C M M A"
_symmetry_group_IT_number 67
_symmetry_cell_setting 'orthorhombic'
loop_
_space_group_symop_operation_xyz
x,y,z
-x,1/2-y,z
x,-y,-z
-x,1/2+y,-z
-x,-y,-z
x,1/2+y,-z
-x,y,z
x,1/2-y,z
1/2+x,1/2+y,z
1/2-x,-y,z
1/2+x,1/2-y,-z
1/2-x,y,-z
1/2-x,1/2-y,-z
1/2+x,y,-z
1/2-x,1/2+y,z
1/2+x,-y,z
loop_
_atom_site_type_symbol
_atom_site_label
_atom_site_fract_x
_atom_site_fract_y
_atom_site_fract_z
Si Si1 0.429101 0.443143 0.415721
Si Si2 0.069044 0.329754 0.416672
Si Si3 0.759095 0.077981 0.867634
Si Si4 0.107838 0.449901 0.838920
Si Si5 0.346504 0.328922 0.790416
Si Si6 0.068564 0.592618 0.932140
O O1 0.404942 0.500000 0.500000
O O2 0.500000 0.451202 0.413068
O O3 0.416351 0.372063 0.473864
O O4 0.409663 0.448734 0.289054
O O5 0.071834 0.250000 0.435021
O O6 0.115316 0.347042 0.319394
O O7 0.000000 0.346032 0.385001
O O8 0.828641 0.086299 0.846326
O O9 0.712550 0.126690 0.807432
O O10 0.750000 0.000000 0.836342
O O11 0.750000 0.084529 0.000000
O O12 0.103278 0.527668 0.880722
O O13 0.069127 0.414319 0.934735
O O14 0.332286 0.250000 0.787266
O O15 0.392764 0.345354 0.889607
O O16 0.000000 0.592413 0.893837
#
# Coordination Sequence:
#
# PCOD9502732 Si02
#       6
#    16  16  16  16  16  16
#     4  10  20  34  56  87 116 147 193 244 288 340
#     4   9  19  37  59  82 115 156 190 229 288 348
#     4  11  20  39  60  81 113 157 196 234 289 347
#     4  11  20  36  58  86 116 151 197 241 291 347
#     4  11  22  37  59  87 116 152 199 243 286 343
#     4  11  20  34  58  88 120 151 185 240 305 355
#
# _framework density 17.819178999999998
#
# number of rings (size 3 to 8) (size 9 to 14) (size 15 to 20)
#    0.000    1.500    3.333    4.500    0.000    2.667 
#    0.000    2.500    0.000    4.000    0.000    0.000 
#    0.000    0.000    0.000    0.000    0.000    0.000 
#
# Total GULP energy -267554.638412 kJ/mol
# GULP energy per Si atom -5574.054967 kJ/mol
# Density = 1.777862 g / cm^3
# Si number density = 17.819179 Si / 1000 Ang^3
#
#
#
# Elastic Constant Matrix: (Units=GPa)
#
#
# Indices 1 2 3 4 5 6 
#
# 1 104.8272 48.1690 40.1936 0.0000 0.0000 0.0000
# 2 48.1690 62.0460 51.5158 0.0000 0.0000 0.0000
# 3 40.1936 51.5158 140.0058 0.0000 0.0000 0.0000
# 4 0.0000 0.0000 0.0000 25.3606 0.0000 0.0000
# 5 0.0000 0.0000 0.0000 0.0000 14.2557 0.0000
# 6 0.0000 0.0000 0.0000 0.0000 0.0000 16.2886
#
#
#
# Elastic Compliance Matrix: (Units=1/GPa)
#
#
# Indices 1 2 3 4 5 6 
#
# 1 0.014830 -0.011488 -0.000030 0.000000 0.000000 0.000000
# 2 -0.011488 0.032106 -0.008516 0.000000 0.000000 0.000000
# 3 -0.000030 -0.008516 0.010285 0.000000 0.000000 0.000000
# 4 0.000000 0.000000 0.000000 0.039431 0.000000 0.000000
# 5 0.000000 0.000000 0.000000 0.000000 0.070147 0.000000
# 6 0.000000 0.000000 0.000000 0.000000 0.000000 0.061393
#
#
# Mechanical properties :
#
#
# Convention : Reuss Voigt Hill
#
# Bulk Modulus (GPa) = 58.29945 65.18176 61.74060
# Shear Modulus (GPa) = 18.24970 22.31435 20.28203
#
# Velocity S-wave (km/s) = 3.20372 3.54258 3.37740
# Velocity P-wave (km/s) = 6.81714 7.30699 7.06631
#
# Compressibility (1/GPa) = 0.01715282
#
# Stress axis : x y z
#
# Youngs Moduli (GPa) = 67.43105 31.14689 97.23241
#
# Poissons Ratio (x) = 0.35781 0.00296
# Poissons Ratio (y) = 0.77464 0.82799
# Poissons Ratio (z) = 0.00205 0.26523
#
# Static dielectric constant tensor:
#      x y z
#    x 1.640870 0.000000 0.000000 
#    y 0.000000 1.631710 0.000000 
#    z 0.000000 0.000000 1.611140 
# 
# From -- ./inp_files/20877.got.cif
#   From: 2010.05.17/outbox.cif.g08.bks.cpg/sg67_11_cif.got.tgz:20877.got - 2010.06.03 18:28:57.
