data_PCOD9502341
_publ_section_title
;
Structure prediction by ZEFSAII (Michael W. Deem and Ramdas Pophale) SiO2 
 PCOD9502341
Probable space group: C M M A
;
_chemical_formula_sum "Si O2"
_cell_formula_units_Z 80
_cell_length_a 18.709316
_cell_length_b 7.818926
_cell_length_c 27.321154
_cell_angle_alpha 90.000000
_cell_angle_beta 90.000000
_cell_angle_gamma 90.000000
_cell_volume 3996.723025
_symmetry_space_group_name_H-M "C M M A"
_symmetry_group_IT_number 67
_symmetry_cell_setting 'orthorhombic'
loop_
_space_group_symop_operation_xyz
x,y,z
-x,1/2-y,z
x,-y,-z
-x,1/2+y,-z
-x,-y,-z
x,1/2+y,-z
-x,y,z
x,1/2-y,z
1/2+x,1/2+y,z
1/2-x,-y,z
1/2+x,1/2-y,-z
1/2-x,y,-z
1/2-x,1/2-y,-z
1/2+x,y,-z
1/2-x,1/2+y,z
1/2+x,-y,z
loop_
_atom_site_type_symbol
_atom_site_label
_atom_site_fract_x
_atom_site_fract_y
_atom_site_fract_z
Si Si1 0.165951 0.047672 0.947293
Si Si2 0.167014 0.544019 0.351182
Si Si3 0.918011 0.455809 0.554273
Si Si4 0.333821 0.543521 0.840963
Si Si5 0.417501 0.459600 0.254910
O O1 0.161096 0.250000 0.944891
O O2 0.140343 0.979227 0.894553
O O3 0.250000 0.000000 0.948794
O O4 0.133793 0.000000 0.000000
O O5 0.161030 0.750000 0.351406
O O6 0.250000 0.500000 0.349031
O O7 0.130014 0.480055 0.401049
O O8 0.125284 0.482862 0.302966
O O9 0.891295 0.500000 0.500000
O O10 0.920365 0.250000 0.557456
O O11 0.000000 0.518966 0.558556
O O12 0.339224 0.750000 0.841164
O O13 0.250000 0.500000 0.835534
O O14 0.378693 0.481329 0.794663
O O15 0.500000 0.511688 0.256721
O O16 0.416321 0.250000 0.254766
#
# Coordination Sequence:
#
# PCOD9502341 Si02
#       5
#    16  16  16  16  16
#     4   9  15  23  37  60  88 116 147 182 222 267
#     4  10  20  33  51  74  98 124 155 193 235 277
#     4   9  18  33  52  73  97 127 162 195 228 270
#     4   9  17  28  45  69  93 118 150 189 231 273
#     4   9  17  31  51  71  91 119 156 194 230 273
#
# _framework density 20.016397999999999
#
# number of rings (size 3 to 8) (size 9 to 14) (size 15 to 20)
#    0.000    2.800    0.000    2.400    0.000    4.400 
#    0.000    2.000    0.000    4.200    0.000    0.000 
#    0.000    0.000    0.000    0.000    0.000    5.400 
#
# Total GULP energy -222998.727093 kJ/mol
# GULP energy per Si atom -5574.968177 kJ/mol
# Density = 1.997084 g / cm^3
# Si number density = 20.016398 Si / 1000 Ang^3
#
#
#
# Elastic Constant Matrix: (Units=GPa)
#
#
# Indices 1 2 3 4 5 6 
#
# 1 107.3837 1.1328 116.9424 0.0000 0.0000 0.0000
# 2 1.1328 22.9989 14.7807 0.0000 0.0000 0.0000
# 3 116.9424 14.7807 268.3959 0.0000 0.0000 0.0000
# 4 0.0000 0.0000 0.0000 23.9337 0.0000 0.0000
# 5 0.0000 0.0000 0.0000 0.0000 -22.2378 0.0000
# 6 0.0000 0.0000 0.0000 0.0000 0.0000 15.7861
#
#
#
# Elastic Compliance Matrix: (Units=1/GPa)
#
#
# Indices 1 2 3 4 5 6 
#
# 1 0.018129 0.004337 -0.008138 0.000000 0.000000 0.000000
# 2 0.004337 0.046113 -0.004429 0.000000 0.000000 0.000000
# 3 -0.008138 -0.004429 0.007515 0.000000 0.000000 0.000000
# 4 0.000000 0.000000 0.000000 0.041782 0.000000 0.000000
# 5 0.000000 0.000000 0.000000 0.000000 -0.044968 0.000000
# 6 0.000000 0.000000 0.000000 0.000000 0.000000 0.063347
#
#
# Mechanical properties :
#
#
# Convention : Reuss Voigt Hill
#
# Bulk Modulus (GPa) = 18.08401 73.83227 45.95814
# Shear Modulus (GPa) = 29.97422 21.22456 25.59939
#
# Velocity S-wave (km/s) = 3.87393 3.25985 3.58008
# Velocity P-wave (km/s) = 5.39110 7.15086 6.33241
#
# Compressibility (1/GPa) = 0.05529747
#
# Stress axis : x y z
#
# Youngs Moduli (GPa) = 55.16119 21.68581 133.06003
#
# Poissons Ratio (x) = -0.09405 1.08280
# Poissons Ratio (y) = -0.23923 0.58934
# Poissons Ratio (z) = 0.44888 0.09605
#
# Static dielectric constant tensor:
#      x y z
#    x 1.658460 0.000000 0.000000 
#    y 0.000000 1.740930 0.000000 
#    z 0.000000 0.000000 1.756220 
# 
# From -- ./inp_files/43318.got.cif
#   From: 2010.05.17/outbox.cif.g08.bks.cpg/sg67_22_cif.got.tgz:43318.got - 2010.06.03 18:28:57.
