data_PCOD9502411
_publ_section_title
;
Structure prediction by ZEFSAII (Michael W. Deem and Ramdas Pophale) SiO2 
 PCOD9502411
Probable space group: C M M A
;
_chemical_formula_sum "Si O2"
_cell_formula_units_Z 80
_cell_length_a 8.825165
_cell_length_b 24.230312
_cell_length_c 20.769746
_cell_angle_alpha 90.000000
_cell_angle_beta 90.000000
_cell_angle_gamma 90.000000
_cell_volume 4441.329820
_symmetry_space_group_name_H-M "C M M A"
_symmetry_group_IT_number 67
_symmetry_cell_setting 'orthorhombic'
loop_
_space_group_symop_operation_xyz
x,y,z
-x,1/2-y,z
x,-y,-z
-x,1/2+y,-z
-x,-y,-z
x,1/2+y,-z
-x,y,z
x,1/2-y,z
1/2+x,1/2+y,z
1/2-x,-y,z
1/2+x,1/2-y,-z
1/2-x,y,-z
1/2-x,1/2-y,-z
1/2+x,y,-z
1/2-x,1/2+y,z
1/2+x,-y,z
loop_
_atom_site_type_symbol
_atom_site_label
_atom_site_fract_x
_atom_site_fract_y
_atom_site_fract_z
Si Si1 0.326479 0.750000 0.754672
Si Si2 0.173050 0.750000 0.091347
Si Si3 0.181548 0.358774 0.304393
Si Si4 0.818857 0.814442 0.429932
Si Si5 0.181599 0.131833 0.066002
Si Si6 0.317267 0.439285 0.808652
O O1 0.500000 0.750000 0.729408
O O2 0.332281 0.750000 0.831393
O O3 0.239610 0.696122 0.731181
O O4 0.257437 0.805790 0.071767
O O5 0.000000 0.750000 0.066420
O O6 0.252983 0.354110 0.375103
O O7 0.227965 0.409090 0.257922
O O8 0.000000 0.358232 0.309230
O O9 0.779271 0.750000 0.414231
O O10 0.750000 0.826023 0.500000
O O11 0.000000 0.818268 0.432091
O O12 0.228368 0.097844 0.129691
O O13 0.000000 0.132182 0.062679
O O14 0.250000 0.107887 0.000000
O O15 0.500000 0.442040 0.809345
O O16 0.250000 0.500000 0.813282
#
# Coordination Sequence:
#
# PCOD9502411 Si02
#       6
#     8   8  16  16  16  16
#     4  11  21  32  53  86 115 147 188 229 281 340
#     4  11  22  36  57  86 117 151 186 229 283 342
#     4  11  21  36  58  84 116 152 188 233 285 336
#     4  10  20  33  52  84 122 158 192 225 274 334
#     4  11  23  40  59  84 115 150 188 232 287 345
#     4  10  24  42  61  83 109 146 193 240 289 337
#
# _framework density 18.012623999999999
#
# number of rings (size 3 to 8) (size 9 to 14) (size 15 to 20)
#    0.000    1.400    3.000    2.700    0.000    5.200 
#    0.000    2.000    0.000    0.600    0.000    4.200 
#    0.000    0.000    0.000    0.000    0.000    0.000 
#
# Total GULP energy -223472.127235 kJ/mol
# GULP energy per Si atom -5586.803181 kJ/mol
# Density = 1.797163 g / cm^3
# Si number density = 18.012624 Si / 1000 Ang^3
#
#
#
# Elastic Constant Matrix: (Units=GPa)
#
#
# Indices 1 2 3 4 5 6 
#
# 1 65.5736 35.2411 51.7029 0.0000 0.0000 0.0000
# 2 35.2411 114.6918 65.7234 0.0000 0.0000 0.0000
# 3 51.7029 65.7234 161.2719 0.0000 0.0000 0.0000
# 4 0.0000 0.0000 0.0000 8.6475 0.0000 0.0000
# 5 0.0000 0.0000 0.0000 0.0000 35.1799 0.0000
# 6 0.0000 0.0000 0.0000 0.0000 0.0000 27.8881
#
#
#
# Elastic Compliance Matrix: (Units=1/GPa)
#
#
# Indices 1 2 3 4 5 6 
#
# 1 0.021407 -0.003451 -0.005457 0.000000 0.000000 0.000000
# 2 -0.003451 0.011932 -0.003756 0.000000 0.000000 0.000000
# 3 -0.005457 -0.003756 0.009481 0.000000 0.000000 0.000000
# 4 0.000000 0.000000 0.000000 0.115641 0.000000 0.000000
# 5 0.000000 0.000000 0.000000 0.000000 0.028425 0.000000
# 6 0.000000 0.000000 0.000000 0.000000 0.000000 0.035858
#
#
# Mechanical properties :
#
#
# Convention : Reuss Voigt Hill
#
# Bulk Modulus (GPa) = 57.16812 71.87467 64.52139
# Shear Modulus (GPa) = 19.69266 26.93443 23.31355
#
# Velocity S-wave (km/s) = 3.31005 3.87112 3.60153
# Velocity P-wave (km/s) = 6.81288 7.74401 7.29332
#
# Compressibility (1/GPa) = 0.01749227
#
# Stress axis : x y z
#
# Youngs Moduli (GPa) = 46.71360 83.80927 105.47517
#
# Poissons Ratio (x) = 0.28921 0.57554
# Poissons Ratio (y) = 0.16120 0.39620
# Poissons Ratio (z) = 0.25490 0.31481
#
# Static dielectric constant tensor:
#      x y z
#    x 1.608610 0.000000 0.000000 
#    y 0.000000 1.582200 0.000000 
#    z 0.000000 0.000000 1.645730 
# 
# From -- ./inp_files/36884.got.cif
#   From: 2010.05.17/outbox.cif.g08.bks.cpg/sg67_19_cif.got.tgz:36884.got - 2010.06.03 18:28:57.
