data_PCOD9502328
_publ_section_title
;
Structure prediction by ZEFSAII (Michael W. Deem and Ramdas Pophale) SiO2 
 PCOD9502328
Probable space group: C M M A
;
_chemical_formula_sum "Si O2"
_cell_formula_units_Z 96
_cell_length_a 16.189271
_cell_length_b 24.859954
_cell_length_c 14.530124
_cell_angle_alpha 90.000000
_cell_angle_beta 90.000000
_cell_angle_gamma 90.000000
_cell_volume 5847.859561
_symmetry_space_group_name_H-M "C M M A"
_symmetry_group_IT_number 67
_symmetry_cell_setting 'orthorhombic'
loop_
_space_group_symop_operation_xyz
x,y,z
-x,1/2-y,z
x,-y,-z
-x,1/2+y,-z
-x,-y,-z
x,1/2+y,-z
-x,y,z
x,1/2-y,z
1/2+x,1/2+y,z
1/2-x,-y,z
1/2+x,1/2-y,-z
1/2-x,y,-z
1/2-x,1/2-y,-z
1/2+x,y,-z
1/2-x,1/2+y,z
1/2+x,-y,z
loop_
_atom_site_type_symbol
_atom_site_label
_atom_site_fract_x
_atom_site_fract_y
_atom_site_fract_z
Si Si1 0.836015 0.113944 0.385932
Si Si2 0.840241 0.684451 0.967214
Si Si3 0.094396 0.999395 0.611328
Si Si4 0.500000 0.184675 0.084080
Si Si5 0.403086 0.688049 0.229649
Si Si6 0.500000 0.685378 0.699994
Si Si7 0.143255 0.880471 0.397255
O O1 0.885636 0.151052 0.316437
O O2 0.866178 0.120894 0.491484
O O3 0.739837 0.129334 0.379960
O O4 0.849594 0.051116 0.361469
O O5 0.841244 0.750000 0.969079
O O6 0.856006 0.669009 0.861601
O O7 0.750000 0.666718 0.000000
O O8 0.916773 0.666699 0.031303
O O9 0.122959 0.059058 0.637116
O O10 0.000000 0.990089 0.641380
O O11 0.095223 0.000000 0.500000
O O12 0.500000 0.250000 0.080046
O O13 0.500000 0.170437 0.191745
O O14 0.500000 0.687872 0.206956
O O15 0.379212 0.750000 0.249417
O O16 0.500000 0.750000 0.692474
O O17 0.580461 0.660192 0.650892
#
# Coordination Sequence:
#
# PCOD9502328 Si02
#       7
#    16  16  16   8  16   8  16
#     4  10  21  33  54  78 105 138 178 220 262 307
#     4   9  17  31  52  73  97 130 171 222 270 309
#     4   9  16  31  56  77  99 130 174 224 268 298
#     4   9  18  34  51  71  97 131 175 218 257 305
#     4  10  20  33  50  76 108 138 171 214 268 325
#     4  11  24  36  52  73 107 149 182 210 254 321
#     4  10  21  37  50  75 108 141 179 219 256 304
#
# _framework density 16.416263000000001
#
# number of rings (size 3 to 8) (size 9 to 14) (size 15 to 20)
#    0.000    2.333    1.667    1.000    4.667    3.333 
#    0.000    1.667    0.000    0.000    0.000    2.333 
#    0.000    0.000    0.000    0.000    0.000    0.000 
#
# Total GULP energy -267529.746928 kJ/mol
# GULP energy per Si atom -5573.536394 kJ/mol
# Density = 1.637890 g / cm^3
# Si number density = 16.416263 Si / 1000 Ang^3
#
#
#
# Elastic Constant Matrix: (Units=GPa)
#
#
# Indices 1 2 3 4 5 6 
#
# 1 88.4870 20.9829 40.5580 0.0000 0.0000 0.0000
# 2 20.9829 58.4685 29.2998 0.0000 0.0000 0.0000
# 3 40.5580 29.2998 67.2935 0.0000 0.0000 0.0000
# 4 0.0000 0.0000 0.0000 -4.4611 0.0000 0.0000
# 5 0.0000 0.0000 0.0000 0.0000 24.2141 0.0000
# 6 0.0000 0.0000 0.0000 0.0000 0.0000 15.8618
#
#
#
# Elastic Compliance Matrix: (Units=1/GPa)
#
#
# Indices 1 2 3 4 5 6 
#
# 1 0.015674 -0.001140 -0.008950 0.000000 0.000000 0.000000
# 2 -0.001140 0.021959 -0.008874 0.000000 0.000000 0.000000
# 3 -0.008950 -0.008874 0.024119 0.000000 0.000000 0.000000
# 4 0.000000 0.000000 0.000000 -0.224158 0.000000 0.000000
# 5 0.000000 0.000000 0.000000 0.000000 0.041298 0.000000
# 6 0.000000 0.000000 0.000000 0.000000 0.000000 0.063045
#
#
# Mechanical properties :
#
#
# Convention : Reuss Voigt Hill
#
# Bulk Modulus (GPa) = 41.97630 43.99226 42.98428
# Shear Modulus (GPa) = -410.04846 15.35017 -197.34914
#
# Velocity S-wave (km/s) = -15.82163 3.06119 -10.97618
# Velocity P-wave (km/s) = 17.55392 6.27301 11.59287
#
# Compressibility (1/GPa) = 0.02382297
#
# Stress axis : x y z
#
# Youngs Moduli (GPa) = 63.80089 45.53883 41.46179
#
# Poissons Ratio (x) = 0.05190 0.37110
# Poissons Ratio (y) = 0.07271 0.36794
# Poissons Ratio (z) = 0.57104 0.40412
#
# Static dielectric constant tensor:
#      x y z
#    x 1.569420 0.000000 0.000000 
#    y 0.000000 1.541280 0.000000 
#    z 0.000000 0.000000 1.534410 
# 
# From -- ./inp_files/27424.got.cif
#   From: 2010.05.17/outbox.cif.g08.bks.cpg/sg67_14_cif.got.tgz:27424.got - 2010.06.03 18:28:57.
