data_PCOD9502155
_publ_section_title
;
Structure prediction by ZEFSAII (Michael W. Deem and Ramdas Pophale) SiO2 
 PCOD9502155
Probable space group: C M M A
;
_chemical_formula_sum "Si O2"
_cell_formula_units_Z 96
_cell_length_a 14.959484
_cell_length_b 13.737118
_cell_length_c 21.394047
_cell_angle_alpha 90.000000
_cell_angle_beta 90.000000
_cell_angle_gamma 90.000000
_cell_volume 4396.480872
_symmetry_space_group_name_H-M "C M M A"
_symmetry_group_IT_number 67
_symmetry_cell_setting 'orthorhombic'
loop_
_space_group_symop_operation_xyz
x,y,z
-x,1/2-y,z
x,-y,-z
-x,1/2+y,-z
-x,-y,-z
x,1/2+y,-z
-x,y,z
x,1/2-y,z
1/2+x,1/2+y,z
1/2-x,-y,z
1/2+x,1/2-y,-z
1/2-x,y,-z
1/2-x,1/2-y,-z
1/2+x,y,-z
1/2-x,1/2+y,z
1/2+x,-y,z
loop_
_atom_site_type_symbol
_atom_site_label
_atom_site_fract_x
_atom_site_fract_y
_atom_site_fract_z
Si Si1 0.142397 0.508646 0.894148
Si Si2 0.353686 0.361169 0.522639
Si Si3 0.404056 0.869701 0.611224
Si Si4 0.858644 0.358423 0.990322
Si Si5 0.397986 0.363216 0.775733
Si Si6 0.790978 0.368547 0.347119
O O1 0.250000 0.500000 0.889261
O O2 0.116713 0.404395 0.923383
O O3 0.109900 0.559132 0.831346
O O4 0.112132 0.578448 0.950787
O O5 0.386256 0.250000 0.528705
O O6 0.250000 0.358686 0.500000
O O7 0.400668 0.402587 0.461420
O O8 0.348415 0.402249 0.592524
O O9 0.500000 0.898559 0.638966
O O10 0.401569 0.750000 0.609996
O O11 0.312235 0.899475 0.644890
O O12 0.890911 0.250000 0.995268
O O13 0.750000 0.359411 0.000000
O O14 0.500000 0.362252 0.752903
O O15 0.377365 0.250000 0.795666
O O16 0.333466 0.391442 0.719088
O O17 0.791172 0.250000 0.351608
#
# Coordination Sequence:
#
# PCOD9502155 Si02
#       6
#    16  16  16  16  16  16
#     4   9  17  30  51  77 104 137 178 227 276 321
#     4   7  10  17  29  48  79 121 170 224 278 329
#     4   8  12  18  32  55  84 123 174 234 295 346
#     4   8  14  27  50  80 109 136 172 220 275 331
#     4  10  20  32  47  70 105 152 199 235 268 318
#     4   8  14  24  36  55  90 137 187 233 276 328
#
# _framework density 21.835646000000001
#
# number of rings (size 3 to 8) (size 9 to 14) (size 15 to 20)
#    0.000    3.667    0.000    3.500    0.000    1.333 
#    0.000    5.000    0.000    2.500    0.000    0.000 
#    0.000    6.000    0.000   23.500    0.000   24.667 
#
# Total GULP energy -267529.482122 kJ/mol
# GULP energy per Si atom -5573.530878 kJ/mol
# Density = 2.178595 g / cm^3
# Si number density = 21.835646 Si / 1000 Ang^3
#
#
#
# Elastic Constant Matrix: (Units=GPa)
#
#
# Indices 1 2 3 4 5 6 
#
# 1 110.2246 13.4628 51.1829 0.0000 0.0000 0.0000
# 2 13.4628 80.5030 32.4080 0.0000 0.0000 0.0000
# 3 51.1829 32.4080 130.3733 0.0000 0.0000 0.0000
# 4 0.0000 0.0000 0.0000 28.4999 0.0000 0.0000
# 5 0.0000 0.0000 0.0000 0.0000 6.2353 0.0000
# 6 0.0000 0.0000 0.0000 0.0000 0.0000 1.5928
#
#
#
# Elastic Compliance Matrix: (Units=1/GPa)
#
#
# Indices 1 2 3 4 5 6 
#
# 1 0.011096 -0.000113 -0.004328 0.000000 0.000000 0.000000
# 2 -0.000113 0.013804 -0.003387 0.000000 0.000000 0.000000
# 3 -0.004328 -0.003387 0.010211 0.000000 0.000000 0.000000
# 4 0.000000 0.000000 0.000000 0.035088 0.000000 0.000000
# 5 0.000000 0.000000 0.000000 0.000000 0.160378 0.000000
# 6 0.000000 0.000000 0.000000 0.000000 0.000000 0.627812
#
#
# Mechanical properties :
#
#
# Convention : Reuss Voigt Hill
#
# Bulk Modulus (GPa) = 51.40042 57.24535 54.32288
# Shear Modulus (GPa) = 5.67839 22.20208 13.94024
#
# Velocity S-wave (km/s) = 1.61436 3.19216 2.52943
# Velocity P-wave (km/s) = 5.20247 6.31347 5.78470
#
# Compressibility (1/GPa) = 0.01945510
#
# Stress axis : x y z
#
# Youngs Moduli (GPa) = 90.12324 72.44100 97.93058
#
# Poissons Ratio (x) = 0.00821 0.42384
# Poissons Ratio (y) = 0.01021 0.33169
# Poissons Ratio (z) = 0.39005 0.24536
#
# Static dielectric constant tensor:
#      x y z
#    x 1.838210 0.000000 0.000000 
#    y 0.000000 1.853930 0.000000 
#    z 0.000000 0.000000 1.753980 
# 
# From -- ./inp_files/38402.got.cif
#   From: 2010.05.17/outbox.cif.g08.bks.cpg/sg67_20_cif.got.tgz:38402.got - 2010.06.03 18:28:57.
