data_PCOD9502314
_publ_section_title
;
Structure prediction by ZEFSAII (Michael W. Deem and Ramdas Pophale) SiO2 
 PCOD9502314
Probable space group: C M M A
;
_chemical_formula_sum "Si O2"
_cell_formula_units_Z 96
_cell_length_a 8.933660
_cell_length_b 15.396051
_cell_length_c 32.574418
_cell_angle_alpha 90.000000
_cell_angle_beta 90.000000
_cell_angle_gamma 90.000000
_cell_volume 4480.385943
_symmetry_space_group_name_H-M "C M M A"
_symmetry_group_IT_number 67
_symmetry_cell_setting 'orthorhombic'
loop_
_space_group_symop_operation_xyz
x,y,z
-x,1/2-y,z
x,-y,-z
-x,1/2+y,-z
-x,-y,-z
x,1/2+y,-z
-x,y,z
x,1/2-y,z
1/2+x,1/2+y,z
1/2-x,-y,z
1/2+x,1/2-y,-z
1/2-x,y,-z
1/2-x,1/2-y,-z
1/2+x,y,-z
1/2-x,1/2+y,z
1/2+x,-y,z
loop_
_atom_site_type_symbol
_atom_site_label
_atom_site_fract_x
_atom_site_fract_y
_atom_site_fract_z
Si Si1 0.178054 0.404349 0.795012
Si Si2 0.176981 0.355050 0.541601
Si Si3 0.833599 0.853097 0.712981
Si Si4 0.674878 0.856378 0.631292
Si Si5 0.831945 0.147046 0.959731
Si Si6 0.678897 0.403836 0.876553
O O1 0.250000 0.500000 0.793494
O O2 0.226111 0.364864 0.751723
O O3 0.252151 0.361377 0.835371
O O4 0.000000 0.407108 0.799769
O O5 0.197410 0.250000 0.541337
O O6 0.250000 0.389580 0.500000
O O7 0.232856 0.384965 0.586397
O O8 0.000000 0.371171 0.540287
O O9 0.847243 0.750000 0.707150
O O10 0.766588 0.888296 0.670497
O O11 0.000000 0.888999 0.721704
O O12 0.500000 0.880002 0.635318
O O13 0.678840 0.750000 0.631283
O O14 0.847619 0.250000 0.966422
O O15 0.734093 0.136618 0.918986
O O16 0.000000 0.110393 0.954153
O O17 0.750000 0.110298 0.000000
O O18 0.500000 0.406259 0.873758
O O19 0.750000 0.500000 0.877699
#
# Coordination Sequence:
#
# PCOD9502314 Si02
#       6
#    16  16  16  16  16  16
#     4  11  22  38  58  78 104 136 171 212 259 308
#     4   8  13  20  31  49  76 112 153 194 238 291
#     4  10  20  33  50  74 102 132 169 211 254 303
#     4   8  14  25  39  57  85 121 159 200 247 297
#     4  10  21  38  59  84 114 146 180 217 259 305
#     4  11  22  38  59  82 109 139 175 216 259 306
#
# _framework density 21.426724
#
# number of rings (size 3 to 8) (size 9 to 14) (size 15 to 20)
#    0.000    2.333    0.000    6.000    0.000    3.667 
#    0.000    5.000    0.000    0.000    0.000    0.000 
#    0.000    0.667    0.000    7.000    0.000   10.167 
#
# Total GULP energy -267846.880243 kJ/mol
# GULP energy per Si atom -5580.143338 kJ/mol
# Density = 2.137796 g / cm^3
# Si number density = 21.426724 Si / 1000 Ang^3
#
#
#
# Elastic Constant Matrix: (Units=GPa)
#
#
# Indices 1 2 3 4 5 6 
#
# 1 172.5361 9.5649 97.7521 0.0000 0.0000 0.0000
# 2 9.5649 21.6197 7.1096 0.0000 0.0000 0.0000
# 3 97.7521 7.1096 214.6921 0.0000 0.0000 0.0000
# 4 0.0000 0.0000 0.0000 11.4435 0.0000 0.0000
# 5 0.0000 0.0000 0.0000 0.0000 71.2686 0.0000
# 6 0.0000 0.0000 0.0000 0.0000 0.0000 13.5869
#
#
#
# Elastic Compliance Matrix: (Units=1/GPa)
#
#
# Indices 1 2 3 4 5 6 
#
# 1 0.007927 -0.002346 -0.003531 0.000000 0.000000 0.000000
# 2 -0.002346 0.047457 -0.000504 0.000000 0.000000 0.000000
# 3 -0.003531 -0.000504 0.006282 0.000000 0.000000 0.000000
# 4 0.000000 0.000000 0.000000 0.087386 0.000000 0.000000
# 5 0.000000 0.000000 0.000000 0.000000 0.014031 0.000000
# 6 0.000000 0.000000 0.000000 0.000000 0.000000 0.073600
#
#
# Mechanical properties :
#
#
# Convention : Reuss Voigt Hill
#
# Bulk Modulus (GPa) = 20.44767 70.85569 45.65168
# Shear Modulus (GPa) = 18.81487 38.88789 28.85138
#
# Velocity S-wave (km/s) = 2.96650 4.26482 3.67347
# Velocity P-wave (km/s) = 4.61489 7.57576 6.27254
#
# Compressibility (1/GPa) = 0.04890532
#
# Stress axis : x y z
#
# Youngs Moduli (GPa) = 126.15581 21.07150 159.17413
#
# Poissons Ratio (x) = 0.04943 0.56212
# Poissons Ratio (y) = 0.29591 0.08016
# Poissons Ratio (z) = 0.44551 0.01061
#
# Static dielectric constant tensor:
#      x y z
#    x 1.749900 0.000000 0.000000 
#    y 0.000000 1.856020 0.000000 
#    z 0.000000 0.000000 1.820670 
# 
# From -- ./inp_files/43454.got.cif
#   From: 2010.05.17/outbox.cif.g08.bks.cpg/sg67_22_cif.got.tgz:43454.got - 2010.06.03 18:28:57.
