data_PCOD9502053
_publ_section_title
;
Structure prediction by ZEFSAII (Michael W. Deem and Ramdas Pophale) SiO2 
 PCOD9502053
Probable space group: C M M A
;
_chemical_formula_sum "Si O2"
_cell_formula_units_Z 48
_cell_length_a 18.701153
_cell_length_b 9.653572
_cell_length_c 9.961640
_cell_angle_alpha 90.000000
_cell_angle_beta 90.000000
_cell_angle_gamma 90.000000
_cell_volume 1798.404027
_symmetry_space_group_name_H-M "C M M A"
_symmetry_group_IT_number 67
_symmetry_cell_setting 'orthorhombic'
loop_
_space_group_symop_operation_xyz
x,y,z
-x,1/2-y,z
x,-y,-z
-x,1/2+y,-z
-x,-y,-z
x,1/2+y,-z
-x,y,z
x,1/2-y,z
1/2+x,1/2+y,z
1/2-x,-y,z
1/2+x,1/2-y,-z
1/2-x,y,-z
1/2-x,1/2-y,-z
1/2+x,y,-z
1/2-x,1/2+y,z
1/2+x,-y,z
loop_
_atom_site_type_symbol
_atom_site_label
_atom_site_fract_x
_atom_site_fract_y
_atom_site_fract_z
Si Si1 0.105670 0.250000 0.395003
Si Si2 0.750000 0.000000 0.500000
Si Si3 0.774878 0.250000 0.671580
Si Si4 0.500000 0.750000 0.639948
Si Si5 0.338467 0.250000 0.028706
Si Si6 0.500000 0.750000 0.013851
Si Si7 0.750000 0.500000 0.000000
Si Si8 0.000000 0.049076 0.255008
O O1 0.188404 0.250000 0.351852
O O2 0.070132 0.250000 0.543567
O O3 0.068452 0.116459 0.327961
O O4 0.793591 0.105366 0.595917
O O5 0.806173 0.250000 0.819973
O O6 0.500000 0.612488 0.726987
O O7 0.421953 0.250000 0.047544
O O8 0.308086 0.114757 0.951414
O O9 0.500000 0.614131 0.108988
#
# Coordination Sequence:
#
# PCOD9502053 Si02
#       8
#     8   4   8   4   8   4   4   8
#     4   9  19  36  70 108 160 213 259 332 424 521
#     4  10  26  46  72 118 152 186 274 340 422 502
#     4  11  24  46  78 111 157 209 266 343 418 495
#     4  10  19  38  66 119 172 209 268 343 440 510
#     4  11  25  52  83 117 161 222 278 358 416 489
#     4  10  25  50  80 113 170 225 290 333 416 506
#     4  10  26  44  84 120 156 208 298 338 412 486
#     4   9  21  39  66 115 163 217 266 343 422 499
#
# _framework density 26.690329999999999
#
# number of rings (size 3 to 8) (size 9 to 14) (size 15 to 20)
#    0.000    2.333    0.000    3.000   14.000    0.667 
#    0.000    3.333    0.000   13.000    0.000    0.000 
#    0.000    0.000    0.000    0.000    0.000    0.000 
#
# Total GULP energy -134049.328847 kJ/mol
# GULP energy per Si atom -5585.388702 kJ/mol
# Density = 2.662958 g / cm^3
# Si number density = 26.690330 Si / 1000 Ang^3
#
#
#
# Elastic Constant Matrix: (Units=GPa)
#
#
# Indices 1 2 3 4 5 6 
#
# 1 251.2977 78.2641 66.0297 0.0000 0.0000 0.0000
# 2 78.2641 249.9479 52.7858 0.0000 0.0000 0.0000
# 3 66.0297 52.7858 124.9330 0.0000 0.0000 0.0000
# 4 0.0000 0.0000 0.0000 27.3535 0.0000 0.0000
# 5 0.0000 0.0000 0.0000 0.0000 -8.3726 0.0000
# 6 0.0000 0.0000 0.0000 0.0000 0.0000 473.1629
#
#
#
# Elastic Compliance Matrix: (Units=1/GPa)
#
#
# Indices 1 2 3 4 5 6 
#
# 1 0.004872 -0.001078 -0.002120 0.000000 0.000000 0.000000
# 2 -0.001078 0.004631 -0.001387 0.000000 0.000000 0.000000
# 3 -0.002120 -0.001387 0.009711 0.000000 0.000000 0.000000
# 4 0.000000 0.000000 0.000000 0.036558 0.000000 0.000000
# 5 0.000000 0.000000 0.000000 0.000000 -0.119437 0.000000
# 6 0.000000 0.000000 0.000000 0.000000 0.000000 0.002113
#
#
# Mechanical properties :
#
#
# Convention : Reuss Voigt Hill
#
# Bulk Modulus (GPa) = 99.55384 113.37087 106.46235
# Shear Modulus (GPa) = -101.96902 127.03536 12.53317
#
# Velocity S-wave (km/s) = -6.18768 6.90647 2.16932
# Velocity P-wave (km/s) = 3.69721 10.30377 6.80068
#
# Compressibility (1/GPa) = 0.01004482
#
# Stress axis : x y z
#
# Youngs Moduli (GPa) = 205.25630 215.92296 102.98071
#
# Poissons Ratio (x) = 0.23274 0.21827
# Poissons Ratio (y) = 0.22125 0.14284
# Poissons Ratio (z) = 0.43504 0.29950
#
# Static dielectric constant tensor:
#      x y z
#    x 2.121080 0.000000 0.000000 
#    y 0.000000 2.031890 0.000000 
#    z 0.000000 0.000000 2.245380 
# 
# From -- ./inp_files/28877.got.cif
#   From: 2010.05.17/outbox.cif.g08.bks.cpg/sg67_15_cif.got.tgz:28877.got - 2010.06.03 18:28:57.
