data_PCOD9502922
_publ_section_title
;
Structure prediction by ZEFSAII (Michael W. Deem and Ramdas Pophale) SiO2 
 PCOD9502922
Probable space group: C M M A
;
_chemical_formula_sum "Si O2"
_cell_formula_units_Z 96
_cell_length_a 8.636447
_cell_length_b 26.137648
_cell_length_c 23.964079
_cell_angle_alpha 90.000000
_cell_angle_beta 90.000000
_cell_angle_gamma 90.000000
_cell_volume 5409.565202
_symmetry_space_group_name_H-M "C M M A"
_symmetry_group_IT_number 67
_symmetry_cell_setting 'orthorhombic'
loop_
_space_group_symop_operation_xyz
x,y,z
-x,1/2-y,z
x,-y,-z
-x,1/2+y,-z
-x,-y,-z
x,1/2+y,-z
-x,y,z
x,1/2-y,z
1/2+x,1/2+y,z
1/2-x,-y,z
1/2+x,1/2-y,-z
1/2-x,y,-z
1/2-x,1/2-y,-z
1/2+x,y,-z
1/2-x,1/2+y,z
1/2+x,-y,z
loop_
_atom_site_type_symbol
_atom_site_label
_atom_site_fract_x
_atom_site_fract_y
_atom_site_fract_z
Si Si1 0.312391 0.750000 0.362222
Si Si2 0.684760 0.849559 0.174366
Si Si3 0.685152 0.810503 0.939170
Si Si4 0.684859 0.250000 0.237566
Si Si5 0.814740 0.556058 0.243143
Si Si6 0.313732 0.346629 0.561941
Si Si7 0.813546 0.555637 0.632875
O O1 0.500000 0.750000 0.355028
O O2 0.234297 0.750000 0.302047
O O3 0.268150 0.700051 0.397810
O O4 0.500000 0.851048 0.178127
O O5 0.738182 0.841805 0.110725
O O6 0.747418 0.800371 0.208063
O O7 0.755406 0.900268 0.201852
O O8 0.500000 0.816297 0.937831
O O9 0.720403 0.750000 0.930289
O O10 0.750000 0.824333 0.000000
O O11 0.500000 0.250000 0.231600
O O12 0.750000 0.500000 0.227932
O O13 0.751497 0.567281 0.305461
O O14 0.000000 0.554696 0.244472
O O15 0.500000 0.346277 0.559121
O O16 0.250000 0.340476 0.500000
O O17 0.265802 0.400052 0.590201
O O18 0.750000 0.500000 0.616519
O O19 0.000000 0.553963 0.635984
#
# Coordination Sequence:
#
# PCOD9502922 Si02
#       7
#     8  16  16   8  16  16  16
#     4  10  21  39  57  77 107 144 179 222 277 338
#     4  12  23  37  58  85 119 156 193 237 286 337
#     4  10  20  35  56  83 119 157 197 239 284 337
#     4  12  24  37  56  87 117 148 187 234 288 342
#     4  11  22  38  60  86 115 150 191 236 285 341
#     4  10  22  37  56  78 104 138 180 224 274 333
#     4  10  20  36  56  81 109 141 180 226 280 336
#
# _framework density 17.746344000000001
#
# number of rings (size 3 to 8) (size 9 to 14) (size 15 to 20)
#    0.000    1.333    0.833    7.000    0.000    4.333 
#    0.000    1.667    0.000    0.500    0.000    3.500 
#    0.000    0.000    0.000    0.000    0.000    0.000 
#
# Total GULP energy -268375.645332 kJ/mol
# GULP energy per Si atom -5591.159278 kJ/mol
# Density = 1.770595 g / cm^3
# Si number density = 17.746344 Si / 1000 Ang^3
#
#
#
# Elastic Constant Matrix: (Units=GPa)
#
#
# Indices 1 2 3 4 5 6 
#
# 1 97.0443 33.8459 38.4024 0.0000 0.0000 0.0000
# 2 33.8459 86.0123 65.8582 0.0000 0.0000 0.0000
# 3 38.4024 65.8582 119.8067 0.0000 0.0000 0.0000
# 4 0.0000 0.0000 0.0000 -6.7210 0.0000 0.0000
# 5 0.0000 0.0000 0.0000 0.0000 36.3593 0.0000
# 6 0.0000 0.0000 0.0000 0.0000 0.0000 26.9538
#
#
#
# Elastic Compliance Matrix: (Units=1/GPa)
#
#
# Indices 1 2 3 4 5 6 
#
# 1 0.012273 -0.003138 -0.002209 0.000000 0.000000 0.000000
# 2 -0.003138 0.020879 -0.010471 0.000000 0.000000 0.000000
# 3 -0.002209 -0.010471 0.014811 0.000000 0.000000 0.000000
# 4 0.000000 0.000000 0.000000 -0.148787 0.000000 0.000000
# 5 0.000000 0.000000 0.000000 0.000000 0.027503 0.000000
# 6 0.000000 0.000000 0.000000 0.000000 0.000000 0.037100
#
#
# Mechanical properties :
#
#
# Convention : Reuss Voigt Hill
#
# Bulk Modulus (GPa) = 61.25135 64.34182 62.79659
# Shear Modulus (GPa) = 5826.50748 22.30220 2924.40484
#
# Velocity S-wave (km/s) = 57.36151 3.54887 40.63827
# Velocity P-wave (km/s) = 66.49597 7.28888 47.30138
#
# Compressibility (1/GPa) = 0.01632617
#
# Stress axis : x y z
#
# Youngs Moduli (GPa) = 81.47845 47.89549 67.51768
#
# Poissons Ratio (x) = 0.15030 0.14914
# Poissons Ratio (y) = 0.25569 0.70700
# Poissons Ratio (z) = 0.17998 0.50153
#
# Static dielectric constant tensor:
#      x y z
#    x 1.594970 0.000000 0.000000 
#    y 0.000000 1.589710 0.000000 
#    z 0.000000 0.000000 1.577020 
# 
# From -- ./inp_files/40857.got.cif
#   From: 2010.05.17/outbox.cif.g08.bks.cpg/sg67_21_cif.got.tgz:40857.got - 2010.06.03 18:28:57.
