data_PCOD9502945
_publ_section_title
;
Structure prediction by ZEFSAII (Michael W. Deem and Ramdas Pophale) SiO2 
 PCOD9502945
Probable space group: C M M A
;
_chemical_formula_sum "Si O2"
_cell_formula_units_Z 96
_cell_length_a 14.143346
_cell_length_b 13.789490
_cell_length_c 23.728667
_cell_angle_alpha 90.000000
_cell_angle_beta 90.000000
_cell_angle_gamma 90.000000
_cell_volume 4627.790731
_symmetry_space_group_name_H-M "C M M A"
_symmetry_group_IT_number 67
_symmetry_cell_setting 'orthorhombic'
loop_
_space_group_symop_operation_xyz
x,y,z
-x,1/2-y,z
x,-y,-z
-x,1/2+y,-z
-x,-y,-z
x,1/2+y,-z
-x,y,z
x,1/2-y,z
1/2+x,1/2+y,z
1/2-x,-y,z
1/2+x,1/2-y,-z
1/2-x,y,-z
1/2-x,1/2-y,-z
1/2+x,y,-z
1/2-x,1/2+y,z
1/2+x,-y,z
loop_
_atom_site_type_symbol
_atom_site_label
_atom_site_fract_x
_atom_site_fract_y
_atom_site_fract_z
Si Si1 0.399219 0.134398 0.341954
Si Si2 0.253990 0.136521 0.874159
Si Si3 0.192066 0.866100 0.663680
Si Si4 0.395706 0.867768 0.222346
Si Si5 0.608199 0.515782 0.436692
Si Si6 0.111295 0.988820 0.933330
O O1 0.500000 0.104734 0.315360
O O2 0.399930 0.250000 0.345978
O O3 0.298181 0.108390 0.316042
O O4 0.395920 0.085613 0.403302
O O5 0.229376 0.250000 0.872364
O O6 0.304698 0.106358 0.815386
O O7 0.168238 0.070398 0.897279
O O8 0.340710 0.112783 0.916327
O O9 0.186499 0.750000 0.657424
O O10 0.120693 0.896073 0.712846
O O11 0.167625 0.915317 0.604440
O O12 0.500000 0.901617 0.203033
O O13 0.397316 0.750000 0.220496
O O14 0.641964 0.500000 0.500000
O O15 0.500000 0.553647 0.439700
O O16 0.000000 0.992954 0.922440
O O17 0.126775 0.000000 0.000000
#
# Coordination Sequence:
#
# PCOD9502945 Si02
#       6
#    16  16  16  16  16  16
#     4   9  19  36  53  71 102 141 179 220 273 338
#     4  10  20  37  61  87 118 160 209 255 302 354
#     4  10  20  35  57  83 110 143 185 236 295 356
#     4   9  18  34  57  84 113 146 190 245 299 353
#     4  10  21  36  54  78 108 140 179 231 289 353
#     4  10  22  39  58  88 130 167 204 251 300 356
#
# _framework density 20.744237999999999
#
# number of rings (size 3 to 8) (size 9 to 14) (size 15 to 20)
#    0.000    2.333    0.000    2.500    0.000    5.667 
#    6.000    5.833    0.000    3.000    0.000    0.000 
#    0.000    0.000    0.000    0.000    0.000    0.000 
#
# Total GULP energy -267521.431237 kJ/mol
# GULP energy per Si atom -5573.363151 kJ/mol
# Density = 2.069702 g / cm^3
# Si number density = 20.744238 Si / 1000 Ang^3
#
#
#
# Elastic Constant Matrix: (Units=GPa)
#
#
# Indices 1 2 3 4 5 6 
#
# 1 147.3847 26.8259 29.2147 0.0000 0.0000 0.0000
# 2 26.8259 63.0571 11.1693 0.0000 0.0000 0.0000
# 3 29.2147 11.1693 86.1057 0.0000 0.0000 0.0000
# 4 0.0000 0.0000 0.0000 20.7410 0.0000 0.0000
# 5 0.0000 0.0000 0.0000 0.0000 14.5358 0.0000
# 6 0.0000 0.0000 0.0000 0.0000 0.0000 21.0528
#
#
#
# Elastic Compliance Matrix: (Units=1/GPa)
#
#
# Indices 1 2 3 4 5 6 
#
# 1 0.007760 -0.002902 -0.002257 0.000000 0.000000 0.000000
# 2 -0.002902 0.017317 -0.001262 0.000000 0.000000 0.000000
# 3 -0.002257 -0.001262 0.012543 0.000000 0.000000 0.000000
# 4 0.000000 0.000000 0.000000 0.048214 0.000000 0.000000
# 5 0.000000 0.000000 0.000000 0.000000 0.068795 0.000000
# 6 0.000000 0.000000 0.000000 0.000000 0.000000 0.047500
#
#
# Mechanical properties :
#
#
# Convention : Reuss Voigt Hill
#
# Bulk Modulus (GPa) = 40.35546 47.88527 44.12036
# Shear Modulus (GPa) = 22.39854 26.55510 24.47682
#
# Velocity S-wave (km/s) = 3.28952 3.58176 3.43874
# Velocity P-wave (km/s) = 5.82443 6.34343 6.08946
#
# Compressibility (1/GPa) = 0.02477979
#
# Stress axis : x y z
#
# Youngs Moduli (GPa) = 128.85894 57.74811 79.72607
#
# Poissons Ratio (x) = 0.16757 0.17991
# Poissons Ratio (y) = 0.37391 0.10059
# Poissons Ratio (z) = 0.29079 0.07286
#
# Static dielectric constant tensor:
#      x y z
#    x 1.816190 0.000000 0.000000 
#    y 0.000000 1.751520 0.000000 
#    z 0.000000 0.000000 1.739520 
# 
# From -- ./inp_files/38486.got.cif
#   From: 2010.05.17/outbox.cif.g08.bks.cpg/sg67_20_cif.got.tgz:38486.got - 2010.06.03 18:28:57.
