data_PCOD9502534
_publ_section_title
;
Structure prediction by ZEFSAII (Michael W. Deem and Ramdas Pophale) SiO2 
 PCOD9502534
Probable space group: C M M A
;
_chemical_formula_sum "Si O2"
_cell_formula_units_Z 104
_cell_length_a 20.859863
_cell_length_b 14.435632
_cell_length_c 16.196002
_cell_angle_alpha 90.000000
_cell_angle_beta 90.000000
_cell_angle_gamma 90.000000
_cell_volume 4877.026056
_symmetry_space_group_name_H-M "C M M A"
_symmetry_group_IT_number 67
_symmetry_cell_setting 'orthorhombic'
loop_
_space_group_symop_operation_xyz
x,y,z
-x,1/2-y,z
x,-y,-z
-x,1/2+y,-z
-x,-y,-z
x,1/2+y,-z
-x,y,z
x,1/2-y,z
1/2+x,1/2+y,z
1/2-x,-y,z
1/2+x,1/2-y,-z
1/2-x,y,-z
1/2-x,1/2-y,-z
1/2+x,y,-z
1/2-x,1/2+y,z
1/2+x,-y,z
loop_
_atom_site_type_symbol
_atom_site_label
_atom_site_fract_x
_atom_site_fract_y
_atom_site_fract_z
Si Si1 0.777737 0.352433 0.647293
Si Si2 0.573119 0.638804 0.869545
Si Si3 0.250000 0.000000 0.224331
Si Si4 0.872716 0.145295 0.364948
Si Si5 0.898662 0.642923 0.452849
Si Si6 0.718612 0.860372 0.911489
Si Si7 0.429365 0.477341 0.295546
O O1 0.791944 0.250000 0.684044
O O2 0.789976 0.436650 0.709768
O O3 0.703647 0.354317 0.623949
O O4 0.823067 0.361102 0.568676
O O5 0.500000 0.612936 0.901036
O O6 0.572717 0.750000 0.864101
O O7 0.642071 0.613796 0.911278
O O8 0.579002 0.592962 0.779532
O O9 0.241322 0.083171 0.157584
O O10 0.892375 0.250000 0.344409
O O11 0.906101 0.117731 0.451568
O O12 0.886435 0.068707 0.297249
O O13 0.919323 0.750000 0.443197
O O14 0.926322 0.579290 0.381264
O O15 0.722462 0.750000 0.895270
O O16 0.750000 0.878705 0.000000
O O17 0.500000 0.517298 0.287685
#
# Coordination Sequence:
#
# PCOD9502534 Si02
#       7
#    16  16   8  16  16  16  16
#     4  10  20  34  54  79 104 137 184 232 283 339
#     4   9  18  35  60  87 113 143 181 226 276 330
#     4  12  21  32  53  80 114 146 172 218 277 332
#     4  10  21  35  50  71 104 146 190 237 285 329
#     4  10  20  34  52  74 103 139 183 240 296 336
#     4  10  21  37  58  86 117 145 176 219 275 338
#     4  11  22  34  50  75 108 146 188 228 268 321
#
# _framework density 21.324472
#
# number of rings (size 3 to 8) (size 9 to 14) (size 15 to 20)
#    0.000    1.846    0.000    4.846    0.000    6.769 
#    0.000    3.846    0.000    1.846    0.000    0.000 
#    0.000    9.846    0.000    0.000    0.000    0.000 
#
# Total GULP energy -289635.973983 kJ/mol
# GULP energy per Si atom -5569.922577 kJ/mol
# Density = 2.127594 g / cm^3
# Si number density = 21.324472 Si / 1000 Ang^3
#
#
#
# Elastic Constant Matrix: (Units=GPa)
#
#
# Indices 1 2 3 4 5 6 
#
# 1 94.9107 27.9076 14.7722 0.0000 0.0000 0.0000
# 2 27.9076 78.9696 36.0619 0.0000 0.0000 0.0000
# 3 14.7722 36.0619 57.8404 0.0000 0.0000 0.0000
# 4 0.0000 0.0000 0.0000 26.2719 0.0000 0.0000
# 5 0.0000 0.0000 0.0000 0.0000 6.0654 0.0000
# 6 0.0000 0.0000 0.0000 0.0000 0.0000 6.1986
#
#
#
# Elastic Compliance Matrix: (Units=1/GPa)
#
#
# Indices 1 2 3 4 5 6 
#
# 1 0.011772 -0.003897 -0.000577 0.000000 0.000000 0.000000
# 2 -0.003897 0.018993 -0.010847 0.000000 0.000000 0.000000
# 3 -0.000577 -0.010847 0.024199 0.000000 0.000000 0.000000
# 4 0.000000 0.000000 0.000000 0.038063 0.000000 0.000000
# 5 0.000000 0.000000 0.000000 0.000000 0.164869 0.000000
# 6 0.000000 0.000000 0.000000 0.000000 0.000000 0.161328
#
#
# Mechanical properties :
#
#
# Convention : Reuss Voigt Hill
#
# Bulk Modulus (GPa) = 41.11257 43.24490 42.17874
# Shear Modulus (GPa) = 10.91768 17.90578 14.41173
#
# Velocity S-wave (km/s) = 2.26515 2.90087 2.60249
# Velocity P-wave (km/s) = 5.11494 5.61637 5.37151
#
# Compressibility (1/GPa) = 0.02432346
#
# Stress axis : x y z
#
# Youngs Moduli (GPa) = 84.94885 52.65006 41.32415
#
# Poissons Ratio (x) = 0.20516 0.02385
# Poissons Ratio (y) = 0.33101 0.44823
# Poissons Ratio (z) = 0.04902 0.57108
#
# Static dielectric constant tensor:
#      x y z
#    x 1.926920 0.000000 0.000000 
#    y 0.000000 1.760640 0.000000 
#    z 0.000000 0.000000 1.736860 
# 
# From -- ./inp_files/34978.got.cif
#   From: 2010.05.17/outbox.cif.g08.bks.cpg/sg67_18_cif.got.tgz:34978.got - 2010.06.03 18:28:57.
