data_PCOD9502494
_publ_section_title
;
Structure prediction by ZEFSAII (Michael W. Deem and Ramdas Pophale) SiO2 
 PCOD9502494
Probable space group: C M M A
;
_chemical_formula_sum "Si O2"
_cell_formula_units_Z 104
_cell_length_a 8.575541
_cell_length_b 26.864511
_cell_length_c 22.746020
_cell_angle_alpha 90.000000
_cell_angle_beta 90.000000
_cell_angle_gamma 90.000000
_cell_volume 5240.176125
_symmetry_space_group_name_H-M "C M M A"
_symmetry_group_IT_number 67
_symmetry_cell_setting 'orthorhombic'
loop_
_space_group_symop_operation_xyz
x,y,z
-x,1/2-y,z
x,-y,-z
-x,1/2+y,-z
-x,-y,-z
x,1/2+y,-z
-x,y,z
x,1/2-y,z
1/2+x,1/2+y,z
1/2-x,-y,z
1/2+x,1/2-y,-z
1/2-x,y,-z
1/2-x,1/2-y,-z
1/2+x,y,-z
1/2-x,1/2+y,z
1/2+x,-y,z
loop_
_atom_site_type_symbol
_atom_site_label
_atom_site_fract_x
_atom_site_fract_y
_atom_site_fract_z
Si Si1 0.186102 0.157860 0.061007
Si Si2 0.310575 0.304277 0.811760
Si Si3 0.313649 0.553246 0.354260
Si Si4 0.812235 0.250000 0.566691
Si Si5 0.314852 0.553091 0.899035
Si Si6 0.312653 0.141894 0.433364
Si Si7 0.189082 0.412731 0.225100
O O1 0.235819 0.186518 0.120204
O O2 0.243258 0.101004 0.068705
O O3 0.000000 0.158191 0.059610
O O4 0.250000 0.178536 0.000000
O O5 0.500000 0.303445 0.810361
O O6 0.254750 0.250000 0.791403
O O7 0.264677 0.354241 0.777349
O O8 0.500000 0.552945 0.356037
O O9 0.250000 0.500000 0.373757
O O10 0.251892 0.597505 0.394525
O O11 0.265078 0.563480 0.286807
O O12 0.750000 0.250000 0.500000
O O13 0.763223 0.303563 0.591672
O O14 0.000000 0.250000 0.565346
O O15 0.500000 0.553975 0.904673
O O16 0.250000 0.500000 0.919554
O O17 0.265305 0.560782 0.830850
O O18 0.500000 0.139817 0.434784
O O19 0.250000 0.138119 0.500000
O O20 0.000000 0.415546 0.218521
#
# Coordination Sequence:
#
# PCOD9502494 Si02
#       7
#    16  16  16   8  16  16  16
#     4  10  20  34  51  75 106 140 178 221 266 321
#     4   8  15  31  55  79 106 140 176 218 267 319
#     4  11  23  38  56  83 115 152 193 237 284 338
#     4   8  16  32  56  82 110 146 184 224 273 324
#     4  11  21  34  54  77 102 136 176 220 271 326
#     4  10  20  37  60  86 117 153 191 235 282 337
#     4   9  19  36  56  80 109 141 181 225 271 326
#
# _framework density 19.84666
#
# number of rings (size 3 to 8) (size 9 to 14) (size 15 to 20)
#    0.000    2.308    0.000    4.154    0.000    4.000 
#    1.385    3.077    0.000   11.077    0.000    0.000 
#    0.000    0.000    0.000    0.000    0.000    0.000 
#
# Total GULP energy -290273.221652 kJ/mol
# GULP energy per Si atom -5582.177339 kJ/mol
# Density = 1.980149 g / cm^3
# Si number density = 19.846660 Si / 1000 Ang^3
#
#
#
# Elastic Constant Matrix: (Units=GPa)
#
#
# Indices 1 2 3 4 5 6 
#
# 1 40.9804 13.8847 12.0331 0.0000 0.0000 0.0000
# 2 13.8847 135.7436 19.3205 0.0000 0.0000 0.0000
# 3 12.0331 19.3205 48.8530 0.0000 0.0000 0.0000
# 4 0.0000 0.0000 0.0000 8.4410 0.0000 0.0000
# 5 0.0000 0.0000 0.0000 0.0000 25.2673 0.0000
# 6 0.0000 0.0000 0.0000 0.0000 0.0000 6.4200
#
#
#
# Elastic Compliance Matrix: (Units=1/GPa)
#
#
# Indices 1 2 3 4 5 6 
#
# 1 0.026762 -0.001906 -0.005838 0.000000 0.000000 0.000000
# 2 -0.001906 0.007942 -0.002671 0.000000 0.000000 0.000000
# 3 -0.005838 -0.002671 0.022964 0.000000 0.000000 0.000000
# 4 0.000000 0.000000 0.000000 0.118470 0.000000 0.000000
# 5 0.000000 0.000000 0.000000 0.000000 0.039577 0.000000
# 6 0.000000 0.000000 0.000000 0.000000 0.000000 0.155762
#
#
# Mechanical properties :
#
#
# Convention : Reuss Voigt Hill
#
# Bulk Modulus (GPa) = 27.14685 35.11707 31.13196
# Shear Modulus (GPa) = 12.35827 20.04824 16.20326
#
# Velocity S-wave (km/s) = 2.49808 3.18174 2.86041
# Velocity P-wave (km/s) = 4.69345 5.58844 5.16038
#
# Compressibility (1/GPa) = 0.03683668
#
# Stress axis : x y z
#
# Youngs Moduli (GPa) = 37.36644 125.91204 43.54649
#
# Poissons Ratio (x) = 0.24005 0.25422
# Poissons Ratio (y) = 0.07124 0.11633
# Poissons Ratio (z) = 0.21814 0.33636
#
# Static dielectric constant tensor:
#      x y z
#    x 1.664030 0.000000 0.000000 
#    y 0.000000 1.720000 0.000000 
#    z 0.000000 0.000000 1.681300 
# 
# From -- ./inp_files/41037.got.cif
#   From: 2010.05.17/outbox.cif.g08.bks.cpg/sg67_21_cif.got.tgz:41037.got - 2010.06.03 18:28:57.
