data_PCOD9502881
_publ_section_title
;
Structure prediction by ZEFSAII (Michael W. Deem and Ramdas Pophale) SiO2 
 PCOD9502881
Probable space group: C M M A
;
_chemical_formula_sum "Si O2"
_cell_formula_units_Z 112
_cell_length_a 13.696513
_cell_length_b 13.418265
_cell_length_c 28.964836
_cell_angle_alpha 90.000000
_cell_angle_beta 90.000000
_cell_angle_gamma 90.000000
_cell_volume 5323.257228
_symmetry_space_group_name_H-M "C M M A"
_symmetry_group_IT_number 67
_symmetry_cell_setting 'orthorhombic'
loop_
_space_group_symop_operation_xyz
x,y,z
-x,1/2-y,z
x,-y,-z
-x,1/2+y,-z
-x,-y,-z
x,1/2+y,-z
-x,y,z
x,1/2-y,z
1/2+x,1/2+y,z
1/2-x,-y,z
1/2+x,1/2-y,-z
1/2-x,y,-z
1/2-x,1/2-y,-z
1/2+x,y,-z
1/2-x,1/2+y,z
1/2+x,-y,z
loop_
_atom_site_type_symbol
_atom_site_label
_atom_site_fract_x
_atom_site_fract_y
_atom_site_fract_z
Si Si1 0.239049 0.364544 0.751342
Si Si2 0.686781 0.128376 0.931006
Si Si3 0.892606 0.628605 0.031089
Si Si4 0.710340 0.361221 0.551940
Si Si5 0.610015 0.870827 0.167888
Si Si6 0.388908 0.978361 0.297559
Si Si7 0.389713 0.546359 0.596670
O O1 0.209956 0.250000 0.754544
O O2 0.302085 0.392928 0.796738
O O3 0.317827 0.385451 0.710858
O O4 0.150442 0.435973 0.737088
O O5 0.685637 0.250000 0.929918
O O6 0.799758 0.098510 0.938360
O O7 0.638716 0.095395 0.883446
O O8 0.629760 0.101020 0.977834
O O9 0.892955 0.750000 0.031899
O O10 0.000000 0.595130 0.045588
O O11 0.669894 0.250000 0.556361
O O12 0.750000 0.375172 0.500000
O O13 0.636335 0.447450 0.567116
O O14 0.806084 0.375910 0.583622
O O15 0.500000 0.906103 0.179897
O O16 0.605329 0.750000 0.167732
O O17 0.500000 0.951897 0.288239
O O18 0.381454 0.017661 0.349606
O O19 0.500000 0.579816 0.587216
#
# Coordination Sequence:
#
# PCOD9502881 Si02
#       7
#    16  16  16  16  16  16  16
#     4  10  20  35  56  79 105 139 177 219 270 327
#     4   8  13  20  31  51  80 115 157 203 251 304
#     4   8  12  18  29  46  74 115 157 197 246 304
#     4  10  21  36  55  82 115 148 183 225 271 317
#     4   9  16  26  42  65  92 123 163 211 261 314
#     4  10  22  38  56  81 110 140 179 227 275 322
#     4  10  21  37  57  80 108 145 186 226 270 321
#
# _framework density 21.039750999999999
#
# number of rings (size 3 to 8) (size 9 to 14) (size 15 to 20)
#    0.000    2.714    0.000    4.286    0.000    6.857 
#    0.000    5.000    0.000    2.571    0.000    0.000 
#    0.000    9.143    0.000   34.286    0.000   76.000 
#
# Total GULP energy -312628.499236 kJ/mol
# GULP energy per Si atom -5582.651772 kJ/mol
# Density = 2.099186 g / cm^3
# Si number density = 21.039751 Si / 1000 Ang^3
#
#
#
# Elastic Constant Matrix: (Units=GPa)
#
#
# Indices 1 2 3 4 5 6 
#
# 1 55.3660 -20.6479 -8.3715 0.0000 0.0000 0.0000
# 2 -20.6479 62.8456 -1.4247 0.0000 0.0000 0.0000
# 3 -8.3715 -1.4247 69.8483 0.0000 0.0000 0.0000
# 4 0.0000 0.0000 0.0000 11.6345 0.0000 0.0000
# 5 0.0000 0.0000 0.0000 0.0000 10.8446 0.0000
# 6 0.0000 0.0000 0.0000 0.0000 0.0000 8.8093
#
#
#
# Elastic Compliance Matrix: (Units=1/GPa)
#
#
# Indices 1 2 3 4 5 6 
#
# 1 0.021069 0.006983 0.002668 0.000000 0.000000 0.000000
# 2 0.006983 0.018234 0.001209 0.000000 0.000000 0.000000
# 3 0.002668 0.001209 0.014661 0.000000 0.000000 0.000000
# 4 0.000000 0.000000 0.000000 0.085951 0.000000 0.000000
# 5 0.000000 0.000000 0.000000 0.000000 0.092211 0.000000
# 6 0.000000 0.000000 0.000000 0.000000 0.000000 0.113516
#
#
# Mechanical properties :
#
#
# Convention : Reuss Voigt Hill
#
# Bulk Modulus (GPa) = 13.21317 14.13019 13.67168
# Shear Modulus (GPa) = 14.32040 20.82461 17.57251
#
# Velocity S-wave (km/s) = 2.61173 3.14948 2.89313
# Velocity P-wave (km/s) = 3.92283 4.46723 4.20385
#
# Compressibility (1/GPa) = 0.07568204
#
# Stress axis : x y z
#
# Youngs Moduli (GPa) = 47.46292 54.84385 68.20761
#
# Poissons Ratio (x) = -0.38296 -0.18195
# Poissons Ratio (y) = -0.33142 -0.08245
# Poissons Ratio (z) = -0.12661 -0.06630
#
# Static dielectric constant tensor:
#      x y z
#    x 1.740470 0.000000 0.000000 
#    y 0.000000 1.800290 0.000000 
#    z 0.000000 0.000000 1.751790 
# 
# From -- ./inp_files/44370.got.cif
#   From: 2010.05.17/outbox.cif.g08.bks.cpg/sg67_23_cif.got.tgz:44370.got - 2010.06.03 18:28:57.
