data_PCOD9502910
_publ_section_title
;
Structure prediction by ZEFSAII (Michael W. Deem and Ramdas Pophale) SiO2 
 PCOD9502910
Probable space group: C M M A
;
_chemical_formula_sum "Si O2"
_cell_formula_units_Z 96
_cell_length_a 14.627163
_cell_length_b 20.409734
_cell_length_c 15.748309
_cell_angle_alpha 90.000000
_cell_angle_beta 90.000000
_cell_angle_gamma 90.000000
_cell_volume 4701.445144
_symmetry_space_group_name_H-M "C M M A"
_symmetry_group_IT_number 67
_symmetry_cell_setting 'orthorhombic'
loop_
_space_group_symop_operation_xyz
x,y,z
-x,1/2-y,z
x,-y,-z
-x,1/2+y,-z
-x,-y,-z
x,1/2+y,-z
-x,y,z
x,1/2-y,z
1/2+x,1/2+y,z
1/2-x,-y,z
1/2+x,1/2-y,-z
1/2-x,y,-z
1/2-x,1/2-y,-z
1/2+x,y,-z
1/2-x,1/2+y,z
1/2+x,-y,z
loop_
_atom_site_type_symbol
_atom_site_label
_atom_site_fract_x
_atom_site_fract_y
_atom_site_fract_z
Si Si1 0.850607 0.467847 0.584148
Si Si2 0.896075 0.122553 0.150343
Si Si3 0.610199 0.677314 0.624705
Si Si4 0.400659 0.978182 0.774837
Si Si5 0.705744 0.852216 0.801008
Si Si6 0.893601 0.177136 0.973713
O O1 0.892303 0.500000 0.500000
O O2 0.750000 0.500000 0.590538
O O3 0.851940 0.388425 0.579409
O O4 0.897196 0.485299 0.673177
O O5 0.814276 0.157663 0.200345
O O6 0.000000 0.148067 0.161562
O O7 0.895361 0.047772 0.180669
O O8 0.873528 0.127927 0.050271
O O9 0.500000 0.670343 0.629897
O O10 0.629613 0.750000 0.588066
O O11 0.653510 0.675276 0.719140
O O12 0.500000 0.948058 0.797138
O O13 0.319816 0.929342 0.799003
O O14 0.666070 0.827758 0.889853
O O15 0.881755 0.250000 0.010868
O O16 0.000000 0.169601 0.949793
#
# Coordination Sequence:
#
# PCOD9502910 Si02
#       6
#    16  16  16  16  16  16
#     4  10  20  36  59  88 119 153 192 232 283 349
#     4  10  22  36  50  73 109 149 186 227 275 333
#     4  10  21  37  60  91 122 151 189 243 301 347
#     4  10  20  35  56  82 110 141 181 230 283 337
#     4  11  19  33  57  81 108 143 186 233 285 338
#     4  10  21  36  53  75 103 137 183 234 280 331
#
# _framework density 20.419253000000001
#
# number of rings (size 3 to 8) (size 9 to 14) (size 15 to 20)
#    0.000    1.833    0.000    6.500    0.000    5.333 
#    0.000    5.833    0.000    1.000    0.000    2.333 
#    0.000    0.000    0.000    0.000    0.000    0.000 
#
# Total GULP energy -267820.779952 kJ/mol
# GULP energy per Si atom -5579.599582 kJ/mol
# Density = 2.037278 g / cm^3
# Si number density = 20.419253 Si / 1000 Ang^3
#
#
#
# Elastic Constant Matrix: (Units=GPa)
#
#
# Indices 1 2 3 4 5 6 
#
# 1 116.9350 23.6643 10.2924 0.0000 0.0000 0.0000
# 2 23.6643 131.2551 57.8143 0.0000 0.0000 0.0000
# 3 10.2924 57.8143 75.0572 0.0000 0.0000 0.0000
# 4 0.0000 0.0000 0.0000 15.3793 0.0000 0.0000
# 5 0.0000 0.0000 0.0000 0.0000 18.5645 0.0000
# 6 0.0000 0.0000 0.0000 0.0000 0.0000-8467.6999
#
#
#
# Elastic Compliance Matrix: (Units=1/GPa)
#
#
# Indices 1 2 3 4 5 6 
#
# 1 0.008876 -0.001611 0.000023 0.000000 0.000000 0.000000
# 2 -0.001611 0.011823 -0.008886 0.000000 0.000000 0.000000
# 3 0.000023 -0.008886 0.020165 0.000000 0.000000 0.000000
# 4 0.000000 0.000000 0.000000 0.065023 0.000000 0.000000
# 5 0.000000 0.000000 0.000000 0.000000 0.053866 0.000000
# 6 0.000000 0.000000 0.000000 0.000000 0.000000 -0.000118
#
#
# Mechanical properties :
#
#
# Convention : Reuss Voigt Hill
#
# Bulk Modulus (GPa) = 50.20838 56.30991 53.25914
# Shear Modulus (GPa) = 26.70653 -1671.31948 -822.30647
#
# Velocity S-wave (km/s) = 3.62043 -28.64051 -20.08944
# Velocity P-wave (km/s) = 6.48990 32.65070 22.62686
#
# Compressibility (1/GPa) = 0.01991699
#
# Stress axis : x y z
#
# Youngs Moduli (GPa) = 112.66812 84.57885 49.59141
#
# Poissons Ratio (x) = 0.13622 -0.00116
# Poissons Ratio (y) = 0.18146 0.44068
# Poissons Ratio (z) = -0.00264 0.75159
#
# Static dielectric constant tensor:
#      x y z
#    x 1.788760 0.000000 0.000000 
#    y 0.000000 1.754710 0.000000 
#    z 0.000000 0.000000 1.702920 
# 
# From -- ./inp_files/27154.got.cif
#   From: 2010.05.17/outbox.cif.g08.bks.cpg/sg67_14_cif.got.tgz:27154.got - 2010.06.03 18:28:57.
