data_PCOD9502000
_publ_section_title
;
Structure prediction by ZEFSAII (Michael W. Deem and Ramdas Pophale) SiO2 
 PCOD9502000
Probable space group: C M M A
;
_chemical_formula_sum "Si O2"
_cell_formula_units_Z 80
_cell_length_a 14.406558
_cell_length_b 24.847276
_cell_length_c 11.314652
_cell_angle_alpha 90.000000
_cell_angle_beta 90.000000
_cell_angle_gamma 90.000000
_cell_volume 4050.234953
_symmetry_space_group_name_H-M "C M M A"
_symmetry_group_IT_number 67
_symmetry_cell_setting 'orthorhombic'
loop_
_space_group_symop_operation_xyz
x,y,z
-x,1/2-y,z
x,-y,-z
-x,1/2+y,-z
-x,-y,-z
x,1/2+y,-z
-x,y,z
x,1/2-y,z
1/2+x,1/2+y,z
1/2-x,-y,z
1/2+x,1/2-y,-z
1/2-x,y,-z
1/2-x,1/2-y,-z
1/2+x,y,-z
1/2-x,1/2+y,z
1/2+x,-y,z
loop_
_atom_site_type_symbol
_atom_site_label
_atom_site_fract_x
_atom_site_fract_y
_atom_site_fract_z
Si Si1 0.106660 0.250000 0.481185
Si Si2 0.500000 0.582406 0.927255
Si Si3 0.889570 0.632333 0.500967
Si Si4 0.161922 0.632668 0.224726
Si Si5 0.109735 0.250000 0.766718
Si Si6 0.310331 0.445869 0.688160
Si Si7 0.500000 0.537213 0.173932
O O1 0.146062 0.190987 0.451643
O O2 0.104728 0.250000 0.623793
O O3 0.000000 0.250000 0.439019
O O4 0.410290 0.609122 0.868666
O O5 0.500000 0.521219 0.884030
O O6 0.500000 0.580928 0.068715
O O7 0.876604 0.628357 0.360002
O O8 0.837272 0.585165 0.568368
O O9 0.000000 0.629738 0.524268
O O10 0.163973 0.696148 0.198795
O O11 0.253539 0.596521 0.230834
O O12 0.000000 0.250000 0.805303
O O13 0.250000 0.500000 0.672393
O O14 0.407578 0.458805 0.749363
#
# Coordination Sequence:
#
# PCOD9502000 Si02
#       7
#     8   8  16  16   8  16   8
#     4   7  14  29  55  89 117 169 206 227 292 377
#     4  11  22  44  71  88 113 161 215 267 311 354
#     4  10  19  36  62  90 134 166 198 250 312 380
#     4  11  21  38  66 100 123 163 210 255 311 375
#     4   9  16  33  63  93 130 161 202 253 306 370
#     4  12  25  41  61  92 129 167 209 253 317 377
#     4  11  26  47  63  84 119 166 211 263 312 364
#
# _framework density 19.751942
#
# number of rings (size 3 to 8) (size 9 to 14) (size 15 to 20)
#    0.000    1.600    5.000    1.800    0.000    3.200 
#    0.000    5.000    0.000    6.000    0.000    0.000 
#    0.000    0.000    0.000    0.000    0.000    0.000 
#
# Total GULP energy -223252.200223 kJ/mol
# GULP energy per Si atom -5581.305006 kJ/mol
# Density = 1.970699 g / cm^3
# Si number density = 19.751942 Si / 1000 Ang^3
#
#
#
# Elastic Constant Matrix: (Units=GPa)
#
#
# Indices 1 2 3 4 5 6 
#
# 1 122.0328 64.9303 21.7717 0.0000 0.0000 0.0000
# 2 64.9303 161.5517 42.5976 0.0000 0.0000 0.0000
# 3 21.7717 42.5976 65.3207 0.0000 0.0000 0.0000
# 4 0.0000 0.0000 0.0000 73.0909 0.0000 0.0000
# 5 0.0000 0.0000 0.0000 0.0000 5.3107 0.0000
# 6 0.0000 0.0000 0.0000 0.0000 0.0000 5.8582
#
#
#
# Elastic Compliance Matrix: (Units=1/GPa)
#
#
# Indices 1 2 3 4 5 6 
#
# 1 0.010467 -0.003970 -0.000900 0.000000 0.000000 0.000000
# 2 -0.003970 0.008981 -0.004534 0.000000 0.000000 0.000000
# 3 -0.000900 -0.004534 0.018566 0.000000 0.000000 0.000000
# 4 0.000000 0.000000 0.000000 0.013682 0.000000 0.000000
# 5 0.000000 0.000000 0.000000 0.000000 0.188299 0.000000
# 6 0.000000 0.000000 0.000000 0.000000 0.000000 0.170702
#
#
# Mechanical properties :
#
#
# Convention : Reuss Voigt Hill
#
# Bulk Modulus (GPa) = 52.06412 67.50050 59.78231
# Shear Modulus (GPa) = 11.47039 31.49233 21.48136
#
# Velocity S-wave (km/s) = 2.41243 3.99732 3.30139
# Velocity P-wave (km/s) = 5.84602 7.45339 6.69810
#
# Compressibility (1/GPa) = 0.01920709
#
# Stress axis : x y z
#
# Youngs Moduli (GPa) = 95.53639 111.34832 53.86315
#
# Poissons Ratio (x) = 0.44201 0.04848
# Poissons Ratio (y) = 0.37924 0.24419
# Poissons Ratio (z) = 0.08599 0.50481
#
# Static dielectric constant tensor:
#      x y z
#    x 1.739570 0.000000 0.000000 
#    y 0.000000 1.750960 0.000000 
#    z 0.000000 0.000000 1.666410 
# 
# From -- ./inp_files/18061.got.cif
#   From: 2010.05.17/outbox.cif.g08.bks.cpg/sg67_10_cif.got.tgz:18061.got - 2010.06.03 18:28:57.
