data_PCOD9502819
_publ_section_title
;
Structure prediction by ZEFSAII (Michael W. Deem and Ramdas Pophale) SiO2 
 PCOD9502819
Probable space group: C M M A
;
_chemical_formula_sum "Si O2"
_cell_formula_units_Z 96
_cell_length_a 8.464708
_cell_length_b 29.688634
_cell_length_c 21.203571
_cell_angle_alpha 90.000000
_cell_angle_beta 90.000000
_cell_angle_gamma 90.000000
_cell_volume 5328.576508
_symmetry_space_group_name_H-M "C M M A"
_symmetry_group_IT_number 67
_symmetry_cell_setting 'orthorhombic'
loop_
_space_group_symop_operation_xyz
x,y,z
-x,1/2-y,z
x,-y,-z
-x,1/2+y,-z
-x,-y,-z
x,1/2+y,-z
-x,y,z
x,1/2-y,z
1/2+x,1/2+y,z
1/2-x,-y,z
1/2+x,1/2-y,-z
1/2-x,y,-z
1/2-x,1/2-y,-z
1/2+x,y,-z
1/2-x,1/2+y,z
1/2+x,-y,z
loop_
_atom_site_type_symbol
_atom_site_label
_atom_site_fract_x
_atom_site_fract_y
_atom_site_fract_z
Si Si1 0.190212 0.607511 0.310866
Si Si2 0.310225 0.050680 0.430872
Si Si3 0.192109 0.299755 0.115103
Si Si4 0.310266 0.449090 0.188580
Si Si5 0.310548 0.604550 0.067340
Si Si6 0.690294 0.800165 0.262637
O O1 0.244333 0.583458 0.374954
O O2 0.244889 0.579205 0.249701
O O3 0.244160 0.658655 0.302350
O O4 0.000000 0.606444 0.310767
O O5 0.500000 0.049720 0.431819
O O6 0.250000 0.064285 0.500000
O O7 0.250000 0.000000 0.418703
O O8 0.246566 0.250000 0.093840
O O9 0.246664 0.343776 0.078026
O O10 0.236304 0.305425 0.188831
O O11 0.000000 0.299328 0.112878
O O12 0.500000 0.449123 0.188058
O O13 0.250000 0.500000 0.192352
O O14 0.249560 0.425067 0.125433
O O15 0.500000 0.604399 0.067961
O O16 0.250000 0.588006 0.000000
O O17 0.500000 0.801599 0.264303
O O18 0.740764 0.750000 0.282832
#
# Coordination Sequence:
#
# PCOD9502819 Si02
#       6
#    16  16  16  16  16  16
#     4  10  21  35  55  83 114 142 175 220 269 315
#     4  10  20  35  54  81 114 149 183 220 264 316
#     4   8  15  30  52  77 105 136 171 213 261 314
#     4  11  23  39  57  79 105 135 176 222 268 320
#     4  11  22  37  56  77 105 141 177 220 269 320
#     4   9  17  31  54  82 109 140 179 219 262 316
#
# _framework density 18.016069000000002
#
# number of rings (size 3 to 8) (size 9 to 14) (size 15 to 20)
#    0.000    2.167    1.667    3.500    0.000    3.000 
#    0.000    1.667    0.000    2.000    0.000    0.000 
#    0.000    0.000    0.000    0.000    0.000    0.000 
#
# Total GULP energy -267917.972426 kJ/mol
# GULP energy per Si atom -5581.624426 kJ/mol
# Density = 1.797506 g / cm^3
# Si number density = 18.016069 Si / 1000 Ang^3
#
#
#
# Elastic Constant Matrix: (Units=GPa)
#
#
# Indices 1 2 3 4 5 6 
#
# 1 31.5569 21.8456 26.7134 0.0000 0.0000 0.0000
# 2 21.8456 135.3195 84.9071 0.0000 0.0000 0.0000
# 3 26.7134 84.9071 136.0815 0.0000 0.0000 0.0000
# 4 0.0000 0.0000 0.0000 39.4583 0.0000 0.0000
# 5 0.0000 0.0000 0.0000 0.0000 20.7197 0.0000
# 6 0.0000 0.0000 0.0000 0.0000 0.0000 23.8099
#
#
#
# Elastic Compliance Matrix: (Units=1/GPa)
#
#
# Indices 1 2 3 4 5 6 
#
# 1 0.038480 -0.002420 -0.006044 0.000000 0.000000 0.000000
# 2 -0.002420 0.012297 -0.007197 0.000000 0.000000 0.000000
# 3 -0.006044 -0.007197 0.013026 0.000000 0.000000 0.000000
# 4 0.000000 0.000000 0.000000 0.025343 0.000000 0.000000
# 5 0.000000 0.000000 0.000000 0.000000 0.048263 0.000000
# 6 0.000000 0.000000 0.000000 0.000000 0.000000 0.041999
#
#
# Mechanical properties :
#
#
# Convention : Reuss Voigt Hill
#
# Bulk Modulus (GPa) = 30.78792 63.32113 47.05453
# Shear Modulus (GPa) = 22.56752 28.09706 25.33229
#
# Velocity S-wave (km/s) = 3.54310 3.95340 3.75386
# Velocity P-wave (km/s) = 5.81930 7.48749 6.70548
#
# Compressibility (1/GPa) = 0.03248027
#
# Stress axis : x y z
#
# Youngs Moduli (GPa) = 25.98733 81.32342 76.77099
#
# Poissons Ratio (x) = 0.19678 0.46401
# Poissons Ratio (y) = 0.06288 0.55255
# Poissons Ratio (z) = 0.15707 0.58531
#
# Static dielectric constant tensor:
#      x y z
#    x 1.618430 0.000000 0.000000 
#    y 0.000000 1.614780 0.000000 
#    z 0.000000 0.000000 1.603960 
# 
# From -- ./inp_files/37149.got.cif
#   From: 2010.05.17/outbox.cif.g08.bks.cpg/sg67_19_cif.got.tgz:37149.got - 2010.06.03 18:28:57.
