data_PCOD9502886
_publ_section_title
;
Structure prediction by ZEFSAII (Michael W. Deem and Ramdas Pophale) SiO2 
 PCOD9502886
Probable space group: C M M A
;
_chemical_formula_sum "Si O2"
_cell_formula_units_Z 112
_cell_length_a 27.539960
_cell_length_b 17.796359
_cell_length_c 12.497927
_cell_angle_alpha 90.000000
_cell_angle_beta 90.000000
_cell_angle_gamma 90.000000
_cell_volume 6125.371687
_symmetry_space_group_name_H-M "C M M A"
_symmetry_group_IT_number 67
_symmetry_cell_setting 'orthorhombic'
loop_
_space_group_symop_operation_xyz
x,y,z
-x,1/2-y,z
x,-y,-z
-x,1/2+y,-z
-x,-y,-z
x,1/2+y,-z
-x,y,z
x,1/2-y,z
1/2+x,1/2+y,z
1/2-x,-y,z
1/2+x,1/2-y,-z
1/2-x,y,-z
1/2-x,1/2-y,-z
1/2+x,y,-z
1/2-x,1/2+y,z
1/2+x,-y,z
loop_
_atom_site_type_symbol
_atom_site_label
_atom_site_fract_x
_atom_site_fract_y
_atom_site_fract_z
Si Si1 0.054991 0.840873 0.679777
Si Si2 0.307178 0.164029 0.979301
Si Si3 0.557766 0.162464 0.222116
Si Si4 0.847235 0.089941 0.233416
Si Si5 0.374550 0.051384 0.101544
Si Si6 0.803577 0.912548 0.531115
Si Si7 0.099127 0.160181 0.546134
O O1 0.057627 0.750000 0.688135
O O2 0.098863 0.876490 0.746748
O O3 0.066743 0.862161 0.556433
O O4 0.000000 0.863650 0.708610
O O5 0.323762 0.250000 0.993430
O O6 0.333019 0.107341 0.060281
O O7 0.250000 0.161194 0.000000
O O8 0.320985 0.135815 0.860722
O O9 0.500000 0.159083 0.215705
O O10 0.572285 0.250000 0.202865
O O11 0.582657 0.104052 0.143007
O O12 0.574892 0.140920 0.341592
O O13 0.817163 0.095099 0.343541
O O14 0.854620 0.004953 0.192113
O O15 0.388889 0.000000 0.000000
O O16 0.750000 0.883442 0.500000
O O17 0.847396 0.873226 0.468014
O O18 0.804576 0.000000 0.500000
O O19 0.102860 0.250000 0.541813
#
# Coordination Sequence:
#
# PCOD9502886 Si02
#       7
#    16  16  16  16  16  16  16
#     4   9  17  32  55  81 110 144 180 220 266 315
#     4  10  22  40  61  82 104 136 181 231 277 319
#     4  10  20  35  56  80 108 143 179 219 270 324
#     4  10  21  36  56  82 112 143 180 223 265 318
#     4  10  22  38  57  79 105 139 181 228 273 317
#     4  10  21  35  52  78 114 149 177 210 259 319
#     4   9  18  33  53  79 109 140 180 222 261 315
#
# _framework density 18.284604000000002
#
# number of rings (size 3 to 8) (size 9 to 14) (size 15 to 20)
#    0.000    2.286    0.000    2.143    0.000    9.429 
#    0.000    3.571    0.000   12.429    0.000    0.000 
#    0.000    0.000    0.000    0.000    0.000    0.000 
#
# Total GULP energy -312489.004715 kJ/mol
# GULP energy per Si atom -5580.160798 kJ/mol
# Density = 1.824299 g / cm^3
# Si number density = 18.284604 Si / 1000 Ang^3
#
#
#
# Elastic Constant Matrix: (Units=GPa)
#
#
# Indices 1 2 3 4 5 6 
#
# 1 123.6177 49.5009 65.1925 0.0000 0.0000 0.0000
# 2 49.5009 77.2294 51.3505 0.0000 0.0000 0.0000
# 3 65.1925 51.3505 68.1396 0.0000 0.0000 0.0000
# 4 0.0000 0.0000 0.0000 14.3934 0.0000 0.0000
# 5 0.0000 0.0000 0.0000 0.0000 20.8457 0.0000
# 6 0.0000 0.0000 0.0000 0.0000 0.0000-2479.7241
#
#
#
# Elastic Compliance Matrix: (Units=1/GPa)
#
#
# Indices 1 2 3 4 5 6 
#
# 1 0.016329 -0.000157 -0.015504 0.000000 0.000000 0.000000
# 2 -0.000157 0.025954 -0.019409 0.000000 0.000000 0.000000
# 3 -0.015504 -0.019409 0.044136 0.000000 0.000000 0.000000
# 4 0.000000 0.000000 0.000000 0.069476 0.000000 0.000000
# 5 0.000000 0.000000 0.000000 0.000000 0.047972 0.000000
# 6 0.000000 0.000000 0.000000 0.000000 0.000000 -0.000403
#
#
# Mechanical properties :
#
#
# Convention : Reuss Voigt Hill
#
# Bulk Modulus (GPa) = 61.43026 66.78605 64.10815
# Shear Modulus (GPa) = 17.91920 -482.03413 -232.05746
#
# Velocity S-wave (km/s) = 3.13392 -16.25425 -11.27784
# Velocity P-wave (km/s) = 6.83849 17.76689 11.59521
#
# Compressibility (1/GPa) = 0.01627862
#
# Stress axis : x y z
#
# Youngs Moduli (GPa) = 61.24131 38.52903 22.65731
#
# Poissons Ratio (x) = 0.00606 0.35128
# Poissons Ratio (y) = 0.00964 0.43975
# Poissons Ratio (z) = 0.94949 0.74781
#
# Static dielectric constant tensor:
#      x y z
#    x 1.602110 0.000000 0.000000 
#    y 0.000000 1.621470 0.000000 
#    z 0.000000 0.000000 1.630920 
# 
# From -- ./inp_files/23826.got.cif
#   From: 2010.05.17/outbox.cif.g08.bks.cpg/sg67_12_cif.got.tgz:23826.got - 2010.06.03 18:28:57.
