data_PCOD9502513
_publ_section_title
;
Structure prediction by ZEFSAII (Michael W. Deem and Ramdas Pophale) SiO2 
 PCOD9502513
Probable space group: C M M A
;
_chemical_formula_sum "Si O2"
_cell_formula_units_Z 80
_cell_length_a 18.996888
_cell_length_b 8.867994
_cell_length_c 26.590931
_cell_angle_alpha 90.000000
_cell_angle_beta 90.000000
_cell_angle_gamma 90.000000
_cell_volume 4479.622280
_symmetry_space_group_name_H-M "C M M A"
_symmetry_group_IT_number 67
_symmetry_cell_setting 'orthorhombic'
loop_
_space_group_symop_operation_xyz
x,y,z
-x,1/2-y,z
x,-y,-z
-x,1/2+y,-z
-x,-y,-z
x,1/2+y,-z
-x,y,z
x,1/2-y,z
1/2+x,1/2+y,z
1/2-x,-y,z
1/2+x,1/2-y,-z
1/2-x,y,-z
1/2-x,1/2-y,-z
1/2+x,y,-z
1/2-x,1/2+y,z
1/2+x,-y,z
loop_
_atom_site_type_symbol
_atom_site_label
_atom_site_fract_x
_atom_site_fract_y
_atom_site_fract_z
Si Si1 0.582397 0.569333 0.349842
Si Si2 0.827846 0.431446 0.447846
Si Si3 0.915456 0.426710 0.141268
Si Si4 0.172518 0.570092 0.052777
Si Si5 0.914389 0.576404 0.245618
O O1 0.500000 0.530526 0.356663
O O2 0.586654 0.750000 0.343121
O O3 0.625579 0.528720 0.399510
O O4 0.609008 0.491352 0.298868
O O5 0.856478 0.500000 0.500000
O O6 0.823918 0.250000 0.451936
O O7 0.750000 0.500000 0.441524
O O8 0.899515 0.250000 0.135064
O O9 0.877238 0.521310 0.098308
O O10 0.892870 0.482479 0.196633
O O11 0.000000 0.445937 0.137729
O O12 0.177417 0.750000 0.048603
O O13 0.250000 0.500000 0.061181
O O14 0.146550 0.500000 0.000000
O O15 0.892945 0.750000 0.240409
O O16 0.000000 0.571251 0.246630
#
# Coordination Sequence:
#
# PCOD9502513 Si02
#       5
#    16  16  16  16  16
#     4   9  18  33  52  74 100 131 167 207 252 302
#     4  10  20  34  52  72  98 132 167 205 250 301
#     4  10  20  35  56  81 109 141 177 217 261 309
#     4  11  22  38  58  79 107 141 178 218 263 315
#     4   9  17  30  50  77 106 135 168 209 258 307
#
# _framework density 17.858647999999999
#
# number of rings (size 3 to 8) (size 9 to 14) (size 15 to 20)
#    0.000    2.200    0.000    4.800    0.000    6.000 
#    0.000    1.000    0.000    2.400    0.000    0.000 
#    0.000    0.000    0.000    0.000    0.000    0.000 
#
# Total GULP energy -223230.740853 kJ/mol
# GULP energy per Si atom -5580.768521 kJ/mol
# Density = 1.781800 g / cm^3
# Si number density = 17.858648 Si / 1000 Ang^3
#
#
#
# Elastic Constant Matrix: (Units=GPa)
#
#
# Indices 1 2 3 4 5 6 
#
# 1 24.2934 34.6009 46.1896 0.0000 0.0000 0.0000
# 2 34.6009 118.3453 79.4978 0.0000 0.0000 0.0000
# 3 46.1896 79.4978 162.8974 0.0000 0.0000 0.0000
# 4 0.0000 0.0000 0.0000 36.6764 0.0000 0.0000
# 5 0.0000 0.0000 0.0000 0.0000-1678.9610 0.0000
# 6 0.0000 0.0000 0.0000 0.0000 0.0000 21.5189
#
#
#
# Elastic Compliance Matrix: (Units=1/GPa)
#
#
# Indices 1 2 3 4 5 6 
#
# 1 0.106744 -0.016182 -0.022370 0.000000 0.000000 0.000000
# 2 -0.016182 0.015024 -0.002744 0.000000 0.000000 0.000000
# 3 -0.022370 -0.002744 0.013821 0.000000 0.000000 0.000000
# 4 0.000000 0.000000 0.000000 0.027265 0.000000 0.000000
# 5 0.000000 0.000000 0.000000 0.000000 -0.000596 0.000000
# 6 0.000000 0.000000 0.000000 0.000000 0.000000 0.046471
#
#
# Mechanical properties :
#
#
# Convention : Reuss Voigt Hill
#
# Bulk Modulus (GPa) = 18.86889 69.56808 44.21849
# Shear Modulus (GPa) = 16.18193 -314.46994 -149.14401
#
# Velocity S-wave (km/s) = 3.01343 -13.28422 -9.14849
# Velocity P-wave (km/s) = 4.76407 14.00909 9.31553
#
# Compressibility (1/GPa) = 0.05299729
#
# Stress axis : x y z
#
# Youngs Moduli (GPa) = 9.36822 66.55967 72.35449
#
# Poissons Ratio (x) = 1.07707 1.61857
# Poissons Ratio (y) = 0.15160 0.19852
# Poissons Ratio (z) = 0.20957 0.18262
#
# Static dielectric constant tensor:
#      x y z
#    x 1.595050 0.000000 0.000000 
#    y 0.000000 1.600690 0.000000 
#    z 0.000000 0.000000 1.601840 
# 
# From -- ./inp_files/43329.got.cif
#   From: 2010.05.17/outbox.cif.g08.bks.cpg/sg67_22_cif.got.tgz:43329.got - 2010.06.03 18:28:57.
