data_PCOD9502259
_publ_section_title
;
Structure prediction by ZEFSAII (Michael W. Deem and Ramdas Pophale) SiO2 
 PCOD9502259
Probable space group: C M M A
;
_chemical_formula_sum "Si O2"
_cell_formula_units_Z 120
_cell_length_a 8.789308
_cell_length_b 27.077324
_cell_length_c 29.830450
_cell_angle_alpha 90.000000
_cell_angle_beta 90.000000
_cell_angle_gamma 90.000000
_cell_volume 7099.376850
_symmetry_space_group_name_H-M "C M M A"
_symmetry_group_IT_number 67
_symmetry_cell_setting 'orthorhombic'
loop_
_space_group_symop_operation_xyz
x,y,z
-x,1/2-y,z
x,-y,-z
-x,1/2+y,-z
-x,-y,-z
x,1/2+y,-z
-x,y,z
x,1/2-y,z
1/2+x,1/2+y,z
1/2-x,-y,z
1/2+x,1/2-y,-z
1/2-x,y,-z
1/2-x,1/2-y,-z
1/2+x,y,-z
1/2-x,1/2+y,z
1/2+x,-y,z
loop_
_atom_site_type_symbol
_atom_site_label
_atom_site_fract_x
_atom_site_fract_y
_atom_site_fract_z
Si Si1 0.180941 0.053177 0.382920
Si Si2 0.818972 0.191411 0.141008
Si Si3 0.181473 0.552861 0.724311
Si Si4 0.827188 0.692477 0.687229
Si Si5 0.175173 0.689975 0.046450
Si Si6 0.817612 0.750000 0.549737
Si Si7 0.679241 0.655110 0.600216
Si Si8 0.680897 0.851808 0.770850
O O1 0.209745 0.059028 0.329210
O O2 0.253694 0.100428 0.407548
O O3 0.000000 0.052936 0.389515
O O4 0.250000 0.000000 0.395942
O O5 0.783075 0.250000 0.146517
O O6 0.765835 0.176341 0.091268
O O7 0.734274 0.160794 0.179248
O O8 0.000000 0.185757 0.145513
O O9 0.250000 0.500000 0.736840
O O10 0.262245 0.595451 0.752611
O O11 0.000000 0.554337 0.731142
O O12 0.832446 0.750000 0.675881
O O13 0.716665 0.666599 0.652184
O O14 0.765463 0.685574 0.737014
O O15 0.000000 0.672321 0.683323
O O16 0.176695 0.750000 0.045041
O O17 0.000000 0.674304 0.049498
O O18 0.250000 0.672782 0.000000
O O19 0.750000 0.750000 0.500000
O O20 0.759007 0.700010 0.573823
O O21 0.000000 0.750000 0.549811
O O22 0.500000 0.656113 0.591777
O O23 0.500000 0.847553 0.766914
#
# Coordination Sequence:
#
# PCOD9502259 Si02
#       8
#    16  16  16  16  16   8  16  16
#     4  10  20  35  57  84 116 150 187 232 279 325
#     4  10  20  33  47  65  94 133 174 215 262 312
#     4  10  20  34  52  72 101 135 175 218 265 312
#     4  11  22  35  51  73 105 144 183 222 265 312
#     4   9  16  27  44  65  89 120 162 210 259 310
#     4  12  26  46  68  92 122 154 190 234 283 330
#     4  12  23  37  60  88 117 149 188 229 274 328
#     4  12  23  33  48  70 101 138 177 216 262 316
#
# _framework density 16.902892999999999
#
# number of rings (size 3 to 8) (size 9 to 14) (size 15 to 20)
#    0.000    1.333    2.000    5.400    0.000    5.867 
#    0.000    0.000    0.000    0.400    0.000    2.800 
#    0.000    0.533    0.000    5.333    0.000    3.467 
#
# Total GULP energy -335087.802501 kJ/mol
# GULP energy per Si atom -5584.796708 kJ/mol
# Density = 1.686442 g / cm^3
# Si number density = 16.902893 Si / 1000 Ang^3
#
#
#
# Elastic Constant Matrix: (Units=GPa)
#
#
# Indices 1 2 3 4 5 6 
#
# 1 118.3304 54.0912 30.1386 0.0000 0.0000 0.0000
# 2 54.0912 110.3717 28.5331 0.0000 0.0000 0.0000
# 3 30.1386 28.5331 64.4458 0.0000 0.0000 0.0000
# 4 0.0000 0.0000 0.0000 8.3342 0.0000 0.0000
# 5 0.0000 0.0000 0.0000 0.0000 27.3226 0.0000
# 6 0.0000 0.0000 0.0000 0.0000 0.0000 26.0419
#
#
#
# Elastic Compliance Matrix: (Units=1/GPa)
#
#
# Indices 1 2 3 4 5 6 
#
# 1 0.011462 -0.004778 -0.003244 0.000000 0.000000 0.000000
# 2 -0.004778 0.012223 -0.003177 0.000000 0.000000 0.000000
# 3 -0.003244 -0.003177 0.018441 0.000000 0.000000 0.000000
# 4 0.000000 0.000000 0.000000 0.119987 0.000000 0.000000
# 5 0.000000 0.000000 0.000000 0.000000 0.036600 0.000000
# 6 0.000000 0.000000 0.000000 0.000000 0.000000 0.038400
#
#
# Mechanical properties :
#
#
# Convention : Reuss Voigt Hill
#
# Bulk Modulus (GPa) = 50.69513 57.63042 54.16277
# Shear Modulus (GPa) = 18.79076 24.36541 21.57808
#
# Velocity S-wave (km/s) = 3.33782 3.80082 3.57682
# Velocity P-wave (km/s) = 6.70163 7.30963 7.01222
#
# Compressibility (1/GPa) = 0.01972576
#
# Stress axis : x y z
#
# Youngs Moduli (GPa) = 87.24824 81.80994 54.22720
#
# Poissons Ratio (x) = 0.39092 0.17594
# Poissons Ratio (y) = 0.41690 0.17229
# Poissons Ratio (z) = 0.28308 0.25993
#
# Static dielectric constant tensor:
#      x y z
#    x 1.564230 0.000000 0.000000 
#    y 0.000000 1.584580 0.000000 
#    z 0.000000 0.000000 1.563140 
# 
# From -- ./inp_files/43941.got.cif
#   From: 2010.05.17/outbox.cif.g08.bks.cpg/sg67_22_cif.got.tgz:43941.got - 2010.06.03 18:28:57.
