data_PCOD9502976
_publ_section_title
;
Structure prediction by ZEFSAII (Michael W. Deem and Ramdas Pophale) SiO2 
 PCOD9502976
Probable space group: C M M A
;
_chemical_formula_sum "Si O2"
_cell_formula_units_Z 96
_cell_length_a 8.620668
_cell_length_b 29.662722
_cell_length_c 20.983461
_cell_angle_alpha 90.000000
_cell_angle_beta 90.000000
_cell_angle_gamma 90.000000
_cell_volume 5365.732816
_symmetry_space_group_name_H-M "C M M A"
_symmetry_group_IT_number 67
_symmetry_cell_setting 'orthorhombic'
loop_
_space_group_symop_operation_xyz
x,y,z
-x,1/2-y,z
x,-y,-z
-x,1/2+y,-z
-x,-y,-z
x,1/2+y,-z
-x,y,z
x,1/2-y,z
1/2+x,1/2+y,z
1/2-x,-y,z
1/2+x,1/2-y,-z
1/2-x,y,-z
1/2-x,1/2-y,-z
1/2+x,y,-z
1/2-x,1/2+y,z
1/2+x,-y,z
loop_
_atom_site_type_symbol
_atom_site_label
_atom_site_fract_x
_atom_site_fract_y
_atom_site_fract_z
Si Si1 0.686089 0.949523 0.311431
Si Si2 0.686713 0.300254 0.756954
Si Si3 0.813790 0.104067 0.567147
Si Si4 0.186873 0.799669 0.386194
Si Si5 0.813108 0.606749 0.815527
Si Si6 0.184365 0.049449 0.930080
O O1 0.500000 0.950276 0.315966
O O2 0.753410 0.924436 0.373158
O O3 0.728079 0.921912 0.247606
O O4 0.750000 0.000000 0.307463
O O5 0.500000 0.302909 0.748913
O O6 0.724913 0.250000 0.780912
O O7 0.761104 0.305088 0.687141
O O8 0.733331 0.341678 0.801463
O O9 0.750000 0.086844 0.500000
O O10 0.759047 0.156033 0.576704
O O11 0.000000 0.103183 0.566745
O O12 0.242590 0.750000 0.408098
O O13 0.000000 0.799377 0.388496
O O14 0.736715 0.584789 0.877033
O O15 0.000000 0.604885 0.822693
O O16 0.000000 0.046641 0.933459
O O17 0.250000 0.000000 0.912694
O O18 0.250000 0.060662 0.000000
#
# Coordination Sequence:
#
# PCOD9502976 Si02
#       6
#    16  16  16  16  16  16
#     4  11  23  39  58  81 108 140 180 228 276 327
#     4   9  17  31  54  83 113 145 180 220 268 321
#     4  11  23  38  56  77 106 142 182 227 277 332
#     4   9  18  33  53  78 108 140 176 221 272 326
#     4  10  20  35  57  86 117 147 182 225 270 321
#     4  11  22  37  58  84 117 153 188 227 272 324
#
# _framework density 17.891311000000002
#
# number of rings (size 3 to 8) (size 9 to 14) (size 15 to 20)
#    0.000    1.833    1.667    3.500    0.000    4.667 
#    0.000    1.667    0.000    0.500    0.000    0.000 
#    0.000    0.000    0.000    0.000    0.000    0.000 
#
# Total GULP energy -268043.355688 kJ/mol
# GULP energy per Si atom -5584.236577 kJ/mol
# Density = 1.785059 g / cm^3
# Si number density = 17.891311 Si / 1000 Ang^3
#
#
#
# Elastic Constant Matrix: (Units=GPa)
#
#
# Indices 1 2 3 4 5 6 
#
# 1 45.4507 35.3072 30.1623 0.0000 0.0000 0.0000
# 2 35.3072 125.7066 61.1997 0.0000 0.0000 0.0000
# 3 30.1623 61.1997 87.0088 0.0000 0.0000 0.0000
# 4 0.0000 0.0000 0.0000 16.1576 0.0000 0.0000
# 5 0.0000 0.0000 0.0000 0.0000 26.6270 0.0000
# 6 0.0000 0.0000 0.0000 0.0000 0.0000 8.2607
#
#
#
# Elastic Compliance Matrix: (Units=1/GPa)
#
#
# Indices 1 2 3 4 5 6 
#
# 1 0.030682 -0.005231 -0.006957 0.000000 0.000000 0.000000
# 2 -0.005231 0.012989 -0.007323 0.000000 0.000000 0.000000
# 3 -0.006957 -0.007323 0.019056 0.000000 0.000000 0.000000
# 4 0.000000 0.000000 0.000000 0.061891 0.000000 0.000000
# 5 0.000000 0.000000 0.000000 0.000000 0.037556 0.000000
# 6 0.000000 0.000000 0.000000 0.000000 0.000000 0.121056
#
#
# Mechanical properties :
#
#
# Convention : Reuss Voigt Hill
#
# Bulk Modulus (GPa) = 42.18444 56.83384 49.50914
# Shear Modulus (GPa) = 15.14450 18.97550 17.06000
#
# Velocity S-wave (km/s) = 2.91258 3.26022 3.09129
# Velocity P-wave (km/s) = 5.91102 6.78286 6.36189
#
# Compressibility (1/GPa) = 0.02370542
#
# Stress axis : x y z
#
# Youngs Moduli (GPa) = 32.59234 76.98570 52.47759
#
# Poissons Ratio (x) = 0.40268 0.36509
# Poissons Ratio (y) = 0.17048 0.38430
# Poissons Ratio (z) = 0.22675 0.56378
#
# Static dielectric constant tensor:
#      x y z
#    x 1.600040 0.000000 0.000000 
#    y 0.000000 1.631990 0.000000 
#    z 0.000000 0.000000 1.574200 
# 
# From -- ./inp_files/37146.got.cif
#   From: 2010.05.17/outbox.cif.g08.bks.cpg/sg67_19_cif.got.tgz:37146.got - 2010.06.03 18:28:57.
