data_PCOD9502798
_publ_section_title
;
Structure prediction by ZEFSAII (Michael W. Deem and Ramdas Pophale) SiO2 
 PCOD9502798
Probable space group: C M M A
;
_chemical_formula_sum "Si O2"
_cell_formula_units_Z 112
_cell_length_a 16.214400
_cell_length_b 18.001314
_cell_length_c 17.511992
_cell_angle_alpha 90.000000
_cell_angle_beta 90.000000
_cell_angle_gamma 90.000000
_cell_volume 5111.409081
_symmetry_space_group_name_H-M "C M M A"
_symmetry_group_IT_number 67
_symmetry_cell_setting 'orthorhombic'
loop_
_space_group_symop_operation_xyz
x,y,z
-x,1/2-y,z
x,-y,-z
-x,1/2+y,-z
-x,-y,-z
x,1/2+y,-z
-x,y,z
x,1/2-y,z
1/2+x,1/2+y,z
1/2-x,-y,z
1/2+x,1/2-y,-z
1/2-x,y,-z
1/2-x,1/2-y,-z
1/2+x,y,-z
1/2-x,1/2+y,z
1/2+x,-y,z
loop_
_atom_site_type_symbol
_atom_site_label
_atom_site_fract_x
_atom_site_fract_y
_atom_site_fract_z
Si Si1 0.266936 0.833521 0.762448
Si Si2 0.907417 0.864569 0.120428
Si Si3 0.658635 0.484758 0.908443
Si Si4 0.171539 0.949024 0.667737
Si Si5 0.096451 0.329858 0.059843
Si Si6 0.906022 0.411584 0.482227
Si Si7 0.595533 0.103952 0.346479
O O1 0.234049 0.750000 0.755869
O O2 0.323036 0.839410 0.839009
O O3 0.199234 0.895639 0.737170
O O4 0.340956 0.849632 0.702747
O O5 0.000000 0.840838 0.146287
O O6 0.902455 0.954299 0.125237
O O7 0.900165 0.841352 0.031723
O O8 0.750000 0.500000 0.879134
O O9 0.637172 0.399454 0.900392
O O10 0.658318 0.500000 0.000000
O O11 0.147217 0.901294 0.593497
O O12 0.250000 0.000000 0.648107
O O13 0.105054 0.015880 0.676689
O O14 0.133162 0.250000 0.079200
O O15 0.000000 0.330239 0.079462
O O16 0.906200 0.500000 0.500000
O O17 0.881776 0.381461 0.564875
O O18 0.000000 0.388931 0.465962
O O19 0.500000 0.123701 0.335989
#
# Coordination Sequence:
#
# PCOD9502798 Si02
#       7
#    16  16  16  16  16  16  16
#     4  11  23  35  48  72 108 144 177 217 264 315
#     4  10  20  35  54  74 102 146 192 225 258 314
#     4   9  18  33  53  81 113 140 171 215 268 325
#     4   9  18  31  50  74 100 132 171 217 266 316
#     4   9  17  32  57  85 109 136 174 223 277 326
#     4   8  14  28  52  78 100 127 173 228 273 317
#     4   9  18  33  55  79 101 133 178 227 273 318
#
# _framework density 21.911767000000001
#
# number of rings (size 3 to 8) (size 9 to 14) (size 15 to 20)
#    0.000    2.714    0.000    2.571    0.000   11.714 
#    0.000    7.857    0.000    2.571    0.000    0.000 
#    0.000    0.000    0.000    2.571    0.000    0.429 
#
# Total GULP energy -312233.582689 kJ/mol
# GULP energy per Si atom -5575.599691 kJ/mol
# Density = 2.186189 g / cm^3
# Si number density = 21.911767 Si / 1000 Ang^3
#
#
#
# Elastic Constant Matrix: (Units=GPa)
#
#
# Indices 1 2 3 4 5 6 
#
# 1 61.9857 27.8804 34.1703 0.0000 0.0000 0.0000
# 2 27.8804 127.7869 21.0972 0.0000 0.0000 0.0000
# 3 34.1703 21.0972 73.8414 0.0000 0.0000 0.0000
# 4 0.0000 0.0000 0.0000 3.3653 0.0000 0.0000
# 5 0.0000 0.0000 0.0000 0.0000 -5.1443 0.0000
# 6 0.0000 0.0000 0.0000 0.0000 0.0000 13.8493
#
#
#
# Elastic Compliance Matrix: (Units=1/GPa)
#
#
# Indices 1 2 3 4 5 6 
#
# 1 0.023000 -0.003422 -0.009666 0.000000 0.000000 0.000000
# 2 -0.003422 0.008722 -0.000908 0.000000 0.000000 0.000000
# 3 -0.009666 -0.000908 0.018275 0.000000 0.000000 0.000000
# 4 0.000000 0.000000 0.000000 0.297152 0.000000 0.000000
# 5 0.000000 0.000000 0.000000 0.000000 -0.194391 0.000000
# 6 0.000000 0.000000 0.000000 0.000000 0.000000 0.072206
#
#
# Mechanical properties :
#
#
# Convention : Reuss Voigt Hill
#
# Bulk Modulus (GPa) = 45.44487 47.76777 46.60632
# Shear Modulus (GPa) = 19.20923 14.44514 16.82718
#
# Velocity S-wave (km/s) = 2.96406 2.57035 2.77420
# Velocity P-wave (km/s) = 5.70080 5.53682 5.61941
#
# Compressibility (1/GPa) = 0.02200468
#
# Stress axis : x y z
#
# Youngs Moduli (GPa) = 43.47739 114.65013 54.71993
#
# Poissons Ratio (x) = 0.39238 0.52891
# Poissons Ratio (y) = 0.14880 0.04970
# Poissons Ratio (z) = 0.42024 0.10413
#
# Static dielectric constant tensor:
#      x y z
#    x 1.817280 0.000000 0.000000 
#    y 0.000000 1.831170 0.000000 
#    z 0.000000 0.000000 1.871820 
# 
# From -- ./inp_files/39057.got.cif
#   From: 2010.05.17/outbox.cif.g08.bks.cpg/sg67_20_cif.got.tgz:39057.got - 2010.06.03 18:28:57.
