data_PCOD9502242
_publ_section_title
;
Structure prediction by ZEFSAII (Michael W. Deem and Ramdas Pophale) SiO2 
 PCOD9502242
Probable space group: C M M A
;
_chemical_formula_sum "Si O2"
_cell_formula_units_Z 88
_cell_length_a 14.600827
_cell_length_b 13.589532
_cell_length_c 21.833479
_cell_angle_alpha 90.000000
_cell_angle_beta 90.000000
_cell_angle_gamma 90.000000
_cell_volume 4332.164095
_symmetry_space_group_name_H-M "C M M A"
_symmetry_group_IT_number 67
_symmetry_cell_setting 'orthorhombic'
loop_
_space_group_symop_operation_xyz
x,y,z
-x,1/2-y,z
x,-y,-z
-x,1/2+y,-z
-x,-y,-z
x,1/2+y,-z
-x,y,z
x,1/2-y,z
1/2+x,1/2+y,z
1/2-x,-y,z
1/2+x,1/2-y,-z
1/2-x,y,-z
1/2-x,1/2-y,-z
1/2+x,y,-z
1/2-x,1/2+y,z
1/2+x,-y,z
loop_
_atom_site_type_symbol
_atom_site_label
_atom_site_fract_x
_atom_site_fract_y
_atom_site_fract_z
Si Si1 0.103363 0.130807 0.527165
Si Si2 0.601773 0.457701 0.093696
Si Si3 0.792185 0.131954 0.404863
Si Si4 0.609984 0.634848 0.778708
Si Si5 0.150540 0.142680 0.028937
Si Si6 0.750000 0.500000 0.297189
O O1 0.100237 0.250000 0.527630
O O2 0.137160 0.103055 0.458810
O O3 0.188905 0.107326 0.571310
O O4 0.000000 0.096743 0.541653
O O5 0.500000 0.493173 0.108642
O O6 0.629922 0.389439 0.149835
O O7 0.655110 0.558116 0.079765
O O8 0.597328 0.397993 0.030168
O O9 0.797623 0.250000 0.397986
O O10 0.803312 0.075856 0.341600
O O11 0.500000 0.619527 0.767969
O O12 0.628378 0.750000 0.765652
O O13 0.676107 0.562989 0.740921
O O14 0.118830 0.250000 0.049712
O O15 0.250000 0.151174 0.000000
#
# Coordination Sequence:
#
# PCOD9502242 Si02
#       6
#    16  16  16  16  16   8
#     4   8  15  31  56  82 115 156 190 233 296 363
#     4  10  20  36  58  81 112 153 198 243 293 359
#     4   9  19  35  53  83 118 149 195 244 297 362
#     4  10  24  45  65  86 116 161 214 259 303 361
#     4  10  20  32  54  89 123 150 184 235 300 366
#     4  12  24  37  62  87 116 160 208 262 308 350
#
# _framework density 20.313174
#
# number of rings (size 3 to 8) (size 9 to 14) (size 15 to 20)
#    0.000    2.364    0.000    4.364    2.545    5.091 
#    0.000    3.636    0.000    3.818    0.000    0.000 
#    0.000    0.000    0.000    0.000    0.000    0.000 
#
# Total GULP energy -245386.447760 kJ/mol
# GULP energy per Si atom -5576.964722 kJ/mol
# Density = 2.026694 g / cm^3
# Si number density = 20.313174 Si / 1000 Ang^3
#
#
#
# Elastic Constant Matrix: (Units=GPa)
#
#
# Indices 1 2 3 4 5 6 
#
# 1 103.9416 39.1623 33.2565 0.0000 0.0000 0.0000
# 2 39.1623 133.2993 37.7584 0.0000 0.0000 0.0000
# 3 33.2565 37.7584 72.5706 0.0000 0.0000 0.0000
# 4 0.0000 0.0000 0.0000 31.8055 0.0000 0.0000
# 5 0.0000 0.0000 0.0000 0.0000 12.3750 0.0000
# 6 0.0000 0.0000 0.0000 0.0000 0.0000 21.7243
#
#
#
# Elastic Compliance Matrix: (Units=1/GPa)
#
#
# Indices 1 2 3 4 5 6 
#
# 1 0.011835 -0.002276 -0.004239 0.000000 0.000000 0.000000
# 2 -0.002276 0.009236 -0.003763 0.000000 0.000000 0.000000
# 3 -0.004239 -0.003763 0.017680 0.000000 0.000000 0.000000
# 4 0.000000 0.000000 0.000000 0.031441 0.000000 0.000000
# 5 0.000000 0.000000 0.000000 0.000000 0.080808 0.000000
# 6 0.000000 0.000000 0.000000 0.000000 0.000000 0.046031
#
#
# Mechanical properties :
#
#
# Convention : Reuss Voigt Hill
#
# Bulk Modulus (GPa) = 54.95922 58.90735 56.93328
# Shear Modulus (GPa) = 22.35607 26.48991 24.42299
#
# Velocity S-wave (km/s) = 3.32108 3.61512 3.47121
# Velocity P-wave (km/s) = 6.46690 6.81821 6.64488
#
# Compressibility (1/GPa) = 0.01819531
#
# Stress axis : x y z
#
# Youngs Moduli (GPa) = 84.49726 108.26685 56.56105
#
# Poissons Ratio (x) = 0.24643 0.23977
# Poissons Ratio (y) = 0.19233 0.21282
# Poissons Ratio (z) = 0.35819 0.40737
#
# Static dielectric constant tensor:
#      x y z
#    x 1.816950 0.000000 0.000000 
#    y 0.000000 1.778330 0.000000 
#    z 0.000000 0.000000 1.710390 
# 
# From -- ./inp_files/38329.got.cif
#   From: 2010.05.17/outbox.cif.g08.bks.cpg/sg67_20_cif.got.tgz:38329.got - 2010.06.03 18:28:57.
