data_PCOD9502382
_publ_section_title
;
Structure prediction by ZEFSAII (Michael W. Deem and Ramdas Pophale) SiO2 
 PCOD9502382
Probable space group: C M M A
;
_chemical_formula_sum "Si O2"
_cell_formula_units_Z 72
_cell_length_a 22.504575
_cell_length_b 8.910067
_cell_length_c 19.110735
_cell_angle_alpha 90.000000
_cell_angle_beta 90.000000
_cell_angle_gamma 90.000000
_cell_volume 3832.032430
_symmetry_space_group_name_H-M "C M M A"
_symmetry_group_IT_number 67
_symmetry_cell_setting 'orthorhombic'
loop_
_space_group_symop_operation_xyz
x,y,z
-x,1/2-y,z
x,-y,-z
-x,1/2+y,-z
-x,-y,-z
x,1/2+y,-z
-x,y,z
x,1/2-y,z
1/2+x,1/2+y,z
1/2-x,-y,z
1/2+x,1/2-y,-z
1/2-x,y,-z
1/2-x,1/2-y,-z
1/2+x,y,-z
1/2-x,1/2+y,z
1/2+x,-y,z
loop_
_atom_site_type_symbol
_atom_site_label
_atom_site_fract_x
_atom_site_fract_y
_atom_site_fract_z
Si Si1 0.500000 0.574448 0.575200
Si Si2 0.908173 0.927108 0.677300
Si Si3 0.567662 0.567956 0.162675
Si Si4 0.686054 0.426117 0.568413
Si Si5 0.812653 0.432460 0.078029
O O1 0.500000 0.750000 0.565661
O O2 0.500000 0.500000 0.500000
O O3 0.445858 0.520068 0.622475
O O4 0.924236 0.750000 0.672956
O O5 0.919806 0.974634 0.756592
O O6 0.843289 0.943569 0.644428
O O7 0.500000 0.517378 0.142839
O O8 0.566332 0.750000 0.159809
O O9 0.626060 0.524177 0.118040
O O10 0.654862 0.500000 0.500000
O O11 0.689171 0.250000 0.553780
O O12 0.750000 0.500000 0.571831
O O13 0.808490 0.250000 0.076580
O O14 0.750000 0.500000 0.107087
O O15 0.817360 0.500000 0.000000
#
# Coordination Sequence:
#
# PCOD9502382 Si02
#       5
#     8  16  16  16  16
#     4  12  24  36  54  80 107 142 185 232 283 328
#     4  10  20  37  58  78 105 143 184 228 279 339
#     4   9  18  35  60  84 112 151 192 231 283 347
#     4  10  20  33  52  75 101 137 177 224 278 329
#     4  10  20  36  60  88 117 154 193 236 286 339
#
# _framework density 18.788983999999999
#
# number of rings (size 3 to 8) (size 9 to 14) (size 15 to 20)
#    0.000    2.000    1.111    4.333    0.000    4.889 
#    0.000    2.222    0.000    0.000    0.000    0.000 
#    0.000    0.000    0.000    0.000    0.000    0.000 
#
# Total GULP energy -200531.640094 kJ/mol
# GULP energy per Si atom -5570.323336 kJ/mol
# Density = 1.874622 g / cm^3
# Si number density = 18.788984 Si / 1000 Ang^3
#
#
#
# Elastic Constant Matrix: (Units=GPa)
#
#
# Indices 1 2 3 4 5 6 
#
# 1 149.8103 40.8179 73.7417 0.0000 0.0000 0.0000
# 2 40.8179 63.4495 34.1652 0.0000 0.0000 0.0000
# 3 73.7417 34.1652 97.7567 0.0000 0.0000 0.0000
# 4 0.0000 0.0000 0.0000 16.1589 0.0000 0.0000
# 5 0.0000 0.0000 0.0000 0.0000 28.6806 0.0000
# 6 0.0000 0.0000 0.0000 0.0000 0.0000 17.0903
#
#
#
# Elastic Compliance Matrix: (Units=1/GPa)
#
#
# Indices 1 2 3 4 5 6 
#
# 1 0.011137 -0.003253 -0.007264 0.000000 0.000000 0.000000
# 2 -0.003253 0.020364 -0.004663 0.000000 0.000000 0.000000
# 3 -0.007264 -0.004663 0.017339 0.000000 0.000000 0.000000
# 4 0.000000 0.000000 0.000000 0.061885 0.000000 0.000000
# 5 0.000000 0.000000 0.000000 0.000000 0.034867 0.000000
# 6 0.000000 0.000000 0.000000 0.000000 0.000000 0.058513
#
#
# Mechanical properties :
#
#
# Convention : Reuss Voigt Hill
#
# Bulk Modulus (GPa) = 54.11479 67.60733 60.86106
# Shear Modulus (GPa) = 20.77912 23.20542 21.99227
#
# Velocity S-wave (km/s) = 3.32915 3.51815 3.42495
# Velocity P-wave (km/s) = 6.60617 7.25008 6.93560
#
# Compressibility (1/GPa) = 0.01847924
#
# Stress axis : x y z
#
# Youngs Moduli (GPa) = 89.78921 49.10549 57.67370
#
# Poissons Ratio (x) = 0.15975 0.41896
# Poissons Ratio (y) = 0.29210 0.26894
# Poissons Ratio (z) = 0.65225 0.22899
#
# Static dielectric constant tensor:
#      x y z
#    x 1.781640 0.000000 0.000000 
#    y 0.000000 1.646690 0.000000 
#    z 0.000000 0.000000 1.545110 
# 
# From -- ./inp_files/35365.got.cif
#   From: 2010.05.17/outbox.cif.g08.bks.cpg/sg67_18_cif.got.tgz:35365.got - 2010.06.03 18:28:57.
