data_PCOD9502041
_publ_section_title
;
Structure prediction by ZEFSAII (Michael W. Deem and Ramdas Pophale) SiO2 
 PCOD9502041
Probable space group: C M M A
;
_chemical_formula_sum "Si O2"
_cell_formula_units_Z 60
_cell_length_a 14.974069
_cell_length_b 13.644732
_cell_length_c 14.789762
_cell_angle_alpha 90.000000
_cell_angle_beta 90.000000
_cell_angle_gamma 90.000000
_cell_volume 3021.802146
_symmetry_space_group_name_H-M "C M M A"
_symmetry_group_IT_number 67
_symmetry_cell_setting 'orthorhombic'
loop_
_space_group_symop_operation_xyz
x,y,z
-x,1/2-y,z
x,-y,-z
-x,1/2+y,-z
-x,-y,-z
x,1/2+y,-z
-x,y,z
x,1/2-y,z
1/2+x,1/2+y,z
1/2-x,-y,z
1/2+x,1/2-y,-z
1/2-x,y,-z
1/2-x,1/2-y,-z
1/2+x,y,-z
1/2-x,1/2+y,z
1/2+x,-y,z
loop_
_atom_site_type_symbol
_atom_site_label
_atom_site_fract_x
_atom_site_fract_y
_atom_site_fract_z
Si Si1 0.250000 0.000000 0.716846
Si Si2 0.335410 0.635077 0.433123
Si Si3 0.000000 0.000000 0.500000
Si Si4 0.353914 0.860675 0.024964
Si Si5 0.402674 0.959245 0.848257
O O1 0.304623 0.076259 0.655981
O O2 0.177907 0.054844 0.779543
O O3 0.352488 0.750000 0.415707
O O4 0.250000 0.628371 0.500000
O O5 0.420755 0.580885 0.474847
O O6 0.367049 0.750000 0.055516
O O7 0.385324 0.938238 0.099197
O O8 0.250000 0.876890 0.000000
O O9 0.401207 0.881775 0.929763
O O10 0.500000 0.960082 0.803721
#
# Coordination Sequence:
#
# PCOD9502041 Si02
#       5
#     8  16   4  16  16
#     4  12  23  43  60  94 138 164 206 271 329 390
#     4  11  25  45  71  99 131 174 215 259 330 403
#     4  12  20  48  76 104 124 170 216 274 310 400
#     4  10  19  38  61  83 120 170 222 269 319 381
#     4  11  23  37  61  88 122 171 215 265 327 375
#
# _framework density 19.855701
#
# number of rings (size 3 to 8) (size 9 to 14) (size 15 to 20)
#    0.000    1.067    5.333    2.800    1.867    4.267 
#    0.000    0.000    0.000    0.000    0.000    0.000 
#    0.000    0.000    0.000    0.000    0.000    0.000 
#
# Total GULP energy -167079.671216 kJ/mol
# GULP energy per Si atom -5569.322374 kJ/mol
# Density = 1.981051 g / cm^3
# Si number density = 19.855701 Si / 1000 Ang^3
#
#
#
# Elastic Constant Matrix: (Units=GPa)
#
#
# Indices 1 2 3 4 5 6 
#
# 1 168.9217 31.6579 19.5236 0.0000 0.0000 0.0000
# 2 31.6579 100.4717 7.9866 0.0000 0.0000 0.0000
# 3 19.5236 7.9866 39.7685 0.0000 0.0000 0.0000
# 4 0.0000 0.0000 0.0000 3.0259 0.0000 0.0000
# 5 0.0000 0.0000 0.0000 0.0000 10.0409 0.0000
# 6 0.0000 0.0000 0.0000 0.0000 0.0000 6.7090
#
#
#
# Elastic Compliance Matrix: (Units=1/GPa)
#
#
# Indices 1 2 3 4 5 6 
#
# 1 0.006598 -0.001851 -0.002868 0.000000 0.000000 0.000000
# 2 -0.001851 0.010634 -0.001227 0.000000 0.000000 0.000000
# 3 -0.002868 -0.001227 0.026800 0.000000 0.000000 0.000000
# 4 0.000000 0.000000 0.000000 0.330485 0.000000 0.000000
# 5 0.000000 0.000000 0.000000 0.000000 0.099593 0.000000
# 6 0.000000 0.000000 0.000000 0.000000 0.000000 0.149053
#
#
# Mechanical properties :
#
#
# Convention : Reuss Voigt Hill
#
# Bulk Modulus (GPa) = 31.11304 47.49980 39.30642
# Shear Modulus (GPa) = 7.74274 20.62141 14.18207
#
# Velocity S-wave (km/s) = 1.97686 3.22617 2.67546
# Velocity P-wave (km/s) = 4.57321 6.15240 5.42062
#
# Compressibility (1/GPa) = 0.03214087
#
# Stress axis : x y z
#
# Youngs Moduli (GPa) = 151.55545 94.03941 37.31387
#
# Poissons Ratio (x) = 0.17408 0.10700
# Poissons Ratio (y) = 0.28055 0.04578
# Poissons Ratio (z) = 0.43459 0.11537
#
# Static dielectric constant tensor:
#      x y z
#    x 1.745610 0.000000 0.000000 
#    y 0.000000 1.692280 0.000000 
#    z 0.000000 0.000000 1.711320 
# 
# From -- ./inp_files/26740.got.cif
#   From: 2010.05.17/outbox.cif.g08.bks.cpg/sg67_14_cif.got.tgz:26740.got - 2010.06.03 18:28:57.
