data_PCOD9502543
_publ_section_title
;
Structure prediction by ZEFSAII (Michael W. Deem and Ramdas Pophale) SiO2 
 PCOD9502543
Probable space group: C M M A
;
_chemical_formula_sum "Si O2"
_cell_formula_units_Z 80
_cell_length_a 27.979743
_cell_length_b 8.812965
_cell_length_c 18.996321
_cell_angle_alpha 90.000000
_cell_angle_beta 90.000000
_cell_angle_gamma 90.000000
_cell_volume 4684.198235
_symmetry_space_group_name_H-M "C M M A"
_symmetry_group_IT_number 67
_symmetry_cell_setting 'orthorhombic'
loop_
_space_group_symop_operation_xyz
x,y,z
-x,1/2-y,z
x,-y,-z
-x,1/2+y,-z
-x,-y,-z
x,1/2+y,-z
-x,y,z
x,1/2-y,z
1/2+x,1/2+y,z
1/2-x,-y,z
1/2+x,1/2-y,-z
1/2-x,y,-z
1/2-x,1/2-y,-z
1/2+x,y,-z
1/2-x,1/2+y,z
1/2+x,-y,z
loop_
_atom_site_type_symbol
_atom_site_label
_atom_site_fract_x
_atom_site_fract_y
_atom_site_fract_z
Si Si1 0.697960 0.568834 0.854781
Si Si2 0.105352 0.930672 0.925222
Si Si3 0.647100 0.430614 0.293383
Si Si4 0.554522 0.568117 0.791993
Si Si5 0.697270 0.569444 0.425833
O O1 0.698096 0.750000 0.865268
O O2 0.750000 0.500000 0.867018
O O3 0.657525 0.494585 0.903606
O O4 0.681121 0.539695 0.774158
O O5 0.106641 0.750000 0.928703
O O6 0.070185 0.985668 0.863423
O O7 0.091248 0.000000 0.000000
O O8 0.649211 0.250000 0.307886
O O9 0.593813 0.470218 0.267044
O O10 0.664429 0.520951 0.360932
O O11 0.500000 0.533612 0.772987
O O12 0.558825 0.750000 0.803803
O O13 0.680217 0.500000 0.500000
O O14 0.700948 0.750000 0.431479
O O15 0.750000 0.500000 0.413273
#
# Coordination Sequence:
#
# PCOD9502543 Si02
#       5
#    16  16  16  16  16
#     4  10  20  34  52  75 103 136 173 211 253 304
#     4  11  22  36  53  74 102 134 170 213 259 308
#     4   9  18  33  53  77 105 134 167 208 252 300
#     4   9  19  37  59  80 102 131 168 211 260 310
#     4  11  21  33  51  76 108 142 175 209 247 294
#
# _framework density 17.078696000000001
#
# number of rings (size 3 to 8) (size 9 to 14) (size 15 to 20)
#    0.000    2.000    0.000    6.600    0.000    6.800 
#    0.000    2.000    0.000    0.600    0.000    0.000 
#    0.000    0.000    0.000    0.000    0.000    0.000 
#
# Total GULP energy -223391.481238 kJ/mol
# GULP energy per Si atom -5584.787031 kJ/mol
# Density = 1.703982 g / cm^3
# Si number density = 17.078696 Si / 1000 Ang^3
#
#
#
# Elastic Constant Matrix: (Units=GPa)
#
#
# Indices 1 2 3 4 5 6 
#
# 1 67.2218 29.5394 25.4220 0.0000 0.0000 0.0000
# 2 29.5394 92.5643 58.0146 0.0000 0.0000 0.0000
# 3 25.4220 58.0146 101.0057 0.0000 0.0000 0.0000
# 4 0.0000 0.0000 0.0000 27.4248 0.0000 0.0000
# 5 0.0000 0.0000 0.0000 0.0000 7.7327 0.0000
# 6 0.0000 0.0000 0.0000 0.0000 0.0000 23.3560
#
#
#
# Elastic Compliance Matrix: (Units=1/GPa)
#
#
# Indices 1 2 3 4 5 6 
#
# 1 0.017526 -0.004419 -0.001873 0.000000 0.000000 0.000000
# 2 -0.004419 0.017994 -0.009223 0.000000 0.000000 0.000000
# 3 -0.001873 -0.009223 0.015669 0.000000 0.000000 0.000000
# 4 0.000000 0.000000 0.000000 0.036463 0.000000 0.000000
# 5 0.000000 0.000000 0.000000 0.000000 0.129321 0.000000
# 6 0.000000 0.000000 0.000000 0.000000 0.000000 0.042816
#
#
# Mechanical properties :
#
#
# Convention : Reuss Voigt Hill
#
# Bulk Modulus (GPa) = 49.60459 54.08264 51.84361
# Shear Modulus (GPa) = 16.80449 21.55708 19.18078
#
# Velocity S-wave (km/s) = 3.14019 3.55663 3.35488
# Velocity P-wave (km/s) = 6.50042 6.97149 6.74007
#
# Compressibility (1/GPa) = 0.02015943
#
# Stress axis : x y z
#
# Youngs Moduli (GPa) = 57.05688 55.57389 63.81938
#
# Poissons Ratio (x) = 0.24559 0.11953
# Poissons Ratio (y) = 0.25215 0.58860
# Poissons Ratio (z) = 0.10686 0.51256
#
# Static dielectric constant tensor:
#      x y z
#    x 1.567900 0.000000 0.000000 
#    y 0.000000 1.566880 0.000000 
#    z 0.000000 0.000000 1.562210 
# 
# From -- ./inp_files/32104.got.cif
#   From: 2010.05.17/outbox.cif.g08.bks.cpg/sg67_17_cif.got.tgz:32104.got - 2010.06.03 18:28:57.
