data_PCOD9502659
_publ_section_title
;
Structure prediction by ZEFSAII (Michael W. Deem and Ramdas Pophale) SiO2 
 PCOD9502659
Probable space group: C M M A
;
_chemical_formula_sum "Si O2"
_cell_formula_units_Z 88
_cell_length_a 22.553308
_cell_length_b 8.871895
_cell_length_c 24.391786
_cell_angle_alpha 90.000000
_cell_angle_beta 90.000000
_cell_angle_gamma 90.000000
_cell_volume 4880.566620
_symmetry_space_group_name_H-M "C M M A"
_symmetry_group_IT_number 67
_symmetry_cell_setting 'orthorhombic'
loop_
_space_group_symop_operation_xyz
x,y,z
-x,1/2-y,z
x,-y,-z
-x,1/2+y,-z
-x,-y,-z
x,1/2+y,-z
-x,y,z
x,1/2-y,z
1/2+x,1/2+y,z
1/2-x,-y,z
1/2+x,1/2-y,-z
1/2-x,y,-z
1/2-x,1/2-y,-z
1/2+x,y,-z
1/2-x,1/2+y,z
1/2+x,-y,z
loop_
_atom_site_type_symbol
_atom_site_label
_atom_site_fract_x
_atom_site_fract_y
_atom_site_fract_z
Si Si1 0.070675 0.576478 0.750488
Si Si2 0.568537 0.431573 0.130362
Si Si3 0.610019 0.571058 0.639883
Si Si4 0.814324 0.927419 0.553074
Si Si5 0.687207 0.932324 0.938906
Si Si6 0.000000 0.928317 0.439907
O O1 0.091125 0.750000 0.749230
O O2 0.079377 0.504822 0.810249
O O3 0.098416 0.480378 0.701547
O O4 0.000000 0.576008 0.740771
O O5 0.500000 0.474373 0.112954
O O6 0.568328 0.250000 0.135086
O O7 0.625546 0.470994 0.092619
O O8 0.621284 0.750000 0.637423
O O9 0.660288 0.474468 0.611227
O O10 0.555172 0.535725 0.599429
O O11 0.813030 0.750000 0.545524
O O12 0.847034 0.000000 0.500000
O O13 0.750000 0.000000 0.552656
O O14 0.692175 0.750000 0.940576
O O15 0.750000 0.000000 0.916306
O O16 0.682127 0.000000 0.000000
O O17 0.000000 0.750000 0.448972
O O18 0.000000 0.000000 0.500000
#
# Coordination Sequence:
#
# PCOD9502659 Si02
#       6
#    16  16  16  16  16   8
#     4  10  20  34  54  81 110 143 182 227 277 328
#     4   9  19  36  57  81 111 149 192 236 283 338
#     4  11  21  36  55  78 106 142 179 219 270 327
#     4  11  22  38  57  78 102 135 175 221 272 329
#     4  10  20  35  57  84 116 154 191 231 282 336
#     4  10  22  34  50  76 106 138 171 212 267 322
#
# _framework density 18.030692999999999
#
# number of rings (size 3 to 8) (size 9 to 14) (size 15 to 20)
#    0.000    1.818    0.909    4.909    0.000    5.455 
#    0.000    0.909    0.000    2.182    0.000    0.000 
#    0.000    0.000    0.000    0.000    0.000    0.000 
#
# Total GULP energy -245233.729471 kJ/mol
# GULP energy per Si atom -5573.493852 kJ/mol
# Density = 1.798965 g / cm^3
# Si number density = 18.030693 Si / 1000 Ang^3
#
#
#
# Elastic Constant Matrix: (Units=GPa)
#
#
# Indices 1 2 3 4 5 6 
#
# 1 97.1959 47.7644 56.1265 0.0000 0.0000 0.0000
# 2 47.7644 89.3868 44.9888 0.0000 0.0000 0.0000
# 3 56.1265 44.9888 92.2733 0.0000 0.0000 0.0000
# 4 0.0000 0.0000 0.0000 37.6785 0.0000 0.0000
# 5 0.0000 0.0000 0.0000 0.0000 28.4061 0.0000
# 6 0.0000 0.0000 0.0000 0.0000 0.0000 21.5005
#
#
#
# Elastic Compliance Matrix: (Units=1/GPa)
#
#
# Indices 1 2 3 4 5 6 
#
# 1 0.017579 -0.005316 -0.008100 0.000000 0.000000 0.000000
# 2 -0.005316 0.016433 -0.004778 0.000000 0.000000 0.000000
# 3 -0.008100 -0.004778 0.018094 0.000000 0.000000 0.000000
# 4 0.000000 0.000000 0.000000 0.026540 0.000000 0.000000
# 5 0.000000 0.000000 0.000000 0.000000 0.035204 0.000000
# 6 0.000000 0.000000 0.000000 0.000000 0.000000 0.046510
#
#
# Mechanical properties :
#
#
# Convention : Reuss Voigt Hill
#
# Bulk Modulus (GPa) = 63.63018 64.06837 63.84927
# Shear Modulus (GPa) = 24.75374 26.18213 25.46794
#
# Velocity S-wave (km/s) = 3.70924 3.81476 3.76237
# Velocity P-wave (km/s) = 7.32879 7.41709 7.37307
#
# Compressibility (1/GPa) = 0.01571581
#
# Stress axis : x y z
#
# Youngs Moduli (GPa) = 56.88690 60.85267 55.26583
#
# Poissons Ratio (x) = 0.32351 0.44768
# Poissons Ratio (y) = 0.30243 0.26408
# Poissons Ratio (z) = 0.46081 0.29078
#
# Static dielectric constant tensor:
#      x y z
#    x 1.658500 0.000000 0.000000 
#    y 0.000000 1.603990 0.000000 
#    z 0.000000 0.000000 1.561880 
# 
# From -- ./inp_files/36962.got.cif
#   From: 2010.05.17/outbox.cif.g08.bks.cpg/sg67_19_cif.got.tgz:36962.got - 2010.06.03 18:28:57.
