data_PCOD9502241
_publ_section_title
;
Structure prediction by ZEFSAII (Michael W. Deem and Ramdas Pophale) SiO2 
 PCOD9502241
Probable space group: C M M A
;
_chemical_formula_sum "Si O2"
_cell_formula_units_Z 96
_cell_length_a 27.047893
_cell_length_b 14.921738
_cell_length_c 12.507767
_cell_angle_alpha 90.000000
_cell_angle_beta 90.000000
_cell_angle_gamma 90.000000
_cell_volume 5048.154433
_symmetry_space_group_name_H-M "C M M A"
_symmetry_group_IT_number 67
_symmetry_cell_setting 'orthorhombic'
loop_
_space_group_symop_operation_xyz
x,y,z
-x,1/2-y,z
x,-y,-z
-x,1/2+y,-z
-x,-y,-z
x,1/2+y,-z
-x,y,z
x,1/2-y,z
1/2+x,1/2+y,z
1/2-x,-y,z
1/2+x,1/2-y,-z
1/2-x,y,-z
1/2-x,1/2-y,-z
1/2+x,y,-z
1/2-x,1/2+y,z
1/2+x,-y,z
loop_
_atom_site_type_symbol
_atom_site_label
_atom_site_fract_x
_atom_site_fract_y
_atom_site_fract_z
Si Si1 0.557647 0.495265 0.675086
Si Si2 0.589698 0.858166 0.508211
Si Si3 0.801977 0.356887 0.451956
Si Si4 0.789044 0.651431 0.086114
Si Si5 0.786677 0.415460 0.221183
Si Si6 0.127156 0.492967 0.881186
O O1 0.500000 0.484390 0.700064
O O2 0.574095 0.410438 0.600768
O O3 0.564650 0.584856 0.602682
O O4 0.589564 0.505605 0.782872
O O5 0.580121 0.750000 0.506151
O O6 0.648919 0.872525 0.520491
O O7 0.798924 0.250000 0.435447
O O8 0.750000 0.387462 0.500000
O O9 0.808078 0.402752 0.338011
O O10 0.803233 0.750000 0.047653
O O11 0.752730 0.658500 0.187781
O O12 0.836778 0.593630 0.114075
O O13 0.750000 0.610469 0.000000
O O14 0.750000 0.500000 0.218070
O O15 0.832892 0.428308 0.142376
O O16 0.104967 0.500000 0.000000
#
# Coordination Sequence:
#
# PCOD9502241 Si02
#       6
#    16  16  16  16  16  16
#     4  11  25  43  65  91 116 157 214 264 320 374
#     4  10  22  42  67  93 123 158 202 257 313 379
#     4  10  21  34  52  87 126 155 186 232 300 370
#     4  10  20  34  56  85 118 159 202 238 283 354
#     4  10  20  32  54  80 116 162 197 232 286 355
#     4  11  22  40  59  87 123 159 205 255 304 359
#
# _framework density 19.016850999999999
#
# number of rings (size 3 to 8) (size 9 to 14) (size 15 to 20)
#    0.000    1.667    3.333    1.500    4.667    2.667 
#    0.000    0.833    0.000    0.000    0.000    2.333 
#    0.000    0.000    0.000    0.000    0.000    0.000 
#
# Total GULP energy -267474.013680 kJ/mol
# GULP energy per Si atom -5572.375285 kJ/mol
# Density = 1.897357 g / cm^3
# Si number density = 19.016851 Si / 1000 Ang^3
#
#
#
# Elastic Constant Matrix: (Units=GPa)
#
#
# Indices 1 2 3 4 5 6 
#
# 1 128.8206 36.8652 50.5274 0.0000 0.0000 0.0000
# 2 36.8652 101.5227 27.1787 0.0000 0.0000 0.0000
# 3 50.5274 27.1787 106.2240 0.0000 0.0000 0.0000
# 4 0.0000 0.0000 0.0000 15.6499 0.0000 0.0000
# 5 0.0000 0.0000 0.0000 0.0000 25.1989 0.0000
# 6 0.0000 0.0000 0.0000 0.0000 0.0000 15.6118
#
#
#
# Elastic Compliance Matrix: (Units=1/GPa)
#
#
# Indices 1 2 3 4 5 6 
#
# 1 0.010129 -0.002564 -0.004162 0.000000 0.000000 0.000000
# 2 -0.002564 0.011223 -0.001652 0.000000 0.000000 0.000000
# 3 -0.004162 -0.001652 0.011817 0.000000 0.000000 0.000000
# 4 0.000000 0.000000 0.000000 0.063898 0.000000 0.000000
# 5 0.000000 0.000000 0.000000 0.000000 0.039684 0.000000
# 6 0.000000 0.000000 0.000000 0.000000 0.000000 0.064054
#
#
# Mechanical properties :
#
#
# Convention : Reuss Voigt Hill
#
# Bulk Modulus (GPa) = 60.92786 62.85667 61.89226
# Shear Modulus (GPa) = 22.41830 26.09185 24.25507
#
# Velocity S-wave (km/s) = 3.43719 3.70812 3.57522
# Velocity P-wave (km/s) = 6.91815 7.17345 7.04696
#
# Compressibility (1/GPa) = 0.01641285
#
# Stress axis : x y z
#
# Youngs Moduli (GPa) = 98.72728 89.10057 84.62732
#
# Poissons Ratio (x) = 0.22844 0.35222
# Poissons Ratio (y) = 0.25312 0.13981
# Poissons Ratio (z) = 0.41091 0.14720
#
# Static dielectric constant tensor:
#      x y z
#    x 1.652150 0.000000 0.000000 
#    y 0.000000 1.728170 0.000000 
#    z 0.000000 0.000000 1.718230 
# 
# From -- ./inp_files/22919.got.cif
#   From: 2010.05.17/outbox.cif.g08.bks.cpg/sg67_12_cif.got.tgz:22919.got - 2010.06.03 18:28:57.
