data_PCOD9502012
_publ_section_title
;
Structure prediction by ZEFSAII (Michael W. Deem and Ramdas Pophale) SiO2 
 PCOD9502012
Probable space group: C M M A
;
_chemical_formula_sum "Si O2"
_cell_formula_units_Z 96
_cell_length_a 10.588642
_cell_length_b 22.957775
_cell_length_c 20.791328
_cell_angle_alpha 90.000000
_cell_angle_beta 90.000000
_cell_angle_gamma 90.000000
_cell_volume 5054.198449
_symmetry_space_group_name_H-M "C M M A"
_symmetry_group_IT_number 67
_symmetry_cell_setting 'orthorhombic'
loop_
_space_group_symop_operation_xyz
x,y,z
-x,1/2-y,z
x,-y,-z
-x,1/2+y,-z
-x,-y,-z
x,1/2+y,-z
-x,y,z
x,1/2-y,z
1/2+x,1/2+y,z
1/2-x,-y,z
1/2+x,1/2-y,-z
1/2-x,y,-z
1/2-x,1/2-y,-z
1/2+x,y,-z
1/2-x,1/2+y,z
1/2+x,-y,z
loop_
_atom_site_type_symbol
_atom_site_label
_atom_site_fract_x
_atom_site_fract_y
_atom_site_fract_z
Si Si1 0.351860 0.550851 0.166464
Si Si2 0.143712 0.640478 0.945932
Si Si3 0.149320 0.121227 0.293347
Si Si4 0.646095 0.750000 0.149097
Si Si5 0.353292 0.049826 0.582681
Si Si6 0.250657 0.250000 0.715373
Si Si7 0.750000 0.647864 0.500000
Si Si8 0.140612 0.750000 0.415609
O O1 0.500000 0.533259 0.176120
O O2 0.250000 0.500000 0.168949
O O3 0.345000 0.583413 0.098280
O O4 0.317099 0.595874 0.223530
O O5 0.157716 0.694178 0.896491
O O6 0.000000 0.643264 0.972302
O O7 0.250000 0.642745 0.000000
O O8 0.193442 0.079231 0.350452
O O9 0.183956 0.188492 0.299886
O O10 0.000000 0.118364 0.297812
O O11 0.500000 0.750000 0.175957
O O12 0.747141 0.750000 0.206802
O O13 0.500000 0.029092 0.587104
O O14 0.348555 0.102729 0.531429
O O15 0.250000 0.000000 0.568559
O O16 0.141412 0.250000 0.661800
O O17 0.795472 0.692019 0.444486
O O18 0.000000 0.750000 0.441560
#
# Coordination Sequence:
#
# PCOD9502012 Si02
#       8
#    16  16  16   8  16   8   8   8
#     4  10  21  38  60  86 119 156 201 251 298 352
#     4  10  21  37  59  89 122 157 198 246 297 356
#     4  10  20  37  62  92 118 148 200 252 301 361
#     4  10  19  36  65  92 115 150 196 249 300 354
#     4  11  24  41  64  92 120 160 209 253 303 361
#     4  12  19  38  65  91 116 152 193 251 307 363
#     4  11  23  44  64  86 119 167 210 250 300 379
#     4  11  25  42  60  91 130 160 197 260 325 371
#
# _framework density 18.994109000000002
#
# number of rings (size 3 to 8) (size 9 to 14) (size 15 to 20)
#    0.000    1.500    3.333    2.250    0.000    3.000 
#    0.000    3.333    0.000    0.000    0.000    0.000 
#    0.000    0.000    0.000    0.000    0.000    0.000 
#
# Total GULP energy -267467.138476 kJ/mol
# GULP energy per Si atom -5572.232052 kJ/mol
# Density = 1.895088 g / cm^3
# Si number density = 18.994109 Si / 1000 Ang^3
#
#
#
# Elastic Constant Matrix: (Units=GPa)
#
#
# Indices 1 2 3 4 5 6 
#
# 1 89.7873 63.6959 53.0578 0.0000 0.0000 0.0000
# 2 63.6959 129.3571 32.6041 0.0000 0.0000 0.0000
# 3 53.0578 32.6041 102.5213 0.0000 0.0000 0.0000
# 4 0.0000 0.0000 0.0000 18.0863 0.0000 0.0000
# 5 0.0000 0.0000 0.0000 0.0000 23.3295 0.0000
# 6 0.0000 0.0000 0.0000 0.0000 0.0000 18.8241
#
#
#
# Elastic Compliance Matrix: (Units=1/GPa)
#
#
# Indices 1 2 3 4 5 6 
#
# 1 0.022777 -0.008963 -0.008937 0.000000 0.000000 0.000000
# 2 -0.008963 0.011931 0.000844 0.000000 0.000000 0.000000
# 3 -0.008937 0.000844 0.014111 0.000000 0.000000 0.000000
# 4 0.000000 0.000000 0.000000 0.055290 0.000000 0.000000
# 5 0.000000 0.000000 0.000000 0.000000 0.042864 0.000000
# 6 0.000000 0.000000 0.000000 0.000000 0.000000 0.053123
#
#
# Mechanical properties :
#
#
# Convention : Reuss Voigt Hill
#
# Bulk Modulus (GPa) = 67.99494 68.93126 68.46310
# Shear Modulus (GPa) = 20.91070 23.53518 22.22294
#
# Velocity S-wave (km/s) = 3.32159 3.52387 3.42422
# Velocity P-wave (km/s) = 7.11240 7.27506 7.19419
#
# Compressibility (1/GPa) = 0.01470698
#
# Stress axis : x y z
#
# Youngs Moduli (GPa) = 43.90346 83.81425 70.86671
#
# Poissons Ratio (x) = 0.75122 0.63337
# Poissons Ratio (y) = 0.39350 -0.05983
# Poissons Ratio (z) = 0.39239 -0.07076
#
# Static dielectric constant tensor:
#      x y z
#    x 1.648840 0.000000 0.000000 
#    y 0.000000 1.663150 0.000000 
#    z 0.000000 0.000000 1.707220 
# 
# From -- ./inp_files/37971.got.cif
#   From: 2010.05.17/outbox.cif.g08.bks.cpg/sg67_19_cif.got.tgz:37971.got - 2010.06.03 18:28:57.
