data_PCOD9502081
_publ_section_title
;
Structure prediction by ZEFSAII (Michael W. Deem and Ramdas Pophale) SiO2 
 PCOD9502081
Probable space group: C M M A
;
_chemical_formula_sum "Si O2"
_cell_formula_units_Z 80
_cell_length_a 22.760936
_cell_length_b 13.559039
_cell_length_c 15.173354
_cell_angle_alpha 90.000000
_cell_angle_beta 90.000000
_cell_angle_gamma 90.000000
_cell_volume 4682.746174
_symmetry_space_group_name_H-M "C M M A"
_symmetry_group_IT_number 67
_symmetry_cell_setting 'orthorhombic'
loop_
_space_group_symop_operation_xyz
x,y,z
-x,1/2-y,z
x,-y,-z
-x,1/2+y,-z
-x,-y,-z
x,1/2+y,-z
-x,y,z
x,1/2-y,z
1/2+x,1/2+y,z
1/2-x,-y,z
1/2+x,1/2-y,-z
1/2-x,y,-z
1/2-x,1/2-y,-z
1/2+x,y,-z
1/2-x,1/2+y,z
1/2+x,-y,z
loop_
_atom_site_type_symbol
_atom_site_label
_atom_site_fract_x
_atom_site_fract_y
_atom_site_fract_z
Si Si1 0.330448 0.750000 0.342935
Si Si2 0.683113 0.540653 0.784815
Si Si3 0.767899 0.750000 0.207547
Si Si4 0.812179 0.750000 0.955831
Si Si5 0.435317 0.250000 0.802924
Si Si6 0.819195 0.531427 0.594567
Si Si7 0.893265 0.423998 0.072951
O O1 0.265121 0.750000 0.300365
O O2 0.383707 0.750000 0.270772
O O3 0.330943 0.852364 0.395072
O O4 0.750000 0.500000 0.789691
O O5 0.692152 0.655094 0.803196
O O6 0.659674 0.517787 0.686375
O O7 0.643807 0.487575 0.857169
O O8 0.710281 0.750000 0.144953
O O9 0.848515 0.651827 0.975082
O O10 0.750000 0.750000 0.000000
O O11 0.500000 0.250000 0.761876
O O12 0.429648 0.153925 0.867156
O O13 0.844129 0.500000 0.500000
O O14 0.750000 0.500000 0.593047
O O15 0.918996 0.500000 0.000000
#
# Coordination Sequence:
#
# PCOD9502081 Si02
#       7
#     8  16   8   8   8  16  16
#     4  12  18  37  55  75 110 139 193 227 252 328
#     4  11  18  31  47  74 117 151 181 216 260 316
#     4  12  18  28  49  74 110 157 174 211 256 324
#     4  11  19  28  44  72 106 147 181 202 251 325
#     4  11  23  42  63  76  96 144 197 237 280 316
#     4  10  20  30  51  80 115 154 178 209 265 323
#     4  11  22  34  52  79 110 140 180 229 272 318
#
# _framework density 17.083993
#
# number of rings (size 3 to 8) (size 9 to 14) (size 15 to 20)
#    0.000    1.000   10.000    1.200    0.000    3.600 
#    0.000    0.000    0.000    0.600    0.000    0.000 
#    0.000    0.000    0.000    0.000    0.000    0.000 
#
# Total GULP energy -222698.046799 kJ/mol
# GULP energy per Si atom -5567.451170 kJ/mol
# Density = 1.704511 g / cm^3
# Si number density = 17.083993 Si / 1000 Ang^3
#
#
#
# Elastic Constant Matrix: (Units=GPa)
#
#
# Indices 1 2 3 4 5 6 
#
# 1 49.1194 26.1587 15.0528 0.0000 0.0000 0.0000
# 2 26.1587 159.5589 44.7976 0.0000 0.0000 0.0000
# 3 15.0528 44.7976 90.8884 0.0000 0.0000 0.0000
# 4 0.0000 0.0000 0.0000 25.6100 0.0000 0.0000
# 5 0.0000 0.0000 0.0000 0.0000 4.8302 0.0000
# 6 0.0000 0.0000 0.0000 0.0000 0.0000 2.9586
#
#
#
# Elastic Compliance Matrix: (Units=1/GPa)
#
#
# Indices 1 2 3 4 5 6 
#
# 1 0.022690 -0.003093 -0.002233 0.000000 0.000000 0.000000
# 2 -0.003093 0.007695 -0.003281 0.000000 0.000000 0.000000
# 3 -0.002233 -0.003281 0.012989 0.000000 0.000000 0.000000
# 4 0.000000 0.000000 0.000000 0.039047 0.000000 0.000000
# 5 0.000000 0.000000 0.000000 0.000000 0.207030 0.000000
# 6 0.000000 0.000000 0.000000 0.000000 0.000000 0.337999
#
#
# Mechanical properties :
#
#
# Convention : Reuss Voigt Hill
#
# Bulk Modulus (GPa) = 38.22504 52.39832 45.31168
# Shear Modulus (GPa) = 7.65245 20.91694 14.28469
#
# Velocity S-wave (km/s) = 2.11873 3.50288 2.89475
# Velocity P-wave (km/s) = 5.32998 6.86278 6.14437
#
# Compressibility (1/GPa) = 0.02616086
#
# Stress axis : x y z
#
# Youngs Moduli (GPa) = 44.07206 129.94738 76.98566
#
# Poissons Ratio (x) = 0.40191 0.17195
# Poissons Ratio (y) = 0.13631 0.25257
# Poissons Ratio (z) = 0.09843 0.42632
#
# Static dielectric constant tensor:
#      x y z
#    x 1.562540 0.000000 0.000000 
#    y 0.000000 1.652540 0.000000 
#    z 0.000000 0.000000 1.754460 
# 
# From -- ./inp_files/26128.got.cif
#   From: 2010.05.17/outbox.cif.g08.bks.cpg/sg67_14_cif.got.tgz:26128.got - 2010.06.03 18:28:57.
