data_PCOD9502016
_publ_section_title
;
Structure prediction by ZEFSAII (Michael W. Deem and Ramdas Pophale) SiO2 
 PCOD9502016
Probable space group: C M M A
;
_chemical_formula_sum "Si O2"
_cell_formula_units_Z 80
_cell_length_a 8.689808
_cell_length_b 24.219832
_cell_length_c 21.039308
_cell_angle_alpha 90.000000
_cell_angle_beta 90.000000
_cell_angle_gamma 90.000000
_cell_volume 4428.052473
_symmetry_space_group_name_H-M "C M M A"
_symmetry_group_IT_number 67
_symmetry_cell_setting 'orthorhombic'
loop_
_space_group_symop_operation_xyz
x,y,z
-x,1/2-y,z
x,-y,-z
-x,1/2+y,-z
-x,-y,-z
x,1/2+y,-z
-x,y,z
x,1/2-y,z
1/2+x,1/2+y,z
1/2-x,-y,z
1/2+x,1/2-y,-z
1/2-x,y,-z
1/2-x,1/2-y,-z
1/2+x,y,-z
1/2-x,1/2+y,z
1/2+x,-y,z
loop_
_atom_site_type_symbol
_atom_site_label
_atom_site_fract_x
_atom_site_fract_y
_atom_site_fract_z
Si Si1 0.181499 0.250000 0.244554
Si Si2 0.816027 0.627378 0.066188
Si Si3 0.315011 0.750000 0.893658
Si Si4 0.813721 0.061465 0.807444
Si Si5 0.815862 0.185818 0.430257
Si Si6 0.815814 0.639960 0.306362
O O1 0.217463 0.250000 0.170339
O O2 0.259745 0.195975 0.273109
O O3 0.000000 0.250000 0.258571
O O4 0.779649 0.692579 0.071789
O O5 0.762969 0.596578 0.130476
O O6 0.000000 0.622359 0.064135
O O7 0.750000 0.605255 0.000000
O O8 0.500000 0.750000 0.879173
O O9 0.766261 0.091342 0.741660
O O10 0.000000 0.060696 0.808177
O O11 0.750000 0.000000 0.811094
O O12 0.771109 0.250000 0.414892
O O13 0.750000 0.173896 0.500000
O O14 0.753174 0.144521 0.376812
O O15 0.000000 0.183827 0.431374
O O16 0.000000 0.639125 0.310525
#
# Coordination Sequence:
#
# PCOD9502016 Si02
#       6
#     8  16   8  16  16  16
#     4  12  22  31  52  87 115 143 186 231 279 335
#     4  10  21  37  57  82 111 147 184 227 282 341
#     4  10  19  37  57  77 115 149 180 223 279 349
#     4  10  23  41  60  81 107 145 192 238 288 335
#     4  10  20  33  52  85 123 156 190 223 269 330
#     4  11  21  37  59  81 114 154 187 229 285 336
#
# _framework density 18.066631999999998
#
# number of rings (size 3 to 8) (size 9 to 14) (size 15 to 20)
#    0.000    1.600    3.000    2.400    0.000    4.400 
#    0.000    2.000    0.000    0.600    0.000    4.200 
#    0.000    0.000    0.000    0.000    0.000    0.000 
#
# Total GULP energy -223284.859055 kJ/mol
# GULP energy per Si atom -5582.121476 kJ/mol
# Density = 1.802551 g / cm^3
# Si number density = 18.066632 Si / 1000 Ang^3
#
#
#
# Elastic Constant Matrix: (Units=GPa)
#
#
# Indices 1 2 3 4 5 6 
#
# 1 25.2358 23.1195 42.5246 0.0000 0.0000 0.0000
# 2 23.1195 109.1232 66.2232 0.0000 0.0000 0.0000
# 3 42.5246 66.2232 167.2633 0.0000 0.0000 0.0000
# 4 0.0000 0.0000 0.0000 2.9842 0.0000 0.0000
# 5 0.0000 0.0000 0.0000 0.0000 33.7659 0.0000
# 6 0.0000 0.0000 0.0000 0.0000 0.0000 24.3615
#
#
#
# Elastic Compliance Matrix: (Units=1/GPa)
#
#
# Indices 1 2 3 4 5 6 
#
# 1 0.071693 -0.005433 -0.016076 0.000000 0.000000 0.000000
# 2 -0.005433 0.012474 -0.003557 0.000000 0.000000 0.000000
# 3 -0.016076 -0.003557 0.011474 0.000000 0.000000 0.000000
# 4 0.000000 0.000000 0.000000 0.335095 0.000000 0.000000
# 5 0.000000 0.000000 0.000000 0.000000 0.029616 0.000000
# 6 0.000000 0.000000 0.000000 0.000000 0.000000 0.041048
#
#
# Mechanical properties :
#
#
# Convention : Reuss Voigt Hill
#
# Bulk Modulus (GPa) = 21.97416 62.81746 42.39581
# Shear Modulus (GPa) = 8.82296 23.53934 16.18115
#
# Velocity S-wave (km/s) = 2.21228 3.61351 2.99597
# Velocity P-wave (km/s) = 4.32606 7.22878 5.95693
#
# Compressibility (1/GPa) = 0.04550800
#
# Stress axis : x y z
#
# Youngs Moduli (GPa) = 13.94830 80.16716 87.15262
#
# Poissons Ratio (x) = 0.43558 1.40106
# Poissons Ratio (y) = 0.07579 0.31003
# Poissons Ratio (z) = 0.22423 0.28518
#
# Static dielectric constant tensor:
#      x y z
#    x 1.618960 0.000000 0.000000 
#    y 0.000000 1.591730 0.000000 
#    z 0.000000 0.000000 1.642020 
# 
# From -- ./inp_files/36870.got.cif
#   From: 2010.05.17/outbox.cif.g08.bks.cpg/sg67_19_cif.got.tgz:36870.got - 2010.06.03 18:28:57.
