data_PCOD9502092
_publ_section_title
;
Structure prediction by ZEFSAII (Michael W. Deem and Ramdas Pophale) SiO2 
 PCOD9502092
Probable space group: C M M A
;
_chemical_formula_sum "Si O2"
_cell_formula_units_Z 64
_cell_length_a 28.806825
_cell_length_b 7.793884
_cell_length_c 14.506398
_cell_angle_alpha 90.000000
_cell_angle_beta 90.000000
_cell_angle_gamma 90.000000
_cell_volume 3256.933721
_symmetry_space_group_name_H-M "C M M A"
_symmetry_group_IT_number 67
_symmetry_cell_setting 'orthorhombic'
loop_
_space_group_symop_operation_xyz
x,y,z
-x,1/2-y,z
x,-y,-z
-x,1/2+y,-z
-x,-y,-z
x,1/2+y,-z
-x,y,z
x,1/2-y,z
1/2+x,1/2+y,z
1/2-x,-y,z
1/2+x,1/2-y,-z
1/2-x,y,-z
1/2-x,1/2-y,-z
1/2+x,y,-z
1/2-x,1/2+y,z
1/2+x,-y,z
loop_
_atom_site_type_symbol
_atom_site_label
_atom_site_fract_x
_atom_site_fract_y
_atom_site_fract_z
Si Si1 0.375177 0.443735 0.250075
Si Si2 0.445759 0.452022 0.895333
Si Si3 0.448153 0.957042 0.607672
Si Si4 0.304132 0.953698 0.895902
O O1 0.361077 0.250000 0.277788
O O2 0.415080 0.439359 0.172930
O O3 0.403759 0.524517 0.335205
O O4 0.333150 0.526314 0.191081
O O5 0.500000 0.485349 0.880384
O O6 0.436900 0.250000 0.880608
O O7 0.435119 0.500000 0.000000
O O8 0.500000 0.018148 0.638092
O O9 0.448144 0.750000 0.618321
O O10 0.443979 0.000000 0.500000
O O11 0.308936 0.750000 0.890240
O O12 0.250000 0.000000 0.889562
O O13 0.320100 0.000000 0.000000
#
# Coordination Sequence:
#
# PCOD9502092 Si02
#       4
#    16  16  16  16
#     4  10  20  33  51  73  97 128 165 205 249 296
#     4  10  20  31  44  66  97 131 164 197 236 287
#     4   9  18  33  52  74 101 131 163 202 247 294
#     4  10  20  34  52  74 100 130 165 204 248 297
#
# _framework density 19.650385
#
# number of rings (size 3 to 8) (size 9 to 14) (size 15 to 20)
#    0.000    2.250    0.000    3.750    0.000    7.500 
#    0.000    2.500    0.000    0.750    0.000    5.250 
#    0.000    0.000    0.000    0.000    0.000    0.000 
#
# Total GULP energy -178375.235259 kJ/mol
# GULP energy per Si atom -5574.226102 kJ/mol
# Density = 1.960566 g / cm^3
# Si number density = 19.650385 Si / 1000 Ang^3
#
#
#
# Elastic Constant Matrix: (Units=GPa)
#
#
# Indices 1 2 3 4 5 6 
#
# 1 101.0133 10.5682 56.7161 0.0000 0.0000 0.0000
# 2 10.5682 26.5677 -6.2714 0.0000 0.0000 0.0000
# 3 56.7161 -6.2714 88.5853 0.0000 0.0000 0.0000
# 4 0.0000 0.0000 0.0000 19.7046 0.0000 0.0000
# 5 0.0000 0.0000 0.0000 0.0000 42.8040 0.0000
# 6 0.0000 0.0000 0.0000 0.0000 0.0000 17.8035
#
#
#
# Elastic Compliance Matrix: (Units=1/GPa)
#
#
# Indices 1 2 3 4 5 6 
#
# 1 0.017680 -0.009870 -0.012018 0.000000 0.000000 0.000000
# 2 -0.009870 0.043789 0.009419 0.000000 0.000000 0.000000
# 3 -0.012018 0.009419 0.019650 0.000000 0.000000 0.000000
# 4 0.000000 0.000000 0.000000 0.050750 0.000000 0.000000
# 5 0.000000 0.000000 0.000000 0.000000 0.023362 0.000000
# 6 0.000000 0.000000 0.000000 0.000000 0.000000 0.056169
#
#
# Mechanical properties :
#
#
# Convention : Reuss Voigt Hill
#
# Bulk Modulus (GPa) = 17.79949 37.57690 27.68819
# Shear Modulus (GPa) = 19.60278 26.40597 23.00438
#
# Velocity S-wave (km/s) = 3.16187 3.66975 3.42524
# Velocity P-wave (km/s) = 4.73367 6.09265 5.45564
#
# Compressibility (1/GPa) = 0.05618139
#
# Stress axis : x y z
#
# Youngs Moduli (GPa) = 56.56006 22.83662 50.89033
#
# Poissons Ratio (x) = 0.22540 0.61162
# Poissons Ratio (y) = 0.55825 -0.47935
# Poissons Ratio (z) = 0.67976 -0.21510
#
# Static dielectric constant tensor:
#      x y z
#    x 1.738120 0.000000 0.000000 
#    y 0.000000 1.665600 0.000000 
#    z 0.000000 0.000000 1.714650 
# 
# From -- ./inp_files/15810.got.cif
#   From: 2010.05.17/outbox.cif.g08.bks.cpg/sg67_8_cif.got.tgz:15810.got - 2010.06.03 18:28:57.
