data_PCOD9502725
_publ_section_title
;
Structure prediction by ZEFSAII (Michael W. Deem and Ramdas Pophale) SiO2 
 PCOD9502725
Probable space group: C M M A
;
_chemical_formula_sum "Si O2"
_cell_formula_units_Z 112
_cell_length_a 15.013845
_cell_length_b 29.511044
_cell_length_c 12.802821
_cell_angle_alpha 90.000000
_cell_angle_beta 90.000000
_cell_angle_gamma 90.000000
_cell_volume 5672.600190
_symmetry_space_group_name_H-M "C M M A"
_symmetry_group_IT_number 67
_symmetry_cell_setting 'orthorhombic'
loop_
_space_group_symop_operation_xyz
x,y,z
-x,1/2-y,z
x,-y,-z
-x,1/2+y,-z
-x,-y,-z
x,1/2+y,-z
-x,y,z
x,1/2-y,z
1/2+x,1/2+y,z
1/2-x,-y,z
1/2+x,1/2-y,-z
1/2-x,y,-z
1/2-x,1/2-y,-z
1/2+x,y,-z
1/2-x,1/2+y,z
1/2+x,-y,z
loop_
_atom_site_type_symbol
_atom_site_label
_atom_site_fract_x
_atom_site_fract_y
_atom_site_fract_z
Si Si1 0.401858 0.821200 0.813998
Si Si2 0.396202 0.644104 0.046599
Si Si3 0.599734 0.548615 0.512075
Si Si4 0.350832 0.916736 0.731595
Si Si5 0.197804 0.870012 0.601667
Si Si6 0.107983 0.047825 0.947499
Si Si7 0.700124 0.301725 0.772344
O O1 0.500000 0.801109 0.791684
O O2 0.402203 0.871839 0.767597
O O3 0.308808 0.801097 0.772635
O O4 0.392930 0.827606 0.938701
O O5 0.500000 0.643595 0.081544
O O6 0.333716 0.668083 0.130637
O O7 0.370188 0.592332 0.017123
O O8 0.646408 0.500000 0.500000
O O9 0.500000 0.543508 0.472265
O O10 0.602536 0.559394 0.634627
O O11 0.637799 0.591228 0.449772
O O12 0.259436 0.897856 0.683014
O O13 0.345841 0.946740 0.835065
O O14 0.250000 0.851783 0.500000
O O15 0.164914 0.827755 0.669389
O O16 0.000000 0.049379 0.931480
O O17 0.129776 0.000000 0.000000
O O18 0.668926 0.250000 0.780631
#
# Coordination Sequence:
#
# PCOD9502725 Si02
#       7
#    16  16  16  16  16  16  16
#     4   9  18  35  58  79 104 142 189 242 292 340
#     4   9  19  35  54  80 116 153 188 230 283 348
#     4  10  20  34  56  84 111 144 188 236 285 338
#     4   9  17  33  55  78 108 144 181 226 283 341
#     4   9  21  39  57  77 105 142 185 237 286 332
#     4   9  17  31  55  86 117 150 188 231 281 339
#     4  11  23  37  56  82 113 151 193 239 294 353
#
# _framework density 19.744031
#
# number of rings (size 3 to 8) (size 9 to 14) (size 15 to 20)
#    0.000    2.571    0.000    2.571    0.000    6.286 
#    0.000    5.714    0.000   10.286    0.000    2.000 
#    0.000    0.571    0.000    0.000    0.000    0.000 
#
# Total GULP energy -312065.241570 kJ/mol
# GULP energy per Si atom -5572.593599 kJ/mol
# Density = 1.969909 g / cm^3
# Si number density = 19.744031 Si / 1000 Ang^3
#
#
#
# Elastic Constant Matrix: (Units=GPa)
#
#
# Indices 1 2 3 4 5 6 
#
# 1 49.2646 18.2184 26.6481 0.0000 0.0000 0.0000
# 2 18.2184 110.0842 65.2282 0.0000 0.0000 0.0000
# 3 26.6481 65.2282 122.5067 0.0000 0.0000 0.0000
# 4 0.0000 0.0000 0.0000 7.3922 0.0000 0.0000
# 5 0.0000 0.0000 0.0000 0.0000 -55.6433 0.0000
# 6 0.0000 0.0000 0.0000 0.0000 0.0000 2.0556
#
#
#
# Elastic Compliance Matrix: (Units=1/GPa)
#
#
# Indices 1 2 3 4 5 6 
#
# 1 0.023120 -0.001236 -0.004371 0.000000 0.000000 0.000000
# 2 -0.001236 0.013337 -0.006832 0.000000 0.000000 0.000000
# 3 -0.004371 -0.006832 0.012751 0.000000 0.000000 0.000000
# 4 0.000000 0.000000 0.000000 0.135277 0.000000 0.000000
# 5 0.000000 0.000000 0.000000 0.000000 -0.017972 0.000000
# 6 0.000000 0.000000 0.000000 0.000000 0.000000 0.486487
#
#
# Mechanical properties :
#
#
# Convention : Reuss Voigt Hill
#
# Bulk Modulus (GPa) = 41.10256 55.78274 48.44265
# Shear Modulus (GPa) = 7.28874 2.21161 4.75018
#
# Velocity S-wave (km/s) = 1.92344 1.05952 1.55277
# Velocity P-wave (km/s) = 5.07895 5.45995 5.27289
#
# Compressibility (1/GPa) = 0.02432939
#
# Stress axis : x y z
#
# Youngs Moduli (GPa) = 43.25248 74.98013 78.42304
#
# Poissons Ratio (x) = 0.09271 0.34277
# Poissons Ratio (y) = 0.05348 0.53580
# Poissons Ratio (z) = 0.18905 0.51228
#
# Static dielectric constant tensor:
#      x y z
#    x 1.759240 0.000000 0.000000 
#    y 0.000000 1.733570 0.000000 
#    z 0.000000 0.000000 1.679600 
# 
# From -- ./inp_files/18623.got.cif
#   From: 2010.05.17/outbox.cif.g08.bks.cpg/sg67_10_cif.got.tgz:18623.got - 2010.06.03 18:28:57.
