data_PCOD9502710
_publ_section_title
;
Structure prediction by ZEFSAII (Michael W. Deem and Ramdas Pophale) SiO2 
 PCOD9502710
Probable space group: C M M A
;
_chemical_formula_sum "Si O2"
_cell_formula_units_Z 96
_cell_length_a 22.684071
_cell_length_b 24.247679
_cell_length_c 9.461108
_cell_angle_alpha 90.000000
_cell_angle_beta 90.000000
_cell_angle_gamma 90.000000
_cell_volume 5203.950681
_symmetry_space_group_name_H-M "C M M A"
_symmetry_group_IT_number 67
_symmetry_cell_setting 'orthorhombic'
loop_
_space_group_symop_operation_xyz
x,y,z
-x,1/2-y,z
x,-y,-z
-x,1/2+y,-z
-x,-y,-z
x,1/2+y,-z
-x,y,z
x,1/2-y,z
1/2+x,1/2+y,z
1/2-x,-y,z
1/2+x,1/2-y,-z
1/2-x,y,-z
1/2-x,1/2-y,-z
1/2+x,y,-z
1/2-x,1/2+y,z
1/2+x,-y,z
loop_
_atom_site_type_symbol
_atom_site_label
_atom_site_fract_x
_atom_site_fract_y
_atom_site_fract_z
Si Si1 0.636762 0.604002 0.743799
Si Si2 0.735899 0.119796 0.667796
Si Si3 0.119289 0.313361 0.264663
Si Si4 0.929336 0.313305 0.948271
Si Si5 0.567192 0.903489 0.449652
Si Si6 0.839367 0.015574 0.338157
O O1 0.701742 0.630460 0.740219
O O2 0.597166 0.638372 0.851429
O O3 0.604800 0.606123 0.591338
O O4 0.649550 0.538175 0.756396
O O5 0.750000 0.119656 0.500000
O O6 0.684086 0.161945 0.705572
O O7 0.709162 0.059889 0.709182
O O8 0.117507 0.250000 0.306847
O O9 0.074113 0.349092 0.356302
O O10 0.100761 0.317797 0.101567
O O11 0.918175 0.250000 0.895671
O O12 0.000000 0.319209 0.960585
O O13 0.500000 0.916745 0.482288
O O14 0.599468 0.951582 0.361410
O O15 0.822188 0.000000 0.500000
#
# Coordination Sequence:
#
# PCOD9502710 Si02
#       6
#    16  16  16  16  16  16
#     4  11  21  34  60  89 117 155 193 239 302 349
#     4  11  19  36  59  91 120 148 190 246 296 349
#     4  10  22  40  61  81 110 158 202 241 297 353
#     4  10  23  43  61  81 117 162 204 247 297 352
#     4  10  20  34  55  87 116 146 199 250 290 346
#     4   9  18  32  57  86 117 154 185 234 294 354
#
# _framework density 18.447521999999999
#
# number of rings (size 3 to 8) (size 9 to 14) (size 15 to 20)
#    0.000    1.833    5.000    1.500    0.000    7.000 
#    0.000    5.000    0.000    9.000    0.000    0.000 
#    0.000    0.000    0.000    0.000    0.000    0.000 
#
# Total GULP energy -267679.190005 kJ/mol
# GULP energy per Si atom -5576.649792 kJ/mol
# Density = 1.840553 g / cm^3
# Si number density = 18.447522 Si / 1000 Ang^3
#
#
#
# Elastic Constant Matrix: (Units=GPa)
#
#
# Indices 1 2 3 4 5 6 
#
# 1 128.3334 21.7743 17.4649 0.0000 0.0000 0.0000
# 2 21.7743 78.2720 28.1057 0.0000 0.0000 0.0000
# 3 17.4649 28.1057 31.5919 0.0000 0.0000 0.0000
# 4 0.0000 0.0000 0.0000 33.5508 0.0000 0.0000
# 5 0.0000 0.0000 0.0000 0.0000 11.9497 0.0000
# 6 0.0000 0.0000 0.0000 0.0000 0.0000 16.1381
#
#
#
# Elastic Compliance Matrix: (Units=1/GPa)
#
#
# Indices 1 2 3 4 5 6 
#
# 1 0.008478 -0.000993 -0.003804 0.000000 0.000000 0.000000
# 2 -0.000993 0.018889 -0.016256 0.000000 0.000000 0.000000
# 3 -0.003804 -0.016256 0.048219 0.000000 0.000000 0.000000
# 4 0.000000 0.000000 0.000000 0.029806 0.000000 0.000000
# 5 0.000000 0.000000 0.000000 0.000000 0.083684 0.000000
# 6 0.000000 0.000000 0.000000 0.000000 0.000000 0.061965
#
#
# Mechanical properties :
#
#
# Convention : Reuss Voigt Hill
#
# Bulk Modulus (GPa) = 29.86763 41.43190 35.64976
# Shear Modulus (GPa) = 16.43079 23.71787 20.07433
#
# Velocity S-wave (km/s) = 2.98766 3.58955 3.30234
# Velocity P-wave (km/s) = 5.30351 6.29983 5.82302
#
# Compressibility (1/GPa) = 0.03348107
#
# Stress axis : x y z
#
# Youngs Moduli (GPa) = 117.94805 52.94014 20.73883
#
# Poissons Ratio (x) = 0.05255 0.07889
# Poissons Ratio (y) = 0.11708 0.33713
# Poissons Ratio (z) = 0.44867 0.86060
#
# Static dielectric constant tensor:
#      x y z
#    x 1.640230 0.000000 0.000000 
#    y 0.000000 1.666800 0.000000 
#    z 0.000000 0.000000 1.615730 
# 
# From -- ./inp_files/12644.got.cif
#   From: 2010.05.17/outbox.cif.g08.bks.cpg/sg67_7_cif.got.tgz:12644.got - 2010.06.03 18:28:57.
