data_PCOD9502638
_publ_section_title
;
Structure prediction by ZEFSAII (Michael W. Deem and Ramdas Pophale) SiO2 
 PCOD9502638
Probable space group: C M M A
;
_chemical_formula_sum "Si O2"
_cell_formula_units_Z 96
_cell_length_a 14.828269
_cell_length_b 23.564305
_cell_length_c 14.575859
_cell_angle_alpha 90.000000
_cell_angle_beta 90.000000
_cell_angle_gamma 90.000000
_cell_volume 5093.065362
_symmetry_space_group_name_H-M "C M M A"
_symmetry_group_IT_number 67
_symmetry_cell_setting 'orthorhombic'
loop_
_space_group_symop_operation_xyz
x,y,z
-x,1/2-y,z
x,-y,-z
-x,1/2+y,-z
-x,-y,-z
x,1/2+y,-z
-x,y,z
x,1/2-y,z
1/2+x,1/2+y,z
1/2-x,-y,z
1/2+x,1/2-y,-z
1/2-x,y,-z
1/2-x,1/2-y,-z
1/2+x,y,-z
1/2-x,1/2+y,z
1/2+x,-y,z
loop_
_atom_site_type_symbol
_atom_site_label
_atom_site_fract_x
_atom_site_fract_y
_atom_site_fract_z
Si Si1 0.106580 0.627053 0.156184
Si Si2 0.719966 0.815647 0.217755
Si Si3 0.392545 0.529852 0.716387
Si Si4 0.896505 0.097313 0.330096
Si Si5 0.395104 0.684479 0.034767
Si Si6 0.855687 0.063320 0.520761
O O1 0.175518 0.668247 0.208003
O O2 0.131750 0.563900 0.191671
O O3 0.000000 0.636069 0.176606
O O4 0.118292 0.641371 0.048977
O O5 0.708573 0.750000 0.241680
O O6 0.667971 0.856099 0.287461
O O7 0.671902 0.824951 0.118820
O O8 0.500000 0.523458 0.716520
O O9 0.358878 0.465654 0.698592
O O10 0.369855 0.569512 0.628765
O O11 0.897126 0.101057 0.440774
O O12 0.000000 0.103056 0.297385
O O13 0.500000 0.680201 0.064932
O O14 0.381914 0.750000 0.001818
O O15 0.750000 0.063746 0.500000
O O16 0.891877 0.000000 0.500000
#
# Coordination Sequence:
#
# PCOD9502638 Si02
#       6
#    16  16  16  16  16  16
#     4  10  20  34  54  79 106 136 173 219 267 312
#     4  11  22  35  54  79 106 139 179 219 259 308
#     4   9  18  33  53  79 108 137 172 214 262 315
#     4  10  20  34  54  80 110 142 175 215 262 311
#     4   9  18  34  55  77 102 135 177 221 262 309
#     4   9  16  28  50  78 105 135 171 210 255 310
#
# _framework density 18.849160000000001
#
# number of rings (size 3 to 8) (size 9 to 14) (size 15 to 20)
#    0.000    2.333    0.000    3.000    0.000    7.333 
#    0.000    0.833    0.000   11.500    0.000    7.000 
#    0.000    0.000    0.000    0.000    0.000    0.000 
#
# Total GULP energy -267549.695807 kJ/mol
# GULP energy per Si atom -5573.951996 kJ/mol
# Density = 1.880626 g / cm^3
# Si number density = 18.849160 Si / 1000 Ang^3
#
#
#
# Elastic Constant Matrix: (Units=GPa)
#
#
# Indices 1 2 3 4 5 6 
#
# 1 69.6764 36.6516 21.6098 0.0000 0.0000 0.0000
# 2 36.6516 92.5265 52.5031 0.0000 0.0000 0.0000
# 3 21.6098 52.5031 62.2485 0.0000 0.0000 0.0000
# 4 0.0000 0.0000 0.0000 23.9669 0.0000 0.0000
# 5 0.0000 0.0000 0.0000 0.0000 26.8020 0.0000
# 6 0.0000 0.0000 0.0000 0.0000 0.0000 20.7648
#
#
#
# Elastic Compliance Matrix: (Units=1/GPa)
#
#
# Indices 1 2 3 4 5 6 
#
# 1 0.018136 -0.006927 -0.000454 0.000000 0.000000 0.000000
# 2 -0.006927 0.023374 -0.017310 0.000000 0.000000 0.000000
# 3 -0.000454 -0.017310 0.030822 0.000000 0.000000 0.000000
# 4 0.000000 0.000000 0.000000 0.041724 0.000000 0.000000
# 5 0.000000 0.000000 0.000000 0.000000 0.037311 0.000000
# 6 0.000000 0.000000 0.000000 0.000000 0.000000 0.048158
#
#
# Mechanical properties :
#
#
# Convention : Reuss Voigt Hill
#
# Bulk Modulus (GPa) = 43.57008 49.55339 46.56174
# Shear Modulus (GPa) = 19.48884 21.88586 20.68735
#
# Velocity S-wave (km/s) = 3.21898 3.41120 3.31648
# Velocity P-wave (km/s) = 6.08121 6.47005 6.27864
#
# Compressibility (1/GPa) = 0.02295153
#
# Stress axis : x y z
#
# Youngs Moduli (GPa) = 55.13759 42.78296 32.44422
#
# Poissons Ratio (x) = 0.29634 0.01473
# Poissons Ratio (y) = 0.38192 0.56161
# Poissons Ratio (z) = 0.02503 0.74057
#
# Static dielectric constant tensor:
#      x y z
#    x 1.701930 0.000000 0.000000 
#    y 0.000000 1.653500 0.000000 
#    z 0.000000 0.000000 1.679430 
# 
# From -- ./inp_files/27234.got.cif
#   From: 2010.05.17/outbox.cif.g08.bks.cpg/sg67_14_cif.got.tgz:27234.got - 2010.06.03 18:28:57.
