data_PCOD9502967
_publ_section_title
;
Structure prediction by ZEFSAII (Michael W. Deem and Ramdas Pophale) SiO2 
 PCOD9502967
Probable space group: C M M A
;
_chemical_formula_sum "Si O2"
_cell_formula_units_Z 112
_cell_length_a 15.168755
_cell_length_b 13.984863
_cell_length_c 26.096496
_cell_angle_alpha 90.000000
_cell_angle_beta 90.000000
_cell_angle_gamma 90.000000
_cell_volume 5535.926957
_symmetry_space_group_name_H-M "C M M A"
_symmetry_group_IT_number 67
_symmetry_cell_setting 'orthorhombic'
loop_
_space_group_symop_operation_xyz
x,y,z
-x,1/2-y,z
x,-y,-z
-x,1/2+y,-z
-x,-y,-z
x,1/2+y,-z
-x,y,z
x,1/2-y,z
1/2+x,1/2+y,z
1/2-x,-y,z
1/2+x,1/2-y,-z
1/2-x,y,-z
1/2-x,1/2-y,-z
1/2+x,y,-z
1/2-x,1/2+y,z
1/2+x,-y,z
loop_
_atom_site_type_symbol
_atom_site_label
_atom_site_fract_x
_atom_site_fract_y
_atom_site_fract_z
Si Si1 0.644487 0.514559 0.415248
Si Si2 0.601169 0.020074 0.781049
Si Si3 0.831662 0.363403 0.848513
Si Si4 0.000000 0.133205 0.033387
Si Si5 0.363210 0.136180 0.881738
Si Si6 0.357079 0.857802 0.510208
Si Si7 0.000000 0.634528 0.083044
Si Si8 0.894963 0.360031 0.315853
O O1 0.750000 0.500000 0.413885
O O2 0.612333 0.583607 0.460914
O O3 0.616709 0.410887 0.437200
O O4 0.619824 0.568325 0.363366
O O5 0.500000 0.990224 0.769187
O O6 0.599426 0.086300 0.831356
O O7 0.637539 0.084589 0.734810
O O8 0.657818 0.928192 0.798089
O O9 0.835701 0.250000 0.837140
O O10 0.741179 0.382218 0.878669
O O11 0.913585 0.390700 0.884703
O O12 0.085206 0.105840 0.067226
O O13 0.000000 0.250000 0.030738
O O14 0.000000 0.098583 0.975055
O O15 0.376062 0.250000 0.877130
O O16 0.387139 0.750000 0.509897
O O17 0.250000 0.858407 0.500000
O O18 0.000000 0.750000 0.080407
O O19 0.860852 0.250000 0.322506
O O20 0.000000 0.350900 0.309263
#
# Coordination Sequence:
#
# PCOD9502967 Si02
#       8
#    16  16  16   8  16  16   8  16
#     4   9  17  30  52  81 111 146 190 240 284 330
#     4  11  21  37  59  77 103 145 189 235 285 344
#     4  10  21  37  58  82 111 148 190 233 282 346
#     4   9  18  33  57  87 118 149 183 228 283 340
#     4  10  20  35  57  85 113 143 185 236 286 338
#     4   8  14  27  49  77 111 153 195 231 276 334
#     4   9  18  35  57  83 116 153 189 224 277 347
#     4  10  22  38  57  82 112 147 186 233 290 346
#
# _framework density 20.231480999999999
#
# number of rings (size 3 to 8) (size 9 to 14) (size 15 to 20)
#    0.000    2.429    1.429    2.143    0.000    2.857 
#    0.000    6.429    0.000    3.857    0.000    0.000 
#    0.000    0.000    0.000    0.000    0.000    0.000 
#
# Total GULP energy -312203.846675 kJ/mol
# GULP energy per Si atom -5575.068691 kJ/mol
# Density = 2.018543 g / cm^3
# Si number density = 20.231481 Si / 1000 Ang^3
#
#
#
# Elastic Constant Matrix: (Units=GPa)
#
#
# Indices 1 2 3 4 5 6 
#
# 1 85.7800 25.9606 24.1234 0.0000 0.0000 0.0000
# 2 25.9606 132.9508 61.0995 0.0000 0.0000 0.0000
# 3 24.1234 61.0995 130.3577 0.0000 0.0000 0.0000
# 4 0.0000 0.0000 0.0000 17.6629 0.0000 0.0000
# 5 0.0000 0.0000 0.0000 0.0000 18.8650 0.0000
# 6 0.0000 0.0000 0.0000 0.0000 0.0000 14.4248
#
#
#
# Elastic Compliance Matrix: (Units=1/GPa)
#
#
# Indices 1 2 3 4 5 6 
#
# 1 0.012617 -0.001772 -0.001504 0.000000 0.000000 0.000000
# 2 -0.001772 0.009836 -0.004282 0.000000 0.000000 0.000000
# 3 -0.001504 -0.004282 0.009957 0.000000 0.000000 0.000000
# 4 0.000000 0.000000 0.000000 0.056616 0.000000 0.000000
# 5 0.000000 0.000000 0.000000 0.000000 0.053008 0.000000
# 6 0.000000 0.000000 0.000000 0.000000 0.000000 0.069325
#
#
# Mechanical properties :
#
#
# Convention : Reuss Voigt Hill
#
# Bulk Modulus (GPa) = 57.82976 63.49505 60.66240
# Shear Modulus (GPa) = 21.52951 26.05088 23.79020
#
# Velocity S-wave (km/s) = 3.26568 3.59226 3.43286
# Velocity P-wave (km/s) = 6.54719 6.97554 6.76476
#
# Compressibility (1/GPa) = 0.01729214
#
# Stress axis : x y z
#
# Youngs Moduli (GPa) = 79.25728 101.67233 100.43661
#
# Poissons Ratio (x) = 0.18021 0.15107
# Poissons Ratio (y) = 0.14048 0.43007
# Poissons Ratio (z) = 0.11921 0.43536
#
# Static dielectric constant tensor:
#      x y z
#    x 1.764980 0.000000 0.000000 
#    y 0.000000 1.750020 0.000000 
#    z 0.000000 0.000000 1.694390 
# 
# From -- ./inp_files/44395.got.cif
#   From: 2010.05.17/outbox.cif.g08.bks.cpg/sg67_23_cif.got.tgz:44395.got - 2010.06.03 18:28:57.
