data_PCOD9502380
_publ_section_title
;
Structure prediction by ZEFSAII (Michael W. Deem and Ramdas Pophale) SiO2 
 PCOD9502380
Probable space group: C M M A
;
_chemical_formula_sum "Si O2"
_cell_formula_units_Z 72
_cell_length_a 24.870455
_cell_length_b 27.418682
_cell_length_c 5.370870
_cell_angle_alpha 90.000000
_cell_angle_beta 90.000000
_cell_angle_gamma 90.000000
_cell_volume 3662.477336
_symmetry_space_group_name_H-M "C M M A"
_symmetry_group_IT_number 67
_symmetry_cell_setting 'orthorhombic'
loop_
_space_group_symop_operation_xyz
x,y,z
-x,1/2-y,z
x,-y,-z
-x,1/2+y,-z
-x,-y,-z
x,1/2+y,-z
-x,y,z
x,1/2-y,z
1/2+x,1/2+y,z
1/2-x,-y,z
1/2+x,1/2-y,-z
1/2-x,y,-z
1/2-x,1/2-y,-z
1/2+x,y,-z
1/2-x,1/2+y,z
1/2+x,-y,z
loop_
_atom_site_type_symbol
_atom_site_label
_atom_site_fract_x
_atom_site_fract_y
_atom_site_fract_z
Si Si1 0.500000 0.532355 0.254875
Si Si2 0.227127 0.943421 0.748691
Si Si3 0.565050 0.363901 0.239011
Si Si4 0.608725 0.444095 0.916918
Si Si5 0.935289 0.805454 0.729526
O O1 0.500000 0.500000 0.500000
O O2 0.554471 0.563044 0.243075
O O3 0.500000 0.500000 0.000000
O O4 0.250000 0.920790 0.500000
O O5 0.163370 0.938138 0.766615
O O6 0.250000 0.000000 0.749127
O O7 0.250000 0.921008 0.000000
O O8 0.500000 0.374669 0.247674
O O9 0.598782 0.411484 0.160701
O O10 0.574692 0.328674 0.000160
O O11 0.582279 0.337936 0.493963
O O12 0.611029 0.500000 0.000000
O O13 0.914881 0.750000 0.714260
O O14 0.000000 0.803342 0.705367
#
# Coordination Sequence:
#
# PCOD9502380 Si02
#       5
#     8  16  16  16  16
#     4  10  24  34  50  74 103 154 187 212 266 328
#     4  10  21  37  55  73  97 148 195 238 267 307
#     4  10  20  33  51  82 111 146 189 223 272 341
#     4  11  22  39  55  80 119 155 190 228 278 332
#     4   9  18  34  54  75 108 147 184 229 277 329
#
# _framework density 19.658823000000002
#
# number of rings (size 3 to 8) (size 9 to 14) (size 15 to 20)
#    0.000    2.000    3.333    0.667    3.111    8.000 
#    0.000    0.000    0.000    0.000    0.000    0.000 
#    0.000   17.778    0.000    0.000    0.000    0.000 
#
# Total GULP energy -200938.377179 kJ/mol
# GULP energy per Si atom -5581.621588 kJ/mol
# Density = 1.961408 g / cm^3
# Si number density = 19.658823 Si / 1000 Ang^3
#
#
#
# Elastic Constant Matrix: (Units=GPa)
#
#
# Indices 1 2 3 4 5 6 
#
# 1 129.6616 1.5488 33.8963 0.0000 0.0000 0.0000
# 2 1.5488 91.1561 25.8511 0.0000 0.0000 0.0000
# 3 33.8963 25.8511 132.8107 0.0000 0.0000 0.0000
# 4 0.0000 0.0000 0.0000 18.5524 0.0000 0.0000
# 5 0.0000 0.0000 0.0000 0.0000 13.7670 0.0000
# 6 0.0000 0.0000 0.0000 0.0000 0.0000 -3.8725
#
#
#
# Elastic Compliance Matrix: (Units=1/GPa)
#
#
# Indices 1 2 3 4 5 6 
#
# 1 0.008284 0.000486 -0.002209 0.000000 0.000000 0.000000
# 2 0.000486 0.011640 -0.002390 0.000000 0.000000 0.000000
# 3 -0.002209 -0.002390 0.008558 0.000000 0.000000 0.000000
# 4 0.000000 0.000000 0.000000 0.053901 0.000000 0.000000
# 5 0.000000 0.000000 0.000000 0.000000 0.072637 0.000000
# 6 0.000000 0.000000 0.000000 0.000000 0.000000 -0.258234
#
#
# Mechanical properties :
#
#
# Convention : Reuss Voigt Hill
#
# Bulk Modulus (GPa) = 49.36669 52.91341 51.14005
# Shear Modulus (GPa) = -56.66626 25.17821 -15.74403
#
# Velocity S-wave (km/s) = -5.37470 3.58265 -2.83302
# Velocity P-wave (km/s) = 3.65381 6.63989 3.92032
#
# Compressibility (1/GPa) = 0.02025657
#
# Stress axis : x y z
#
# Youngs Moduli (GPa) = 120.71452 85.91362 116.84473
#
# Poissons Ratio (x) = -0.04172 0.25809
# Poissons Ratio (y) = -0.05862 0.27921
# Poissons Ratio (z) = 0.26663 0.20529
#
# Static dielectric constant tensor:
#      x y z
#    x 1.737450 0.000000 0.000000 
#    y 0.000000 1.731370 0.000000 
#    z 0.000000 0.000000 1.787850 
# 
# From -- ./inp_files/3444.got.cif
#   From: 2010.05.17/outbox.cif.g08.bks.cpg/sg67_2_cif.got.tgz:3444.got - 2010.06.03 18:28:57.
