data_PCOD9502888
_publ_section_title
;
Structure prediction by ZEFSAII (Michael W. Deem and Ramdas Pophale) SiO2 
 PCOD9502888
Probable space group: C M M A
;
_chemical_formula_sum "Si O2"
_cell_formula_units_Z 96
_cell_length_a 8.333039
_cell_length_b 30.216296
_cell_length_c 19.448835
_cell_angle_alpha 90.000000
_cell_angle_beta 90.000000
_cell_angle_gamma 90.000000
_cell_volume 4897.091655
_symmetry_space_group_name_H-M "C M M A"
_symmetry_group_IT_number 67
_symmetry_cell_setting 'orthorhombic'
loop_
_space_group_symop_operation_xyz
x,y,z
-x,1/2-y,z
x,-y,-z
-x,1/2+y,-z
-x,-y,-z
x,1/2+y,-z
-x,y,z
x,1/2-y,z
1/2+x,1/2+y,z
1/2-x,-y,z
1/2+x,1/2-y,-z
1/2-x,y,-z
1/2-x,1/2-y,-z
1/2+x,y,-z
1/2-x,1/2+y,z
1/2+x,-y,z
loop_
_atom_site_type_symbol
_atom_site_label
_atom_site_fract_x
_atom_site_fract_y
_atom_site_fract_z
Si Si1 0.190393 0.951939 0.275390
Si Si2 0.182860 0.799406 0.283877
Si Si3 0.805499 0.800487 0.921954
Si Si4 0.688782 0.680524 0.426824
Si Si5 0.694410 0.079388 0.426798
Si Si6 0.683201 0.369548 0.809594
O O1 0.245415 0.942892 0.354604
O O2 0.240067 0.913553 0.222156
O O3 0.000000 0.952025 0.278464
O O4 0.250000 0.000000 0.253484
O O5 0.207112 0.750000 0.257111
O O6 0.212080 0.799350 0.364689
O O7 0.304489 0.833842 0.251537
O O8 0.000000 0.813684 0.269218
O O9 0.753602 0.750000 0.902991
O O10 0.746373 0.840346 0.872768
O O11 0.000000 0.800738 0.918458
O O12 0.750000 0.807689 0.000000
O O13 0.500000 0.688437 0.418689
O O14 0.750000 0.696842 0.500000
O O15 0.726645 0.628022 0.424931
O O16 0.500000 0.083293 0.427774
O O17 0.750000 0.058869 0.500000
O O18 0.500000 0.380202 0.826628
#
# Coordination Sequence:
#
# PCOD9502888 Si02
#       6
#    16  16  16  16  16  16
#     4  11  24  40  60  85 116 152 197 247 298 357
#     4  11  23  37  54  79 111 148 192 237 285 344
#     4   9  19  36  60  93 129 162 196 232 274 333
#     4  11  21  34  54  75 103 143 187 237 291 346
#     4  10  20  35  56  80 109 144 189 243 300 358
#     4  11  22  38  61  87 119 155 192 237 290 343
#
# _framework density 19.603472
#
# number of rings (size 3 to 8) (size 9 to 14) (size 15 to 20)
#    0.000    1.500    1.667    5.000    0.000    6.000 
#    0.000    3.333    0.000    0.500    0.000    3.500 
#    0.000    0.000    0.000    0.000    0.000    0.000 
#
# Total GULP energy -267941.041723 kJ/mol
# GULP energy per Si atom -5582.105036 kJ/mol
# Density = 1.955885 g / cm^3
# Si number density = 19.603472 Si / 1000 Ang^3
#
#
#
# Elastic Constant Matrix: (Units=GPa)
#
#
# Indices 1 2 3 4 5 6 
#
# 1 43.1223 25.2191 5.8785 0.0000 0.0000 0.0000
# 2 25.2191 116.8441 62.7809 0.0000 0.0000 0.0000
# 3 5.8785 62.7809 126.7008 0.0000 0.0000 0.0000
# 4 0.0000 0.0000 0.0000 20.5974 0.0000 0.0000
# 5 0.0000 0.0000 0.0000 0.0000 26.8400 0.0000
# 6 0.0000 0.0000 0.0000 0.0000 0.0000 57.3681
#
#
#
# Elastic Compliance Matrix: (Units=1/GPa)
#
#
# Indices 1 2 3 4 5 6 
#
# 1 0.026993 -0.007023 0.002228 0.000000 0.000000 0.000000
# 2 -0.007023 0.013491 -0.006359 0.000000 0.000000 0.000000
# 3 0.002228 -0.006359 0.010940 0.000000 0.000000 0.000000
# 4 0.000000 0.000000 0.000000 0.048550 0.000000 0.000000
# 5 0.000000 0.000000 0.000000 0.000000 0.037258 0.000000
# 6 0.000000 0.000000 0.000000 0.000000 0.000000 0.017431
#
#
# Mechanical properties :
#
#
# Convention : Reuss Voigt Hill
#
# Bulk Modulus (GPa) = 34.34578 52.71380 43.52979
# Shear Modulus (GPa) = 26.78414 33.81368 30.29891
#
# Velocity S-wave (km/s) = 3.70035 4.15768 3.93566
# Velocity P-wave (km/s) = 5.98457 7.07084 6.55026
#
# Compressibility (1/GPa) = 0.02911566
#
# Stress axis : x y z
#
# Youngs Moduli (GPa) = 37.04598 74.12376 91.40621
#
# Poissons Ratio (x) = 0.52057 -0.20361
# Poissons Ratio (y) = 0.26017 0.58125
# Poissons Ratio (z) = -0.08252 0.47135
#
# Static dielectric constant tensor:
#      x y z
#    x 1.697270 0.000000 0.000000 
#    y 0.000000 1.723820 0.000000 
#    z 0.000000 0.000000 1.718250 
# 
# From -- ./inp_files/37135.got.cif
#   From: 2010.05.17/outbox.cif.g08.bks.cpg/sg67_19_cif.got.tgz:37135.got - 2010.06.03 18:28:57.
