data_PCOD9502001
_publ_section_title
;
Structure prediction by ZEFSAII (Michael W. Deem and Ramdas Pophale) SiO2 
 PCOD9502001
Probable space group: C M M A
;
_chemical_formula_sum "Si O2"
_cell_formula_units_Z 116
_cell_length_a 17.194956
_cell_length_b 26.705778
_cell_length_c 12.120376
_cell_angle_alpha 90.000000
_cell_angle_beta 90.000000
_cell_angle_gamma 90.000000
_cell_volume 5565.733354
_symmetry_space_group_name_H-M "C M M A"
_symmetry_group_IT_number 67
_symmetry_cell_setting 'orthorhombic'
loop_
_space_group_symop_operation_xyz
x,y,z
-x,1/2-y,z
x,-y,-z
-x,1/2+y,-z
-x,-y,-z
x,1/2+y,-z
-x,y,z
x,1/2-y,z
1/2+x,1/2+y,z
1/2-x,-y,z
1/2+x,1/2-y,-z
1/2-x,y,-z
1/2-x,1/2-y,-z
1/2+x,y,-z
1/2-x,1/2+y,z
1/2+x,-y,z
loop_
_atom_site_type_symbol
_atom_site_label
_atom_site_fract_x
_atom_site_fract_y
_atom_site_fract_z
Si Si1 0.798133 0.806051 0.162099
Si Si2 0.000000 0.750000 0.833034
Si Si3 0.373865 0.840604 0.160122
Si Si4 0.093032 0.909763 0.437333
Si Si5 0.090551 0.110622 0.937741
Si Si6 0.325200 0.194644 0.422846
Si Si7 0.594670 0.027747 0.224063
Si Si8 0.094557 0.575680 0.681997
O O1 0.817190 0.750000 0.122643
O O2 0.711429 0.821424 0.129394
O O3 0.859540 0.845936 0.118750
O O4 0.800735 0.805613 0.294935
O O5 0.067602 0.794315 0.834206
O O6 0.372934 0.872116 0.272996
O O7 0.401007 0.880233 0.067298
O O8 0.118807 0.852204 0.438669
O O9 0.121393 0.938613 0.328482
O O10 0.116973 0.933045 0.554654
O O11 0.000000 0.912366 0.432867
O O12 0.115797 0.057362 0.887130
O O13 0.000000 0.117362 0.908157
O O14 0.359524 0.250000 0.447021
O O15 0.250000 0.188802 0.500000
O O16 0.500000 0.025389 0.226700
O O17 0.621370 0.971301 0.244769
O O18 0.000000 0.579078 0.686775
#
# Coordination Sequence:
#
# PCOD9502001 Si02
#       8
#    16   4  16  16  16  16  16  16
#     4  11  24  39  63  89 126 168 207 256 319 382
#     4  12  24  44  66  90 136 164 220 272 304 382
#     4  12  24  42  62  95 124 166 211 265 318 373
#     4  10  19  36  62  91 121 157 207 260 310 373
#     4  11  23  40  64  93 128 164 208 261 312 375
#     4  10  21  38  57  84 123 166 203 252 316 382
#     4   9  19  37  62  91 124 159 204 260 315 369
#     4  10  20  37  62  93 123 165 212 257 314 374
#
# _framework density 20.841818
#
# number of rings (size 3 to 8) (size 9 to 14) (size 15 to 20)
#    0.000    1.517    3.448    1.655    0.966    3.310 
#    1.241    4.138    0.000    2.483    0.000    0.000 
#    0.000    0.000    0.000    0.000    0.000    0.000 
#
# Total GULP energy -323460.747265 kJ/mol
# GULP energy per Si atom -5576.909436 kJ/mol
# Density = 2.079438 g / cm^3
# Si number density = 20.841818 Si / 1000 Ang^3
#
#
#
# Elastic Constant Matrix: (Units=GPa)
#
#
# Indices 1 2 3 4 5 6 
#
# 1 39.2687 4.3502 -4.4396 0.0000 0.0000 0.0000
# 2 4.3502 103.1717 15.4954 0.0000 0.0000 0.0000
# 3 -4.4396 15.4954 47.3992 0.0000 0.0000 0.0000
# 4 0.0000 0.0000 0.0000 23.6050 0.0000 0.0000
# 5 0.0000 0.0000 0.0000 0.0000 20.6769 0.0000
# 6 0.0000 0.0000 0.0000 0.0000 0.0000 13.7429
#
#
#
# Elastic Compliance Matrix: (Units=1/GPa)
#
#
# Indices 1 2 3 4 5 6 
#
# 1 0.025967 -0.001536 0.002934 0.000000 0.000000 0.000000
# 2 -0.001536 0.010284 -0.003506 0.000000 0.000000 0.000000
# 3 0.002934 -0.003506 0.022518 0.000000 0.000000 0.000000
# 4 0.000000 0.000000 0.000000 0.042364 0.000000 0.000000
# 5 0.000000 0.000000 0.000000 0.000000 0.048363 0.000000
# 6 0.000000 0.000000 0.000000 0.000000 0.000000 0.072765
#
#
# Mechanical properties :
#
#
# Convention : Reuss Voigt Hill
#
# Bulk Modulus (GPa) = 18.33004 24.51687 21.42346
# Shear Modulus (GPa) = 20.43645 23.23386 21.83515
#
# Velocity S-wave (km/s) = 3.13477 3.34244 3.24027
# Velocity P-wave (km/s) = 4.68149 5.16573 4.92956
#
# Compressibility (1/GPa) = 0.05455525
#
# Stress axis : x y z
#
# Youngs Moduli (GPa) = 38.50981 97.23971 44.40832
#
# Poissons Ratio (x) = 0.14932 -0.13030
# Poissons Ratio (y) = 0.05914 0.15569
# Poissons Ratio (z) = -0.11300 0.34090
#
# Static dielectric constant tensor:
#      x y z
#    x 1.706730 0.000000 0.000000 
#    y 0.000000 1.729240 0.000000 
#    z 0.000000 0.000000 1.802870 
# 
# From -- ./inp_files/19986.got.cif
#   From: 2010.05.17/outbox.cif.g08.bks.cpg/sg67_10_cif.got.tgz:19986.got - 2010.06.03 18:28:57.
