data_PCOD9502763
_publ_section_title
;
Structure prediction by ZEFSAII (Michael W. Deem and Ramdas Pophale) SiO2 
 PCOD9502763
Probable space group: C M M A
;
_chemical_formula_sum "Si O2"
_cell_formula_units_Z 64
_cell_length_a 10.629580
_cell_length_b 19.285683
_cell_length_c 16.657052
_cell_angle_alpha 90.000000
_cell_angle_beta 90.000000
_cell_angle_gamma 90.000000
_cell_volume 3414.674177
_symmetry_space_group_name_H-M "C M M A"
_symmetry_group_IT_number 67
_symmetry_cell_setting 'orthorhombic'
loop_
_space_group_symop_operation_xyz
x,y,z
-x,1/2-y,z
x,-y,-z
-x,1/2+y,-z
-x,-y,-z
x,1/2+y,-z
-x,y,z
x,1/2-y,z
1/2+x,1/2+y,z
1/2-x,-y,z
1/2+x,1/2-y,-z
1/2-x,y,-z
1/2-x,1/2-y,-z
1/2+x,y,-z
1/2-x,1/2+y,z
1/2+x,-y,z
loop_
_atom_site_type_symbol
_atom_site_label
_atom_site_fract_x
_atom_site_fract_y
_atom_site_fract_z
Si Si1 0.770136 0.668757 0.260160
Si Si2 0.000000 0.580461 0.977586
Si Si3 0.500000 0.830239 0.862813
Si Si4 0.141160 0.834076 0.440435
Si Si5 0.361819 0.944889 0.170234
O O1 0.732546 0.750000 0.259972
O O2 0.879296 0.659133 0.193930
O O3 0.823396 0.651935 0.348152
O O4 0.663805 0.615197 0.234026
O O5 0.118950 0.589933 0.917751
O O6 0.000000 0.500000 0.000000
O O7 0.000000 0.623769 0.057957
O O8 0.500000 0.750000 0.887956
O O9 0.137868 0.750000 0.447683
O O10 0.250000 0.859628 0.500000
O O11 0.000000 0.859356 0.458653
O O12 0.500000 0.977840 0.185124
O O13 0.250000 0.000000 0.170503
#
# Coordination Sequence:
#
# PCOD9502763 Si02
#       5
#    16   8   8  16  16
#     4  10  20  36  59  87 122 157 192 238 296 350
#     4  10  22  38  58  81 114 150 204 243 290 336
#     4  10  20  34  58  85 118 159 194 239 296 349
#     4   9  17  31  54  85 117 153 193 233 282 344
#     4  10  24  40  59  85 115 154 199 248 291 345
#
# _framework density 18.742637999999999
#
# number of rings (size 3 to 8) (size 9 to 14) (size 15 to 20)
#    0.750    1.500    1.250    1.500    1.750    6.000 
#    0.000    5.000    0.000    0.750    0.000    3.500 
#    0.000    0.000    0.000    0.000    0.000    0.000 
#
# Total GULP energy -178342.675336 kJ/mol
# GULP energy per Si atom -5573.208604 kJ/mol
# Density = 1.869998 g / cm^3
# Si number density = 18.742638 Si / 1000 Ang^3
#
#
#
# Elastic Constant Matrix: (Units=GPa)
#
#
# Indices 1 2 3 4 5 6 
#
# 1 135.4134 46.6925 74.6323 0.0000 0.0000 0.0000
# 2 46.6925 50.6605 50.2670 0.0000 0.0000 0.0000
# 3 74.6323 50.2670 117.1269 0.0000 0.0000 0.0000
# 4 0.0000 0.0000 0.0000 17.7268 0.0000 0.0000
# 5 0.0000 0.0000 0.0000 0.0000 28.2934 0.0000
# 6 0.0000 0.0000 0.0000 0.0000 0.0000 26.9834
#
#
#
# Elastic Compliance Matrix: (Units=1/GPa)
#
#
# Indices 1 2 3 4 5 6 
#
# 1 0.012427 -0.006265 -0.005230 0.000000 0.000000 0.000000
# 2 -0.006265 0.037537 -0.012118 0.000000 0.000000 0.000000
# 3 -0.005230 -0.012118 0.017071 0.000000 0.000000 0.000000
# 4 0.000000 0.000000 0.000000 0.056412 0.000000 0.000000
# 5 0.000000 0.000000 0.000000 0.000000 0.035344 0.000000
# 6 0.000000 0.000000 0.000000 0.000000 0.000000 0.037060
#
#
# Mechanical properties :
#
#
# Convention : Reuss Voigt Hill
#
# Bulk Modulus (GPa) = 50.47919 71.82049 61.14984
# Shear Modulus (GPa) = 20.02568 23.37463 21.70016
#
# Velocity S-wave (km/s) = 3.27227 3.53531 3.40633
# Velocity P-wave (km/s) = 6.42404 7.42072 6.94029
#
# Compressibility (1/GPa) = 0.01981014
#
# Stress axis : x y z
#
# Youngs Moduli (GPa) = 80.46678 26.64050 58.57916
#
# Poissons Ratio (x) = 0.16689 0.30638
# Poissons Ratio (y) = 0.50409 0.70985
# Poissons Ratio (z) = 0.42085 0.32282
#
# Static dielectric constant tensor:
#      x y z
#    x 1.697360 0.000000 0.000000 
#    y 0.000000 1.636670 0.000000 
#    z 0.000000 0.000000 1.645600 
# 
# From -- ./inp_files/31765.got.cif
#   From: 2010.05.17/outbox.cif.g08.bks.cpg/sg67_16_cif.got.tgz:31765.got - 2010.06.03 18:28:57.
