data_PCOD9502231
_publ_section_title
;
Structure prediction by ZEFSAII (Michael W. Deem and Ramdas Pophale) SiO2 
 PCOD9502231
Probable space group: C M M A
;
_chemical_formula_sum "Si O2"
_cell_formula_units_Z 72
_cell_length_a 14.963358
_cell_length_b 19.532305
_cell_length_c 12.449251
_cell_angle_alpha 90.000000
_cell_angle_beta 90.000000
_cell_angle_gamma 90.000000
_cell_volume 3638.528551
_symmetry_space_group_name_H-M "C M M A"
_symmetry_group_IT_number 67
_symmetry_cell_setting 'orthorhombic'
loop_
_space_group_symop_operation_xyz
x,y,z
-x,1/2-y,z
x,-y,-z
-x,1/2+y,-z
-x,-y,-z
x,1/2+y,-z
-x,y,z
x,1/2-y,z
1/2+x,1/2+y,z
1/2-x,-y,z
1/2+x,1/2-y,-z
1/2-x,y,-z
1/2-x,1/2-y,-z
1/2+x,y,-z
1/2-x,1/2+y,z
1/2+x,-y,z
loop_
_atom_site_type_symbol
_atom_site_label
_atom_site_fract_x
_atom_site_fract_y
_atom_site_fract_z
Si Si1 0.500000 0.496658 0.787285
Si Si2 0.206040 0.170188 0.111468
Si Si3 0.500000 0.151129 0.157789
Si Si4 0.649658 0.027291 0.385152
Si Si5 0.500000 0.142845 0.912337
Si Si6 0.171668 0.671953 0.300212
O O1 0.500000 0.569106 0.845907
O O2 0.414040 0.499447 0.708966
O O3 0.500000 0.436021 0.872937
O O4 0.231872 0.250000 0.110718
O O5 0.099424 0.165744 0.122642
O O6 0.251159 0.144089 0.220633
O O7 0.250000 0.141051 0.000000
O O8 0.585867 0.174978 0.222563
O O9 0.500000 0.169188 0.034503
O O10 0.651837 0.110523 0.382717
O O11 0.617184 0.000000 0.500000
O O12 0.750000 0.000000 0.371041
O O13 0.189362 0.750000 0.340018
#
# Coordination Sequence:
#
# PCOD9502231 Si02
#       6
#     8  16   8  16   8  16
#     4  10  22  36  55  81 113 147 194 238 289 339
#     4  10  20  32  51  80 115 152 188 230 282 337
#     4  10  20  33  53  80 117 151 189 230 281 342
#     4  10  21  40  62  83 111 152 194 244 298 347
#     4  12  20  33  54  79 117 160 192 226 281 351
#     4  10  20  36  58  87 115 148 194 241 287 344
#
# _framework density 19.788219000000002
#
# number of rings (size 3 to 8) (size 9 to 14) (size 15 to 20)
#    0.000    1.778    2.222    2.667    0.000    0.889 
#    0.000    2.222    0.000    2.667    0.000    0.000 
#    0.000    0.000    0.000    0.000    0.000    0.000 
#
# Total GULP energy -200533.572493 kJ/mol
# GULP energy per Si atom -5570.377014 kJ/mol
# Density = 1.974318 g / cm^3
# Si number density = 19.788219 Si / 1000 Ang^3
#
#
#
# Elastic Constant Matrix: (Units=GPa)
#
#
# Indices 1 2 3 4 5 6 
#
# 1 103.4142 -11.6389 12.7406 0.0000 0.0000 0.0000
# 2 -11.6389 118.4322 44.0400 0.0000 0.0000 0.0000
# 3 12.7406 44.0400 57.5798 0.0000 0.0000 0.0000
# 4 0.0000 0.0000 0.0000 19.1315 0.0000 0.0000
# 5 0.0000 0.0000 0.0000 0.0000 16.1258 0.0000
# 6 0.0000 0.0000 0.0000 0.0000 0.0000 -13.9767
#
#
#
# Elastic Compliance Matrix: (Units=1/GPa)
#
#
# Indices 1 2 3 4 5 6 
#
# 1 0.010504 0.002650 -0.004351 0.000000 0.000000 0.000000
# 2 0.002650 0.012468 -0.010123 0.000000 0.000000 0.000000
# 3 -0.004351 -0.010123 0.026073 0.000000 0.000000 0.000000
# 4 0.000000 0.000000 0.000000 0.052270 0.000000 0.000000
# 5 0.000000 0.000000 0.000000 0.000000 0.062013 0.000000
# 6 0.000000 0.000000 0.000000 0.000000 0.000000 -0.071548
#
#
# Mechanical properties :
#
#
# Convention : Reuss Voigt Hill
#
# Bulk Modulus (GPa) = 39.37422 41.07885 40.22653
# Shear Modulus (GPa) = 40.35721 19.87508 30.11615
#
# Velocity S-wave (km/s) = 4.52093 3.17265 3.90542
# Velocity P-wave (km/s) = 6.86970 5.85023 6.38036
#
# Compressibility (1/GPa) = 0.02539733
#
# Stress axis : x y z
#
# Youngs Moduli (GPa) = 95.19961 80.20258 38.35442
#
# Poissons Ratio (x) = -0.21257 0.16690
# Poissons Ratio (y) = -0.25232 0.38826
# Poissons Ratio (z) = 0.41426 0.81189
#
# Static dielectric constant tensor:
#      x y z
#    x 1.693520 0.000000 0.000000 
#    y 0.000000 1.711460 0.000000 
#    z 0.000000 0.000000 1.725400 
# 
# From -- ./inp_files/26878.got.cif
#   From: 2010.05.17/outbox.cif.g08.bks.cpg/sg67_14_cif.got.tgz:26878.got - 2010.06.03 18:28:57.
