data_PCOD9502929
_publ_section_title
;
Structure prediction by ZEFSAII (Michael W. Deem and Ramdas Pophale) SiO2 
 PCOD9502929
Probable space group: C M M A
;
_chemical_formula_sum "Si O2"
_cell_formula_units_Z 112
_cell_length_a 14.338225
_cell_length_b 30.253774
_cell_length_c 14.564884
_cell_angle_alpha 90.000000
_cell_angle_beta 90.000000
_cell_angle_gamma 90.000000
_cell_volume 6318.034304
_symmetry_space_group_name_H-M "C M M A"
_symmetry_group_IT_number 67
_symmetry_cell_setting 'orthorhombic'
loop_
_space_group_symop_operation_xyz
x,y,z
-x,1/2-y,z
x,-y,-z
-x,1/2+y,-z
-x,-y,-z
x,1/2+y,-z
-x,y,z
x,1/2-y,z
1/2+x,1/2+y,z
1/2-x,-y,z
1/2+x,1/2-y,-z
1/2-x,y,-z
1/2-x,1/2-y,-z
1/2+x,y,-z
1/2-x,1/2+y,z
1/2+x,-y,z
loop_
_atom_site_type_symbol
_atom_site_label
_atom_site_fract_x
_atom_site_fract_y
_atom_site_fract_z
Si Si1 0.611264 0.395872 0.379603
Si Si2 0.733129 0.614410 0.105160
Si Si3 0.889985 0.044635 0.446727
Si Si4 0.390332 0.677288 0.861228
Si Si5 0.736140 0.448725 0.731613
Si Si6 0.388071 0.798947 0.068001
Si Si7 0.612732 0.297003 0.340872
O O1 0.500000 0.397603 0.358013
O O2 0.623890 0.416151 0.480620
O O3 0.670668 0.425897 0.309981
O O4 0.643654 0.344778 0.377065
O O5 0.833079 0.632463 0.137231
O O6 0.702949 0.578316 0.179027
O O7 0.666696 0.658133 0.104499
O O8 0.750000 0.599358 0.000000
O O9 0.835538 0.052265 0.353274
O O10 0.000000 0.039989 0.427720
O O11 0.860035 0.000000 0.500000
O O12 0.500000 0.669064 0.858754
O O13 0.366311 0.702093 0.767942
O O14 0.370133 0.700584 0.958023
O O15 0.750000 0.500000 0.755247
O O16 0.500000 0.803862 0.081093
O O17 0.360854 0.750000 0.103389
O O18 0.500000 0.296840 0.350886
O O19 0.647561 0.250000 0.379567
#
# Coordination Sequence:
#
# PCOD9502929 Si02
#       7
#    16  16  16  16  16  16  16
#     4  10  20  35  56  86 115 140 173 227 289 339
#     4  10  22  36  51  79 111 152 189 226 270 332
#     4  10  21  38  61  86 108 135 181 239 290 331
#     4   9  16  29  50  78 108 138 180 232 279 320
#     4  12  23  36  58  82 108 147 185 233 282 332
#     4   9  18  33  53  75 104 144 189 236 280 322
#     4   9  16  27  48  79 112 143 175 213 267 335
#
# _framework density 17.727032999999999
#
# number of rings (size 3 to 8) (size 9 to 14) (size 15 to 20)
#    0.000    2.143    2.857    0.857    0.000    5.714 
#    0.000    0.000    0.000    2.571    0.000    8.000 
#    0.000    0.000    0.000    0.000    0.000    0.000 
#
# Total GULP energy -312042.356977 kJ/mol
# GULP energy per Si atom -5572.184946 kJ/mol
# Density = 1.768669 g / cm^3
# Si number density = 17.727033 Si / 1000 Ang^3
#
#
#
# Elastic Constant Matrix: (Units=GPa)
#
#
# Indices 1 2 3 4 5 6 
#
# 1 41.9760 41.6698 39.2627 0.0000 0.0000 0.0000
# 2 41.6698 170.4916 77.1494 0.0000 0.0000 0.0000
# 3 39.2627 77.1494 96.0522 0.0000 0.0000 0.0000
# 4 0.0000 0.0000 0.0000 -12.2128 0.0000 0.0000
# 5 0.0000 0.0000 0.0000 0.0000 14.8398 0.0000
# 6 0.0000 0.0000 0.0000 0.0000 0.0000 9.2990
#
#
#
# Elastic Compliance Matrix: (Units=1/GPa)
#
#
# Indices 1 2 3 4 5 6 
#
# 1 0.040031 -0.003738 -0.013361 0.000000 0.000000 0.000000
# 2 -0.003738 0.009564 -0.006153 0.000000 0.000000 0.000000
# 3 -0.013361 -0.006153 0.020815 0.000000 0.000000 0.000000
# 4 0.000000 0.000000 0.000000 -0.081881 0.000000 0.000000
# 5 0.000000 0.000000 0.000000 0.000000 0.067386 0.000000
# 6 0.000000 0.000000 0.000000 0.000000 0.000000 0.107538
#
#
# Mechanical properties :
#
#
# Convention : Reuss Voigt Hill
#
# Bulk Modulus (GPa) = 41.83257 69.40929 55.62093
# Shear Modulus (GPa) = 22.94353 12.41439 17.67896
#
# Velocity S-wave (km/s) = 3.60150 2.64920 3.16141
# Velocity P-wave (km/s) = 6.39873 6.97117 6.69108
#
# Compressibility (1/GPa) = 0.02390482
#
# Stress axis : x y z
#
# Youngs Moduli (GPa) = 24.98053 104.56401 48.04251
#
# Poissons Ratio (x) = 0.39087 0.64189
# Poissons Ratio (y) = 0.09338 0.29563
# Poissons Ratio (z) = 0.33376 0.64343
#
# Static dielectric constant tensor:
#      x y z
#    x 1.627540 0.000000 0.000000 
#    y 0.000000 1.627580 0.000000 
#    z 0.000000 0.000000 1.608680 
# 
# From -- ./inp_files/27863.got.cif
#   From: 2010.05.17/outbox.cif.g08.bks.cpg/sg67_14_cif.got.tgz:27863.got - 2010.06.03 18:28:57.
