data_PCOD9502311
_publ_section_title
;
Structure prediction by ZEFSAII (Michael W. Deem and Ramdas Pophale) SiO2 
 PCOD9502311
Probable space group: C M M A
;
_chemical_formula_sum "Si O2"
_cell_formula_units_Z 80
_cell_length_a 9.145911
_cell_length_b 14.609426
_cell_length_c 27.022066
_cell_angle_alpha 90.000000
_cell_angle_beta 90.000000
_cell_angle_gamma 90.000000
_cell_volume 3610.594151
_symmetry_space_group_name_H-M "C M M A"
_symmetry_group_IT_number 67
_symmetry_cell_setting 'orthorhombic'
loop_
_space_group_symop_operation_xyz
x,y,z
-x,1/2-y,z
x,-y,-z
-x,1/2+y,-z
-x,-y,-z
x,1/2+y,-z
-x,y,z
x,1/2-y,z
1/2+x,1/2+y,z
1/2-x,-y,z
1/2+x,1/2-y,-z
1/2-x,y,-z
1/2-x,1/2-y,-z
1/2+x,y,-z
1/2-x,1/2+y,z
1/2+x,-y,z
loop_
_atom_site_type_symbol
_atom_site_label
_atom_site_fract_x
_atom_site_fract_y
_atom_site_fract_z
Si Si1 0.837853 0.857448 0.147020
Si Si2 0.166026 0.137960 0.549445
Si Si3 0.330973 0.361528 0.647819
Si Si4 0.330364 0.638077 0.242579
Si Si5 0.175495 0.400299 0.048328
O O1 0.856130 0.750000 0.155949
O O2 0.767606 0.895233 0.197206
O O3 0.728183 0.862852 0.100870
O O4 0.000000 0.896612 0.135603
O O5 0.166551 0.250000 0.549718
O O6 0.250000 0.109910 0.500000
O O7 0.240338 0.108136 0.600487
O O8 0.000000 0.106784 0.547350
O O9 0.500000 0.389379 0.642980
O O10 0.329329 0.250000 0.647271
O O11 0.277730 0.388914 0.702528
O O12 0.500000 0.610481 0.236578
O O13 0.330496 0.750000 0.241644
O O14 0.250000 0.500000 0.049273
O O15 0.000000 0.401897 0.043544
O O16 0.250000 0.354778 0.000000
#
# Coordination Sequence:
#
# PCOD9502311 Si02
#       5
#    16  16  16  16  16
#     4  10  20  33  50  74 102 129 160 198 237 278
#     4   9  15  20  26  37  55  82 120 166 213 259
#     4   8  13  21  32  45  64  92 127 168 214 263
#     4   8  14  25  40  58  81 110 143 180 225 273
#     4  11  22  38  58  77 100 128 160 195 234 282
#
# _framework density 22.157017
#
# number of rings (size 3 to 8) (size 9 to 14) (size 15 to 20)
#    0.000    2.800    0.000    4.800    0.000    4.800 
#    0.000    4.000    0.000    0.000    0.000    0.000 
#    0.000    0.000    0.000    0.000    0.000    1.000 
#
# Total GULP energy -223248.615436 kJ/mol
# GULP energy per Si atom -5581.215386 kJ/mol
# Density = 2.210659 g / cm^3
# Si number density = 22.157017 Si / 1000 Ang^3
#
#
#
# Elastic Constant Matrix: (Units=GPa)
#
#
# Indices 1 2 3 4 5 6 
#
# 1 181.9271 9.9748 131.9062 0.0000 0.0000 0.0000
# 2 9.9748 52.9391 5.6073 0.0000 0.0000 0.0000
# 3 131.9062 5.6073 234.2294 0.0000 0.0000 0.0000
# 4 0.0000 0.0000 0.0000 20.8343 0.0000 0.0000
# 5 0.0000 0.0000 0.0000 0.0000 38.2719 0.0000
# 6 0.0000 0.0000 0.0000 0.0000 0.0000 5.9168
#
#
#
# Elastic Compliance Matrix: (Units=1/GPa)
#
#
# Indices 1 2 3 4 5 6 
#
# 1 0.009366 -0.001209 -0.005246 0.000000 0.000000 0.000000
# 2 -0.001209 0.019094 0.000224 0.000000 0.000000 0.000000
# 3 -0.005246 0.000224 0.007218 0.000000 0.000000 0.000000
# 4 0.000000 0.000000 0.000000 0.047998 0.000000 0.000000
# 5 0.000000 0.000000 0.000000 0.000000 0.026129 0.000000
# 6 0.000000 0.000000 0.000000 0.000000 0.000000 0.169009
#
#
# Mechanical properties :
#
#
# Convention : Reuss Voigt Hill
#
# Bulk Modulus (GPa) = 43.07350 84.89690 63.98520
# Shear Modulus (GPa) = 16.72159 34.44509 25.58334
#
# Velocity S-wave (km/s) = 2.75014 3.94711 3.40168
# Velocity P-wave (km/s) = 5.43752 7.69234 6.66103
#
# Compressibility (1/GPa) = 0.02321613
#
# Stress axis : x y z
#
# Youngs Moduli (GPa) = 106.76406 52.37313 138.54044
#
# Poissons Ratio (x) = 0.06333 0.72675
# Poissons Ratio (y) = 0.12910 -0.03101
# Poissons Ratio (z) = 0.56006 -0.01172
#
# Static dielectric constant tensor:
#      x y z
#    x 1.782510 0.000000 0.000000 
#    y 0.000000 2.009520 0.000000 
#    z 0.000000 0.000000 1.829390 
# 
# From -- ./inp_files/43260.got.cif
#   From: 2010.05.17/outbox.cif.g08.bks.cpg/sg67_22_cif.got.tgz:43260.got - 2010.06.03 18:28:57.
