data_PCOD9502536
_publ_section_title
;
Structure prediction by ZEFSAII (Michael W. Deem and Ramdas Pophale) SiO2 
 PCOD9502536
Probable space group: C M M A
;
_chemical_formula_sum "Si O2"
_cell_formula_units_Z 72
_cell_length_a 7.676562
_cell_length_b 15.248084
_cell_length_c 29.987945
_cell_angle_alpha 90.000000
_cell_angle_beta 90.000000
_cell_angle_gamma 90.000000
_cell_volume 3510.174794
_symmetry_space_group_name_H-M "C M M A"
_symmetry_group_IT_number 67
_symmetry_cell_setting 'orthorhombic'
loop_
_space_group_symop_operation_xyz
x,y,z
-x,1/2-y,z
x,-y,-z
-x,1/2+y,-z
-x,-y,-z
x,1/2+y,-z
-x,y,z
x,1/2-y,z
1/2+x,1/2+y,z
1/2-x,-y,z
1/2+x,1/2-y,-z
1/2-x,y,-z
1/2-x,1/2-y,-z
1/2+x,y,-z
1/2-x,1/2+y,z
1/2+x,-y,z
loop_
_atom_site_type_symbol
_atom_site_label
_atom_site_fract_x
_atom_site_fract_y
_atom_site_fract_z
Si Si1 0.208806 0.649138 0.951802
Si Si2 0.787086 0.250000 0.310234
Si Si3 0.286080 0.250000 0.791772
Si Si4 0.791699 0.095818 0.144457
Si Si5 0.790956 0.750000 0.551938
Si Si6 0.790951 0.896447 0.620187
O O1 0.272943 0.750000 0.952073
O O2 0.276523 0.606642 0.906250
O O3 0.000000 0.651346 0.949186
O O4 0.250000 0.609029 0.000000
O O5 0.727987 0.250000 0.259232
O O6 0.732574 0.162489 0.337358
O O7 0.000000 0.250000 0.310148
O O8 0.500000 0.250000 0.790792
O O9 0.227394 0.332728 0.820822
O O10 0.000000 0.106971 0.141844
O O11 0.750000 0.000000 0.160974
O O12 0.750000 0.750000 0.500000
O O13 0.728616 0.837918 0.577843
O O14 0.000000 0.750000 0.556118
O O15 0.000000 0.892501 0.620054
O O16 0.750000 0.000000 0.620266
#
# Coordination Sequence:
#
# PCOD9502536 Si02
#       6
#    16   8   8  16   8  16
#     4   9  17  31  50  70  93 124 160 195 234 285
#     4   8  16  32  54  75  97 131 170 204 247 303
#     4   9  17  34  56  73  97 134 166 196 244 305
#     4  10  20  34  52  74  99 127 161 199 241 292
#     4   9  19  34  50  72 106 143 178 212 250 298
#     4   9  18  33  52  76 104 134 171 214 254 296
#
# _framework density 20.511799
#
# number of rings (size 3 to 8) (size 9 to 14) (size 15 to 20)
#    0.000    2.889    1.111    1.333    0.000    3.556 
#    0.000    6.667    0.000    1.333    0.000    0.000 
#    0.000    0.000    0.000    0.000    0.000    0.000 
#
# Total GULP energy -200687.880555 kJ/mol
# GULP energy per Si atom -5574.663349 kJ/mol
# Density = 2.046511 g / cm^3
# Si number density = 20.511799 Si / 1000 Ang^3
#
#
#
# Elastic Constant Matrix: (Units=GPa)
#
#
# Indices 1 2 3 4 5 6 
#
# 1 33.4374 3.1712 10.8714 0.0000 0.0000 0.0000
# 2 3.1712 203.1537 118.7930 0.0000 0.0000 0.0000
# 3 10.8714 118.7930 211.0354 0.0000 0.0000 0.0000
# 4 0.0000 0.0000 0.0000 -65.7388 0.0000 0.0000
# 5 0.0000 0.0000 0.0000 0.0000 12.5828 0.0000
# 6 0.0000 0.0000 0.0000 0.0000 0.0000 21.9336
#
#
#
# Elastic Compliance Matrix: (Units=1/GPa)
#
#
# Indices 1 2 3 4 5 6 
#
# 1 0.030475 0.000659 -0.001941 0.000000 0.000000 0.000000
# 2 0.000659 0.007352 -0.004172 0.000000 0.000000 0.000000
# 3 -0.001941 -0.004172 0.007187 0.000000 0.000000 0.000000
# 4 0.000000 0.000000 0.000000 -0.015212 0.000000 0.000000
# 5 0.000000 0.000000 0.000000 0.000000 0.079473 0.000000
# 6 0.000000 0.000000 0.000000 0.000000 0.000000 0.045592
#
#
# Mechanical properties :
#
#
# Convention : Reuss Voigt Hill
#
# Bulk Modulus (GPa) = 29.32033 79.25530 54.28782
# Shear Modulus (GPa) = 28.22545 14.74158 21.48352
#
# Velocity S-wave (km/s) = 3.71355 2.68374 3.23983
# Velocity P-wave (km/s) = 5.71950 6.95170 6.36548
#
# Compressibility (1/GPa) = 0.03410603
#
# Stress axis : x y z
#
# Youngs Moduli (GPa) = 32.81356 136.02004 139.13665
#
# Poissons Ratio (x) = -0.08968 0.27007
# Poissons Ratio (y) = -0.02163 0.58053
# Poissons Ratio (z) = 0.06369 0.56753
#
# Static dielectric constant tensor:
#      x y z
#    x 1.764390 0.000000 0.000000 
#    y 0.000000 1.741500 0.000000 
#    z 0.000000 0.000000 1.733590 
# 
# From -- ./inp_files/45167.got.cif
#   From: 2010.05.17/outbox.cif.g08.bks.cpg/sg67_23_cif.got.tgz:45167.got - 2010.06.03 18:28:57.
