data_PCOD9502324
_publ_section_title
;
Structure prediction by ZEFSAII (Michael W. Deem and Ramdas Pophale) SiO2 
 PCOD9502324
Probable space group: C M M A
;
_chemical_formula_sum "Si O2"
_cell_formula_units_Z 64
_cell_length_a 9.869428
_cell_length_b 28.066959
_cell_length_c 12.595723
_cell_angle_alpha 90.000000
_cell_angle_beta 90.000000
_cell_angle_gamma 90.000000
_cell_volume 3489.076121
_symmetry_space_group_name_H-M "C M M A"
_symmetry_group_IT_number 67
_symmetry_cell_setting 'orthorhombic'
loop_
_space_group_symop_operation_xyz
x,y,z
-x,1/2-y,z
x,-y,-z
-x,1/2+y,-z
-x,-y,-z
x,1/2+y,-z
-x,y,z
x,1/2-y,z
1/2+x,1/2+y,z
1/2-x,-y,z
1/2+x,1/2-y,-z
1/2-x,y,-z
1/2-x,1/2-y,-z
1/2+x,y,-z
1/2-x,1/2+y,z
1/2+x,-y,z
loop_
_atom_site_type_symbol
_atom_site_label
_atom_site_fract_x
_atom_site_fract_y
_atom_site_fract_z
Si Si1 0.355265 0.560857 0.910544
Si Si2 0.838585 0.750000 0.107480
Si Si3 0.838838 0.094359 0.393111
Si Si4 0.841807 0.348031 0.771331
Si Si5 0.250000 0.500000 0.725189
O O1 0.500000 0.556625 0.962488
O O2 0.335427 0.614021 0.866994
O O3 0.346608 0.528054 0.806616
O O4 0.250000 0.549681 0.000000
O O5 0.812082 0.703462 0.179630
O O6 0.000000 0.750000 0.080987
O O7 0.750000 0.750000 0.000000
O O8 0.750000 0.095421 0.500000
O O9 0.765263 0.132199 0.314454
O O10 0.820307 0.041273 0.343307
O O11 0.000000 0.103392 0.407522
O O12 0.000000 0.348933 0.732230
#
# Coordination Sequence:
#
# PCOD9502324 Si02
#       5
#    16   8  16  16   8
#     4  10  20  33  50  75 109 146 182 222 268 320
#     4  10  20  36  61  90 119 152 187 228 276 328
#     4  11  23  39  60  83 109 144 186 233 284 335
#     4   9  20  38  57  81 114 148 186 231 277 328
#     4  10  22  36  54  78 108 144 186 228 272 328
#
# _framework density 18.342963999999998
#
# number of rings (size 3 to 8) (size 9 to 14) (size 15 to 20)
#    0.000    2.000    0.000    3.000    0.000   11.000 
#    0.000    0.625    0.000    0.000    0.000    0.000 
#    0.000    0.000    0.000    0.000    0.000    0.000 
#
# Total GULP energy -178453.526364 kJ/mol
# GULP energy per Si atom -5576.672699 kJ/mol
# Density = 1.830121 g / cm^3
# Si number density = 18.342964 Si / 1000 Ang^3
#
#
#
# Elastic Constant Matrix: (Units=GPa)
#
#
# Indices 1 2 3 4 5 6 
#
# 1 175.8711 63.5555 92.7782 0.0000 0.0000 0.0000
# 2 63.5555 160.0032 59.1557 0.0000 0.0000 0.0000
# 3 92.7782 59.1557 109.0344 0.0000 0.0000 0.0000
# 4 0.0000 0.0000 0.0000 11.1889 0.0000 0.0000
# 5 0.0000 0.0000 0.0000 0.0000 28.9078 0.0000
# 6 0.0000 0.0000 0.0000 0.0000 0.0000 8.1266
#
#
#
# Elastic Compliance Matrix: (Units=1/GPa)
#
#
# Indices 1 2 3 4 5 6 
#
# 1 0.010465 -0.001082 -0.008318 0.000000 0.000000 0.000000
# 2 -0.001082 0.007930 -0.003382 0.000000 0.000000 0.000000
# 3 -0.008318 -0.003382 0.018084 0.000000 0.000000 0.000000
# 4 0.000000 0.000000 0.000000 0.089374 0.000000 0.000000
# 5 0.000000 0.000000 0.000000 0.000000 0.034593 0.000000
# 6 0.000000 0.000000 0.000000 0.000000 0.000000 0.123053
#
#
# Mechanical properties :
#
#
# Convention : Reuss Voigt Hill
#
# Bulk Modulus (GPa) = 91.60890 97.32084 94.46487
# Shear Modulus (GPa) = 15.98978 24.93928 20.46453
#
# Velocity S-wave (km/s) = 2.95568 3.69129 3.34377
# Velocity P-wave (km/s) = 7.85485 8.44624 8.15591
#
# Compressibility (1/GPa) = 0.01091597
#
# Stress axis : x y z
#
# Youngs Moduli (GPa) = 95.55913 126.10580 55.29774
#
# Poissons Ratio (x) = 0.13639 0.45995
# Poissons Ratio (y) = 0.10335 0.18702
# Poissons Ratio (z) = 0.79484 0.42649
#
# Static dielectric constant tensor:
#      x y z
#    x 1.641930 0.000000 0.000000 
#    y 0.000000 1.645410 0.000000 
#    z 0.000000 0.000000 1.605700 
# 
# From -- ./inp_files/15860.got.cif
#   From: 2010.05.17/outbox.cif.g08.bks.cpg/sg67_8_cif.got.tgz:15860.got - 2010.06.03 18:28:57.
