data_PCOD9502818
_publ_section_title
;
Structure prediction by ZEFSAII (Michael W. Deem and Ramdas Pophale) SiO2 
 PCOD9502818
Probable space group: C M M A
;
_chemical_formula_sum "Si O2"
_cell_formula_units_Z 88
_cell_length_a 28.447431
_cell_length_b 8.530067
_cell_length_c 19.571073
_cell_angle_alpha 90.000000
_cell_angle_beta 90.000000
_cell_angle_gamma 90.000000
_cell_volume 4749.087069
_symmetry_space_group_name_H-M "C M M A"
_symmetry_group_IT_number 67
_symmetry_cell_setting 'orthorhombic'
loop_
_space_group_symop_operation_xyz
x,y,z
-x,1/2-y,z
x,-y,-z
-x,1/2+y,-z
-x,-y,-z
x,1/2+y,-z
-x,y,z
x,1/2-y,z
1/2+x,1/2+y,z
1/2-x,-y,z
1/2+x,1/2-y,-z
1/2-x,y,-z
1/2-x,1/2-y,-z
1/2+x,y,-z
1/2-x,1/2+y,z
1/2+x,-y,z
loop_
_atom_site_type_symbol
_atom_site_label
_atom_site_fract_x
_atom_site_fract_y
_atom_site_fract_z
Si Si1 0.801304 0.436000 0.839067
Si Si2 0.052149 0.059548 0.203872
Si Si3 0.895912 0.060588 0.423156
Si Si4 0.354868 0.939774 0.286394
Si Si5 0.000000 0.061043 0.422583
Si Si6 0.110515 0.062467 0.076029
O O1 0.801732 0.250000 0.843536
O O2 0.750000 0.500000 0.856459
O O3 0.815526 0.488550 0.762318
O O4 0.841349 0.503606 0.889057
O O5 0.050642 0.250000 0.207236
O O6 0.095157 0.013375 0.252391
O O7 0.068493 0.015122 0.127501
O O8 0.000000 0.002006 0.221264
O O9 0.896030 0.250000 0.425879
O O10 0.858445 0.012887 0.365626
O O11 0.948446 0.011239 0.397342
O O12 0.888532 0.000000 0.500000
O O13 0.351257 0.750000 0.282598
O O14 0.000000 0.250000 0.419178
O O15 0.000000 0.000000 0.500000
O O16 0.111924 0.250000 0.074844
O O17 0.105023 0.000000 0.000000
#
# Coordination Sequence:
#
# PCOD9502818 Si02
#       6
#    16  16  16  16   8  16
#     4  11  22  38  59  80 103 131 165 209 262 316
#     4   8  15  28  48  73 102 139 180 216 250 292
#     4   9  17  28  45  70 102 139 177 217 258 303
#     4   9  18  32  51  76 104 136 176 218 259 308
#     4   8  14  24  38  62  94 132 171 206 245 290
#     4  10  20  35  54  80 110 139 174 212 253 301
#
# _framework density 18.529878
#
# number of rings (size 3 to 8) (size 9 to 14) (size 15 to 20)
#    0.000    2.727    0.000    3.273    1.273    1.455 
#    0.000    1.818    0.000   13.636    0.000    3.818 
#    0.000    0.000    0.000    0.000    0.000    0.000 
#
# Total GULP energy -245181.972672 kJ/mol
# GULP energy per Si atom -5572.317561 kJ/mol
# Density = 1.848770 g / cm^3
# Si number density = 18.529878 Si / 1000 Ang^3
#
#
#
# Elastic Constant Matrix: (Units=GPa)
#
#
# Indices 1 2 3 4 5 6 
#
# 1 36.0270 1.5200 -17.4563 0.0000 0.0000 0.0000
# 2 1.5200 36.8277 9.7929 0.0000 0.0000 0.0000
# 3 -17.4563 9.7929 69.3108 0.0000 0.0000 0.0000
# 4 0.0000 0.0000 0.0000 24.2412 0.0000 0.0000
# 5 0.0000 0.0000 0.0000 0.0000 17.9700 0.0000
# 6 0.0000 0.0000 0.0000 0.0000 0.0000 16.2116
#
#
#
# Elastic Compliance Matrix: (Units=1/GPa)
#
#
# Indices 1 2 3 4 5 6 
#
# 1 0.032070 -0.003607 0.008586 0.000000 0.000000 0.000000
# 2 -0.003607 0.028619 -0.004952 0.000000 0.000000 0.000000
# 3 0.008586 -0.004952 0.017290 0.000000 0.000000 0.000000
# 4 0.000000 0.000000 0.000000 0.041252 0.000000 0.000000
# 5 0.000000 0.000000 0.000000 0.000000 0.055648 0.000000
# 6 0.000000 0.000000 0.000000 0.000000 0.000000 0.061684
#
#
# Mechanical properties :
#
#
# Convention : Reuss Voigt Hill
#
# Bulk Modulus (GPa) = 12.81496 14.43100 13.62298
# Shear Modulus (GPa) = 19.04622 21.57183 20.30902
#
# Velocity S-wave (km/s) = 3.20951 3.41569 3.31420
# Velocity P-wave (km/s) = 4.54593 4.83330 4.69181
#
# Compressibility (1/GPa) = 0.07803382
#
# Stress axis : x y z
#
# Youngs Moduli (GPa) = 31.18223 34.94164 57.83699
#
# Poissons Ratio (x) = 0.12603 -0.49662
# Poissons Ratio (y) = 0.11247 0.28641
# Poissons Ratio (z) = -0.26775 0.17303
#
# Static dielectric constant tensor:
#      x y z
#    x 1.645070 0.000000 0.000000 
#    y 0.000000 1.634470 0.000000 
#    z 0.000000 0.000000 1.650830 
# 
# From -- ./inp_files/36140.got.cif
#   From: 2010.05.17/outbox.cif.g08.bks.cpg/sg67_19_cif.got.tgz:36140.got - 2010.06.03 18:28:57.
