data_PCOD9502074
_publ_section_title
;
Structure prediction by ZEFSAII (Michael W. Deem and Ramdas Pophale) SiO2 
 PCOD9502074
Probable space group: C M M A
;
_chemical_formula_sum "Si O2"
_cell_formula_units_Z 128
_cell_length_a 17.466506
_cell_length_b 25.252723
_cell_length_c 18.714791
_cell_angle_alpha 90.000000
_cell_angle_beta 90.000000
_cell_angle_gamma 90.000000
_cell_volume 8254.660834
_symmetry_space_group_name_H-M "C M M A"
_symmetry_group_IT_number 67
_symmetry_cell_setting 'orthorhombic'
loop_
_space_group_symop_operation_xyz
x,y,z
-x,1/2-y,z
x,-y,-z
-x,1/2+y,-z
-x,-y,-z
x,1/2+y,-z
-x,y,z
x,1/2-y,z
1/2+x,1/2+y,z
1/2-x,-y,z
1/2+x,1/2-y,-z
1/2-x,y,-z
1/2-x,1/2-y,-z
1/2+x,y,-z
1/2-x,1/2+y,z
1/2+x,-y,z
loop_
_atom_site_type_symbol
_atom_site_label
_atom_site_fract_x
_atom_site_fract_y
_atom_site_fract_z
Si Si1 0.907723 0.811535 0.923335
Si Si2 0.842357 0.495621 0.885075
Si Si3 0.911742 0.493405 0.729091
Si Si4 0.134790 0.899852 0.653196
Si Si5 0.092165 0.689194 0.761330
Si Si6 0.585696 0.935422 0.502557
Si Si7 0.793766 0.054916 0.618476
Si Si8 0.341683 0.588161 0.004348
O O1 0.884912 0.750000 0.936154
O O2 0.882998 0.826629 0.841986
O O3 0.876683 0.854882 0.978445
O O4 0.000000 0.812767 0.924964
O O5 0.750000 0.500000 0.874348
O O6 0.885166 0.492711 0.810558
O O7 0.862596 0.547548 0.931561
O O8 0.862142 0.444013 0.932549
O O9 0.900754 0.552898 0.700284
O O10 0.853445 0.459628 0.680790
O O11 0.000000 0.477473 0.720230
O O12 0.119156 0.846941 0.696614
O O13 0.099432 0.909258 0.574596
O O14 0.225487 0.908514 0.645062
O O15 0.115598 0.750000 0.751289
O O16 0.000000 0.687305 0.762023
O O17 0.500000 0.921362 0.528110
O O18 0.655794 0.922098 0.554442
O O19 0.587350 0.000000 0.500000
O O20 0.750000 0.000000 0.596966
O O21 0.250000 0.593106 0.000000
#
# Coordination Sequence:
#
# PCOD9502074 Si02
#       8
#    16  16  16  16  16  16  16  16
#     4   9  18  32  50  70  93 120 151 195 244 284
#     4   9  18  32  45  64  93 127 154 188 232 281
#     4  11  20  29  43  67  96 126 161 190 225 281
#     4  11  20  29  48  71  94 129 159 189 237 287
#     4   9  18  33  51  73  98 121 153 198 244 286
#     4  11  19  29  45  67  96 127 162 197 229 273
#     4  10  20  30  44  63  95 128 156 190 232 273
#     4   9  18  31  48  66  92 122 155 189 231 285
#
# _framework density 15.50639
#
# number of rings (size 3 to 8) (size 9 to 14) (size 15 to 20)
#    0.000    2.125    2.500    5.250    0.000    3.250 
#    0.000    1.250    0.000    1.500    0.000    0.000 
#    0.000    1.500    0.000    0.250    0.000    0.000 
#
# Total GULP energy -356701.164437 kJ/mol
# GULP energy per Si atom -5573.455694 kJ/mol
# Density = 1.547110 g / cm^3
# Si number density = 15.506390 Si / 1000 Ang^3
#
#
#
# Elastic Constant Matrix: (Units=GPa)
#
#
# Indices 1 2 3 4 5 6 
#
# 1 74.5833 22.6634 38.0183 0.0000 0.0000 0.0000
# 2 22.6634 63.0738 41.8696 0.0000 0.0000 0.0000
# 3 38.0183 41.8696 102.5334 0.0000 0.0000 0.0000
# 4 0.0000 0.0000 0.0000 22.4414 0.0000 0.0000
# 5 0.0000 0.0000 0.0000 0.0000 18.8517 0.0000
# 6 0.0000 0.0000 0.0000 0.0000 0.0000 -5.1536
#
#
#
# Elastic Compliance Matrix: (Units=1/GPa)
#
#
# Indices 1 2 3 4 5 6 
#
# 1 0.016841 -0.002615 -0.005177 0.000000 0.000000 0.000000
# 2 -0.002615 0.022156 -0.008078 0.000000 0.000000 0.000000
# 3 -0.005177 -0.008078 0.014971 0.000000 0.000000 0.000000
# 4 0.000000 0.000000 0.000000 0.044560 0.000000 0.000000
# 5 0.000000 0.000000 0.000000 0.000000 0.053046 0.000000
# 6 0.000000 0.000000 0.000000 0.000000 0.000000 -0.194039
#
#
# Mechanical properties :
#
#
# Convention : Reuss Voigt Hill
#
# Bulk Modulus (GPa) = 44.98556 49.47701 47.23129
# Shear Modulus (GPa) = -1508.06636 16.40386 -745.83125
#
# Velocity S-wave (km/s) = -31.21949 3.25603 -21.95512
# Velocity P-wave (km/s) = 35.64362 6.79061 24.74223
#
# Compressibility (1/GPa) = 0.02222935
#
# Stress axis : x y z
#
# Youngs Moduli (GPa) = 59.37814 45.13385 66.79562
#
# Poissons Ratio (x) = 0.11802 0.34578
# Poissons Ratio (y) = 0.15527 0.53957
# Poissons Ratio (z) = 0.30739 0.36459
#
# Static dielectric constant tensor:
#      x y z
#    x 1.524830 0.000000 0.000000 
#    y 0.000000 1.512100 0.000000 
#    z 0.000000 0.000000 1.529090 
# 
# From -- ./inp_files/34552.got.cif
#   From: 2010.05.17/outbox.cif.g08.bks.cpg/sg67_18_cif.got.tgz:34552.got - 2010.06.03 18:28:57.
