data_PCOD9502879
_publ_section_title
;
Structure prediction by ZEFSAII (Michael W. Deem and Ramdas Pophale) SiO2 
 PCOD9502879
Probable space group: C M M A
;
_chemical_formula_sum "Si O2"
_cell_formula_units_Z 80
_cell_length_a 8.493221
_cell_length_b 19.810523
_cell_length_c 26.042089
_cell_angle_alpha 90.000000
_cell_angle_beta 90.000000
_cell_angle_gamma 90.000000
_cell_volume 4381.715590
_symmetry_space_group_name_H-M "C M M A"
_symmetry_group_IT_number 67
_symmetry_cell_setting 'orthorhombic'
loop_
_space_group_symop_operation_xyz
x,y,z
-x,1/2-y,z
x,-y,-z
-x,1/2+y,-z
-x,-y,-z
x,1/2+y,-z
-x,y,z
x,1/2-y,z
1/2+x,1/2+y,z
1/2-x,-y,z
1/2+x,1/2-y,-z
1/2-x,y,-z
1/2-x,1/2-y,-z
1/2+x,y,-z
1/2-x,1/2+y,z
1/2+x,-y,z
loop_
_atom_site_type_symbol
_atom_site_label
_atom_site_fract_x
_atom_site_fract_y
_atom_site_fract_z
Si Si1 0.809912 0.425363 0.854163
Si Si2 0.688947 0.925723 0.442616
Si Si3 0.809830 0.672133 0.055237
Si Si4 0.809674 0.172379 0.351489
Si Si5 0.811125 0.424858 0.736723
O O1 0.750000 0.500000 0.866668
O O2 0.755137 0.372635 0.896960
O O3 0.760560 0.409966 0.795556
O O4 0.000000 0.425587 0.854551
O O5 0.500000 0.927869 0.443720
O O6 0.750000 0.912146 0.500000
O O7 0.740751 0.869260 0.402033
O O8 0.750000 0.000000 0.427180
O O9 0.758395 0.750000 0.060983
O O10 0.000000 0.671244 0.054632
O O11 0.750000 0.647244 0.000000
O O12 0.755223 0.250000 0.351570
O O13 0.752081 0.130518 0.302453
O O14 0.000000 0.172805 0.351193
O O15 0.750000 0.500000 0.723586
O O16 0.000000 0.425775 0.734806
#
# Coordination Sequence:
#
# PCOD9502879 Si02
#       5
#    16  16  16  16  16
#     4   9  19  34  52  75 102 131 165 209 256 300
#     4  10  20  35  56  79 104 136 174 214 256 304
#     4   9  18  33  51  71  98 132 168 206 249 298
#     4  10  22  38  54  77 110 142 172 213 263 308
#     4  10  20  35  56  79 103 136 176 215 258 310
#
# _framework density 18.25769
#
# number of rings (size 3 to 8) (size 9 to 14) (size 15 to 20)
#    0.000    2.400    0.000    2.400    0.000    6.800 
#    0.000    4.000    0.000    2.400    0.000    0.000 
#    0.000    0.000    0.000    0.000    0.000    0.000 
#
# Total GULP energy -223232.105004 kJ/mol
# GULP energy per Si atom -5580.802625 kJ/mol
# Density = 1.821613 g / cm^3
# Si number density = 18.257690 Si / 1000 Ang^3
#
#
#
# Elastic Constant Matrix: (Units=GPa)
#
#
# Indices 1 2 3 4 5 6 
#
# 1 14.5378 25.1616 23.6911 0.0000 0.0000 0.0000
# 2 25.1616 159.3812 126.9725 0.0000 0.0000 0.0000
# 3 23.6911 126.9725 143.0942 0.0000 0.0000 0.0000
# 4 0.0000 0.0000 0.0000 62.1508 0.0000 0.0000
# 5 0.0000 0.0000 0.0000 0.0000 21.0910 0.0000
# 6 0.0000 0.0000 0.0000 0.0000 0.0000 23.1763
#
#
#
# Elastic Compliance Matrix: (Units=1/GPa)
#
#
# Indices 1 2 3 4 5 6 
#
# 1 0.097574 -0.008647 -0.008482 0.000000 0.000000 0.000000
# 2 -0.008647 0.022173 -0.018243 0.000000 0.000000 0.000000
# 3 -0.008482 -0.018243 0.024581 0.000000 0.000000 0.000000
# 4 0.000000 0.000000 0.000000 0.016090 0.000000 0.000000
# 5 0.000000 0.000000 0.000000 0.000000 0.047414 0.000000
# 6 0.000000 0.000000 0.000000 0.000000 0.000000 0.043148
#
#
# Mechanical properties :
#
#
# Convention : Reuss Voigt Hill
#
# Bulk Modulus (GPa) = 13.58998 74.29597 43.94298
# Shear Modulus (GPa) = 14.44036 30.69613 22.56824
#
# Velocity S-wave (km/s) = 2.81538 4.10478 3.51963
# Velocity P-wave (km/s) = 4.24595 7.95279 6.37476
#
# Compressibility (1/GPa) = 0.07358360
#
# Stress axis : x y z
#
# Youngs Moduli (GPa) = 10.24859 45.09967 40.68225
#
# Poissons Ratio (x) = 0.38997 0.34507
# Poissons Ratio (y) = 0.08862 0.74218
# Poissons Ratio (z) = 0.08693 0.82277
#
# Static dielectric constant tensor:
#      x y z
#    x 1.628550 0.000000 0.000000 
#    y 0.000000 1.603600 0.000000 
#    z 0.000000 0.000000 1.624490 
# 
# From -- ./inp_files/43212.got.cif
#   From: 2010.05.17/outbox.cif.g08.bks.cpg/sg67_22_cif.got.tgz:43212.got - 2010.06.03 18:28:57.
