data_PCOD9502771
_publ_section_title
;
Structure prediction by ZEFSAII (Michael W. Deem and Ramdas Pophale) SiO2 
 PCOD9502771
Probable space group: C M M A
;
_chemical_formula_sum "Si O2"
_cell_formula_units_Z 96
_cell_length_a 18.016030
_cell_length_b 24.791152
_cell_length_c 11.584590
_cell_angle_alpha 90.000000
_cell_angle_beta 90.000000
_cell_angle_gamma 90.000000
_cell_volume 5174.119709
_symmetry_space_group_name_H-M "C M M A"
_symmetry_group_IT_number 67
_symmetry_cell_setting 'orthorhombic'
loop_
_space_group_symop_operation_xyz
x,y,z
-x,1/2-y,z
x,-y,-z
-x,1/2+y,-z
-x,-y,-z
x,1/2+y,-z
-x,y,z
x,1/2-y,z
1/2+x,1/2+y,z
1/2-x,-y,z
1/2+x,1/2-y,-z
1/2-x,y,-z
1/2-x,1/2-y,-z
1/2+x,y,-z
1/2-x,1/2+y,z
1/2+x,-y,z
loop_
_atom_site_type_symbol
_atom_site_label
_atom_site_fract_x
_atom_site_fract_y
_atom_site_fract_z
Si Si1 0.280210 0.059661 0.826278
Si Si2 0.676836 0.057452 0.561065
Si Si3 0.163791 0.750000 0.466755
Si Si4 0.634908 0.131426 0.188393
Si Si5 0.086164 0.356827 0.546036
Si Si6 0.919957 0.564203 0.982617
Si Si7 0.091403 0.750000 0.209673
O O1 0.308056 0.052092 0.695551
O O2 0.216546 0.105340 0.825768
O O3 0.348313 0.077264 0.906277
O O4 0.250000 0.000000 0.862293
O O5 0.750000 0.083310 0.500000
O O6 0.605956 0.092755 0.532646
O O7 0.668779 0.000000 0.500000
O O8 0.250000 0.750000 0.500000
O O9 0.128349 0.694279 0.507836
O O10 0.135467 0.750000 0.332672
O O11 0.613752 0.129592 0.323908
O O12 0.618528 0.193716 0.153760
O O13 0.586645 0.093522 0.105602
O O14 0.000000 0.344380 0.553807
O O15 0.000000 0.578399 0.929419
O O16 0.918297 0.500000 0.000000
O O17 0.000000 0.750000 0.221999
#
# Coordination Sequence:
#
# PCOD9502771 Si02
#       7
#    16  16   8  16  16  16   8
#     4  12  22  39  62  87 126 161 206 255 306 369
#     4  11  21  38  57  85 120 166 200 240 297 366
#     4  10  20  34  60  86 120 156 202 247 303 353
#     4  11  21  39  66  90 120 159 206 255 308 358
#     4  11  22  37  60  90 122 156 203 255 303 355
#     4  11  24  39  60  89 122 160 202 253 314 364
#     4  10  22  40  63  94 124 159 208 262 312 365
#
# _framework density 18.553879999999999
#
# number of rings (size 3 to 8) (size 9 to 14) (size 15 to 20)
#    0.000    1.000    5.000    4.250    2.333    1.000 
#    0.000    1.667    0.000    0.000    0.000    0.000 
#    0.000    0.000    0.000    0.000    0.000    0.000 
#
# Total GULP energy -267715.939370 kJ/mol
# GULP energy per Si atom -5577.415404 kJ/mol
# Density = 1.851165 g / cm^3
# Si number density = 18.553880 Si / 1000 Ang^3
#
#
#
# Elastic Constant Matrix: (Units=GPa)
#
#
# Indices 1 2 3 4 5 6 
#
# 1 170.0999 53.8019 31.8678 0.0000 0.0000 0.0000
# 2 53.8019 127.0632 24.3583 0.0000 0.0000 0.0000
# 3 31.8678 24.3583 63.6065 0.0000 0.0000 0.0000
# 4 0.0000 0.0000 0.0000 19.9766 0.0000 0.0000
# 5 0.0000 0.0000 0.0000 0.0000 17.5487 0.0000
# 6 0.0000 0.0000 0.0000 0.0000 0.0000 117.2843
#
#
#
# Elastic Compliance Matrix: (Units=1/GPa)
#
#
# Indices 1 2 3 4 5 6 
#
# 1 0.007172 -0.002534 -0.002623 0.000000 0.000000 0.000000
# 2 -0.002534 0.009389 -0.002326 0.000000 0.000000 0.000000
# 3 -0.002623 -0.002326 0.017926 0.000000 0.000000 0.000000
# 4 0.000000 0.000000 0.000000 0.050059 0.000000 0.000000
# 5 0.000000 0.000000 0.000000 0.000000 0.056984 0.000000
# 6 0.000000 0.000000 0.000000 0.000000 0.000000 0.008526
#
#
# Mechanical properties :
#
#
# Convention : Reuss Voigt Hill
#
# Bulk Modulus (GPa) = 51.22488 64.53618 57.88053
# Shear Modulus (GPa) = 29.14961 47.67803 38.41382
#
# Velocity S-wave (km/s) = 3.96798 5.07473 4.55509
# Velocity P-wave (km/s) = 6.97580 8.31840 7.67651
#
# Compressibility (1/GPa) = 0.01952176
#
# Stress axis : x y z
#
# Youngs Moduli (GPa) = 139.43630 106.50851 55.78350
#
# Poissons Ratio (x) = 0.26988 0.14631
# Poissons Ratio (y) = 0.35332 0.12975
# Poissons Ratio (z) = 0.36571 0.24774
#
# Static dielectric constant tensor:
#      x y z
#    x 1.689820 0.000000 0.000000 
#    y 0.000000 1.666700 0.000000 
#    z 0.000000 0.000000 1.630150 
# 
# From -- ./inp_files/19686.got.cif
#   From: 2010.05.17/outbox.cif.g08.bks.cpg/sg67_10_cif.got.tgz:19686.got - 2010.06.03 18:28:57.
