data_PCOD9502470
_publ_section_title
;
Structure prediction by ZEFSAII (Michael W. Deem and Ramdas Pophale) SiO2 
 PCOD9502470
Probable space group: C M M A
;
_chemical_formula_sum "Si O2"
_cell_formula_units_Z 72
_cell_length_a 22.457619
_cell_length_b 9.818385
_cell_length_c 18.647418
_cell_angle_alpha 90.000000
_cell_angle_beta 90.000000
_cell_angle_gamma 90.000000
_cell_volume 4111.709974
_symmetry_space_group_name_H-M "C M M A"
_symmetry_group_IT_number 67
_symmetry_cell_setting 'orthorhombic'
loop_
_space_group_symop_operation_xyz
x,y,z
-x,1/2-y,z
x,-y,-z
-x,1/2+y,-z
-x,-y,-z
x,1/2+y,-z
-x,y,z
x,1/2-y,z
1/2+x,1/2+y,z
1/2-x,-y,z
1/2+x,1/2-y,-z
1/2-x,y,-z
1/2-x,1/2-y,-z
1/2+x,y,-z
1/2-x,1/2+y,z
1/2+x,-y,z
loop_
_atom_site_type_symbol
_atom_site_label
_atom_site_fract_x
_atom_site_fract_y
_atom_site_fract_z
Si Si1 0.571514 0.408125 0.703251
Si Si2 0.618025 0.505096 0.854588
Si Si3 0.500000 0.402344 0.067814
Si Si4 0.166657 0.250000 0.062723
Si Si5 0.427594 0.907804 0.567294
Si Si6 0.804011 0.250000 0.895409
O O1 0.500000 0.420430 0.715320
O O2 0.582594 0.250000 0.683360
O O3 0.605072 0.445608 0.776233
O O4 0.588175 0.512136 0.639996
O O5 0.557961 0.573651 0.883866
O O6 0.634148 0.383356 0.908407
O O7 0.670230 0.616395 0.857243
O O8 0.500000 0.250000 0.039531
O O9 0.500000 0.500000 0.000000
O O10 0.233238 0.250000 0.095477
O O11 0.171065 0.250000 0.977036
O O12 0.500000 0.904311 0.564762
O O13 0.407571 0.750000 0.565000
O O14 0.407915 0.000000 0.500000
#
# Coordination Sequence:
#
# PCOD9502470 Si02
#       6
#    16  16   8   8  16   8
#     4  10  20  34  50  76 115 154 186 225 280 340
#     4  12  23  38  58  83 114 147 190 238 291 350
#     4  12  26  38  56  82 113 148 185 232 290 358
#     4  11  24  43  61  79 106 148 198 248 301 336
#     4   9  17  29  49  75 108 150 190 224 264 328
#     4  11  24  41  61  81 106 146 198 254 293 342
#
# _framework density 17.510963
#
# number of rings (size 3 to 8) (size 9 to 14) (size 15 to 20)
#    0.000    1.333    3.333    3.333    3.111    4.444 
#    0.000    0.000    0.000    0.000    0.000    0.000 
#    0.000    5.333    0.000    0.000    0.000    0.000 
#
# Total GULP energy -201108.256512 kJ/mol
# GULP energy per Si atom -5586.340459 kJ/mol
# Density = 1.747111 g / cm^3
# Si number density = 17.510963 Si / 1000 Ang^3
#
#
#
# Elastic Constant Matrix: (Units=GPa)
#
#
# Indices 1 2 3 4 5 6 
#
# 1 44.2554 20.0813 12.1926 0.0000 0.0000 0.0000
# 2 20.0813 151.1295 43.8097 0.0000 0.0000 0.0000
# 3 12.1926 43.8097 82.5313 0.0000 0.0000 0.0000
# 4 0.0000 0.0000 0.0000 34.4686 0.0000 0.0000
# 5 0.0000 0.0000 0.0000 0.0000 8.6238 0.0000
# 6 0.0000 0.0000 0.0000 0.0000 0.0000 -17.6223
#
#
#
# Elastic Compliance Matrix: (Units=1/GPa)
#
#
# Indices 1 2 3 4 5 6 
#
# 1 0.024387 -0.002595 -0.002225 0.000000 0.000000 0.000000
# 2 -0.002595 0.008096 -0.003914 0.000000 0.000000 0.000000
# 3 -0.002225 -0.003914 0.014523 0.000000 0.000000 0.000000
# 4 0.000000 0.000000 0.000000 0.029012 0.000000 0.000000
# 5 0.000000 0.000000 0.000000 0.000000 0.115959 0.000000
# 6 0.000000 0.000000 0.000000 0.000000 0.000000 -0.056746
#
#
# Mechanical properties :
#
#
# Convention : Reuss Voigt Hill
#
# Bulk Modulus (GPa) = 33.85606 47.78704 40.82155
# Shear Modulus (GPa) = 30.76056 18.54952 24.65504
#
# Velocity S-wave (km/s) = 4.19578 3.25823 3.75637
# Velocity P-wave (km/s) = 6.54591 6.44235 6.49434
#
# Compressibility (1/GPa) = 0.02953681
#
# Stress axis : x y z
#
# Youngs Moduli (GPa) = 41.00577 123.51177 68.85558
#
# Poissons Ratio (x) = 0.32056 0.15321
# Poissons Ratio (y) = 0.10643 0.26952
# Poissons Ratio (z) = 0.09124 0.48347
#
# Static dielectric constant tensor:
#      x y z
#    x 1.575270 0.000000 0.000000 
#    y 0.000000 1.611660 0.000000 
#    z 0.000000 0.000000 1.572860 
# 
# From -- ./inp_files/31989.got.cif
#   From: 2010.05.17/outbox.cif.g08.bks.cpg/sg67_16_cif.got.tgz:31989.got - 2010.06.03 18:28:57.
