data_PCOD9502020
_publ_section_title
;
Structure prediction by ZEFSAII (Michael W. Deem and Ramdas Pophale) SiO2 
 PCOD9502020
Probable space group: C M M A
;
_chemical_formula_sum "Si O2"
_cell_formula_units_Z 112
_cell_length_a 13.980497
_cell_length_b 14.749542
_cell_length_c 25.723409
_cell_angle_alpha 90.000000
_cell_angle_beta 90.000000
_cell_angle_gamma 90.000000
_cell_volume 5304.319416
_symmetry_space_group_name_H-M "C M M A"
_symmetry_group_IT_number 67
_symmetry_cell_setting 'orthorhombic'
loop_
_space_group_symop_operation_xyz
x,y,z
-x,1/2-y,z
x,-y,-z
-x,1/2+y,-z
-x,-y,-z
x,1/2+y,-z
-x,y,z
x,1/2-y,z
1/2+x,1/2+y,z
1/2-x,-y,z
1/2+x,1/2-y,-z
1/2-x,y,-z
1/2-x,1/2-y,-z
1/2+x,y,-z
1/2-x,1/2+y,z
1/2+x,-y,z
loop_
_atom_site_type_symbol
_atom_site_label
_atom_site_fract_x
_atom_site_fract_y
_atom_site_fract_z
Si Si1 0.889192 0.518033 0.561250
Si Si2 0.221400 0.852705 0.396840
Si Si3 0.211466 0.099577 0.920884
Si Si4 0.385965 0.649005 0.198051
Si Si5 0.386394 0.062116 0.180355
Si Si6 0.895538 0.852917 0.978311
Si Si7 0.734976 0.394940 0.280008
O O1 0.873664 0.500000 0.500000
O O2 0.862231 0.421754 0.586866
O O3 0.817356 0.594859 0.583339
O O4 0.000000 0.541715 0.570168
O O5 0.215636 0.750000 0.417663
O O6 0.217055 0.848291 0.334384
O O7 0.159523 0.118729 0.867014
O O8 0.308481 0.149190 0.937824
O O9 0.250000 0.000000 0.916580
O O10 0.139004 0.098081 0.969581
O O11 0.500000 0.647555 0.204220
O O12 0.363764 0.750000 0.174250
O O13 0.362618 0.547355 0.175172
O O14 0.328514 0.644460 0.251857
O O15 0.500000 0.069167 0.178758
O O16 0.344565 0.100322 0.234378
O O17 0.904871 0.750000 0.996099
O O18 0.000000 0.883710 0.958374
O O19 0.750000 0.500000 0.293805
#
# Coordination Sequence:
#
# PCOD9502020 Si02
#       7
#    16  16  16  16  16  16  16
#     4  10  23  43  65  94 132 174 224 280 335 393
#     4  11  22  39  65  96 131 173 222 274 332 395
#     4  11  21  37  62  90 119 152 193 240 293 360
#     4   9  18  34  57  85 117 153 197 248 296 349
#     4  10  22  39  61  87 119 163 206 245 301 368
#     4  10  22  41  65  90 115 147 191 246 304 361
#     4  10  19  37  59  89 126 166 204 253 307 370
#
# _framework density 21.114867
#
# number of rings (size 3 to 8) (size 9 to 14) (size 15 to 20)
#    0.000    1.857    1.429    4.714    0.000    4.571 
#    0.000    9.286    0.000   11.571    0.000    0.000 
#    0.000    0.000    0.000    0.000    0.000    0.000 
#
# Total GULP energy -312196.559387 kJ/mol
# GULP energy per Si atom -5574.938560 kJ/mol
# Density = 2.106681 g / cm^3
# Si number density = 21.114867 Si / 1000 Ang^3
#
#
#
# Elastic Constant Matrix: (Units=GPa)
#
#
# Indices 1 2 3 4 5 6 
#
# 1 80.4389 21.0160 41.2848 0.0000 0.0000 0.0000
# 2 21.0160 70.4598 30.0984 0.0000 0.0000 0.0000
# 3 41.2848 30.0984 119.7338 0.0000 0.0000 0.0000
# 4 0.0000 0.0000 0.0000 0.4597 0.0000 0.0000
# 5 0.0000 0.0000 0.0000 0.0000 10.3494 0.0000
# 6 0.0000 0.0000 0.0000 0.0000 0.0000 21.2769
#
#
#
# Elastic Compliance Matrix: (Units=1/GPa)
#
#
# Indices 1 2 3 4 5 6 
#
# 1 0.015527 -0.002626 -0.004694 0.000000 0.000000 0.000000
# 2 -0.002626 0.016344 -0.003203 0.000000 0.000000 0.000000
# 3 -0.004694 -0.003203 0.010775 0.000000 0.000000 0.000000
# 4 0.000000 0.000000 0.000000 2.175386 0.000000 0.000000
# 5 0.000000 0.000000 0.000000 0.000000 0.096624 0.000000
# 6 0.000000 0.000000 0.000000 0.000000 0.000000 0.046999
#
#
# Mechanical properties :
#
#
# Convention : Reuss Voigt Hill
#
# Bulk Modulus (GPa) = 46.29475 50.60344 48.44910
# Shear Modulus (GPa) = 2.09214 18.29942 10.19578
#
# Velocity S-wave (km/s) = 0.99649 2.94710 2.19982
# Velocity P-wave (km/s) = 4.82667 5.96644 5.42656
#
# Compressibility (1/GPa) = 0.02160072
#
# Stress axis : x y z
#
# Youngs Moduli (GPa) = 64.40442 61.18443 92.80414
#
# Poissons Ratio (x) = 0.16068 0.43558
# Poissons Ratio (y) = 0.16914 0.29725
# Poissons Ratio (z) = 0.30229 0.19597
#
# Static dielectric constant tensor:
#      x y z
#    x 1.799330 0.000000 0.000000 
#    y 0.000000 1.249770 0.000000 
#    z 0.000000 0.000000 1.769920 
# 
# From -- ./inp_files/41910.got.cif
#   From: 2010.05.17/outbox.cif.g08.bks.cpg/sg67_21_cif.got.tgz:41910.got - 2010.06.03 18:28:57.
