data_PCOD9502216
_publ_section_title
;
Structure prediction by ZEFSAII (Michael W. Deem and Ramdas Pophale) SiO2 
 PCOD9502216
Probable space group: C M M A
;
_chemical_formula_sum "Si O2"
_cell_formula_units_Z 64
_cell_length_a 7.972767
_cell_length_b 14.361239
_cell_length_c 25.093506
_cell_angle_alpha 90.000000
_cell_angle_beta 90.000000
_cell_angle_gamma 90.000000
_cell_volume 2873.176635
_symmetry_space_group_name_H-M "C M M A"
_symmetry_group_IT_number 67
_symmetry_cell_setting 'orthorhombic'
loop_
_space_group_symop_operation_xyz
x,y,z
-x,1/2-y,z
x,-y,-z
-x,1/2+y,-z
-x,-y,-z
x,1/2+y,-z
-x,y,z
x,1/2-y,z
1/2+x,1/2+y,z
1/2-x,-y,z
1/2+x,1/2-y,-z
1/2-x,y,-z
1/2-x,1/2-y,-z
1/2+x,y,-z
1/2-x,1/2+y,z
1/2+x,-y,z
loop_
_atom_site_type_symbol
_atom_site_label
_atom_site_fract_x
_atom_site_fract_y
_atom_site_fract_z
Si Si1 0.809667 0.357982 0.324015
Si Si2 0.809392 0.636455 0.940619
Si Si3 0.500000 0.363896 0.132457
Si Si4 0.500000 0.364699 0.255143
Si Si5 0.698085 0.607585 0.442859
O O1 0.826628 0.250000 0.309037
O O2 0.666919 0.397480 0.285837
O O3 0.743050 0.358768 0.385108
O O4 0.000000 0.398054 0.322185
O O5 0.812423 0.750000 0.939422
O O6 0.667559 0.606639 0.898902
O O7 0.000000 0.604949 0.930407
O O8 0.750000 0.610522 0.000000
O O9 0.500000 0.250000 0.131927
O O10 0.500000 0.393547 0.193720
O O11 0.500000 0.250000 0.256798
O O12 0.500000 0.617926 0.441181
O O13 0.750000 0.500000 0.444192
O O14 0.750000 0.648011 0.500000
#
# Coordination Sequence:
#
# PCOD9502216 Si02
#       5
#    16  16   8   8  16
#     4   9  19  34  49  67  92 123 159 196 233 278
#     4   9  14  20  31  47  72 103 137 183 225 259
#     4   9  16  24  34  54  75 103 149 184 223 269
#     4   9  18  30  46  61  83 121 156 193 231 273
#     4  10  20  32  50  73  97 121 149 193 239 286
#
# _framework density 22.274998
#
# number of rings (size 3 to 8) (size 9 to 14) (size 15 to 20)
#    0.000    2.750    1.250    1.500    3.500    1.500 
#    0.000    5.000    0.000    0.000    0.000    0.000 
#    0.000    0.000    0.000    0.000    0.000    3.750 
#
# Total GULP energy -178579.704564 kJ/mol
# GULP energy per Si atom -5580.615768 kJ/mol
# Density = 2.222430 g / cm^3
# Si number density = 22.274998 Si / 1000 Ang^3
#
#
#
# Elastic Constant Matrix: (Units=GPa)
#
#
# Indices 1 2 3 4 5 6 
#
# 1 180.9843 12.6033 141.8513 0.0000 0.0000 0.0000
# 2 12.6033 58.7055 2.1635 0.0000 0.0000 0.0000
# 3 141.8513 2.1635 224.9379 0.0000 0.0000 0.0000
# 4 0.0000 0.0000 0.0000 29.4601 0.0000 0.0000
# 5 0.0000 0.0000 0.0000 0.0000 43.0814 0.0000
# 6 0.0000 0.0000 0.0000 0.0000 0.0000 9.0779
#
#
#
# Elastic Compliance Matrix: (Units=1/GPa)
#
#
# Indices 1 2 3 4 5 6 
#
# 1 0.011189 -0.002143 -0.007035 0.000000 0.000000 0.000000
# 2 -0.002143 0.017451 0.001183 0.000000 0.000000 0.000000
# 3 -0.007035 0.001183 0.008871 0.000000 0.000000 0.000000
# 4 0.000000 0.000000 0.000000 0.033944 0.000000 0.000000
# 5 0.000000 0.000000 0.000000 0.000000 0.023212 0.000000
# 6 0.000000 0.000000 0.000000 0.000000 0.000000 0.110158
#
#
# Mechanical properties :
#
#
# Convention : Reuss Voigt Hill
#
# Bulk Modulus (GPa) = 46.46623 86.42931 66.44777
# Shear Modulus (GPa) = 21.93114 36.85786 29.39450
#
# Velocity S-wave (km/s) = 3.14118 4.07218 3.63660
# Velocity P-wave (km/s) = 5.83623 7.80996 6.89409
#
# Compressibility (1/GPa) = 0.02152100
#
# Stress axis : x y z
#
# Youngs Moduli (GPa) = 89.37706 57.30464 112.72897
#
# Poissons Ratio (x) = 0.12279 0.79307
# Poissons Ratio (y) = 0.19151 -0.13341
# Poissons Ratio (z) = 0.62878 -0.06782
#
# Static dielectric constant tensor:
#      x y z
#    x 1.812020 0.000000 0.000000 
#    y 0.000000 1.872830 0.000000 
#    z 0.000000 0.000000 1.800570 
# 
# From -- ./inp_files/31913.got.cif
#   From: 2010.05.17/outbox.cif.g08.bks.cpg/sg67_16_cif.got.tgz:31913.got - 2010.06.03 18:28:57.
