data_PCOD9502877
_publ_section_title
;
Structure prediction by ZEFSAII (Michael W. Deem and Ramdas Pophale) SiO2 
 PCOD9502877
Probable space group: C M M A
;
_chemical_formula_sum "Si O2"
_cell_formula_units_Z 116
_cell_length_a 25.388028
_cell_length_b 15.793104
_cell_length_c 14.396927
_cell_angle_alpha 90.000000
_cell_angle_beta 90.000000
_cell_angle_gamma 90.000000
_cell_volume 5772.530901
_symmetry_space_group_name_H-M "C M M A"
_symmetry_group_IT_number 67
_symmetry_cell_setting 'orthorhombic'
loop_
_space_group_symop_operation_xyz
x,y,z
-x,1/2-y,z
x,-y,-z
-x,1/2+y,-z
-x,-y,-z
x,1/2+y,-z
-x,y,z
x,1/2-y,z
1/2+x,1/2+y,z
1/2-x,-y,z
1/2+x,1/2-y,-z
1/2-x,y,-z
1/2-x,1/2-y,-z
1/2+x,y,-z
1/2-x,1/2+y,z
1/2+x,-y,z
loop_
_atom_site_type_symbol
_atom_site_label
_atom_site_fract_x
_atom_site_fract_y
_atom_site_fract_z
Si Si1 0.667279 0.398636 0.286848
Si Si2 0.641899 0.907362 0.329070
Si Si3 0.500000 0.750000 0.899289
Si Si4 0.691061 0.347691 0.491506
Si Si5 0.271581 0.651905 0.188905
Si Si6 0.851820 0.649940 0.962194
Si Si7 0.088271 0.894171 0.134983
Si Si8 0.560556 0.911323 0.178133
O O1 0.656612 0.495982 0.309468
O O2 0.675416 0.353179 0.384521
O O3 0.719630 0.393070 0.224899
O O4 0.617990 0.365439 0.228286
O O5 0.650419 0.889753 0.437217
O O6 0.684975 0.854260 0.270841
O O7 0.585632 0.894441 0.279823
O O8 0.545765 0.674826 0.895448
O O9 0.694531 0.250000 0.520447
O O10 0.750000 0.385738 0.500000
O O11 0.257861 0.750000 0.173868
O O12 0.301114 0.620056 0.096436
O O13 0.845202 0.750000 0.981856
O O14 0.901712 0.637078 0.893715
O O15 0.867157 0.601626 0.055285
O O16 0.065824 0.988389 0.153459
O O17 0.500000 0.885872 0.170793
#
# Coordination Sequence:
#
# PCOD9502877 Si02
#       8
#    16  16   4  16  16  16  16  16
#     4  11  23  37  62  88 118 158 201 238 303 368
#     4  10  21  38  58  87 119 153 198 246 300 354
#     4  12  24  40  66  82 122 158 216 258 298 340
#     4  11  22  36  62  91 118 154 196 244 297 360
#     4  10  20  35  55  85 124 155 188 243 292 359
#     4  10  22  37  58  90 122 157 199 243 301 356
#     4  11  24  40  61  88 118 159 204 255 299 351
#     4  10  22  40  62  86 117 157 202 255 306 350
#
# _framework density 20.095172000000002
#
# number of rings (size 3 to 8) (size 9 to 14) (size 15 to 20)
#    0.000    1.517    2.759    2.069    2.897    2.483 
#    0.000    1.379    1.517    6.621    0.000    0.000 
#    0.000    0.000    0.000    0.000    0.000    0.000 
#
# Total GULP energy -323508.535639 kJ/mol
# GULP energy per Si atom -5577.733373 kJ/mol
# Density = 2.004943 g / cm^3
# Si number density = 20.095172 Si / 1000 Ang^3
#
#
#
# Elastic Constant Matrix: (Units=GPa)
#
#
# Indices 1 2 3 4 5 6 
#
# 1 31.0566 -1.5412 25.1037 0.0000 0.0000 0.0000
# 2 -1.5412 31.9940 -1.7271 0.0000 0.0000 0.0000
# 3 25.1037 -1.7271 100.5457 0.0000 0.0000 0.0000
# 4 0.0000 0.0000 0.0000 13.3287 0.0000 0.0000
# 5 0.0000 0.0000 0.0000 0.0000 9.2058 0.0000
# 6 0.0000 0.0000 0.0000 0.0000 0.0000 11.7009
#
#
#
# Elastic Compliance Matrix: (Units=1/GPa)
#
#
# Indices 1 2 3 4 5 6 
#
# 1 0.040403 0.001403 -0.010064 0.000000 0.000000 0.000000
# 2 0.001403 0.031334 0.000188 0.000000 0.000000 0.000000
# 3 -0.010064 0.000188 0.012462 0.000000 0.000000 0.000000
# 4 0.000000 0.000000 0.000000 0.075026 0.000000 0.000000
# 5 0.000000 0.000000 0.000000 0.000000 0.108627 0.000000
# 6 0.000000 0.000000 0.000000 0.000000 0.000000 0.085464
#
#
# Mechanical properties :
#
#
# Convention : Reuss Voigt Hill
#
# Bulk Modulus (GPa) = 14.86914 23.02967 18.94940
# Shear Modulus (GPa) = 12.73306 16.29780 14.51543
#
# Velocity S-wave (km/s) = 2.51995 2.85095 2.69054
# Velocity P-wave (km/s) = 3.98526 4.72466 4.37062
#
# Compressibility (1/GPa) = 0.06725339
#
# Stress axis : x y z
#
# Youngs Moduli (GPa) = 24.75034 31.91463 80.24663
#
# Poissons Ratio (x) = -0.04478 0.80757
# Poissons Ratio (y) = -0.03473 -0.01508
# Poissons Ratio (z) = 0.24908 -0.00600
#
# Static dielectric constant tensor:
#      x y z
#    x 1.709270 0.000000 0.000000 
#    y 0.000000 1.738310 0.000000 
#    z 0.000000 0.000000 1.734210 
# 
# From -- ./inp_files/30296.got.cif
#   From: 2010.05.17/outbox.cif.g08.bks.cpg/sg67_16_cif.got.tgz:30296.got - 2010.06.03 18:28:57.
