data_PCOD9502569
_publ_section_title
;
Structure prediction by ZEFSAII (Michael W. Deem and Ramdas Pophale) SiO2 
 PCOD9502569
Probable space group: C M M A
;
_chemical_formula_sum "Si O2"
_cell_formula_units_Z 88
_cell_length_a 16.002997
_cell_length_b 8.841344
_cell_length_c 31.989182
_cell_angle_alpha 90.000000
_cell_angle_beta 90.000000
_cell_angle_gamma 90.000000
_cell_volume 4526.085431
_symmetry_space_group_name_H-M "C M M A"
_symmetry_group_IT_number 67
_symmetry_cell_setting 'orthorhombic'
loop_
_space_group_symop_operation_xyz
x,y,z
-x,1/2-y,z
x,-y,-z
-x,1/2+y,-z
-x,-y,-z
x,1/2+y,-z
-x,y,z
x,1/2-y,z
1/2+x,1/2+y,z
1/2-x,-y,z
1/2+x,1/2-y,-z
1/2-x,y,-z
1/2-x,1/2-y,-z
1/2+x,y,-z
1/2-x,1/2+y,z
1/2+x,-y,z
loop_
_atom_site_type_symbol
_atom_site_label
_atom_site_fract_x
_atom_site_fract_y
_atom_site_fract_z
Si Si1 0.183674 0.250000 0.058667
Si Si2 0.375003 0.250000 0.031575
Si Si3 0.101382 0.925934 0.694975
Si Si4 0.899155 0.750000 0.166836
Si Si5 0.500000 0.434327 0.546313
Si Si6 0.839730 0.927627 0.599219
Si Si7 0.897875 0.250000 0.738020
Si Si8 0.906420 0.007869 0.901661
O O1 0.276798 0.250000 0.042404
O O2 0.163065 0.389563 0.087345
O O3 0.121876 0.250000 0.018275
O O4 0.411117 0.391324 0.056338
O O5 0.125294 0.750000 0.708891
O O6 0.134888 0.943481 0.647843
O O7 0.000000 0.925535 0.694840
O O8 0.126937 0.084727 0.718254
O O9 0.867864 0.750000 0.213843
O O10 0.879621 0.892828 0.137805
O O11 0.000000 0.750000 0.169516
O O12 0.500000 0.250000 0.545628
O O13 0.500000 0.500000 0.500000
O O14 0.416909 0.484904 0.571252
O O15 0.832042 0.750000 0.590713
O O16 0.750000 0.000000 0.591145
O O17 0.000000 0.250000 0.736751
O O18 0.000000 0.946491 0.893959
#
# Coordination Sequence:
#
# PCOD9502569 Si02
#       8
#     8   8  16   8   8  16   8  16
#     4  11  21  33  51  80 103 133 185 228 271 331
#     4  10  21  35  51  72 107 139 173 230 276 327
#     4   9  17  33  56  85 117 150 193 249 305 362
#     4   8  17  35  51  74 112 144 175 229 278 346
#     4  10  22  42  60  84 124 168 208 256 304 364
#     4  10  21  37  59  86 121 158 200 257 313 361
#     4   9  17  31  57  87 114 148 199 238 301 361
#     4  10  20  34  53  75 104 141 177 220 278 326
#
# _framework density 19.44285
#
# number of rings (size 3 to 8) (size 9 to 14) (size 15 to 20)
#    0.000    2.364    0.909    2.182    1.273    4.727 
#    1.636    1.818    0.000    4.364    0.000    0.000 
#    0.000    0.000    0.000    0.000    0.000    0.000 
#
# Total GULP energy -245050.274871 kJ/mol
# GULP energy per Si atom -5569.324429 kJ/mol
# Density = 1.939860 g / cm^3
# Si number density = 19.442850 Si / 1000 Ang^3
#
#
#
# Elastic Constant Matrix: (Units=GPa)
#
#
# Indices 1 2 3 4 5 6 
#
# 1 76.8058 45.7064 47.5699 0.0000 0.0000 0.0000
# 2 45.7064 110.4216 64.0609 0.0000 0.0000 0.0000
# 3 47.5699 64.0609 122.4837 0.0000 0.0000 0.0000
# 4 0.0000 0.0000 0.0000 -187.7006 0.0000 0.0000
# 5 0.0000 0.0000 0.0000 0.0000 4.0223 0.0000
# 6 0.0000 0.0000 0.0000 0.0000 0.0000 28.7841
#
#
#
# Elastic Compliance Matrix: (Units=1/GPa)
#
#
# Indices 1 2 3 4 5 6 
#
# 1 0.018978 -0.005139 -0.004683 0.000000 0.000000 0.000000
# 2 -0.005139 0.014392 -0.005532 0.000000 0.000000 0.000000
# 3 -0.004683 -0.005532 0.012876 0.000000 0.000000 0.000000
# 4 0.000000 0.000000 0.000000 -0.005328 0.000000 0.000000
# 5 0.000000 0.000000 0.000000 0.000000 0.248615 0.000000
# 6 0.000000 0.000000 0.000000 0.000000 0.000000 0.034741
#
#
# Mechanical properties :
#
#
# Convention : Reuss Voigt Hill
#
# Bulk Modulus (GPa) = 64.34999 69.37618 66.86309
# Shear Modulus (GPa) = 13.88261 -20.82060 -3.46899
#
# Velocity S-wave (km/s) = 2.67502 -3.27595 -1.33719
# Velocity P-wave (km/s) = 6.53527 4.63146 5.66393
#
# Compressibility (1/GPa) = 0.01554002
#
# Stress axis : x y z
#
# Youngs Moduli (GPa) = 52.69150 69.48072 77.66168
#
# Poissons Ratio (x) = 0.35704 0.36370
# Poissons Ratio (y) = 0.27077 0.42960
# Poissons Ratio (z) = 0.24676 0.38435
#
# Static dielectric constant tensor:
#      x y z
#    x 1.702190 0.000000 0.000000 
#    y 0.000000 1.631710 0.000000 
#    z 0.000000 0.000000 1.649530 
# 
# From -- ./inp_files/45823.got.cif
#   From: 2010.05.17/outbox.cif.g08.bks.cpg/sg67_23_cif.got.tgz:45823.got - 2010.06.03 18:28:57.
