data_PCOD9502641
_publ_section_title
;
Structure prediction by ZEFSAII (Michael W. Deem and Ramdas Pophale) SiO2 
 PCOD9502641
Probable space group: C M M A
;
_chemical_formula_sum "Si O2"
_cell_formula_units_Z 104
_cell_length_a 7.794087
_cell_length_b 27.744640
_cell_length_c 22.490787
_cell_angle_alpha 90.000000
_cell_angle_beta 90.000000
_cell_angle_gamma 90.000000
_cell_volume 4863.500846
_symmetry_space_group_name_H-M "C M M A"
_symmetry_group_IT_number 67
_symmetry_cell_setting 'orthorhombic'
loop_
_space_group_symop_operation_xyz
x,y,z
-x,1/2-y,z
x,-y,-z
-x,1/2+y,-z
-x,-y,-z
x,1/2+y,-z
-x,y,z
x,1/2-y,z
1/2+x,1/2+y,z
1/2-x,-y,z
1/2+x,1/2-y,-z
1/2-x,y,-z
1/2-x,1/2-y,-z
1/2+x,y,-z
1/2-x,1/2+y,z
1/2+x,-y,z
loop_
_atom_site_type_symbol
_atom_site_label
_atom_site_fract_x
_atom_site_fract_y
_atom_site_fract_z
Si Si1 0.790446 0.196039 0.610819
Si Si2 0.297678 0.556537 0.178767
Si Si3 0.203869 0.055769 0.686912
Si Si4 0.207335 0.250000 0.069175
Si Si5 0.294065 0.599214 0.563444
Si Si6 0.300377 0.807948 0.745162
Si Si7 0.304086 0.346546 0.867746
O O1 0.729105 0.250000 0.598376
O O2 0.733051 0.154640 0.566601
O O3 0.742289 0.180929 0.678173
O O4 0.000000 0.197623 0.611238
O O5 0.500000 0.558117 0.170610
O O6 0.250000 0.500000 0.170258
O O7 0.262081 0.571284 0.247439
O O8 0.225003 0.599391 0.136448
O O9 0.272793 0.076588 0.624817
O O10 0.000000 0.062936 0.686557
O O11 0.250000 0.000000 0.685242
O O12 0.274072 0.300322 0.097912
O O13 0.000000 0.250000 0.078631
O O14 0.250000 0.250000 0.000000
O O15 0.500000 0.598735 0.566913
O O16 0.250000 0.576669 0.500000
O O17 0.500000 0.823029 0.751149
O O18 0.295773 0.750000 0.749295
O O19 0.196433 0.829273 0.799301
O O20 0.500000 0.351329 0.889851
#
# Coordination Sequence:
#
# PCOD9502641 Si02
#       7
#    16  16  16   8  16  16  16
#     4   8  15  29  47  67  93 124 158 203 256 309
#     4  10  20  34  55  84 112 143 177 217 272 328
#     4  10  20  35  54  75 101 131 165 212 266 319
#     4  10  22  40  58  82 118 156 191 226 259 302
#     4  10  21  34  48  66  90 124 166 212 260 311
#     4   9  16  27  48  77 103 130 171 216 263 322
#     4  10  20  34  54  79 114 150 179 219 271 315
#
# _framework density 21.383772
#
# number of rings (size 3 to 8) (size 9 to 14) (size 15 to 20)
#    0.000    2.462    0.769    3.692    0.000    4.923 
#    0.000    2.308    0.000    1.385    0.000    3.231 
#    0.000    0.000    0.000    0.000    0.000    0.000 
#
# Total GULP energy -289812.545608 kJ/mol
# GULP energy per Si atom -5573.318185 kJ/mol
# Density = 2.133510 g / cm^3
# Si number density = 21.383772 Si / 1000 Ang^3
#
#
#
# Elastic Constant Matrix: (Units=GPa)
#
#
# Indices 1 2 3 4 5 6 
#
# 1 32.8404 7.7200 -2.0146 0.0000 0.0000 0.0000
# 2 7.7200 123.8973 85.2446 0.0000 0.0000 0.0000
# 3 -2.0146 85.2446 77.5610 0.0000 0.0000 0.0000
# 4 0.0000 0.0000 0.0000 21.7014 0.0000 0.0000
# 5 0.0000 0.0000 0.0000 0.0000 14.0889 0.0000
# 6 0.0000 0.0000 0.0000 0.0000 0.0000 -1.1969
#
#
#
# Elastic Compliance Matrix: (Units=1/GPa)
#
#
# Indices 1 2 3 4 5 6 
#
# 1 0.033874 -0.011140 0.013123 0.000000 0.000000 0.000000
# 2 -0.011140 0.036767 -0.040699 0.000000 0.000000 0.000000
# 3 0.013123 -0.040699 0.057965 0.000000 0.000000 0.000000
# 4 0.000000 0.000000 0.000000 0.046080 0.000000 0.000000
# 5 0.000000 0.000000 0.000000 0.000000 0.070978 0.000000
# 6 0.000000 0.000000 0.000000 0.000000 0.000000 -0.835522
#
#
# Mechanical properties :
#
#
# Convention : Reuss Voigt Hill
#
# Bulk Modulus (GPa) = 19.54081 46.24431 32.89256
# Shear Modulus (GPa) = -10.09351 16.47526 3.19087
#
# Velocity S-wave (km/s) = -2.17495 2.77872 1.22288
# Velocity P-wave (km/s) = 1.68842 5.65402 4.17245
#
# Compressibility (1/GPa) = 0.05117496
#
# Stress axis : x y z
#
# Youngs Moduli (GPa) = 29.52116 27.19797 17.25177
#
# Poissons Ratio (x) = 0.30298 -0.22640
# Poissons Ratio (y) = 0.32886 0.70213
# Poissons Ratio (z) = -0.38741 1.10694
#
# Static dielectric constant tensor:
#      x y z
#    x 1.887550 0.000000 0.000000 
#    y 0.000000 1.863870 0.000000 
#    z 0.000000 0.000000 1.747780 
# 
# From -- ./inp_files/40989.got.cif
#   From: 2010.05.17/outbox.cif.g08.bks.cpg/sg67_21_cif.got.tgz:40989.got - 2010.06.03 18:28:57.
