data_PCOD9502244
_publ_section_title
;
Structure prediction by ZEFSAII (Michael W. Deem and Ramdas Pophale) SiO2 
 PCOD9502244
Probable space group: C M M A
;
_chemical_formula_sum "Si O2"
_cell_formula_units_Z 52
_cell_length_a 18.024252
_cell_length_b 9.624938
_cell_length_c 13.794730
_cell_angle_alpha 90.000000
_cell_angle_beta 90.000000
_cell_angle_gamma 90.000000
_cell_volume 2393.141599
_symmetry_space_group_name_H-M "C M M A"
_symmetry_group_IT_number 67
_symmetry_cell_setting 'orthorhombic'
loop_
_space_group_symop_operation_xyz
x,y,z
-x,1/2-y,z
x,-y,-z
-x,1/2+y,-z
-x,-y,-z
x,1/2+y,-z
-x,y,z
x,1/2-y,z
1/2+x,1/2+y,z
1/2-x,-y,z
1/2+x,1/2-y,-z
1/2-x,y,-z
1/2-x,1/2-y,-z
1/2+x,y,-z
1/2-x,1/2+y,z
1/2+x,-y,z
loop_
_atom_site_type_symbol
_atom_site_label
_atom_site_fract_x
_atom_site_fract_y
_atom_site_fract_z
Si Si1 0.088460 0.913257 0.402744
Si Si2 0.633105 0.979017 0.204162
Si Si3 0.692842 0.250000 0.911855
Si Si4 0.000000 0.750000 0.798453
Si Si5 0.088320 0.750000 0.083691
O O1 0.100801 0.750000 0.418927
O O2 0.137841 0.967262 0.313937
O O3 0.000000 0.929016 0.377920
O O4 0.101476 0.000000 0.500000
O O5 0.616474 0.112236 0.137464
O O6 0.696467 0.884474 0.155744
O O7 0.564334 0.872097 0.205277
O O8 0.750000 0.250000 0.000000
O O9 0.616048 0.250000 0.973423
O O10 0.000000 0.750000 0.085321
#
# Coordination Sequence:
#
# PCOD9502244 Si02
#       5
#    16  16   8   4   8
#     4  10  20  32  57  97 143 185 223 273 346 425
#     4  11  22  39  63  90 140 175 227 285 339 407
#     4  11  29  46  63  92 130 183 246 285 350 419
#     4  10  20  32  58  92 128 184 218 262 344 392
#     4  12  23  39  67  98 129 173 229 288 354 417
#
# _framework density 21.728760000000001
#
# number of rings (size 3 to 8) (size 9 to 14) (size 15 to 20)
#    0.000    1.231    4.615    0.923    8.615    3.692 
#    0.000    0.000    0.000    0.000    0.000    6.462 
#    0.000    0.000    0.000    0.000    0.000    0.000 
#
# Total GULP energy -144874.290325 kJ/mol
# GULP energy per Si atom -5572.088089 kJ/mol
# Density = 2.167930 g / cm^3
# Si number density = 21.728760 Si / 1000 Ang^3
#
#
#
# Elastic Constant Matrix: (Units=GPa)
#
#
# Indices 1 2 3 4 5 6 
#
# 1 40.8959 34.5173 22.1154 0.0000 0.0000 0.0000
# 2 34.5173 217.4160 100.7553 0.0000 0.0000 0.0000
# 3 22.1154 100.7553 181.5550 0.0000 0.0000 0.0000
# 4 0.0000 0.0000 0.0000 37.1798 0.0000 0.0000
# 5 0.0000 0.0000 0.0000 0.0000 19.4394 0.0000
# 6 0.0000 0.0000 0.0000 0.0000 0.0000 30.3015
#
#
#
# Elastic Compliance Matrix: (Units=1/GPa)
#
#
# Indices 1 2 3 4 5 6 
#
# 1 0.028459 -0.003920 -0.001291 0.000000 0.000000 0.000000
# 2 -0.003920 0.006732 -0.003258 0.000000 0.000000 0.000000
# 3 -0.001291 -0.003258 0.007474 0.000000 0.000000 0.000000
# 4 0.000000 0.000000 0.000000 0.026896 0.000000 0.000000
# 5 0.000000 0.000000 0.000000 0.000000 0.051442 0.000000
# 6 0.000000 0.000000 0.000000 0.000000 0.000000 0.033002
#
#
# Mechanical properties :
#
#
# Convention : Reuss Voigt Hill
#
# Bulk Modulus (GPa) = 38.87208 83.84922 61.36065
# Shear Modulus (GPa) = 27.85229 36.21606 32.03418
#
# Velocity S-wave (km/s) = 3.58413 4.08699 3.84379
# Velocity P-wave (km/s) = 5.92086 7.80668 6.92823
#
# Compressibility (1/GPa) = 0.02572540
#
# Stress axis : x y z
#
# Youngs Moduli (GPa) = 35.13823 148.54878 133.80547
#
# Poissons Ratio (x) = 0.58228 0.17279
# Poissons Ratio (y) = 0.13773 0.43599
# Poissons Ratio (z) = 0.04537 0.48403
#
# Static dielectric constant tensor:
#      x y z
#    x 1.099320 0.000000 0.000000 
#    y 0.000000 1.805250 0.000000 
#    z 0.000000 0.000000 1.793470 
# 
# From -- ./inp_files/24545.got.cif
#   From: 2010.05.17/outbox.cif.g08.bks.cpg/sg67_13_cif.got.tgz:24545.got - 2010.06.03 18:28:57.
