data_PCOD9502525
_publ_section_title
;
Structure prediction by ZEFSAII (Michael W. Deem and Ramdas Pophale) SiO2 
 PCOD9502525
Probable space group: C M M A
;
_chemical_formula_sum "Si O2"
_cell_formula_units_Z 80
_cell_length_a 14.620503
_cell_length_b 9.083940
_cell_length_c 27.113788
_cell_angle_alpha 90.000000
_cell_angle_beta 90.000000
_cell_angle_gamma 90.000000
_cell_volume 3601.030231
_symmetry_space_group_name_H-M "C M M A"
_symmetry_group_IT_number 67
_symmetry_cell_setting 'orthorhombic'
loop_
_space_group_symop_operation_xyz
x,y,z
-x,1/2-y,z
x,-y,-z
-x,1/2+y,-z
-x,-y,-z
x,1/2+y,-z
-x,y,z
x,1/2-y,z
1/2+x,1/2+y,z
1/2-x,-y,z
1/2+x,1/2-y,-z
1/2-x,y,-z
1/2-x,1/2-y,-z
1/2+x,y,-z
1/2-x,1/2+y,z
1/2+x,-y,z
loop_
_atom_site_type_symbol
_atom_site_label
_atom_site_fract_x
_atom_site_fract_y
_atom_site_fract_z
Si Si1 0.111344 0.578925 0.450683
Si Si2 0.892734 0.413235 0.852574
Si Si3 0.888448 0.578881 0.342686
Si Si4 0.112234 0.417892 0.243556
Si Si5 0.849952 0.573644 0.951605
O O1 0.143862 0.500000 0.500000
O O2 0.136671 0.750000 0.452642
O O3 0.139538 0.520614 0.396756
O O4 0.000000 0.572038 0.451321
O O5 0.853228 0.250000 0.863370
O O6 0.855796 0.485304 0.802722
O O7 0.887469 0.520883 0.899245
O O8 0.000000 0.394618 0.843364
O O9 0.860815 0.750000 0.337843
O O10 0.858929 0.485481 0.295772
O O11 0.000000 0.578667 0.342317
O O12 0.142289 0.250000 0.238130
O O13 0.000000 0.417641 0.243242
O O14 0.848491 0.750000 0.956257
O O15 0.750000 0.500000 0.950703
O O16 0.895265 0.500000 0.000000
#
# Coordination Sequence:
#
# PCOD9502525 Si02
#       5
#    16  16  16  16  16
#     4   8  13  19  26  37  55  82 120 166 213 259
#     4  10  20  34  52  74 100 129 161 198 240 283
#     4   8  13  21  31  43  63  94 130 169 216 268
#     4   9  16  25  38  58  82 108 141 182 227 273
#     4  11  22  38  58  78 102 130 162 196 233 280
#
# _framework density 22.215864
#
# number of rings (size 3 to 8) (size 9 to 14) (size 15 to 20)
#    0.000    2.800    0.000    4.800    0.000    4.800 
#    0.000    4.000    0.000    0.000    0.000    0.000 
#    0.000    0.000    0.000    0.000    0.000    1.000 
#
# Total GULP energy -223231.273556 kJ/mol
# GULP energy per Si atom -5580.781839 kJ/mol
# Density = 2.216530 g / cm^3
# Si number density = 22.215864 Si / 1000 Ang^3
#
#
#
# Elastic Constant Matrix: (Units=GPa)
#
#
# Indices 1 2 3 4 5 6 
#
# 1 52.6378 9.8126 5.0326 0.0000 0.0000 0.0000
# 2 9.8126 164.9614 105.7041 0.0000 0.0000 0.0000
# 3 5.0326 105.7041 223.2222 0.0000 0.0000 0.0000
# 4 0.0000 0.0000 0.0000 30.4960 0.0000 0.0000
# 5 0.0000 0.0000 0.0000 0.0000 12.8020 0.0000
# 6 0.0000 0.0000 0.0000 0.0000 0.0000 5.8551
#
#
#
# Elastic Compliance Matrix: (Units=1/GPa)
#
#
# Indices 1 2 3 4 5 6 
#
# 1 0.019215 -0.001242 0.000155 0.000000 0.000000 0.000000
# 2 -0.001242 0.008783 -0.004131 0.000000 0.000000 0.000000
# 3 0.000155 -0.004131 0.006433 0.000000 0.000000 0.000000
# 4 0.000000 0.000000 0.000000 0.032791 0.000000 0.000000
# 5 0.000000 0.000000 0.000000 0.000000 0.078113 0.000000
# 6 0.000000 0.000000 0.000000 0.000000 0.000000 0.170793
#
#
# Mechanical properties :
#
#
# Convention : Reuss Voigt Hill
#
# Bulk Modulus (GPa) = 41.67801 75.76891 58.72346
# Shear Modulus (GPa) = 14.94495 31.18209 23.06352
#
# Velocity S-wave (km/s) = 2.59649 3.75052 3.22554
# Velocity P-wave (km/s) = 5.27164 7.27565 6.35316
#
# Compressibility (1/GPa) = 0.02399347
#
# Stress axis : x y z
#
# Youngs Moduli (GPa) = 52.04394 113.85564 155.45870
#
# Poissons Ratio (x) = 0.14145 -0.02411
# Poissons Ratio (y) = 0.06466 0.64222
# Poissons Ratio (z) = -0.00807 0.47035
#
# Static dielectric constant tensor:
#      x y z
#    x 2.011730 0.000000 0.000000 
#    y 0.000000 1.780620 0.000000 
#    z 0.000000 0.000000 1.837760 
# 
# From -- ./inp_files/43223.got.cif
#   From: 2010.05.17/outbox.cif.g08.bks.cpg/sg67_22_cif.got.tgz:43223.got - 2010.06.03 18:28:57.
