data_PCOD9502071
_publ_section_title
;
Structure prediction by ZEFSAII (Michael W. Deem and Ramdas Pophale) SiO2 
 PCOD9502071
Probable space group: C M M A
;
_chemical_formula_sum "Si O2"
_cell_formula_units_Z 104
_cell_length_a 9.096861
_cell_length_b 31.183165
_cell_length_c 23.242462
_cell_angle_alpha 90.000000
_cell_angle_beta 90.000000
_cell_angle_gamma 90.000000
_cell_volume 6593.164037
_symmetry_space_group_name_H-M "C M M A"
_symmetry_group_IT_number 67
_symmetry_cell_setting 'orthorhombic'
loop_
_space_group_symop_operation_xyz
x,y,z
-x,1/2-y,z
x,-y,-z
-x,1/2+y,-z
-x,-y,-z
x,1/2+y,-z
-x,y,z
x,1/2-y,z
1/2+x,1/2+y,z
1/2-x,-y,z
1/2+x,1/2-y,-z
1/2-x,y,-z
1/2-x,1/2-y,-z
1/2+x,y,-z
1/2-x,1/2+y,z
1/2+x,-y,z
loop_
_atom_site_type_symbol
_atom_site_label
_atom_site_fract_x
_atom_site_fract_y
_atom_site_fract_z
Si Si1 0.325187 0.925497 0.941901
Si Si2 0.822489 0.700298 0.677934
Si Si3 0.170970 0.372833 0.231662
Si Si4 0.823382 0.250000 0.061519
Si Si5 0.824072 0.044416 0.813038
Si Si6 0.668049 0.198032 0.442561
Si Si7 0.329539 0.342822 0.899581
O O1 0.500000 0.927637 0.948124
O O2 0.283877 0.947212 0.880716
O O3 0.270412 0.876645 0.933035
O O4 0.250000 0.942758 0.000000
O O5 0.779588 0.750000 0.692179
O O6 0.778976 0.664124 0.724200
O O7 0.754500 0.688815 0.616110
O O8 0.000000 0.700100 0.674554
O O9 0.264644 0.416136 0.225191
O O10 0.174903 0.353184 0.167726
O O11 0.000000 0.383340 0.244768
O O12 0.781597 0.205897 0.091948
O O13 0.000000 0.250000 0.057024
O O14 0.750000 0.250000 0.000000
O O15 0.000000 0.042337 0.809974
O O16 0.750000 0.000000 0.795430
O O17 0.500000 0.182845 0.440228
O O18 0.663954 0.250000 0.446274
O O19 0.750000 0.182526 0.500000
O O20 0.500000 0.347963 0.918863
#
# Coordination Sequence:
#
# PCOD9502071 Si02
#       7
#    16  16  16   8  16  16  16
#     4  10  20  33  49  68  89 112 140 179 228 284
#     4   9  17  28  45  70  99 132 167 200 232 273
#     4   9  18  32  50  70  94 123 156 193 233 277
#     4  10  20  30  42  60  82 110 149 190 227 268
#     4  10  21  36  53  71  92 117 148 188 236 289
#     4   9  16  26  41  62  92 130 169 206 240 274
#     4   9  18  31  46  63  85 116 150 188 229 272
#
# _framework density 15.773913
#
# number of rings (size 3 to 8) (size 9 to 14) (size 15 to 20)
#    0.000    2.615    0.000    1.846    1.077    6.462 
#    0.000    1.538    0.000    0.000    0.000    0.000 
#    0.000    0.615    0.000    6.462    0.000    3.077 
#
# Total GULP energy -289777.792949 kJ/mol
# GULP energy per Si atom -5572.649864 kJ/mol
# Density = 1.573801 g / cm^3
# Si number density = 15.773913 Si / 1000 Ang^3
#
#
#
# Elastic Constant Matrix: (Units=GPa)
#
#
# Indices 1 2 3 4 5 6 
#
# 1 36.3008 35.3999 31.4421 0.0000 0.0000 0.0000
# 2 35.3999 101.6083 38.1963 0.0000 0.0000 0.0000
# 3 31.4421 38.1963 77.5786 0.0000 0.0000 0.0000
# 4 0.0000 0.0000 0.0000 8.5140 0.0000 0.0000
# 5 0.0000 0.0000 0.0000 0.0000 23.9205 0.0000
# 6 0.0000 0.0000 0.0000 0.0000 0.0000 17.4951
#
#
#
# Elastic Compliance Matrix: (Units=1/GPa)
#
#
# Indices 1 2 3 4 5 6 
#
# 1 0.053289 -0.012819 -0.015286 0.000000 0.000000 0.000000
# 2 -0.012819 0.015161 -0.002269 0.000000 0.000000 0.000000
# 3 -0.015286 -0.002269 0.020203 0.000000 0.000000 0.000000
# 4 0.000000 0.000000 0.000000 0.117454 0.000000 0.000000
# 5 0.000000 0.000000 0.000000 0.000000 0.041805 0.000000
# 6 0.000000 0.000000 0.000000 0.000000 0.000000 0.057159
#
#
# Mechanical properties :
#
#
# Convention : Reuss Voigt Hill
#
# Bulk Modulus (GPa) = 35.83745 47.28492 41.56118
# Shear Modulus (GPa) = 13.32909 17.34923 15.33916
#
# Velocity S-wave (km/s) = 2.91006 3.32002 3.12178
# Velocity P-wave (km/s) = 5.83609 6.68868 6.27688
#
# Compressibility (1/GPa) = 0.02790377
#
# Stress axis : x y z
#
# Youngs Moduli (GPa) = 18.76572 65.95946 49.49867
#
# Poissons Ratio (x) = 0.84555 0.75663
# Poissons Ratio (y) = 0.24056 0.11231
# Poissons Ratio (z) = 0.28685 0.14966
#
# Static dielectric constant tensor:
#      x y z
#    x 1.536090 0.000000 0.000000 
#    y 0.000000 1.513230 0.000000 
#    z 0.000000 0.000000 1.512590 
# 
# From -- ./inp_files/40192.got.cif
#   From: 2010.05.17/outbox.cif.g08.bks.cpg/sg67_21_cif.got.tgz:40192.got - 2010.06.03 18:28:57.
