data_PCOD9502664
_publ_section_title
;
Structure prediction by ZEFSAII (Michael W. Deem and Ramdas Pophale) SiO2 
 PCOD9502664
Probable space group: C M M A
;
_chemical_formula_sum "Si O2"
_cell_formula_units_Z 68
_cell_length_a 25.632563
_cell_length_b 7.914950
_cell_length_c 14.858098
_cell_angle_alpha 90.000000
_cell_angle_beta 90.000000
_cell_angle_gamma 90.000000
_cell_volume 3014.417675
_symmetry_space_group_name_H-M "C M M A"
_symmetry_group_IT_number 67
_symmetry_cell_setting 'orthorhombic'
loop_
_space_group_symop_operation_xyz
x,y,z
-x,1/2-y,z
x,-y,-z
-x,1/2+y,-z
-x,-y,-z
x,1/2+y,-z
-x,y,z
x,1/2-y,z
1/2+x,1/2+y,z
1/2-x,-y,z
1/2+x,1/2-y,-z
1/2-x,y,-z
1/2-x,1/2-y,-z
1/2+x,y,-z
1/2-x,1/2+y,z
1/2+x,-y,z
loop_
_atom_site_type_symbol
_atom_site_label
_atom_site_fract_x
_atom_site_fract_y
_atom_site_fract_z
Si Si1 0.918765 0.545072 0.846075
Si Si2 0.329320 0.943286 0.402691
Si Si3 0.193756 0.046751 0.205436
Si Si4 0.057265 0.951523 0.358637
Si Si5 0.500000 0.000000 0.000000
O O1 0.923484 0.750000 0.853289
O O2 0.857980 0.492777 0.847862
O O3 0.938563 0.491950 0.747553
O O4 0.954613 0.471845 0.923324
O O5 0.314377 0.750000 0.396069
O O6 0.310689 0.024447 0.308381
O O7 0.310579 0.000000 0.500000
O O8 0.392189 0.961665 0.400799
O O9 0.190057 0.250000 0.209689
O O10 0.250000 0.000000 0.167957
O O11 0.061646 0.750000 0.371975
O O12 0.000000 0.008277 0.390252
#
# Coordination Sequence:
#
# PCOD9502664 Si02
#       5
#    16  16  16  16   4
#     4  10  22  39  60  88 121 156 195 240 293 353
#     4  10  21  36  55  82 116 154 201 249 295 346
#     4   9  20  39  61  85 115 156 200 243 295 349
#     4  10  20  34  54  81 115 155 198 241 293 355
#     4  12  22  36  66  94 120 152 188 240 290 348
#
# _framework density 22.558253000000001
#
# number of rings (size 3 to 8) (size 9 to 14) (size 15 to 20)
#    0.000    2.118    1.176    3.176    0.000    8.941 
#    0.000    2.941    0.000    2.824    0.000    0.000 
#    0.000    0.000    0.000    0.000    0.000    0.000 
#
# Total GULP energy -189355.029667 kJ/mol
# GULP energy per Si atom -5569.265578 kJ/mol
# Density = 2.250691 g / cm^3
# Si number density = 22.558253 Si / 1000 Ang^3
#
#
#
# Elastic Constant Matrix: (Units=GPa)
#
#
# Indices 1 2 3 4 5 6 
#
# 1 190.7815 -5.0799 45.9360 0.0000 0.0000 0.0000
# 2 -5.0799 24.4090 -2.8135 0.0000 0.0000 0.0000
# 3 45.9360 -2.8135 108.0978 0.0000 0.0000 0.0000
# 4 0.0000 0.0000 0.0000 -99.4288 0.0000 0.0000
# 5 0.0000 0.0000 0.0000 0.0000 -549.3303 0.0000
# 6 0.0000 0.0000 0.0000 0.0000 0.0000 19.3524
#
#
#
# Elastic Compliance Matrix: (Units=1/GPa)
#
#
# Indices 1 2 3 4 5 6 
#
# 1 0.005860 0.000935 -0.002466 0.000000 0.000000 0.000000
# 2 0.000935 0.041241 0.000676 0.000000 0.000000 0.000000
# 3 -0.002466 0.000676 0.010316 0.000000 0.000000 0.000000
# 4 0.000000 0.000000 0.000000 -0.010057 0.000000 0.000000
# 5 0.000000 0.000000 0.000000 0.000000 -0.001820 0.000000
# 6 0.000000 0.000000 0.000000 0.000000 0.000000 0.051673
#
#
# Mechanical properties :
#
#
# Convention : Reuss Voigt Hill
#
# Bulk Modulus (GPa) = 17.95060 44.37482 31.16271
# Shear Modulus (GPa) = 42.55610 -106.86495 -32.15443
#
# Velocity S-wave (km/s) = 4.34810 -6.89026 -3.77954
# Velocity P-wave (km/s) = 5.76044 6.60205 2.28084
#
# Compressibility (1/GPa) = 0.05570844
#
# Stress axis : x y z
#
# Youngs Moduli (GPa) = 170.64108 24.24764 96.93324
#
# Poissons Ratio (x) = -0.02268 0.23903
# Poissons Ratio (y) = -0.15961 -0.06552
# Poissons Ratio (z) = 0.42079 -0.01639
#
# Static dielectric constant tensor:
#      x y z
#    x 1.854230 0.000000 0.000000 
#    y 0.000000 1.797340 0.000000 
#    z 0.000000 0.000000 1.825530 
# 
# From -- ./inp_files/30481.got.cif
#   From: 2010.05.17/outbox.cif.g08.bks.cpg/sg67_16_cif.got.tgz:30481.got - 2010.06.03 18:28:57.
