data_PCOD9502286
_publ_section_title
;
Structure prediction by ZEFSAII (Michael W. Deem and Ramdas Pophale) SiO2 
 PCOD9502286
Probable space group: C M M A
;
_chemical_formula_sum "Si O2"
_cell_formula_units_Z 112
_cell_length_a 28.110705
_cell_length_b 20.113718
_cell_length_c 11.431834
_cell_angle_alpha 90.000000
_cell_angle_beta 90.000000
_cell_angle_gamma 90.000000
_cell_volume 6463.682329
_symmetry_space_group_name_H-M "C M M A"
_symmetry_group_IT_number 67
_symmetry_cell_setting 'orthorhombic'
loop_
_space_group_symop_operation_xyz
x,y,z
-x,1/2-y,z
x,-y,-z
-x,1/2+y,-z
-x,-y,-z
x,1/2+y,-z
-x,y,z
x,1/2-y,z
1/2+x,1/2+y,z
1/2-x,-y,z
1/2+x,1/2-y,-z
1/2-x,y,-z
1/2-x,1/2-y,-z
1/2+x,y,-z
1/2-x,1/2+y,z
1/2+x,-y,z
loop_
_atom_site_type_symbol
_atom_site_label
_atom_site_fract_x
_atom_site_fract_y
_atom_site_fract_z
Si Si1 0.553056 0.051763 0.394422
Si Si2 0.673123 0.428679 0.950734
Si Si3 0.645062 0.007596 0.720515
Si Si4 0.616309 0.174028 0.413232
Si Si5 0.299401 0.388769 0.565655
Si Si6 0.731407 0.175726 0.808561
Si Si7 0.336088 0.630191 0.810134
O O1 0.500000 0.059793 0.344584
O O2 0.574447 0.121784 0.438526
O O3 0.550334 0.000000 0.500000
O O4 0.593415 0.020083 0.312047
O O5 0.642189 0.448404 0.837628
O O6 0.712276 0.379884 0.897153
O O7 0.690859 0.500000 0.000000
O O8 0.648878 0.390528 0.059053
O O9 0.671535 0.048773 0.619447
O O10 0.675111 0.941266 0.749282
O O11 0.605985 0.250000 0.443047
O O12 0.663947 0.149570 0.480628
O O13 0.627151 0.166201 0.274763
O O14 0.250000 0.405382 0.500000
O O15 0.285711 0.344034 0.678374
O O16 0.715027 0.250000 0.838557
O O17 0.788085 0.171683 0.813290
#
# Coordination Sequence:
#
# PCOD9502286 Si02
#       7
#    16  16  16  16  16  16  16
#     4  10  20  38  61  86 111 135 177 235 286 339
#     4   9  20  36  53  71 105 143 191 233 269 311
#     4   9  20  37  54  80 105 145 182 231 279 321
#     4  11  22  36  54  80 116 149 180 224 279 336
#     4  11  21  35  52  76 115 153 190 222 262 328
#     4  11  22  33  48  73 107 154 195 227 267 318
#     4  10  20  33  49  74 107 146 188 230 264 314
#
# _framework density 17.327584999999999
#
# number of rings (size 3 to 8) (size 9 to 14) (size 15 to 20)
#    0.000    1.857    2.857    1.286    0.000    9.429 
#    5.143    0.000    0.000   10.714    0.000    0.000 
#    0.000    0.000    0.000    0.000    0.000    0.000 
#
# Total GULP energy -312221.890418 kJ/mol
# GULP energy per Si atom -5575.390900 kJ/mol
# Density = 1.728815 g / cm^3
# Si number density = 17.327585 Si / 1000 Ang^3
#
#
#
# Elastic Constant Matrix: (Units=GPa)
#
#
# Indices 1 2 3 4 5 6 
#
# 1 88.6788 50.3828 28.7954 0.0000 0.0000 0.0000
# 2 50.3828 108.2044 41.0444 0.0000 0.0000 0.0000
# 3 28.7954 41.0444 86.5285 0.0000 0.0000 0.0000
# 4 0.0000 0.0000 0.0000 16.5403 0.0000 0.0000
# 5 0.0000 0.0000 0.0000 0.0000 11.1493 0.0000
# 6 0.0000 0.0000 0.0000 0.0000 0.0000 -5.0915
#
#
#
# Elastic Compliance Matrix: (Units=1/GPa)
#
#
# Indices 1 2 3 4 5 6 
#
# 1 0.015650 -0.006477 -0.002136 0.000000 0.000000 0.000000
# 2 -0.006477 0.013950 -0.004462 0.000000 0.000000 0.000000
# 3 -0.002136 -0.004462 0.014384 0.000000 0.000000 0.000000
# 4 0.000000 0.000000 0.000000 0.060458 0.000000 0.000000
# 5 0.000000 0.000000 0.000000 0.000000 0.089691 0.000000
# 6 0.000000 0.000000 0.000000 0.000000 0.000000 -0.196405
#
#
# Mechanical properties :
#
#
# Convention : Reuss Voigt Hill
#
# Bulk Modulus (GPa) = 56.06877 58.20633 57.13755
# Shear Modulus (GPa) = 167.65531 15.39889 91.52710
#
# Velocity S-wave (km/s) = 9.84715 2.98433 7.27573
# Velocity P-wave (km/s) = 12.71679 6.74830 10.17979
#
# Compressibility (1/GPa) = 0.01783524
#
# Stress axis : x y z
#
# Youngs Moduli (GPa) = 63.89757 71.68445 69.52151
#
# Poissons Ratio (x) = 0.46429 0.14848
# Poissons Ratio (y) = 0.41386 0.31018
# Poissons Ratio (z) = 0.13647 0.31984
#
# Static dielectric constant tensor:
#      x y z
#    x 1.569390 0.000000 0.000000 
#    y 0.000000 1.617470 0.000000 
#    z 0.000000 0.000000 1.633890 
# 
# From -- ./inp_files/23146.got.cif
#   From: 2010.05.17/outbox.cif.g08.bks.cpg/sg67_12_cif.got.tgz:23146.got - 2010.06.03 18:28:57.
