data_PCOD9502636
_publ_section_title
;
Structure prediction by ZEFSAII (Michael W. Deem and Ramdas Pophale) SiO2 
 PCOD9502636
Probable space group: C M M A
;
_chemical_formula_sum "Si O2"
_cell_formula_units_Z 112
_cell_length_a 23.582117
_cell_length_b 18.671002
_cell_length_c 13.995112
_cell_angle_alpha 90.000000
_cell_angle_beta 90.000000
_cell_angle_gamma 90.000000
_cell_volume 6162.072356
_symmetry_space_group_name_H-M "C M M A"
_symmetry_group_IT_number 67
_symmetry_cell_setting 'orthorhombic'
loop_
_space_group_symop_operation_xyz
x,y,z
-x,1/2-y,z
x,-y,-z
-x,1/2+y,-z
-x,-y,-z
x,1/2+y,-z
-x,y,z
x,1/2-y,z
1/2+x,1/2+y,z
1/2-x,-y,z
1/2+x,1/2-y,-z
1/2-x,y,-z
1/2-x,1/2-y,-z
1/2+x,y,-z
1/2-x,1/2+y,z
1/2+x,-y,z
loop_
_atom_site_type_symbol
_atom_site_label
_atom_site_fract_x
_atom_site_fract_y
_atom_site_fract_z
Si Si1 0.566550 0.605351 0.159578
Si Si2 0.313738 0.837019 0.478815
Si Si3 0.147512 0.919682 0.021475
Si Si4 0.272119 0.834017 0.844842
Si Si5 0.836092 0.166143 0.266870
Si Si6 0.435232 0.059116 0.198510
Si Si7 0.367663 0.665712 0.679227
O O1 0.500000 0.620752 0.140175
O O2 0.600403 0.657462 0.229423
O O3 0.569195 0.526660 0.208495
O O4 0.607057 0.604452 0.065976
O O5 0.313553 0.750000 0.475480
O O6 0.250000 0.860819 0.500000
O O7 0.331034 0.863728 0.374072
O O8 0.350726 0.854157 0.571499
O O9 0.197938 0.871953 0.065143
O O10 0.103611 0.923882 0.108612
O O11 0.168429 0.000000 0.000000
O O12 0.266733 0.750000 0.868392
O O13 0.211356 0.863657 0.807495
O O14 0.313822 0.839826 0.751991
O O15 0.821575 0.250000 0.272560
O O16 0.500000 0.075768 0.176402
O O17 0.413387 0.109504 0.282784
O O18 0.384990 0.750000 0.682583
#
# Coordination Sequence:
#
# PCOD9502636 Si02
#       7
#    16  16  16  16  16  16  16
#     4  10  21  37  53  70 100 145 187 218 252 303
#     4   9  15  29  55  80 103 136 170 203 257 326
#     4   9  18  34  55  77 102 138 177 215 257 318
#     4   9  17  31  53  82 110 131 161 213 272 316
#     4  10  20  34  54  79 105 136 174 215 258 311
#     4   9  18  34  54  75 102 137 177 220 261 301
#     4   9  16  29  53  83 108 130 164 210 263 319
#
# _framework density 18.175702999999999
#
# number of rings (size 3 to 8) (size 9 to 14) (size 15 to 20)
#    0.000    2.714    1.429    0.429    0.000    3.429 
#    0.000   11.429    0.000    7.714    0.000    0.000 
#    0.000    0.000    0.000    0.000    0.000    0.000 
#
# Total GULP energy -311779.985538 kJ/mol
# GULP energy per Si atom -5567.499742 kJ/mol
# Density = 1.813433 g / cm^3
# Si number density = 18.175703 Si / 1000 Ang^3
#
#
#
# Elastic Constant Matrix: (Units=GPa)
#
#
# Indices 1 2 3 4 5 6 
#
# 1 81.2504 35.7401 49.6346 0.0000 0.0000 0.0000
# 2 35.7401 29.6099 45.4305 0.0000 0.0000 0.0000
# 3 49.6346 45.4305 101.8729 0.0000 0.0000 0.0000
# 4 0.0000 0.0000 0.0000 13.7586 0.0000 0.0000
# 5 0.0000 0.0000 0.0000 0.0000 13.6208 0.0000
# 6 0.0000 0.0000 0.0000 0.0000 0.0000 8.7822
#
#
#
# Elastic Compliance Matrix: (Units=1/GPa)
#
#
# Indices 1 2 3 4 5 6 
#
# 1 0.026831 -0.039042 0.004338 0.000000 0.000000 0.000000
# 2 -0.039042 0.163762 -0.054008 0.000000 0.000000 0.000000
# 3 0.004338 -0.054008 0.031787 0.000000 0.000000 0.000000
# 4 0.000000 0.000000 0.000000 0.072682 0.000000 0.000000
# 5 0.000000 0.000000 0.000000 0.000000 0.073417 0.000000
# 6 0.000000 0.000000 0.000000 0.000000 0.000000 0.113866
#
#
# Mechanical properties :
#
#
# Convention : Reuss Voigt Hill
#
# Bulk Modulus (GPa) = 22.24357 52.70484 37.47421
# Shear Modulus (GPa) = 7.41009 12.69420 10.05215
#
# Velocity S-wave (km/s) = 2.02133 2.64562 2.35426
# Velocity P-wave (km/s) = 4.20860 6.19619 5.29647
#
# Compressibility (1/GPa) = 0.04495681
#
# Stress axis : x y z
#
# Youngs Moduli (GPa) = 37.27009 6.10642 31.45901
#
# Poissons Ratio (x) = 0.23841 -0.13648
# Poissons Ratio (y) = 1.45511 1.69904
# Poissons Ratio (z) = -0.16169 0.32980
#
# Static dielectric constant tensor:
#      x y z
#    x 1.623570 0.000000 0.000000 
#    y 0.000000 1.651690 0.000000 
#    z 0.000000 0.000000 1.648530 
# 
# From -- ./inp_files/22146.got.cif
#   From: 2010.05.17/outbox.cif.g08.bks.cpg/sg67_12_cif.got.tgz:22146.got - 2010.06.03 18:28:57.
