data_PCOD9502350
_publ_section_title
;
Structure prediction by ZEFSAII (Michael W. Deem and Ramdas Pophale) SiO2 
 PCOD9502350
Probable space group: C M M A
;
_chemical_formula_sum "Si O2"
_cell_formula_units_Z 88
_cell_length_a 8.362260
_cell_length_b 16.569358
_cell_length_c 31.059014
_cell_angle_alpha 90.000000
_cell_angle_beta 90.000000
_cell_angle_gamma 90.000000
_cell_volume 4303.452488
_symmetry_space_group_name_H-M "C M M A"
_symmetry_group_IT_number 67
_symmetry_cell_setting 'orthorhombic'
loop_
_space_group_symop_operation_xyz
x,y,z
-x,1/2-y,z
x,-y,-z
-x,1/2+y,-z
-x,-y,-z
x,1/2+y,-z
-x,y,z
x,1/2-y,z
1/2+x,1/2+y,z
1/2-x,-y,z
1/2+x,1/2-y,-z
1/2-x,y,-z
1/2-x,1/2-y,-z
1/2+x,y,-z
1/2-x,1/2+y,z
1/2+x,-y,z
loop_
_atom_site_type_symbol
_atom_site_label
_atom_site_fract_x
_atom_site_fract_y
_atom_site_fract_z
Si Si1 0.190717 0.750000 0.048999
Si Si2 0.191638 0.912851 0.903852
Si Si3 0.807411 0.843924 0.635364
Si Si4 0.805268 0.659639 0.816565
Si Si5 0.193298 0.089900 0.273144
Si Si6 0.309668 0.156066 0.455031
O O1 0.251721 0.832773 0.071181
O O2 0.000000 0.750000 0.050635
O O3 0.250000 0.750000 0.000000
O O4 0.247564 0.900430 0.854156
O O5 0.000000 0.912948 0.904691
O O6 0.250000 0.000000 0.920125
O O7 0.757852 0.750000 0.636781
O O8 0.749222 0.883085 0.679697
O O9 0.747324 0.880097 0.590256
O O10 0.000000 0.846755 0.634740
O O11 0.756750 0.750000 0.828799
O O12 0.751554 0.640772 0.768137
O O13 0.000000 0.657455 0.815880
O O14 0.000000 0.094466 0.274223
O O15 0.250000 0.000000 0.265279
O O16 0.500000 0.157220 0.455567
O O17 0.249706 0.250000 0.454722
O O18 0.250000 0.119442 0.500000
#
# Coordination Sequence:
#
# PCOD9502350 Si02
#       6
#     8  16  16  16  16  16
#     4  12  26  46  70  98 132 172 220 272 325 382
#     4  11  22  40  66  98 134 174 217 266 321 379
#     4   9  17  30  48  70  96 130 173 217 262 320
#     4   9  17  33  59  87 117 156 200 245 294 353
#     4  10  20  33  51  75 106 144 185 227 276 333
#     4   9  16  26  43  68  96 125 159 206 263 322
#
# _framework density 20.448696999999999
#
# number of rings (size 3 to 8) (size 9 to 14) (size 15 to 20)
#    0.000    2.182    0.909    3.000    0.000    5.455 
#    0.000    2.727    0.000    1.636    0.000    3.818 
#    0.000    0.000    0.000    0.000    0.000    0.000 
#
# Total GULP energy -245459.572471 kJ/mol
# GULP energy per Si atom -5578.626647 kJ/mol
# Density = 2.040215 g / cm^3
# Si number density = 20.448697 Si / 1000 Ang^3
#
#
#
# Elastic Constant Matrix: (Units=GPa)
#
#
# Indices 1 2 3 4 5 6 
#
# 1 35.6333 19.5829 26.8169 0.0000 0.0000 0.0000
# 2 19.5829 102.0133 51.4835 0.0000 0.0000 0.0000
# 3 26.8169 51.4835 148.1914 0.0000 0.0000 0.0000
# 4 0.0000 0.0000 0.0000 5.0096 0.0000 0.0000
# 5 0.0000 0.0000 0.0000 0.0000 21.3155 0.0000
# 6 0.0000 0.0000 0.0000 0.0000 0.0000 24.0562
#
#
#
# Elastic Compliance Matrix: (Units=1/GPa)
#
#
# Indices 1 2 3 4 5 6 
#
# 1 0.033867 -0.004133 -0.004693 0.000000 0.000000 0.000000
# 2 -0.004133 0.012391 -0.003557 0.000000 0.000000 0.000000
# 3 -0.004693 -0.003557 0.008833 0.000000 0.000000 0.000000
# 4 0.000000 0.000000 0.000000 0.199617 0.000000 0.000000
# 5 0.000000 0.000000 0.000000 0.000000 0.046914 0.000000
# 6 0.000000 0.000000 0.000000 0.000000 0.000000 0.041569
#
#
# Mechanical properties :
#
#
# Convention : Reuss Voigt Hill
#
# Bulk Modulus (GPa) = 32.97545 53.51164 43.24354
# Shear Modulus (GPa) = 13.22525 22.60656 17.91591
#
# Velocity S-wave (km/s) = 2.54589 3.32855 2.96318
# Velocity P-wave (km/s) = 4.98027 6.40296 5.73589
#
# Compressibility (1/GPa) = 0.03032559
#
# Stress axis : x y z
#
# Youngs Moduli (GPa) = 29.52759 80.70313 113.21235
#
# Poissons Ratio (x) = 0.33354 0.53128
# Poissons Ratio (y) = 0.12203 0.40269
# Poissons Ratio (z) = 0.13857 0.28706
#
# Static dielectric constant tensor:
#      x y z
#    x 1.712660 0.000000 0.000000 
#    y 0.000000 1.730110 0.000000 
#    z 0.000000 0.000000 1.765590 
# 
# From -- ./inp_files/45212.got.cif
#   From: 2010.05.17/outbox.cif.g08.bks.cpg/sg67_23_cif.got.tgz:45212.got - 2010.06.03 18:28:57.
