data_PCOD9502063
_publ_section_title
;
Structure prediction by ZEFSAII (Michael W. Deem and Ramdas Pophale) SiO2 
 PCOD9502063
Probable space group: C M M A
;
_chemical_formula_sum "Si O2"
_cell_formula_units_Z 96
_cell_length_a 9.361985
_cell_length_b 22.207142
_cell_length_c 24.301131
_cell_angle_alpha 90.000000
_cell_angle_beta 90.000000
_cell_angle_gamma 90.000000
_cell_volume 5052.276344
_symmetry_space_group_name_H-M "C M M A"
_symmetry_group_IT_number 67
_symmetry_cell_setting 'orthorhombic'
loop_
_space_group_symop_operation_xyz
x,y,z
-x,1/2-y,z
x,-y,-z
-x,1/2+y,-z
-x,-y,-z
x,1/2+y,-z
-x,y,z
x,1/2-y,z
1/2+x,1/2+y,z
1/2-x,-y,z
1/2+x,1/2-y,-z
1/2-x,y,-z
1/2-x,1/2-y,-z
1/2+x,y,-z
1/2-x,1/2+y,z
1/2+x,-y,z
loop_
_atom_site_type_symbol
_atom_site_label
_atom_site_fract_x
_atom_site_fract_y
_atom_site_fract_z
Si Si1 0.832957 0.134129 0.732654
Si Si2 0.329788 0.368722 0.057564
Si Si3 0.330036 0.561931 0.626310
Si Si4 0.831460 0.441275 0.839643
Si Si5 0.831509 0.750000 0.130483
Si Si6 0.169922 0.250000 0.246969
Si Si7 0.327995 0.817475 0.558646
O O1 0.804903 0.080569 0.689832
O O2 0.811832 0.110674 0.794572
O O3 0.732311 0.190838 0.723917
O O4 0.000000 0.151583 0.725724
O O5 0.500000 0.373992 0.048552
O O6 0.282715 0.420427 0.100074
O O7 0.306045 0.307539 0.091869
O O8 0.250000 0.369215 0.000000
O O9 0.500000 0.553037 0.618515
O O10 0.250000 0.500000 0.611917
O O11 0.288254 0.622932 0.593298
O O12 0.750000 0.500000 0.821252
O O13 0.000000 0.452970 0.842171
O O14 0.736600 0.750000 0.185144
O O15 0.000000 0.750000 0.147035
O O16 0.000000 0.250000 0.245021
O O17 0.500000 0.819613 0.551936
O O18 0.295264 0.750000 0.582048
O O19 0.250000 0.820909 0.500000
#
# Coordination Sequence:
#
# PCOD9502063 Si02
#       7
#    16  16  16  16   8   8  16
#     4  10  21  40  62  82 114 157 191 229 289 354
#     4  10  21  36  56  80 106 140 179 224 277 338
#     4  10  22  38  62  91 121 161 204 249 297 354
#     4  10  21  37  57  79 105 144 187 226 279 337
#     4  10  19  39  61  78 108 143 179 219 276 353
#     4  12  24  35  57  92 118 143 186 241 289 339
#     4   9  19  37  60  89 121 161 210 251 297 351
#
# _framework density 19.001335000000001
#
# number of rings (size 3 to 8) (size 9 to 14) (size 15 to 20)
#    0.000    2.000    1.667    1.500    1.167    4.000 
#    0.000    3.333    0.000    0.000    0.000    0.000 
#    0.000    0.000    0.000    0.000    0.000    0.000 
#
# Total GULP energy -267844.681341 kJ/mol
# GULP energy per Si atom -5580.097528 kJ/mol
# Density = 1.895809 g / cm^3
# Si number density = 19.001335 Si / 1000 Ang^3
#
#
#
# Elastic Constant Matrix: (Units=GPa)
#
#
# Indices 1 2 3 4 5 6 
#
# 1 40.0340 63.8276 22.9347 0.0000 0.0000 0.0000
# 2 63.8276 130.9458 37.1563 0.0000 0.0000 0.0000
# 3 22.9347 37.1563 68.4457 0.0000 0.0000 0.0000
# 4 0.0000 0.0000 0.0000 15.7959 0.0000 0.0000
# 5 0.0000 0.0000 0.0000 0.0000 24.5868 0.0000
# 6 0.0000 0.0000 0.0000 0.0000 0.0000 33.6265
#
#
#
# Elastic Compliance Matrix: (Units=1/GPa)
#
#
# Indices 1 2 3 4 5 6 
#
# 1 0.117365 -0.054434 -0.009777 0.000000 0.000000 0.000000
# 2 -0.054434 0.034274 -0.000366 0.000000 0.000000 0.000000
# 3 -0.009777 -0.000366 0.018085 0.000000 0.000000 0.000000
# 4 0.000000 0.000000 0.000000 0.063307 0.000000 0.000000
# 5 0.000000 0.000000 0.000000 0.000000 0.040672 0.000000
# 6 0.000000 0.000000 0.000000 0.000000 0.000000 0.029738
#
#
# Mechanical properties :
#
#
# Convention : Reuss Voigt Hill
#
# Bulk Modulus (GPa) = 24.64851 54.14029 39.39440
# Shear Modulus (GPa) = 11.20778 22.50232 16.85505
#
# Velocity S-wave (km/s) = 2.43130 3.44503 2.98156
# Velocity P-wave (km/s) = 4.56966 6.66176 5.71230
#
# Compressibility (1/GPa) = 0.04057041
#
# Stress axis : x y z
#
# Youngs Moduli (GPa) = 8.52040 29.17700 55.29489
#
# Poissons Ratio (x) = 1.58822 0.54061
# Poissons Ratio (y) = 0.46380 0.02024
# Poissons Ratio (z) = 0.08330 0.01068
#
# Static dielectric constant tensor:
#      x y z
#    x 1.625400 0.000000 0.000000 
#    y 0.000000 1.682110 0.000000 
#    z 0.000000 0.000000 1.655510 
# 
# From -- ./inp_files/40835.got.cif
#   From: 2010.05.17/outbox.cif.g08.bks.cpg/sg67_21_cif.got.tgz:40835.got - 2010.06.03 18:28:57.
