data_PCOD9502705
_publ_section_title
;
Structure prediction by ZEFSAII (Michael W. Deem and Ramdas Pophale) SiO2 
 PCOD9502705
Probable space group: C M M A
;
_chemical_formula_sum "Si O2"
_cell_formula_units_Z 96
_cell_length_a 15.113052
_cell_length_b 19.724420
_cell_length_c 15.020034
_cell_angle_alpha 90.000000
_cell_angle_beta 90.000000
_cell_angle_gamma 90.000000
_cell_volume 4477.414836
_symmetry_space_group_name_H-M "C M M A"
_symmetry_group_IT_number 67
_symmetry_cell_setting 'orthorhombic'
loop_
_space_group_symop_operation_xyz
x,y,z
-x,1/2-y,z
x,-y,-z
-x,1/2+y,-z
-x,-y,-z
x,1/2+y,-z
-x,y,z
x,1/2-y,z
1/2+x,1/2+y,z
1/2-x,-y,z
1/2+x,1/2-y,-z
1/2-x,y,-z
1/2-x,1/2-y,-z
1/2+x,y,-z
1/2-x,1/2+y,z
1/2+x,-y,z
loop_
_atom_site_type_symbol
_atom_site_label
_atom_site_fract_x
_atom_site_fract_y
_atom_site_fract_z
Si Si1 0.601577 0.829778 0.519140
Si Si2 0.200724 0.172417 0.695334
Si Si3 0.835340 0.089122 0.861721
Si Si4 0.370196 0.556111 0.157619
Si Si5 0.599577 0.866968 0.322413
Si Si6 0.099670 0.326266 0.022042
O O1 0.500000 0.834334 0.552053
O O2 0.616868 0.750000 0.494271
O O3 0.669975 0.847996 0.596351
O O4 0.607582 0.872576 0.428739
O O5 0.173292 0.250000 0.707428
O O6 0.151723 0.127006 0.768432
O O7 0.307828 0.168982 0.704715
O O8 0.734012 0.066400 0.855222
O O9 0.844922 0.140188 0.943280
O O10 0.890850 0.019952 0.874007
O O11 0.396429 0.566634 0.260351
O O12 0.404823 0.620300 0.102498
O O13 0.500000 0.836483 0.307547
O O14 0.128783 0.250000 0.047640
O O15 0.000000 0.321222 0.986434
#
# Coordination Sequence:
#
# PCOD9502705 Si02
#       6
#    16  16  16  16  16  16
#     4   9  18  33  54  82 117 155 194 240 294 348
#     4  10  20  35  58  87 118 154 196 244 296 346
#     4  10  22  40  60  82 112 152 193 234 283 343
#     4  10  22  40  60  83 113 151 193 234 284 344
#     4  10  20  34  55  85 118 153 195 240 291 352
#     4  11  24  39  58  87 117 145 184 236 290 344
#
# _framework density 21.440943999999998
#
# number of rings (size 3 to 8) (size 9 to 14) (size 15 to 20)
#    0.000    2.000    0.000    3.000    0.000   11.000 
#    0.000    4.167    0.000    6.000    0.000    0.000 
#    0.000    0.000    0.000    0.000    0.000    0.000 
#
# Total GULP energy -267496.334152 kJ/mol
# GULP energy per Si atom -5572.840295 kJ/mol
# Density = 2.139214 g / cm^3
# Si number density = 21.440944 Si / 1000 Ang^3
#
#
#
# Elastic Constant Matrix: (Units=GPa)
#
#
# Indices 1 2 3 4 5 6 
#
# 1 71.7195 26.1528 29.9828 0.0000 0.0000 0.0000
# 2 26.1528 120.7798 57.9564 0.0000 0.0000 0.0000
# 3 29.9828 57.9564 99.9125 0.0000 0.0000 0.0000
# 4 0.0000 0.0000 0.0000 17.2323 0.0000 0.0000
# 5 0.0000 0.0000 0.0000 0.0000 24.8516 0.0000
# 6 0.0000 0.0000 0.0000 0.0000 0.0000 -11.9516
#
#
#
# Elastic Compliance Matrix: (Units=1/GPa)
#
#
# Indices 1 2 3 4 5 6 
#
# 1 0.016170 -0.001625 -0.003910 0.000000 0.000000 0.000000
# 2 -0.001625 0.011636 -0.006262 0.000000 0.000000 0.000000
# 3 -0.003910 -0.006262 0.014815 0.000000 0.000000 0.000000
# 4 0.000000 0.000000 0.000000 0.058031 0.000000 0.000000
# 5 0.000000 0.000000 0.000000 0.000000 0.040239 0.000000
# 6 0.000000 0.000000 0.000000 0.000000 0.000000 -0.083671
#
#
# Mechanical properties :
#
#
# Convention : Reuss Voigt Hill
#
# Bulk Modulus (GPa) = 52.55754 57.84399 55.20076
# Shear Modulus (GPa) = 57.36769 17.91443 37.64106
#
# Velocity S-wave (km/s) = 5.17825 2.89368 4.19450
# Velocity P-wave (km/s) = 7.76648 6.18072 7.01853
#
# Compressibility (1/GPa) = 0.01902677
#
# Stress axis : x y z
#
# Youngs Moduli (GPa) = 61.84141 85.93732 67.50106
#
# Poissons Ratio (x) = 0.13967 0.26392
# Poissons Ratio (y) = 0.10051 0.42271
# Poissons Ratio (z) = 0.24179 0.53816
#
# Static dielectric constant tensor:
#      x y z
#    x 1.873710 0.000000 0.000000 
#    y 0.000000 1.791420 0.000000 
#    z 0.000000 0.000000 1.770150 
# 
# From -- ./inp_files/27176.got.cif
#   From: 2010.05.17/outbox.cif.g08.bks.cpg/sg67_14_cif.got.tgz:27176.got - 2010.06.03 18:28:57.
