data_PCOD9502842
_publ_section_title
;
Structure prediction by ZEFSAII (Michael W. Deem and Ramdas Pophale) SiO2 
 PCOD9502842
Probable space group: C M M A
;
_chemical_formula_sum "Si O2"
_cell_formula_units_Z 80
_cell_length_a 10.133817
_cell_length_b 15.353225
_cell_length_c 24.493426
_cell_angle_alpha 90.000000
_cell_angle_beta 90.000000
_cell_angle_gamma 90.000000
_cell_volume 3810.853099
_symmetry_space_group_name_H-M "C M M A"
_symmetry_group_IT_number 67
_symmetry_cell_setting 'orthorhombic'
loop_
_space_group_symop_operation_xyz
x,y,z
-x,1/2-y,z
x,-y,-z
-x,1/2+y,-z
-x,-y,-z
x,1/2+y,-z
-x,y,z
x,1/2-y,z
1/2+x,1/2+y,z
1/2-x,-y,z
1/2+x,1/2-y,-z
1/2-x,y,-z
1/2-x,1/2-y,-z
1/2+x,y,-z
1/2-x,1/2+y,z
1/2+x,-y,z
loop_
_atom_site_type_symbol
_atom_site_label
_atom_site_fract_x
_atom_site_fract_y
_atom_site_fract_z
Si Si1 0.000000 0.356716 0.083917
Si Si2 0.353184 0.354586 0.247807
Si Si3 0.143913 0.147331 0.458498
Si Si4 0.279907 0.143395 0.126761
Si Si5 0.841720 0.082857 0.339613
Si Si6 0.000000 0.856471 0.041476
O O1 0.868224 0.384829 0.114444
O O2 0.000000 0.250000 0.083298
O O3 0.000000 0.385862 0.020918
O O4 0.500000 0.384349 0.266626
O O5 0.357334 0.250000 0.246341
O O6 0.329916 0.385838 0.185875
O O7 0.231392 0.379164 0.286441
O O8 0.134956 0.250000 0.470625
O O9 0.250000 0.109438 0.500000
O O10 0.174029 0.139445 0.394412
O O11 0.000000 0.107067 0.467298
O O12 0.282796 0.250000 0.127568
O O13 0.373727 0.116724 0.076962
O O14 0.000000 0.069750 0.331624
O O15 0.750000 0.000000 0.351689
O O16 0.000000 0.750000 0.039706
#
# Coordination Sequence:
#
# PCOD9502842 Si02
#       6
#     8  16  16  16  16   8
#     4   9  16  22  36  62  95 135 174 213 266 329
#     4  10  20  35  55  78 108 146 188 233 281 334
#     4   9  19  37  61  89 118 149 185 224 268 320
#     4   9  16  26  40  64  97 135 177 218 267 328
#     4  11  24  40  58  82 114 149 190 236 280 329
#     4   9  14  24  38  58  95 137 172 213 266 327
#
# _framework density 20.992674999999998
#
# number of rings (size 3 to 8) (size 9 to 14) (size 15 to 20)
#    0.000    2.400    1.000    1.800    1.400    5.600 
#    0.000    4.000    0.000    0.000    0.000    0.000 
#    0.000    4.800    0.000    0.000    0.000    0.000 
#
# Total GULP energy -223102.789163 kJ/mol
# GULP energy per Si atom -5577.569729 kJ/mol
# Density = 2.094489 g / cm^3
# Si number density = 20.992675 Si / 1000 Ang^3
#
#
#
# Elastic Constant Matrix: (Units=GPa)
#
#
# Indices 1 2 3 4 5 6 
#
# 1 175.3124 9.3613 66.6126 0.0000 0.0000 0.0000
# 2 9.3613 16.5573 0.7225 0.0000 0.0000 0.0000
# 3 66.6126 0.7225 103.5170 0.0000 0.0000 0.0000
# 4 0.0000 0.0000 0.0000 -49.2193 0.0000 0.0000
# 5 0.0000 0.0000 0.0000 0.0000 45.4842 0.0000
# 6 0.0000 0.0000 0.0000 0.0000 0.0000 -6.9250
#
#
#
# Elastic Compliance Matrix: (Units=1/GPa)
#
#
# Indices 1 2 3 4 5 6 
#
# 1 0.007833 -0.004210 -0.005011 0.000000 0.000000 0.000000
# 2 -0.004210 0.062678 0.002272 0.000000 0.000000 0.000000
# 3 -0.005011 0.002272 0.012869 0.000000 0.000000 0.000000
# 4 0.000000 0.000000 0.000000 -0.020317 0.000000 0.000000
# 5 0.000000 0.000000 0.000000 0.000000 0.021986 0.000000
# 6 0.000000 0.000000 0.000000 0.000000 0.000000 -0.144405
#
#
# Mechanical properties :
#
#
# Convention : Reuss Voigt Hill
#
# Bulk Modulus (GPa) = 14.39250 49.86438 32.12844
# Shear Modulus (GPa) = -224.24002 12.44734 -105.89634
#
# Velocity S-wave (km/s) = -10.34650 2.43767 -7.11013
# Velocity P-wave (km/s) = 11.65601 5.63274 7.21578
#
# Compressibility (1/GPa) = 0.06948065
#
# Stress axis : x y z
#
# Youngs Moduli (GPa) = 127.66599 15.95467 77.70621
#
# Poissons Ratio (x) = 0.06717 0.38939
# Poissons Ratio (y) = 0.53747 -0.17652
# Poissons Ratio (z) = 0.63974 -0.03624
#
# Static dielectric constant tensor:
#      x y z
#    x 0.612070 0.000000 0.000000 
#    y 0.000000 1.803300 0.000000 
#    z 0.000000 0.000000 1.737280 
# 
# From -- ./inp_files/37768.got.cif
#   From: 2010.05.17/outbox.cif.g08.bks.cpg/sg67_19_cif.got.tgz:37768.got - 2010.06.03 18:28:57.
