data_PCOD9502345
_publ_section_title
;
Structure prediction by ZEFSAII (Michael W. Deem and Ramdas Pophale) SiO2 
 PCOD9502345
Probable space group: C M M A
;
_chemical_formula_sum "Si O2"
_cell_formula_units_Z 112
_cell_length_a 18.621876
_cell_length_b 7.833818
_cell_length_c 37.431275
_cell_angle_alpha 90.000000
_cell_angle_beta 90.000000
_cell_angle_gamma 90.000000
_cell_volume 5460.488898
_symmetry_space_group_name_H-M "C M M A"
_symmetry_group_IT_number 67
_symmetry_cell_setting 'orthorhombic'
loop_
_space_group_symop_operation_xyz
x,y,z
-x,1/2-y,z
x,-y,-z
-x,1/2+y,-z
-x,-y,-z
x,1/2+y,-z
-x,y,z
x,1/2-y,z
1/2+x,1/2+y,z
1/2-x,-y,z
1/2+x,1/2-y,-z
1/2-x,y,-z
1/2-x,1/2-y,-z
1/2+x,y,-z
1/2-x,1/2+y,z
1/2+x,-y,z
loop_
_atom_site_type_symbol
_atom_site_label
_atom_site_fract_x
_atom_site_fract_y
_atom_site_fract_z
Si Si1 0.333667 0.455753 0.750498
Si Si2 0.582413 0.455468 0.039663
Si Si3 0.081538 0.545419 0.820074
Si Si4 0.833355 0.544349 0.608963
Si Si5 0.333209 0.453426 0.108671
Si Si6 0.417576 0.544563 0.460372
Si Si7 0.916951 0.540962 0.679645
O O1 0.338712 0.250000 0.750594
O O2 0.250000 0.500000 0.750384
O O3 0.373536 0.520314 0.786116
O O4 0.373965 0.516103 0.714766
O O5 0.500000 0.518334 0.043040
O O6 0.580245 0.250000 0.041856
O O7 0.630868 0.520893 0.072122
O O8 0.608804 0.500000 0.000000
O O9 0.077194 0.750000 0.816057
O O10 0.122698 0.511381 0.856796
O O11 0.000000 0.478435 0.820864
O O12 0.839017 0.750000 0.608760
O O13 0.750000 0.500000 0.611399
O O14 0.869142 0.480701 0.572199
O O15 0.877098 0.483633 0.643645
O O16 0.338028 0.250000 0.107637
O O17 0.250000 0.500000 0.111425
O O18 0.390995 0.500000 0.500000
O O19 0.500000 0.481791 0.457104
O O20 0.419871 0.750000 0.458100
O O21 0.916507 0.750000 0.679626
O O22 0.000000 0.488086 0.680500
#
# Coordination Sequence:
#
# PCOD9502345 Si02
#       7
#    16  16  16  16  16  16  16
#     4  10  20  34  54  80 109 139 172 213 260 310
#     4   9  19  36  57  80 106 138 177 220 266 317
#     4  10  21  37  57  81 108 140 180 222 264 314
#     4  10  20  33  51  75 102 132 167 208 254 305
#     4  11  23  38  56  80 111 145 182 223 268 317
#     4   9  18  33  52  73  97 128 168 210 251 299
#     4   9  17  32  55  78 100 132 174 215 254 300
#
# _framework density 20.510984000000001
#
# number of rings (size 3 to 8) (size 9 to 14) (size 15 to 20)
#    0.000    2.286    0.000    2.571    0.000    8.286 
#    0.000    4.286    0.000    3.429    0.000    0.000 
#    0.000    0.000    0.000    0.000    0.000    0.000 
#
# Total GULP energy -312804.241716 kJ/mol
# GULP energy per Si atom -5585.790031 kJ/mol
# Density = 2.046430 g / cm^3
# Si number density = 20.510984 Si / 1000 Ang^3
#
#
#
# Elastic Constant Matrix: (Units=GPa)
#
#
# Indices 1 2 3 4 5 6 
#
# 1 194.0336 3.3940 147.5167 0.0000 0.0000 0.0000
# 2 3.3940 24.2380 8.6799 0.0000 0.0000 0.0000
# 3 147.5167 8.6799 241.6069 0.0000 0.0000 0.0000
# 4 0.0000 0.0000 0.0000 15.9196 0.0000 0.0000
# 5 0.0000 0.0000 0.0000 0.0000 15.1173 0.0000
# 6 0.0000 0.0000 0.0000 0.0000 0.0000 23.0853
#
#
#
# Elastic Compliance Matrix: (Units=1/GPa)
#
#
# Indices 1 2 3 4 5 6 
#
# 1 0.009633 0.000767 -0.005909 0.000000 0.000000 0.000000
# 2 0.000767 0.041856 -0.001972 0.000000 0.000000 0.000000
# 3 -0.005909 -0.001972 0.007818 0.000000 0.000000 0.000000
# 4 0.000000 0.000000 0.000000 0.062816 0.000000 0.000000
# 5 0.000000 0.000000 0.000000 0.000000 0.066149 0.000000
# 6 0.000000 0.000000 0.000000 0.000000 0.000000 0.043318
#
#
# Mechanical properties :
#
#
# Convention : Reuss Voigt Hill
#
# Bulk Modulus (GPa) = 22.18331 86.56218 54.37275
# Shear Modulus (GPa) = 19.16857 30.84362 25.00610
#
# Velocity S-wave (km/s) = 3.06036 3.88204 3.49543
# Velocity P-wave (km/s) = 4.82976 7.89862 6.54655
#
# Compressibility (1/GPa) = 0.04507893
#
# Stress axis : x y z
#
# Youngs Moduli (GPa) = 103.81338 23.89119 127.91665
#
# Poissons Ratio (x) = -0.01833 0.75585
# Poissons Ratio (y) = -0.07964 0.25227
# Poissons Ratio (z) = 0.61343 0.04712
#
# Static dielectric constant tensor:
#      x y z
#    x 1.686890 0.000000 0.000000 
#    y 0.000000 1.764420 0.000000 
#    z 0.000000 0.000000 1.717120 
# 
# From -- ./inp_files/45712.got.cif
#   From: 2010.05.17/outbox.cif.g08.bks.cpg/sg67_23_cif.got.tgz:45712.got - 2010.06.03 18:28:57.
