data_PCOD9502656
_publ_section_title
;
Structure prediction by ZEFSAII (Michael W. Deem and Ramdas Pophale) SiO2 
 PCOD9502656
Probable space group: C M M A
;
_chemical_formula_sum "Si O2"
_cell_formula_units_Z 112
_cell_length_a 15.234389
_cell_length_b 27.303384
_cell_length_c 12.378287
_cell_angle_alpha 90.000000
_cell_angle_beta 90.000000
_cell_angle_gamma 90.000000
_cell_volume 5148.753093
_symmetry_space_group_name_H-M "C M M A"
_symmetry_group_IT_number 67
_symmetry_cell_setting 'orthorhombic'
loop_
_space_group_symop_operation_xyz
x,y,z
-x,1/2-y,z
x,-y,-z
-x,1/2+y,-z
-x,-y,-z
x,1/2+y,-z
-x,y,z
x,1/2-y,z
1/2+x,1/2+y,z
1/2-x,-y,z
1/2+x,1/2-y,-z
1/2-x,y,-z
1/2-x,1/2-y,-z
1/2+x,y,-z
1/2-x,1/2+y,z
1/2+x,-y,z
loop_
_atom_site_type_symbol
_atom_site_label
_atom_site_fract_x
_atom_site_fract_y
_atom_site_fract_z
Si Si1 0.402544 0.344404 0.333846
Si Si2 0.397285 0.060473 0.660668
Si Si3 0.902083 0.878844 0.876635
Si Si4 0.104878 0.544769 0.289384
Si Si5 0.224676 0.694419 0.773630
Si Si6 0.157322 0.659847 0.556174
Si Si7 0.151561 0.550543 0.045305
O O1 0.500000 0.337943 0.285462
O O2 0.384361 0.402817 0.344765
O O3 0.321727 0.322681 0.265243
O O4 0.404379 0.325427 0.457271
O O5 0.500000 0.061083 0.629998
O O6 0.390633 0.078453 0.785635
O O7 0.353754 0.103579 0.592932
O O8 0.364699 0.004830 0.652020
O O9 0.822924 0.841352 0.857732
O O10 0.000000 0.857892 0.858201
O O11 0.897303 0.903699 0.993159
O O12 0.150140 0.549100 0.173392
O O13 0.000000 0.538063 0.271062
O O14 0.228646 0.750000 0.810718
O O15 0.162048 0.689676 0.667157
O O16 0.250000 0.666055 0.500000
O O17 0.112107 0.500000 0.000000
O O18 0.250000 0.553270 0.000000
#
# Coordination Sequence:
#
# PCOD9502656 Si02
#       7
#    16  16  16  16  16  16  16
#     4  10  21  37  57  83 117 157 199 244 300 362
#     4   9  17  31  52  78 112 153 193 233 281 342
#     4  10  20  36  59  87 121 156 193 242 297 350
#     4  10  20  34  54  80 115 154 193 235 283 350
#     4  10  22  41  62  86 115 147 196 258 310 353
#     4   9  19  35  53  80 113 155 197 246 297 352
#     4  11  21  33  54  87 121 158 195 236 283 347
#
# _framework density 21.752839999999999
#
# number of rings (size 3 to 8) (size 9 to 14) (size 15 to 20)
#    0.000    2.143    1.429    1.714    0.000    4.857 
#    0.000    4.286    0.000    3.857    0.000    4.000 
#    0.000    0.000    0.000    0.000    0.000    0.000 
#
# Total GULP energy -312607.494307 kJ/mol
# GULP energy per Si atom -5582.276684 kJ/mol
# Density = 2.170333 g / cm^3
# Si number density = 21.752840 Si / 1000 Ang^3
#
#
#
# Elastic Constant Matrix: (Units=GPa)
#
#
# Indices 1 2 3 4 5 6 
#
# 1 87.9890 32.5888 -1.7349 0.0000 0.0000 0.0000
# 2 32.5888 87.8992 -4.6850 0.0000 0.0000 0.0000
# 3 -1.7349 -4.6850 29.0286 0.0000 0.0000 0.0000
# 4 0.0000 0.0000 0.0000 2.9485 0.0000 0.0000
# 5 0.0000 0.0000 0.0000 0.0000 48.8186 0.0000
# 6 0.0000 0.0000 0.0000 0.0000 0.0000 22.3102
#
#
#
# Elastic Compliance Matrix: (Units=1/GPa)
#
#
# Indices 1 2 3 4 5 6 
#
# 1 0.013174 -0.004884 -0.000001 0.000000 0.000000 0.000000
# 2 -0.004884 0.013286 0.001852 0.000000 0.000000 0.000000
# 3 -0.000001 0.001852 0.034748 0.000000 0.000000 0.000000
# 4 0.000000 0.000000 0.000000 0.339152 0.000000 0.000000
# 5 0.000000 0.000000 0.000000 0.000000 0.020484 0.000000
# 6 0.000000 0.000000 0.000000 0.000000 0.000000 0.044823
#
#
# Mechanical properties :
#
#
# Convention : Reuss Voigt Hill
#
# Bulk Modulus (GPa) = 18.13493 28.58385 23.35939
# Shear Modulus (GPa) = 10.20172 26.73199 18.46685
#
# Velocity S-wave (km/s) = 2.16795 3.50936 2.91682
# Velocity P-wave (km/s) = 3.82382 5.43964 4.70166
#
# Compressibility (1/GPa) = 0.05514221
#
# Stress axis : x y z
#
# Youngs Moduli (GPa) = 75.90663 75.26563 28.77886
#
# Poissons Ratio (x) = 0.36762 0.00003
# Poissons Ratio (y) = 0.37076 -0.05331
# Poissons Ratio (z) = 0.00007 -0.13942
#
# Static dielectric constant tensor:
#      x y z
#    x 1.847030 0.000000 0.000000 
#    y 0.000000 1.801260 0.000000 
#    z 0.000000 0.000000 1.807340 
# 
# From -- ./inp_files/27743.got.cif
#   From: 2010.05.17/outbox.cif.g08.bks.cpg/sg67_14_cif.got.tgz:27743.got - 2010.06.03 18:28:57.
