data_PCOD9502928
_publ_section_title
;
Structure prediction by ZEFSAII (Michael W. Deem and Ramdas Pophale) SiO2 
 PCOD9502928
Probable space group: C M M A
;
_chemical_formula_sum "Si O2"
_cell_formula_units_Z 64
_cell_length_a 14.063277
_cell_length_b 15.292119
_cell_length_c 11.826398
_cell_angle_alpha 90.000000
_cell_angle_beta 90.000000
_cell_angle_gamma 90.000000
_cell_volume 2543.353287
_symmetry_space_group_name_H-M "C M M A"
_symmetry_group_IT_number 67
_symmetry_cell_setting 'orthorhombic'
loop_
_space_group_symop_operation_xyz
x,y,z
-x,1/2-y,z
x,-y,-z
-x,1/2+y,-z
-x,-y,-z
x,1/2+y,-z
-x,y,z
x,1/2-y,z
1/2+x,1/2+y,z
1/2-x,-y,z
1/2+x,1/2-y,-z
1/2-x,y,-z
1/2-x,1/2-y,-z
1/2+x,y,-z
1/2-x,1/2+y,z
1/2+x,-y,z
loop_
_atom_site_type_symbol
_atom_site_label
_atom_site_fract_x
_atom_site_fract_y
_atom_site_fract_z
Si Si1 0.614038 0.250000 0.298273
Si Si2 0.384589 0.343584 0.706111
Si Si3 0.606935 0.566625 0.087541
Si Si4 0.860067 0.250000 0.971049
Si Si5 0.386805 0.404229 0.457981
O O1 0.500000 0.250000 0.321734
O O2 0.625402 0.250000 0.163697
O O3 0.650278 0.159756 0.358331
O O4 0.500000 0.343830 0.721817
O O5 0.346876 0.250000 0.744546
O O6 0.347245 0.417879 0.789924
O O7 0.371991 0.351898 0.573834
O O8 0.500000 0.532035 0.109236
O O9 0.651274 0.500000 0.000000
O O10 0.601647 0.661061 0.027384
O O11 0.750000 0.250000 0.000000
O O12 0.352754 0.500000 0.500000
O O13 0.500000 0.416757 0.434754
#
# Coordination Sequence:
#
# PCOD9502928 Si02
#       5
#     8  16  16   8  16
#     4  10  20  35  56  85 124 161 204 257 306 368
#     4   9  15  28  50  79 114 144 179 237 306 363
#     4  10  21  37  62  90 113 149 206 266 313 359
#     4  12  26  41  56  80 124 173 207 246 305 376
#     4   9  17  28  49  84 119 148 182 242 315 365
#
# _framework density 25.163627999999999
#
# number of rings (size 3 to 8) (size 9 to 14) (size 15 to 20)
#    0.000    2.250    2.500    1.125    3.500    0.500 
#    0.000    0.000    0.000    3.000    0.000    1.750 
#    0.000    0.000    0.000    0.000    0.000    0.500 
#
# Total GULP energy -178656.937194 kJ/mol
# GULP energy per Si atom -5583.029287 kJ/mol
# Density = 2.510635 g / cm^3
# Si number density = 25.163628 Si / 1000 Ang^3
#
#
#
# Elastic Constant Matrix: (Units=GPa)
#
#
# Indices 1 2 3 4 5 6 
#
# 1 79.5544 -9.4713 -32.5476 0.0000 0.0000 0.0000
# 2 -9.4713 95.0556 -0.7447 0.0000 0.0000 0.0000
# 3 -32.5476 -0.7447 98.4395 0.0000 0.0000 0.0000
# 4 0.0000 0.0000 0.0000 31.9387 0.0000 0.0000
# 5 0.0000 0.0000 0.0000 0.0000 7.8470 0.0000
# 6 0.0000 0.0000 0.0000 0.0000 0.0000 -2.1102
#
#
#
# Elastic Compliance Matrix: (Units=1/GPa)
#
#
# Indices 1 2 3 4 5 6 
#
# 1 0.014749 0.001508 0.004888 0.000000 0.000000 0.000000
# 2 0.001508 0.010675 0.000579 0.000000 0.000000 0.000000
# 3 0.004888 0.000579 0.011779 0.000000 0.000000 0.000000
# 4 0.000000 0.000000 0.000000 0.031310 0.000000 0.000000
# 5 0.000000 0.000000 0.000000 0.000000 0.127437 0.000000
# 6 0.000000 0.000000 0.000000 0.000000 0.000000 -0.473881
#
#
# Mechanical properties :
#
#
# Convention : Reuss Voigt Hill
#
# Bulk Modulus (GPa) = 19.54879 20.83579 20.19229
# Shear Modulus (GPa) = -18.19306 28.58931 5.19813
#
# Velocity S-wave (km/s) = -2.69176 3.37432 1.43882
# Velocity P-wave (km/s) = 1.36940 4.84556 3.28665
#
# Compressibility (1/GPa) = 0.05115407
#
# Stress axis : x y z
#
# Youngs Moduli (GPa) = 67.79951 93.67729 84.89624
#
# Poissons Ratio (x) = -0.14126 -0.41498
# Poissons Ratio (y) = -0.10224 -0.04918
# Poissons Ratio (z) = -0.33141 -0.05427
#
# Static dielectric constant tensor:
#      x y z
#    x 2.060290 0.000000 0.000000 
#    y 0.000000 1.869550 0.000000 
#    z 0.000000 0.000000 1.941160 
# 
# From -- ./inp_files/19002.got.cif
#   From: 2010.05.17/outbox.cif.g08.bks.cpg/sg67_10_cif.got.tgz:19002.got - 2010.06.03 18:28:57.
