data_PCOD9502404
_publ_section_title
;
Structure prediction by ZEFSAII (Michael W. Deem and Ramdas Pophale) SiO2 
 PCOD9502404
Probable space group: C M M A
;
_chemical_formula_sum "Si O2"
_cell_formula_units_Z 88
_cell_length_a 26.154474
_cell_length_b 25.180212
_cell_length_c 6.968613
_cell_angle_alpha 90.000000
_cell_angle_beta 90.000000
_cell_angle_gamma 90.000000
_cell_volume 4589.355701
_symmetry_space_group_name_H-M "C M M A"
_symmetry_group_IT_number 67
_symmetry_cell_setting 'orthorhombic'
loop_
_space_group_symop_operation_xyz
x,y,z
-x,1/2-y,z
x,-y,-z
-x,1/2+y,-z
-x,-y,-z
x,1/2+y,-z
-x,y,z
x,1/2-y,z
1/2+x,1/2+y,z
1/2-x,-y,z
1/2+x,1/2-y,-z
1/2-x,y,-z
1/2-x,1/2-y,-z
1/2+x,y,-z
1/2-x,1/2+y,z
1/2+x,-y,z
loop_
_atom_site_type_symbol
_atom_site_label
_atom_site_fract_x
_atom_site_fract_y
_atom_site_fract_z
Si Si1 0.942713 0.186727 0.509813
Si Si2 0.308393 0.403043 0.478051
Si Si3 0.127704 0.641389 0.824707
Si Si4 0.849569 0.811916 0.219051
Si Si5 0.441843 0.548298 0.146260
Si Si6 0.618746 0.000000 0.500000
O O1 0.946601 0.250000 0.496232
O O2 0.913246 0.167301 0.320773
O O3 0.905659 0.176158 0.689766
O O4 0.000000 0.164437 0.528746
O O5 0.250000 0.419793 0.500000
O O6 0.329104 0.381530 0.683119
O O7 0.313993 0.354560 0.327312
O O8 0.344706 0.452665 0.423555
O O9 0.096454 0.593797 0.923567
O O10 0.148722 0.678575 0.991766
O O11 0.837443 0.750000 0.261899
O O12 0.500000 0.567491 0.172753
O O13 0.417382 0.526567 0.342019
O O14 0.442673 0.500000 0.000000
#
# Coordination Sequence:
#
# PCOD9502404 Si02
#       6
#    16  16  16  16  16   8
#     4   9  18  32  51  77 107 140 179 218 259 315
#     4  10  22  39  59  82 106 139 187 239 289 340
#     4  10  20  35  54  77 108 143 181 223 271 326
#     4  10  21  37  56  80 113 149 185 230 281 334
#     4  10  20  33  52  80 111 142 176 215 264 326
#     4  10  20  38  60  80 110 144 180 230 286 336
#
# _framework density 19.174804000000002
#
# number of rings (size 3 to 8) (size 9 to 14) (size 15 to 20)
#    0.000    2.182    0.000    2.727    0.000    3.273 
#    0.000    7.273    0.000    3.273    0.000    0.000 
#    0.000    0.000    0.000    0.000    0.000    0.000 
#
# Total GULP energy -245445.922261 kJ/mol
# GULP energy per Si atom -5578.316415 kJ/mol
# Density = 1.913116 g / cm^3
# Si number density = 19.174804 Si / 1000 Ang^3
#
#
#
# Elastic Constant Matrix: (Units=GPa)
#
#
# Indices 1 2 3 4 5 6 
#
# 1 60.6262 -9.8507 -4.8705 0.0000 0.0000 0.0000
# 2 -9.8507 53.5237 5.4476 0.0000 0.0000 0.0000
# 3 -4.8705 5.4476 42.5891 0.0000 0.0000 0.0000
# 4 0.0000 0.0000 0.0000 35.1668 0.0000 0.0000
# 5 0.0000 0.0000 0.0000 0.0000 10.1015 0.0000
# 6 0.0000 0.0000 0.0000 0.0000 0.0000 30.5518
#
#
#
# Elastic Compliance Matrix: (Units=1/GPa)
#
#
# Indices 1 2 3 4 5 6 
#
# 1 0.017106 0.002988 0.001574 0.000000 0.000000 0.000000
# 2 0.002988 0.019452 -0.002146 0.000000 0.000000 0.000000
# 3 0.001574 -0.002146 0.023935 0.000000 0.000000 0.000000
# 4 0.000000 0.000000 0.000000 0.028436 0.000000 0.000000
# 5 0.000000 0.000000 0.000000 0.000000 0.098996 0.000000
# 6 0.000000 0.000000 0.000000 0.000000 0.000000 0.032731
#
#
# Mechanical properties :
#
#
# Convention : Reuss Voigt Hill
#
# Bulk Modulus (GPa) = 15.30818 15.35467 15.33143
# Shear Modulus (GPa) = 21.04388 26.23153 23.63770
#
# Velocity S-wave (km/s) = 3.31641 3.70269 3.51486
# Velocity P-wave (km/s) = 4.76084 5.12884 4.94826
#
# Compressibility (1/GPa) = 0.06532456
#
# Stress axis : x y z
#
# Youngs Moduli (GPa) = 58.45734 51.40936 41.78031
#
# Poissons Ratio (x) = -0.15362 -0.06577
# Poissons Ratio (y) = -0.17468 0.08968
# Poissons Ratio (z) = -0.09202 0.11034
#
# Static dielectric constant tensor:
#      x y z
#    x 1.657900 0.000000 0.000000 
#    y 0.000000 1.694350 0.000000 
#    z 0.000000 0.000000 1.647510 
# 
# From -- ./inp_files/3615.got.cif
#   From: 2010.05.17/outbox.cif.g08.bks.cpg/sg67_2_cif.got.tgz:3615.got - 2010.06.03 18:28:57.
