data_PCOD9502269
_publ_section_title
;
Structure prediction by ZEFSAII (Michael W. Deem and Ramdas Pophale) SiO2 
 PCOD9502269
Probable space group: C M M A
;
_chemical_formula_sum "Si O2"
_cell_formula_units_Z 72
_cell_length_a 25.551487
_cell_length_b 9.520686
_cell_length_c 14.347590
_cell_angle_alpha 90.000000
_cell_angle_beta 90.000000
_cell_angle_gamma 90.000000
_cell_volume 3490.304998
_symmetry_space_group_name_H-M "C M M A"
_symmetry_group_IT_number 67
_symmetry_cell_setting 'orthorhombic'
loop_
_space_group_symop_operation_xyz
x,y,z
-x,1/2-y,z
x,-y,-z
-x,1/2+y,-z
-x,-y,-z
x,1/2+y,-z
-x,y,z
x,1/2-y,z
1/2+x,1/2+y,z
1/2-x,-y,z
1/2+x,1/2-y,-z
1/2-x,y,-z
1/2-x,1/2-y,-z
1/2+x,y,-z
1/2-x,1/2+y,z
1/2+x,-y,z
loop_
_atom_site_type_symbol
_atom_site_label
_atom_site_fract_x
_atom_site_fract_y
_atom_site_fract_z
Si Si1 0.082143 0.594917 0.797594
Si Si2 0.296764 0.415405 0.774117
Si Si3 0.824428 0.907467 0.407118
Si Si4 0.000000 0.416597 0.903373
Si Si5 0.557725 0.034660 0.390420
O O1 0.066423 0.750000 0.831425
O O2 0.144200 0.578556 0.813820
O O3 0.067806 0.585455 0.687240
O O4 0.050174 0.472087 0.846354
O O5 0.284121 0.250000 0.763084
O O6 0.250000 0.500000 0.824709
O O7 0.303197 0.499383 0.677133
O O8 0.802019 0.750000 0.414865
O O9 0.886442 0.890395 0.386455
O O10 0.817991 0.000000 0.500000
O O11 0.000000 0.250000 0.914330
O O12 0.000000 0.500000 0.000000
O O13 0.500000 0.094609 0.367165
O O14 0.554358 0.000000 0.500000
#
# Coordination Sequence:
#
# PCOD9502269 Si02
#       5
#    16  16  16   8  16
#     4  10  21  40  64  91 125 164 206 254 307 360
#     4  10  21  37  58  84 115 155 199 247 301 358
#     4  10  20  33  48  70 105 150 204 260 305 356
#     4  12  26  44  69  98 127 160 199 246 304 366
#     4   9  18  31  50  82 118 165 205 247 294 355
#
# _framework density 20.628568999999999
#
# number of rings (size 3 to 8) (size 9 to 14) (size 15 to 20)
#    0.000    2.000    1.111    2.333    0.000   10.667 
#    0.000    6.667    0.000    0.667    0.000    4.667 
#    0.000    0.000    0.000    0.000    0.000    0.000 
#
# Total GULP energy -200448.469859 kJ/mol
# GULP energy per Si atom -5568.013052 kJ/mol
# Density = 2.058162 g / cm^3
# Si number density = 20.628569 Si / 1000 Ang^3
#
#
#
# Elastic Constant Matrix: (Units=GPa)
#
#
# Indices 1 2 3 4 5 6 
#
# 1 148.1182 52.1265 13.4631 0.0000 0.0000 0.0000
# 2 52.1265 196.8019 35.9281 0.0000 0.0000 0.0000
# 3 13.4631 35.9281 45.8917 0.0000 0.0000 0.0000
# 4 0.0000 0.0000 0.0000 -2.5861 0.0000 0.0000
# 5 0.0000 0.0000 0.0000 0.0000 92.4060 0.0000
# 6 0.0000 0.0000 0.0000 0.0000 0.0000 20.7929
#
#
#
# Elastic Compliance Matrix: (Units=1/GPa)
#
#
# Indices 1 2 3 4 5 6 
#
# 1 0.007467 -0.001841 -0.000749 0.000000 0.000000 0.000000
# 2 -0.001841 0.006383 -0.004457 0.000000 0.000000 0.000000
# 3 -0.000749 -0.004457 0.025499 0.000000 0.000000 0.000000
# 4 0.000000 0.000000 0.000000 -0.386683 0.000000 0.000000
# 5 0.000000 0.000000 0.000000 0.000000 0.010822 0.000000
# 6 0.000000 0.000000 0.000000 0.000000 0.000000 0.048093
#
#
# Mechanical properties :
#
#
# Convention : Reuss Voigt Hill
#
# Bulk Modulus (GPa) = 39.59602 65.98303 52.78953
# Shear Modulus (GPa) = -18.80361 41.40885 11.30262
#
# Velocity S-wave (km/s) = -3.02243 4.48521 2.34329
# Velocity P-wave (km/s) = 2.65636 7.67323 5.74172
#
# Compressibility (1/GPa) = 0.02525506
#
# Stress axis : x y z
#
# Youngs Moduli (GPa) = 133.91554 156.67832 39.21671
#
# Poissons Ratio (x) = 0.28846 0.02939
# Poissons Ratio (y) = 0.24655 0.17478
# Poissons Ratio (z) = 0.10035 0.69827
#
# Static dielectric constant tensor:
#      x y z
#    x 1.816220 0.000000 0.000000 
#    y 0.000000 1.703730 0.000000 
#    z 0.000000 0.000000 1.731270 
# 
# From -- ./inp_files/25102.got.cif
#   From: 2010.05.17/outbox.cif.g08.bks.cpg/sg67_13_cif.got.tgz:25102.got - 2010.06.03 18:28:57.
