data_PCOD9502847
_publ_section_title
;
Structure prediction by ZEFSAII (Michael W. Deem and Ramdas Pophale) SiO2 
 PCOD9502847
Probable space group: C M M A
;
_chemical_formula_sum "Si O2"
_cell_formula_units_Z 96
_cell_length_a 18.889387
_cell_length_b 8.686138
_cell_length_c 31.695830
_cell_angle_alpha 90.000000
_cell_angle_beta 90.000000
_cell_angle_gamma 90.000000
_cell_volume 5200.519368
_symmetry_space_group_name_H-M "C M M A"
_symmetry_group_IT_number 67
_symmetry_cell_setting 'orthorhombic'
loop_
_space_group_symop_operation_xyz
x,y,z
-x,1/2-y,z
x,-y,-z
-x,1/2+y,-z
-x,-y,-z
x,1/2+y,-z
-x,y,z
x,1/2-y,z
1/2+x,1/2+y,z
1/2-x,-y,z
1/2+x,1/2-y,-z
1/2-x,y,-z
1/2-x,1/2-y,-z
1/2+x,y,-z
1/2-x,1/2+y,z
1/2+x,-y,z
loop_
_atom_site_type_symbol
_atom_site_label
_atom_site_fract_x
_atom_site_fract_y
_atom_site_fract_z
Si Si1 0.828952 0.565311 0.123587
Si Si2 0.170687 0.066295 0.284399
Si Si3 0.582468 0.065589 0.953851
Si Si4 0.418046 0.064652 0.455727
Si Si5 0.582599 0.435748 0.206887
Si Si6 0.328921 0.935409 0.625874
O O1 0.826104 0.750000 0.121721
O O2 0.750000 0.500000 0.127135
O O3 0.867621 0.502474 0.082043
O O4 0.875222 0.520793 0.164511
O O5 0.174850 0.250000 0.286128
O O6 0.250000 0.000000 0.277648
O O7 0.120417 0.011552 0.246858
O O8 0.144846 0.001192 0.329458
O O9 0.500000 0.024266 0.945264
O O10 0.587974 0.250000 0.954481
O O11 0.600361 0.000000 0.000000
O O12 0.500000 0.015299 0.451940
O O13 0.416411 0.250000 0.457724
O O14 0.375275 0.017184 0.414323
O O15 0.389731 0.000000 0.500000
O O16 0.500000 0.478224 0.203922
O O17 0.586740 0.250000 0.211138
O O18 0.327293 0.750000 0.628279
O O19 0.250000 0.000000 0.620358
#
# Coordination Sequence:
#
# PCOD9502847 Si02
#       6
#    16  16  16  16  16  16
#     4  11  23  39  60  86 116 151 191 233 280 333
#     4  11  22  37  58  83 112 146 185 228 276 329
#     4  10  21  38  61  88 118 152 190 234 283 334
#     4   9  19  35  54  76 103 138 178 220 268 321
#     4  10  22  40  61  85 114 148 185 228 279 333
#     4  10  20  35  55  79 108 142 180 222 271 326
#
# _framework density 18.459693999999999
#
# number of rings (size 3 to 8) (size 9 to 14) (size 15 to 20)
#    0.000    1.833    0.000    5.000    0.000    7.333 
#    0.000    5.000    0.000    0.000    0.000    0.000 
#    0.000    0.000    0.000    0.000    0.000    0.000 
#
# Total GULP energy -268193.400035 kJ/mol
# GULP energy per Si atom -5587.362501 kJ/mol
# Density = 1.841768 g / cm^3
# Si number density = 18.459694 Si / 1000 Ang^3
#
#
#
# Elastic Constant Matrix: (Units=GPa)
#
#
# Indices 1 2 3 4 5 6 
#
# 1 117.1809 52.0289 119.4934 0.0000 0.0000 0.0000
# 2 52.0289 63.8204 66.7265 0.0000 0.0000 0.0000
# 3 119.4934 66.7265 205.2239 0.0000 0.0000 0.0000
# 4 0.0000 0.0000 0.0000 32.0824 0.0000 0.0000
# 5 0.0000 0.0000 0.0000 0.0000 42.5653 0.0000
# 6 0.0000 0.0000 0.0000 0.0000 0.0000 27.3409
#
#
#
# Elastic Compliance Matrix: (Units=1/GPa)
#
#
# Indices 1 2 3 4 5 6 
#
# 1 0.022997 -0.007194 -0.011052 0.000000 0.000000 0.000000
# 2 -0.007194 0.025989 -0.004262 0.000000 0.000000 0.000000
# 3 -0.011052 -0.004262 0.012693 0.000000 0.000000 0.000000
# 4 0.000000 0.000000 0.000000 0.031170 0.000000 0.000000
# 5 0.000000 0.000000 0.000000 0.000000 0.023493 0.000000
# 6 0.000000 0.000000 0.000000 0.000000 0.000000 0.036575
#
#
# Mechanical properties :
#
#
# Convention : Reuss Voigt Hill
#
# Bulk Modulus (GPa) = 60.00133 95.85810 77.92972
# Shear Modulus (GPa) = 24.57162 30.26283 27.41722
#
# Velocity S-wave (km/s) = 3.65238 4.05334 3.85807
# Velocity P-wave (km/s) = 7.09655 8.59925 7.88379
#
# Compressibility (1/GPa) = 0.01666630
#
# Stress axis : x y z
#
# Youngs Moduli (GPa) = 43.48310 38.47763 78.78266
#
# Poissons Ratio (x) = 0.27680 0.87067
# Poissons Ratio (y) = 0.31280 0.33573
# Poissons Ratio (z) = 0.48055 0.16397
#
# Static dielectric constant tensor:
#      x y z
#    x 1.615710 0.000000 0.000000 
#    y 0.000000 1.625260 0.000000 
#    z 0.000000 0.000000 1.615870 
# 
# From -- ./inp_files/44606.got.cif
#   From: 2010.05.17/outbox.cif.g08.bks.cpg/sg67_23_cif.got.tgz:44606.got - 2010.06.03 18:28:57.
