data_PCOD9502077
_publ_section_title
;
Structure prediction by ZEFSAII (Michael W. Deem and Ramdas Pophale) SiO2 
 PCOD9502077
Probable space group: C M M A
;
_chemical_formula_sum "Si O2"
_cell_formula_units_Z 68
_cell_length_a 26.001074
_cell_length_b 28.802434
_cell_length_c 5.407166
_cell_angle_alpha 90.000000
_cell_angle_beta 90.000000
_cell_angle_gamma 90.000000
_cell_volume 4049.395352
_symmetry_space_group_name_H-M "C M M A"
_symmetry_group_IT_number 67
_symmetry_cell_setting 'orthorhombic'
loop_
_space_group_symop_operation_xyz
x,y,z
-x,1/2-y,z
x,-y,-z
-x,1/2+y,-z
-x,-y,-z
x,1/2+y,-z
-x,y,z
x,1/2-y,z
1/2+x,1/2+y,z
1/2-x,-y,z
1/2+x,1/2-y,-z
1/2-x,y,-z
1/2-x,1/2-y,-z
1/2+x,y,-z
1/2-x,1/2+y,z
1/2+x,-y,z
loop_
_atom_site_type_symbol
_atom_site_label
_atom_site_fract_x
_atom_site_fract_y
_atom_site_fract_z
Si Si1 0.312772 0.804185 0.491754
Si Si2 0.750000 0.500000 0.500000
Si Si3 0.444452 0.030901 0.747911
Si Si4 0.832438 0.547249 0.844714
Si Si5 0.311006 0.352868 0.009926
O O1 0.326589 0.750000 0.487883
O O2 0.250000 0.806365 0.500000
O O3 0.331033 0.830096 0.244057
O O4 0.331307 0.829387 0.740920
O O5 0.787833 0.534293 0.651037
O O6 0.500000 0.056352 0.750593
O O7 0.389657 0.056468 0.740541
O O8 0.444380 0.000000 0.500000
O O9 0.444208 0.000000 0.000000
O O10 0.818446 0.591994 0.003939
O O11 0.835359 0.500000 0.000000
O O12 0.250000 0.344008 0.000000
#
# Coordination Sequence:
#
# PCOD9502077 Si02
#       5
#    16   4  16  16  16
#     4   9  18  32  48  66  90 124 167 206 245 289
#     4  12  22  32  46  66 106 152 166 194 230 296
#     4   9  18  34  52  68  90 128 173 215 248 276
#     4  11  23  33  47  72 105 139 174 200 241 299
#     4  10  20  30  47  67  96 131 162 200 242 293
#
# _framework density 16.792629999999999
#
# number of rings (size 3 to 8) (size 9 to 14) (size 15 to 20)
#    0.000    2.118    1.176    2.471    8.235    2.824 
#    0.000    0.000    0.000    0.000    0.000    0.000 
#    0.000    5.647    0.000    0.000    0.000    0.000 
#
# Total GULP energy -189291.314581 kJ/mol
# GULP energy per Si atom -5567.391605 kJ/mol
# Density = 1.675441 g / cm^3
# Si number density = 16.792630 Si / 1000 Ang^3
#
#
#
# Elastic Constant Matrix: (Units=GPa)
#
#
# Indices 1 2 3 4 5 6 
#
# 1 85.9806 -6.0610 19.3146 0.0000 0.0000 0.0000
# 2 -6.0610 102.0725 60.8923 0.0000 0.0000 0.0000
# 3 19.3146 60.8923 123.0049 0.0000 0.0000 0.0000
# 4 0.0000 0.0000 0.0000 28.8798 0.0000 0.0000
# 5 0.0000 0.0000 0.0000 0.0000 57.2287 0.0000
# 6 0.0000 0.0000 0.0000 0.0000 0.0000 -10.2663
#
#
#
# Elastic Compliance Matrix: (Units=1/GPa)
#
#
# Indices 1 2 3 4 5 6 
#
# 1 0.012570 0.002730 -0.003325 0.000000 0.000000 0.000000
# 2 0.002730 0.014496 -0.007605 0.000000 0.000000 0.000000
# 3 -0.003325 -0.007605 0.012417 0.000000 0.000000 0.000000
# 4 0.000000 0.000000 0.000000 0.034626 0.000000 0.000000
# 5 0.000000 0.000000 0.000000 0.000000 0.017474 0.000000
# 6 0.000000 0.000000 0.000000 0.000000 0.000000 -0.097407
#
#
# Mechanical properties :
#
#
# Convention : Reuss Voigt Hill
#
# Bulk Modulus (GPa) = 43.32275 51.03889 47.18082
# Shear Modulus (GPa) = 273.68029 30.96259 152.32144
#
# Velocity S-wave (km/s) = 12.78007 4.29863 9.53437
# Velocity P-wave (km/s) = 15.60860 7.42275 12.22141
#
# Compressibility (1/GPa) = 0.02308256
#
# Stress axis : x y z
#
# Youngs Moduli (GPa) = 79.55466 68.98599 80.53792
#
# Poissons Ratio (x) = -0.18834 0.26781
# Poissons Ratio (y) = -0.21720 0.61246
# Poissons Ratio (z) = 0.26454 0.52461
#
# Static dielectric constant tensor:
#      x y z
#    x 1.604320 0.000000 0.000000 
#    y 0.000000 1.882290 0.000000 
#    z 0.000000 0.000000 1.602790 
# 
# From -- ./inp_files/3458.got.cif
#   From: 2010.05.17/outbox.cif.g08.bks.cpg/sg67_2_cif.got.tgz:3458.got - 2010.06.03 18:28:57.
