data_PCOD9502977
_publ_section_title
;
Structure prediction by ZEFSAII (Michael W. Deem and Ramdas Pophale) SiO2 
 PCOD9502977
Probable space group: C M M A
;
_chemical_formula_sum "Si O2"
_cell_formula_units_Z 88
_cell_length_a 22.420207
_cell_length_b 14.192236
_cell_length_c 14.197354
_cell_angle_alpha 90.000000
_cell_angle_beta 90.000000
_cell_angle_gamma 90.000000
_cell_volume 4517.496800
_symmetry_space_group_name_H-M "C M M A"
_symmetry_group_IT_number 67
_symmetry_cell_setting 'orthorhombic'
loop_
_space_group_symop_operation_xyz
x,y,z
-x,1/2-y,z
x,-y,-z
-x,1/2+y,-z
-x,-y,-z
x,1/2+y,-z
-x,y,z
x,1/2-y,z
1/2+x,1/2+y,z
1/2-x,-y,z
1/2+x,1/2-y,-z
1/2-x,y,-z
1/2-x,1/2-y,-z
1/2+x,y,-z
1/2-x,1/2+y,z
1/2+x,-y,z
loop_
_atom_site_type_symbol
_atom_site_label
_atom_site_fract_x
_atom_site_fract_y
_atom_site_fract_z
Si Si1 0.283802 0.641523 0.356323
Si Si2 0.142245 0.642722 0.353435
Si Si3 0.431052 0.641875 0.001659
Si Si4 0.383460 0.643334 0.202869
Si Si5 0.568012 0.555912 0.804369
Si Si6 0.847097 0.500000 0.500000
O O1 0.292201 0.750000 0.388376
O O2 0.213443 0.626613 0.344210
O O3 0.321445 0.631392 0.259429
O O4 0.309196 0.570116 0.433529
O O5 0.132572 0.750000 0.382252
O O6 0.111680 0.620417 0.255227
O O7 0.118315 0.569033 0.430114
O O8 0.500000 0.625824 0.035988
O O9 0.429662 0.750000 0.965617
O O10 0.419789 0.572279 0.915200
O O11 0.385750 0.638304 0.089126
O O12 0.405337 0.750000 0.225984
O O13 0.422263 0.551937 0.227781
O O14 0.500000 0.584206 0.789060
#
# Coordination Sequence:
#
# PCOD9502977 Si02
#       6
#    16  16  16  16  16   8
#     4  10  21  37  60  90 117 146 187 236 289 343
#     4  11  23  38  60  88 117 149 189 238 288 339
#     4   9  18  34  57  84 114 152 196 236 275 330
#     4  10  20  35  57  86 119 148 187 239 286 334
#     4  11  22  37  59  85 116 156 196 233 279 336
#     4  12  21  38  65  88 113 146 190 239 290 347
#
# _framework density 19.479814000000001
#
# number of rings (size 3 to 8) (size 9 to 14) (size 15 to 20)
#    0.000    1.636    1.818    3.818    0.000    5.091 
#    0.000    1.364    0.000    6.545    0.000    0.000 
#    0.000    0.000    0.000    0.000    0.000    0.000 
#
# Total GULP energy -245432.959256 kJ/mol
# GULP energy per Si atom -5578.021801 kJ/mol
# Density = 1.943548 g / cm^3
# Si number density = 19.479814 Si / 1000 Ang^3
#
#
#
# Elastic Constant Matrix: (Units=GPa)
#
#
# Indices 1 2 3 4 5 6 
#
# 1 22.9044 26.4263 36.1318 0.0000 0.0000 0.0000
# 2 26.4263 94.6288 39.0264 0.0000 0.0000 0.0000
# 3 36.1318 39.0264 95.0376 0.0000 0.0000 0.0000
# 4 0.0000 0.0000 0.0000 40.3878 0.0000 0.0000
# 5 0.0000 0.0000 0.0000 0.0000 54.6867 0.0000
# 6 0.0000 0.0000 0.0000 0.0000 0.0000 16.8230
#
#
#
# Elastic Compliance Matrix: (Units=1/GPa)
#
#
# Indices 1 2 3 4 5 6 
#
# 1 0.134066 -0.019767 -0.042853 0.000000 0.000000 0.000000
# 2 -0.019767 0.015637 0.001094 0.000000 0.000000 0.000000
# 3 -0.042853 0.001094 0.026365 0.000000 0.000000 0.000000
# 4 0.000000 0.000000 0.000000 0.024760 0.000000 0.000000
# 5 0.000000 0.000000 0.000000 0.000000 0.018286 0.000000
# 6 0.000000 0.000000 0.000000 0.000000 0.000000 0.059443
#
#
# Mechanical properties :
#
#
# Convention : Reuss Voigt Hill
#
# Bulk Modulus (GPa) = 18.86197 46.19331 32.52764
# Shear Modulus (GPa) = 11.92521 29.77858 20.85189
#
# Velocity S-wave (km/s) = 2.47692 3.91409 3.27530
# Velocity P-wave (km/s) = 4.22895 6.64768 5.57116
#
# Compressibility (1/GPa) = 0.05301673
#
# Stress axis : x y z
#
# Youngs Moduli (GPa) = 7.45899 63.95276 37.92912
#
# Poissons Ratio (x) = 1.26413 1.62538
# Poissons Ratio (y) = 0.14744 -0.04149
# Poissons Ratio (z) = 0.31964 -0.06996
#
# Static dielectric constant tensor:
#      x y z
#    x 1.637600 0.000000 0.000000 
#    y 0.000000 1.756880 0.000000 
#    z 0.000000 0.000000 1.688370 
# 
# From -- ./inp_files/30021.got.cif
#   From: 2010.05.17/outbox.cif.g08.bks.cpg/sg67_16_cif.got.tgz:30021.got - 2010.06.03 18:28:57.
