data_PCOD9502461
_publ_section_title
;
Structure prediction by ZEFSAII (Michael W. Deem and Ramdas Pophale) SiO2 
 PCOD9502461
Probable space group: C M M A
;
_chemical_formula_sum "Si O2"
_cell_formula_units_Z 120
_cell_length_a 20.821738
_cell_length_b 25.838245
_cell_length_c 11.511703
_cell_angle_alpha 90.000000
_cell_angle_beta 90.000000
_cell_angle_gamma 90.000000
_cell_volume 6193.263610
_symmetry_space_group_name_H-M "C M M A"
_symmetry_group_IT_number 67
_symmetry_cell_setting 'orthorhombic'
loop_
_space_group_symop_operation_xyz
x,y,z
-x,1/2-y,z
x,-y,-z
-x,1/2+y,-z
-x,-y,-z
x,1/2+y,-z
-x,y,z
x,1/2-y,z
1/2+x,1/2+y,z
1/2-x,-y,z
1/2+x,1/2-y,-z
1/2-x,y,-z
1/2-x,1/2-y,-z
1/2+x,y,-z
1/2-x,1/2+y,z
1/2+x,-y,z
loop_
_atom_site_type_symbol
_atom_site_label
_atom_site_fract_x
_atom_site_fract_y
_atom_site_fract_z
Si Si1 0.429477 0.048685 0.169531
Si Si2 0.429629 0.342181 0.306148
Si Si3 0.793337 0.809282 0.603708
Si Si4 0.195697 0.192922 0.815627
Si Si5 0.427807 0.858518 0.417176
Si Si6 0.750000 0.500000 0.297854
Si Si7 0.390081 0.975050 0.377425
Si Si8 0.201390 0.423052 0.899016
O O1 0.500000 0.043321 0.116973
O O2 0.427441 0.102151 0.243183
O O3 0.370083 0.054692 0.082530
O O4 0.417032 0.004667 0.265137
O O5 0.500000 0.319043 0.283793
O O6 0.371085 0.310081 0.255241
O O7 0.423616 0.351836 0.443230
O O8 0.803910 0.750000 0.566922
O O9 0.750000 0.834342 0.500000
O O10 0.751548 0.810786 0.719813
O O11 0.863826 0.830844 0.627106
O O12 0.199863 0.250000 0.873076
O O13 0.198824 0.139435 0.887336
O O14 0.500000 0.841295 0.382488
O O15 0.417067 0.917591 0.381620
O O16 0.687588 0.520016 0.366895
O O17 0.773855 0.548015 0.217519
O O18 0.409531 0.000000 0.500000
O O19 0.250000 0.436863 0.000000
#
# Coordination Sequence:
#
# PCOD9502461 Si02
#       8
#    16  16  16  16  16   8  16  16
#     4   9  18  33  52  78 110 144 178 215 275 336
#     4   9  17  29  46  74 111 148 178 211 259 319
#     4  10  20  34  50  69 102 144 184 224 266 325
#     4  10  20  35  54  79 107 143 184 232 285 335
#     4  11  21  30  48  75 109 152 188 220 258 313
#     4  10  22  36  56  82 110 152 188 230 276 330
#     4  11  20  31  50  82 119 152 183 215 261 325
#     4  10  21  38  59  80 104 138 183 243 295 340
#
# _framework density 19.375890999999999
#
# number of rings (size 3 to 8) (size 9 to 14) (size 15 to 20)
#    0.000    2.000    2.667    1.600    0.000    2.400 
#    0.000    1.333    0.000    9.600    0.000    0.000 
#    0.000    0.000    0.000    0.000    0.000    0.000 
#
# Total GULP energy -334656.139087 kJ/mol
# GULP energy per Si atom -5577.602318 kJ/mol
# Density = 1.933179 g / cm^3
# Si number density = 19.375891 Si / 1000 Ang^3
#
#
#
# Elastic Constant Matrix: (Units=GPa)
#
#
# Indices 1 2 3 4 5 6 
#
# 1 175.0637 33.9199 27.0012 0.0000 0.0000 0.0000
# 2 33.9199 86.1911 8.0409 0.0000 0.0000 0.0000
# 3 27.0012 8.0409 27.8098 0.0000 0.0000 0.0000
# 4 0.0000 0.0000 0.0000 10.9308 0.0000 0.0000
# 5 0.0000 0.0000 0.0000 0.0000 23.8173 0.0000
# 6 0.0000 0.0000 0.0000 0.0000 0.0000 -61.6383
#
#
#
# Elastic Compliance Matrix: (Units=1/GPa)
#
#
# Indices 1 2 3 4 5 6 
#
# 1 0.007106 -0.002213 -0.006260 0.000000 0.000000 0.000000
# 2 -0.002213 0.012613 -0.001499 0.000000 0.000000 0.000000
# 3 -0.006260 -0.001499 0.042470 0.000000 0.000000 0.000000
# 4 0.000000 0.000000 0.000000 0.091485 0.000000 0.000000
# 5 0.000000 0.000000 0.000000 0.000000 0.041986 0.000000
# 6 0.000000 0.000000 0.000000 0.000000 0.000000 -0.016224
#
#
# Mechanical properties :
#
#
# Convention : Reuss Voigt Hill
#
# Bulk Modulus (GPa) = 23.67057 47.44317 35.55687
# Shear Modulus (GPa) = 23.42350 9.29547 16.35949
#
# Velocity S-wave (km/s) = 3.48070 2.19268 2.90887
# Velocity P-wave (km/s) = 5.32885 5.56321 5.44729
#
# Compressibility (1/GPa) = 0.04224655
#
# Stress axis : x y z
#
# Youngs Moduli (GPa) = 140.71717 79.28516 23.54612
#
# Poissons Ratio (x) = 0.17543 0.14740
# Poissons Ratio (y) = 0.31136 0.03528
# Poissons Ratio (z) = 0.88090 0.11881
#
# Static dielectric constant tensor:
#      x y z
#    x 1.704310 0.000000 0.000000 
#    y 0.000000 1.691060 0.000000 
#    z 0.000000 0.000000 1.666410 
# 
# From -- ./inp_files/21301.got.cif
#   From: 2010.05.17/outbox.cif.g08.bks.cpg/sg67_11_cif.got.tgz:21301.got - 2010.06.03 18:28:57.
