data_PCOD9502866
_publ_section_title
;
Structure prediction by ZEFSAII (Michael W. Deem and Ramdas Pophale) SiO2 
 PCOD9502866
Probable space group: C M M A
;
_chemical_formula_sum "Si O2"
_cell_formula_units_Z 112
_cell_length_a 33.030637
_cell_length_b 14.576514
_cell_length_c 11.653813
_cell_angle_alpha 90.000000
_cell_angle_beta 90.000000
_cell_angle_gamma 90.000000
_cell_volume 5610.979323
_symmetry_space_group_name_H-M "C M M A"
_symmetry_group_IT_number 67
_symmetry_cell_setting 'orthorhombic'
loop_
_space_group_symop_operation_xyz
x,y,z
-x,1/2-y,z
x,-y,-z
-x,1/2+y,-z
-x,-y,-z
x,1/2+y,-z
-x,y,z
x,1/2-y,z
1/2+x,1/2+y,z
1/2-x,-y,z
1/2+x,1/2-y,-z
1/2-x,y,-z
1/2-x,1/2-y,-z
1/2+x,y,-z
1/2-x,1/2+y,z
1/2+x,-y,z
loop_
_atom_site_type_symbol
_atom_site_label
_atom_site_fract_x
_atom_site_fract_y
_atom_site_fract_z
Si Si1 0.098096 0.852792 0.285866
Si Si2 0.456029 0.142098 0.091991
Si Si3 0.213642 0.359758 0.916473
Si Si4 0.372397 0.639854 0.023619
Si Si5 0.640218 0.453380 0.740102
Si Si6 0.146378 0.145027 0.498703
Si Si7 0.788413 0.052341 0.673363
O O1 0.113680 0.750000 0.246463
O O2 0.054538 0.861380 0.227744
O O3 0.106813 0.852040 0.420166
O O4 0.121284 0.945128 0.250334
O O5 0.500000 0.101032 0.066442
O O6 0.458203 0.250000 0.061746
O O7 0.414913 0.107810 0.032217
O O8 0.212887 0.250000 0.926901
O O9 0.220126 0.381601 0.781521
O O10 0.250000 0.392814 0.000000
O O11 0.169158 0.391987 0.961244
O O12 0.372096 0.750000 0.019515
O O13 0.372402 0.607598 0.154330
O O14 0.634142 0.408702 0.615287
O O15 0.687787 0.470786 0.737958
O O16 0.158556 0.250000 0.472958
O O17 0.182334 0.098363 0.576399
O O18 0.750000 0.000000 0.624269
#
# Coordination Sequence:
#
# PCOD9502866 Si02
#       7
#    16  16  16  16  16  16  16
#     4   9  18  34  57  81 106 140 183 232 283 335
#     4   9  18  34  58  87 117 150 190 236 288 349
#     4  10  21  37  56  80 111 147 191 239 287 341
#     4  10  20  35  55  81 115 153 191 234 286 342
#     4  11  22  35  55  81 111 146 190 233 280 345
#     4  10  21  39  60  80 107 148 196 242 288 341
#     4  11  22  35  54  79 109 144 188 239 290 339
#
# _framework density 19.960865999999999
#
# number of rings (size 3 to 8) (size 9 to 14) (size 15 to 20)
#    0.000    2.000    0.000    5.143    0.000    8.857 
#    0.000    4.286    0.000    4.286    0.000    4.000 
#    0.000    0.000    0.000    0.000    0.000    0.000 
#
# Total GULP energy -311788.122267 kJ/mol
# GULP energy per Si atom -5567.645040 kJ/mol
# Density = 1.991543 g / cm^3
# Si number density = 19.960866 Si / 1000 Ang^3
#
#
#
# Elastic Constant Matrix: (Units=GPa)
#
#
# Indices 1 2 3 4 5 6 
#
# 1 136.2781 35.7097 59.3257 0.0000 0.0000 0.0000
# 2 35.7097 79.0294 52.0577 0.0000 0.0000 0.0000
# 3 59.3257 52.0577 139.8420 0.0000 0.0000 0.0000
# 4 0.0000 0.0000 0.0000 26.5382 0.0000 0.0000
# 5 0.0000 0.0000 0.0000 0.0000 6.0141 0.0000
# 6 0.0000 0.0000 0.0000 0.0000 0.0000 9.1253
#
#
#
# Elastic Compliance Matrix: (Units=1/GPa)
#
#
# Indices 1 2 3 4 5 6 
#
# 1 0.009259 -0.002115 -0.003141 0.000000 0.000000 0.000000
# 2 -0.002115 0.017247 -0.005523 0.000000 0.000000 0.000000
# 3 -0.003141 -0.005523 0.010539 0.000000 0.000000 0.000000
# 4 0.000000 0.000000 0.000000 0.037681 0.000000 0.000000
# 5 0.000000 0.000000 0.000000 0.000000 0.166276 0.000000
# 6 0.000000 0.000000 0.000000 0.000000 0.000000 0.109586
#
#
# Mechanical properties :
#
#
# Convention : Reuss Voigt Hill
#
# Bulk Modulus (GPa) = 64.56565 72.14843 68.35704
# Shear Modulus (GPa) = 13.25167 22.20594 17.72881
#
# Velocity S-wave (km/s) = 2.57939 3.33900 2.98346
# Velocity P-wave (km/s) = 6.42552 7.14763 6.79617
#
# Compressibility (1/GPa) = 0.01548811
#
# Stress axis : x y z
#
# Youngs Moduli (GPa) = 107.99795 57.97949 94.88120
#
# Poissons Ratio (x) = 0.12263 0.29801
# Poissons Ratio (y) = 0.22842 0.52406
# Poissons Ratio (z) = 0.33920 0.32024
#
# Static dielectric constant tensor:
#      x y z
#    x 1.738530 0.000000 0.000000 
#    y 0.000000 1.755090 0.000000 
#    z 0.000000 0.000000 1.756540 
# 
# From -- ./inp_files/23803.got.cif
#   From: 2010.05.17/outbox.cif.g08.bks.cpg/sg67_12_cif.got.tgz:23803.got - 2010.06.03 18:28:57.
