data_PCOD9502375
_publ_section_title
;
Structure prediction by ZEFSAII (Michael W. Deem and Ramdas Pophale) SiO2 
 PCOD9502375
Probable space group: C M M A
;
_chemical_formula_sum "Si O2"
_cell_formula_units_Z 96
_cell_length_a 8.710107
_cell_length_b 24.097972
_cell_length_c 26.539609
_cell_angle_alpha 90.000000
_cell_angle_beta 90.000000
_cell_angle_gamma 90.000000
_cell_volume 5570.555504
_symmetry_space_group_name_H-M "C M M A"
_symmetry_group_IT_number 67
_symmetry_cell_setting 'orthorhombic'
loop_
_space_group_symop_operation_xyz
x,y,z
-x,1/2-y,z
x,-y,-z
-x,1/2+y,-z
-x,-y,-z
x,1/2+y,-z
-x,y,z
x,1/2-y,z
1/2+x,1/2+y,z
1/2-x,-y,z
1/2+x,1/2-y,-z
1/2-x,y,-z
1/2-x,1/2-y,-z
1/2+x,y,-z
1/2-x,1/2+y,z
1/2+x,-y,z
loop_
_atom_site_type_symbol
_atom_site_label
_atom_site_fract_x
_atom_site_fract_y
_atom_site_fract_z
Si Si1 0.184449 0.250000 0.714654
Si Si2 0.184763 0.131067 0.554756
Si Si3 0.815757 0.061504 0.352944
Si Si4 0.684212 0.062480 0.162764
Si Si5 0.316094 0.866620 0.254156
Si Si6 0.683189 0.062470 0.050721
Si Si7 0.186177 0.250000 0.597436
O O1 0.246914 0.194509 0.740288
O O2 0.235280 0.250000 0.655816
O O3 0.000000 0.250000 0.715569
O O4 0.250000 0.117229 0.500000
O O5 0.246814 0.090008 0.597451
O O6 0.235635 0.193579 0.570109
O O7 0.000000 0.129409 0.554112
O O8 0.774187 0.098736 0.304444
O O9 0.000000 0.059452 0.356670
O O10 0.750000 0.000000 0.346677
O O11 0.500000 0.059592 0.167087
O O12 0.752259 0.100958 0.205982
O O13 0.721695 0.084793 0.106360
O O14 0.750000 0.000000 0.167577
O O15 0.500000 0.863664 0.251531
O O16 0.500000 0.059809 0.046117
O O17 0.750000 0.000000 0.051736
O O18 0.750000 0.089682 0.000000
O O19 0.000000 0.250000 0.597371
#
# Coordination Sequence:
#
# PCOD9502375 Si02
#       7
#     8  16  16  16  16  16   8
#     4  11  21  38  62  84 108 141 178 219 271 324
#     4  11  22  39  60  85 112 140 176 216 264 319
#     4  11  24  40  58  81 108 142 179 219 265 318
#     4  10  20  33  51  78 112 150 188 227 272 324
#     4  11  23  38  57  83 111 141 181 226 273 323
#     4   9  16  26  43  69 103 143 185 225 268 316
#     4   9  19  36  60  86 109 138 172 212 263 316
#
# _framework density 17.233468999999999
#
# number of rings (size 3 to 8) (size 9 to 14) (size 15 to 20)
#    0.000    1.667    1.667    4.000    0.000    5.667 
#    0.000    2.917    0.000    0.000    0.000    0.583 
#    0.000    0.000    0.000    0.000    0.000    0.000 
#
# Total GULP energy -268016.168697 kJ/mol
# GULP energy per Si atom -5583.670181 kJ/mol
# Density = 1.719424 g / cm^3
# Si number density = 17.233469 Si / 1000 Ang^3
#
#
#
# Elastic Constant Matrix: (Units=GPa)
#
#
# Indices 1 2 3 4 5 6 
#
# 1 66.1865 45.5769 64.0034 0.0000 0.0000 0.0000
# 2 45.5769 120.6272 75.7535 0.0000 0.0000 0.0000
# 3 64.0034 75.7535 183.7736 0.0000 0.0000 0.0000
# 4 0.0000 0.0000 0.0000 -4.0801 0.0000 0.0000
# 5 0.0000 0.0000 0.0000 0.0000 31.1346 0.0000
# 6 0.0000 0.0000 0.0000 0.0000 0.0000 23.4490
#
#
#
# Elastic Compliance Matrix: (Units=1/GPa)
#
#
# Indices 1 2 3 4 5 6 
#
# 1 0.025141 -0.005398 -0.006531 0.000000 0.000000 0.000000
# 2 -0.005398 0.012344 -0.003209 0.000000 0.000000 0.000000
# 3 -0.006531 -0.003209 0.009039 0.000000 0.000000 0.000000
# 4 0.000000 0.000000 0.000000 -0.245090 0.000000 0.000000
# 5 0.000000 0.000000 0.000000 0.000000 0.032119 0.000000
# 6 0.000000 0.000000 0.000000 0.000000 0.000000 0.042646
#
#
# Mechanical properties :
#
#
# Convention : Reuss Voigt Hill
#
# Bulk Modulus (GPa) = 61.53968 82.36166 71.95067
# Shear Modulus (GPa) = -56.74742 22.45093 -17.14825
#
# Velocity S-wave (km/s) = -5.74457 3.61328 -3.15787
# Velocity P-wave (km/s) = 2.86587 8.08104 5.34275
#
# Compressibility (1/GPa) = 0.01624968
#
# Stress axis : x y z
#
# Youngs Moduli (GPa) = 39.77498 81.00787 110.63537
#
# Poissons Ratio (x) = 0.43726 0.72257
# Poissons Ratio (y) = 0.21470 0.35499
# Poissons Ratio (z) = 0.25977 0.25992
#
# Static dielectric constant tensor:
#      x y z
#    x 1.576260 0.000000 0.000000 
#    y 0.000000 1.549590 0.000000 
#    z 0.000000 0.000000 1.601510 
# 
# From -- ./inp_files/40833.got.cif
#   From: 2010.05.17/outbox.cif.g08.bks.cpg/sg67_21_cif.got.tgz:40833.got - 2010.06.03 18:28:57.
