data_PCOD9502610
_publ_section_title
;
Structure prediction by ZEFSAII (Michael W. Deem and Ramdas Pophale) SiO2 
 PCOD9502610
Probable space group: C M M A
;
_chemical_formula_sum "Si O2"
_cell_formula_units_Z 104
_cell_length_a 24.489838
_cell_length_b 19.865888
_cell_length_c 12.464623
_cell_angle_alpha 90.000000
_cell_angle_beta 90.000000
_cell_angle_gamma 90.000000
_cell_volume 6064.193387
_symmetry_space_group_name_H-M "C M M A"
_symmetry_group_IT_number 67
_symmetry_cell_setting 'orthorhombic'
loop_
_space_group_symop_operation_xyz
x,y,z
-x,1/2-y,z
x,-y,-z
-x,1/2+y,-z
-x,-y,-z
x,1/2+y,-z
-x,y,z
x,1/2-y,z
1/2+x,1/2+y,z
1/2-x,-y,z
1/2+x,1/2-y,-z
1/2-x,y,-z
1/2-x,1/2-y,-z
1/2+x,y,-z
1/2-x,1/2+y,z
1/2+x,-y,z
loop_
_atom_site_type_symbol
_atom_site_label
_atom_site_fract_x
_atom_site_fract_y
_atom_site_fract_z
Si Si1 0.885314 0.500000 0.000000
Si Si2 0.139716 0.672254 0.682724
Si Si3 0.435502 0.541465 0.606062
Si Si4 0.563612 0.434380 0.795509
Si Si5 0.216633 0.068351 0.895912
Si Si6 0.129307 0.673124 0.430616
Si Si7 0.732984 0.828530 0.708217
O O1 0.920609 0.540202 0.913478
O O2 0.843391 0.452572 0.934414
O O3 0.133466 0.750000 0.715783
O O4 0.103812 0.624323 0.756587
O O5 0.122804 0.667012 0.558427
O O6 0.203950 0.655501 0.685344
O O7 0.416521 0.500000 0.500000
O O8 0.500000 0.554254 0.591125
O O9 0.428326 0.494702 0.709831
O O10 0.404976 0.612128 0.618109
O O11 0.500000 0.414247 0.790120
O O12 0.214786 0.121735 0.801907
O O13 0.250000 0.000000 0.864186
O O14 0.250000 0.094392 0.000000
O O15 0.113323 0.750000 0.400207
O O16 0.192028 0.664742 0.392284
O O17 0.730219 0.750000 0.741020
#
# Coordination Sequence:
#
# PCOD9502610 Si02
#       7
#     8  16  16  16  16  16  16
#     4  10  20  36  56  78 106 140 180 226 278 326
#     4  10  20  35  55  79 111 147 181 226 278 327
#     4  10  20  36  56  81 111 142 180 227 271 319
#     4  11  22  37  58  80 108 144 185 231 277 329
#     4   9  18  33  53  76 104 140 182 228 274 323
#     4  10  20  34  54  80 113 148 182 224 276 330
#     4  10  20  34  53  79 110 146 183 222 274 333
#
# _framework density 17.149849
#
# number of rings (size 3 to 8) (size 9 to 14) (size 15 to 20)
#    0.000    2.154    1.538    3.462    0.000    2.769 
#    0.000    2.308    0.000    0.923    0.000    2.154 
#    0.000    0.000    0.000    0.000    0.000    0.000 
#
# Total GULP energy -290019.688486 kJ/mol
# GULP energy per Si atom -5577.301702 kJ/mol
# Density = 1.711082 g / cm^3
# Si number density = 17.149849 Si / 1000 Ang^3
#
#
#
# Elastic Constant Matrix: (Units=GPa)
#
#
# Indices 1 2 3 4 5 6 
#
# 1 82.2244 57.6805 22.8802 0.0000 0.0000 0.0000
# 2 57.6805 79.7504 33.5165 0.0000 0.0000 0.0000
# 3 22.8802 33.5165 59.3290 0.0000 0.0000 0.0000
# 4 0.0000 0.0000 0.0000 28.6434 0.0000 0.0000
# 5 0.0000 0.0000 0.0000 0.0000 12.1236 0.0000
# 6 0.0000 0.0000 0.0000 0.0000 0.0000 22.8013
#
#
#
# Elastic Compliance Matrix: (Units=1/GPa)
#
#
# Indices 1 2 3 4 5 6 
#
# 1 0.024713 -0.018186 0.000743 0.000000 0.000000 0.000000
# 2 -0.018186 0.029826 -0.009836 0.000000 0.000000 0.000000
# 3 0.000743 -0.009836 0.022125 0.000000 0.000000 0.000000
# 4 0.000000 0.000000 0.000000 0.034912 0.000000 0.000000
# 5 0.000000 0.000000 0.000000 0.000000 0.082484 0.000000
# 6 0.000000 0.000000 0.000000 0.000000 0.000000 0.043857
#
#
# Mechanical properties :
#
#
# Convention : Reuss Voigt Hill
#
# Bulk Modulus (GPa) = 45.23598 49.93979 47.58789
# Shear Modulus (GPa) = 16.67536 19.86210 18.26873
#
# Velocity S-wave (km/s) = 3.12161 3.40685 3.26734
# Velocity P-wave (km/s) = 6.27907 6.68269 6.48402
#
# Compressibility (1/GPa) = 0.02210630
#
# Stress axis : x y z
#
# Youngs Moduli (GPa) = 40.46525 33.52741 45.19731
#
# Poissons Ratio (x) = 0.60973 -0.03360
# Poissons Ratio (y) = 0.73591 0.44457
# Poissons Ratio (z) = -0.03008 0.32978
#
# Static dielectric constant tensor:
#      x y z
#    x 1.581730 0.000000 0.000000 
#    y 0.000000 1.569120 0.000000 
#    z 0.000000 0.000000 1.572760 
# 
# From -- ./inp_files/22990.got.cif
#   From: 2010.05.17/outbox.cif.g08.bks.cpg/sg67_12_cif.got.tgz:22990.got - 2010.06.03 18:28:57.
