data_PCOD9502302
_publ_section_title
;
Structure prediction by ZEFSAII (Michael W. Deem and Ramdas Pophale) SiO2 
 PCOD9502302
Probable space group: C M M A
;
_chemical_formula_sum "Si O2"
_cell_formula_units_Z 96
_cell_length_a 19.456672
_cell_length_b 8.019959
_cell_length_c 31.697208
_cell_angle_alpha 90.000000
_cell_angle_beta 90.000000
_cell_angle_gamma 90.000000
_cell_volume 4946.086593
_symmetry_space_group_name_H-M "C M M A"
_symmetry_group_IT_number 67
_symmetry_cell_setting 'orthorhombic'
loop_
_space_group_symop_operation_xyz
x,y,z
-x,1/2-y,z
x,-y,-z
-x,1/2+y,-z
-x,-y,-z
x,1/2+y,-z
-x,y,z
x,1/2-y,z
1/2+x,1/2+y,z
1/2-x,-y,z
1/2+x,1/2-y,-z
1/2-x,y,-z
1/2-x,1/2-y,-z
1/2+x,y,-z
1/2-x,1/2+y,z
1/2+x,-y,z
loop_
_atom_site_type_symbol
_atom_site_label
_atom_site_fract_x
_atom_site_fract_y
_atom_site_fract_z
Si Si1 0.421298 0.951040 0.452811
Si Si2 0.170738 0.451461 0.374990
Si Si3 0.921289 0.951247 0.047177
Si Si4 0.921121 0.953435 0.702673
Si Si5 0.421990 0.950974 0.201762
Si Si6 0.171035 0.051961 0.876045
O O1 0.500000 0.010409 0.446295
O O2 0.422795 0.750000 0.450771
O O3 0.370558 0.011454 0.416295
O O4 0.399836 0.000000 0.500000
O O5 0.167027 0.250000 0.374919
O O6 0.250000 0.500000 0.375636
O O7 0.131395 0.511455 0.332954
O O8 0.922588 0.750000 0.049119
O O9 0.871212 0.016045 0.083659
O O10 0.000000 0.010562 0.053586
O O11 0.899633 0.000000 0.000000
O O12 0.919943 0.750000 0.702575
O O13 0.905008 0.007338 0.750534
O O14 0.000000 0.001597 0.692990
O O15 0.500000 0.008289 0.191707
O O16 0.423348 0.750000 0.202561
O O17 0.368455 0.003981 0.166581
O O18 0.169283 0.250000 0.879241
O O19 0.250000 0.000000 0.875797
#
# Coordination Sequence:
#
# PCOD9502302 Si02
#       6
#    16  16  16  16  16  16
#     4   9  18  33  53  74  95 125 166 208 249 294
#     4  10  20  33  50  73 102 134 166 202 248 300
#     4   9  19  36  57  79 102 132 171 214 259 306
#     4   8  15  31  55  78  99 128 169 212 249 293
#     4   9  18  34  57  82 105 133 172 215 259 308
#     4  11  23  37  53  76 109 144 177 214 258 308
#
# _framework density 19.409285000000001
#
# number of rings (size 3 to 8) (size 9 to 14) (size 15 to 20)
#    0.000    2.667    0.000    2.500    0.000    6.333 
#    0.000    7.500    0.000    2.500    0.000    0.000 
#    0.000    0.000    0.000    0.000    0.000    0.000 
#
# Total GULP energy -267848.197795 kJ/mol
# GULP energy per Si atom -5580.170787 kJ/mol
# Density = 1.936511 g / cm^3
# Si number density = 19.409285 Si / 1000 Ang^3
#
#
#
# Elastic Constant Matrix: (Units=GPa)
#
#
# Indices 1 2 3 4 5 6 
#
# 1 160.4316 11.2834 149.8656 0.0000 0.0000 0.0000
# 2 11.2834 14.4363 13.3570 0.0000 0.0000 0.0000
# 3 149.8656 13.3570 197.5494 0.0000 0.0000 0.0000
# 4 0.0000 0.0000 0.0000 16.9763 0.0000 0.0000
# 5 0.0000 0.0000 0.0000 0.0000 0.8203 0.0000
# 6 0.0000 0.0000 0.0000 0.0000 0.0000 18.6580
#
#
#
# Elastic Compliance Matrix: (Units=1/GPa)
#
#
# Indices 1 2 3 4 5 6 
#
# 1 0.021440 -0.001823 -0.016141 0.000000 0.000000 0.000000
# 2 -0.001823 0.074047 -0.003624 0.000000 0.000000 0.000000
# 3 -0.016141 -0.003624 0.017552 0.000000 0.000000 0.000000
# 4 0.000000 0.000000 0.000000 0.058906 0.000000 0.000000
# 5 0.000000 0.000000 0.000000 0.000000 1.219075 0.000000
# 6 0.000000 0.000000 0.000000 0.000000 0.000000 0.053596
#
#
# Mechanical properties :
#
#
# Convention : Reuss Voigt Hill
#
# Bulk Modulus (GPa) = 14.31367 80.15883 47.23625
# Shear Modulus (GPa) = 3.30889 20.48500 11.89695
#
# Velocity S-wave (km/s) = 1.30710 3.25225 2.47847
# Velocity P-wave (km/s) = 3.10945 7.44928 5.70791
#
# Compressibility (1/GPa) = 0.06986327
#
# Stress axis : x y z
#
# Youngs Moduli (GPa) = 46.64228 13.50490 56.97243
#
# Poissons Ratio (x) = 0.02461 0.91962
# Poissons Ratio (y) = 0.08501 0.20646
# Poissons Ratio (z) = 0.75288 0.04894
#
# Static dielectric constant tensor:
#      x y z
#    x 1.426090 0.000000 0.000000 
#    y 0.000000 1.705000 0.000000 
#    z 0.000000 0.000000 1.675500 
# 
# From -- ./inp_files/43515.got.cif
#   From: 2010.05.17/outbox.cif.g08.bks.cpg/sg67_22_cif.got.tgz:43515.got - 2010.06.03 18:28:57.
