data_PCOD9502420
_publ_section_title
;
Structure prediction by ZEFSAII (Michael W. Deem and Ramdas Pophale) SiO2 
 PCOD9502420
Probable space group: C M M A
;
_chemical_formula_sum "Si O2"
_cell_formula_units_Z 112
_cell_length_a 14.637572
_cell_length_b 16.140007
_cell_length_c 25.047338
_cell_angle_alpha 90.000000
_cell_angle_beta 90.000000
_cell_angle_gamma 90.000000
_cell_volume 5917.446490
_symmetry_space_group_name_H-M "C M M A"
_symmetry_group_IT_number 67
_symmetry_cell_setting 'orthorhombic'
loop_
_space_group_symop_operation_xyz
x,y,z
-x,1/2-y,z
x,-y,-z
-x,1/2+y,-z
-x,-y,-z
x,1/2+y,-z
-x,y,z
x,1/2-y,z
1/2+x,1/2+y,z
1/2-x,-y,z
1/2+x,1/2-y,-z
1/2-x,y,-z
1/2-x,1/2-y,-z
1/2+x,y,-z
1/2-x,1/2+y,z
1/2+x,-y,z
loop_
_atom_site_type_symbol
_atom_site_label
_atom_site_fract_x
_atom_site_fract_y
_atom_site_fract_z
Si Si1 0.394802 0.847413 0.520925
Si Si2 0.345550 0.158589 0.143222
Si Si3 0.191294 0.157569 0.053222
Si Si4 0.777761 0.094717 0.420832
Si Si5 0.782590 0.585335 0.775159
Si Si6 0.601876 0.974035 0.122878
Si Si7 0.103990 0.848190 0.679032
O O1 0.500000 0.875093 0.531515
O O2 0.398896 0.750000 0.508647
O O3 0.318343 0.859008 0.566972
O O4 0.348226 0.890311 0.469706
O O5 0.390549 0.250000 0.143640
O O6 0.262687 0.165131 0.101484
O O7 0.301570 0.138474 0.201275
O O8 0.394402 0.074304 0.123114
O O9 0.145820 0.250000 0.048429
O O10 0.132947 0.076974 0.070276
O O11 0.250000 0.143689 0.000000
O O12 0.830226 0.119445 0.367463
O O13 0.750000 0.000000 0.419367
O O14 0.750000 0.500000 0.747923
O O15 0.835367 0.554402 0.828082
O O16 0.849572 0.632052 0.735670
O O17 0.500000 0.947257 0.134798
O O18 0.098664 0.750000 0.672601
O O19 0.000000 0.881752 0.675879
#
# Coordination Sequence:
#
# PCOD9502420 Si02
#       7
#    16  16  16  16  16  16  16
#     4  10  20  36  58  80 105 139 178 220 266 319
#     4   9  18  33  53  75 103 143 182 213 255 317
#     4   9  18  34  54  73  99 137 176 215 263 319
#     4  11  22  35  53  78 109 143 178 219 266 319
#     4   9  18  35  56  78 105 139 180 222 268 320
#     4  10  20  33  53  81 109 136 172 222 272 320
#     4  11  22  35  54  80 110 142 177 223 277 327
#
# _framework density 18.927081999999999
#
# number of rings (size 3 to 8) (size 9 to 14) (size 15 to 20)
#    0.000    2.143    0.000    5.571    0.000    5.143 
#    0.000    1.429    0.000    3.429    0.000    0.000 
#    0.000    0.000    0.000    0.000    0.000    0.000 
#
# Total GULP energy -311810.187678 kJ/mol
# GULP energy per Si atom -5568.039066 kJ/mol
# Density = 1.888400 g / cm^3
# Si number density = 18.927082 Si / 1000 Ang^3
#
#
#
# Elastic Constant Matrix: (Units=GPa)
#
#
# Indices 1 2 3 4 5 6 
#
# 1 106.4638 41.3587 25.5538 0.0000 0.0000 0.0000
# 2 41.3587 122.9088 37.7553 0.0000 0.0000 0.0000
# 3 25.5538 37.7553 61.6435 0.0000 0.0000 0.0000
# 4 0.0000 0.0000 0.0000 36.2033 0.0000 0.0000
# 5 0.0000 0.0000 0.0000 0.0000 -35.8181 0.0000
# 6 0.0000 0.0000 0.0000 0.0000 0.0000 -6.2155
#
#
#
# Elastic Compliance Matrix: (Units=1/GPa)
#
#
# Indices 1 2 3 4 5 6 
#
# 1 0.011205 -0.002887 -0.002877 0.000000 0.000000 0.000000
# 2 -0.002887 0.010765 -0.005397 0.000000 0.000000 0.000000
# 3 -0.002877 -0.005397 0.020720 0.000000 0.000000 0.000000
# 4 0.000000 0.000000 0.000000 0.027622 0.000000 0.000000
# 5 0.000000 0.000000 0.000000 0.000000 -0.027919 0.000000
# 6 0.000000 0.000000 0.000000 0.000000 0.000000 -0.160889
#
#
# Mechanical properties :
#
#
# Convention : Reuss Voigt Hill
#
# Bulk Modulus (GPa) = 49.09257 55.59464 52.34361
# Shear Modulus (GPa) = -55.93785 11.25716 -22.34035
#
# Velocity S-wave (km/s) = -5.44229 2.44143 -3.43933
# Velocity P-wave (km/s) = 3.67388 6.11427 3.45593
#
# Compressibility (1/GPa) = 0.02036968
#
# Stress axis : x y z
#
# Youngs Moduli (GPa) = 89.24763 92.89102 48.26180
#
# Poissons Ratio (x) = 0.26815 0.13884
# Poissons Ratio (y) = 0.25763 0.26046
# Poissons Ratio (z) = 0.25675 0.50132
#
# Static dielectric constant tensor:
#      x y z
#    x 1.671430 0.000000 0.000000 
#    y 0.000000 1.719000 0.000000 
#    z 0.000000 0.000000 1.647740 
# 
# From -- ./inp_files/44349.got.cif
#   From: 2010.05.17/outbox.cif.g08.bks.cpg/sg67_23_cif.got.tgz:44349.got - 2010.06.03 18:28:57.
