data_PCOD9502539
_publ_section_title
;
Structure prediction by ZEFSAII (Michael W. Deem and Ramdas Pophale) SiO2 
 PCOD9502539
Probable space group: C M M A
;
_chemical_formula_sum "Si O2"
_cell_formula_units_Z 80
_cell_length_a 14.513667
_cell_length_b 9.082019
_cell_length_c 26.808499
_cell_angle_alpha 90.000000
_cell_angle_beta 90.000000
_cell_angle_gamma 90.000000
_cell_volume 3533.719387
_symmetry_space_group_name_H-M "C M M A"
_symmetry_group_IT_number 67
_symmetry_cell_setting 'orthorhombic'
loop_
_space_group_symop_operation_xyz
x,y,z
-x,1/2-y,z
x,-y,-z
-x,1/2+y,-z
-x,-y,-z
x,1/2+y,-z
-x,y,z
x,1/2-y,z
1/2+x,1/2+y,z
1/2-x,-y,z
1/2+x,1/2-y,-z
1/2-x,y,-z
1/2-x,1/2-y,-z
1/2+x,y,-z
1/2-x,1/2+y,z
1/2+x,-y,z
loop_
_atom_site_type_symbol
_atom_site_label
_atom_site_fract_x
_atom_site_fract_y
_atom_site_fract_z
Si Si1 0.612563 0.918074 0.651423
Si Si2 0.112634 0.418203 0.449498
Si Si3 0.112931 0.581747 0.752497
Si Si4 0.850770 0.073322 0.049091
Si Si5 0.107789 0.086301 0.850167
O O1 0.500000 0.915442 0.651346
O O2 0.644682 0.750000 0.653283
O O3 0.640740 0.996876 0.600397
O O4 0.640104 0.006432 0.700708
O O5 0.140660 0.500000 0.500000
O O6 0.144525 0.250000 0.448929
O O7 0.000000 0.415923 0.449464
O O8 0.144350 0.750000 0.755398
O O9 0.145001 0.489679 0.800433
O O10 0.000000 0.584266 0.753133
O O11 0.849730 0.250000 0.044736
O O12 0.750000 0.000000 0.049882
O O13 0.888122 0.019166 0.101986
O O14 0.896029 0.000000 0.000000
O O15 0.147896 0.250000 0.860348
O O16 0.000000 0.105681 0.840235
#
# Coordination Sequence:
#
# PCOD9502539 Si02
#       5
#    16  16  16  16  16
#     4   9  15  22  32  46  66  95 131 172 219 269
#     4   9  15  21  28  39  57  84 122 169 217 264
#     4   9  16  26  40  59  83 111 144 183 228 276
#     4  11  22  38  58  78 102 131 164 199 238 286
#     4  10  20  34  52  75 102 130 162 201 243 286
#
# _framework density 22.639035
#
# number of rings (size 3 to 8) (size 9 to 14) (size 15 to 20)
#    0.000    2.400    0.000    4.800    0.000    8.800 
#    0.000    0.000    0.000    0.000    0.000    0.000 
#    0.000    0.000    0.000    0.000    0.000    1.000 
#
# Total GULP energy -223562.909239 kJ/mol
# GULP energy per Si atom -5589.072731 kJ/mol
# Density = 2.258751 g / cm^3
# Si number density = 22.639035 Si / 1000 Ang^3
#
#
#
# Elastic Constant Matrix: (Units=GPa)
#
#
# Indices 1 2 3 4 5 6 
#
# 1 58.8596 11.6614 5.8889 0.0000 0.0000 0.0000
# 2 11.6614 249.1585 127.7600 0.0000 0.0000 0.0000
# 3 5.8889 127.7600 231.3831 0.0000 0.0000 0.0000
# 4 0.0000 0.0000 0.0000 35.6178 0.0000 0.0000
# 5 0.0000 0.0000 0.0000 0.0000 9.0734 0.0000
# 6 0.0000 0.0000 0.0000 0.0000 0.0000 6.0876
#
#
#
# Elastic Compliance Matrix: (Units=1/GPa)
#
#
# Indices 1 2 3 4 5 6 
#
# 1 0.017149 -0.000807 0.000009 0.000000 0.000000 0.000000
# 2 -0.000807 0.005637 -0.003092 0.000000 0.000000 0.000000
# 3 0.000009 -0.003092 0.006029 0.000000 0.000000 0.000000
# 4 0.000000 0.000000 0.000000 0.028076 0.000000 0.000000
# 5 0.000000 0.000000 0.000000 0.000000 0.110212 0.000000
# 6 0.000000 0.000000 0.000000 0.000000 0.000000 0.164268
#
#
# Mechanical properties :
#
#
# Convention : Reuss Voigt Hill
#
# Bulk Modulus (GPa) = 47.54121 92.22463 69.88292
# Shear Modulus (GPa) = 14.44416 36.42851 25.43633
#
# Velocity S-wave (km/s) = 2.52865 4.01571 3.35559
# Velocity P-wave (km/s) = 5.43789 7.89473 6.77855
#
# Compressibility (1/GPa) = 0.02103438
#
# Stress axis : x y z
#
# Youngs Moduli (GPa) = 58.31376 177.41022 165.87199
#
# Poissons Ratio (x) = 0.14324 -0.00155
# Poissons Ratio (y) = 0.04708 0.51284
# Poissons Ratio (z) = -0.00055 0.54851
#
# Static dielectric constant tensor:
#      x y z
#    x 2.054560 0.000000 0.000000 
#    y 0.000000 1.794940 0.000000 
#    z 0.000000 0.000000 1.813690 
# 
# From -- ./inp_files/43224.got.cif
#   From: 2010.05.17/outbox.cif.g08.bks.cpg/sg67_22_cif.got.tgz:43224.got - 2010.06.03 18:28:57.
