data_PCOD9502228
_publ_section_title
;
Structure prediction by ZEFSAII (Michael W. Deem and Ramdas Pophale) SiO2 
 PCOD9502228
Probable space group: C M M A
;
_chemical_formula_sum "Si O2"
_cell_formula_units_Z 92
_cell_length_a 9.208652
_cell_length_b 20.263594
_cell_length_c 27.631627
_cell_angle_alpha 90.000000
_cell_angle_beta 90.000000
_cell_angle_gamma 90.000000
_cell_volume 5156.072248
_symmetry_space_group_name_H-M "C M M A"
_symmetry_group_IT_number 67
_symmetry_cell_setting 'orthorhombic'
loop_
_space_group_symop_operation_xyz
x,y,z
-x,1/2-y,z
x,-y,-z
-x,1/2+y,-z
-x,-y,-z
x,1/2+y,-z
-x,y,z
x,1/2-y,z
1/2+x,1/2+y,z
1/2-x,-y,z
1/2+x,1/2-y,-z
1/2-x,y,-z
1/2-x,1/2-y,-z
1/2+x,y,-z
1/2-x,1/2+y,z
1/2+x,-y,z
loop_
_atom_site_type_symbol
_atom_site_label
_atom_site_fract_x
_atom_site_fract_y
_atom_site_fract_z
Si Si1 0.672283 0.674656 0.160767
Si Si2 0.327390 0.571272 0.655027
Si Si3 0.750000 0.353792 0.000000
Si Si4 0.173364 0.071878 0.546198
Si Si5 0.328045 0.674109 0.276211
Si Si6 0.000000 0.750000 0.973398
Si Si7 0.167956 0.430875 0.905093
O O1 0.500000 0.668447 0.150546
O O2 0.713630 0.750000 0.147418
O O3 0.692520 0.666935 0.218435
O O4 0.761408 0.621184 0.131745
O O5 0.500000 0.562385 0.661093
O O6 0.250000 0.500000 0.659201
O O7 0.303445 0.598863 0.600295
O O8 0.262900 0.621768 0.693652
O O9 0.626983 0.307463 0.976765
O O10 0.816037 0.399057 0.958017
O O11 0.250000 0.105688 0.500000
O O12 0.000000 0.065951 0.538216
O O13 0.250000 0.000000 0.548663
O O14 0.500000 0.664928 0.285704
O O15 0.290564 0.750000 0.288624
O O16 0.250000 0.500000 0.902777
O O17 0.000000 0.440641 0.893325
#
# Coordination Sequence:
#
# PCOD9502228 Si02
#       7
#    16  16   8  16  16   4  16
#     4   9  21  40  65  87 111 144 185 231 278 331
#     4  10  20  32  51  79 109 144 182 226 276 329
#     4  11  25  42  66  94 122 152 194 234 282 328
#     4   9  16  26  42  68 101 136 177 221 270 322
#     4   9  19  38  59  83 109 142 183 227 278 333
#     4  10  24  42  66  98 120 150 194 242 272 322
#     4  12  27  42  61  88 121 156 190 228 281 335
#
# _framework density 17.843039000000001
#
# number of rings (size 3 to 8) (size 9 to 14) (size 15 to 20)
#    0.000    2.087    0.870    3.391    4.870    4.870 
#    0.000    1.739    0.000    0.522    0.000    0.000 
#    0.000    0.000    0.000    0.000    0.000    0.000 
#
# Total GULP energy -256161.380041 kJ/mol
# GULP energy per Si atom -5568.725653 kJ/mol
# Density = 1.780243 g / cm^3
# Si number density = 17.843039 Si / 1000 Ang^3
#
#
#
# Elastic Constant Matrix: (Units=GPa)
#
#
# Indices 1 2 3 4 5 6 
#
# 1 105.2318 70.5837 48.3730 0.0000 0.0000 0.0000
# 2 70.5837 120.9354 64.3019 0.0000 0.0000 0.0000
# 3 48.3730 64.3019 71.1624 0.0000 0.0000 0.0000
# 4 0.0000 0.0000 0.0000 4.2999 0.0000 0.0000
# 5 0.0000 0.0000 0.0000 0.0000 20.2060 0.0000
# 6 0.0000 0.0000 0.0000 0.0000 0.0000 29.1841
#
#
#
# Elastic Compliance Matrix: (Units=1/GPa)
#
#
# Indices 1 2 3 4 5 6 
#
# 1 0.016432 -0.007028 -0.004819 0.000000 0.000000 0.000000
# 2 -0.007028 0.018921 -0.012320 0.000000 0.000000 0.000000
# 3 -0.004819 -0.012320 0.028460 0.000000 0.000000 0.000000
# 4 0.000000 0.000000 0.000000 0.232562 0.000000 0.000000
# 5 0.000000 0.000000 0.000000 0.000000 0.049490 0.000000
# 6 0.000000 0.000000 0.000000 0.000000 0.000000 0.034265
#
#
# Mechanical properties :
#
#
# Convention : Reuss Voigt Hill
#
# Bulk Modulus (GPa) = 64.60162 73.76078 69.18120
# Shear Modulus (GPa) = 11.53067 18.34273 14.93670
#
# Velocity S-wave (km/s) = 2.54486 3.20973 2.89644
# Velocity P-wave (km/s) = 6.70218 7.42731 7.07404
#
# Compressibility (1/GPa) = 0.01547949
#
# Stress axis : x y z
#
# Youngs Moduli (GPa) = 60.85557 52.85024 35.13667
#
# Poissons Ratio (x) = 0.37145 0.16933
# Poissons Ratio (y) = 0.42771 0.43287
# Poissons Ratio (z) = 0.29328 0.65110
#
# Static dielectric constant tensor:
#      x y z
#    x 1.595820 0.000000 0.000000 
#    y 0.000000 1.572700 0.000000 
#    z 0.000000 0.000000 1.646970 
# 
# From -- ./inp_files/43547.got.cif
#   From: 2010.05.17/outbox.cif.g08.bks.cpg/sg67_22_cif.got.tgz:43547.got - 2010.06.03 18:28:57.
