data_PCOD9502670
_publ_section_title
;
Structure prediction by ZEFSAII (Michael W. Deem and Ramdas Pophale) SiO2 
 PCOD9502670
Probable space group: C M M A
;
_chemical_formula_sum "Si O2"
_cell_formula_units_Z 112
_cell_length_a 23.942045
_cell_length_b 17.279045
_cell_length_c 13.053264
_cell_angle_alpha 90.000000
_cell_angle_beta 90.000000
_cell_angle_gamma 90.000000
_cell_volume 5400.078835
_symmetry_space_group_name_H-M "C M M A"
_symmetry_group_IT_number 67
_symmetry_cell_setting 'orthorhombic'
loop_
_space_group_symop_operation_xyz
x,y,z
-x,1/2-y,z
x,-y,-z
-x,1/2+y,-z
-x,-y,-z
x,1/2+y,-z
-x,y,z
x,1/2-y,z
1/2+x,1/2+y,z
1/2-x,-y,z
1/2+x,1/2-y,-z
1/2-x,y,-z
1/2-x,1/2-y,-z
1/2+x,y,-z
1/2-x,1/2+y,z
1/2+x,-y,z
loop_
_atom_site_type_symbol
_atom_site_label
_atom_site_fract_x
_atom_site_fract_y
_atom_site_fract_z
Si Si1 0.663476 0.338877 0.151474
Si Si2 0.330951 0.161703 0.918187
Si Si3 0.563597 0.157958 0.425409
Si Si4 0.937848 0.935642 0.214517
Si Si5 0.264435 0.411215 0.739539
Si Si6 0.140902 0.839223 0.611063
Si Si7 0.564934 0.379059 0.802728
O O1 0.646601 0.250000 0.167419
O O2 0.611358 0.395752 0.153568
O O3 0.708259 0.363422 0.236920
O O4 0.686345 0.344966 0.035805
O O5 0.317868 0.250000 0.884078
O O6 0.300475 0.103022 0.842592
O O7 0.396874 0.147373 0.898280
O O8 0.500000 0.151189 0.467021
O O9 0.571140 0.250000 0.400002
O O10 0.566898 0.102766 0.327139
O O11 0.609194 0.134256 0.509112
O O12 0.000000 0.916654 0.175566
O O13 0.932156 0.028005 0.211876
O O14 0.250000 0.500000 0.727132
O O15 0.303944 0.383268 0.647781
O O16 0.156132 0.750000 0.596865
O O17 0.095817 0.844607 0.703217
O O18 0.500000 0.356996 0.810522
#
# Coordination Sequence:
#
# PCOD9502670 Si02
#       7
#    16  16  16  16  16  16  16
#     4  11  22  37  59  82 108 150 195 234 282 334
#     4  10  22  38  57  83 113 146 190 238 279 332
#     4   9  18  35  60  87 115 150 188 226 274 332
#     4  10  22  38  56  83 118 152 190 235 279 331
#     4  11  22  37  58  84 114 146 183 233 287 339
#     4  10  20  36  59  85 113 145 186 234 280 333
#     4  10  20  34  54  82 116 150 184 230 287 337
#
# _framework density 20.740438999999999
#
# number of rings (size 3 to 8) (size 9 to 14) (size 15 to 20)
#    0.000    1.857    0.000    5.571    0.000    7.714 
#    0.000    5.714    0.000    5.143    0.000    0.000 
#    0.000    0.000    0.000    0.000    0.000    0.000 
#
# Total GULP energy -312819.304649 kJ/mol
# GULP energy per Si atom -5586.059012 kJ/mol
# Density = 2.069323 g / cm^3
# Si number density = 20.740439 Si / 1000 Ang^3
#
#
#
# Elastic Constant Matrix: (Units=GPa)
#
#
# Indices 1 2 3 4 5 6 
#
# 1 72.5528 24.7025 4.3608 0.0000 0.0000 0.0000
# 2 24.7025 72.7647 10.4446 0.0000 0.0000 0.0000
# 3 4.3608 10.4446 29.6654 0.0000 0.0000 0.0000
# 4 0.0000 0.0000 0.0000 32.5107 0.0000 0.0000
# 5 0.0000 0.0000 0.0000 0.0000 22.8073 0.0000
# 6 0.0000 0.0000 0.0000 0.0000 0.0000 30.3592
#
#
#
# Elastic Compliance Matrix: (Units=1/GPa)
#
#
# Indices 1 2 3 4 5 6 
#
# 1 0.015590 -0.005228 -0.000451 0.000000 0.000000 0.000000
# 2 -0.005228 0.016227 -0.004945 0.000000 0.000000 0.000000
# 3 -0.000451 -0.004945 0.035517 0.000000 0.000000 0.000000
# 4 0.000000 0.000000 0.000000 0.030759 0.000000 0.000000
# 5 0.000000 0.000000 0.000000 0.000000 0.043846 0.000000
# 6 0.000000 0.000000 0.000000 0.000000 0.000000 0.032939
#
#
# Mechanical properties :
#
#
# Convention : Reuss Voigt Hill
#
# Bulk Modulus (GPa) = 21.69835 28.22210 24.96022
# Shear Modulus (GPa) = 23.64204 26.16712 24.90458
#
# Velocity S-wave (km/s) = 3.37990 3.55582 3.46898
# Velocity P-wave (km/s) = 5.07112 5.52226 5.30149
#
# Compressibility (1/GPa) = 0.04608646
#
# Stress axis : x y z
#
# Youngs Moduli (GPa) = 64.14306 61.62385 28.15588
#
# Poissons Ratio (x) = 0.32216 0.01270
# Poissons Ratio (y) = 0.33533 0.13923
# Poissons Ratio (z) = 0.02894 0.30472
#
# Static dielectric constant tensor:
#      x y z
#    x 1.781410 0.000000 0.000000 
#    y 0.000000 1.710360 0.000000 
#    z 0.000000 0.000000 1.726530 
# 
# From -- ./inp_files/30134.got.cif
#   From: 2010.05.17/outbox.cif.g08.bks.cpg/sg67_16_cif.got.tgz:30134.got - 2010.06.03 18:28:57.
