data_PCOD9502706
_publ_section_title
;
Structure prediction by ZEFSAII (Michael W. Deem and Ramdas Pophale) SiO2 
 PCOD9502706
Probable space group: C M M A
;
_chemical_formula_sum "Si O2"
_cell_formula_units_Z 104
_cell_length_a 25.807371
_cell_length_b 20.641588
_cell_length_c 10.902168
_cell_angle_alpha 90.000000
_cell_angle_beta 90.000000
_cell_angle_gamma 90.000000
_cell_volume 5807.640708
_symmetry_space_group_name_H-M "C M M A"
_symmetry_group_IT_number 67
_symmetry_cell_setting 'orthorhombic'
loop_
_space_group_symop_operation_xyz
x,y,z
-x,1/2-y,z
x,-y,-z
-x,1/2+y,-z
-x,-y,-z
x,1/2+y,-z
-x,y,z
x,1/2-y,z
1/2+x,1/2+y,z
1/2-x,-y,z
1/2+x,1/2-y,-z
1/2-x,y,-z
1/2-x,1/2-y,-z
1/2+x,y,-z
1/2-x,1/2+y,z
1/2+x,-y,z
loop_
_atom_site_type_symbol
_atom_site_label
_atom_site_fract_x
_atom_site_fract_y
_atom_site_fract_z
Si Si1 0.146971 0.327518 0.696738
Si Si2 0.383507 0.000000 0.000000
Si Si3 0.940150 0.621684 0.125472
Si Si4 0.811089 0.577550 0.513287
Si Si5 0.250063 0.678897 0.853855
Si Si6 0.344966 0.090261 0.790057
Si Si7 0.058163 0.824109 0.863957
O O1 0.143980 0.250000 0.666121
O O2 0.095595 0.352241 0.765633
O O3 0.160125 0.375584 0.584020
O O4 0.194182 0.334910 0.794779
O O5 0.417855 0.944363 0.935004
O O6 0.351298 0.031423 0.887260
O O7 0.000000 0.613265 0.161494
O O8 0.937707 0.671476 0.011479
O O9 0.812346 0.500000 0.500000
O O10 0.750000 0.596332 0.500000
O O11 0.837564 0.582412 0.645847
O O12 0.233949 0.750000 0.806052
O O13 0.207490 0.626848 0.823425
O O14 0.250000 0.682049 0.000000
O O15 0.396144 0.132904 0.811395
O O16 0.063367 0.750000 0.824710
O O17 0.000000 0.847573 0.832535
#
# Coordination Sequence:
#
# PCOD9502706 Si02
#       7
#    16   8  16  16  16  16  16
#     4  11  23  39  60  90 122 159 214 262 308 381
#     4  10  21  36  61  92 120 156 210 260 310 382
#     4  10  20  37  60  88 123 161 200 254 317 371
#     4  11  24  43  61  81 119 165 208 250 308 375
#     4  10  20  34  55  85 119 149 187 248 312 365
#     4  11  21  38  59  85 114 157 194 248 305 363
#     4   9  18  33  57  88 118 149 189 241 303 364
#
# _framework density 17.907444999999999
#
# number of rings (size 3 to 8) (size 9 to 14) (size 15 to 20)
#    0.000    1.692    1.538    3.923    0.000    4.308 
#    0.000    1.538    0.000    1.846    0.000    0.000 
#    0.000    0.000    0.000    0.000    0.000    0.000 
#
# Total GULP energy -289751.764280 kJ/mol
# GULP energy per Si atom -5572.149313 kJ/mol
# Density = 1.786669 g / cm^3
# Si number density = 17.907445 Si / 1000 Ang^3
#
#
#
# Elastic Constant Matrix: (Units=GPa)
#
#
# Indices 1 2 3 4 5 6 
#
# 1 116.2452 52.6760 63.8212 0.0000 0.0000 0.0000
# 2 52.6760 85.2158 45.8450 0.0000 0.0000 0.0000
# 3 63.8212 45.8450 122.7238 0.0000 0.0000 0.0000
# 4 0.0000 0.0000 0.0000 3.6087 0.0000 0.0000
# 5 0.0000 0.0000 0.0000 0.0000 13.6719 0.0000
# 6 0.0000 0.0000 0.0000 0.0000 0.0000 26.9712
#
#
#
# Elastic Compliance Matrix: (Units=1/GPa)
#
#
# Indices 1 2 3 4 5 6 
#
# 1 0.014115 -0.005978 -0.005108 0.000000 0.000000 0.000000
# 2 -0.005978 0.017218 -0.003323 0.000000 0.000000 0.000000
# 3 -0.005108 -0.003323 0.012046 0.000000 0.000000 0.000000
# 4 0.000000 0.000000 0.000000 0.277111 0.000000 0.000000
# 5 0.000000 0.000000 0.000000 0.000000 0.073143 0.000000
# 6 0.000000 0.000000 0.000000 0.000000 0.000000 0.037077
#
#
# Mechanical properties :
#
#
# Convention : Reuss Voigt Hill
#
# Bulk Modulus (GPa) = 68.67082 72.09658 70.38370
# Shear Modulus (GPa) = 10.76704 19.63987 15.20345
#
# Velocity S-wave (km/s) = 2.45472 3.31530 2.91692
# Velocity P-wave (km/s) = 6.81653 7.41641 7.12279
#
# Compressibility (1/GPa) = 0.01456223
#
# Stress axis : x y z
#
# Youngs Moduli (GPa) = 70.84470 58.07915 83.01514
#
# Poissons Ratio (x) = 0.34717 0.42400
# Poissons Ratio (y) = 0.42348 0.27589
# Poissons Ratio (z) = 0.36184 0.19302
#
# Static dielectric constant tensor:
#      x y z
#    x 1.598330 0.000000 0.000000 
#    y 0.000000 1.661830 0.000000 
#    z 0.000000 0.000000 1.558820 
# 
# From -- ./inp_files/13821.got.cif
#   From: 2010.05.17/outbox.cif.g08.bks.cpg/sg67_7_cif.got.tgz:13821.got - 2010.06.03 18:28:57.
