data_PCOD9502828
_publ_section_title
;
Structure prediction by ZEFSAII (Michael W. Deem and Ramdas Pophale) SiO2 
 PCOD9502828
Probable space group: C M M A
;
_chemical_formula_sum "Si O2"
_cell_formula_units_Z 96
_cell_length_a 15.329969
_cell_length_b 15.543188
_cell_length_c 19.742621
_cell_angle_alpha 90.000000
_cell_angle_beta 90.000000
_cell_angle_gamma 90.000000
_cell_volume 4704.204414
_symmetry_space_group_name_H-M "C M M A"
_symmetry_group_IT_number 67
_symmetry_cell_setting 'orthorhombic'
loop_
_space_group_symop_operation_xyz
x,y,z
-x,1/2-y,z
x,-y,-z
-x,1/2+y,-z
-x,-y,-z
x,1/2+y,-z
-x,y,z
x,1/2-y,z
1/2+x,1/2+y,z
1/2-x,-y,z
1/2+x,1/2-y,-z
1/2-x,y,-z
1/2-x,1/2-y,-z
1/2+x,y,-z
1/2-x,1/2+y,z
1/2+x,-y,z
loop_
_atom_site_type_symbol
_atom_site_label
_atom_site_fract_x
_atom_site_fract_y
_atom_site_fract_z
Si Si1 0.104807 0.842996 0.647127
Si Si2 0.647391 0.000000 0.744295
Si Si3 0.893858 0.399424 0.500000
Si Si4 0.143296 0.000000 0.896904
Si Si5 0.143777 0.149205 1.000000
Si Si6 0.895193 0.342996 0.647127
O O1 0.136264 0.750000 0.670580
O O2 0.125146 0.917600 0.699309
O O3 0.137606 0.860505 0.570779
O O4 0.000000 0.841007 0.641830
O O5 0.610011 0.000000 0.820034
O O6 0.750000 0.000000 0.753710
O O7 0.625146 0.917600 0.699309
O O8 0.872920 0.500000 0.500000
O O9 0.862394 0.360505 0.570779
O O10 0.000000 0.391583 0.500000
O O11 0.250000 0.000000 0.898334
O O12 0.117604 0.087692 0.936620
O O13 0.117604 0.912308 0.936620
O O14 0.114447 0.250000 1.000000
O O15 0.250000 0.152786 0.000000
O O16 0.863736 0.250000 0.670580
O O17 0.000000 0.341007 0.641830
#
# Coordination Sequence:
#
# PCOD9502828 Si02
#       6
#    16  16  16  16  16  16
#     4  10  20  35  55  76  98 130 175 220 257 296
#     4  11  22  34  49  74 112 143 162 196 252 315
#     4   9  15  29  55  77  93 120 169 228 265 288
#     4   8  16  28  42  67  99 129 160 195 240 293
#     4   8  13  25  46  67  89 122 164 204 238 278
#     4  10  20  35  55  76  98 130 175 220 257 296
#
# _framework density 20.407277000000001
#
# number of rings (size 3 to 8) (size 9 to 14) (size 15 to 20)
#    0.000    2.667    1.667    2.000    0.000    4.000 
#    0.000    5.000    0.000    2.000    0.000    9.333 
#    0.000   16.000    0.000    0.000    0.000    0.000 
#
# Total GULP energy -267662.634940 kJ/mol
# GULP energy per Si atom -5576.304895 kJ/mol
# Density = 2.036083 g / cm^3
# Si number density = 20.407277 Si / 1000 Ang^3
#
#
#
# Elastic Constant Matrix: (Units=GPa)
#
#
# Indices 1 2 3 4 5 6 
#
# 1 33.8670 7.4645 6.3023 0.0000 0.0000 0.0000
# 2 7.4645 232.4149 124.4678 0.0000 0.0000 0.0000
# 3 6.3023 124.4678 196.9427 0.0000 0.0000 0.0000
# 4 0.0000 0.0000 0.0000 -47.8267 0.0000 0.0000
# 5 0.0000 0.0000 0.0000 0.0000 17.9029 0.0000
# 6 0.0000 0.0000 0.0000 0.0000 0.0000 -9.1641
#
#
#
# Elastic Compliance Matrix: (Units=1/GPa)
#
#
# Indices 1 2 3 4 5 6 
#
# 1 0.029774 -0.000674 -0.000527 0.000000 0.000000 0.000000
# 2 -0.000674 0.006519 -0.004099 0.000000 0.000000 0.000000
# 3 -0.000527 -0.004099 0.007685 0.000000 0.000000 0.000000
# 4 0.000000 0.000000 0.000000 -0.020909 0.000000 0.000000
# 5 0.000000 0.000000 0.000000 0.000000 0.055857 0.000000
# 6 0.000000 0.000000 0.000000 0.000000 0.000000 -0.109122
#
#
# Mechanical properties :
#
#
# Convention : Reuss Voigt Hill
#
# Bulk Modulus (GPa) = 29.95896 82.18820 56.07358
# Shear Modulus (GPa) = -590.31134 13.84841 -288.23147
#
# Velocity S-wave (km/s) = -17.02625 2.60782 -11.89732
# Velocity P-wave (km/s) = 19.28242 7.03058 12.69611
#
# Compressibility (1/GPa) = 0.03337899
#
# Stress axis : x y z
#
# Youngs Moduli (GPa) = 33.58645 153.39121 130.12708
#
# Poissons Ratio (x) = 0.10341 0.06854
# Poissons Ratio (y) = 0.02264 0.53334
# Poissons Ratio (z) = 0.01769 0.62869
#
# Static dielectric constant tensor:
#      x y z
#    x 1.778680 0.000000 0.000000 
#    y 0.000000 1.695130 0.000000 
#    z 0.000000 0.000000 1.737010 
# 
# From -- ./inp_files/39350.got.cif
#   From: 2010.05.17/outbox.cif.g08.bks.cpg/sg67_20_cif.got.tgz:39350.got - 2010.06.03 18:28:57.
