data_PCOD9502995
_publ_section_title
;
Structure prediction by ZEFSAII (Michael W. Deem and Ramdas Pophale) SiO2 
 PCOD9502995
Probable space group: C M M A
;
_chemical_formula_sum "Si O2"
_cell_formula_units_Z 88
_cell_length_a 9.092381
_cell_length_b 16.822093
_cell_length_c 30.139071
_cell_angle_alpha 90.000000
_cell_angle_beta 90.000000
_cell_angle_gamma 90.000000
_cell_volume 4609.857673
_symmetry_space_group_name_H-M "C M M A"
_symmetry_group_IT_number 67
_symmetry_cell_setting 'orthorhombic'
loop_
_space_group_symop_operation_xyz
x,y,z
-x,1/2-y,z
x,-y,-z
-x,1/2+y,-z
-x,-y,-z
x,1/2+y,-z
-x,y,z
x,1/2-y,z
1/2+x,1/2+y,z
1/2-x,-y,z
1/2+x,1/2-y,-z
1/2-x,y,-z
1/2-x,1/2-y,-z
1/2+x,y,-z
1/2-x,1/2+y,z
1/2+x,-y,z
loop_
_atom_site_type_symbol
_atom_site_label
_atom_site_fract_x
_atom_site_fract_y
_atom_site_fract_z
Si Si1 0.168843 0.342178 0.281519
Si Si2 0.678140 0.250000 0.048274
Si Si3 0.333744 0.844695 0.543295
Si Si4 0.176991 0.085573 0.901347
Si Si5 0.825214 0.083387 0.797896
Si Si6 0.176836 0.084185 0.374473
O O1 0.169191 0.250000 0.293876
O O2 0.264431 0.355559 0.237897
O O3 0.220207 0.389554 0.324746
O O4 0.000000 0.365817 0.271529
O O5 0.500000 0.250000 0.045779
O O6 0.719844 0.333578 0.072557
O O7 0.750000 0.250000 0.000000
O O8 0.500000 0.876899 0.547100
O O9 0.345273 0.750000 0.537460
O O10 0.250000 0.877454 0.500000
O O11 0.241258 0.859745 0.587543
O O12 0.212142 0.100229 0.849310
O O13 0.000000 0.076457 0.905525
O O14 0.250000 0.000000 0.914050
O O15 0.000000 0.077304 0.794818
O O16 0.750000 0.000000 0.786292
O O17 0.000000 0.082521 0.376323
O O18 0.250000 0.000000 0.383448
#
# Coordination Sequence:
#
# PCOD9502995 Si02
#       6
#    16   8  16  16  16  16
#     4  10  22  38  56  82 115 149 186 232 283 336
#     4  10  22  40  60  86 120 158 200 250 301 358
#     4  10  21  38  61  87 113 142 180 226 277 334
#     4   9  20  38  60  85 119 157 198 247 301 356
#     4  10  20  35  58  84 113 150 191 235 286 343
#     4  11  23  39  58  80 111 148 186 229 279 331
#
# _framework density 19.089527
#
# number of rings (size 3 to 8) (size 9 to 14) (size 15 to 20)
#    0.000    2.000    0.000    2.727    1.273    7.273 
#    0.000    3.636    0.000    0.000    0.000    0.000 
#    0.000    0.000    0.000    0.000    0.000    0.000 
#
# Total GULP energy -245489.160400 kJ/mol
# GULP energy per Si atom -5579.299100 kJ/mol
# Density = 1.904608 g / cm^3
# Si number density = 19.089527 Si / 1000 Ang^3
#
#
#
# Elastic Constant Matrix: (Units=GPa)
#
#
# Indices 1 2 3 4 5 6 
#
# 1 57.9309 26.8532 39.7238 0.0000 0.0000 0.0000
# 2 26.8532 66.2721 37.9167 0.0000 0.0000 0.0000
# 3 39.7238 37.9167 84.1728 0.0000 0.0000 0.0000
# 4 0.0000 0.0000 0.0000 43.1927 0.0000 0.0000
# 5 0.0000 0.0000 0.0000 0.0000 27.0778 0.0000
# 6 0.0000 0.0000 0.0000 0.0000 0.0000 29.2273
#
#
#
# Elastic Compliance Matrix: (Units=1/GPa)
#
#
# Indices 1 2 3 4 5 6 
#
# 1 0.026630 -0.004850 -0.010383 0.000000 0.000000 0.000000
# 2 -0.004850 0.021212 -0.007266 0.000000 0.000000 0.000000
# 3 -0.010383 -0.007266 0.020053 0.000000 0.000000 0.000000
# 4 0.000000 0.000000 0.000000 0.023152 0.000000 0.000000
# 5 0.000000 0.000000 0.000000 0.000000 0.036931 0.000000
# 6 0.000000 0.000000 0.000000 0.000000 0.000000 0.034215
#
#
# Mechanical properties :
#
#
# Convention : Reuss Voigt Hill
#
# Bulk Modulus (GPa) = 43.67366 46.37367 45.02367
# Shear Modulus (GPa) = 23.27510 26.82504 25.05007
#
# Velocity S-wave (km/s) = 3.49558 3.75270 3.62642
# Velocity P-wave (km/s) = 6.26260 6.56677 6.41648
#
# Compressibility (1/GPa) = 0.02289710
#
# Stress axis : x y z
#
# Youngs Moduli (GPa) = 37.55230 47.14364 49.86694
#
# Poissons Ratio (x) = 0.22864 0.51775
# Poissons Ratio (y) = 0.18213 0.36235
# Poissons Ratio (z) = 0.38989 0.34256
#
# Static dielectric constant tensor:
#      x y z
#    x 1.657220 0.000000 0.000000 
#    y 0.000000 1.686320 0.000000 
#    z 0.000000 0.000000 1.638670 
# 
# From -- ./inp_files/45220.got.cif
#   From: 2010.05.17/outbox.cif.g08.bks.cpg/sg67_23_cif.got.tgz:45220.got - 2010.06.03 18:28:57.
