data_PCOD9502637
_publ_section_title
;
Structure prediction by ZEFSAII (Michael W. Deem and Ramdas Pophale) SiO2 
 PCOD9502637
Probable space group: C M M A
;
_chemical_formula_sum "Si O2"
_cell_formula_units_Z 64
_cell_length_a 19.764474
_cell_length_b 14.573830
_cell_length_c 10.480368
_cell_angle_alpha 90.000000
_cell_angle_beta 90.000000
_cell_angle_gamma 90.000000
_cell_volume 3018.808002
_symmetry_space_group_name_H-M "C M M A"
_symmetry_group_IT_number 67
_symmetry_cell_setting 'orthorhombic'
loop_
_space_group_symop_operation_xyz
x,y,z
-x,1/2-y,z
x,-y,-z
-x,1/2+y,-z
-x,-y,-z
x,1/2+y,-z
-x,y,z
x,1/2-y,z
1/2+x,1/2+y,z
1/2-x,-y,z
1/2+x,1/2-y,-z
1/2-x,y,-z
1/2-x,1/2-y,-z
1/2+x,y,-z
1/2-x,1/2+y,z
1/2+x,-y,z
loop_
_atom_site_type_symbol
_atom_site_label
_atom_site_fract_x
_atom_site_fract_y
_atom_site_fract_z
Si Si1 0.279709 0.897965 0.867754
Si Si2 0.924345 0.637794 0.747107
Si Si3 0.706694 0.354417 0.613907
Si Si4 0.575779 0.361150 0.044578
O O1 0.251883 0.851287 0.741272
O O2 0.250000 0.000000 0.862006
O O3 0.250000 0.856994 0.000000
O O4 0.360478 0.896912 0.877536
O O5 0.921643 0.750000 0.746138
O O6 0.864158 0.602192 0.658392
O O7 0.914472 0.612510 0.895764
O O8 0.000000 0.610779 0.708284
O O9 0.690532 0.250000 0.572762
O O10 0.750000 0.396781 0.500000
O O11 0.500000 0.390593 0.083593
O O12 0.577411 0.250000 0.050475
#
# Coordination Sequence:
#
# PCOD9502637 Si02
#       4
#    16  16  16  16
#     4  11  22  35  52  80 115 147 187 226 280 340
#     4   8  14  27  49  77 106 136 173 220 279 339
#     4  10  20  34  54  79 105 141 189 238 286 331
#     4   9  17  32  57  85 111 144 187 237 287 329
#
# _framework density 21.200422
#
# number of rings (size 3 to 8) (size 9 to 14) (size 15 to 20)
#    0.000    2.500    2.500    2.250    0.000    1.500 
#    0.000    5.000    0.000    4.500    0.000    3.500 
#    0.000    0.000    0.000    0.000    0.000    0.000 
#
# Total GULP energy -178652.349561 kJ/mol
# GULP energy per Si atom -5582.885924 kJ/mol
# Density = 2.115217 g / cm^3
# Si number density = 21.200422 Si / 1000 Ang^3
#
#
#
# Elastic Constant Matrix: (Units=GPa)
#
#
# Indices 1 2 3 4 5 6 
#
# 1 227.6878 13.1763 60.7435 0.0000 0.0000 0.0000
# 2 13.1763 55.5735 -2.1645 0.0000 0.0000 0.0000
# 3 60.7435 -2.1645 87.5199 0.0000 0.0000 0.0000
# 4 0.0000 0.0000 0.0000 4.3578 0.0000 0.0000
# 5 0.0000 0.0000 0.0000 0.0000 31.6219 0.0000
# 6 0.0000 0.0000 0.0000 0.0000 0.0000 20.5265
#
#
#
# Elastic Compliance Matrix: (Units=1/GPa)
#
#
# Indices 1 2 3 4 5 6 
#
# 1 0.005505 -0.001455 -0.003857 0.000000 0.000000 0.000000
# 2 -0.001455 0.018396 0.001465 0.000000 0.000000 0.000000
# 3 -0.003857 0.001465 0.014139 0.000000 0.000000 0.000000
# 4 0.000000 0.000000 0.000000 0.229471 0.000000 0.000000
# 5 0.000000 0.000000 0.000000 0.000000 0.031624 0.000000
# 6 0.000000 0.000000 0.000000 0.000000 0.000000 0.048718
#
#
# Mechanical properties :
#
#
# Convention : Reuss Voigt Hill
#
# Bulk Modulus (GPa) = 32.95311 57.14357 45.04834
# Shear Modulus (GPa) = 13.67381 31.23631 22.45506
#
# Velocity S-wave (km/s) = 2.54240 3.84263 3.25804
# Velocity P-wave (km/s) = 4.91892 6.83376 5.95382
#
# Compressibility (1/GPa) = 0.03034615
#
# Stress axis : x y z
#
# Youngs Moduli (GPa) = 181.64784 54.35868 70.72599
#
# Poissons Ratio (x) = 0.07912 0.27278
# Poissons Ratio (y) = 0.26438 -0.10362
# Poissons Ratio (z) = 0.70059 -0.07964
#
# Static dielectric constant tensor:
#      x y z
#    x 1.785520 0.000000 0.000000 
#    y 0.000000 1.831230 0.000000 
#    z 0.000000 0.000000 1.747600 
# 
# From -- ./inp_files/9328.got.cif
#   From: 2010.05.17/outbox.cif.g08.bks.cpg/sg67_5_cif.got.tgz:9328.got - 2010.06.03 18:28:57.
