data_PCOD9502361
_publ_section_title
;
Structure prediction by ZEFSAII (Michael W. Deem and Ramdas Pophale) SiO2 
 PCOD9502361
Probable space group: C M M A
;
_chemical_formula_sum "Si O2"
_cell_formula_units_Z 72
_cell_length_a 26.502891
_cell_length_b 8.852281
_cell_length_c 15.213324
_cell_angle_alpha 90.000000
_cell_angle_beta 90.000000
_cell_angle_gamma 90.000000
_cell_volume 3569.213742
_symmetry_space_group_name_H-M "C M M A"
_symmetry_group_IT_number 67
_symmetry_cell_setting 'orthorhombic'
loop_
_space_group_symop_operation_xyz
x,y,z
-x,1/2-y,z
x,-y,-z
-x,1/2+y,-z
-x,-y,-z
x,1/2+y,-z
-x,y,z
x,1/2-y,z
1/2+x,1/2+y,z
1/2-x,-y,z
1/2+x,1/2-y,-z
1/2-x,y,-z
1/2-x,1/2-y,-z
1/2+x,y,-z
1/2-x,1/2+y,z
1/2+x,-y,z
loop_
_atom_site_type_symbol
_atom_site_label
_atom_site_fract_x
_atom_site_fract_y
_atom_site_fract_z
Si Si1 0.698917 0.919836 0.110783
Si Si2 0.302112 0.420883 0.678321
Si Si3 0.590668 0.068027 0.292533
Si Si4 0.000000 0.930701 0.596696
Si Si5 0.592957 0.071433 0.089753
O O1 0.692434 0.750000 0.075345
O O2 0.702403 0.907025 0.216158
O O3 0.750000 0.000000 0.085120
O O4 0.651693 0.024611 0.089735
O O5 0.306804 0.250000 0.642370
O O6 0.250000 0.500000 0.647143
O O7 0.354349 0.513963 0.672466
O O8 0.588790 0.250000 0.295804
O O9 0.578973 0.023455 0.189908
O O10 0.548659 0.992005 0.352056
O O11 0.000000 0.750000 0.593631
O O12 0.000000 0.000000 0.500000
O O13 0.586016 0.250000 0.084279
O O14 0.570487 0.000000 0.000000
#
# Coordination Sequence:
#
# PCOD9502361 Si02
#       5
#    16  16  16   8  16
#     4   9  16  26  41  64 100 146 199 251 296 342
#     4   9  16  28  50  82 119 161 204 247 298 356
#     4  10  21  39  62  90 124 161 203 253 304 356
#     4  12  26  46  73 100 123 150 189 242 302 364
#     4  10  20  33  51  76 111 154 199 245 293 346
#
# _framework density 20.172511
#
# number of rings (size 3 to 8) (size 9 to 14) (size 15 to 20)
#    0.000    2.222    0.000    3.667    0.000    8.444 
#    0.000    2.778    0.000    0.667    0.000    4.667 
#    0.000    0.000    0.000    0.000    0.000    0.000 
#
# Total GULP energy -200715.291041 kJ/mol
# GULP energy per Si atom -5575.424751 kJ/mol
# Density = 2.012660 g / cm^3
# Si number density = 20.172511 Si / 1000 Ang^3
#
#
#
# Elastic Constant Matrix: (Units=GPa)
#
#
# Indices 1 2 3 4 5 6 
#
# 1 111.1589 56.2692 68.1507 0.0000 0.0000 0.0000
# 2 56.2692 101.0670 49.0293 0.0000 0.0000 0.0000
# 3 68.1507 49.0293 102.6023 0.0000 0.0000 0.0000
# 4 0.0000 0.0000 0.0000 24.7080 0.0000 0.0000
# 5 0.0000 0.0000 0.0000 0.0000 -19.2322 0.0000
# 6 0.0000 0.0000 0.0000 0.0000 0.0000 25.9649
#
#
#
# Elastic Compliance Matrix: (Units=1/GPa)
#
#
# Indices 1 2 3 4 5 6 
#
# 1 0.017049 -0.005205 -0.008837 0.000000 0.000000 0.000000
# 2 -0.005205 0.014469 -0.003457 0.000000 0.000000 0.000000
# 3 -0.008837 -0.003457 0.017268 0.000000 0.000000 0.000000
# 4 0.000000 0.000000 0.000000 0.040473 0.000000 0.000000
# 5 0.000000 0.000000 0.000000 0.000000 -0.051996 0.000000
# 6 0.000000 0.000000 0.000000 0.000000 0.000000 0.038513
#
#
# Mechanical properties :
#
#
# Convention : Reuss Voigt Hill
#
# Bulk Modulus (GPa) = 72.52539 73.52516 73.02527
# Shear Modulus (GPa) = 43.33878 15.71342 29.52610
#
# Velocity S-wave (km/s) = 4.64012 2.79400 3.82996
# Velocity P-wave (km/s) = 8.04601 6.85098 7.47242
#
# Compressibility (1/GPa) = 0.01378827
#
# Stress axis : x y z
#
# Youngs Moduli (GPa) = 58.65527 69.11146 57.91051
#
# Poissons Ratio (x) = 0.35972 0.51175
# Poissons Ratio (y) = 0.30530 0.20020
# Poissons Ratio (z) = 0.51833 0.23892
#
# Static dielectric constant tensor:
#      x y z
#    x 1.699850 0.000000 0.000000 
#    y 0.000000 1.709130 0.000000 
#    z 0.000000 0.000000 1.776280 
# 
# From -- ./inp_files/30556.got.cif
#   From: 2010.05.17/outbox.cif.g08.bks.cpg/sg67_16_cif.got.tgz:30556.got - 2010.06.03 18:28:57.
