data_PCOD9502854
_publ_section_title
;
Structure prediction by ZEFSAII (Michael W. Deem and Ramdas Pophale) SiO2 
 PCOD9502854
Probable space group: C M M A
;
_chemical_formula_sum "Si O2"
_cell_formula_units_Z 72
_cell_length_a 8.151614
_cell_length_b 32.409570
_cell_length_c 14.740527
_cell_angle_alpha 90.000000
_cell_angle_beta 90.000000
_cell_angle_gamma 90.000000
_cell_volume 3894.304317
_symmetry_space_group_name_H-M "C M M A"
_symmetry_group_IT_number 67
_symmetry_cell_setting 'orthorhombic'
loop_
_space_group_symop_operation_xyz
x,y,z
-x,1/2-y,z
x,-y,-z
-x,1/2+y,-z
-x,-y,-z
x,1/2+y,-z
-x,y,z
x,1/2-y,z
1/2+x,1/2+y,z
1/2-x,-y,z
1/2+x,1/2-y,-z
1/2-x,y,-z
1/2-x,1/2-y,-z
1/2+x,y,-z
1/2-x,1/2+y,z
1/2+x,-y,z
loop_
_atom_site_type_symbol
_atom_site_label
_atom_site_fract_x
_atom_site_fract_y
_atom_site_fract_z
Si Si1 0.697442 0.123555 0.284237
Si Si2 0.302779 0.750000 0.894954
Si Si3 0.303908 0.045443 0.395872
Si Si4 0.196744 0.796022 0.605050
Si Si5 0.698302 0.340150 0.103875
O O1 0.500000 0.120274 0.281798
O O2 0.761613 0.083318 0.336132
O O3 0.737336 0.165517 0.338127
O O4 0.755673 0.128213 0.180455
O O5 0.500000 0.750000 0.887093
O O6 0.243344 0.794576 0.862546
O O7 0.250000 0.750000 0.000000
O O8 0.500000 0.046467 0.394353
O O9 0.250000 0.050657 0.500000
O O10 0.250000 0.000000 0.364921
O O11 0.253369 0.750000 0.635784
O O12 0.250000 0.800426 0.500000
O O13 0.000000 0.796700 0.609106
O O14 0.500000 0.339534 0.103589
O O15 0.750000 0.347038 0.000000
#
# Coordination Sequence:
#
# PCOD9502854 Si02
#       5
#    16   8  16  16  16
#     4  10  21  34  53  78 104 135 173 214 259 311
#     4   8  14  26  44  64  89 124 163 202 247 288
#     4  10  20  35  55  80 105 132 165 208 258 312
#     4  10  21  35  50  72 103 139 176 211 250 302
#     4   9  18  32  49  72 100 134 172 214 258 301
#
# _framework density 18.488541000000001
#
# number of rings (size 3 to 8) (size 9 to 14) (size 15 to 20)
#    0.000    2.444    0.000    2.667    1.556    5.778 
#    0.000    0.000    0.000    0.667    0.000    4.667 
#    0.000    0.000    0.000    0.000    0.000    0.000 
#
# Total GULP energy -200723.081365 kJ/mol
# GULP energy per Si atom -5575.641149 kJ/mol
# Density = 1.844646 g / cm^3
# Si number density = 18.488541 Si / 1000 Ang^3
#
#
#
# Elastic Constant Matrix: (Units=GPa)
#
#
# Indices 1 2 3 4 5 6 
#
# 1 17.7772 12.7253 4.4085 0.0000 0.0000 0.0000
# 2 12.7253 154.8168 94.9978 0.0000 0.0000 0.0000
# 3 4.4085 94.9978 104.4713 0.0000 0.0000 0.0000
# 4 0.0000 0.0000 0.0000 -1.5782 0.0000 0.0000
# 5 0.0000 0.0000 0.0000 0.0000 17.6791 0.0000
# 6 0.0000 0.0000 0.0000 0.0000 0.0000 15.5513
#
#
#
# Elastic Compliance Matrix: (Units=1/GPa)
#
#
# Indices 1 2 3 4 5 6 
#
# 1 0.060676 -0.007729 0.004467 0.000000 0.000000 0.000000
# 2 -0.007729 0.015597 -0.013857 0.000000 0.000000 0.000000
# 3 0.004467 -0.013857 0.021984 0.000000 0.000000 0.000000
# 4 0.000000 0.000000 0.000000 -0.633627 0.000000 0.000000
# 5 0.000000 0.000000 0.000000 0.000000 0.056564 0.000000
# 6 0.000000 0.000000 0.000000 0.000000 0.000000 0.064303
#
#
# Mechanical properties :
#
#
# Convention : Reuss Voigt Hill
#
# Bulk Modulus (GPa) = 15.61983 55.70316 35.66150
# Shear Modulus (GPa) = -13.93041 17.32602 1.69780
#
# Velocity S-wave (km/s) = -2.74790 3.06457 0.95932
# Velocity P-wave (km/s) = 1.26540 6.53575 4.53402
#
# Compressibility (1/GPa) = 0.06402119
#
# Stress axis : x y z
#
# Youngs Moduli (GPa) = 16.48092 64.11429 45.48838
#
# Poissons Ratio (x) = 0.49551 -0.20321
# Poissons Ratio (y) = 0.12737 0.63032
# Poissons Ratio (z) = -0.07363 0.88841
#
# Static dielectric constant tensor:
#      x y z
#    x 1.642100 0.000000 0.000000 
#    y 0.000000 1.664590 0.000000 
#    z 0.000000 0.000000 1.637050 
# 
# From -- ./inp_files/25303.got.cif
#   From: 2010.05.17/outbox.cif.g08.bks.cpg/sg67_13_cif.got.tgz:25303.got - 2010.06.03 18:28:57.
