data_PCOD9502815
_publ_section_title
;
Structure prediction by ZEFSAII (Michael W. Deem and Ramdas Pophale) SiO2 
 PCOD9502815
Probable space group: C M M A
;
_chemical_formula_sum "Si O2"
_cell_formula_units_Z 88
_cell_length_a 16.623129
_cell_length_b 23.711845
_cell_length_c 13.839468
_cell_angle_alpha 90.000000
_cell_angle_beta 90.000000
_cell_angle_gamma 90.000000
_cell_volume 5455.034711
_symmetry_space_group_name_H-M "C M M A"
_symmetry_group_IT_number 67
_symmetry_cell_setting 'orthorhombic'
loop_
_space_group_symop_operation_xyz
x,y,z
-x,1/2-y,z
x,-y,-z
-x,1/2+y,-z
-x,-y,-z
x,1/2+y,-z
-x,y,z
x,1/2-y,z
1/2+x,1/2+y,z
1/2-x,-y,z
1/2+x,1/2-y,-z
1/2-x,y,-z
1/2-x,1/2-y,-z
1/2+x,y,-z
1/2-x,1/2+y,z
1/2+x,-y,z
loop_
_atom_site_type_symbol
_atom_site_label
_atom_site_fract_x
_atom_site_fract_y
_atom_site_fract_z
Si Si1 0.091584 0.750000 0.854730
Si Si2 0.593432 0.553643 0.937265
Si Si3 0.723146 0.845197 0.609256
Si Si4 0.726326 0.935533 0.775627
Si Si5 0.675045 0.362724 0.927768
Si Si6 0.406653 0.750000 0.572266
Si Si7 0.852984 0.250000 0.354418
O O1 0.139565 0.805065 0.888344
O O2 0.092480 0.750000 0.738813
O O3 0.000000 0.750000 0.890768
O O4 0.500000 0.545840 0.914271
O O5 0.647078 0.561586 0.842670
O O6 0.622750 0.500000 0.000000
O O7 0.608266 0.605861 0.008357
O O8 0.750000 0.860785 0.500000
O O9 0.714016 0.897732 0.680530
O O10 0.643859 0.805227 0.605527
O O11 0.794146 0.804088 0.646483
O O12 0.792605 0.903702 0.842716
O O13 0.750000 0.000000 0.753920
O O14 0.750000 0.352785 0.000000
O O15 0.500000 0.750000 0.601658
O O16 0.399116 0.750000 0.455854
#
# Coordination Sequence:
#
# PCOD9502815 Si02
#       7
#     8  16  16  16  16   8   8
#     4  12  21  32  53  81 111 142 174 224 284 320
#     4  10  20  35  54  79 108 140 183 232 268 312
#     4   9  19  35  56  78 110 140 180 220 269 325
#     4  11  20  34  57  80 105 146 189 219 261 326
#     4  10  21  35  54  76 110 143 185 219 271 327
#     4   9  18  34  57  81 106 134 175 230 279 321
#     4   9  17  34  53  80 100 140 178 224 263 327
#
# _framework density 16.131886000000002
#
# number of rings (size 3 to 8) (size 9 to 14) (size 15 to 20)
#    0.000    2.000    3.636    2.182    0.000    1.091 
#    0.000    0.000    0.000    4.364    0.000    3.818 
#    0.000    0.000    0.000    0.000    0.000    0.000 
#
# Total GULP energy -245312.799578 kJ/mol
# GULP energy per Si atom -5575.290899 kJ/mol
# Density = 1.609517 g / cm^3
# Si number density = 16.131886 Si / 1000 Ang^3
#
#
#
# Elastic Constant Matrix: (Units=GPa)
#
#
# Indices 1 2 3 4 5 6 
#
# 1 71.4922 42.7636 34.1063 0.0000 0.0000 0.0000
# 2 42.7636 140.2769 75.0725 0.0000 0.0000 0.0000
# 3 34.1063 75.0725 102.6382 0.0000 0.0000 0.0000
# 4 0.0000 0.0000 0.0000 35.5484 0.0000 0.0000
# 5 0.0000 0.0000 0.0000 0.0000 11.7910 0.0000
# 6 0.0000 0.0000 0.0000 0.0000 0.0000 17.5222
#
#
#
# Elastic Compliance Matrix: (Units=1/GPa)
#
#
# Indices 1 2 3 4 5 6 
#
# 1 0.017718 -0.003698 -0.003183 0.000000 0.000000 0.000000
# 2 -0.003698 0.012486 -0.007904 0.000000 0.000000 0.000000
# 3 -0.003183 -0.007904 0.016582 0.000000 0.000000 0.000000
# 4 0.000000 0.000000 0.000000 0.028131 0.000000 0.000000
# 5 0.000000 0.000000 0.000000 0.000000 0.084811 0.000000
# 6 0.000000 0.000000 0.000000 0.000000 0.000000 0.057070
#
#
# Mechanical properties :
#
#
# Convention : Reuss Voigt Hill
#
# Bulk Modulus (GPa) = 58.08406 68.69914 63.39160
# Shear Modulus (GPa) = 19.83300 23.80331 21.81816
#
# Velocity S-wave (km/s) = 3.51012 3.84545 3.68161
# Velocity P-wave (km/s) = 7.24651 7.89905 7.57981
#
# Compressibility (1/GPa) = 0.01721643
#
# Stress axis : x y z
#
# Youngs Moduli (GPa) = 56.44006 80.08983 60.30771
#
# Poissons Ratio (x) = 0.29617 0.19195
# Poissons Ratio (y) = 0.20871 0.47666
# Poissons Ratio (z) = 0.17964 0.63301
#
# Static dielectric constant tensor:
#      x y z
#    x 1.530740 0.000000 0.000000 
#    y 0.000000 1.527440 0.000000 
#    z 0.000000 0.000000 1.530590 
# 
# From -- ./inp_files/18170.got.cif
#   From: 2010.05.17/outbox.cif.g08.bks.cpg/sg67_10_cif.got.tgz:18170.got - 2010.06.03 18:28:57.
