data_PCOD9502326
_publ_section_title
;
Structure prediction by ZEFSAII (Michael W. Deem and Ramdas Pophale) SiO2 
 PCOD9502326
Probable space group: C M M A
;
_chemical_formula_sum "Si O2"
_cell_formula_units_Z 112
_cell_length_a 26.109424
_cell_length_b 23.638192
_cell_length_c 10.388953
_cell_angle_alpha 90.000000
_cell_angle_beta 90.000000
_cell_angle_gamma 90.000000
_cell_volume 6411.849623
_symmetry_space_group_name_H-M "C M M A"
_symmetry_group_IT_number 67
_symmetry_cell_setting 'orthorhombic'
loop_
_space_group_symop_operation_xyz
x,y,z
-x,1/2-y,z
x,-y,-z
-x,1/2+y,-z
-x,-y,-z
x,1/2+y,-z
-x,y,z
x,1/2-y,z
1/2+x,1/2+y,z
1/2-x,-y,z
1/2+x,1/2-y,-z
1/2-x,y,-z
1/2-x,1/2-y,-z
1/2+x,y,-z
1/2-x,1/2+y,z
1/2+x,-y,z
loop_
_atom_site_type_symbol
_atom_site_label
_atom_site_fract_x
_atom_site_fract_y
_atom_site_fract_z
Si Si1 0.690491 0.919772 0.463938
Si Si2 0.652989 0.625407 0.060167
Si Si3 0.692076 0.517766 0.194401
Si Si4 0.440164 0.437208 0.062785
Si Si5 0.371785 0.581584 0.716422
Si Si6 0.695679 0.183446 0.700590
Si Si7 0.809592 0.182962 0.809335
O O1 0.750000 0.932364 0.500000
O O2 0.680729 0.953403 0.332566
O O3 0.648497 0.932541 0.573249
O O4 0.688367 0.853750 0.426348
O O5 0.679356 0.565563 0.092102
O O6 0.656216 0.661604 0.191123
O O7 0.596975 0.607822 0.008551
O O8 0.683971 0.661308 0.954976
O O9 0.750000 0.500000 0.187351
O O10 0.661002 0.459986 0.191690
O O11 0.500000 0.425493 0.043420
O O12 0.426267 0.430467 0.216036
O O13 0.430764 0.500000 0.000000
O O14 0.351880 0.645325 0.736576
O O15 0.691925 0.250000 0.679435
O O16 0.752995 0.170047 0.754341
O O17 0.817501 0.250000 0.800844
#
# Coordination Sequence:
#
# PCOD9502326 Si02
#       7
#    16  16  16  16  16  16  16
#     4  11  20  32  49  77 114 155 180 214 253 319
#     4  10  20  34  52  79 106 144 182 227 277 321
#     4  11  20  31  50  78 116 148 176 212 263 334
#     4  10  21  39  59  79 104 135 177 235 291 337
#     4  11  20  34  54  80 107 145 182 221 270 323
#     4  10  20  33  51  78 114 153 189 217 255 318
#     4  10  20  33  50  75 113 151 184 218 258 318
#
# _framework density 17.467658
#
# number of rings (size 3 to 8) (size 9 to 14) (size 15 to 20)
#    0.000    1.571    4.286    2.143    0.000    3.143 
#    0.000    1.429    0.000   15.857    0.000    0.000 
#    0.000    0.000    0.000    0.000    0.000    0.000 
#
# Total GULP energy -312190.164375 kJ/mol
# GULP energy per Si atom -5574.824364 kJ/mol
# Density = 1.742790 g / cm^3
# Si number density = 17.467658 Si / 1000 Ang^3
#
#
#
# Elastic Constant Matrix: (Units=GPa)
#
#
# Indices 1 2 3 4 5 6 
#
# 1 68.6665 33.3120 23.4579 0.0000 0.0000 0.0000
# 2 33.3120 93.0750 16.9798 0.0000 0.0000 0.0000
# 3 23.4579 16.9798 81.6321 0.0000 0.0000 0.0000
# 4 0.0000 0.0000 0.0000 24.6136 0.0000 0.0000
# 5 0.0000 0.0000 0.0000 0.0000 19.0495 0.0000
# 6 0.0000 0.0000 0.0000 0.0000 0.0000 18.1118
#
#
#
# Elastic Compliance Matrix: (Units=1/GPa)
#
#
# Indices 1 2 3 4 5 6 
#
# 1 0.018905 -0.006003 -0.004184 0.000000 0.000000 0.000000
# 2 -0.006003 0.013074 -0.000994 0.000000 0.000000 0.000000
# 3 -0.004184 -0.000994 0.013659 0.000000 0.000000 0.000000
# 4 0.000000 0.000000 0.000000 0.040628 0.000000 0.000000
# 5 0.000000 0.000000 0.000000 0.000000 0.052495 0.000000
# 6 0.000000 0.000000 0.000000 0.000000 0.000000 0.055213
#
#
# Mechanical properties :
#
#
# Convention : Reuss Voigt Hill
#
# Bulk Modulus (GPa) = 42.96362 43.43033 43.19698
# Shear Modulus (GPa) = 22.31211 23.66324 22.98768
#
# Velocity S-wave (km/s) = 3.57786 3.68460 3.63163
# Velocity P-wave (km/s) = 6.45892 6.55889 6.50910
#
# Compressibility (1/GPa) = 0.02327550
#
# Stress axis : x y z
#
# Youngs Moduli (GPa) = 52.89740 76.48852 73.21071
#
# Poissons Ratio (x) = 0.45914 0.30630
# Poissons Ratio (y) = 0.31753 0.07280
# Poissons Ratio (z) = 0.22131 0.07606
#
# Static dielectric constant tensor:
#      x y z
#    x 1.597340 0.000000 0.000000 
#    y 0.000000 1.617370 0.000000 
#    z 0.000000 0.000000 1.687110 
# 
# From -- ./inp_files/22277.got.cif
#   From: 2010.05.17/outbox.cif.g08.bks.cpg/sg67_12_cif.got.tgz:22277.got - 2010.06.03 18:28:57.
