data_PCOD9502625
_publ_section_title
;
Structure prediction by ZEFSAII (Michael W. Deem and Ramdas Pophale) SiO2 
 PCOD9502625
Probable space group: C M M A
;
_chemical_formula_sum "Si O2"
_cell_formula_units_Z 72
_cell_length_a 15.510708
_cell_length_b 9.302121
_cell_length_c 26.245775
_cell_angle_alpha 90.000000
_cell_angle_beta 90.000000
_cell_angle_gamma 90.000000
_cell_volume 3786.805575
_symmetry_space_group_name_H-M "C M M A"
_symmetry_group_IT_number 67
_symmetry_cell_setting 'orthorhombic'
loop_
_space_group_symop_operation_xyz
x,y,z
-x,1/2-y,z
x,-y,-z
-x,1/2+y,-z
-x,-y,-z
x,1/2+y,-z
-x,y,z
x,1/2-y,z
1/2+x,1/2+y,z
1/2-x,-y,z
1/2+x,1/2-y,-z
1/2-x,y,-z
1/2-x,1/2-y,-z
1/2+x,y,-z
1/2-x,1/2+y,z
1/2+x,-y,z
loop_
_atom_site_type_symbol
_atom_site_label
_atom_site_fract_x
_atom_site_fract_y
_atom_site_fract_z
Si Si1 0.157677 0.422040 0.127445
Si Si2 0.102368 0.587623 0.339007
Si Si3 0.158869 0.920841 0.758911
Si Si4 0.395715 0.079782 0.450199
Si Si5 0.500000 0.923701 0.054274
O O1 0.172128 0.250000 0.124045
O O2 0.250000 0.500000 0.121110
O O3 0.121265 0.449851 0.184683
O O4 0.085633 0.463132 0.086362
O O5 0.136828 0.750000 0.329611
O O6 0.115528 0.486972 0.290777
O O7 0.135779 0.532872 0.393952
O O8 0.000000 0.601305 0.345400
O O9 0.166734 0.750000 0.753508
O O10 0.250000 0.000000 0.760619
O O11 0.500000 0.059430 0.450746
O O12 0.379981 0.250000 0.453980
O O13 0.361012 0.000000 0.500000
O O14 0.500000 0.750000 0.048799
O O15 0.500000 0.000000 0.000000
#
# Coordination Sequence:
#
# PCOD9502625 Si02
#       5
#    16  16  16  16   8
#     4   9  20  38  59  82 114 150 187 231 279 327
#     4   9  18  31  47  72 104 134 167 213 265 314
#     4  10  20  34  54  76 102 137 175 215 264 320
#     4   8  14  25  41  62  92 128 164 206 256 308
#     4  10  22  40  60  86 118 152 187 230 275 322
#
# _framework density 19.013387999999999
#
# number of rings (size 3 to 8) (size 9 to 14) (size 15 to 20)
#    0.000    2.889    0.000    2.000    1.556    3.556 
#    0.000    4.444    0.000    0.667    0.000    4.667 
#    0.000    0.000    0.000    0.000    0.000    0.000 
#
# Total GULP energy -200502.749103 kJ/mol
# GULP energy per Si atom -5569.520808 kJ/mol
# Density = 1.897011 g / cm^3
# Si number density = 19.013388 Si / 1000 Ang^3
#
#
#
# Elastic Constant Matrix: (Units=GPa)
#
#
# Indices 1 2 3 4 5 6 
#
# 1 53.1191 25.9803 63.5032 0.0000 0.0000 0.0000
# 2 25.9803 50.7114 79.6438 0.0000 0.0000 0.0000
# 3 63.5032 79.6438 218.1157 0.0000 0.0000 0.0000
# 4 0.0000 0.0000 0.0000 30.6227 0.0000 0.0000
# 5 0.0000 0.0000 0.0000 0.0000 104.7887 0.0000
# 6 0.0000 0.0000 0.0000 0.0000 0.0000 22.1080
#
#
#
# Elastic Compliance Matrix: (Units=1/GPa)
#
#
# Indices 1 2 3 4 5 6 
#
# 1 0.029180 -0.003767 -0.007120 0.000000 0.000000 0.000000
# 2 -0.003767 0.046719 -0.015962 0.000000 0.000000 0.000000
# 3 -0.007120 -0.015962 0.012486 0.000000 0.000000 0.000000
# 4 0.000000 0.000000 0.000000 0.032656 0.000000 0.000000
# 5 0.000000 0.000000 0.000000 0.000000 0.009543 0.000000
# 6 0.000000 0.000000 0.000000 0.000000 0.000000 0.045232
#
#
# Mechanical properties :
#
#
# Convention : Reuss Voigt Hill
#
# Bulk Modulus (GPa) = 28.83015 73.35564 51.09290
# Shear Modulus (GPa) = 20.74027 41.69181 31.21604
#
# Velocity S-wave (km/s) = 3.30635 4.68777 4.05630
# Velocity P-wave (km/s) = 5.45636 8.24409 6.99060
#
# Compressibility (1/GPa) = 0.03468591
#
# Stress axis : x y z
#
# Youngs Moduli (GPa) = 34.26996 21.40472 80.08824
#
# Poissons Ratio (x) = 0.08064 0.57023
# Poissons Ratio (y) = 0.12910 1.27839
# Poissons Ratio (z) = 0.24400 0.34167
#
# Static dielectric constant tensor:
#      x y z
#    x 1.703400 0.000000 0.000000 
#    y 0.000000 1.630370 0.000000 
#    z 0.000000 0.000000 1.720110 
# 
# From -- ./inp_files/40499.got.cif
#   From: 2010.05.17/outbox.cif.g08.bks.cpg/sg67_21_cif.got.tgz:40499.got - 2010.06.03 18:28:57.
