data_PCOD9502632
_publ_section_title
;
Structure prediction by ZEFSAII (Michael W. Deem and Ramdas Pophale) SiO2 
 PCOD9502632
Probable space group: C M M A
;
_chemical_formula_sum "Si O2"
_cell_formula_units_Z 72
_cell_length_a 9.180465
_cell_length_b 14.967358
_cell_length_c 26.165047
_cell_angle_alpha 90.000000
_cell_angle_beta 90.000000
_cell_angle_gamma 90.000000
_cell_volume 3595.268626
_symmetry_space_group_name_H-M "C M M A"
_symmetry_group_IT_number 67
_symmetry_cell_setting 'orthorhombic'
loop_
_space_group_symop_operation_xyz
x,y,z
-x,1/2-y,z
x,-y,-z
-x,1/2+y,-z
-x,-y,-z
x,1/2+y,-z
-x,y,z
x,1/2-y,z
1/2+x,1/2+y,z
1/2-x,-y,z
1/2+x,1/2-y,-z
1/2-x,y,-z
1/2-x,1/2-y,-z
1/2+x,y,-z
1/2-x,1/2+y,z
1/2+x,-y,z
loop_
_atom_site_type_symbol
_atom_site_label
_atom_site_fract_x
_atom_site_fract_y
_atom_site_fract_z
Si Si1 0.161976 0.644487 0.851528
Si Si2 0.664438 0.140425 0.050674
Si Si3 0.823672 0.597022 0.737168
Si Si4 0.673161 0.750000 0.554322
Si Si5 0.175955 0.902710 0.364544
O O1 0.149804 0.750000 0.861354
O O2 0.263680 0.609583 0.896385
O O3 0.210549 0.636242 0.792863
O O4 0.000000 0.604251 0.855017
O O5 0.500000 0.109193 0.047566
O O6 0.662950 0.250000 0.050855
O O7 0.750000 0.113324 0.000000
O O8 0.750000 0.500000 0.738784
O O9 0.747933 0.637720 0.687066
O O10 0.000000 0.595501 0.731221
O O11 0.500000 0.750000 0.546270
O O12 0.750000 0.750000 0.500000
O O13 0.707592 0.662896 0.588452
O O14 0.000000 0.911162 0.358596
O O15 0.250000 0.000000 0.372235
#
# Coordination Sequence:
#
# PCOD9502632 Si02
#       5
#    16  16  16   8  16
#     4   9  18  31  47  71 100 130 170 216 262 317
#     4   9  16  26  42  65  94 129 167 210 263 318
#     4  10  20  34  54  78 106 142 179 219 270 325
#     4  10  24  42  62  90 122 156 195 238 285 334
#     4  10  21  39  60  86 118 154 194 237 285 338
#
# _framework density 20.026319999999998
#
# number of rings (size 3 to 8) (size 9 to 14) (size 15 to 20)
#    0.000    2.444    0.000    3.333    1.556    6.667 
#    0.000    2.222    0.000    0.667    0.000    4.667 
#    0.000    0.000    0.000    0.000    0.000    0.000 
#
# Total GULP energy -200779.191882 kJ/mol
# GULP energy per Si atom -5577.199775 kJ/mol
# Density = 1.998074 g / cm^3
# Si number density = 20.026320 Si / 1000 Ang^3
#
#
#
# Elastic Constant Matrix: (Units=GPa)
#
#
# Indices 1 2 3 4 5 6 
#
# 1 120.3425 35.7855 119.8993 0.0000 0.0000 0.0000
# 2 35.7855 56.0095 42.2549 0.0000 0.0000 0.0000
# 3 119.8993 42.2549 223.8715 0.0000 0.0000 0.0000
# 4 0.0000 0.0000 0.0000 94.7315 0.0000 0.0000
# 5 0.0000 0.0000 0.0000 0.0000 44.0503 0.0000
# 6 0.0000 0.0000 0.0000 0.0000 0.0000 10.3159
#
#
#
# Elastic Compliance Matrix: (Units=1/GPa)
#
#
# Indices 1 2 3 4 5 6 
#
# 1 0.019039 -0.005214 -0.009212 0.000000 0.000000 0.000000
# 2 -0.005214 0.022247 -0.001406 0.000000 0.000000 0.000000
# 3 -0.009212 -0.001406 0.009666 0.000000 0.000000 0.000000
# 4 0.000000 0.000000 0.000000 0.010556 0.000000 0.000000
# 5 0.000000 0.000000 0.000000 0.000000 0.022701 0.000000
# 6 0.000000 0.000000 0.000000 0.000000 0.000000 0.096937
#
#
# Mechanical properties :
#
#
# Convention : Reuss Voigt Hill
#
# Bulk Modulus (GPa) = 51.85237 88.45589 70.15413
# Shear Modulus (GPa) = 22.80601 43.30512 33.05556
#
# Velocity S-wave (km/s) = 3.37828 4.65522 4.06717
# Velocity P-wave (km/s) = 6.41602 8.55339 7.56061
#
# Compressibility (1/GPa) = 0.01928552
#
# Stress axis : x y z
#
# Youngs Moduli (GPa) = 52.52506 44.95083 103.45321
#
# Poissons Ratio (x) = 0.23438 0.95305
# Poissons Ratio (y) = 0.27387 0.14550
# Poissons Ratio (z) = 0.48388 0.06322
#
# Static dielectric constant tensor:
#      x y z
#    x 1.702680 0.000000 0.000000 
#    y 0.000000 1.756180 0.000000 
#    z 0.000000 0.000000 1.727830 
# 
# From -- ./inp_files/40511.got.cif
#   From: 2010.05.17/outbox.cif.g08.bks.cpg/sg67_21_cif.got.tgz:40511.got - 2010.06.03 18:28:57.
