data_PCOD9502788
_publ_section_title
;
Structure prediction by ZEFSAII (Michael W. Deem and Ramdas Pophale) SiO2 
 PCOD9502788
Probable space group: C M M A
;
_chemical_formula_sum "Si O2"
_cell_formula_units_Z 96
_cell_length_a 14.316131
_cell_length_b 11.597639
_cell_length_c 25.102219
_cell_angle_alpha 90.000000
_cell_angle_beta 90.000000
_cell_angle_gamma 90.000000
_cell_volume 4167.804740
_symmetry_space_group_name_H-M "C M M A"
_symmetry_group_IT_number 67
_symmetry_cell_setting 'orthorhombic'
loop_
_space_group_symop_operation_xyz
x,y,z
-x,1/2-y,z
x,-y,-z
-x,1/2+y,-z
-x,-y,-z
x,1/2+y,-z
-x,y,z
x,1/2-y,z
1/2+x,1/2+y,z
1/2-x,-y,z
1/2+x,1/2-y,-z
1/2-x,y,-z
1/2-x,1/2-y,-z
1/2+x,y,-z
1/2-x,1/2+y,z
1/2+x,-y,z
loop_
_atom_site_type_symbol
_atom_site_label
_atom_site_fract_x
_atom_site_fract_y
_atom_site_fract_z
Si Si1 0.388057 0.497997 0.734157
Si Si2 0.614155 0.250000 0.247552
Si Si3 0.113660 0.250000 0.877550
Si Si4 0.639961 0.875587 0.482338
Si Si5 0.194615 0.620406 0.634731
Si Si6 0.386208 0.621220 0.158947
Si Si7 0.386281 0.520505 0.939844
O O1 0.500000 0.500380 0.734001
O O2 0.354680 0.629766 0.725985
O O3 0.356919 0.407531 0.689896
O O4 0.357027 0.460203 0.792892
O O5 0.500000 0.250000 0.249241
O O6 0.640110 0.250000 0.184745
O O7 0.142221 0.361734 0.910923
O O8 0.000000 0.250000 0.876165
O O9 0.604877 0.750000 0.502305
O O10 0.750000 0.875960 0.500000
O O11 0.632443 0.874741 0.418482
O O12 0.602640 0.000000 0.500000
O O13 0.238419 0.750000 0.636208
O O14 0.250000 0.500000 0.626086
O O15 0.500000 0.619722 0.159078
O O16 0.355109 0.750000 0.169639
O O17 0.357279 0.578804 0.101017
O O18 0.500000 0.521912 0.941377
O O19 0.355048 0.500000 0.000000
#
# Coordination Sequence:
#
# PCOD9502788 Si02
#       7
#    16   8   8  16  16  16  16
#     4  10  20  35  53  75 106 143 184 222 266 323
#     4   9  16  30  50  70  95 140 185 220 267 328
#     4   9  14  24  38  54  82 120 168 212 258 316
#     4   9  16  31  53  78 105 137 173 209 254 309
#     4  11  23  36  56  86 113 141 179 224 269 313
#     4   9  16  26  40  58  85 125 167 206 253 309
#     4   9  16  22  32  53  82 118 161 210 256 305
#
# _framework density 23.033709999999999
#
# number of rings (size 3 to 8) (size 9 to 14) (size 15 to 20)
#    0.000    2.500    3.333    0.500    2.333    1.000 
#    0.000    0.000    0.000    0.500    0.000    0.000 
#    0.000    0.667    0.000    4.667    0.000    4.833 
#
# Total GULP energy -267840.115671 kJ/mol
# GULP energy per Si atom -5580.002410 kJ/mol
# Density = 2.298128 g / cm^3
# Si number density = 23.033710 Si / 1000 Ang^3
#
#
#
# Elastic Constant Matrix: (Units=GPa)
#
#
# Indices 1 2 3 4 5 6 
#
# 1 80.0451 19.2720 7.5058 0.0000 0.0000 0.0000
# 2 19.2720 209.6216 34.3308 0.0000 0.0000 0.0000
# 3 7.5058 34.3308 115.6148 0.0000 0.0000 0.0000
# 4 0.0000 0.0000 0.0000 89.3947 0.0000 0.0000
# 5 0.0000 0.0000 0.0000 0.0000 -0.6176 0.0000
# 6 0.0000 0.0000 0.0000 0.0000 0.0000 -222.9074
#
#
#
# Elastic Compliance Matrix: (Units=1/GPa)
#
#
# Indices 1 2 3 4 5 6 
#
# 1 0.012804 -0.001094 -0.000506 0.000000 0.000000 0.000000
# 2 -0.001094 0.005108 -0.001446 0.000000 0.000000 0.000000
# 3 -0.000506 -0.001446 0.009112 0.000000 0.000000 0.000000
# 4 0.000000 0.000000 0.000000 0.011186 0.000000 0.000000
# 5 0.000000 0.000000 0.000000 0.000000 -1.619053 0.000000
# 6 0.000000 0.000000 0.000000 0.000000 0.000000 -0.004486
#
#
# Mechanical properties :
#
#
# Convention : Reuss Voigt Hill
#
# Bulk Modulus (GPa) = 47.77641 58.61098 53.19369
# Shear Modulus (GPa) = -3.18014 -3.88123 -3.53068
#
# Velocity S-wave (km/s) = -1.17628 -1.29949 -1.23942
# Velocity P-wave (km/s) = 4.35226 4.82176 4.59301
#
# Compressibility (1/GPa) = 0.02093083
#
# Stress axis : x y z
#
# Youngs Moduli (GPa) = 78.10126 195.77634 109.75056
#
# Poissons Ratio (x) = 0.21422 0.05557
# Poissons Ratio (y) = 0.08546 0.15867
# Poissons Ratio (z) = 0.03954 0.28303
#
# Static dielectric constant tensor:
#      x y z
#    x 1.918510 0.000000 0.000000 
#    y 0.000000 1.877770 0.000000 
#    z 0.000000 0.000000 1.804420 
# 
# From -- ./inp_files/42173.got.cif
#   From: 2010.05.17/outbox.cif.g08.bks.cpg/sg67_22_cif.got.tgz:42173.got - 2010.06.03 18:28:57.
