data_PCOD9502935
_publ_section_title
;
Structure prediction by ZEFSAII (Michael W. Deem and Ramdas Pophale) SiO2 
 PCOD9502935
Probable space group: C M M A
;
_chemical_formula_sum "Si O2"
_cell_formula_units_Z 68
_cell_length_a 28.478229
_cell_length_b 14.906562
_cell_length_c 8.991197
_cell_angle_alpha 90.000000
_cell_angle_beta 90.000000
_cell_angle_gamma 90.000000
_cell_volume 3816.875393
_symmetry_space_group_name_H-M "C M M A"
_symmetry_group_IT_number 67
_symmetry_cell_setting 'orthorhombic'
loop_
_space_group_symop_operation_xyz
x,y,z
-x,1/2-y,z
x,-y,-z
-x,1/2+y,-z
-x,-y,-z
x,1/2+y,-z
-x,y,z
x,1/2-y,z
1/2+x,1/2+y,z
1/2-x,-y,z
1/2+x,1/2-y,-z
1/2-x,y,-z
1/2-x,1/2-y,-z
1/2+x,y,-z
1/2-x,1/2+y,z
1/2+x,-y,z
loop_
_atom_site_type_symbol
_atom_site_label
_atom_site_fract_x
_atom_site_fract_y
_atom_site_fract_z
Si Si1 0.100977 0.750000 0.127315
Si Si2 0.126890 0.390789 0.627903
Si Si3 0.000000 0.447618 0.156462
Si Si4 0.906673 0.573834 0.678218
Si Si5 0.500000 0.250000 0.970746
Si Si6 0.194862 0.250000 0.476567
Si Si7 0.137076 0.250000 0.186245
O O1 0.109376 0.664729 0.231959
O O2 0.138278 0.750000 0.991689
O O3 0.048219 0.750000 0.064319
O O4 0.089224 0.394085 0.492549
O O5 0.132158 0.494577 0.673473
O O6 0.170203 0.336323 0.555117
O O7 0.046578 0.466520 0.250934
O O8 0.000000 0.341078 0.123827
O O9 0.000000 0.500000 0.000000
O O10 0.890953 0.659929 0.770755
O O11 0.250000 0.250000 0.500000
O O12 0.180602 0.250000 0.301675
#
# Coordination Sequence:
#
# PCOD9502935 Si02
#       7
#     8  16   8  16   4   8   8
#     4  11  20  35  54  83 115 154 203 245 295 349
#     4   9  21  36  56  80 111 150 188 245 308 355
#     4  12  22  32  54  82 114 158 209 248 283 355
#     4  10  20  37  52  79 117 156 199 238 298 352
#     4  12  22  32  48  84 114 158 204 234 280 346
#     4   9  19  41  65  87 110 144 195 244 304 378
#     4  10  20  35  57  81 114 156 187 244 306 345
#
# _framework density 17.815619999999999
#
# number of rings (size 3 to 8) (size 9 to 14) (size 15 to 20)
#    0.000    1.882    2.353    2.118    0.000    2.824 
#    0.000   11.765    0.000    0.000    0.000   19.765 
#    0.000    0.000    0.000    0.000    0.000    0.000 
#
# Total GULP energy -189423.612197 kJ/mol
# GULP energy per Si atom -5571.282712 kJ/mol
# Density = 1.777507 g / cm^3
# Si number density = 17.815620 Si / 1000 Ang^3
#
#
#
# Elastic Constant Matrix: (Units=GPa)
#
#
# Indices 1 2 3 4 5 6 
#
# 1 107.8988 20.2361 45.0450 0.0000 0.0000 0.0000
# 2 20.2361 121.0558 39.1026 0.0000 0.0000 0.0000
# 3 45.0450 39.1026 120.6185 0.0000 0.0000 0.0000
# 4 0.0000 0.0000 0.0000 30.0081 0.0000 0.0000
# 5 0.0000 0.0000 0.0000 0.0000 17.9678 0.0000
# 6 0.0000 0.0000 0.0000 0.0000 0.0000 9.8007
#
#
#
# Elastic Compliance Matrix: (Units=1/GPa)
#
#
# Indices 1 2 3 4 5 6 
#
# 1 0.011015 -0.000573 -0.003928 0.000000 0.000000 0.000000
# 2 -0.000573 0.009257 -0.002787 0.000000 0.000000 0.000000
# 3 -0.003928 -0.002787 0.010661 0.000000 0.000000 0.000000
# 4 0.000000 0.000000 0.000000 0.033324 0.000000 0.000000
# 5 0.000000 0.000000 0.000000 0.000000 0.055655 0.000000
# 6 0.000000 0.000000 0.000000 0.000000 0.000000 0.102033
#
#
# Mechanical properties :
#
#
# Convention : Reuss Voigt Hill
#
# Bulk Modulus (GPa) = 61.13348 62.03784 61.58566
# Shear Modulus (GPa) = 20.66344 27.90129 24.28236
#
# Velocity S-wave (km/s) = 3.40935 3.96171 3.69586
# Velocity P-wave (km/s) = 7.06309 7.47159 7.27021
#
# Compressibility (1/GPa) = 0.01635765
#
# Stress axis : x y z
#
# Youngs Moduli (GPa) = 90.78396 108.03094 93.79954
#
# Poissons Ratio (x) = 0.06185 0.36845
# Poissons Ratio (y) = 0.05198 0.26142
# Poissons Ratio (z) = 0.35660 0.30109
#
# Static dielectric constant tensor:
#      x y z
#    x 1.581370 0.000000 0.000000 
#    y 0.000000 1.674450 0.000000 
#    z 0.000000 0.000000 1.631010 
# 
# From -- ./inp_files/8247.got.cif
#   From: 2010.05.17/outbox.cif.g08.bks.cpg/sg67_5_cif.got.tgz:8247.got - 2010.06.03 18:28:57.
