data_PCOD9502114
_publ_section_title
;
Structure prediction by ZEFSAII (Michael W. Deem and Ramdas Pophale) SiO2 
 PCOD9502114
Probable space group: C M M A
;
_chemical_formula_sum "Si O2"
_cell_formula_units_Z 104
_cell_length_a 25.878027
_cell_length_b 9.262777
_cell_length_c 30.932595
_cell_angle_alpha 90.000000
_cell_angle_beta 90.000000
_cell_angle_gamma 90.000000
_cell_volume 7414.617053
_symmetry_space_group_name_H-M "C M M A"
_symmetry_group_IT_number 67
_symmetry_cell_setting 'orthorhombic'
loop_
_space_group_symop_operation_xyz
x,y,z
-x,1/2-y,z
x,-y,-z
-x,1/2+y,-z
-x,-y,-z
x,1/2+y,-z
-x,y,z
x,1/2-y,z
1/2+x,1/2+y,z
1/2-x,-y,z
1/2+x,1/2-y,-z
1/2-x,y,-z
1/2-x,1/2-y,-z
1/2+x,y,-z
1/2-x,1/2+y,z
1/2+x,-y,z
loop_
_atom_site_type_symbol
_atom_site_label
_atom_site_fract_x
_atom_site_fract_y
_atom_site_fract_z
Si Si1 0.598229 0.421676 0.394627
Si Si2 0.562875 0.583165 0.214698
Si Si3 0.060622 0.075917 0.311226
Si Si4 0.696135 0.423749 0.454675
Si Si5 0.500000 0.576483 0.546156
Si Si6 0.936993 0.584006 0.129349
Si Si7 0.062988 0.583709 0.956843
O O1 0.593861 0.250000 0.386628
O O2 0.592132 0.505258 0.349842
O O3 0.651501 0.448500 0.419711
O O4 0.550673 0.462645 0.426111
O O5 0.500000 0.582332 0.215017
O O6 0.578491 0.750000 0.208648
O O7 0.578080 0.533408 0.262799
O O8 0.580055 0.488156 0.174257
O O9 0.436943 0.750000 0.313194
O O10 0.000000 0.035020 0.316346
O O11 0.681184 0.500000 0.500000
O O12 0.702335 0.250000 0.460436
O O13 0.750000 0.500000 0.442135
O O14 0.500000 0.750000 0.540089
O O15 0.500000 0.500000 0.500000
O O16 0.921006 0.750000 0.126302
O O17 0.920518 0.495116 0.087134
O O18 0.000000 0.581419 0.129575
O O19 0.079284 0.750000 0.957649
O O20 0.000000 0.582523 0.956852
O O21 0.079489 0.500000 0.000000
#
# Coordination Sequence:
#
# PCOD9502114 Si02
#       7
#    16  16  16  16   8  16  16
#     4  10  20  32  46  64  87 110 133 161 198 237
#     4   8  14  24  35  47  65  88 115 146 178 217
#     4   9  17  28  42  60  80 104 132 158 190 233
#     4  10  20  34  51  69  86 108 136 166 198 234
#     4  10  20  32  44  62  86 110 132 158 189 230
#     4   9  15  21  29  42  57  76 106 140 177 222
#     4   9  15  21  28  37  51  72  98 134 180 226
#
# _framework density 14.026349
#
# number of rings (size 3 to 8) (size 9 to 14) (size 15 to 20)
#    0.000    2.769    0.769    3.231    0.000    6.154 
#    0.000    1.538    0.000    0.000    0.000    0.000 
#    0.000    0.000    0.000    0.000    0.000    0.000 
#
# Total GULP energy -289608.662078 kJ/mol
# GULP energy per Si atom -5569.397348 kJ/mol
# Density = 1.399442 g / cm^3
# Si number density = 14.026349 Si / 1000 Ang^3
#
#
#
# Elastic Constant Matrix: (Units=GPa)
#
#
# Indices 1 2 3 4 5 6 
#
# 1 30.7539 26.3233 39.1113 0.0000 0.0000 0.0000
# 2 26.3233 88.3344 81.5265 0.0000 0.0000 0.0000
# 3 39.1113 81.5265 156.6437 0.0000 0.0000 0.0000
# 4 0.0000 0.0000 0.0000 30.7381 0.0000 0.0000
# 5 0.0000 0.0000 0.0000 0.0000 6.8821 0.0000
# 6 0.0000 0.0000 0.0000 0.0000 0.0000 11.8068
#
#
#
# Elastic Compliance Matrix: (Units=1/GPa)
#
#
# Indices 1 2 3 4 5 6 
#
# 1 0.049474 -0.006432 -0.009005 0.000000 0.000000 0.000000
# 2 -0.006432 0.022621 -0.010167 0.000000 0.000000 0.000000
# 3 -0.009005 -0.010167 0.013924 0.000000 0.000000 0.000000
# 4 0.000000 0.000000 0.000000 0.032533 0.000000 0.000000
# 5 0.000000 0.000000 0.000000 0.000000 0.145305 0.000000
# 6 0.000000 0.000000 0.000000 0.000000 0.000000 0.084697
#
#
# Mechanical properties :
#
#
# Convention : Reuss Voigt Hill
#
# Bulk Modulus (GPa) = 28.72726 63.29491 46.01108
# Shear Modulus (GPa) = 12.15462 18.47013 15.31238
#
# Velocity S-wave (km/s) = 2.94693 3.63273 3.30765
# Velocity P-wave (km/s) = 5.66609 7.92587 6.88926
#
# Compressibility (1/GPa) = 0.03481014
#
# Stress axis : x y z
#
# Youngs Moduli (GPa) = 20.21265 44.20663 71.81782
#
# Poissons Ratio (x) = 0.28432 0.64675
# Poissons Ratio (y) = 0.13000 0.73020
# Poissons Ratio (z) = 0.18202 0.44947
#
# Static dielectric constant tensor:
#      x y z
#    x 1.430300 0.000000 0.000000 
#    y 0.000000 1.470600 0.000000 
#    z 0.000000 0.000000 1.464720 
# 
# From -- ./inp_files/46030.got.cif
#   From: 2010.05.17/outbox.cif.g08.bks.cpg/sg67_24_cif.got.tgz:46030.got - 2010.06.03 18:28:57.
