data_PCOD9502898
_publ_section_title
;
Structure prediction by ZEFSAII (Michael W. Deem and Ramdas Pophale) SiO2 
 PCOD9502898
Probable space group: C M M A
;
_chemical_formula_sum "Si O2"
_cell_formula_units_Z 52
_cell_length_a 19.502578
_cell_length_b 9.321018
_cell_length_c 16.186189
_cell_angle_alpha 90.000000
_cell_angle_beta 90.000000
_cell_angle_gamma 90.000000
_cell_volume 2942.388248
_symmetry_space_group_name_H-M "C M M A"
_symmetry_group_IT_number 67
_symmetry_cell_setting 'orthorhombic'
loop_
_space_group_symop_operation_xyz
x,y,z
-x,1/2-y,z
x,-y,-z
-x,1/2+y,-z
-x,-y,-z
x,1/2+y,-z
-x,y,z
x,1/2-y,z
1/2+x,1/2+y,z
1/2-x,-y,z
1/2+x,1/2-y,-z
1/2-x,y,-z
1/2-x,1/2-y,-z
1/2+x,y,-z
1/2-x,1/2+y,z
1/2+x,-y,z
loop_
_atom_site_type_symbol
_atom_site_label
_atom_site_fract_x
_atom_site_fract_y
_atom_site_fract_z
Si Si1 0.750000 0.500000 0.500000
Si Si2 0.677537 0.077249 0.915458
Si Si3 0.314610 0.411520 0.338130
Si Si4 0.420290 0.919722 0.240737
O O1 0.701964 0.585505 0.563861
O O2 0.686395 0.250000 0.926131
O O3 0.623148 0.053958 0.842469
O O4 0.750000 0.000000 0.896297
O O5 0.653969 0.000000 0.000000
O O6 0.314285 0.250000 0.307333
O O7 0.250000 0.500000 0.302341
O O8 0.383226 0.491594 0.312579
O O9 0.500000 0.956473 0.230877
O O10 0.415173 0.750000 0.258983
#
# Coordination Sequence:
#
# PCOD9502898 Si02
#       4
#     4  16  16  16
#     4   8  22  36  60  88 112 136 180 232 278 328
#     4  10  20  35  56  81 109 144 187 232 276 320
#     4  10  20  35  59  85 110 141 182 228 274 329
#     4  10  22  38  55  80 116 152 185 227 279 329
#
# _framework density 17.672719000000001
#
# number of rings (size 3 to 8) (size 9 to 14) (size 15 to 20)
#    0.923    1.231    0.000    4.154    0.000    6.154 
#    0.000    0.769    0.000    0.000    0.000    0.000 
#    0.000    0.000    0.000    0.000    0.000    0.000 
#
# Total GULP energy -144822.945902 kJ/mol
# GULP energy per Si atom -5570.113304 kJ/mol
# Density = 1.763249 g / cm^3
# Si number density = 17.672719 Si / 1000 Ang^3
#
#
#
# Elastic Constant Matrix: (Units=GPa)
#
#
# Indices 1 2 3 4 5 6 
#
# 1 130.0151 69.5633 53.4870 0.0000 0.0000 0.0000
# 2 69.5633 101.8261 47.7061 0.0000 0.0000 0.0000
# 3 53.4870 47.7061 93.8764 0.0000 0.0000 0.0000
# 4 0.0000 0.0000 0.0000 3.3408 0.0000 0.0000
# 5 0.0000 0.0000 0.0000 0.0000 10.0155 0.0000
# 6 0.0000 0.0000 0.0000 0.0000 0.0000 23.4906
#
#
#
# Elastic Compliance Matrix: (Units=1/GPa)
#
#
# Indices 1 2 3 4 5 6 
#
# 1 0.013091 -0.007151 -0.003825 0.000000 0.000000 0.000000
# 2 -0.007151 0.016796 -0.004461 0.000000 0.000000 0.000000
# 3 -0.003825 -0.004461 0.015098 0.000000 0.000000 0.000000
# 4 0.000000 0.000000 0.000000 0.299334 0.000000 0.000000
# 5 0.000000 0.000000 0.000000 0.000000 0.099845 0.000000
# 6 0.000000 0.000000 0.000000 0.000000 0.000000 0.042570
#
#
# Mechanical properties :
#
#
# Convention : Reuss Voigt Hill
#
# Bulk Modulus (GPa) = 70.86258 74.13672 72.49965
# Shear Modulus (GPa) = 9.57281 17.70011 13.63646
#
# Velocity S-wave (km/s) = 2.32991 3.16816 2.78080
# Velocity P-wave (km/s) = 6.88638 7.44472 7.17098
#
# Compressibility (1/GPa) = 0.01411182
#
# Stress axis : x y z
#
# Youngs Moduli (GPa) = 76.38759 59.53730 66.23253
#
# Poissons Ratio (x) = 0.42578 0.25331
# Poissons Ratio (y) = 0.54628 0.29545
# Poissons Ratio (z) = 0.29215 0.26559
#
# Static dielectric constant tensor:
#      x y z
#    x 1.576130 0.000000 0.000000 
#    y 0.000000 1.603110 0.000000 
#    z 0.000000 0.000000 1.629260 
# 
# From -- ./inp_files/24526.got.cif
#   From: 2010.05.17/outbox.cif.g08.bks.cpg/sg67_13_cif.got.tgz:24526.got - 2010.06.03 18:28:57.
