data_PCOD9502444
_publ_section_title
;
Structure prediction by ZEFSAII (Michael W. Deem and Ramdas Pophale) SiO2 
 PCOD9502444
Probable space group: C M M A
;
_chemical_formula_sum "Si O2"
_cell_formula_units_Z 104
_cell_length_a 25.605185
_cell_length_b 21.294479
_cell_length_c 9.604558
_cell_angle_alpha 90.000000
_cell_angle_beta 90.000000
_cell_angle_gamma 90.000000
_cell_volume 5236.876358
_symmetry_space_group_name_H-M "C M M A"
_symmetry_group_IT_number 67
_symmetry_cell_setting 'orthorhombic'
loop_
_space_group_symop_operation_xyz
x,y,z
-x,1/2-y,z
x,-y,-z
-x,1/2+y,-z
-x,-y,-z
x,1/2+y,-z
-x,y,z
x,1/2-y,z
1/2+x,1/2+y,z
1/2-x,-y,z
1/2+x,1/2-y,-z
1/2-x,y,-z
1/2-x,1/2-y,-z
1/2+x,y,-z
1/2-x,1/2+y,z
1/2+x,-y,z
loop_
_atom_site_type_symbol
_atom_site_label
_atom_site_fract_x
_atom_site_fract_y
_atom_site_fract_z
Si Si1 0.937430 0.250000 0.774922
Si Si2 0.436862 0.250000 0.684317
Si Si3 0.056911 0.508923 0.667816
Si Si4 0.120579 0.874482 0.610458
Si Si5 0.772147 0.822015 0.648912
Si Si6 0.612859 0.114790 0.289343
Si Si7 0.702602 0.857257 0.907122
Si Si8 0.368040 0.750000 0.037952
O O1 0.912079 0.184652 0.720538
O O2 0.916796 0.250000 0.932360
O O3 0.000000 0.250000 0.757271
O O4 0.500000 0.250000 0.706459
O O5 0.419004 0.185083 0.610275
O O6 0.397844 0.250000 0.816864
O O7 0.055017 0.500000 0.500000
O O8 0.095866 0.566292 0.687848
O O9 0.072387 0.441835 0.728940
O O10 0.000000 0.528140 0.717384
O O11 0.175192 0.858333 0.680661
O O12 0.132028 0.890405 0.448777
O O13 0.787861 0.750000 0.626085
O O14 0.750000 0.844204 0.500000
O O15 0.731432 0.824913 0.774678
O O16 0.658020 0.104624 0.174837
O O17 0.669976 0.808357 0.001839
O O18 0.750000 0.884812 0.000000
#
# Coordination Sequence:
#
# PCOD9502444 Si02
#       8
#     8   8  16  16  16  16  16   8
#     4  10  20  33  57  85 114 148 199 259 306 356
#     4  12  24  37  58  89 126 157 202 264 312 358
#     4   9  19  37  60  84 122 164 198 244 314 377
#     4  11  21  36  58  91 122 159 202 252 312 373
#     4  11  21  34  60  90 126 160 197 257 314 357
#     4  10  21  36  58  89 123 157 203 256 304 371
#     4  11  21  36  59  88 117 166 206 242 306 375
#     4  10  22  38  55  82 119 161 205 245 305 376
#
# _framework density 19.859168
#
# number of rings (size 3 to 8) (size 9 to 14) (size 15 to 20)
#    0.000    1.538    3.077    2.769    0.000    2.462 
#    0.000    0.769    0.000   11.077    0.000   15.077 
#    0.000    0.000    0.000    0.000    0.000    0.000 
#
# Total GULP energy -289773.131750 kJ/mol
# GULP energy per Si atom -5572.560226 kJ/mol
# Density = 1.981397 g / cm^3
# Si number density = 19.859168 Si / 1000 Ang^3
#
#
#
# Elastic Constant Matrix: (Units=GPa)
#
#
# Indices 1 2 3 4 5 6 
#
# 1 128.7849 33.9712 28.5200 0.0000 0.0000 0.0000
# 2 33.9712 82.8813 2.5708 0.0000 0.0000 0.0000
# 3 28.5200 2.5708 82.4939 0.0000 0.0000 0.0000
# 4 0.0000 0.0000 0.0000 0.6904 0.0000 0.0000
# 5 0.0000 0.0000 0.0000 0.0000 19.7840 0.0000
# 6 0.0000 0.0000 0.0000 0.0000 0.0000 22.8386
#
#
#
# Elastic Compliance Matrix: (Units=1/GPa)
#
#
# Indices 1 2 3 4 5 6 
#
# 1 0.009460 -0.003780 -0.003153 0.000000 0.000000 0.000000
# 2 -0.003780 0.013587 0.000883 0.000000 0.000000 0.000000
# 3 -0.003153 0.000883 0.013185 0.000000 0.000000 0.000000
# 4 0.000000 0.000000 0.000000 1.448357 0.000000 0.000000
# 5 0.000000 0.000000 0.000000 0.000000 0.050546 0.000000
# 6 0.000000 0.000000 0.000000 0.000000 0.000000 0.043786
#
#
# Mechanical properties :
#
#
# Convention : Reuss Voigt Hill
#
# Bulk Modulus (GPa) = 41.43602 47.14267 44.28935
# Shear Modulus (GPa) = 3.12683 23.93581 13.53132
#
# Velocity S-wave (km/s) = 1.25615 3.47548 2.61313
# Velocity P-wave (km/s) = 4.79730 6.31627 5.60845
#
# Compressibility (1/GPa) = 0.02413359
#
# Stress axis : x y z
#
# Youngs Moduli (GPa) = 105.70718 73.59833 75.84620
#
# Poissons Ratio (x) = 0.27818 0.23913
# Poissons Ratio (y) = 0.39954 -0.06699
# Poissons Ratio (z) = 0.33327 -0.06501
#
# Static dielectric constant tensor:
#      x y z
#    x 1.708610 0.000000 0.000000 
#    y 0.000000 1.688020 0.000000 
#    z 0.000000 0.000000 1.725330 
# 
# From -- ./inp_files/13831.got.cif
#   From: 2010.05.17/outbox.cif.g08.bks.cpg/sg67_7_cif.got.tgz:13831.got - 2010.06.03 18:28:57.
