data_PCOD9502031
_publ_section_title
;
Structure prediction by ZEFSAII (Michael W. Deem and Ramdas Pophale) SiO2 
 PCOD9502031
Probable space group: C M M A
;
_chemical_formula_sum "Si O2"
_cell_formula_units_Z 56
_cell_length_a 15.309134
_cell_length_b 19.049874
_cell_length_c 8.818270
_cell_angle_alpha 90.000000
_cell_angle_beta 90.000000
_cell_angle_gamma 90.000000
_cell_volume 2571.734458
_symmetry_space_group_name_H-M "C M M A"
_symmetry_group_IT_number 67
_symmetry_cell_setting 'orthorhombic'
loop_
_space_group_symop_operation_xyz
x,y,z
-x,1/2-y,z
x,-y,-z
-x,1/2+y,-z
-x,-y,-z
x,1/2+y,-z
-x,y,z
x,1/2-y,z
1/2+x,1/2+y,z
1/2-x,-y,z
1/2+x,1/2-y,-z
1/2-x,y,-z
1/2-x,1/2-y,-z
1/2+x,y,-z
1/2-x,1/2+y,z
1/2+x,-y,z
loop_
_atom_site_type_symbol
_atom_site_label
_atom_site_fract_x
_atom_site_fract_y
_atom_site_fract_z
Si Si1 0.338553 0.877982 0.937965
Si Si2 0.750000 0.500000 0.741423
Si Si3 0.101089 0.400445 0.270014
Si Si4 0.893548 0.250000 0.401991
Si Si5 0.101369 0.250000 0.738150
O O1 0.381202 0.820161 0.832524
O O2 0.304672 0.944792 0.843556
O O3 0.250000 0.843506 0.000000
O O4 0.392235 0.901299 0.086143
O O5 0.826428 0.545974 0.664847
O O6 0.129116 0.322326 0.319528
O O7 0.000000 0.413887 0.314751
O O8 0.855928 0.250000 0.572170
O O9 0.000000 0.250000 0.399158
O O10 0.000000 0.250000 0.705081
#
# Coordination Sequence:
#
# PCOD9502031 Si02
#       5
#    16   8  16   8   8
#     4  10  20  37  57  86 119 147 191 241 288 348
#     4  10  23  38  57  90 121 148 191 242 289 348
#     4  10  19  37  63  86 115 153 192 239 292 345
#     4   9  21  39  58  84 115 151 198 244 285 337
#     4  11  22  37  59  86 117 153 194 242 291 341
#
# _framework density 21.775186999999999
#
# number of rings (size 3 to 8) (size 9 to 14) (size 15 to 20)
#    0.000    2.000    0.000    6.000    0.000    8.000 
#    0.000   14.286    0.000    5.143    0.000    0.000 
#    0.000    0.000    0.000    0.000    0.000    0.000 
#
# Total GULP energy -156242.720375 kJ/mol
# GULP energy per Si atom -5580.097156 kJ/mol
# Density = 2.172563 g / cm^3
# Si number density = 21.775187 Si / 1000 Ang^3
#
#
#
# Elastic Constant Matrix: (Units=GPa)
#
#
# Indices 1 2 3 4 5 6 
#
# 1 98.8196 53.1491 10.5404 0.0000 0.0000 0.0000
# 2 53.1491 154.8012 28.9848 0.0000 0.0000 0.0000
# 3 10.5404 28.9848 30.6825 0.0000 0.0000 0.0000
# 4 0.0000 0.0000 0.0000 -7.7470 0.0000 0.0000
# 5 0.0000 0.0000 0.0000 0.0000 12.5689 0.0000
# 6 0.0000 0.0000 0.0000 0.0000 0.0000 36.0272
#
#
#
# Elastic Compliance Matrix: (Units=1/GPa)
#
#
# Indices 1 2 3 4 5 6 
#
# 1 0.012413 -0.004208 -0.000289 0.000000 0.000000 0.000000
# 2 -0.004208 0.009274 -0.007316 0.000000 0.000000 0.000000
# 3 -0.000289 -0.007316 0.039602 0.000000 0.000000 0.000000
# 4 0.000000 0.000000 0.000000 -0.129083 0.000000 0.000000
# 5 0.000000 0.000000 0.000000 0.000000 0.079562 0.000000
# 6 0.000000 0.000000 0.000000 0.000000 0.000000 0.027757
#
#
# Mechanical properties :
#
#
# Convention : Reuss Voigt Hill
#
# Bulk Modulus (GPa) = 26.55042 52.18353 39.36697
# Shear Modulus (GPa) = 66.04470 20.94508 43.49489
#
# Velocity S-wave (km/s) = 5.51327 3.10478 4.47413
# Velocity P-wave (km/s) = 7.26275 6.07203 6.69392
#
# Compressibility (1/GPa) = 0.03766419
#
# Stress axis : x y z
#
# Youngs Moduli (GPa) = 80.55782 107.82391 25.25110
#
# Poissons Ratio (x) = 0.45370 0.00731
# Poissons Ratio (y) = 0.33897 0.18473
# Poissons Ratio (z) = 0.02332 0.78881
#
# Static dielectric constant tensor:
#      x y z
#    x 1.822480 0.000000 0.000000 
#    y 0.000000 1.773330 0.000000 
#    z 0.000000 0.000000 1.822380 
# 
# From -- ./inp_files/9138.got.cif
#   From: 2010.05.17/outbox.cif.g08.bks.cpg/sg67_5_cif.got.tgz:9138.got - 2010.06.03 18:28:57.
