data_PCOD9502200
_publ_section_title
;
Structure prediction by ZEFSAII (Michael W. Deem and Ramdas Pophale) SiO2 
 PCOD9502200
Probable space group: C M M A
;
_chemical_formula_sum "Si O2"
_cell_formula_units_Z 72
_cell_length_a 16.727814
_cell_length_b 7.520047
_cell_length_c 25.620653
_cell_angle_alpha 90.000000
_cell_angle_beta 90.000000
_cell_angle_gamma 90.000000
_cell_volume 3222.923078
_symmetry_space_group_name_H-M "C M M A"
_symmetry_group_IT_number 67
_symmetry_cell_setting 'orthorhombic'
loop_
_space_group_symop_operation_xyz
x,y,z
-x,1/2-y,z
x,-y,-z
-x,1/2+y,-z
-x,-y,-z
x,1/2+y,-z
-x,y,z
x,1/2-y,z
1/2+x,1/2+y,z
1/2-x,-y,z
1/2+x,1/2-y,-z
1/2-x,y,-z
1/2-x,1/2-y,-z
1/2+x,y,-z
1/2-x,1/2+y,z
1/2+x,-y,z
loop_
_atom_site_type_symbol
_atom_site_label
_atom_site_fract_x
_atom_site_fract_y
_atom_site_fract_z
Si Si1 0.000000 0.463210 0.938748
Si Si2 0.090605 0.533326 0.225198
Si Si3 0.842432 0.037289 0.666015
Si Si4 0.908704 0.962962 0.443418
Si Si5 0.839613 0.962960 0.119182
O O1 0.916725 0.529652 0.913194
O O2 0.000000 0.250000 0.930954
O O3 0.000000 0.500000 0.000000
O O4 0.094355 0.750000 0.226806
O O5 0.111060 0.469046 0.283225
O O6 0.148772 0.472812 0.178964
O O7 0.000000 0.485858 0.211017
O O8 0.855276 0.250000 0.664705
O O9 0.867682 0.967926 0.609079
O O10 0.750000 0.000000 0.674483
O O11 0.911805 0.750000 0.439455
O O12 0.000000 0.031057 0.444498
O O13 0.870932 0.000000 0.500000
O O14 0.846301 0.750000 0.120053
O O15 0.750000 0.000000 0.099711
#
# Coordination Sequence:
#
# PCOD9502200 Si02
#       5
#     8  16  16  16  16
#     4  10  22  40  60  84 116 154 193 230 272 326
#     4   9  16  31  56  80 104 138 178 220 266 320
#     4  10  20  32  49  74 102 131 167 211 260 315
#     4   9  18  33  51  70  92 124 168 212 255 308
#     4  10  20  36  59  86 115 148 188 231 278 330
#
# _framework density 22.339969
#
# number of rings (size 3 to 8) (size 9 to 14) (size 15 to 20)
#    0.000    2.444    1.111    1.333    0.000    5.333 
#    0.000    4.444    0.000    3.333    0.000    0.000 
#    0.000    0.000    0.000    0.000    0.000    0.000 
#
# Total GULP energy -200925.964309 kJ/mol
# GULP energy per Si atom -5581.276786 kJ/mol
# Density = 2.228912 g / cm^3
# Si number density = 22.339969 Si / 1000 Ang^3
#
#
#
# Elastic Constant Matrix: (Units=GPa)
#
#
# Indices 1 2 3 4 5 6 
#
# 1 133.1737 -1.7427 68.0611 0.0000 0.0000 0.0000
# 2 -1.7427 58.9131 6.2597 0.0000 0.0000 0.0000
# 3 68.0611 6.2597 148.9399 0.0000 0.0000 0.0000
# 4 0.0000 0.0000 0.0000 13.3701 0.0000 0.0000
# 5 0.0000 0.0000 0.0000 0.0000 19.4013 0.0000
# 6 0.0000 0.0000 0.0000 0.0000 0.0000 19.9059
#
#
#
# Elastic Compliance Matrix: (Units=1/GPa)
#
#
# Indices 1 2 3 4 5 6 
#
# 1 0.009832 0.000772 -0.004525 0.000000 0.000000 0.000000
# 2 0.000772 0.017111 -0.001072 0.000000 0.000000 0.000000
# 3 -0.004525 -0.001072 0.008827 0.000000 0.000000 0.000000
# 4 0.000000 0.000000 0.000000 0.074794 0.000000 0.000000
# 5 0.000000 0.000000 0.000000 0.000000 0.051543 0.000000
# 6 0.000000 0.000000 0.000000 0.000000 0.000000 0.050236
#
#
# Mechanical properties :
#
#
# Convention : Reuss Voigt Hill
#
# Bulk Modulus (GPa) = 38.28632 54.02032 46.15332
# Shear Modulus (GPa) = 21.67317 28.43203 25.05260
#
# Velocity S-wave (km/s) = 3.11811 3.57136 3.35240
# Velocity P-wave (km/s) = 5.48987 6.42181 5.97404
#
# Compressibility (1/GPa) = 0.02611899
#
# Stress axis : x y z
#
# Youngs Moduli (GPa) = 101.71049 58.44242 113.28775
#
# Poissons Ratio (x) = -0.04510 0.51266
# Poissons Ratio (y) = -0.07849 0.12142
# Poissons Ratio (z) = 0.46027 0.06264
#
# Static dielectric constant tensor:
#      x y z
#    x 1.798470 0.000000 0.000000 
#    y 0.000000 1.865100 0.000000 
#    z 0.000000 0.000000 1.834250 
# 
# From -- ./inp_files/40495.got.cif
#   From: 2010.05.17/outbox.cif.g08.bks.cpg/sg67_21_cif.got.tgz:40495.got - 2010.06.03 18:28:57.
