data_PCOD9502526
_publ_section_title
;
Structure prediction by ZEFSAII (Michael W. Deem and Ramdas Pophale) SiO2 
 PCOD9502526
Probable space group: C M M A
;
_chemical_formula_sum "Si O2"
_cell_formula_units_Z 96
_cell_length_a 8.813783
_cell_length_b 28.082304
_cell_length_c 24.150917
_cell_angle_alpha 90.000000
_cell_angle_beta 90.000000
_cell_angle_gamma 90.000000
_cell_volume 5977.625674
_symmetry_space_group_name_H-M "C M M A"
_symmetry_group_IT_number 67
_symmetry_cell_setting 'orthorhombic'
loop_
_space_group_symop_operation_xyz
x,y,z
-x,1/2-y,z
x,-y,-z
-x,1/2+y,-z
-x,-y,-z
x,1/2+y,-z
-x,y,z
x,1/2-y,z
1/2+x,1/2+y,z
1/2-x,-y,z
1/2+x,1/2-y,-z
1/2-x,y,-z
1/2-x,1/2-y,-z
1/2+x,y,-z
1/2-x,1/2+y,z
1/2+x,-y,z
loop_
_atom_site_type_symbol
_atom_site_label
_atom_site_fract_x
_atom_site_fract_y
_atom_site_fract_z
Si Si1 0.681827 0.195308 0.730748
Si Si2 0.181431 0.305855 0.060235
Si Si3 0.180779 0.895470 0.661414
Si Si4 0.681378 0.447951 0.776809
Si Si5 0.319343 0.947759 0.559062
Si Si6 0.819193 0.357598 0.834906
O O1 0.500000 0.191123 0.740835
O O2 0.716460 0.250000 0.717793
O O3 0.718023 0.157756 0.682334
O O4 0.765386 0.177873 0.785965
O O5 0.215278 0.250000 0.072085
O O6 0.252641 0.338131 0.107848
O O7 0.000000 0.311287 0.059246
O O8 0.250000 0.316739 0.000000
O O9 0.213645 0.929182 0.714388
O O10 0.270592 0.912993 0.608250
O O11 0.000000 0.898187 0.650477
O O12 0.500000 0.448572 0.783405
O O13 0.750000 0.500000 0.784702
O O14 0.752436 0.408888 0.817746
O O15 0.500000 0.951542 0.554839
O O16 0.250000 0.932714 0.500000
O O17 0.250000 0.000000 0.571196
O O18 0.000000 0.359507 0.836969
#
# Coordination Sequence:
#
# PCOD9502526 Si02
#       6
#    16  16  16  16  16  16
#     4   9  18  33  52  73  99 132 166 202 246 292
#     4  10  20  34  52  74 101 132 166 205 249 295
#     4   9  18  32  50  73 100 128 160 198 242 291
#     4  10  20  34  52  74 101 132 165 203 246 292
#     4  11  21  33  50  71  97 127 160 198 241 289
#     4  11  21  32  49  74 103 134 167 203 244 291
#
# _framework density 16.059888999999998
#
# number of rings (size 3 to 8) (size 9 to 14) (size 15 to 20)
#    0.000    2.000    0.000    6.500    0.000    8.000 
#    0.000    0.000    0.000    1.000    0.000    3.500 
#    0.000    0.000    0.000    0.000    0.000    0.000 
#
# Total GULP energy -267995.662141 kJ/mol
# GULP energy per Si atom -5583.242961 kJ/mol
# Density = 1.602334 g / cm^3
# Si number density = 16.059889 Si / 1000 Ang^3
#
#
#
# Elastic Constant Matrix: (Units=GPa)
#
#
# Indices 1 2 3 4 5 6 
#
# 1 101.4996 71.5322 78.0440 0.0000 0.0000 0.0000
# 2 71.5322 136.1870 88.4302 0.0000 0.0000 0.0000
# 3 78.0440 88.4302 126.5279 0.0000 0.0000 0.0000
# 4 0.0000 0.0000 0.0000 20.2545 0.0000 0.0000
# 5 0.0000 0.0000 0.0000 0.0000 27.8381 0.0000
# 6 0.0000 0.0000 0.0000 0.0000 0.0000 24.0008
#
#
#
# Elastic Compliance Matrix: (Units=1/GPa)
#
#
# Indices 1 2 3 4 5 6 
#
# 1 0.020210 -0.004615 -0.009240 0.000000 0.000000 0.000000
# 2 -0.004615 0.014498 -0.007286 0.000000 0.000000 0.000000
# 3 -0.009240 -0.007286 0.018695 0.000000 0.000000 0.000000
# 4 0.000000 0.000000 0.000000 0.049372 0.000000 0.000000
# 5 0.000000 0.000000 0.000000 0.000000 0.035922 0.000000
# 6 0.000000 0.000000 0.000000 0.000000 0.000000 0.041665
#
#
# Mechanical properties :
#
#
# Convention : Reuss Voigt Hill
#
# Bulk Modulus (GPa) = 89.92645 93.35859 91.64252
# Shear Modulus (GPa) = 22.08971 22.83256 22.46113
#
# Velocity S-wave (km/s) = 3.71274 3.77465 3.74382
# Velocity P-wave (km/s) = 8.63106 8.78949 8.71063
#
# Compressibility (1/GPa) = 0.01112020
#
# Stress axis : x y z
#
# Youngs Moduli (GPa) = 49.48152 68.97536 53.49115
#
# Poissons Ratio (x) = 0.31835 0.49425
# Poissons Ratio (y) = 0.22838 0.38972
# Poissons Ratio (z) = 0.45720 0.50254
#
# Static dielectric constant tensor:
#      x y z
#    x 1.535360 0.000000 0.000000 
#    y 0.000000 1.527930 0.000000 
#    z 0.000000 0.000000 1.512610 
# 
# From -- ./inp_files/37211.got.cif
#   From: 2010.05.17/outbox.cif.g08.bks.cpg/sg67_19_cif.got.tgz:37211.got - 2010.06.03 18:28:57.
