data_PCOD9502864
_publ_section_title
;
Structure prediction by ZEFSAII (Michael W. Deem and Ramdas Pophale) SiO2 
 PCOD9502864
Probable space group: C M M A
;
_chemical_formula_sum "Si O2"
_cell_formula_units_Z 80
_cell_length_a 8.816618
_cell_length_b 28.699963
_cell_length_c 16.501099
_cell_angle_alpha 90.000000
_cell_angle_beta 90.000000
_cell_angle_gamma 90.000000
_cell_volume 4175.382159
_symmetry_space_group_name_H-M "C M M A"
_symmetry_group_IT_number 67
_symmetry_cell_setting 'orthorhombic'
loop_
_space_group_symop_operation_xyz
x,y,z
-x,1/2-y,z
x,-y,-z
-x,1/2+y,-z
-x,-y,-z
x,1/2+y,-z
-x,y,z
x,1/2-y,z
1/2+x,1/2+y,z
1/2-x,-y,z
1/2+x,1/2-y,-z
1/2-x,y,-z
1/2-x,1/2-y,-z
1/2+x,y,-z
1/2-x,1/2+y,z
1/2+x,-y,z
loop_
_atom_site_type_symbol
_atom_site_label
_atom_site_fract_x
_atom_site_fract_y
_atom_site_fract_z
Si Si1 0.329430 0.828094 0.583853
Si Si2 0.326262 0.806014 0.083525
Si Si3 0.327860 0.559571 0.582585
Si Si4 0.821193 0.048218 0.248722
Si Si5 0.682233 0.650426 0.759997
O O1 0.500000 0.808782 0.584507
O O2 0.250000 0.812286 0.500000
O O3 0.338836 0.884301 0.578473
O O4 0.262184 0.824750 0.675585
O O5 0.500000 0.822650 0.089697
O O6 0.328905 0.750000 0.080460
O O7 0.232772 0.821124 0.161901
O O8 0.250000 0.822750 0.000000
O O9 0.500000 0.542159 0.594621
O O10 0.250000 0.545823 0.500000
O O11 0.217862 0.547366 0.655835
O O12 0.745952 0.097953 0.226565
O O13 0.000000 0.049191 0.233907
O O14 0.750000 0.000000 0.214552
O O15 0.500000 0.647318 0.752674
#
# Coordination Sequence:
#
# PCOD9502864 Si02
#       5
#    16  16  16  16  16
#     4   8  15  26  43  68 100 138 180 224 267 314
#     4  10  21  38  62  92 120 144 173 215 271 332
#     4   9  16  27  41  61  90 128 176 229 281 327
#     4  11  21  33  48  69 100 140 185 230 274 322
#     4  10  20  35  55  81 112 147 186 228 277 330
#
# _framework density 19.159922999999999
#
# number of rings (size 3 to 8) (size 9 to 14) (size 15 to 20)
#    0.000    2.400    0.000    4.800    0.000    7.200 
#    0.000    2.000    0.000    1.200    0.000    4.200 
#    0.000    0.000    0.000    0.000    0.000    0.000 
#
# Total GULP energy -222839.775315 kJ/mol
# GULP energy per Si atom -5570.994383 kJ/mol
# Density = 1.911631 g / cm^3
# Si number density = 19.159923 Si / 1000 Ang^3
#
#
#
# Elastic Constant Matrix: (Units=GPa)
#
#
# Indices 1 2 3 4 5 6 
#
# 1 104.1955 11.3093 36.5480 0.0000 0.0000 0.0000
# 2 11.3093 21.8718 15.1963 0.0000 0.0000 0.0000
# 3 36.5480 15.1963 121.4862 0.0000 0.0000 0.0000
# 4 0.0000 0.0000 0.0000 -25.5688 0.0000 0.0000
# 5 0.0000 0.0000 0.0000 0.0000 26.0553 0.0000
# 6 0.0000 0.0000 0.0000 0.0000 0.0000 17.2051
#
#
#
# Elastic Compliance Matrix: (Units=1/GPa)
#
#
# Indices 1 2 3 4 5 6 
#
# 1 0.010998 -0.003710 -0.002844 0.000000 0.000000 0.000000
# 2 -0.003710 0.051325 -0.005304 0.000000 0.000000 0.000000
# 3 -0.002844 -0.005304 0.009751 0.000000 0.000000 0.000000
# 4 0.000000 0.000000 0.000000 -0.039110 0.000000 0.000000
# 5 0.000000 0.000000 0.000000 0.000000 0.038380 0.000000
# 6 0.000000 0.000000 0.000000 0.000000 0.000000 0.058122
#
#
# Mechanical properties :
#
#
# Convention : Reuss Voigt Hill
#
# Bulk Modulus (GPa) = 20.68010 41.51786 31.09898
# Shear Modulus (GPa) = 29.53320 15.83828 22.68574
#
# Velocity S-wave (km/s) = 3.93033 2.87825 3.44469
# Velocity P-wave (km/s) = 5.60478 5.72380 5.66460
#
# Compressibility (1/GPa) = 0.04835566
#
# Stress axis : x y z
#
# Youngs Moduli (GPa) = 90.92728 19.48385 102.55821
#
# Poissons Ratio (x) = 0.07229 0.29172
# Poissons Ratio (y) = 0.33737 0.54395
# Poissons Ratio (z) = 0.25864 0.10334
#
# Static dielectric constant tensor:
#      x y z
#    x 1.667160 0.000000 0.000000 
#    y 0.000000 1.726600 0.000000 
#    z 0.000000 0.000000 1.647420 
# 
# From -- ./inp_files/32297.got.cif
#   From: 2010.05.17/outbox.cif.g08.bks.cpg/sg67_17_cif.got.tgz:32297.got - 2010.06.03 18:28:57.
