data_PCOD9502720
_publ_section_title
;
Structure prediction by ZEFSAII (Michael W. Deem and Ramdas Pophale) SiO2 
 PCOD9502720
Probable space group: C M M A
;
_chemical_formula_sum "Si O2"
_cell_formula_units_Z 56
_cell_length_a 27.108062
_cell_length_b 9.239136
_cell_length_c 11.459043
_cell_angle_alpha 90.000000
_cell_angle_beta 90.000000
_cell_angle_gamma 90.000000
_cell_volume 2869.975434
_symmetry_space_group_name_H-M "C M M A"
_symmetry_group_IT_number 67
_symmetry_cell_setting 'orthorhombic'
loop_
_space_group_symop_operation_xyz
x,y,z
-x,1/2-y,z
x,-y,-z
-x,1/2+y,-z
-x,-y,-z
x,1/2+y,-z
-x,y,z
x,1/2-y,z
1/2+x,1/2+y,z
1/2-x,-y,z
1/2+x,1/2-y,-z
1/2-x,y,-z
1/2-x,1/2-y,-z
1/2+x,y,-z
1/2-x,1/2+y,z
1/2+x,-y,z
loop_
_atom_site_type_symbol
_atom_site_label
_atom_site_fract_x
_atom_site_fract_y
_atom_site_fract_z
Si Si1 0.445033 0.919767 0.718553
Si Si2 0.202430 0.414356 0.325865
Si Si3 0.355808 0.073973 0.124605
Si Si4 0.379591 0.500000 0.500000
O O1 0.500000 0.985165 0.713799
O O2 0.450201 0.750000 0.740557
O O3 0.408894 0.972708 0.820813
O O4 0.415691 0.932598 0.596672
O O5 0.214928 0.250000 0.292912
O O6 0.250000 0.500000 0.370500
O O7 0.182800 0.507805 0.216641
O O8 0.158653 0.409443 0.421239
O O9 0.352750 0.250000 0.120119
O O10 0.348872 0.000000 0.000000
#
# Coordination Sequence:
#
# PCOD9502720 Si02
#       4
#    16  16  16   8
#     4   9  18  33  54  81 113 149 187 228 275 326
#     4  11  23  38  58  84 114 149 189 233 282 336
#     4  10  21  38  59  83 113 148 188 234 282 334
#     4  10  20  34  56  82 116 150 188 230 274 328
#
# _framework density 19.512362
#
# number of rings (size 3 to 8) (size 9 to 14) (size 15 to 20)
#    0.000    2.000    0.000    3.429    0.000    5.714 
#    0.000    2.857    0.000   16.286    0.000    0.000 
#    0.000    0.000    0.000    0.000    0.000    0.000 
#
# Total GULP energy -155993.330198 kJ/mol
# GULP energy per Si atom -5571.190364 kJ/mol
# Density = 1.946795 g / cm^3
# Si number density = 19.512362 Si / 1000 Ang^3
#
#
#
# Elastic Constant Matrix: (Units=GPa)
#
#
# Indices 1 2 3 4 5 6 
#
# 1 117.4202 39.9073 33.1820 0.0000 0.0000 0.0000
# 2 39.9073 102.1995 39.9616 0.0000 0.0000 0.0000
# 3 33.1820 39.9616 124.3897 0.0000 0.0000 0.0000
# 4 0.0000 0.0000 0.0000 -153.8884 0.0000 0.0000
# 5 0.0000 0.0000 0.0000 0.0000 22.1858 0.0000
# 6 0.0000 0.0000 0.0000 0.0000 0.0000 20.3983
#
#
#
# Elastic Compliance Matrix: (Units=1/GPa)
#
#
# Indices 1 2 3 4 5 6 
#
# 1 0.010101 -0.003306 -0.001633 0.000000 0.000000 0.000000
# 2 -0.003306 0.012273 -0.003061 0.000000 0.000000 0.000000
# 3 -0.001633 -0.003061 0.009458 0.000000 0.000000 0.000000
# 4 0.000000 0.000000 0.000000 -0.006498 0.000000 0.000000
# 5 0.000000 0.000000 0.000000 0.000000 0.045074 0.000000
# 6 0.000000 0.000000 0.000000 0.000000 0.000000 0.049024
#
#
# Mechanical properties :
#
#
# Convention : Reuss Voigt Hill
#
# Bulk Modulus (GPa) = 63.15823 63.34568 63.25196
# Shear Modulus (GPa) = 35.53461 -6.86363 14.33549
#
# Velocity S-wave (km/s) = 4.27210 -1.87756 2.71345
# Velocity P-wave (km/s) = 7.53479 5.27585 6.50414
#
# Compressibility (1/GPa) = 0.01583325
#
# Stress axis : x y z
#
# Youngs Moduli (GPa) = 98.99629 81.48254 105.73010
#
# Poissons Ratio (x) = 0.26939 0.17261
# Poissons Ratio (y) = 0.32729 0.32362
# Poissons Ratio (z) = 0.16161 0.24940
#
# Static dielectric constant tensor:
#      x y z
#    x 1.751980 0.000000 0.000000 
#    y 0.000000 1.677340 0.000000 
#    z 0.000000 0.000000 1.667030 
# 
# From -- ./inp_files/15543.got.cif
#   From: 2010.05.17/outbox.cif.g08.bks.cpg/sg67_8_cif.got.tgz:15543.got - 2010.06.03 18:28:57.
