data_PCOD9502225
_publ_section_title
;
Structure prediction by ZEFSAII (Michael W. Deem and Ramdas Pophale) SiO2 
 PCOD9502225
Probable space group: C M M A
;
_chemical_formula_sum "Si O2"
_cell_formula_units_Z 72
_cell_length_a 7.699901
_cell_length_b 15.603298
_cell_length_c 29.781508
_cell_angle_alpha 90.000000
_cell_angle_beta 90.000000
_cell_angle_gamma 90.000000
_cell_volume 3578.065026
_symmetry_space_group_name_H-M "C M M A"
_symmetry_group_IT_number 67
_symmetry_cell_setting 'orthorhombic'
loop_
_space_group_symop_operation_xyz
x,y,z
-x,1/2-y,z
x,-y,-z
-x,1/2+y,-z
-x,-y,-z
x,1/2+y,-z
-x,y,z
x,1/2-y,z
1/2+x,1/2+y,z
1/2-x,-y,z
1/2+x,1/2-y,-z
1/2-x,y,-z
1/2-x,1/2-y,-z
1/2+x,y,-z
1/2-x,1/2+y,z
1/2+x,-y,z
loop_
_atom_site_type_symbol
_atom_site_label
_atom_site_fract_x
_atom_site_fract_y
_atom_site_fract_z
Si Si1 0.802534 0.352000 0.146345
Si Si2 0.000000 0.855237 0.210813
Si Si3 0.295778 0.899636 0.048792
Si Si4 0.000000 0.353365 0.685476
Si Si5 0.293177 0.750000 0.447791
Si Si6 0.208001 0.403951 0.383510
O O1 0.815428 0.250000 0.152397
O O2 0.669772 0.385038 0.183567
O O3 0.726649 0.365687 0.096131
O O4 0.000000 0.387265 0.149580
O O5 0.000000 0.750000 0.209814
O O6 0.000000 0.880598 0.262665
O O7 0.500000 0.888467 0.052275
O O8 0.250000 0.000000 0.047345
O O9 0.250000 0.862050 0.000000
O O10 0.828394 0.386169 0.659695
O O11 0.000000 0.250000 0.683480
O O12 0.500000 0.750000 0.444796
O O13 0.250000 0.750000 0.500000
O O14 0.235880 0.665703 0.420716
O O15 0.250000 0.500000 0.399009
O O16 0.000000 0.395808 0.374899
#
# Coordination Sequence:
#
# PCOD9502225 Si02
#       6
#    16   8  16   8   8  16
#     4   9  19  36  55  79 112 139 180 236 288 349
#     4   9  20  36  60  87 105 152 191 235 305 351
#     4  10  20  32  51  74 101 143 180 220 278 344
#     4  11  22  40  68  90 124 167 216 266 319 382
#     4  10  24  40  64 100 134 176 222 263 319 377
#     4  11  23  41  65  95 131 175 218 269 321 374
#
# _framework density 20.122608
#
# number of rings (size 3 to 8) (size 9 to 14) (size 15 to 20)
#    0.000    2.000    2.222    1.333    4.667    1.778 
#    0.000    5.556    0.000    0.000    0.000    0.000 
#    0.000    0.000    0.000    0.000    0.000    0.000 
#
# Total GULP energy -200808.699128 kJ/mol
# GULP energy per Si atom -5578.019420 kJ/mol
# Density = 2.007681 g / cm^3
# Si number density = 20.122608 Si / 1000 Ang^3
#
#
#
# Elastic Constant Matrix: (Units=GPa)
#
#
# Indices 1 2 3 4 5 6 
#
# 1 106.7926 22.8830 80.4462 0.0000 0.0000 0.0000
# 2 22.8830 78.5290 48.8631 0.0000 0.0000 0.0000
# 3 80.4462 48.8631 203.0110 0.0000 0.0000 0.0000
# 4 0.0000 0.0000 0.0000 -55.5553 0.0000 0.0000
# 5 0.0000 0.0000 0.0000 0.0000 37.8381 0.0000
# 6 0.0000 0.0000 0.0000 0.0000 0.0000 10.8294
#
#
#
# Elastic Compliance Matrix: (Units=1/GPa)
#
#
# Indices 1 2 3 4 5 6 
#
# 1 0.013382 -0.000706 -0.005133 0.000000 0.000000 0.000000
# 2 -0.000706 0.015014 -0.003334 0.000000 0.000000 0.000000
# 3 -0.005133 -0.003334 0.007762 0.000000 0.000000 0.000000
# 4 0.000000 0.000000 0.000000 -0.018000 0.000000 0.000000
# 5 0.000000 0.000000 0.000000 0.000000 0.026428 0.000000
# 6 0.000000 0.000000 0.000000 0.000000 0.000000 0.092342
#
#
# Mechanical properties :
#
#
# Convention : Reuss Voigt Hill
#
# Bulk Modulus (GPa) = 56.13848 76.96859 66.55354
# Shear Modulus (GPa) = 31.01518 14.36511 22.69014
#
# Velocity S-wave (km/s) = 3.93021 2.67475 3.36161
# Velocity P-wave (km/s) = 6.96808 6.91895 6.94356
#
# Compressibility (1/GPa) = 0.01781309
#
# Stress axis : x y z
#
# Youngs Moduli (GPa) = 74.72895 66.60264 128.82678
#
# Poissons Ratio (x) = 0.04699 0.66125
# Poissons Ratio (y) = 0.05272 0.42954
# Poissons Ratio (z) = 0.38358 0.22207
#
# Static dielectric constant tensor:
#      x y z
#    x 1.704270 0.000000 0.000000 
#    y 0.000000 1.722690 0.000000 
#    z 0.000000 0.000000 1.724130 
# 
# From -- ./inp_files/43133.got.cif
#   From: 2010.05.17/outbox.cif.g08.bks.cpg/sg67_22_cif.got.tgz:43133.got - 2010.06.03 18:28:57.
