data_PCOD9502060
_publ_section_title
;
Structure prediction by ZEFSAII (Michael W. Deem and Ramdas Pophale) SiO2 
 PCOD9502060
Probable space group: C M M A
;
_chemical_formula_sum "Si O2"
_cell_formula_units_Z 88
_cell_length_a 14.054839
_cell_length_b 15.315192
_cell_length_c 20.040431
_cell_angle_alpha 90.000000
_cell_angle_beta 90.000000
_cell_angle_gamma 90.000000
_cell_volume 4313.754032
_symmetry_space_group_name_H-M "C M M A"
_symmetry_group_IT_number 67
_symmetry_cell_setting 'orthorhombic'
loop_
_space_group_symop_operation_xyz
x,y,z
-x,1/2-y,z
x,-y,-z
-x,1/2+y,-z
-x,-y,-z
x,1/2+y,-z
-x,y,z
x,1/2-y,z
1/2+x,1/2+y,z
1/2-x,-y,z
1/2+x,1/2-y,-z
1/2-x,y,-z
1/2-x,1/2-y,-z
1/2+x,y,-z
1/2-x,1/2+y,z
1/2+x,-y,z
loop_
_atom_site_type_symbol
_atom_site_label
_atom_site_fract_x
_atom_site_fract_y
_atom_site_fract_z
Si Si1 0.250000 0.000000 0.211878
Si Si2 0.615506 0.649129 0.551259
Si Si3 0.722560 0.652846 0.112516
Si Si4 0.609494 0.396540 0.013719
Si Si5 0.115407 0.151288 0.400248
Si Si6 0.614328 0.976024 0.672212
O O1 0.291280 0.923416 0.165714
O O2 0.330918 0.040301 0.259527
O O3 0.500000 0.644300 0.550144
O O4 0.641068 0.750000 0.563586
O O5 0.646395 0.627458 0.475721
O O6 0.645064 0.586415 0.611094
O O7 0.724868 0.750000 0.141502
O O8 0.643337 0.647933 0.054674
O O9 0.820480 0.632961 0.072527
O O10 0.500000 0.378680 0.028986
O O11 0.621825 0.500000 0.000000
O O12 0.146905 0.250000 0.384505
O O13 0.139176 0.074943 0.349522
O O14 0.000000 0.153512 0.402240
O O15 0.500000 0.968562 0.679466
#
# Coordination Sequence:
#
# PCOD9502060 Si02
#       6
#     8  16  16  16  16  16
#     4  12  26  41  51  80 118 156 202 228 266 330
#     4   8  14  28  53  81 104 131 177 238 298 348
#     4  11  23  41  62  87 124 158 189 234 281 330
#     4  10  19  38  71  99 121 146 181 236 291 334
#     4   8  14  28  53  81 104 131 177 238 298 348
#     4  10  21  36  55  74 105 150 190 230 282 339
#
# _framework density 20.399865999999999
#
# number of rings (size 3 to 8) (size 9 to 14) (size 15 to 20)
#    0.000    2.364    1.818    3.273    0.000    6.545 
#    0.000    1.818    0.000    2.182    0.000    0.000 
#    0.000    0.000    0.000    0.000    0.000    0.000 
#
# Total GULP energy -245805.315506 kJ/mol
# GULP energy per Si atom -5586.484443 kJ/mol
# Density = 2.035343 g / cm^3
# Si number density = 20.399866 Si / 1000 Ang^3
#
#
#
# Elastic Constant Matrix: (Units=GPa)
#
#
# Indices 1 2 3 4 5 6 
#
# 1 50.7970 -24.6426 -18.9504 0.0000 0.0000 0.0000
# 2 -24.6426 65.6236 12.0521 0.0000 0.0000 0.0000
# 3 -18.9504 12.0521 55.0786 0.0000 0.0000 0.0000
# 4 0.0000 0.0000 0.0000 3.6067 0.0000 0.0000
# 5 0.0000 0.0000 0.0000 0.0000 7.9138 0.0000
# 6 0.0000 0.0000 0.0000 0.0000 0.0000 -6.6666
#
#
#
# Elastic Compliance Matrix: (Units=1/GPa)
#
#
# Indices 1 2 3 4 5 6 
#
# 1 0.026590 0.008653 0.007255 0.000000 0.000000 0.000000
# 2 0.008653 0.018692 -0.001113 0.000000 0.000000 0.000000
# 3 0.007255 -0.001113 0.020896 0.000000 0.000000 0.000000
# 4 0.000000 0.000000 0.000000 0.277261 0.000000 0.000000
# 5 0.000000 0.000000 0.000000 0.000000 0.126362 0.000000
# 6 0.000000 0.000000 0.000000 0.000000 0.000000 -0.150001
#
#
# Mechanical properties :
#
#
# Convention : Reuss Voigt Hill
#
# Bulk Modulus (GPa) = 10.44190 12.04638 11.24414
# Shear Modulus (GPa) = 15.52156 14.50678 15.01417
#
# Velocity S-wave (km/s) = 2.76137 2.66958 2.71586
# Velocity P-wave (km/s) = 3.91109 3.92685 3.91898
#
# Compressibility (1/GPa) = 0.09576804
#
# Stress axis : x y z
#
# Youngs Moduli (GPa) = 37.60750 53.49876 47.85663
#
# Poissons Ratio (x) = -0.46290 -0.34722
# Poissons Ratio (y) = -0.32540 0.05327
# Poissons Ratio (z) = -0.27286 0.05955
#
# Static dielectric constant tensor:
#      x y z
#    x 1.767870 0.000000 0.000000 
#    y 0.000000 1.731930 0.000000 
#    z 0.000000 0.000000 1.679530 
# 
# From -- ./inp_files/38307.got.cif
#   From: 2010.05.17/outbox.cif.g08.bks.cpg/sg67_20_cif.got.tgz:38307.got - 2010.06.03 18:28:57.
