data_PCOD9502482
_publ_section_title
;
Structure prediction by ZEFSAII (Michael W. Deem and Ramdas Pophale) SiO2 
 PCOD9502482
Probable space group: C M M A
;
_chemical_formula_sum "Si O2"
_cell_formula_units_Z 88
_cell_length_a 31.227502
_cell_length_b 8.920987
_cell_length_c 17.785571
_cell_angle_alpha 90.000000
_cell_angle_beta 90.000000
_cell_angle_gamma 90.000000
_cell_volume 4954.706848
_symmetry_space_group_name_H-M "C M M A"
_symmetry_group_IT_number 67
_symmetry_cell_setting 'orthorhombic'
loop_
_space_group_symop_operation_xyz
x,y,z
-x,1/2-y,z
x,-y,-z
-x,1/2+y,-z
-x,-y,-z
x,1/2+y,-z
-x,y,z
x,1/2-y,z
1/2+x,1/2+y,z
1/2-x,-y,z
1/2+x,1/2-y,-z
1/2-x,y,-z
1/2-x,1/2-y,-z
1/2+x,y,-z
1/2-x,1/2+y,z
1/2+x,-y,z
loop_
_atom_site_type_symbol
_atom_site_label
_atom_site_fract_x
_atom_site_fract_y
_atom_site_fract_z
Si Si1 0.000000 0.571356 0.917575
Si Si2 0.586486 0.923966 0.867172
Si Si3 0.294765 0.071387 0.757770
Si Si4 0.121457 0.575957 0.301997
Si Si5 0.172345 0.929617 0.923450
Si Si6 0.548402 0.568719 0.582658
O O1 0.957538 0.510007 0.878204
O O2 0.000000 0.750000 0.921073
O O3 0.000000 0.500000 0.000000
O O4 0.582722 0.750000 0.891002
O O5 0.599355 0.927239 0.779796
O O6 0.624663 0.004282 0.912080
O O7 0.292643 0.250000 0.754368
O O8 0.303802 0.029273 0.845566
O O9 0.250000 0.000000 0.734308
O O10 0.334604 0.013871 0.708402
O O11 0.131524 0.750000 0.319147
O O12 0.086638 0.520160 0.362236
O O13 0.171207 0.750000 0.929518
O O14 0.190611 0.000000 0.000000
O O15 0.553813 0.500000 0.500000
O O16 0.500000 0.528467 0.609167
O O17 0.549837 0.750000 0.578557
#
# Coordination Sequence:
#
# PCOD9502482 Si02
#       6
#     8  16  16  16  16  16
#     4  12  24  36  48  66  95 132 175 222 267 314
#     4  10  20  34  52  72  96 132 175 219 264 314
#     4  10  21  36  55  78 106 137 177 224 271 323
#     4   9  19  35  57  80 107 142 178 216 261 314
#     4  10  20  34  51  72 100 133 171 219 270 322
#     4   9  18  33  55  84 117 149 179 212 252 306
#
# _framework density 17.760888000000001
#
# number of rings (size 3 to 8) (size 9 to 14) (size 15 to 20)
#    0.000    2.182    0.000    3.000    1.273    4.000 
#    0.000    1.818    0.000    0.545    0.000    3.818 
#    0.000    0.000    0.000    0.000    0.000    0.000 
#
# Total GULP energy -245577.557247 kJ/mol
# GULP energy per Si atom -5581.308119 kJ/mol
# Density = 1.772046 g / cm^3
# Si number density = 17.760888 Si / 1000 Ang^3
#
#
#
# Elastic Constant Matrix: (Units=GPa)
#
#
# Indices 1 2 3 4 5 6 
#
# 1 145.9131 50.1059 49.6103 0.0000 0.0000 0.0000
# 2 50.1059 61.2803 21.0023 0.0000 0.0000 0.0000
# 3 49.6103 21.0023 66.5271 0.0000 0.0000 0.0000
# 4 0.0000 0.0000 0.0000 25.0997 0.0000 0.0000
# 5 0.0000 0.0000 0.0000 0.0000 10.6977 0.0000
# 6 0.0000 0.0000 0.0000 0.0000 0.0000 26.3899
#
#
#
# Elastic Compliance Matrix: (Units=1/GPa)
#
#
# Indices 1 2 3 4 5 6 
#
# 1 0.011467 -0.007227 -0.006269 0.000000 0.000000 0.000000
# 2 -0.007227 0.022853 -0.001825 0.000000 0.000000 0.000000
# 3 -0.006269 -0.001825 0.020283 0.000000 0.000000 0.000000
# 4 0.000000 0.000000 0.000000 0.039841 0.000000 0.000000
# 5 0.000000 0.000000 0.000000 0.000000 0.093478 0.000000
# 6 0.000000 0.000000 0.000000 0.000000 0.000000 0.037893
#
#
# Mechanical properties :
#
#
# Convention : Reuss Voigt Hill
#
# Bulk Modulus (GPa) = 41.73739 57.23972 49.48855
# Shear Modulus (GPa) = 18.90749 22.63758 20.77254
#
# Velocity S-wave (km/s) = 3.26630 3.57399 3.42360
# Velocity P-wave (km/s) = 6.14618 7.02347 6.59942
#
# Compressibility (1/GPa) = 0.02395933
#
# Stress axis : x y z
#
# Youngs Moduli (GPa) = 87.20884 43.75736 49.30270
#
# Poissons Ratio (x) = 0.31624 0.30910
# Poissons Ratio (y) = 0.63027 0.08999
# Poissons Ratio (z) = 0.54674 0.07987
#
# Static dielectric constant tensor:
#      x y z
#    x 1.600760 0.000000 0.000000 
#    y 0.000000 1.596670 0.000000 
#    z 0.000000 0.000000 1.609870 
# 
# From -- ./inp_files/32447.got.cif
#   From: 2010.05.17/outbox.cif.g08.bks.cpg/sg67_17_cif.got.tgz:32447.got - 2010.06.03 18:28:57.
