data_PCOD9502101
_publ_section_title
;
Structure prediction by ZEFSAII (Michael W. Deem and Ramdas Pophale) SiO2 
 PCOD9502101
Probable space group: C M M A
;
_chemical_formula_sum "Si O2"
_cell_formula_units_Z 88
_cell_length_a 8.594784
_cell_length_b 25.656998
_cell_length_c 22.559581
_cell_angle_alpha 90.000000
_cell_angle_beta 90.000000
_cell_angle_gamma 90.000000
_cell_volume 4974.756593
_symmetry_space_group_name_H-M "C M M A"
_symmetry_group_IT_number 67
_symmetry_cell_setting 'orthorhombic'
loop_
_space_group_symop_operation_xyz
x,y,z
-x,1/2-y,z
x,-y,-z
-x,1/2+y,-z
-x,-y,-z
x,1/2+y,-z
-x,y,z
x,1/2-y,z
1/2+x,1/2+y,z
1/2-x,-y,z
1/2+x,1/2-y,-z
1/2-x,y,-z
1/2-x,1/2-y,-z
1/2+x,y,-z
1/2-x,1/2+y,z
1/2+x,-y,z
loop_
_atom_site_type_symbol
_atom_site_label
_atom_site_fract_x
_atom_site_fract_y
_atom_site_fract_z
Si Si1 0.187536 0.556231 0.659872
Si Si2 0.186753 0.640654 0.563589
Si Si3 0.187425 0.750000 0.933889
Si Si4 0.186407 0.250000 0.745669
Si Si5 0.686711 0.750000 0.607634
Si Si6 0.688231 0.167248 0.836974
Si Si7 0.312466 0.443905 0.797048
O O1 0.250000 0.500000 0.640580
O O2 0.239022 0.601815 0.615963
O O3 0.236950 0.564104 0.728280
O O4 0.000000 0.555167 0.659445
O O5 0.250000 0.623127 0.500000
O O6 0.248533 0.698235 0.577286
O O7 0.000000 0.641414 0.562394
O O8 0.236838 0.699602 0.895160
O O9 0.000000 0.750000 0.935896
O O10 0.250000 0.750000 0.000000
O O11 0.233558 0.250000 0.677033
O O12 0.250746 0.300159 0.780732
O O13 0.000000 0.250000 0.748812
O O14 0.500000 0.750000 0.604140
O O15 0.500000 0.168531 0.834527
O O16 0.738258 0.107204 0.833129
O O17 0.500000 0.445926 0.798187
O O18 0.250000 0.500000 0.816961
#
# Coordination Sequence:
#
# PCOD9502101 Si02
#       7
#    16  16   8   8   8  16  16
#     4   9  19  34  53  75  98 126 159 198 247 298
#     4  11  23  38  54  71  93 126 166 206 250 302
#     4   9  18  32  51  75 102 137 175 212 248 284
#     4  10  20  31  49  78 104 125 158 207 254 293
#     4  11  23  37  52  73 100 128 159 201 253 305
#     4   9  18  33  52  74 104 139 171 201 244 299
#     4   9  17  31  51  75 101 129 162 200 244 297
#
# _framework density 17.689309000000002
#
# number of rings (size 3 to 8) (size 9 to 14) (size 15 to 20)
#    0.000    2.364    0.000    3.000    0.000    6.909 
#    0.000    5.455    0.000    0.545    0.000    3.818 
#    0.000    0.000    0.000    0.000    0.000    0.000 
#
# Total GULP energy -245533.353710 kJ/mol
# GULP energy per Si atom -5580.303493 kJ/mol
# Density = 1.764905 g / cm^3
# Si number density = 17.689309 Si / 1000 Ang^3
#
#
#
# Elastic Constant Matrix: (Units=GPa)
#
#
# Indices 1 2 3 4 5 6 
#
# 1 14.1528 20.6696 17.9346 0.0000 0.0000 0.0000
# 2 20.6696 159.8455 52.6991 0.0000 0.0000 0.0000
# 3 17.9346 52.6991 81.0918 0.0000 0.0000 0.0000
# 4 0.0000 0.0000 0.0000 -0.9163 0.0000 0.0000
# 5 0.0000 0.0000 0.0000 0.0000 24.9009 0.0000
# 6 0.0000 0.0000 0.0000 0.0000 0.0000 28.5155
#
#
#
# Elastic Compliance Matrix: (Units=1/GPa)
#
#
# Indices 1 2 3 4 5 6 
#
# 1 0.104829 -0.007524 -0.018295 0.000000 0.000000 0.000000
# 2 -0.007524 0.008502 -0.003861 0.000000 0.000000 0.000000
# 3 -0.018295 -0.003861 0.018887 0.000000 0.000000 0.000000
# 4 0.000000 0.000000 0.000000 -1.091315 0.000000 0.000000
# 5 0.000000 0.000000 0.000000 0.000000 0.040159 0.000000
# 6 0.000000 0.000000 0.000000 0.000000 0.000000 0.035069
#
#
# Mechanical properties :
#
#
# Convention : Reuss Voigt Hill
#
# Bulk Modulus (GPa) = 13.72528 48.63296 31.17912
# Shear Modulus (GPa) = -6.24826 21.41914 7.58544
#
# Velocity S-wave (km/s) = -1.88146 3.48351 2.07303
# Velocity P-wave (km/s) = 1.74816 6.61304 4.83675
#
# Compressibility (1/GPa) = 0.07285827
#
# Stress axis : x y z
#
# Youngs Moduli (GPa) = 9.53934 117.62059 52.94604
#
# Poissons Ratio (x) = 0.88495 0.96865
# Poissons Ratio (y) = 0.07177 0.20443
# Poissons Ratio (z) = 0.17452 0.45415
#
# Static dielectric constant tensor:
#      x y z
#    x 1.600080 0.000000 0.000000 
#    y 0.000000 1.599610 0.000000 
#    z 0.000000 0.000000 1.586710 
# 
# From -- ./inp_files/36973.got.cif
#   From: 2010.05.17/outbox.cif.g08.bks.cpg/sg67_19_cif.got.tgz:36973.got - 2010.06.03 18:28:57.
