data_PCOD9502195
_publ_section_title
;
Structure prediction by ZEFSAII (Michael W. Deem and Ramdas Pophale) SiO2 
 PCOD9502195
Probable space group: C M M A
;
_chemical_formula_sum "Si O2"
_cell_formula_units_Z 88
_cell_length_a 16.334076
_cell_length_b 9.388583
_cell_length_c 30.646246
_cell_angle_alpha 90.000000
_cell_angle_beta 90.000000
_cell_angle_gamma 90.000000
_cell_volume 4699.719146
_symmetry_space_group_name_H-M "C M M A"
_symmetry_group_IT_number 67
_symmetry_cell_setting 'orthorhombic'
loop_
_space_group_symop_operation_xyz
x,y,z
-x,1/2-y,z
x,-y,-z
-x,1/2+y,-z
-x,-y,-z
x,1/2+y,-z
-x,y,z
x,1/2-y,z
1/2+x,1/2+y,z
1/2-x,-y,z
1/2+x,1/2-y,-z
1/2-x,y,-z
1/2-x,1/2-y,-z
1/2+x,y,-z
1/2-x,1/2+y,z
1/2+x,-y,z
loop_
_atom_site_type_symbol
_atom_site_label
_atom_site_fract_x
_atom_site_fract_y
_atom_site_fract_z
Si Si1 0.168582 0.921459 0.597179
Si Si2 0.399746 0.913183 0.957265
Si Si3 0.000000 0.579173 0.545906
Si Si4 0.091647 0.422901 0.313875
Si Si5 0.335809 0.921974 0.221450
Si Si6 0.598527 0.087019 0.873371
O O1 0.179736 0.750000 0.595359
O O2 0.152257 0.966341 0.647540
O O3 0.084036 0.955130 0.571828
O O4 0.250000 0.000000 0.580706
O O5 0.500000 0.914431 0.957036
O O6 0.373459 0.750000 0.959607
O O7 0.371978 0.987666 0.912584
O O8 0.373895 0.000000 0.000000
O O9 0.000000 0.500000 0.500000
O O10 0.000000 0.750000 0.539978
O O11 0.090751 0.250000 0.314784
O O12 0.114982 0.464540 0.264867
O O13 0.000000 0.471806 0.324246
O O14 0.327422 0.750000 0.222469
O O15 0.376459 0.958749 0.175141
O O16 0.250000 0.000000 0.223591
O O17 0.500000 0.088229 0.875005
O O18 0.626608 0.250000 0.880293
#
# Coordination Sequence:
#
# PCOD9502195 Si02
#       6
#    16  16   8  16  16  16
#     4  10  20  36  59  86 116 151 193 239 289 342
#     4   9  16  26  43  68  95 123 156 199 252 305
#     4  10  22  40  60  84 116 156 198 242 291 344
#     4   9  16  31  56  81 106 140 182 224 266 322
#     4  10  20  32  49  73 101 134 170 209 256 308
#     4   9  17  30  47  68  94 125 164 205 244 296
#
# _framework density 18.724523000000001
#
# number of rings (size 3 to 8) (size 9 to 14) (size 15 to 20)
#    0.000    2.545    0.909    1.636    0.000    6.182 
#    0.000    1.818    0.000    3.273    0.000    3.818 
#    0.000    0.000    0.000    0.000    0.000    0.000 
#
# Total GULP energy -245327.692314 kJ/mol
# GULP energy per Si atom -5575.629371 kJ/mol
# Density = 1.868191 g / cm^3
# Si number density = 18.724523 Si / 1000 Ang^3
#
#
#
# Elastic Constant Matrix: (Units=GPa)
#
#
# Indices 1 2 3 4 5 6 
#
# 1 85.2581 36.8862 47.7228 0.0000 0.0000 0.0000
# 2 36.8862 41.7099 52.1543 0.0000 0.0000 0.0000
# 3 47.7228 52.1543 139.5180 0.0000 0.0000 0.0000
# 4 0.0000 0.0000 0.0000 25.8014 0.0000 0.0000
# 5 0.0000 0.0000 0.0000 0.0000 1.8686 0.0000
# 6 0.0000 0.0000 0.0000 0.0000 0.0000 25.1322
#
#
#
# Elastic Compliance Matrix: (Units=1/GPa)
#
#
# Indices 1 2 3 4 5 6 
#
# 1 0.019010 -0.016300 -0.000409 0.000000 0.000000 0.000000
# 2 -0.016300 0.058993 -0.016477 0.000000 0.000000 0.000000
# 3 -0.000409 -0.016477 0.013467 0.000000 0.000000 0.000000
# 4 0.000000 0.000000 0.000000 0.038758 0.000000 0.000000
# 5 0.000000 0.000000 0.000000 0.000000 0.535163 0.000000
# 6 0.000000 0.000000 0.000000 0.000000 0.000000 0.039790
#
#
# Mechanical properties :
#
#
# Convention : Reuss Voigt Hill
#
# Bulk Modulus (GPa) = 39.84454 60.00143 49.92298
# Shear Modulus (GPa) = 6.41092 19.20861 12.80976
#
# Velocity S-wave (km/s) = 1.85236 3.20637 2.61840
# Velocity P-wave (km/s) = 5.08925 6.76917 5.98841
#
# Compressibility (1/GPa) = 0.02509754
#
# Stress axis : x y z
#
# Youngs Moduli (GPa) = 52.60321 16.95105 74.25520
#
# Poissons Ratio (x) = 0.27630 0.03040
# Poissons Ratio (y) = 0.85743 1.22353
# Poissons Ratio (z) = 0.02153 0.27931
#
# Static dielectric constant tensor:
#      x y z
#    x 1.648630 0.000000 0.000000 
#    y 0.000000 1.630730 0.000000 
#    z 0.000000 0.000000 1.665750 
# 
# From -- ./inp_files/45776.got.cif
#   From: 2010.05.17/outbox.cif.g08.bks.cpg/sg67_23_cif.got.tgz:45776.got - 2010.06.03 18:28:57.
