data_PCOD9502406
_publ_section_title
;
Structure prediction by ZEFSAII (Michael W. Deem and Ramdas Pophale) SiO2 
 PCOD9502406
Probable space group: C M M A
;
_chemical_formula_sum "Si O2"
_cell_formula_units_Z 112
_cell_length_a 31.011164
_cell_length_b 14.360061
_cell_length_c 12.219894
_cell_angle_alpha 90.000000
_cell_angle_beta 90.000000
_cell_angle_gamma 90.000000
_cell_volume 5441.790162
_symmetry_space_group_name_H-M "C M M A"
_symmetry_group_IT_number 67
_symmetry_cell_setting 'orthorhombic'
loop_
_space_group_symop_operation_xyz
x,y,z
-x,1/2-y,z
x,-y,-z
-x,1/2+y,-z
-x,-y,-z
x,1/2+y,-z
-x,y,z
x,1/2-y,z
1/2+x,1/2+y,z
1/2-x,-y,z
1/2+x,1/2-y,-z
1/2-x,y,-z
1/2-x,1/2-y,-z
1/2+x,y,-z
1/2-x,1/2+y,z
1/2+x,-y,z
loop_
_atom_site_type_symbol
_atom_site_label
_atom_site_fract_x
_atom_site_fract_y
_atom_site_fract_z
Si Si1 0.781715 0.864716 0.691676
Si Si2 0.137614 0.096330 0.450623
Si Si3 0.825793 0.857867 0.903242
Si Si4 0.635520 0.362846 0.129772
Si Si5 0.313777 0.356206 0.336183
Si Si6 0.086717 0.646676 0.757991
Si Si7 0.952436 0.471432 0.872513
O O1 0.788428 0.750000 0.680982
O O2 0.819159 0.913224 0.622265
O O3 0.789049 0.890993 0.819095
O O4 0.734683 0.891301 0.648437
O O5 0.156252 0.146526 0.557675
O O6 0.102901 0.138212 0.367423
O O7 0.121176 0.000000 0.500000
O O8 0.814326 0.750000 0.923955
O O9 0.869890 0.859928 0.832049
O O10 0.839003 0.895841 0.021495
O O11 0.633360 0.250000 0.127246
O O12 0.660767 0.399873 0.235529
O O13 0.587313 0.401366 0.137609
O O14 0.305864 0.250000 0.300609
O O15 0.068148 0.750000 0.775922
O O16 0.057372 0.562222 0.798538
O O17 0.000000 0.433838 0.845612
O O18 0.952600 0.500000 0.000000
#
# Coordination Sequence:
#
# PCOD9502406 Si02
#       7
#    16  16  16  16  16  16  16
#     4   9  18  32  51  78 113 155 206 255 294 344
#     4  11  21  34  55  80 115 156 202 255 299 347
#     4   8  15  30  52  78 110 155 200 238 293 355
#     4  10  20  36  57  83 122 162 197 242 300 373
#     4  10  20  33  52  80 113 154 204 248 292 350
#     4  10  20  38  62  86 117 158 200 245 303 370
#     4  11  23  38  61  92 120 145 185 247 313 376
#
# _framework density 20.581462999999999
#
# number of rings (size 3 to 8) (size 9 to 14) (size 15 to 20)
#    0.000    2.143    1.429    3.429    0.000    3.429 
#    0.000    4.286    0.000    3.857    0.000    4.000 
#    0.000    0.000    0.000    0.000    0.000    0.000 
#
# Total GULP energy -312331.081679 kJ/mol
# GULP energy per Si atom -5577.340744 kJ/mol
# Density = 2.053462 g / cm^3
# Si number density = 20.581463 Si / 1000 Ang^3
#
#
#
# Elastic Constant Matrix: (Units=GPa)
#
#
# Indices 1 2 3 4 5 6 
#
# 1 15.1906 1.3087 12.9537 0.0000 0.0000 0.0000
# 2 1.3087 62.7125 15.3596 0.0000 0.0000 0.0000
# 3 12.9537 15.3596 130.4717 0.0000 0.0000 0.0000
# 4 0.0000 0.0000 0.0000 22.3993 0.0000 0.0000
# 5 0.0000 0.0000 0.0000 0.0000 59.7268 0.0000
# 6 0.0000 0.0000 0.0000 0.0000 0.0000 19.2436
#
#
#
# Elastic Compliance Matrix: (Units=1/GPa)
#
#
# Indices 1 2 3 4 5 6 
#
# 1 0.071923 0.000255 -0.007171 0.000000 0.000000 0.000000
# 2 0.000255 0.016420 -0.001958 0.000000 0.000000 0.000000
# 3 -0.007171 -0.001958 0.008607 0.000000 0.000000 0.000000
# 4 0.000000 0.000000 0.000000 0.044644 0.000000 0.000000
# 5 0.000000 0.000000 0.000000 0.000000 0.016743 0.000000
# 6 0.000000 0.000000 0.000000 0.000000 0.000000 0.051965
#
#
# Mechanical properties :
#
#
# Convention : Reuss Voigt Hill
#
# Bulk Modulus (GPa) = 12.62587 29.73544 21.18066
# Shear Modulus (GPa) = 19.65013 32.19079 25.92046
#
# Velocity S-wave (km/s) = 3.09325 3.95912 3.55266
# Velocity P-wave (km/s) = 4.34805 5.94799 5.20980
#
# Compressibility (1/GPa) = 0.07920245
#
# Stress axis : x y z
#
# Youngs Moduli (GPa) = 13.90374 60.90091 116.18452
#
# Poissons Ratio (x) = -0.01555 0.83314
# Poissons Ratio (y) = -0.00355 0.22754
# Poissons Ratio (z) = 0.09970 0.11927
#
# Static dielectric constant tensor:
#      x y z
#    x 1.703600 0.000000 0.000000 
#    y 0.000000 1.846170 0.000000 
#    z 0.000000 0.000000 1.750250 
# 
# From -- ./inp_files/23862.got.cif
#   From: 2010.05.17/outbox.cif.g08.bks.cpg/sg67_12_cif.got.tgz:23862.got - 2010.06.03 18:28:57.
