data_PCOD9502711
_publ_section_title
;
Structure prediction by ZEFSAII (Michael W. Deem and Ramdas Pophale) SiO2 
 PCOD9502711
Probable space group: C M M A
;
_chemical_formula_sum "Si O2"
_cell_formula_units_Z 96
_cell_length_a 14.609267
_cell_length_b 18.303211
_cell_length_c 16.355896
_cell_angle_alpha 90.000000
_cell_angle_beta 90.000000
_cell_angle_gamma 90.000000
_cell_volume 4373.509287
_symmetry_space_group_name_H-M "C M M A"
_symmetry_group_IT_number 67
_symmetry_cell_setting 'orthorhombic'
loop_
_space_group_symop_operation_xyz
x,y,z
-x,1/2-y,z
x,-y,-z
-x,1/2+y,-z
-x,-y,-z
x,1/2+y,-z
-x,y,z
x,1/2-y,z
1/2+x,1/2+y,z
1/2-x,-y,z
1/2+x,1/2-y,-z
1/2-x,y,-z
1/2-x,1/2-y,-z
1/2+x,y,-z
1/2-x,1/2+y,z
1/2+x,-y,z
loop_
_atom_site_type_symbol
_atom_site_label
_atom_site_fract_x
_atom_site_fract_y
_atom_site_fract_z
Si Si1 0.395413 0.619142 0.721423
Si Si2 0.750000 0.873801 0.000000
Si Si3 0.634304 0.750000 0.413089
Si Si4 0.853450 0.250000 0.600162
Si Si5 0.750000 0.000000 0.677051
Si Si6 0.393807 0.667656 0.902114
Si Si7 0.898597 0.398187 0.323156
Si Si8 0.107363 0.665176 0.853560
O O1 0.500000 0.592061 0.719708
O O2 0.381843 0.677197 0.648943
O O3 0.321152 0.554674 0.721251
O O4 0.384560 0.663115 0.805567
O O5 0.833006 0.896482 0.058832
O O6 0.681031 0.844332 0.073547
O O7 0.743965 0.750000 0.404896
O O8 0.609873 0.750000 0.508270
O O9 0.600039 0.678989 0.367047
O O10 0.678917 0.053694 0.633652
O O11 0.500000 0.661293 0.923395
O O12 0.362467 0.750000 0.928868
O O13 0.874533 0.383773 0.227140
O O14 0.000000 0.430208 0.327036
O O15 0.112942 0.750000 0.827855
O O16 0.000000 0.652349 0.878068
#
# Coordination Sequence:
#
# PCOD9502711 Si02
#       8
#    16   8   8   8   8  16  16  16
#     4  11  23  42  67  94 127 170 214 261 317 373
#     4  12  21  28  52  87 128 167 192 243 330 379
#     4  11  23  43  73 102 128 161 211 264 310 373
#     4  11  23  43  73 102 128 161 211 264 310 373
#     4  12  24  40  63  93 134 166 216 260 312 381
#     4  10  20  34  55  87 123 157 206 260 307 370
#     4  11  23  42  67  94 127 170 214 261 317 373
#     4  10  20  34  55  87 123 157 206 260 307 370
#
# _framework density 21.950336
#
# number of rings (size 3 to 8) (size 9 to 14) (size 15 to 20)
#    0.000    1.167    3.333    4.000    0.000    2.667 
#    0.000    1.667    0.000   10.000    0.000   18.667 
#    0.000    0.000    0.000    0.000    0.000    0.000 
#
# Total GULP energy -267372.663277 kJ/mol
# GULP energy per Si atom -5570.263818 kJ/mol
# Density = 2.190038 g / cm^3
# Si number density = 21.950336 Si / 1000 Ang^3
#
#
#
# Elastic Constant Matrix: (Units=GPa)
#
#
# Indices 1 2 3 4 5 6 
#
# 1 153.2353 35.0218 28.9182 0.0000 0.0000 0.0000
# 2 35.0218 76.3894 21.3106 0.0000 0.0000 0.0000
# 3 28.9182 21.3106 108.7847 0.0000 0.0000 0.0000
# 4 0.0000 0.0000 0.0000 -9.0432 0.0000 0.0000
# 5 0.0000 0.0000 0.0000 0.0000 -9.9267 0.0000
# 6 0.0000 0.0000 0.0000 0.0000 0.0000 11.3942
#
#
#
# Elastic Compliance Matrix: (Units=1/GPa)
#
#
# Indices 1 2 3 4 5 6 
#
# 1 0.007484 -0.003043 -0.001394 0.000000 0.000000 0.000000
# 2 -0.003043 0.015084 -0.002146 0.000000 0.000000 0.000000
# 3 -0.001394 -0.002146 0.009983 0.000000 0.000000 0.000000
# 4 0.000000 0.000000 0.000000 -0.110581 0.000000 0.000000
# 5 0.000000 0.000000 0.000000 0.000000 -0.100738 0.000000
# 6 0.000000 0.000000 0.000000 0.000000 0.000000 0.087764
#
#
# Mechanical properties :
#
#
# Convention : Reuss Voigt Hill
#
# Bulk Modulus (GPa) = 51.57945 56.54562 54.06253
# Shear Modulus (GPa) = -70.05204 15.36211 -27.34497
#
# Velocity S-wave (km/s) = -5.65537 2.64835 -3.53337
# Velocity P-wave (km/s) = 4.36978 5.93029 2.83490
#
# Compressibility (1/GPa) = 0.01938757
#
# Stress axis : x y z
#
# Youngs Moduli (GPa) = 133.61380 66.29349 100.16686
#
# Poissons Ratio (x) = 0.20170 0.13958
# Poissons Ratio (y) = 0.40652 0.21498
# Poissons Ratio (z) = 0.18619 0.14228
#
# Static dielectric constant tensor:
#      x y z
#    x 1.835860 0.000000 0.000000 
#    y 0.000000 1.883430 0.000000 
#    z 0.000000 0.000000 1.773780 
# 
# From -- ./inp_files/27311.got.cif
#   From: 2010.05.17/outbox.cif.g08.bks.cpg/sg67_14_cif.got.tgz:27311.got - 2010.06.03 18:28:57.
