data_PCOD9502117
_publ_section_title
;
Structure prediction by ZEFSAII (Michael W. Deem and Ramdas Pophale) SiO2 
 PCOD9502117
Probable space group: C M M A
;
_chemical_formula_sum "Si O2"
_cell_formula_units_Z 120
_cell_length_a 27.351916
_cell_length_b 8.850508
_cell_length_c 29.923718
_cell_angle_alpha 90.000000
_cell_angle_beta 90.000000
_cell_angle_gamma 90.000000
_cell_volume 7243.884320
_symmetry_space_group_name_H-M "C M M A"
_symmetry_group_IT_number 67
_symmetry_cell_setting 'orthorhombic'
loop_
_space_group_symop_operation_xyz
x,y,z
-x,1/2-y,z
x,-y,-z
-x,1/2+y,-z
-x,-y,-z
x,1/2+y,-z
-x,y,z
x,1/2-y,z
1/2+x,1/2+y,z
1/2-x,-y,z
1/2+x,1/2-y,-z
1/2-x,y,-z
1/2-x,1/2-y,-z
1/2+x,y,-z
1/2-x,1/2+y,z
1/2+x,-y,z
loop_
_atom_site_type_symbol
_atom_site_label
_atom_site_fract_x
_atom_site_fract_y
_atom_site_fract_z
Si Si1 0.698591 0.432320 0.117837
Si Si2 0.800750 0.931067 0.222100
Si Si3 0.599670 0.430935 0.271789
Si Si4 0.000000 0.930470 0.950723
Si Si5 0.942921 0.422580 0.187652
Si Si6 0.940566 0.924007 0.453907
Si Si7 0.592194 0.929249 0.899485
Si Si8 0.941989 0.430041 0.359941
O O1 0.701333 0.250000 0.116936
O O2 0.750000 0.500000 0.101602
O O3 0.693020 0.479666 0.170155
O O4 0.648640 0.475802 0.092240
O O5 0.797341 0.750000 0.221674
O O6 0.846696 0.971777 0.252783
O O7 0.750000 0.000000 0.238423
O O8 0.593894 0.250000 0.269139
O O9 0.563844 0.513955 0.237151
O O10 0.588031 0.488199 0.321136
O O11 0.000000 0.750000 0.951767
O O12 0.950680 0.987097 0.926123
O O13 0.000000 0.000000 0.000000
O O14 0.924472 0.250000 0.184181
O O15 0.917072 0.532050 0.152501
O O16 0.000000 0.420580 0.176140
O O17 0.925010 0.750000 0.451292
O O18 0.000000 0.925437 0.455229
O O19 0.923635 0.000000 0.500000
O O20 0.926979 0.013217 0.409103
O O21 0.587610 0.750000 0.906837
O O22 0.936526 0.250000 0.356660
O O23 0.000000 0.465451 0.354231
#
# Coordination Sequence:
#
# PCOD9502117 Si02
#       8
#    16  16  16   8  16  16  16  16
#     4   9  18  33  53  80 110 141 178 218 264 311
#     4   9  18  32  47  68  95 128 168 210 251 300
#     4  11  21  33  47  66  96 133 171 208 254 306
#     4  12  26  44  64  90 116 146 182 220 269 316
#     4  11  22  33  47  72 103 137 177 215 251 299
#     4   9  16  27  44  64  86 117 158 203 251 299
#     4  11  21  37  59  83 112 144 178 219 263 311
#     4  10  20  32  44  63  93 128 167 208 249 298
#
# _framework density 16.565697
#
# number of rings (size 3 to 8) (size 9 to 14) (size 15 to 20)
#    0.000    1.867    2.000    3.000    0.000    6.933 
#    0.000    0.000    0.000    0.400    0.000    2.800 
#    0.000    0.533    0.000    5.600    0.000    3.333 
#
# Total GULP energy -334693.754911 kJ/mol
# GULP energy per Si atom -5578.229249 kJ/mol
# Density = 1.652799 g / cm^3
# Si number density = 16.565697 Si / 1000 Ang^3
#
#
#
# Elastic Constant Matrix: (Units=GPa)
#
#
# Indices 1 2 3 4 5 6 
#
# 1 105.2023 39.1126 31.1480 0.0000 0.0000 0.0000
# 2 39.1126 61.2175 20.5989 0.0000 0.0000 0.0000
# 3 31.1480 20.5989 68.2599 0.0000 0.0000 0.0000
# 4 0.0000 0.0000 0.0000 26.7199 0.0000 0.0000
# 5 0.0000 0.0000 0.0000 0.0000 8.3457 0.0000
# 6 0.0000 0.0000 0.0000 0.0000 0.0000 22.8309
#
#
#
# Elastic Compliance Matrix: (Units=1/GPa)
#
#
# Indices 1 2 3 4 5 6 
#
# 1 0.013344 -0.007209 -0.003914 0.000000 0.000000 0.000000
# 2 -0.007209 0.022076 -0.003372 0.000000 0.000000 0.000000
# 3 -0.003914 -0.003372 0.017453 0.000000 0.000000 0.000000
# 4 0.000000 0.000000 0.000000 0.037425 0.000000 0.000000
# 5 0.000000 0.000000 0.000000 0.000000 0.119822 0.000000
# 6 0.000000 0.000000 0.000000 0.000000 0.000000 0.043800
#
#
# Mechanical properties :
#
#
# Convention : Reuss Voigt Hill
#
# Bulk Modulus (GPa) = 41.86974 46.26653 44.06813
# Shear Modulus (GPa) = 17.18963 21.16732 19.17847
#
# Velocity S-wave (km/s) = 3.22477 3.57848 3.40622
# Velocity P-wave (km/s) = 6.26062 6.71296 6.49073
#
# Compressibility (1/GPa) = 0.02388360
#
# Stress axis : x y z
#
# Youngs Moduli (GPa) = 74.93732 45.29834 57.29515
#
# Poissons Ratio (x) = 0.32656 0.22424
# Poissons Ratio (y) = 0.54022 0.19322
# Poissons Ratio (z) = 0.29329 0.15276
#
# Static dielectric constant tensor:
#      x y z
#    x 1.571700 0.000000 0.000000 
#    y 0.000000 1.559220 0.000000 
#    z 0.000000 0.000000 1.547100 
# 
# From -- ./inp_files/45000.got.cif
#   From: 2010.05.17/outbox.cif.g08.bks.cpg/sg67_23_cif.got.tgz:45000.got - 2010.06.03 18:28:57.
