data_PCOD9502144
_publ_section_title
;
Structure prediction by ZEFSAII (Michael W. Deem and Ramdas Pophale) SiO2 
 PCOD9502144
Probable space group: C M M A
;
_chemical_formula_sum "Si O2"
_cell_formula_units_Z 80
_cell_length_a 27.782112
_cell_length_b 9.814938
_cell_length_c 19.520178
_cell_angle_alpha 90.000000
_cell_angle_beta 90.000000
_cell_angle_gamma 90.000000
_cell_volume 5322.756414
_symmetry_space_group_name_H-M "C M M A"
_symmetry_group_IT_number 67
_symmetry_cell_setting 'orthorhombic'
loop_
_space_group_symop_operation_xyz
x,y,z
-x,1/2-y,z
x,-y,-z
-x,1/2+y,-z
-x,-y,-z
x,1/2+y,-z
-x,y,z
x,1/2-y,z
1/2+x,1/2+y,z
1/2-x,-y,z
1/2+x,1/2-y,-z
1/2-x,y,-z
1/2-x,1/2-y,-z
1/2+x,y,-z
1/2-x,1/2+y,z
1/2+x,-y,z
loop_
_atom_site_type_symbol
_atom_site_label
_atom_site_fract_x
_atom_site_fract_y
_atom_site_fract_z
Si Si1 0.643546 0.985537 0.348310
Si Si2 0.201028 0.410779 0.216784
Si Si3 0.300313 0.914535 0.061233
Si Si4 0.303669 0.750000 0.427359
Si Si5 0.308399 0.750000 0.590793
Si Si6 0.057175 0.911872 0.567320
O O1 0.665261 0.125166 0.374358
O O2 0.661163 0.955205 0.271715
O O3 0.670541 0.878679 0.396396
O O4 0.587964 0.965116 0.368257
O O5 0.212606 0.250000 0.226450
O O6 0.250000 0.500000 0.225520
O O7 0.181388 0.425600 0.139067
O O8 0.295465 0.750000 0.046656
O O9 0.250000 0.000000 0.066567
O O10 0.325855 0.000000 0.000000
O O11 0.310746 0.750000 0.508519
O O12 0.249062 0.750000 0.400448
O O13 0.066318 0.750000 0.556699
O O14 0.000000 0.928967 0.577485
O O15 0.070997 0.000000 0.500000
#
# Coordination Sequence:
#
# PCOD9502144 Si02
#       6
#    16  16  16   8   8  16
#     4  12  22  34  49  70  95 124 160 203 244 285
#     4  10  20  32  47  67  96 130 160 193 236 283
#     4   9  16  27  43  64  89 122 159 192 225 268
#     4  11  20  36  49  63  94 128 161 198 229 281
#     4  11  24  32  47  69  92 128 165 192 235 283
#     4  10  21  37  56  73  90 118 158 206 254 295
#
# _framework density 15.029807
#
# number of rings (size 3 to 8) (size 9 to 14) (size 15 to 20)
#    0.000    1.600    2.000    4.800    2.800    2.400 
#    0.000    0.000    0.000    0.000    0.000    0.000 
#    0.000    0.800    0.000    0.600    0.000    1.200 
#
# Total GULP energy -222738.469629 kJ/mol
# GULP energy per Si atom -5568.461741 kJ/mol
# Density = 1.499560 g / cm^3
# Si number density = 15.029807 Si / 1000 Ang^3
#
#
#
# Elastic Constant Matrix: (Units=GPa)
#
#
# Indices 1 2 3 4 5 6 
#
# 1 55.1092 29.7552 45.7229 0.0000 0.0000 0.0000
# 2 29.7552 115.8259 29.2503 0.0000 0.0000 0.0000
# 3 45.7229 29.2503 89.1146 0.0000 0.0000 0.0000
# 4 0.0000 0.0000 0.0000 27.1190 0.0000 0.0000
# 5 0.0000 0.0000 0.0000 0.0000 7.8935 0.0000
# 6 0.0000 0.0000 0.0000 0.0000 0.0000 19.7394
#
#
#
# Elastic Compliance Matrix: (Units=1/GPa)
#
#
# Indices 1 2 3 4 5 6 
#
# 1 0.033781 -0.004690 -0.015793 0.000000 0.000000 0.000000
# 2 -0.004690 0.010065 -0.000897 0.000000 0.000000 0.000000
# 3 -0.015793 -0.000897 0.019619 0.000000 0.000000 0.000000
# 4 0.000000 0.000000 0.000000 0.036874 0.000000 0.000000
# 5 0.000000 0.000000 0.000000 0.000000 0.126686 0.000000
# 6 0.000000 0.000000 0.000000 0.000000 0.000000 0.050660
#
#
# Mechanical properties :
#
#
# Convention : Reuss Voigt Hill
#
# Bulk Modulus (GPa) = 48.29821 52.16738 50.23279
# Shear Modulus (GPa) = 15.27424 21.30515 18.28970
#
# Velocity S-wave (km/s) = 3.19135 3.76909 3.49219
# Velocity P-wave (km/s) = 6.76641 7.32980 7.05373
#
# Compressibility (1/GPa) = 0.02070470
#
# Stress axis : x y z
#
# Youngs Moduli (GPa) = 29.60235 99.35336 50.97065
#
# Poissons Ratio (x) = 0.46596 0.80498
# Poissons Ratio (y) = 0.13883 0.04574
# Poissons Ratio (z) = 0.46751 0.08916
#
# Static dielectric constant tensor:
#      x y z
#    x 1.498700 0.000000 0.000000 
#    y 0.000000 1.497890 0.000000 
#    z 0.000000 0.000000 1.543470 
# 
# From -- ./inp_files/36106.got.cif
#   From: 2010.05.17/outbox.cif.g08.bks.cpg/sg67_19_cif.got.tgz:36106.got - 2010.06.03 18:28:57.
