data_PCOD9502371
_publ_section_title
;
Structure prediction by ZEFSAII (Michael W. Deem and Ramdas Pophale) SiO2 
 PCOD9502371
Probable space group: C M M A
;
_chemical_formula_sum "Si O2"
_cell_formula_units_Z 116
_cell_length_a 8.884502
_cell_length_b 29.877058
_cell_length_c 24.656322
_cell_angle_alpha 90.000000
_cell_angle_beta 90.000000
_cell_angle_gamma 90.000000
_cell_volume 6544.842695
_symmetry_space_group_name_H-M "C M M A"
_symmetry_group_IT_number 67
_symmetry_cell_setting 'orthorhombic'
loop_
_space_group_symop_operation_xyz
x,y,z
-x,1/2-y,z
x,-y,-z
-x,1/2+y,-z
-x,-y,-z
x,1/2+y,-z
-x,y,z
x,1/2-y,z
1/2+x,1/2+y,z
1/2-x,-y,z
1/2+x,1/2-y,-z
1/2-x,y,-z
1/2-x,1/2-y,-z
1/2+x,y,-z
1/2-x,1/2+y,z
1/2+x,-y,z
loop_
_atom_site_type_symbol
_atom_site_label
_atom_site_fract_x
_atom_site_fract_y
_atom_site_fract_z
Si Si1 0.179544 0.198136 0.728876
Si Si2 0.819005 0.631636 0.942977
Si Si3 0.169327 0.911210 0.552872
Si Si4 0.250000 0.500000 0.500000
Si Si5 0.681701 0.883380 0.329583
Si Si6 0.321311 0.802422 0.155849
Si Si7 0.818816 0.549236 0.116627
Si Si8 0.817999 0.048968 0.232860
O O1 0.224194 0.250000 0.720346
O O2 0.253220 0.164534 0.686414
O O3 0.234661 0.185380 0.789277
O O4 0.000000 0.195113 0.726237
O O5 0.783235 0.666752 0.895118
O O6 0.743388 0.584756 0.926226
O O7 0.000000 0.627209 0.946408
O O8 0.750000 0.646551 0.000000
O O9 0.250000 0.891523 0.500000
O O10 0.168546 0.964574 0.539483
O O11 0.235956 0.900423 0.611562
O O12 0.000000 0.894753 0.553169
O O13 0.500000 0.881665 0.330243
O O14 0.721855 0.917883 0.281653
O O15 0.500000 0.807495 0.166514
O O16 0.291985 0.750000 0.144169
O O17 0.750000 0.500000 0.106516
O O18 0.754436 0.563443 0.175699
O O19 0.000000 0.547526 0.117301
O O20 0.000000 0.046748 0.227285
O O21 0.750000 0.000000 0.244184
#
# Coordination Sequence:
#
# PCOD9502371 Si02
#       8
#    16  16  16   4  16  16  16  16
#     4  10  21  36  56  84 111 137 176 224 271 319
#     4  11  23  38  56  80 108 138 177 220 262 313
#     4   9  19  33  51  75 106 143 183 221 262 309
#     4   8  18  32  54  72 108 144 186 228 260 308
#     4  10  21  35  52  79 111 144 182 221 265 323
#     4   9  19  37  60  83 110 145 177 210 261 323
#     4  11  22  38  57  76 103 138 178 221 269 320
#     4  10  20  33  51  77 109 141 175 216 263 318
#
# _framework density 17.723879
#
# number of rings (size 3 to 8) (size 9 to 14) (size 15 to 20)
#    0.414    1.655    0.000    4.345    0.966    7.448 
#    0.000    1.379    0.000    0.414    0.000    0.000 
#    0.000    0.000    0.000    0.000    0.000    0.000 
#
# Total GULP energy -323429.600149 kJ/mol
# GULP energy per Si atom -5576.372416 kJ/mol
# Density = 1.768354 g / cm^3
# Si number density = 17.723879 Si / 1000 Ang^3
#
#
#
# Elastic Constant Matrix: (Units=GPa)
#
#
# Indices 1 2 3 4 5 6 
#
# 1 49.4620 19.3176 23.5968 0.0000 0.0000 0.0000
# 2 19.3176 60.0741 47.8686 0.0000 0.0000 0.0000
# 3 23.5968 47.8686 88.5409 0.0000 0.0000 0.0000
# 4 0.0000 0.0000 0.0000 19.2532 0.0000 0.0000
# 5 0.0000 0.0000 0.0000 0.0000 28.3574 0.0000
# 6 0.0000 0.0000 0.0000 0.0000 0.0000 22.1203
#
#
#
# Elastic Compliance Matrix: (Units=1/GPa)
#
#
# Indices 1 2 3 4 5 6 
#
# 1 0.023858 -0.004577 -0.003884 0.000000 0.000000 0.000000
# 2 -0.004577 0.030123 -0.015066 0.000000 0.000000 0.000000
# 3 -0.003884 -0.015066 0.020474 0.000000 0.000000 0.000000
# 4 0.000000 0.000000 0.000000 0.051939 0.000000 0.000000
# 5 0.000000 0.000000 0.000000 0.000000 0.035264 0.000000
# 6 0.000000 0.000000 0.000000 0.000000 0.000000 0.045207
#
#
# Mechanical properties :
#
#
# Convention : Reuss Voigt Hill
#
# Bulk Modulus (GPa) = 36.49387 42.18259 39.33823
# Shear Modulus (GPa) = 19.00759 21.09911 20.05335
#
# Velocity S-wave (km/s) = 3.27835 3.45401 3.36732
# Velocity P-wave (km/s) = 5.91312 6.30543 6.11242
#
# Compressibility (1/GPa) = 0.02740186
#
# Stress axis : x y z
#
# Youngs Moduli (GPa) = 41.91470 33.19767 48.84177
#
# Poissons Ratio (x) = 0.15195 0.18969
# Poissons Ratio (y) = 0.19185 0.73583
# Poissons Ratio (z) = 0.16278 0.50014
#
# Static dielectric constant tensor:
#      x y z
#    x 1.606160 0.000000 0.000000 
#    y 0.000000 1.600640 0.000000 
#    z 0.000000 0.000000 1.607450 
# 
# From -- ./inp_files/41218.got.cif
#   From: 2010.05.17/outbox.cif.g08.bks.cpg/sg67_21_cif.got.tgz:41218.got - 2010.06.03 18:28:57.
