data_PCOD9502116
_publ_section_title
;
Structure prediction by ZEFSAII (Michael W. Deem and Ramdas Pophale) SiO2 
 PCOD9502116
Probable space group: C M M A
;
_chemical_formula_sum "Si O2"
_cell_formula_units_Z 72
_cell_length_a 9.029113
_cell_length_b 26.084586
_cell_length_c 20.371603
_cell_angle_alpha 90.000000
_cell_angle_beta 90.000000
_cell_angle_gamma 90.000000
_cell_volume 4797.933680
_symmetry_space_group_name_H-M "C M M A"
_symmetry_group_IT_number 67
_symmetry_cell_setting 'orthorhombic'
loop_
_space_group_symop_operation_xyz
x,y,z
-x,1/2-y,z
x,-y,-z
-x,1/2+y,-z
-x,-y,-z
x,1/2+y,-z
-x,y,z
x,1/2-y,z
1/2+x,1/2+y,z
1/2-x,-y,z
1/2+x,1/2-y,-z
1/2-x,y,-z
1/2-x,1/2-y,-z
1/2+x,y,-z
1/2-x,1/2+y,z
1/2+x,-y,z
loop_
_atom_site_type_symbol
_atom_site_label
_atom_site_fract_x
_atom_site_fract_y
_atom_site_fract_z
Si Si1 0.328448 0.687648 0.433891
Si Si2 0.177367 0.348114 0.840594
Si Si3 0.679071 0.810100 0.289225
Si Si4 0.821790 0.945676 0.070498
Si Si5 0.821552 0.250000 0.928464
O O1 0.500000 0.673109 0.437463
O O2 0.322071 0.750000 0.433697
O O3 0.250000 0.669522 0.500000
O O4 0.269814 0.672486 0.361924
O O5 0.255131 0.341530 0.770781
O O6 0.210927 0.400892 0.877870
O O7 0.221456 0.300425 0.887202
O O8 0.000000 0.344967 0.831607
O O9 0.500000 0.812181 0.288810
O O10 0.720764 0.750000 0.280627
O O11 0.000000 0.950428 0.063721
O O12 0.750000 0.000000 0.089827
O O13 0.750000 0.932326 0.000000
O O14 0.000000 0.250000 0.935230
O O15 0.750000 0.250000 0.000000
#
# Coordination Sequence:
#
# PCOD9502116 Si02
#       5
#    16  16  16  16   8
#     4   8  14  24  37  56  82 113 150 184 212 249
#     4  10  20  32  46  65  90 117 148 183 222 267
#     4   9  17  28  42  62  89 120 152 183 218 261
#     4  10  20  34  51  69  87 112 147 188 230 272
#     4  10  20  32  44  62  87 114 145 180 215 260
#
# _framework density 15.006460000000001
#
# number of rings (size 3 to 8) (size 9 to 14) (size 15 to 20)
#    0.000    2.667    1.111    3.333    0.000    3.556 
#    0.000    2.222    0.000    0.000    0.000    0.000 
#    0.000    0.889    0.000    9.778    0.000    7.556 
#
# Total GULP energy -200558.051179 kJ/mol
# GULP energy per Si atom -5571.056977 kJ/mol
# Density = 1.497230 g / cm^3
# Si number density = 15.006460 Si / 1000 Ang^3
#
#
#
# Elastic Constant Matrix: (Units=GPa)
#
#
# Indices 1 2 3 4 5 6 
#
# 1 36.6419 33.5820 55.3387 0.0000 0.0000 0.0000
# 2 33.5820 68.2775 69.8408 0.0000 0.0000 0.0000
# 3 55.3387 69.8408 168.1132 0.0000 0.0000 0.0000
# 4 0.0000 0.0000 0.0000 14.3822 0.0000 0.0000
# 5 0.0000 0.0000 0.0000 0.0000 31.5187 0.0000
# 6 0.0000 0.0000 0.0000 0.0000 0.0000 17.6349
#
#
#
# Elastic Compliance Matrix: (Units=1/GPa)
#
#
# Indices 1 2 3 4 5 6 
#
# 1 0.064233 -0.017328 -0.013945 0.000000 0.000000 0.000000
# 2 -0.017328 0.030144 -0.006819 0.000000 0.000000 0.000000
# 3 -0.013945 -0.006819 0.013372 0.000000 0.000000 0.000000
# 4 0.000000 0.000000 0.000000 0.069531 0.000000 0.000000
# 5 0.000000 0.000000 0.000000 0.000000 0.031727 0.000000
# 6 0.000000 0.000000 0.000000 0.000000 0.000000 0.056706
#
#
# Mechanical properties :
#
#
# Convention : Reuss Voigt Hill
#
# Bulk Modulus (GPa) = 31.68171 65.61732 48.64952
# Shear Modulus (GPa) = 14.18767 20.32522 17.25645
#
# Velocity S-wave (km/s) = 3.07813 3.68425 3.39475
# Velocity P-wave (km/s) = 5.81301 7.86888 6.91774
#
# Compressibility (1/GPa) = 0.03156395
#
# Stress axis : x y z
#
# Youngs Moduli (GPa) = 15.56827 33.17398 74.78537
#
# Poissons Ratio (x) = 0.57485 1.04289
# Poissons Ratio (y) = 0.26977 0.50996
# Poissons Ratio (z) = 0.21710 0.22621
#
# Static dielectric constant tensor:
#      x y z
#    x 1.506210 0.000000 0.000000 
#    y 0.000000 1.479060 0.000000 
#    z 0.000000 0.000000 1.504160 
# 
# From -- ./inp_files/32064.got.cif
#   From: 2010.05.17/outbox.cif.g08.bks.cpg/sg67_17_cif.got.tgz:32064.got - 2010.06.03 18:28:57.
