data_PCOD9502196
_publ_section_title
;
Structure prediction by ZEFSAII (Michael W. Deem and Ramdas Pophale) SiO2 
 PCOD9502196
Probable space group: C M M A
;
_chemical_formula_sum "Si O2"
_cell_formula_units_Z 80
_cell_length_a 24.124533
_cell_length_b 34.904929
_cell_length_c 5.051396
_cell_angle_alpha 90.000000
_cell_angle_beta 90.000000
_cell_angle_gamma 90.000000
_cell_volume 4253.604336
_symmetry_space_group_name_H-M "C M M A"
_symmetry_group_IT_number 67
_symmetry_cell_setting 'orthorhombic'
loop_
_space_group_symop_operation_xyz
x,y,z
-x,1/2-y,z
x,-y,-z
-x,1/2+y,-z
-x,-y,-z
x,1/2+y,-z
-x,y,z
x,1/2-y,z
1/2+x,1/2+y,z
1/2-x,-y,z
1/2+x,1/2-y,-z
1/2-x,y,-z
1/2-x,1/2-y,-z
1/2+x,y,-z
1/2-x,1/2+y,z
1/2+x,-y,z
loop_
_atom_site_type_symbol
_atom_site_label
_atom_site_fract_x
_atom_site_fract_y
_atom_site_fract_z
Si Si1 0.788276 0.206361 0.241589
Si Si2 0.187633 0.938081 0.590906
Si Si3 0.629979 0.642627 0.436232
Si Si4 0.620963 0.959540 0.906080
Si Si5 0.935884 0.878900 0.063842
O O1 0.805335 0.250000 0.172119
O O2 0.750000 0.207851 0.500000
O O3 0.838902 0.179572 0.324370
O O4 0.750000 0.191451 0.000000
O O5 0.250000 0.945384 0.500000
O O6 0.173162 0.892898 0.568717
O O7 0.170683 0.950415 0.885719
O O8 0.147125 0.959086 0.384427
O O9 0.603653 0.643202 0.727930
O O10 0.581272 0.632560 0.231537
O O11 0.578921 0.923999 0.914131
O O12 0.597020 0.000000 0.000000
O O13 0.000000 0.871966 0.118484
#
# Coordination Sequence:
#
# PCOD9502196 Si02
#       5
#    16  16  16  16  16
#     4  10  20  34  56  86 116 144 171 205 257 316
#     4  10  20  32  49  73 102 137 169 204 258 321
#     4  10  20  35  55  78 106 136 175 218 255 311
#     4  10  21  34  49  73 100 130 173 219 264 316
#     4  10  21  37  56  75  98 136 181 225 269 305
#
# _framework density 18.807580999999999
#
# number of rings (size 3 to 8) (size 9 to 14) (size 15 to 20)
#    0.000    2.000    0.000    3.600    0.000    6.000 
#    0.000    0.000    0.000   10.800    0.000    0.000 
#    0.000    0.000    0.000    0.000    0.000    0.000 
#
# Total GULP energy -223294.499750 kJ/mol
# GULP energy per Si atom -5582.362494 kJ/mol
# Density = 1.876477 g / cm^3
# Si number density = 18.807581 Si / 1000 Ang^3
#
#
#
# Elastic Constant Matrix: (Units=GPa)
#
#
# Indices 1 2 3 4 5 6 
#
# 1 51.5633 22.3038 -4.1906 0.0000 0.0000 0.0000
# 2 22.3038 70.1364 -1.0300 0.0000 0.0000 0.0000
# 3 -4.1906 -1.0300 74.7463 0.0000 0.0000 0.0000
# 4 0.0000 0.0000 0.0000 31.5017 0.0000 0.0000
# 5 0.0000 0.0000 0.0000 0.0000 17.5519 0.0000
# 6 0.0000 0.0000 0.0000 0.0000 0.0000 -4.3595
#
#
#
# Elastic Compliance Matrix: (Units=1/GPa)
#
#
# Indices 1 2 3 4 5 6 
#
# 1 0.022588 -0.007166 0.001168 0.000000 0.000000 0.000000
# 2 -0.007166 0.016534 -0.000174 0.000000 0.000000 0.000000
# 3 0.001168 -0.000174 0.013442 0.000000 0.000000 0.000000
# 4 0.000000 0.000000 0.000000 0.031744 0.000000 0.000000
# 5 0.000000 0.000000 0.000000 0.000000 0.056974 0.000000
# 6 0.000000 0.000000 0.000000 0.000000 0.000000 -0.229385
#
#
# Mechanical properties :
#
#
# Convention : Reuss Voigt Hill
#
# Bulk Modulus (GPa) = 24.86360 25.62361 25.24361
# Shear Modulus (GPa) = -80.19057 20.89634 -29.64711
#
# Velocity S-wave (km/s) = -6.53681 3.33687 -3.97462
# Velocity P-wave (km/s) = 6.61245 5.33853 2.75904
#
# Compressibility (1/GPa) = 0.04021944
#
# Stress axis : x y z
#
# Youngs Moduli (GPa) = 44.27090 60.48066 74.39564
#
# Poissons Ratio (x) = 0.43341 -0.08687
# Poissons Ratio (y) = 0.31725 0.01294
# Poissons Ratio (z) = -0.05169 0.01052
#
# Static dielectric constant tensor:
#      x y z
#    x 1.611650 0.000000 0.000000 
#    y 0.000000 1.685780 0.000000 
#    z 0.000000 0.000000 1.666980 
# 
# From -- ./inp_files/3550.got.cif
#   From: 2010.05.17/outbox.cif.g08.bks.cpg/sg67_2_cif.got.tgz:3550.got - 2010.06.03 18:28:57.
