data_PCOD9502646
_publ_section_title
;
Structure prediction by ZEFSAII (Michael W. Deem and Ramdas Pophale) SiO2 
 PCOD9502646
Probable space group: C M M A
;
_chemical_formula_sum "Si O2"
_cell_formula_units_Z 72
_cell_length_a 8.906848
_cell_length_b 15.221160
_cell_length_c 26.330557
_cell_angle_alpha 90.000000
_cell_angle_beta 90.000000
_cell_angle_gamma 90.000000
_cell_volume 3569.700979
_symmetry_space_group_name_H-M "C M M A"
_symmetry_group_IT_number 67
_symmetry_cell_setting 'orthorhombic'
loop_
_space_group_symop_operation_xyz
x,y,z
-x,1/2-y,z
x,-y,-z
-x,1/2+y,-z
-x,-y,-z
x,1/2+y,-z
-x,y,z
x,1/2-y,z
1/2+x,1/2+y,z
1/2-x,-y,z
1/2+x,1/2-y,-z
1/2-x,y,-z
1/2-x,1/2-y,-z
1/2+x,y,-z
1/2-x,1/2+y,z
1/2+x,-y,z
loop_
_atom_site_type_symbol
_atom_site_label
_atom_site_fract_x
_atom_site_fract_y
_atom_site_fract_z
Si Si1 0.180736 0.097510 0.366641
Si Si2 0.166200 0.353663 0.049232
Si Si3 0.180201 0.250000 0.444483
Si Si4 0.680729 0.098330 0.262907
Si Si5 0.320813 0.596689 0.847915
O O1 0.221543 0.163550 0.411964
O O2 0.245383 0.135953 0.313655
O O3 0.000000 0.090772 0.363150
O O4 0.250000 0.000000 0.373757
O O5 0.149642 0.250000 0.039676
O O6 0.256088 0.361147 0.101462
O O7 0.000000 0.392966 0.055111
O O8 0.250000 0.391397 0.000000
O O9 0.250000 0.250000 0.500000
O O10 0.000000 0.250000 0.448822
O O11 0.500000 0.094692 0.268458
O O12 0.715008 0.138342 0.207384
O O13 0.750000 0.000000 0.261089
O O14 0.500000 0.591996 0.851234
O O15 0.250000 0.500000 0.847247
#
# Coordination Sequence:
#
# PCOD9502646 Si02
#       5
#    16  16   8  16  16
#     4  10  20  37  60  86 117 154 195 237 288 343
#     4  10  21  37  55  74 100 137 179 223 275 331
#     4  10  24  42  60  86 120 156 195 242 287 336
#     4   9  17  31  53  81 110 144 180 221 273 328
#     4  10  20  34  54  80 110 139 176 224 273 328
#
# _framework density 20.169756
#
# number of rings (size 3 to 8) (size 9 to 14) (size 15 to 20)
#    0.000    2.222    0.000    4.000    0.000    6.667 
#    2.000    4.444    0.000    0.000    0.000    0.000 
#    0.000    0.000    0.000    0.000    0.000    0.000 
#
# Total GULP energy -200794.173565 kJ/mol
# GULP energy per Si atom -5577.615932 kJ/mol
# Density = 2.012385 g / cm^3
# Si number density = 20.169756 Si / 1000 Ang^3
#
#
#
# Elastic Constant Matrix: (Units=GPa)
#
#
# Indices 1 2 3 4 5 6 
#
# 1 106.8149 27.3686 85.8420 0.0000 0.0000 0.0000
# 2 27.3686 61.4155 50.1642 0.0000 0.0000 0.0000
# 3 85.8420 50.1642 223.1595 0.0000 0.0000 0.0000
# 4 0.0000 0.0000 0.0000 53.2222 0.0000 0.0000
# 5 0.0000 0.0000 0.0000 0.0000 -33.6428 0.0000
# 6 0.0000 0.0000 0.0000 0.0000 0.0000 17.8001
#
#
#
# Elastic Compliance Matrix: (Units=1/GPa)
#
#
# Indices 1 2 3 4 5 6 
#
# 1 0.013794 -0.002221 -0.004807 0.000000 0.000000 0.000000
# 2 -0.002221 0.020302 -0.003709 0.000000 0.000000 0.000000
# 3 -0.004807 -0.003709 0.007164 0.000000 0.000000 0.000000
# 4 0.000000 0.000000 0.000000 0.018789 0.000000 0.000000
# 5 0.000000 0.000000 0.000000 0.000000 -0.029724 0.000000
# 6 0.000000 0.000000 0.000000 0.000000 0.000000 0.056179
#
#
# Mechanical properties :
#
#
# Convention : Reuss Voigt Hill
#
# Bulk Modulus (GPa) = 50.54110 79.79326 65.16718
# Shear Modulus (GPa) = 43.63985 22.67691 33.15838
#
# Velocity S-wave (km/s) = 4.65653 3.35670 4.05898
# Velocity P-wave (km/s) = 7.35005 7.39391 7.37202
#
# Compressibility (1/GPa) = 0.01978588
#
# Stress axis : x y z
#
# Youngs Moduli (GPa) = 72.49481 49.25610 139.58664
#
# Poissons Ratio (x) = 0.10939 0.67098
# Poissons Ratio (y) = 0.16099 0.51779
# Poissons Ratio (z) = 0.34848 0.18271
#
# Static dielectric constant tensor:
#      x y z
#    x 1.700820 0.000000 0.000000 
#    y 0.000000 1.726360 0.000000 
#    z 0.000000 0.000000 1.742960 
# 
# From -- ./inp_files/40525.got.cif
#   From: 2010.05.17/outbox.cif.g08.bks.cpg/sg67_21_cif.got.tgz:40525.got - 2010.06.03 18:28:57.
