data_PCOD9502102
_publ_section_title
;
Structure prediction by ZEFSAII (Michael W. Deem and Ramdas Pophale) SiO2 
 PCOD9502102
Probable space group: C M M A
;
_chemical_formula_sum "Si O2"
_cell_formula_units_Z 116
_cell_length_a 7.876529
_cell_length_b 29.062213
_cell_length_c 24.242562
_cell_angle_alpha 90.000000
_cell_angle_beta 90.000000
_cell_angle_gamma 90.000000
_cell_volume 5549.349437
_symmetry_space_group_name_H-M "C M M A"
_symmetry_group_IT_number 67
_symmetry_cell_setting 'orthorhombic'
loop_
_space_group_symop_operation_xyz
x,y,z
-x,1/2-y,z
x,-y,-z
-x,1/2+y,-z
-x,-y,-z
x,1/2+y,-z
-x,y,z
x,1/2-y,z
1/2+x,1/2+y,z
1/2-x,-y,z
1/2+x,1/2-y,-z
1/2-x,y,-z
1/2-x,1/2-y,-z
1/2+x,y,-z
1/2-x,1/2+y,z
1/2+x,-y,z
loop_
_atom_site_type_symbol
_atom_site_label
_atom_site_fract_x
_atom_site_fract_y
_atom_site_fract_z
Si Si1 0.203435 0.053208 0.359706
Si Si2 0.201677 0.365664 0.436756
Si Si3 0.305840 0.549864 0.822061
Si Si4 0.702084 0.685140 0.063336
Si Si5 0.296685 0.801798 0.663323
Si Si6 0.302338 0.381853 0.261151
Si Si7 0.500000 0.250000 0.102980
Si Si8 0.196997 0.924987 0.938637
O O1 0.255923 0.084772 0.411917
O O2 0.288186 0.078323 0.307483
O O3 0.000000 0.056672 0.352852
O O4 0.250000 0.000000 0.364833
O O5 0.250000 0.359550 0.500000
O O6 0.268549 0.326694 0.395224
O O7 0.000000 0.363931 0.432948
O O8 0.500000 0.552977 0.806374
O O9 0.250000 0.500000 0.802086
O O10 0.222222 0.594207 0.792719
O O11 0.290696 0.552447 0.887585
O O12 0.500000 0.695590 0.072835
O O13 0.846035 0.710336 0.099188
O O14 0.721622 0.630072 0.066361
O O15 0.750000 0.698015 0.000000
O O16 0.500000 0.799206 0.670606
O O17 0.228393 0.750000 0.665176
O O18 0.226236 0.836309 0.710404
O O19 0.500000 0.370088 0.250716
O O20 0.000000 0.935470 0.931457
O O21 0.250000 0.938942 0.000000
#
# Coordination Sequence:
#
# PCOD9502102 Si02
#       8
#    16  16  16  16  16  16   4  16
#     4  10  20  33  52  78 109 146 187 235 288 347
#     4  10  21  35  51  76 111 150 196 241 286 335
#     4  11  23  38  61  87 117 147 187 230 284 346
#     4  10  20  31  49  79 110 147 188 234 280 330
#     4   9  18  35  60  85 112 149 191 233 285 336
#     4   9  19  36  58  86 114 145 182 234 283 337
#     4  12  20  28  54  78 112 144 198 232 282 322
#     4  10  22  40  60  83 117 154 190 233 287 345
#
# _framework density 20.90335
#
# number of rings (size 3 to 8) (size 9 to 14) (size 15 to 20)
#    0.000    2.069    0.690    2.483    1.931    4.966 
#    0.000    2.759    1.517    0.000    0.000    0.000 
#    0.000    0.000    0.000    0.000    0.000    0.000 
#
# Total GULP energy -323041.125690 kJ/mol
# GULP energy per Si atom -5569.674581 kJ/mol
# Density = 2.085577 g / cm^3
# Si number density = 20.903350 Si / 1000 Ang^3
#
#
#
# Elastic Constant Matrix: (Units=GPa)
#
#
# Indices 1 2 3 4 5 6 
#
# 1 70.3933 5.2226 -9.8788 0.0000 0.0000 0.0000
# 2 5.2226 133.8403 35.4308 0.0000 0.0000 0.0000
# 3 -9.8788 35.4308 77.8409 0.0000 0.0000 0.0000
# 4 0.0000 0.0000 0.0000 22.8165 0.0000 0.0000
# 5 0.0000 0.0000 0.0000 0.0000 -3.4449 0.0000
# 6 0.0000 0.0000 0.0000 0.0000 0.0000 -92.7233
#
#
#
# Elastic Compliance Matrix: (Units=1/GPa)
#
#
# Indices 1 2 3 4 5 6 
#
# 1 0.014633 -0.001208 0.002407 0.000000 0.000000 0.000000
# 2 -0.001208 0.008595 -0.004066 0.000000 0.000000 0.000000
# 3 0.002407 -0.004066 0.015003 0.000000 0.000000 0.000000
# 4 0.000000 0.000000 0.000000 0.043828 0.000000 0.000000
# 5 0.000000 0.000000 0.000000 0.000000 -0.290285 0.000000
# 6 0.000000 0.000000 0.000000 0.000000 0.000000 -0.010785
#
#
# Mechanical properties :
#
#
# Convention : Reuss Voigt Hill
#
# Bulk Modulus (GPa) = 30.77142 38.18041 34.47592
# Shear Modulus (GPa) = -24.69812 2.08299 -11.30756
#
# Velocity S-wave (km/s) = -3.44108 0.99933 -2.32835
# Velocity P-wave (km/s) = 1.01749 4.43130 3.04968
#
# Compressibility (1/GPa) = 0.03249768
#
# Stress axis : x y z
#
# Youngs Moduli (GPa) = 68.33709 116.34708 66.65473
#
# Poissons Ratio (x) = 0.14057 -0.16044
# Poissons Ratio (y) = 0.08257 0.27098
# Poissons Ratio (z) = -0.16449 0.47301
#
# Static dielectric constant tensor:
#      x y z
#    x 1.746890 0.000000 0.000000 
#    y 0.000000 1.796330 0.000000 
#    z 0.000000 0.000000 1.685500 
# 
# From -- ./inp_files/41231.got.cif
#   From: 2010.05.17/outbox.cif.g08.bks.cpg/sg67_21_cif.got.tgz:41231.got - 2010.06.03 18:28:57.
