data_PCOD9502248
_publ_section_title
;
Structure prediction by ZEFSAII (Michael W. Deem and Ramdas Pophale) SiO2 
 PCOD9502248
Probable space group: C M M A
;
_chemical_formula_sum "Si O2"
_cell_formula_units_Z 128
_cell_length_a 7.461470
_cell_length_b 29.966731
_cell_length_c 32.872969
_cell_angle_alpha 90.000000
_cell_angle_beta 90.000000
_cell_angle_gamma 90.000000
_cell_volume 7350.259917
_symmetry_space_group_name_H-M "C M M A"
_symmetry_group_IT_number 67
_symmetry_cell_setting 'orthorhombic'
loop_
_space_group_symop_operation_xyz
x,y,z
-x,1/2-y,z
x,-y,-z
-x,1/2+y,-z
-x,-y,-z
x,1/2+y,-z
-x,y,z
x,1/2-y,z
1/2+x,1/2+y,z
1/2-x,-y,z
1/2+x,1/2-y,-z
1/2-x,y,-z
1/2-x,1/2-y,-z
1/2+x,y,-z
1/2-x,1/2+y,z
1/2+x,-y,z
loop_
_atom_site_type_symbol
_atom_site_label
_atom_site_fract_x
_atom_site_fract_y
_atom_site_fract_z
Si Si1 0.719583 0.301800 0.279695
Si Si2 0.714854 0.698858 0.543961
Si Si3 0.214310 0.049392 0.925376
Si Si4 0.285935 0.549601 0.831925
Si Si5 0.710075 0.695742 0.630982
Si Si6 0.719040 0.301198 0.122920
Si Si7 0.285881 0.143347 0.045164
Si Si8 0.218930 0.642305 0.202023
O O1 0.500000 0.301885 0.280429
O O2 0.771091 0.250000 0.272684
O O3 0.783413 0.316400 0.324671
O O4 0.778141 0.333731 0.243297
O O5 0.500000 0.701265 0.547710
O O6 0.784489 0.750000 0.541460
O O7 0.750000 0.677323 0.500000
O O8 0.782510 0.679877 0.587164
O O9 0.282727 0.051557 0.878622
O O10 0.282546 0.092531 0.949351
O O11 0.000000 0.053092 0.923479
O O12 0.250000 0.000000 0.942064
O O13 0.500000 0.554412 0.834683
O O14 0.250000 0.500000 0.815863
O O15 0.221116 0.591540 0.805826
O O16 0.500000 0.683466 0.631981
O O17 0.718995 0.750000 0.629665
O O18 0.500000 0.301167 0.122677
O O19 0.776962 0.250000 0.124534
O O20 0.780371 0.326084 0.082043
O O21 0.772648 0.328698 0.162786
O O22 0.500000 0.141914 0.049611
O O23 0.250000 0.160247 0.000000
O O24 0.000000 0.642426 0.203014
#
# Coordination Sequence:
#
# PCOD9502248 Si02
#       8
#    16  16  16  16  16  16  16  16
#     4   8  12  17  28  50  77 100 121 149 189 229
#     4   8  12  17  25  37  55  82 116 152 185 213
#     4   9  17  30  46  62  82 103 123 148 180 216
#     4   9  16  27  43  62  82 101 121 147 179 214
#     4   7  10  16  24  37  62  91 115 145 186 223
#     4   9  16  27  43  60  78 101 126 152 184 217
#     4  10  20  33  46  62  83 104 125 151 182 217
#     4   9  14  22  38  59  80  99 122 153 184 216
#
# _framework density 17.414349000000001
#
# number of rings (size 3 to 8) (size 9 to 14) (size 15 to 20)
#    0.000    3.375    1.250    1.875    0.000    2.500 
#    0.000    1.250    0.000    0.000    0.000    0.875 
#    0.000    2.500    0.000    0.250    0.000    0.625 
#
# Total GULP energy -356426.674602 kJ/mol
# GULP energy per Si atom -5569.166791 kJ/mol
# Density = 1.737471 g / cm^3
# Si number density = 17.414349 Si / 1000 Ang^3
#
#
#
# Elastic Constant Matrix: (Units=GPa)
#
#
# Indices 1 2 3 4 5 6 
#
# 1 50.0066 1.9926 2.9460 0.0000 0.0000 0.0000
# 2 1.9926 92.6016 65.5416 0.0000 0.0000 0.0000
# 3 2.9460 65.5416 168.4383 0.0000 0.0000 0.0000
# 4 0.0000 0.0000 0.0000 2.1773 0.0000 0.0000
# 5 0.0000 0.0000 0.0000 0.0000 -1.3472 0.0000
# 6 0.0000 0.0000 0.0000 0.0000 0.0000 3.3068
#
#
#
# Elastic Compliance Matrix: (Units=1/GPa)
#
#
# Indices 1 2 3 4 5 6 
#
# 1 0.020022 -0.000253 -0.000252 0.000000 0.000000 0.000000
# 2 -0.000253 0.014907 -0.005796 0.000000 0.000000 0.000000
# 3 -0.000252 -0.005796 0.008197 0.000000 0.000000 0.000000
# 4 0.000000 0.000000 0.000000 0.459281 0.000000 0.000000
# 5 0.000000 0.000000 0.000000 0.000000 -0.742260 0.000000
# 6 0.000000 0.000000 0.000000 0.000000 0.000000 0.302406
#
#
# Mechanical properties :
#
#
# Convention : Reuss Voigt Hill
#
# Bulk Modulus (GPa) = 32.76039 50.22299 41.49169
# Shear Modulus (GPa) = 58.59746 16.86512 37.73129
#
# Velocity S-wave (km/s) = 5.80706 3.11539 4.65981
# Velocity P-wave (km/s) = 7.98848 6.46865 7.26840
#
# Compressibility (1/GPa) = 0.03052467
#
# Stress axis : x y z
#
# Youngs Moduli (GPa) = 49.94435 67.08414 122.00204
#
# Poissons Ratio (x) = 0.01694 0.03074
# Poissons Ratio (y) = 0.01261 0.70712
# Poissons Ratio (z) = 0.01258 0.38882
#
# Static dielectric constant tensor:
#      x y z
#    x 1.665490 0.000000 0.000000 
#    y 0.000000 1.572590 0.000000 
#    z 0.000000 0.000000 1.635970 
# 
# From -- ./inp_files/44195.got.cif
#   From: 2010.05.17/outbox.cif.g08.bks.cpg/sg67_23_cif.got.tgz:44195.got - 2010.06.03 18:28:57.
