data_PCOD9502832
_publ_section_title
;
Structure prediction by ZEFSAII (Michael W. Deem and Ramdas Pophale) SiO2 
 PCOD9502832
Probable space group: C M M A
;
_chemical_formula_sum "Si O2"
_cell_formula_units_Z 96
_cell_length_a 8.837062
_cell_length_b 19.142329
_cell_length_c 31.794986
_cell_angle_alpha 90.000000
_cell_angle_beta 90.000000
_cell_angle_gamma 90.000000
_cell_volume 5378.501775
_symmetry_space_group_name_H-M "C M M A"
_symmetry_group_IT_number 67
_symmetry_cell_setting 'orthorhombic'
loop_
_space_group_symop_operation_xyz
x,y,z
-x,1/2-y,z
x,-y,-z
-x,1/2+y,-z
-x,-y,-z
x,1/2+y,-z
-x,y,z
x,1/2-y,z
1/2+x,1/2+y,z
1/2-x,-y,z
1/2+x,1/2-y,-z
1/2-x,y,-z
1/2-x,1/2-y,-z
1/2+x,y,-z
1/2-x,1/2+y,z
1/2+x,-y,z
loop_
_atom_site_type_symbol
_atom_site_label
_atom_site_fract_x
_atom_site_fract_y
_atom_site_fract_z
Si Si1 0.818579 0.668050 0.873970
Si Si2 0.681835 0.669161 0.369323
Si Si3 0.818786 0.923966 0.954973
Si Si4 0.182509 0.577010 0.710971
Si Si5 0.819150 0.922698 0.200117
Si Si6 0.175899 0.334901 0.543395
O O1 0.782095 0.750000 0.875117
O O2 0.783274 0.630378 0.918113
O O3 0.732608 0.628219 0.836899
O O4 0.000000 0.660963 0.867165
O O5 0.500000 0.668235 0.372479
O O6 0.729856 0.750000 0.364241
O O7 0.724880 0.625128 0.328455
O O8 0.747612 0.641422 0.413283
O O9 0.000000 0.930205 0.958685
O O10 0.750000 0.000000 0.944462
O O11 0.750000 0.903161 0.000000
O O12 0.250000 0.500000 0.704266
O O13 0.251239 0.602142 0.755228
O O14 0.000000 0.573966 0.714209
O O15 0.000000 0.927886 0.202584
O O16 0.750000 0.000000 0.192547
O O17 0.190403 0.250000 0.543284
O O18 0.250000 0.360077 0.500000
O O19 0.000000 0.352293 0.543663
#
# Coordination Sequence:
#
# PCOD9502832 Si02
#       6
#    16  16  16  16  16  16
#     4  10  22  39  57  80 112 146 178 217 269 321
#     4   9  18  32  50  73 100 131 168 208 253 305
#     4  10  20  35  57  82 108 142 182 223 264 310
#     4  10  20  35  55  77 103 137 173 212 260 312
#     4  11  22  37  58  81 105 137 179 222 263 312
#     4   9  16  26  43  68  98 131 166 206 251 299
#
# _framework density 17.848837
#
# number of rings (size 3 to 8) (size 9 to 14) (size 15 to 20)
#    0.000    2.167    0.000    5.000    0.000    7.333 
#    0.000    1.667    0.000    0.500    0.000    3.500 
#    0.000    0.000    0.000    0.000    0.000    0.000 
#
# Total GULP energy -267909.055694 kJ/mol
# GULP energy per Si atom -5581.438660 kJ/mol
# Density = 1.780821 g / cm^3
# Si number density = 17.848837 Si / 1000 Ang^3
#
#
#
# Elastic Constant Matrix: (Units=GPa)
#
#
# Indices 1 2 3 4 5 6 
#
# 1 77.9255 47.3072 82.4467 0.0000 0.0000 0.0000
# 2 47.3072 66.0288 94.5066 0.0000 0.0000 0.0000
# 3 82.4467 94.5066 189.5526 0.0000 0.0000 0.0000
# 4 0.0000 0.0000 0.0000 32.4391 0.0000 0.0000
# 5 0.0000 0.0000 0.0000 0.0000 34.7139 0.0000
# 6 0.0000 0.0000 0.0000 0.0000 0.0000 17.5098
#
#
#
# Elastic Compliance Matrix: (Units=1/GPa)
#
#
# Indices 1 2 3 4 5 6 
#
# 1 0.024980 -0.008192 -0.006781 0.000000 0.000000 0.000000
# 2 -0.008192 0.055568 -0.024142 0.000000 0.000000 0.000000
# 3 -0.006781 -0.024142 0.020262 0.000000 0.000000 0.000000
# 4 0.000000 0.000000 0.000000 0.030827 0.000000 0.000000
# 5 0.000000 0.000000 0.000000 0.000000 0.028807 0.000000
# 6 0.000000 0.000000 0.000000 0.000000 0.000000 0.057111
#
#
# Mechanical properties :
#
#
# Convention : Reuss Voigt Hill
#
# Bulk Modulus (GPa) = 44.28584 86.89198 65.58891
# Shear Modulus (GPa) = 16.48468 24.21566 20.35017
#
# Velocity S-wave (km/s) = 3.04233 3.68735 3.38026
# Velocity P-wave (km/s) = 6.09971 8.18025 7.21537
#
# Compressibility (1/GPa) = 0.02258058
#
# Stress axis : x y z
#
# Youngs Moduli (GPa) = 40.03145 17.99584 49.35423
#
# Poissons Ratio (x) = 0.14742 0.33467
# Poissons Ratio (y) = 0.32793 1.19151
# Poissons Ratio (z) = 0.27145 0.43446
#
# Static dielectric constant tensor:
#      x y z
#    x 1.600660 0.000000 0.000000 
#    y 0.000000 1.592090 0.000000 
#    z 0.000000 0.000000 1.604820 
# 
# From -- ./inp_files/43458.got.cif
#   From: 2010.05.17/outbox.cif.g08.bks.cpg/sg67_22_cif.got.tgz:43458.got - 2010.06.03 18:28:57.
