data_PCOD9502932
_publ_section_title
;
Structure prediction by ZEFSAII (Michael W. Deem and Ramdas Pophale) SiO2 
 PCOD9502932
Probable space group: C M M A
;
_chemical_formula_sum "Si O2"
_cell_formula_units_Z 80
_cell_length_a 24.908239
_cell_length_b 14.114021
_cell_length_c 12.582925
_cell_angle_alpha 90.000000
_cell_angle_beta 90.000000
_cell_angle_gamma 90.000000
_cell_volume 4423.595336
_symmetry_space_group_name_H-M "C M M A"
_symmetry_group_IT_number 67
_symmetry_cell_setting 'orthorhombic'
loop_
_space_group_symop_operation_xyz
x,y,z
-x,1/2-y,z
x,-y,-z
-x,1/2+y,-z
-x,-y,-z
x,1/2+y,-z
-x,y,z
x,1/2-y,z
1/2+x,1/2+y,z
1/2-x,-y,z
1/2+x,1/2-y,-z
1/2-x,y,-z
1/2-x,1/2-y,-z
1/2+x,y,-z
1/2-x,1/2+y,z
1/2+x,-y,z
loop_
_atom_site_type_symbol
_atom_site_label
_atom_site_fract_x
_atom_site_fract_y
_atom_site_fract_z
Si Si1 0.215748 0.641217 0.104815
Si Si2 0.754185 0.858368 0.661713
Si Si3 0.155539 0.989244 0.384203
Si Si4 0.886921 0.980311 0.154643
Si Si5 0.937487 0.860716 0.982498
O O1 0.193876 0.750000 0.102476
O O2 0.251562 0.635382 0.210376
O O3 0.169924 0.563324 0.117961
O O4 0.250000 0.626718 0.000000
O O5 0.760012 0.750000 0.629818
O O6 0.697310 0.900931 0.622366
O O7 0.803453 0.922647 0.626583
O O8 0.116935 0.985168 0.281945
O O9 0.129556 0.000000 0.500000
O O10 0.928079 0.907581 0.098248
O O11 0.901040 0.080140 0.099884
O O12 0.924528 0.750000 0.982735
O O13 0.000000 0.872445 0.953471
#
# Coordination Sequence:
#
# PCOD9502932 Si02
#       5
#    16  16  16  16  16
#     4   9  18  30  48  77 115 151 178 211 258 309
#     4   9  18  32  48  68 102 151 193 220 249 290
#     4  10  21  34  48  74 107 142 186 225 251 293
#     4  10  20  35  57  80 107 140 177 215 265 317
#     4  10  22  40  61  83 105 129 165 219 281 341
#
# _framework density 18.084835999999999
#
# number of rings (size 3 to 8) (size 9 to 14) (size 15 to 20)
#    0.000    2.400    0.000    3.000    5.600    3.200 
#    0.000    0.000    0.000    3.000    0.000    2.800 
#    0.000    0.000    0.000    0.000    0.000    0.000 
#
# Total GULP energy -223218.756119 kJ/mol
# GULP energy per Si atom -5580.468903 kJ/mol
# Density = 1.804367 g / cm^3
# Si number density = 18.084836 Si / 1000 Ang^3
#
#
#
# Elastic Constant Matrix: (Units=GPa)
#
#
# Indices 1 2 3 4 5 6 
#
# 1 34.7454 23.0141 35.5482 0.0000 0.0000 0.0000
# 2 23.0141 125.1671 33.3007 0.0000 0.0000 0.0000
# 3 35.5482 33.3007 157.7443 0.0000 0.0000 0.0000
# 4 0.0000 0.0000 0.0000 -6.5310 0.0000 0.0000
# 5 0.0000 0.0000 0.0000 0.0000 14.5366 0.0000
# 6 0.0000 0.0000 0.0000 0.0000 0.0000 18.5255
#
#
#
# Elastic Compliance Matrix: (Units=1/GPa)
#
#
# Indices 1 2 3 4 5 6 
#
# 1 0.040489 -0.005316 -0.008002 0.000000 0.000000 0.000000
# 2 -0.005316 0.009163 -0.000736 0.000000 0.000000 0.000000
# 3 -0.008002 -0.000736 0.008298 0.000000 0.000000 0.000000
# 4 0.000000 0.000000 0.000000 -0.153115 0.000000 0.000000
# 5 0.000000 0.000000 0.000000 0.000000 0.068792 0.000000
# 6 0.000000 0.000000 0.000000 0.000000 0.000000 0.053980
#
#
# Mechanical properties :
#
#
# Convention : Reuss Voigt Hill
#
# Bulk Modulus (GPa) = 33.51071 55.70919 44.60995
# Shear Modulus (GPa) = 76.14944 20.35915 48.25429
#
# Velocity S-wave (km/s) = 6.49601 3.35887 5.17108
# Velocity P-wave (km/s) = 8.65068 6.77598 7.77008
#
# Compressibility (1/GPa) = 0.02984120
#
# Stress axis : x y z
#
# Youngs Moduli (GPa) = 24.69834 109.13938 120.50917
#
# Poissons Ratio (x) = 0.58014 0.96432
# Poissons Ratio (y) = 0.13129 0.08874
# Poissons Ratio (z) = 0.19764 0.08037
#
# Static dielectric constant tensor:
#      x y z
#    x 1.614330 0.000000 0.000000 
#    y 0.000000 1.653040 0.000000 
#    z 0.000000 0.000000 1.656440 
# 
# From -- ./inp_files/18233.got.cif
#   From: 2010.05.17/outbox.cif.g08.bks.cpg/sg67_10_cif.got.tgz:18233.got - 2010.06.03 18:28:57.
