data_PCOD9502475
_publ_section_title
;
Structure prediction by ZEFSAII (Michael W. Deem and Ramdas Pophale) SiO2 
 PCOD9502475
Probable space group: C M M A
;
_chemical_formula_sum "Si O2"
_cell_formula_units_Z 72
_cell_length_a 8.840642
_cell_length_b 16.153210
_cell_length_c 25.929227
_cell_angle_alpha 90.000000
_cell_angle_beta 90.000000
_cell_angle_gamma 90.000000
_cell_volume 3702.816695
_symmetry_space_group_name_H-M "C M M A"
_symmetry_group_IT_number 67
_symmetry_cell_setting 'orthorhombic'
loop_
_space_group_symop_operation_xyz
x,y,z
-x,1/2-y,z
x,-y,-z
-x,1/2+y,-z
-x,-y,-z
x,1/2+y,-z
-x,y,z
x,1/2-y,z
1/2+x,1/2+y,z
1/2-x,-y,z
1/2+x,1/2-y,-z
1/2-x,y,-z
1/2-x,1/2-y,-z
1/2+x,y,-z
1/2-x,1/2+y,z
1/2+x,-y,z
loop_
_atom_site_type_symbol
_atom_site_label
_atom_site_fract_x
_atom_site_fract_y
_atom_site_fract_z
Si Si1 0.317224 0.592248 0.551940
Si Si2 0.827606 0.849250 0.336104
Si Si3 0.181379 0.152987 0.230825
Si Si4 0.182790 0.413159 0.121252
Si Si5 0.682707 0.250000 0.943103
O O1 0.500000 0.592116 0.548588
O O2 0.250000 0.500000 0.552840
O O3 0.250000 0.632779 0.500000
O O4 0.269992 0.629861 0.606857
O O5 0.828776 0.750000 0.332819
O O6 0.739852 0.879391 0.285707
O O7 0.000000 0.879963 0.333050
O O8 0.226414 0.250000 0.224890
O O9 0.233207 0.104123 0.180270
O O10 0.000000 0.151451 0.231499
O O11 0.250000 0.500000 0.102872
O O12 0.227694 0.333183 0.087647
O O13 0.000000 0.417550 0.120647
O O14 0.500000 0.250000 0.945451
O O15 0.750000 0.250000 0.000000
#
# Coordination Sequence:
#
# PCOD9502475 Si02
#       5
#    16  16  16  16   8
#     4  10  20  34  51  69  95 131 171 216 267 321
#     4   9  19  34  51  75 105 135 170 218 271 321
#     4   9  17  33  56  78 105 144 183 221 272 331
#     4  10  21  38  60  87 119 154 194 239 286 337
#     4  10  22  42  64  86 120 160 195 238 287 334
#
# _framework density 19.444655999999998
#
# number of rings (size 3 to 8) (size 9 to 14) (size 15 to 20)
#    0.000    2.444    1.111    1.333    0.000    5.333 
#    0.000    6.667    0.000    0.000    0.000    0.000 
#    0.000    0.000    0.000    0.000    0.000    0.000 
#
# Total GULP energy -200732.203483 kJ/mol
# GULP energy per Si atom -5575.894541 kJ/mol
# Density = 1.940040 g / cm^3
# Si number density = 19.444656 Si / 1000 Ang^3
#
#
#
# Elastic Constant Matrix: (Units=GPa)
#
#
# Indices 1 2 3 4 5 6 
#
# 1 21.3068 25.3401 37.8615 0.0000 0.0000 0.0000
# 2 25.3401 89.7380 65.2648 0.0000 0.0000 0.0000
# 3 37.8615 65.2648 174.1757 0.0000 0.0000 0.0000
# 4 0.0000 0.0000 0.0000 -14.8309 0.0000 0.0000
# 5 0.0000 0.0000 0.0000 0.0000 36.2650 0.0000
# 6 0.0000 0.0000 0.0000 0.0000 0.0000 20.7838
#
#
#
# Elastic Compliance Matrix: (Units=1/GPa)
#
#
# Indices 1 2 3 4 5 6 
#
# 1 0.089516 -0.015293 -0.013728 0.000000 0.000000 0.000000
# 2 -0.015293 0.017931 -0.003394 0.000000 0.000000 0.000000
# 3 -0.013728 -0.003394 0.009997 0.000000 0.000000 0.000000
# 4 0.000000 0.000000 0.000000 -0.067427 0.000000 0.000000
# 5 0.000000 0.000000 0.000000 0.000000 0.027575 0.000000
# 6 0.000000 0.000000 0.000000 0.000000 0.000000 0.048114
#
#
# Mechanical properties :
#
#
# Convention : Reuss Voigt Hill
#
# Bulk Modulus (GPa) = 19.00679 60.23924 39.62301
# Shear Modulus (GPa) = 24.02969 18.89385 21.46177
#
# Velocity S-wave (km/s) = 3.51921 3.12055 3.32586
# Velocity P-wave (km/s) = 5.12924 6.63558 5.93043
#
# Compressibility (1/GPa) = 0.05261279
#
# Stress axis : x y z
#
# Youngs Moduli (GPa) = 11.17116 55.77018 100.02616
#
# Poissons Ratio (x) = 0.85291 1.37317
# Poissons Ratio (y) = 0.17084 0.33953
# Poissons Ratio (z) = 0.15336 0.18931
#
# Static dielectric constant tensor:
#      x y z
#    x 1.669930 0.000000 0.000000 
#    y 0.000000 1.689510 0.000000 
#    z 0.000000 0.000000 1.708190 
# 
# From -- ./inp_files/42108.got.cif
#   From: 2010.05.17/outbox.cif.g08.bks.cpg/sg67_22_cif.got.tgz:42108.got - 2010.06.03 18:28:57.
