data_PCOD9502833
_publ_section_title
;
Structure prediction by ZEFSAII (Michael W. Deem and Ramdas Pophale) SiO2 
 PCOD9502833
Probable space group: C M M A
;
_chemical_formula_sum "Si O2"
_cell_formula_units_Z 96
_cell_length_a 15.360984
_cell_length_b 14.876463
_cell_length_c 21.492738
_cell_angle_alpha 90.000000
_cell_angle_beta 90.000000
_cell_angle_gamma 90.000000
_cell_volume 4911.458376
_symmetry_space_group_name_H-M "C M M A"
_symmetry_group_IT_number 67
_symmetry_cell_setting 'orthorhombic'
loop_
_space_group_symop_operation_xyz
x,y,z
-x,1/2-y,z
x,-y,-z
-x,1/2+y,-z
-x,-y,-z
x,1/2+y,-z
-x,y,z
x,1/2-y,z
1/2+x,1/2+y,z
1/2-x,-y,z
1/2+x,1/2-y,-z
1/2-x,y,-z
1/2-x,1/2-y,-z
1/2+x,y,-z
1/2-x,1/2+y,z
1/2+x,-y,z
loop_
_atom_site_type_symbol
_atom_site_label
_atom_site_fract_x
_atom_site_fract_y
_atom_site_fract_z
Si Si1 0.712989 0.649547 0.262152
Si Si2 0.398435 0.390612 0.493720
Si Si3 0.288401 0.852928 0.065361
Si Si4 0.255579 0.891960 0.405341
Si Si5 0.403836 0.050308 0.836239
Si Si6 0.362980 0.151836 0.167993
O O1 0.677571 0.750000 0.250351
O O2 0.723640 0.633807 0.334989
O O3 0.654447 0.580828 0.222664
O O4 0.808226 0.646893 0.231632
O O5 0.401549 0.500000 0.500000
O O6 0.500000 0.360936 0.493000
O O7 0.336409 0.361702 0.551248
O O8 0.338115 0.363726 0.434397
O O9 0.320921 0.750000 0.056295
O O10 0.358546 0.913409 0.100917
O O11 0.208696 0.848456 0.113415
O O12 0.250000 0.885717 0.000000
O O13 0.250000 0.000000 0.408458
O O14 0.500000 0.089140 0.830066
O O15 0.409319 0.942805 0.838142
O O16 0.406214 0.250000 0.165476
#
# Coordination Sequence:
#
# PCOD9502833 Si02
#       6
#    16  16  16  16  16  16
#     4  10  20  35  55  77 106 146 189 229 271 331
#     4   8  15  28  47  73 103 136 180 233 281 329
#     4   9  18  35  59  82 108 148 190 223 260 315
#     4   9  16  29  51  75 101 138 184 231 282 338
#     4  11  22  35  56  85 114 142 177 230 287 334
#     4   9  19  36  56  78 107 145 186 224 267 327
#
# _framework density 19.546129000000001
#
# number of rings (size 3 to 8) (size 9 to 14) (size 15 to 20)
#    0.000    2.667    0.000    5.500    0.000    3.667 
#    0.000    7.500    0.000    5.500    0.000    0.000 
#    0.000    0.000    0.000    0.000    0.000    0.000 
#
# Total GULP energy -267380.470052 kJ/mol
# GULP energy per Si atom -5570.426459 kJ/mol
# Density = 1.950164 g / cm^3
# Si number density = 19.546129 Si / 1000 Ang^3
#
#
#
# Elastic Constant Matrix: (Units=GPa)
#
#
# Indices 1 2 3 4 5 6 
#
# 1 128.6795 36.0671 42.3394 0.0000 0.0000 0.0000
# 2 36.0671 113.4366 21.8780 0.0000 0.0000 0.0000
# 3 42.3394 21.8780 123.5653 0.0000 0.0000 0.0000
# 4 0.0000 0.0000 0.0000 24.5345 0.0000 0.0000
# 5 0.0000 0.0000 0.0000 0.0000 3.5252 0.0000
# 6 0.0000 0.0000 0.0000 0.0000 0.0000 -13.4837
#
#
#
# Elastic Compliance Matrix: (Units=1/GPa)
#
#
# Indices 1 2 3 4 5 6 
#
# 1 0.009370 -0.002443 -0.002778 0.000000 0.000000 0.000000
# 2 -0.002443 0.009764 -0.000892 0.000000 0.000000 0.000000
# 3 -0.002778 -0.000892 0.009203 0.000000 0.000000 0.000000
# 4 0.000000 0.000000 0.000000 0.040759 0.000000 0.000000
# 5 0.000000 0.000000 0.000000 0.000000 0.283669 0.000000
# 6 0.000000 0.000000 0.000000 0.000000 0.000000 -0.074164
#
#
# Mechanical properties :
#
#
# Convention : Reuss Voigt Hill
#
# Bulk Modulus (GPa) = 62.06946 62.91671 62.49308
# Shear Modulus (GPa) = 16.88061 20.60833 18.74447
#
# Velocity S-wave (km/s) = 2.94195 3.25059 3.10011
# Velocity P-wave (km/s) = 6.58516 6.80787 6.69744
#
# Compressibility (1/GPa) = 0.01611098
#
# Stress axis : x y z
#
# Youngs Moduli (GPa) = 106.72162 102.41338 108.66447
#
# Poissons Ratio (x) = 0.25024 0.30187
# Poissons Ratio (y) = 0.26077 0.09688
# Poissons Ratio (z) = 0.29648 0.09131
#
# Static dielectric constant tensor:
#      x y z
#    x 1.653120 0.000000 0.000000 
#    y 0.000000 1.746290 0.000000 
#    z 0.000000 0.000000 1.674650 
# 
# From -- ./inp_files/38489.got.cif
#   From: 2010.05.17/outbox.cif.g08.bks.cpg/sg67_20_cif.got.tgz:38489.got - 2010.06.03 18:28:57.
