data_PCOD9502946
_publ_section_title
;
Structure prediction by ZEFSAII (Michael W. Deem and Ramdas Pophale) SiO2 
 PCOD9502946
Probable space group: C M M A
;
_chemical_formula_sum "Si O2"
_cell_formula_units_Z 80
_cell_length_a 26.154466
_cell_length_b 16.703121
_cell_length_c 8.920723
_cell_angle_alpha 90.000000
_cell_angle_beta 90.000000
_cell_angle_gamma 90.000000
_cell_volume 3897.117846
_symmetry_space_group_name_H-M "C M M A"
_symmetry_group_IT_number 67
_symmetry_cell_setting 'orthorhombic'
loop_
_space_group_symop_operation_xyz
x,y,z
-x,1/2-y,z
x,-y,-z
-x,1/2+y,-z
-x,-y,-z
x,1/2+y,-z
-x,y,z
x,1/2-y,z
1/2+x,1/2+y,z
1/2-x,-y,z
1/2+x,1/2-y,-z
1/2-x,y,-z
1/2-x,1/2-y,-z
1/2+x,y,-z
1/2-x,1/2+y,z
1/2+x,-y,z
loop_
_atom_site_type_symbol
_atom_site_label
_atom_site_fract_x
_atom_site_fract_y
_atom_site_fract_z
Si Si1 0.557912 0.414383 0.918731
Si Si2 0.646066 0.656926 0.276131
Si Si3 0.759301 0.157920 0.680240
Si Si4 0.643179 0.917298 0.588857
Si Si5 0.059208 0.339597 0.766371
O O1 0.500000 0.409884 0.854089
O O2 0.603214 0.395559 0.804520
O O3 0.562771 0.500000 0.000000
O O4 0.561717 0.351726 0.055408
O O5 0.640227 0.750000 0.234836
O O6 0.705403 0.633244 0.246441
O O7 0.639944 0.647398 0.454915
O O8 0.770439 0.250000 0.723685
O O9 0.750000 0.157428 0.500000
O O10 0.808387 0.101796 0.694783
O O11 0.592707 0.906458 0.685757
O O12 0.649084 0.000000 0.500000
O O13 0.077433 0.250000 0.728232
O O14 0.000000 0.347046 0.722720
#
# Coordination Sequence:
#
# PCOD9502946 Si02
#       5
#    16  16  16  16  16
#     4  10  21  38  58  82 115 151 189 238 294 346
#     4  10  20  35  57  83 110 147 197 241 279 339
#     4   8  16  32  52  76 108 142 178 227 284 334
#     4  11  21  34  56  84 115 148 188 238 291 343
#     4  10  21  37  56  79 112 154 192 230 288 352
#
# _framework density 20.527992000000001
#
# number of rings (size 3 to 8) (size 9 to 14) (size 15 to 20)
#    0.000    2.200    0.000    4.800    0.000    6.000 
#    0.000    1.000    0.000    4.800    0.000    0.000 
#    0.000    0.000    0.000    0.000    0.000    0.000 
#
# Total GULP energy -223146.249945 kJ/mol
# GULP energy per Si atom -5578.656249 kJ/mol
# Density = 2.048127 g / cm^3
# Si number density = 20.527992 Si / 1000 Ang^3
#
#
#
# Elastic Constant Matrix: (Units=GPa)
#
#
# Indices 1 2 3 4 5 6 
#
# 1 158.3792 57.2352 51.7527 0.0000 0.0000 0.0000
# 2 57.2352 78.8360 9.1972 0.0000 0.0000 0.0000
# 3 51.7527 9.1972 28.1570 0.0000 0.0000 0.0000
# 4 0.0000 0.0000 0.0000 21.9338 0.0000 0.0000
# 5 0.0000 0.0000 0.0000 0.0000 78.2274 0.0000
# 6 0.0000 0.0000 0.0000 0.0000 0.0000 13.4451
#
#
#
# Elastic Compliance Matrix: (Units=1/GPa)
#
#
# Indices 1 2 3 4 5 6 
#
# 1 0.023919 -0.012721 -0.039808 0.000000 0.000000 0.000000
# 2 -0.012721 0.019953 0.016864 0.000000 0.000000 0.000000
# 3 -0.039808 0.016864 0.103174 0.000000 0.000000 0.000000
# 4 0.000000 0.000000 0.000000 0.045592 0.000000 0.000000
# 5 0.000000 0.000000 0.000000 0.000000 0.012783 0.000000
# 6 0.000000 0.000000 0.000000 0.000000 0.000000 0.074376
#
#
# Mechanical properties :
#
#
# Convention : Reuss Voigt Hill
#
# Bulk Modulus (GPa) = 13.20729 55.74917 34.47823
# Shear Modulus (GPa) = 13.28495 32.53373 22.90934
#
# Velocity S-wave (km/s) = 2.54670 3.98533 3.34429
# Velocity P-wave (km/s) = 3.88527 6.95656 5.63423
#
# Compressibility (1/GPa) = 0.07571574
#
# Stress axis : x y z
#
# Youngs Moduli (GPa) = 41.80778 50.11850 9.69236
#
# Poissons Ratio (x) = 0.63756 0.38583
# Poissons Ratio (y) = 0.53184 -0.16345
# Poissons Ratio (z) = 1.66429 -0.84521
#
# Static dielectric constant tensor:
#      x y z
#    x 1.773140 0.000000 0.000000 
#    y 0.000000 1.782280 0.000000 
#    z 0.000000 0.000000 1.711510 
# 
# From -- ./inp_files/13540.got.cif
#   From: 2010.05.17/outbox.cif.g08.bks.cpg/sg67_7_cif.got.tgz:13540.got - 2010.06.03 18:28:57.
