data_PCOD9502217
_publ_section_title
;
Structure prediction by ZEFSAII (Michael W. Deem and Ramdas Pophale) SiO2 
 PCOD9502217
Probable space group: C M M A
;
_chemical_formula_sum "Si O2"
_cell_formula_units_Z 80
_cell_length_a 8.180595
_cell_length_b 14.797932
_cell_length_c 29.800513
_cell_angle_alpha 90.000000
_cell_angle_beta 90.000000
_cell_angle_gamma 90.000000
_cell_volume 3607.527580
_symmetry_space_group_name_H-M "C M M A"
_symmetry_group_IT_number 67
_symmetry_cell_setting 'orthorhombic'
loop_
_space_group_symop_operation_xyz
x,y,z
-x,1/2-y,z
x,-y,-z
-x,1/2+y,-z
-x,-y,-z
x,1/2+y,-z
-x,y,z
x,1/2-y,z
1/2+x,1/2+y,z
1/2-x,-y,z
1/2+x,1/2-y,-z
1/2-x,y,-z
1/2-x,1/2-y,-z
1/2+x,y,-z
1/2-x,1/2+y,z
1/2+x,-y,z
loop_
_atom_site_type_symbol
_atom_site_label
_atom_site_fract_x
_atom_site_fract_y
_atom_site_fract_z
Si Si1 0.813761 0.644933 0.352307
Si Si2 0.806445 0.396214 0.547320
Si Si3 0.195212 0.895307 0.951710
Si Si4 0.178899 0.354581 0.855280
Si Si5 0.500000 0.860861 0.298938
Si Si6 0.500000 0.860926 0.194445
O O1 0.827857 0.750000 0.339416
O O2 0.758055 0.642425 0.404449
O O3 0.666071 0.605865 0.322954
O O4 0.000000 0.606632 0.348797
O O5 0.750000 0.500000 0.547779
O O6 0.750000 0.355517 0.500000
O O7 0.000000 0.392172 0.546277
O O8 0.281193 0.855001 0.908156
O O9 0.000000 0.887597 0.947425
O O10 0.250000 0.000000 0.951455
O O11 0.250000 0.858072 0.000000
O O12 0.169213 0.250000 0.840796
O O13 0.335616 0.394199 0.829996
O O14 0.000000 0.396221 0.847421
O O15 0.500000 0.750000 0.302404
O O16 0.500000 0.884029 0.246664
O O17 0.500000 0.750000 0.190711
#
# Coordination Sequence:
#
# PCOD9502217 Si02
#       6
#    16  16  16  16   8   8
#     4   9  19  34  51  77 106 133 171 215 261 308
#     4  10  20  32  50  74 102 138 175 210 251 308
#     4  11  21  35  54  79 110 144 185 219 258 320
#     4  10  20  35  55  81 111 141 177 221 268 313
#     4   9  18  32  56  79 102 136 171 216 266 310
#     4   9  18  34  54  81 106 134 175 218 268 316
#
# _framework density 22.175851000000002
#
# number of rings (size 3 to 8) (size 9 to 14) (size 15 to 20)
#    0.000    2.200    1.000    3.600    2.800    1.600 
#    0.000    4.000    0.000    1.200    0.000    0.000 
#    0.000    0.000    0.000    0.000    0.000    0.000 
#
# Total GULP energy -223284.351840 kJ/mol
# GULP energy per Si atom -5582.108796 kJ/mol
# Density = 2.212538 g / cm^3
# Si number density = 22.175851 Si / 1000 Ang^3
#
#
#
# Elastic Constant Matrix: (Units=GPa)
#
#
# Indices 1 2 3 4 5 6 
#
# 1 192.2773 11.3547 109.1109 0.0000 0.0000 0.0000
# 2 11.3547 43.2960 -2.8136 0.0000 0.0000 0.0000
# 3 109.1109 -2.8136 154.5960 0.0000 0.0000 0.0000
# 4 0.0000 0.0000 0.0000 34.5639 0.0000 0.0000
# 5 0.0000 0.0000 0.0000 0.0000 34.5654 0.0000
# 6 0.0000 0.0000 0.0000 0.0000 0.0000 10.6937
#
#
#
# Elastic Compliance Matrix: (Units=1/GPa)
#
#
# Indices 1 2 3 4 5 6 
#
# 1 0.008997 -0.002775 -0.006400 0.000000 0.000000 0.000000
# 2 -0.002775 0.023980 0.002395 0.000000 0.000000 0.000000
# 3 -0.006400 0.002395 0.011029 0.000000 0.000000 0.000000
# 4 0.000000 0.000000 0.000000 0.028932 0.000000 0.000000
# 5 0.000000 0.000000 0.000000 0.000000 0.028931 0.000000
# 6 0.000000 0.000000 0.000000 0.000000 0.000000 0.093513
#
#
# Mechanical properties :
#
#
# Convention : Reuss Voigt Hill
#
# Bulk Modulus (GPa) = 32.84552 69.49706 51.17129
# Shear Modulus (GPa) = 22.82157 34.13240 28.47699
#
# Velocity S-wave (km/s) = 3.21147 3.92748 3.58738
# Velocity P-wave (km/s) = 5.34742 7.20929 6.34700
#
# Compressibility (1/GPa) = 0.03044555
#
# Stress axis : x y z
#
# Youngs Moduli (GPa) = 111.15350 41.70086 90.66881
#
# Poissons Ratio (x) = 0.11573 0.58029
# Poissons Ratio (y) = 0.30849 -0.21717
# Poissons Ratio (z) = 0.71140 -0.09988
#
# Static dielectric constant tensor:
#      x y z
#    x 1.811630 0.000000 0.000000 
#    y 0.000000 1.814750 0.000000 
#    z 0.000000 0.000000 1.797310 
# 
# From -- ./inp_files/43384.got.cif
#   From: 2010.05.17/outbox.cif.g08.bks.cpg/sg67_22_cif.got.tgz:43384.got - 2010.06.03 18:28:57.
