data_PCOD9502696
_publ_section_title
;
Structure prediction by ZEFSAII (Michael W. Deem and Ramdas Pophale) SiO2 
 PCOD9502696
Probable space group: C M M A
;
_chemical_formula_sum "Si O2"
_cell_formula_units_Z 104
_cell_length_a 19.978019
_cell_length_b 24.720609
_cell_length_c 9.640923
_cell_angle_alpha 90.000000
_cell_angle_beta 90.000000
_cell_angle_gamma 90.000000
_cell_volume 4761.351037
_symmetry_space_group_name_H-M "C M M A"
_symmetry_group_IT_number 67
_symmetry_cell_setting 'orthorhombic'
loop_
_space_group_symop_operation_xyz
x,y,z
-x,1/2-y,z
x,-y,-z
-x,1/2+y,-z
-x,-y,-z
x,1/2+y,-z
-x,y,z
x,1/2-y,z
1/2+x,1/2+y,z
1/2-x,-y,z
1/2+x,1/2-y,-z
1/2-x,y,-z
1/2-x,1/2-y,-z
1/2+x,y,-z
1/2-x,1/2+y,z
1/2+x,-y,z
loop_
_atom_site_type_symbol
_atom_site_label
_atom_site_fract_x
_atom_site_fract_y
_atom_site_fract_z
Si Si1 0.206185 0.548020 0.782102
Si Si2 0.750000 0.903242 0.500000
Si Si3 0.677826 0.809499 0.611918
Si Si4 0.216423 0.330783 0.143875
Si Si5 0.923528 0.811235 0.945574
Si Si6 0.080151 0.008622 0.666275
Si Si7 0.578535 0.127923 0.221507
O O1 0.250000 0.500000 0.844506
O O2 0.240615 0.560994 0.633737
O O3 0.212960 0.604322 0.859519
O O4 0.129957 0.530720 0.749855
O O5 0.689600 0.860231 0.511442
O O6 0.677754 0.750000 0.549588
O O7 0.736008 0.813561 0.729356
O O8 0.610962 0.824219 0.691404
O O9 0.250000 0.311681 0.000000
O O10 0.139442 0.312629 0.157164
O O11 0.923405 0.750000 0.006238
O O12 0.907426 0.856402 0.062039
O O13 0.000000 0.820301 0.893994
O O14 0.099297 0.068981 0.721054
O O15 0.000000 0.000605 0.690923
O O16 0.091131 0.000000 0.500000
O O17 0.500000 0.129243 0.237470
#
# Coordination Sequence:
#
# PCOD9502696 Si02
#       7
#    16   8  16  16  16  16  16
#     4  11  22  37  59  81 111 152 189 232 284 340
#     4  10  22  38  56  84 114 142 190 236 284 338
#     4  11  21  35  59  85 115 149 185 235 286 337
#     4  11  23  37  55  84 117 149 192 235 278 338
#     4  10  21  38  59  82 113 152 190 231 283 340
#     4  10  20  36  58  83 111 145 188 234 284 339
#     4  10  20  34  55  84 112 144 190 237 279 331
#
# _framework density 21.84254
#
# number of rings (size 3 to 8) (size 9 to 14) (size 15 to 20)
#    0.000    1.538    1.538    5.077    0.000    2.462 
#    0.000    0.000    0.000    3.692    0.000    0.000 
#    0.000    0.000    0.000    0.000    0.000    0.000 
#
# Total GULP energy -290254.180701 kJ/mol
# GULP energy per Si atom -5581.811167 kJ/mol
# Density = 2.179283 g / cm^3
# Si number density = 21.842540 Si / 1000 Ang^3
#
#
#
# Elastic Constant Matrix: (Units=GPa)
#
#
# Indices 1 2 3 4 5 6 
#
# 1 25.0522 23.3176 6.4487 0.0000 0.0000 0.0000
# 2 23.3176 138.2775 15.0937 0.0000 0.0000 0.0000
# 3 6.4487 15.0937 44.2540 0.0000 0.0000 0.0000
# 4 0.0000 0.0000 0.0000 19.3317 0.0000 0.0000
# 5 0.0000 0.0000 0.0000 0.0000 22.1900 0.0000
# 6 0.0000 0.0000 0.0000 0.0000 0.0000 14.5727
#
#
#
# Elastic Compliance Matrix: (Units=1/GPa)
#
#
# Indices 1 2 3 4 5 6 
#
# 1 0.048164 -0.007640 -0.004413 0.000000 0.000000 0.000000
# 2 -0.007640 0.008723 -0.001862 0.000000 0.000000 0.000000
# 3 -0.004413 -0.001862 0.023875 0.000000 0.000000 0.000000
# 4 0.000000 0.000000 0.000000 0.051729 0.000000 0.000000
# 5 0.000000 0.000000 0.000000 0.000000 0.045065 0.000000
# 6 0.000000 0.000000 0.000000 0.000000 0.000000 0.068622
#
#
# Mechanical properties :
#
#
# Convention : Reuss Voigt Hill
#
# Bulk Modulus (GPa) = 18.89198 33.03374 25.96286
# Shear Modulus (GPa) = 17.14378 22.06712 19.60545
#
# Velocity S-wave (km/s) = 2.80461 3.18194 2.99922
# Velocity P-wave (km/s) = 4.37673 5.35314 4.88937
#
# Compressibility (1/GPa) = 0.05293252
#
# Stress axis : x y z
#
# Youngs Moduli (GPa) = 20.76256 114.63390 41.88500
#
# Poissons Ratio (x) = 0.87582 0.18482
# Poissons Ratio (y) = 0.15863 0.07799
# Poissons Ratio (z) = 0.09162 0.21345
#
# Static dielectric constant tensor:
#      x y z
#    x 1.806370 0.000000 0.000000 
#    y 0.000000 1.815830 0.000000 
#    z 0.000000 0.000000 1.853550 
# 
# From -- ./inp_files/19897.got.cif
#   From: 2010.05.17/outbox.cif.g08.bks.cpg/sg67_10_cif.got.tgz:19897.got - 2010.06.03 18:28:57.
