data_PCOD9502149
_publ_section_title
;
Structure prediction by ZEFSAII (Michael W. Deem and Ramdas Pophale) SiO2 
 PCOD9502149
Probable space group: C M M A
;
_chemical_formula_sum "Si O2"
_cell_formula_units_Z 96
_cell_length_a 9.265582
_cell_length_b 14.596665
_cell_length_c 32.640284
_cell_angle_alpha 90.000000
_cell_angle_beta 90.000000
_cell_angle_gamma 90.000000
_cell_volume 4414.487319
_symmetry_space_group_name_H-M "C M M A"
_symmetry_group_IT_number 67
_symmetry_cell_setting 'orthorhombic'
loop_
_space_group_symop_operation_xyz
x,y,z
-x,1/2-y,z
x,-y,-z
-x,1/2+y,-z
-x,-y,-z
x,1/2+y,-z
-x,y,z
x,1/2-y,z
1/2+x,1/2+y,z
1/2-x,-y,z
1/2+x,1/2-y,-z
1/2-x,y,-z
1/2-x,1/2-y,-z
1/2+x,y,-z
1/2-x,1/2+y,z
1/2+x,-y,z
loop_
_atom_site_type_symbol
_atom_site_label
_atom_site_fract_x
_atom_site_fract_y
_atom_site_fract_z
Si Si1 0.666798 0.638348 0.379045
Si Si2 0.833205 0.637985 0.711862
Si Si3 0.327961 0.902370 0.129567
Si Si4 0.840445 0.642912 0.210257
Si Si5 0.164096 0.137870 0.540502
Si Si6 0.326396 0.899774 0.039413
O O1 0.500000 0.610064 0.383693
O O2 0.667226 0.750000 0.379597
O O3 0.718433 0.611195 0.333620
O O4 0.760702 0.608240 0.417441
O O5 0.834020 0.750000 0.712584
O O6 0.737802 0.604574 0.749623
O O7 0.000000 0.609677 0.716694
O O8 0.500000 0.909965 0.134317
O O9 0.257398 0.860680 0.169870
O O10 0.302841 0.858089 0.084667
O O11 0.250000 0.000000 0.127465
O O12 0.858174 0.750000 0.218946
O O13 0.000000 0.602319 0.203016
O O14 0.163456 0.250000 0.540697
O O15 0.250000 0.110052 0.500000
O O16 0.000000 0.106406 0.538599
O O17 0.500000 0.907472 0.033354
O O18 0.250000 0.000000 0.041530
O O19 0.250000 0.855284 0.000000
#
# Coordination Sequence:
#
# PCOD9502149 Si02
#       6
#    16  16  16  16  16  16
#     4   8  13  21  32  45  62  86 119 160 204 249
#     4   8  14  25  40  56  75 102 136 174 216 261
#     4  10  20  33  50  72  97 124 154 188 227 271
#     4  10  20  32  47  68  93 121 154 192 231 271
#     4   9  15  20  26  37  55  81 114 154 200 248
#     4   9  16  26  43  67  92 118 147 181 220 262
#
# _framework density 21.746579000000001
#
# number of rings (size 3 to 8) (size 9 to 14) (size 15 to 20)
#    0.000    3.000    0.000    3.500    0.000    5.667 
#    0.000    3.333    0.000    0.500    0.000    0.000 
#    0.000    0.000    0.000    0.000    0.000    0.833 
#
# Total GULP energy -267701.196041 kJ/mol
# GULP energy per Si atom -5577.108251 kJ/mol
# Density = 2.169708 g / cm^3
# Si number density = 21.746579 Si / 1000 Ang^3
#
#
#
# Elastic Constant Matrix: (Units=GPa)
#
#
# Indices 1 2 3 4 5 6 
#
# 1 156.7420 11.4443 137.6506 0.0000 0.0000 0.0000
# 2 11.4443 53.3123 11.3485 0.0000 0.0000 0.0000
# 3 137.6506 11.3485 254.4522 0.0000 0.0000 0.0000
# 4 0.0000 0.0000 0.0000 -23.4647 0.0000 0.0000
# 5 0.0000 0.0000 0.0000 0.0000 39.2817 0.0000
# 6 0.0000 0.0000 0.0000 0.0000 0.0000 4.7137
#
#
#
# Elastic Compliance Matrix: (Units=1/GPa)
#
#
# Indices 1 2 3 4 5 6 
#
# 1 0.012233 -0.001229 -0.006563 0.000000 0.000000 0.000000
# 2 -0.001229 0.019061 -0.000185 0.000000 0.000000 0.000000
# 3 -0.006563 -0.000185 0.007489 0.000000 0.000000 0.000000
# 4 0.000000 0.000000 0.000000 -0.042617 0.000000 0.000000
# 5 0.000000 0.000000 0.000000 0.000000 0.025457 0.000000
# 6 0.000000 0.000000 0.000000 0.000000 0.000000 0.212146
#
#
# Mechanical properties :
#
#
# Convention : Reuss Voigt Hill
#
# Bulk Modulus (GPa) = 43.80571 87.26593 65.53582
# Shear Modulus (GPa) = 19.43013 24.37703 21.90358
#
# Velocity S-wave (km/s) = 2.99236 3.35171 3.17712
# Velocity P-wave (km/s) = 5.66801 7.42928 6.60760
#
# Compressibility (1/GPa) = 0.02282808
#
# Stress axis : x y z
#
# Youngs Moduli (GPa) = 81.74437 52.46408 133.53550
#
# Poissons Ratio (x) = 0.06448 0.87639
# Poissons Ratio (y) = 0.10046 0.02474
# Poissons Ratio (z) = 0.53649 0.00972
#
# Static dielectric constant tensor:
#      x y z
#    x 1.757510 0.000000 0.000000 
#    y 0.000000 2.155880 0.000000 
#    z 0.000000 0.000000 1.810750 
# 
# From -- ./inp_files/43664.got.cif
#   From: 2010.05.17/outbox.cif.g08.bks.cpg/sg67_22_cif.got.tgz:43664.got - 2010.06.03 18:28:57.
