data_PCOD9502336
_publ_section_title
;
Structure prediction by ZEFSAII (Michael W. Deem and Ramdas Pophale) SiO2 
 PCOD9502336
Probable space group: C M M A
;
_chemical_formula_sum "Si O2"
_cell_formula_units_Z 96
_cell_length_a 8.381890
_cell_length_b 19.219486
_cell_length_c 31.852426
_cell_angle_alpha 90.000000
_cell_angle_beta 90.000000
_cell_angle_gamma 90.000000
_cell_volume 5131.286236
_symmetry_space_group_name_H-M "C M M A"
_symmetry_group_IT_number 67
_symmetry_cell_setting 'orthorhombic'
loop_
_space_group_symop_operation_xyz
x,y,z
-x,1/2-y,z
x,-y,-z
-x,1/2+y,-z
-x,-y,-z
x,1/2+y,-z
-x,y,z
x,1/2-y,z
1/2+x,1/2+y,z
1/2-x,-y,z
1/2+x,1/2-y,-z
1/2-x,y,-z
1/2-x,1/2-y,-z
1/2+x,y,-z
1/2-x,1/2+y,z
1/2+x,-y,z
loop_
_atom_site_type_symbol
_atom_site_label
_atom_site_fract_x
_atom_site_fract_y
_atom_site_fract_z
Si Si1 0.690941 0.578324 0.878704
Si Si2 0.692776 0.921426 0.784081
Si Si3 0.804969 0.669909 0.294483
Si Si4 0.690430 0.170220 0.955253
Si Si5 0.306981 0.920882 0.625273
Si Si6 0.807428 0.669927 0.453610
O O1 0.500000 0.579216 0.879209
O O2 0.750000 0.500000 0.886023
O O3 0.744634 0.598095 0.831384
O O4 0.752980 0.627373 0.915306
O O5 0.500000 0.922038 0.783644
O O6 0.747007 0.868481 0.748155
O O7 0.750000 0.000000 0.775446
O O8 0.752621 0.750000 0.297020
O O9 0.754739 0.624245 0.334488
O O10 0.000000 0.670653 0.294530
O O11 0.500000 0.170876 0.956032
O O12 0.749639 0.250000 0.952101
O O13 0.750000 0.141539 0.000000
O O14 0.500000 0.921007 0.625199
O O15 0.252474 0.881766 0.582918
O O16 0.250000 0.000000 0.627511
O O17 0.755611 0.750000 0.445608
O O18 0.750000 0.649967 0.500000
O O19 0.000000 0.669834 0.453424
#
# Coordination Sequence:
#
# PCOD9502336 Si02
#       6
#    16  16  16  16  16  16
#     4  10  20  34  53  78 107 138 173 212 254 303
#     4   9  18  32  52  76 102 133 166 204 249 297
#     4   9  17  31  52  76 100 129 168 209 247 292
#     4  10  21  37  56  78 105 137 173 214 260 308
#     4  10  20  33  51  74 100 131 166 206 250 297
#     4   9  18  33  52  73  97 128 166 206 249 296
#
# _framework density 18.708759000000001
#
# number of rings (size 3 to 8) (size 9 to 14) (size 15 to 20)
#    0.000    2.500    0.000    2.000    0.000    5.667 
#    0.000    5.000    0.000    3.000    0.000    0.000 
#    0.000    0.000    0.000    0.000    0.000    0.000 
#
# Total GULP energy -267850.579358 kJ/mol
# GULP energy per Si atom -5580.220403 kJ/mol
# Density = 1.866618 g / cm^3
# Si number density = 18.708759 Si / 1000 Ang^3
#
#
#
# Elastic Constant Matrix: (Units=GPa)
#
#
# Indices 1 2 3 4 5 6 
#
# 1 13.4099 16.5799 24.2953 0.0000 0.0000 0.0000
# 2 16.5799 143.0930 135.5252 0.0000 0.0000 0.0000
# 3 24.2953 135.5252 198.4996 0.0000 0.0000 0.0000
# 4 0.0000 0.0000 0.0000 42.6348 0.0000 0.0000
# 5 0.0000 0.0000 0.0000 0.0000 16.0155 0.0000
# 6 0.0000 0.0000 0.0000 0.0000 0.0000 27.2116
#
#
#
# Elastic Compliance Matrix: (Units=1/GPa)
#
#
# Indices 1 2 3 4 5 6 
#
# 1 0.095819 0.000014 -0.011738 0.000000 0.000000 0.000000
# 2 0.000014 0.019777 -0.013505 0.000000 0.000000 0.000000
# 3 -0.011738 -0.013505 0.015695 0.000000 0.000000 0.000000
# 4 0.000000 0.000000 0.000000 0.023455 0.000000 0.000000
# 5 0.000000 0.000000 0.000000 0.000000 0.062439 0.000000
# 6 0.000000 0.000000 0.000000 0.000000 0.000000 0.036749
#
#
# Mechanical properties :
#
#
# Convention : Reuss Voigt Hill
#
# Bulk Modulus (GPa) = 12.37080 78.64480 45.50780
# Shear Modulus (GPa) = 15.09046 29.07919 22.08483
#
# Velocity S-wave (km/s) = 2.84315 3.94675 3.43950
# Velocity P-wave (km/s) = 4.17189 7.93075 6.33646
#
# Compressibility (1/GPa) = 0.08083552
#
# Stress axis : x y z
#
# Youngs Moduli (GPa) = 10.43632 50.56351 63.71609
#
# Poissons Ratio (x) = -0.00073 0.74788
# Poissons Ratio (y) = -0.00015 0.86046
# Poissons Ratio (z) = 0.12250 0.68284
#
# Static dielectric constant tensor:
#      x y z
#    x 1.650720 0.000000 0.000000 
#    y 0.000000 1.623390 0.000000 
#    z 0.000000 0.000000 1.644130 
# 
# From -- ./inp_files/43466.got.cif
#   From: 2010.05.17/outbox.cif.g08.bks.cpg/sg67_22_cif.got.tgz:43466.got - 2010.06.03 18:28:57.
