data_PCOD9502205
_publ_section_title
;
Structure prediction by ZEFSAII (Michael W. Deem and Ramdas Pophale) SiO2 
 PCOD9502205
Probable space group: C M M A
;
_chemical_formula_sum "Si O2"
_cell_formula_units_Z 96
_cell_length_a 19.224430
_cell_length_b 8.890955
_cell_length_c 31.920416
_cell_angle_alpha 90.000000
_cell_angle_beta 90.000000
_cell_angle_gamma 90.000000
_cell_volume 5455.950566
_symmetry_space_group_name_H-M "C M M A"
_symmetry_group_IT_number 67
_symmetry_cell_setting 'orthorhombic'
loop_
_space_group_symop_operation_xyz
x,y,z
-x,1/2-y,z
x,-y,-z
-x,1/2+y,-z
-x,-y,-z
x,1/2+y,-z
-x,y,z
x,1/2-y,z
1/2+x,1/2+y,z
1/2-x,-y,z
1/2+x,1/2-y,-z
1/2-x,y,-z
1/2-x,1/2-y,-z
1/2+x,y,-z
1/2-x,1/2+y,z
1/2+x,-y,z
loop_
_atom_site_type_symbol
_atom_site_label
_atom_site_fract_x
_atom_site_fract_y
_atom_site_fract_z
Si Si1 0.672286 0.929993 0.041586
Si Si2 0.918258 0.431046 0.697372
Si Si3 0.326634 0.569314 0.375918
Si Si4 0.419631 0.431003 0.544774
Si Si5 0.173239 0.929387 0.865813
Si Si6 0.418329 0.069897 0.206781
O O1 0.823387 0.750000 0.963034
O O2 0.642801 0.965284 0.087728
O O3 0.750000 0.000000 0.042974
O O4 0.638082 0.000000 0.000000
O O5 0.911478 0.250000 0.693551
O O6 0.870055 0.511656 0.663880
O O7 0.899862 0.472109 0.745345
O O8 0.000000 0.467396 0.690744
O O9 0.322491 0.750000 0.375100
O O10 0.250000 0.500000 0.375985
O O11 0.369107 0.523156 0.417658
O O12 0.399977 0.500000 0.500000
O O13 0.500000 0.475199 0.553705
O O14 0.417815 0.250000 0.541694
O O15 0.179586 0.750000 0.863366
O O16 0.250000 0.000000 0.862885
O O17 0.126652 0.990192 0.828360
O O18 0.500000 0.036379 0.201206
O O19 0.409674 0.250000 0.203291
#
# Coordination Sequence:
#
# PCOD9502205 Si02
#       6
#    16  16  16  16  16  16
#     4   9  16  26  42  66  95 127 164 205 249 297
#     4   9  19  37  59  80 102 132 172 214 257 309
#     4  11  23  37  54  79 111 143 176 215 260 308
#     4   9  19  36  57  80 105 136 176 218 258 304
#     4  10  20  32  49  75 104 134 169 210 255 304
#     4   9  19  36  56  77 102 133 169 210 257 309
#
# _framework density 17.595466999999999
#
# number of rings (size 3 to 8) (size 9 to 14) (size 15 to 20)
#    0.000    2.500    0.000    3.500    0.000    6.333 
#    0.000    5.000    0.000    0.500    0.000    0.000 
#    0.000    0.000    0.000    0.000    0.000    0.000 
#
# Total GULP energy -267684.008372 kJ/mol
# GULP energy per Si atom -5576.750174 kJ/mol
# Density = 1.755542 g / cm^3
# Si number density = 17.595467 Si / 1000 Ang^3
#
#
#
# Elastic Constant Matrix: (Units=GPa)
#
#
# Indices 1 2 3 4 5 6 
#
# 1 81.5435 46.5171 106.9463 0.0000 0.0000 0.0000
# 2 46.5171 49.0779 71.6568 0.0000 0.0000 0.0000
# 3 106.9463 71.6568 204.7191 0.0000 0.0000 0.0000
# 4 0.0000 0.0000 0.0000 -39.8368 0.0000 0.0000
# 5 0.0000 0.0000 0.0000 0.0000 29.4154 0.0000
# 6 0.0000 0.0000 0.0000 0.0000 0.0000 21.9902
#
#
#
# Elastic Compliance Matrix: (Units=1/GPa)
#
#
# Indices 1 2 3 4 5 6 
#
# 1 0.044972 -0.017023 -0.017535 0.000000 0.000000 0.000000
# 2 -0.017023 0.048117 -0.007949 0.000000 0.000000 0.000000
# 3 -0.017535 -0.007949 0.016828 0.000000 0.000000 0.000000
# 4 0.000000 0.000000 0.000000 -0.025102 0.000000 0.000000
# 5 0.000000 0.000000 0.000000 0.000000 0.033996 0.000000
# 6 0.000000 0.000000 0.000000 0.000000 0.000000 0.045475
#
#
# Mechanical properties :
#
#
# Convention : Reuss Voigt Hill
#
# Bulk Modulus (GPa) = 40.15781 87.28678 63.72230
# Shear Modulus (GPa) = 19.40992 9.66179 14.53586
#
# Velocity S-wave (km/s) = 3.32493 2.34585 2.87734
# Velocity P-wave (km/s) = 6.13291 7.55331 6.87987
#
# Compressibility (1/GPa) = 0.02490175
#
# Stress axis : x y z
#
# Youngs Moduli (GPa) = 22.23599 20.78271 59.42621
#
# Poissons Ratio (x) = 0.35379 1.04205
# Poissons Ratio (y) = 0.37853 0.47239
# Poissons Ratio (z) = 0.38991 0.16520
#
# Static dielectric constant tensor:
#      x y z
#    x 1.571930 0.000000 0.000000 
#    y 0.000000 1.585830 0.000000 
#    z 0.000000 0.000000 1.616400 
# 
# From -- ./inp_files/44596.got.cif
#   From: 2010.05.17/outbox.cif.g08.bks.cpg/sg67_23_cif.got.tgz:44596.got - 2010.06.03 18:28:57.
