data_PCOD9502900
_publ_section_title
;
Structure prediction by ZEFSAII (Michael W. Deem and Ramdas Pophale) SiO2 
 PCOD9502900
Probable space group: C M M A
;
_chemical_formula_sum "Si O2"
_cell_formula_units_Z 80
_cell_length_a 18.528492
_cell_length_b 9.062526
_cell_length_c 26.451817
_cell_angle_alpha 90.000000
_cell_angle_beta 90.000000
_cell_angle_gamma 90.000000
_cell_volume 4441.655277
_symmetry_space_group_name_H-M "C M M A"
_symmetry_group_IT_number 67
_symmetry_cell_setting 'orthorhombic'
loop_
_space_group_symop_operation_xyz
x,y,z
-x,1/2-y,z
x,-y,-z
-x,1/2+y,-z
-x,-y,-z
x,1/2+y,-z
-x,y,z
x,1/2-y,z
1/2+x,1/2+y,z
1/2-x,-y,z
1/2+x,1/2-y,-z
1/2-x,y,-z
1/2-x,1/2-y,-z
1/2+x,y,-z
1/2-x,1/2+y,z
1/2+x,-y,z
loop_
_atom_site_type_symbol
_atom_site_label
_atom_site_fract_x
_atom_site_fract_y
_atom_site_fract_z
Si Si1 0.828319 0.573031 0.255613
Si Si2 0.828196 0.926848 0.552053
Si Si3 0.415247 0.574316 0.346051
Si Si4 0.415689 0.426905 0.154882
Si Si5 0.087973 0.419970 0.051103
O O1 0.822377 0.750000 0.257691
O O2 0.750000 0.500000 0.257262
O O3 0.874672 0.515052 0.302670
O O4 0.868962 0.532042 0.203552
O O5 0.820618 0.750000 0.545912
O O6 0.879575 0.955827 0.599545
O O7 0.855184 0.000000 0.500000
O O8 0.750000 0.000000 0.561828
O O9 0.500000 0.540097 0.346443
O O10 0.406716 0.750000 0.336365
O O11 0.500000 0.467291 0.163219
O O12 0.412936 0.250000 0.148871
O O13 0.390032 0.501190 0.102969
O O14 0.109983 0.250000 0.050973
O O15 0.000000 0.424947 0.050561
O O16 0.112703 0.500000 0.000000
#
# Coordination Sequence:
#
# PCOD9502900 Si02
#       5
#    16  16  16  16  16
#     4  11  23  38  57  80 107 142 182 223 270 324
#     4  10  20  35  56  81 110 145 183 222 265 315
#     4  10  22  39  58  82 112 143 178 224 274 322
#     4   9  18  33  52  75 104 136 173 218 264 313
#     4   9  16  26  44  72 104 137 172 211 258 311
#
# _framework density 18.011303000000002
#
# number of rings (size 3 to 8) (size 9 to 14) (size 15 to 20)
#    0.000    2.200    0.000    3.600    0.000    8.800 
#    0.000    2.000    0.000    0.600    0.000    4.200 
#    0.000    0.000    0.000    0.000    0.000    0.000 
#
# Total GULP energy -223309.926888 kJ/mol
# GULP energy per Si atom -5582.748172 kJ/mol
# Density = 1.797031 g / cm^3
# Si number density = 18.011303 Si / 1000 Ang^3
#
#
#
# Elastic Constant Matrix: (Units=GPa)
#
#
# Indices 1 2 3 4 5 6 
#
# 1 89.2481 57.0017 92.0947 0.0000 0.0000 0.0000
# 2 57.0017 77.2618 92.2643 0.0000 0.0000 0.0000
# 3 92.0947 92.2643 196.5590 0.0000 0.0000 0.0000
# 4 0.0000 0.0000 0.0000 34.4489 0.0000 0.0000
# 5 0.0000 0.0000 0.0000 0.0000 -530.5535 0.0000
# 6 0.0000 0.0000 0.0000 0.0000 0.0000 11.5847
#
#
#
# Elastic Compliance Matrix: (Units=1/GPa)
#
#
# Indices 1 2 3 4 5 6 
#
# 1 0.024684 -0.010013 -0.006865 0.000000 0.000000 0.000000
# 2 -0.010013 0.033514 -0.011040 0.000000 0.000000 0.000000
# 3 -0.006865 -0.011040 0.013486 0.000000 0.000000 0.000000
# 4 0.000000 0.000000 0.000000 0.029029 0.000000 0.000000
# 5 0.000000 0.000000 0.000000 0.000000 -0.001885 0.000000
# 6 0.000000 0.000000 0.000000 0.000000 0.000000 0.086321
#
#
# Mechanical properties :
#
#
# Convention : Reuss Voigt Hill
#
# Bulk Modulus (GPa) = 63.09940 93.97669 78.53805
# Shear Modulus (GPa) = 20.30312 -88.79008 -34.24348
#
# Velocity S-wave (km/s) = 3.36109 -7.02879 -4.36503
# Velocity P-wave (km/s) = 7.08321 3.68539 4.27725
#
# Compressibility (1/GPa) = 0.01584801
#
# Stress axis : x y z
#
# Youngs Moduli (GPa) = 40.51186 29.83843 74.14912
#
# Poissons Ratio (x) = 0.29877 0.50906
# Poissons Ratio (y) = 0.40564 0.81860
# Poissons Ratio (z) = 0.27813 0.32942
#
# Static dielectric constant tensor:
#      x y z
#    x 1.596240 0.000000 0.000000 
#    y 0.000000 1.601080 0.000000 
#    z 0.000000 0.000000 1.598690 
# 
# From -- ./inp_files/43301.got.cif
#   From: 2010.05.17/outbox.cif.g08.bks.cpg/sg67_22_cif.got.tgz:43301.got - 2010.06.03 18:28:57.
