data_PCOD9502410
_publ_section_title
;
Structure prediction by ZEFSAII (Michael W. Deem and Ramdas Pophale) SiO2 
 PCOD9502410
Probable space group: C M M A
;
_chemical_formula_sum "Si O2"
_cell_formula_units_Z 80
_cell_length_a 14.895424
_cell_length_b 19.661266
_cell_length_c 12.573060
_cell_angle_alpha 90.000000
_cell_angle_beta 90.000000
_cell_angle_gamma 90.000000
_cell_volume 3682.182731
_symmetry_space_group_name_H-M "C M M A"
_symmetry_group_IT_number 67
_symmetry_cell_setting 'orthorhombic'
loop_
_space_group_symop_operation_xyz
x,y,z
-x,1/2-y,z
x,-y,-z
-x,1/2+y,-z
-x,-y,-z
x,1/2+y,-z
-x,y,z
x,1/2-y,z
1/2+x,1/2+y,z
1/2-x,-y,z
1/2+x,1/2-y,-z
1/2-x,y,-z
1/2-x,1/2-y,-z
1/2+x,y,-z
1/2-x,1/2+y,z
1/2+x,-y,z
loop_
_atom_site_type_symbol
_atom_site_label
_atom_site_fract_x
_atom_site_fract_y
_atom_site_fract_z
Si Si1 0.316796 0.320861 0.897740
Si Si2 0.608392 0.926347 0.730129
Si Si3 0.106936 0.945711 0.595803
Si Si4 0.754501 0.670549 0.655026
Si Si5 0.097753 0.077332 0.967862
O O1 0.369739 0.250000 0.905667
O O2 0.279402 0.323747 0.779948
O O3 0.250000 0.319209 0.000000
O O4 0.370672 0.386431 0.926648
O O5 0.500000 0.917467 0.720577
O O6 0.661336 0.872064 0.657387
O O7 0.641661 0.916739 0.851886
O O8 0.625957 0.004257 0.695708
O O9 0.170851 0.879328 0.601146
O O10 0.000000 0.927998 0.593567
O O11 0.123168 0.000000 0.500000
O O12 0.749592 0.750000 0.618284
O O13 0.000000 0.106347 0.946323
O O14 0.095300 0.000000 0.000000
#
# Coordination Sequence:
#
# PCOD9502410 Si02
#       5
#    16  16  16  16  16
#     4  10  20  35  53  81 123 165 203 245 304 369
#     4  10  21  38  60  88 125 169 214 262 319 384
#     4  10  23  45  69  91 121 163 209 266 334 390
#     4  11  23  39  64  96 128 165 213 266 317 383
#     4  10  20  33  52  81 116 158 212 265 311 368
#
# _framework density 21.726243
#
# number of rings (size 3 to 8) (size 9 to 14) (size 15 to 20)
#    0.000    1.800    2.000    1.800    0.000    5.600 
#    0.000    6.000    0.000    3.600    0.000    0.000 
#    0.000    0.000    0.000    0.000    0.000    0.000 
#
# Total GULP energy -222672.790312 kJ/mol
# GULP energy per Si atom -5566.819758 kJ/mol
# Density = 2.167679 g / cm^3
# Si number density = 21.726243 Si / 1000 Ang^3
#
#
#
# Elastic Constant Matrix: (Units=GPa)
#
#
# Indices 1 2 3 4 5 6 
#
# 1 57.4411 46.5738 8.0466 0.0000 0.0000 0.0000
# 2 46.5738 124.0957 8.1548 0.0000 0.0000 0.0000
# 3 8.0466 8.1548 98.9118 0.0000 0.0000 0.0000
# 4 0.0000 0.0000 0.0000 -133.7774 0.0000 0.0000
# 5 0.0000 0.0000 0.0000 0.0000 19.8699 0.0000
# 6 0.0000 0.0000 0.0000 0.0000 0.0000 14.4352
#
#
#
# Elastic Compliance Matrix: (Units=1/GPa)
#
#
# Indices 1 2 3 4 5 6 
#
# 1 0.025183 -0.009368 -0.001276 0.000000 0.000000 0.000000
# 2 -0.009368 0.011587 -0.000193 0.000000 0.000000 0.000000
# 3 -0.001276 -0.000193 0.010230 0.000000 0.000000 0.000000
# 4 0.000000 0.000000 0.000000 -0.007475 0.000000 0.000000
# 5 0.000000 0.000000 0.000000 0.000000 0.050327 0.000000
# 6 0.000000 0.000000 0.000000 0.000000 0.000000 0.069275
#
#
# Mechanical properties :
#
#
# Convention : Reuss Voigt Hill
#
# Bulk Modulus (GPa) = 39.48596 45.11101 42.29848
# Shear Modulus (GPa) = 26.42104 -5.38290 10.51907
#
# Velocity S-wave (km/s) = 3.49103 -1.57575 2.20276
# Velocity P-wave (km/s) = 5.87056 4.18304 5.09712
#
# Compressibility (1/GPa) = 0.02532546
#
# Stress axis : x y z
#
# Youngs Moduli (GPa) = 39.70896 86.30597 97.75381
#
# Poissons Ratio (x) = 0.80847 0.12477
# Poissons Ratio (y) = 0.37198 0.01889
# Poissons Ratio (z) = 0.05068 0.01668
#
# Static dielectric constant tensor:
#      x y z
#    x 1.673990 0.000000 0.000000 
#    y 0.000000 1.826130 0.000000 
#    z 0.000000 0.000000 1.813310 
# 
# From -- ./inp_files/28391.got.cif
#   From: 2010.05.17/outbox.cif.g08.bks.cpg/sg67_15_cif.got.tgz:28391.got - 2010.06.03 18:28:57.
