data_PCOD9502631
_publ_section_title
;
Structure prediction by ZEFSAII (Michael W. Deem and Ramdas Pophale) SiO2 
 PCOD9502631
Probable space group: C M M A
;
_chemical_formula_sum "Si O2"
_cell_formula_units_Z 92
_cell_length_a 10.259651
_cell_length_b 24.071365
_cell_length_c 20.023225
_cell_angle_alpha 90.000000
_cell_angle_beta 90.000000
_cell_angle_gamma 90.000000
_cell_volume 4945.011814
_symmetry_space_group_name_H-M "C M M A"
_symmetry_group_IT_number 67
_symmetry_cell_setting 'orthorhombic'
loop_
_space_group_symop_operation_xyz
x,y,z
-x,1/2-y,z
x,-y,-z
-x,1/2+y,-z
-x,-y,-z
x,1/2+y,-z
-x,y,z
x,1/2-y,z
1/2+x,1/2+y,z
1/2-x,-y,z
1/2+x,1/2-y,-z
1/2-x,y,-z
1/2-x,1/2-y,-z
1/2+x,y,-z
1/2-x,1/2+y,z
1/2+x,-y,z
loop_
_atom_site_type_symbol
_atom_site_label
_atom_site_fract_x
_atom_site_fract_y
_atom_site_fract_z
Si Si1 0.250000 0.000000 0.000000
Si Si2 0.148577 0.389154 0.946392
Si Si3 0.359196 0.189584 0.413780
Si Si4 0.348853 0.185660 0.182773
Si Si5 0.151557 0.336447 0.303221
Si Si6 0.250000 0.403664 0.500000
Si Si7 0.355051 0.543525 0.365894
O O1 0.328056 0.956072 0.953272
O O2 0.170360 0.359576 0.875705
O O3 0.000000 0.378064 0.965924
O O4 0.250000 0.365404 0.000000
O O5 0.500000 0.185221 0.377963
O O6 0.358447 0.250000 0.447347
O O7 0.236256 0.187167 0.364747
O O8 0.348746 0.138662 0.464189
O O9 0.500000 0.179116 0.206792
O O10 0.338421 0.250000 0.159131
O O11 0.239006 0.176560 0.238824
O O12 0.147827 0.401943 0.320136
O O13 0.000000 0.317919 0.299543
O O14 0.316439 0.438462 0.558725
O O15 0.500000 0.519676 0.366509
O O16 0.250000 0.500000 0.341764
#
# Coordination Sequence:
#
# PCOD9502631 Si02
#       7
#     4  16  16  16  16   8  16
#     4   8  18  36  60  84 118 156 190 228 278 324
#     4   9  19  35  58  86 117 152 191 232 275 324
#     4  10  20  34  54  79 107 142 180 220 273 336
#     4  10  21  38  59  85 117 153 191 229 277 335
#     4  10  22  39  56  79 109 143 184 230 280 331
#     4  10  20  34  54  78 106 134 176 224 276 332
#     4  10  22  38  55  76 103 136 177 227 278 333
#
# _framework density 18.604607000000001
#
# number of rings (size 3 to 8) (size 9 to 14) (size 15 to 20)
#    0.522    1.739    0.000    2.348    0.000    9.391 
#    1.565    0.000    0.000    0.000    0.000    0.000 
#    0.000    0.000    0.000    0.000    0.000    0.000 
#
# Total GULP energy -256108.883681 kJ/mol
# GULP energy per Si atom -5567.584428 kJ/mol
# Density = 1.856226 g / cm^3
# Si number density = 18.604607 Si / 1000 Ang^3
#
#
#
# Elastic Constant Matrix: (Units=GPa)
#
#
# Indices 1 2 3 4 5 6 
#
# 1 148.3256 40.7603 34.6828 0.0000 0.0000 0.0000
# 2 40.7603 82.4094 22.8293 0.0000 0.0000 0.0000
# 3 34.6828 22.8293 51.5649 0.0000 0.0000 0.0000
# 4 0.0000 0.0000 0.0000 -17.8148 0.0000 0.0000
# 5 0.0000 0.0000 0.0000 0.0000 27.2603 0.0000
# 6 0.0000 0.0000 0.0000 0.0000 0.0000 19.4390
#
#
#
# Elastic Compliance Matrix: (Units=1/GPa)
#
#
# Indices 1 2 3 4 5 6 
#
# 1 0.008615 -0.003027 -0.004455 0.000000 0.000000 0.000000
# 2 -0.003027 0.014895 -0.004558 0.000000 0.000000 0.000000
# 3 -0.004455 -0.004558 0.024407 0.000000 0.000000 0.000000
# 4 0.000000 0.000000 0.000000 -0.056133 0.000000 0.000000
# 5 0.000000 0.000000 0.000000 0.000000 0.036683 0.000000
# 6 0.000000 0.000000 0.000000 0.000000 0.000000 0.051443
#
#
# Mechanical properties :
#
#
# Convention : Reuss Voigt Hill
#
# Bulk Modulus (GPa) = 41.95090 53.20496 47.57793
# Shear Modulus (GPa) = 44.66836 18.04540 31.35688
#
# Velocity S-wave (km/s) = 4.90524 3.11777 4.10986
# Velocity P-wave (km/s) = 7.39456 6.45139 6.93902
#
# Compressibility (1/GPa) = 0.02383739
#
# Stress axis : x y z
#
# Youngs Moduli (GPa) = 116.07101 67.13867 40.97152
#
# Poissons Ratio (x) = 0.20325 0.18251
# Poissons Ratio (y) = 0.35138 0.18675
# Poissons Ratio (z) = 0.51704 0.30603
#
# Static dielectric constant tensor:
#      x y z
#    x 1.662070 0.000000 0.000000 
#    y 0.000000 1.672830 0.000000 
#    z 0.000000 0.000000 1.621690 
# 
# From -- ./inp_files/37224.got.cif
#   From: 2010.05.17/outbox.cif.g08.bks.cpg/sg67_19_cif.got.tgz:37224.got - 2010.06.03 18:28:57.
