data_PCOD9502575
_publ_section_title
;
Structure prediction by ZEFSAII (Michael W. Deem and Ramdas Pophale) SiO2 
 PCOD9502575
Probable space group: C M M A
;
_chemical_formula_sum "Si O2"
_cell_formula_units_Z 104
_cell_length_a 26.897396
_cell_length_b 8.540994
_cell_length_c 22.867780
_cell_angle_alpha 90.000000
_cell_angle_beta 90.000000
_cell_angle_gamma 90.000000
_cell_volume 5253.426484
_symmetry_space_group_name_H-M "C M M A"
_symmetry_group_IT_number 67
_symmetry_cell_setting 'orthorhombic'
loop_
_space_group_symop_operation_xyz
x,y,z
-x,1/2-y,z
x,-y,-z
-x,1/2+y,-z
-x,-y,-z
x,1/2+y,-z
-x,y,z
x,1/2-y,z
1/2+x,1/2+y,z
1/2-x,-y,z
1/2+x,1/2-y,-z
1/2-x,y,-z
1/2-x,1/2-y,-z
1/2+x,y,-z
1/2-x,1/2+y,z
1/2+x,-y,z
loop_
_atom_site_type_symbol
_atom_site_label
_atom_site_fract_x
_atom_site_fract_y
_atom_site_fract_z
Si Si1 0.161343 0.438140 0.226429
Si Si2 0.107892 0.439467 0.566254
Si Si3 0.445732 0.438676 0.815046
Si Si4 0.303429 0.062405 0.350227
Si Si5 0.802246 0.062968 0.896838
Si Si6 0.589346 0.437336 0.061729
Si Si7 0.000000 0.438736 0.566541
O O1 0.163323 0.250000 0.226859
O O2 0.103504 0.490344 0.219818
O O3 0.185011 0.503472 0.285120
O O4 0.189327 0.498968 0.168797
O O5 0.112731 0.500000 0.500000
O O6 0.108753 0.250000 0.564511
O O7 0.152757 0.493250 0.606897
O O8 0.053544 0.489367 0.590895
O O9 0.500000 0.492576 0.793614
O O10 0.445330 0.250000 0.814435
O O11 0.438047 0.494234 0.881705
O O12 0.302781 0.250000 0.350133
O O13 0.250000 0.000000 0.369352
O O14 0.800374 0.250000 0.895260
O O15 0.852370 0.015719 0.930959
O O16 0.750000 0.000000 0.920299
O O17 0.586146 0.250000 0.063333
O O18 0.570440 0.500000 0.000000
O O19 0.000000 0.500000 0.500000
O O20 0.000000 0.250000 0.566187
#
# Coordination Sequence:
#
# PCOD9502575 Si02
#       7
#    16  16  16  16  16  16   8
#     4  10  20  36  57  79 105 138 176 221 269 320
#     4   9  19  35  57  82 111 145 184 226 273 325
#     4   9  19  37  59  80 105 137 174 218 268 321
#     4  11  23  38  55  80 112 148 186 227 273 326
#     4  10  20  34  53  76 102 135 175 218 266 319
#     4  10  21  35  52  76 106 139 176 217 262 317
#     4   8  14  30  54  78 104 136 174 218 263 312
#
# _framework density 19.796603000000001
#
# number of rings (size 3 to 8) (size 9 to 14) (size 15 to 20)
#    0.000    2.308    0.000    2.308    0.000    4.923 
#    1.385    3.077    0.000    0.000    0.000    0.000 
#    0.000    0.000    0.000    0.000    0.000    0.000 
#
# Total GULP energy -290261.187350 kJ/mol
# GULP energy per Si atom -5581.945911 kJ/mol
# Density = 1.975154 g / cm^3
# Si number density = 19.796603 Si / 1000 Ang^3
#
#
#
# Elastic Constant Matrix: (Units=GPa)
#
#
# Indices 1 2 3 4 5 6 
#
# 1 137.9157 15.5745 20.2744 0.0000 0.0000 0.0000
# 2 15.5745 17.5214 0.0500 0.0000 0.0000 0.0000
# 3 20.2744 0.0500 49.2546 0.0000 0.0000 0.0000
# 4 0.0000 0.0000 0.0000 18.8080 0.0000 0.0000
# 5 0.0000 0.0000 0.0000 0.0000 -0.7553 0.0000
# 6 0.0000 0.0000 0.0000 0.0000 0.0000 10.2440
#
#
#
# Elastic Compliance Matrix: (Units=1/GPa)
#
#
# Indices 1 2 3 4 5 6 
#
# 1 0.008638 -0.007668 -0.003548 0.000000 0.000000 0.000000
# 2 -0.007668 0.063880 0.003092 0.000000 0.000000 0.000000
# 3 -0.003548 0.003092 0.021760 0.000000 0.000000 0.000000
# 4 0.000000 0.000000 0.000000 0.053169 0.000000 0.000000
# 5 0.000000 0.000000 0.000000 0.000000 -1.324062 0.000000
# 6 0.000000 0.000000 0.000000 0.000000 0.000000 0.097618
#
#
# Mechanical properties :
#
#
# Convention : Reuss Voigt Hill
#
# Bulk Modulus (GPa) = 12.81568 30.72105 21.76836
# Shear Modulus (GPa) = -4.82282 16.91221 6.04470
#
# Velocity S-wave (km/s) = -1.56252 2.92601 1.74929
# Velocity P-wave (km/s) = 1.79790 5.19302 3.88586
#
# Compressibility (1/GPa) = 0.07802942
#
# Stress axis : x y z
#
# Youngs Moduli (GPa) = 115.76283 15.65424 45.95598
#
# Poissons Ratio (x) = 0.12004 0.16305
# Poissons Ratio (y) = 0.88771 -0.14208
# Poissons Ratio (z) = 0.41072 -0.04840
#
# Static dielectric constant tensor:
#      x y z
#    x 1.753970 0.000000 0.000000 
#    y 0.000000 1.665280 0.000000 
#    z 0.000000 0.000000 1.645330 
# 
# From -- ./inp_files/40220.got.cif
#   From: 2010.05.17/outbox.cif.g08.bks.cpg/sg67_21_cif.got.tgz:40220.got - 2010.06.03 18:28:57.
