data_PCOD9502080
_publ_section_title
;
Structure prediction by ZEFSAII (Michael W. Deem and Ramdas Pophale) SiO2 
 PCOD9502080
Probable space group: C M M A
;
_chemical_formula_sum "Si O2"
_cell_formula_units_Z 116
_cell_length_a 16.192047
_cell_length_b 23.270032
_cell_length_c 16.918801
_cell_angle_alpha 90.000000
_cell_angle_beta 90.000000
_cell_angle_gamma 90.000000
_cell_volume 6374.825755
_symmetry_space_group_name_H-M "C M M A"
_symmetry_group_IT_number 67
_symmetry_cell_setting 'orthorhombic'
loop_
_space_group_symop_operation_xyz
x,y,z
-x,1/2-y,z
x,-y,-z
-x,1/2+y,-z
-x,-y,-z
x,1/2+y,-z
-x,y,z
x,1/2-y,z
1/2+x,1/2+y,z
1/2-x,-y,z
1/2+x,1/2-y,-z
1/2-x,y,-z
1/2-x,1/2-y,-z
1/2+x,y,-z
1/2-x,1/2+y,z
1/2+x,-y,z
loop_
_atom_site_type_symbol
_atom_site_label
_atom_site_fract_x
_atom_site_fract_y
_atom_site_fract_z
Si Si1 0.152212 0.094328 0.804446
Si Si2 0.401485 0.572762 0.418025
Si Si3 0.750000 0.500000 0.500000
Si Si4 0.095023 0.019669 0.249221
Si Si5 0.198126 0.060661 0.109173
Si Si6 0.348834 0.816899 0.505922
Si Si7 0.088114 0.932261 0.023911
Si Si8 0.401532 0.815079 0.679099
O O1 0.242427 0.100601 0.840474
O O2 0.099837 0.079386 0.883429
O O3 0.123763 0.147059 0.753136
O O4 0.148758 0.038416 0.747949
O O5 0.500000 0.556798 0.438633
O O6 0.319743 0.539576 0.454271
O O7 0.394412 0.559890 0.324732
O O8 0.389008 0.638474 0.445099
O O9 0.121818 0.047613 0.166825
O O10 0.000000 0.001296 0.246631
O O11 0.250000 0.000000 0.096923
O O12 0.164166 0.087496 0.029072
O O13 0.376309 0.750000 0.497320
O O14 0.250000 0.817756 0.500000
O O15 0.371045 0.837504 0.594468
O O16 0.000000 0.907663 0.999792
O O17 0.087099 0.000000 0.000000
O O18 0.500000 0.814098 0.675542
O O19 0.370113 0.750000 0.687104
#
# Coordination Sequence:
#
# PCOD9502080 Si02
#       8
#    16  16   4  16  16  16  16  16
#     4  11  22  33  56  83 113 148 190 235 290 345
#     4  11  25  40  59  87 119 158 201 243 302 369
#     4  12  26  40  58  78 128 158 198 234 312 362
#     4  10  21  34  49  79 116 150 186 226 280 349
#     4  10  20  30  51  75 112 149 187 223 273 332
#     4  10  22  42  66  88 115 152 203 256 305 358
#     4  11  19  31  50  77 114 152 187 225 271 336
#     4  10  22  40  61  85 110 143 194 251 299 343
#
# _framework density 18.196574999999999
#
# number of rings (size 3 to 8) (size 9 to 14) (size 15 to 20)
#    0.000    1.517    3.448    2.690    6.759    0.828 
#    0.000    0.000    0.000    1.655    0.000    0.000 
#    0.000    3.310    0.000    0.000    0.000    0.000 
#
# Total GULP energy -322971.220004 kJ/mol
# GULP energy per Si atom -5568.469310 kJ/mol
# Density = 1.815516 g / cm^3
# Si number density = 18.196575 Si / 1000 Ang^3
#
#
#
# Elastic Constant Matrix: (Units=GPa)
#
#
# Indices 1 2 3 4 5 6 
#
# 1 87.7180 18.6682 37.3134 0.0000 0.0000 0.0000
# 2 18.6682 48.9630 54.5386 0.0000 0.0000 0.0000
# 3 37.3134 54.5386 119.8964 0.0000 0.0000 0.0000
# 4 0.0000 0.0000 0.0000 -90.9278 0.0000 0.0000
# 5 0.0000 0.0000 0.0000 0.0000 35.8455 0.0000
# 6 0.0000 0.0000 0.0000 0.0000 0.0000 10.9398
#
#
#
# Elastic Compliance Matrix: (Units=1/GPa)
#
#
# Indices 1 2 3 4 5 6 
#
# 1 0.013160 -0.000924 -0.003676 0.000000 0.000000 0.000000
# 2 -0.000924 0.041465 -0.018574 0.000000 0.000000 0.000000
# 3 -0.003676 -0.018574 0.017933 0.000000 0.000000 0.000000
# 4 0.000000 0.000000 0.000000 -0.010998 0.000000 0.000000
# 5 0.000000 0.000000 0.000000 0.000000 0.027897 0.000000
# 6 0.000000 0.000000 0.000000 0.000000 0.000000 0.091409
#
#
# Mechanical properties :
#
#
# Convention : Reuss Voigt Hill
#
# Bulk Modulus (GPa) = 38.15029 53.06864 45.60947
# Shear Modulus (GPa) = 21.19078 0.90866 11.04972
#
# Velocity S-wave (km/s) = 3.41625 0.70742 2.46690
# Velocity P-wave (km/s) = 6.04749 5.46760 5.76484
#
# Compressibility (1/GPa) = 0.02621212
#
# Stress axis : x y z
#
# Youngs Moduli (GPa) = 75.98658 24.11669 55.76161
#
# Poissons Ratio (x) = 0.02227 0.20495
# Poissons Ratio (y) = 0.07018 1.03573
# Poissons Ratio (z) = 0.27929 0.44795
#
# Static dielectric constant tensor:
#      x y z
#    x 1.693910 0.000000 0.000000 
#    y 0.000000 1.644700 0.000000 
#    z 0.000000 0.000000 1.636460 
# 
# From -- ./inp_files/28761.got.cif
#   From: 2010.05.17/outbox.cif.g08.bks.cpg/sg67_15_cif.got.tgz:28761.got - 2010.06.03 18:28:57.
