data_PCOD9502948
_publ_section_title
;
Structure prediction by ZEFSAII (Michael W. Deem and Ramdas Pophale) SiO2 
 PCOD9502948
Probable space group: C M M A
;
_chemical_formula_sum "Si O2"
_cell_formula_units_Z 112
_cell_length_a 15.019112
_cell_length_b 15.942413
_cell_length_c 23.976032
_cell_angle_alpha 90.000000
_cell_angle_beta 90.000000
_cell_angle_gamma 90.000000
_cell_volume 5740.842354
_symmetry_space_group_name_H-M "C M M A"
_symmetry_group_IT_number 67
_symmetry_cell_setting 'orthorhombic'
loop_
_space_group_symop_operation_xyz
x,y,z
-x,1/2-y,z
x,-y,-z
-x,1/2+y,-z
-x,-y,-z
x,1/2+y,-z
-x,y,z
x,1/2-y,z
1/2+x,1/2+y,z
1/2-x,-y,z
1/2+x,1/2-y,-z
1/2-x,y,-z
1/2-x,1/2-y,-z
1/2+x,y,-z
1/2-x,1/2+y,z
1/2+x,-y,z
loop_
_atom_site_type_symbol
_atom_site_label
_atom_site_fract_x
_atom_site_fract_y
_atom_site_fract_z
Si Si1 0.892541 0.344936 0.452817
Si Si2 0.894656 0.842722 0.421383
Si Si3 0.902804 0.107855 0.845808
Si Si4 0.301429 0.654339 0.144082
Si Si5 0.147291 0.470156 0.238446
Si Si6 0.897168 0.966318 0.939596
Si Si7 0.853881 0.013664 0.361975
O O1 0.863651 0.250000 0.437756
O O2 0.859633 0.361963 0.516089
O O3 0.868374 0.416189 0.408910
O O4 0.000000 0.344602 0.454209
O O5 0.860288 0.750000 0.403539
O O6 0.000000 0.833624 0.427988
O O7 0.885113 0.921872 0.381356
O O8 0.806145 0.151992 0.847219
O O9 0.000000 0.151692 0.846665
O O10 0.901242 0.046238 0.792515
O O11 0.899679 0.045988 0.898717
O O12 0.329603 0.750000 0.138497
O O13 0.348804 0.609324 0.197067
O O14 0.332524 0.600277 0.090398
O O15 0.250000 0.500000 0.240881
O O16 0.112682 0.458077 0.301058
O O17 0.000000 0.934176 0.943638
O O18 0.869327 0.000000 0.000000
O O19 0.750000 0.000000 0.356673
#
# Coordination Sequence:
#
# PCOD9502948 Si02
#       7
#    16  16  16  16  16  16  16
#     4   9  19  35  52  71 100 139 178 217 268 333
#     4   9  19  36  54  72  99 136 178 223 270 327
#     4   9  18  34  55  78 107 146 188 226 269 323
#     4  10  20  35  57  83 113 147 181 227 283 329
#     4   8  18  36  52  70 102 143 182 217 263 328
#     4   9  18  35  59  82 108 149 193 225 258 313
#     4  11  21  32  52  80 106 136 176 225 281 336
#
# _framework density 19.509331
#
# number of rings (size 3 to 8) (size 9 to 14) (size 15 to 20)
#    0.000    2.714    0.000    3.000    0.000    6.286 
#    0.000    8.571    0.000    2.571    0.000    0.000 
#    0.000    0.000    0.000    0.000    0.000    0.000 
#
# Total GULP energy -311864.463776 kJ/mol
# GULP energy per Si atom -5569.008282 kJ/mol
# Density = 1.946493 g / cm^3
# Si number density = 19.509331 Si / 1000 Ang^3
#
#
#
# Elastic Constant Matrix: (Units=GPa)
#
#
# Indices 1 2 3 4 5 6 
#
# 1 71.1696 23.3480 23.4652 0.0000 0.0000 0.0000
# 2 23.3480 118.9326 68.8469 0.0000 0.0000 0.0000
# 3 23.4652 68.8469 123.7492 0.0000 0.0000 0.0000
# 4 0.0000 0.0000 0.0000 8.0190 0.0000 0.0000
# 5 0.0000 0.0000 0.0000 0.0000 25.6774 0.0000
# 6 0.0000 0.0000 0.0000 0.0000 0.0000 28.1495
#
#
#
# Elastic Compliance Matrix: (Units=1/GPa)
#
#
# Indices 1 2 3 4 5 6 
#
# 1 0.015289 -0.001952 -0.001813 0.000000 0.000000 0.000000
# 2 -0.001952 0.012651 -0.006668 0.000000 0.000000 0.000000
# 3 -0.001813 -0.006668 0.012135 0.000000 0.000000 0.000000
# 4 0.000000 0.000000 0.000000 0.124705 0.000000 0.000000
# 5 0.000000 0.000000 0.000000 0.000000 0.038945 0.000000
# 6 0.000000 0.000000 0.000000 0.000000 0.000000 0.035525
#
#
# Mechanical properties :
#
#
# Convention : Reuss Voigt Hill
#
# Bulk Modulus (GPa) = 52.06106 60.57461 56.31784
# Shear Modulus (GPa) = 18.76040 25.58192 22.17116
#
# Velocity S-wave (km/s) = 3.10435 3.62507 3.37477
# Velocity P-wave (km/s) = 6.29225 6.97409 6.64193
#
# Compressibility (1/GPa) = 0.01920821
#
# Stress axis : x y z
#
# Youngs Moduli (GPa) = 65.40607 79.04223 82.40885
#
# Poissons Ratio (x) = 0.15428 0.14943
# Poissons Ratio (y) = 0.12766 0.54954
# Poissons Ratio (z) = 0.11860 0.52709
#
# Static dielectric constant tensor:
#      x y z
#    x 1.743290 0.000000 0.000000 
#    y 0.000000 1.524050 0.000000 
#    z 0.000000 0.000000 1.719510 
# 
# From -- ./inp_files/41914.got.cif
#   From: 2010.05.17/outbox.cif.g08.bks.cpg/sg67_21_cif.got.tgz:41914.got - 2010.06.03 18:28:57.
