data_PCOD9502764
_publ_section_title
;
Structure prediction by ZEFSAII (Michael W. Deem and Ramdas Pophale) SiO2 
 PCOD9502764
Probable space group: C M M A
;
_chemical_formula_sum "Si O2"
_cell_formula_units_Z 120
_cell_length_a 24.912416
_cell_length_b 22.950639
_cell_length_c 11.969299
_cell_angle_alpha 90.000000
_cell_angle_beta 90.000000
_cell_angle_gamma 90.000000
_cell_volume 6843.516918
_symmetry_space_group_name_H-M "C M M A"
_symmetry_group_IT_number 67
_symmetry_cell_setting 'orthorhombic'
loop_
_space_group_symop_operation_xyz
x,y,z
-x,1/2-y,z
x,-y,-z
-x,1/2+y,-z
-x,-y,-z
x,1/2+y,-z
-x,y,z
x,1/2-y,z
1/2+x,1/2+y,z
1/2-x,-y,z
1/2+x,1/2-y,-z
1/2-x,y,-z
1/2-x,1/2-y,-z
1/2+x,y,-z
1/2-x,1/2+y,z
1/2+x,-y,z
loop_
_atom_site_type_symbol
_atom_site_label
_atom_site_fract_x
_atom_site_fract_y
_atom_site_fract_z
Si Si1 0.626189 0.000000 0.000000
Si Si2 0.063123 0.318510 0.130855
Si Si3 0.757315 0.818805 0.131339
Si Si4 0.186642 0.511050 0.771833
Si Si5 0.312636 0.181422 0.485901
Si Si6 0.150530 0.383774 0.732400
Si Si7 0.936501 0.612321 0.091507
Si Si8 0.157350 0.862035 0.722677
O O1 0.663488 0.981134 0.103093
O O2 0.589706 0.053133 0.042886
O O3 0.074693 0.250000 0.141742
O O4 0.101292 0.353431 0.214311
O O5 0.000000 0.328404 0.153527
O O6 0.073251 0.339483 0.004218
O O7 0.769276 0.750000 0.145121
O O8 0.804211 0.857825 0.183936
O O9 0.703227 0.834076 0.198278
O O10 0.750000 0.830853 0.000000
O O11 0.250000 0.500000 0.774692
O O12 0.159848 0.452910 0.722913
O O13 0.172261 0.570232 0.708331
O O14 0.313006 0.250000 0.459818
O O15 0.250000 0.163650 0.500000
O O16 0.340004 0.146976 0.385216
O O17 0.340716 0.169203 0.603666
O O18 0.094328 0.373158 0.794404
O O19 0.000000 0.605742 0.107028
#
# Coordination Sequence:
#
# PCOD9502764 Si02
#       8
#     8  16  16  16  16  16  16  16
#     4  10  20  34  58  86 120 162 196 236 292 368
#     4  10  21  38  60  88 120 154 199 254 305 353
#     4  11  22  34  55  83 115 150 190 245 303 366
#     4  11  21  34  55  87 125 156 190 247 303 365
#     4  11  22  39  61  83 115 158 203 248 298 364
#     4  11  23  37  55  86 117 153 196 245 299 356
#     4  10  21  38  60  86 118 157 200 246 302 361
#     4  12  22  38  59  86 117 159 202 246 299 363
#
# _framework density 17.534844
#
# number of rings (size 3 to 8) (size 9 to 14) (size 15 to 20)
#    0.000    1.200    4.000    2.800    1.867    2.667 
#    0.000    2.000    0.000    0.800    0.000    2.800 
#    0.000    0.000    0.000    0.000    0.000    0.000 
#
# Total GULP energy -335287.210232 kJ/mol
# GULP energy per Si atom -5588.120171 kJ/mol
# Density = 1.749493 g / cm^3
# Si number density = 17.534844 Si / 1000 Ang^3
#
#
#
# Elastic Constant Matrix: (Units=GPa)
#
#
# Indices 1 2 3 4 5 6 
#
# 1 84.9060 27.2335 35.2148 0.0000 0.0000 0.0000
# 2 27.2335 70.1334 24.3001 0.0000 0.0000 0.0000
# 3 35.2148 24.3001 93.5493 0.0000 0.0000 0.0000
# 4 0.0000 0.0000 0.0000 26.9867 0.0000 0.0000
# 5 0.0000 0.0000 0.0000 0.0000 13.6242 0.0000
# 6 0.0000 0.0000 0.0000 0.0000 0.0000 21.3597
#
#
#
# Elastic Compliance Matrix: (Units=1/GPa)
#
#
# Indices 1 2 3 4 5 6 
#
# 1 0.015032 -0.004260 -0.004552 0.000000 0.000000 0.000000
# 2 -0.004260 0.016876 -0.002780 0.000000 0.000000 0.000000
# 3 -0.004552 -0.002780 0.013125 0.000000 0.000000 0.000000
# 4 0.000000 0.000000 0.000000 0.037055 0.000000 0.000000
# 5 0.000000 0.000000 0.000000 0.000000 0.073399 0.000000
# 6 0.000000 0.000000 0.000000 0.000000 0.000000 0.046817
#
#
# Mechanical properties :
#
#
# Convention : Reuss Voigt Hill
#
# Bulk Modulus (GPa) = 45.76816 46.89839 46.33327
# Shear Modulus (GPa) = 21.48029 23.18346 22.33188
#
# Velocity S-wave (km/s) = 3.50381 3.64006 3.57258
# Velocity P-wave (km/s) = 6.52126 6.66863 6.59536
#
# Compressibility (1/GPa) = 0.02184925
#
# Stress axis : x y z
#
# Youngs Moduli (GPa) = 66.52462 59.25588 76.18928
#
# Poissons Ratio (x) = 0.25242 0.34681
# Poissons Ratio (y) = 0.28339 0.21181
# Poissons Ratio (z) = 0.30282 0.16474
#
# Static dielectric constant tensor:
#      x y z
#    x 1.583280 0.000000 0.000000 
#    y 0.000000 1.610300 0.000000 
#    z 0.000000 0.000000 1.576620 
# 
# From -- ./inp_files/22211.got.cif
#   From: 2010.05.17/outbox.cif.g08.bks.cpg/sg67_12_cif.got.tgz:22211.got - 2010.06.03 18:28:57.
