data_PCOD9502423
_publ_section_title
;
Structure prediction by ZEFSAII (Michael W. Deem and Ramdas Pophale) SiO2 
 PCOD9502423
Probable space group: C M M A
;
_chemical_formula_sum "Si O2"
_cell_formula_units_Z 88
_cell_length_a 27.246284
_cell_length_b 14.168679
_cell_length_c 12.715020
_cell_angle_alpha 90.000000
_cell_angle_beta 90.000000
_cell_angle_gamma 90.000000
_cell_volume 4908.555298
_symmetry_space_group_name_H-M "C M M A"
_symmetry_group_IT_number 67
_symmetry_cell_setting 'orthorhombic'
loop_
_space_group_symop_operation_xyz
x,y,z
-x,1/2-y,z
x,-y,-z
-x,1/2+y,-z
-x,-y,-z
x,1/2+y,-z
-x,y,z
x,1/2-y,z
1/2+x,1/2+y,z
1/2-x,-y,z
1/2+x,1/2-y,-z
1/2-x,y,-z
1/2-x,1/2-y,-z
1/2+x,y,-z
1/2-x,1/2+y,z
1/2+x,-y,z
loop_
_atom_site_type_symbol
_atom_site_label
_atom_site_fract_x
_atom_site_fract_y
_atom_site_fract_z
Si Si1 0.614311 0.500000 0.500000
Si Si2 0.307991 0.858543 0.979103
Si Si3 0.697690 0.037481 0.222443
Si Si4 0.146352 0.144618 0.208560
Si Si5 0.557819 0.641828 0.347292
Si Si6 0.298981 0.860873 0.565886
O O1 0.579654 0.558474 0.419692
O O2 0.652373 0.580665 0.538031
O O3 0.310899 0.750000 0.945514
O O4 0.326576 0.920551 0.882039
O O5 0.250000 0.876732 0.000000
O O6 0.338157 0.867441 0.087182
O O7 0.707731 0.114383 0.311415
O O8 0.750000 0.000000 0.187566
O O9 0.670477 0.944835 0.266079
O O10 0.164411 0.250000 0.240493
O O11 0.089509 0.140464 0.239708
O O12 0.500000 0.629333 0.331583
O O13 0.565268 0.750000 0.390373
O O14 0.306250 0.750000 0.548640
O O15 0.250000 0.888697 0.500000
#
# Coordination Sequence:
#
# PCOD9502423 Si02
#       6
#     8  16  16  16  16  16
#     4  12  20  40  60  88 110 154 198 242 292 344
#     4  10  20  33  53  82 115 151 191 234 281 342
#     4  12  21  34  54  81 115 160 195 232 283 343
#     4  10  21  36  56  84 115 147 187 238 292 346
#     4  10  22  40  63  88 112 144 194 252 302 349
#     4  11  25  39  54  83 125 164 196 231 282 353
#
# _framework density 17.927880999999999
#
# number of rings (size 3 to 8) (size 9 to 14) (size 15 to 20)
#    0.000    1.273    3.636    3.273    0.000    0.727 
#    0.000    0.000    0.000    2.727    0.000    0.000 
#    0.000    0.000    0.000    0.000    0.000    0.000 
#
# Total GULP energy -245204.325465 kJ/mol
# GULP energy per Si atom -5572.825579 kJ/mol
# Density = 1.788708 g / cm^3
# Si number density = 17.927881 Si / 1000 Ang^3
#
#
#
# Elastic Constant Matrix: (Units=GPa)
#
#
# Indices 1 2 3 4 5 6 
#
# 1 108.4103 55.7381 44.0492 0.0000 0.0000 0.0000
# 2 55.7381 123.8236 37.1026 0.0000 0.0000 0.0000
# 3 44.0492 37.1026 72.2185 0.0000 0.0000 0.0000
# 4 0.0000 0.0000 0.0000 24.1583 0.0000 0.0000
# 5 0.0000 0.0000 0.0000 0.0000 19.4867 0.0000
# 6 0.0000 0.0000 0.0000 0.0000 0.0000 27.2349
#
#
#
# Elastic Compliance Matrix: (Units=1/GPa)
#
#
# Indices 1 2 3 4 5 6 
#
# 1 0.014069 -0.004446 -0.006297 0.000000 0.000000 0.000000
# 2 -0.004446 0.010951 -0.002914 0.000000 0.000000 0.000000
# 3 -0.006297 -0.002914 0.019185 0.000000 0.000000 0.000000
# 4 0.000000 0.000000 0.000000 0.041394 0.000000 0.000000
# 5 0.000000 0.000000 0.000000 0.000000 0.051317 0.000000
# 6 0.000000 0.000000 0.000000 0.000000 0.000000 0.036718
#
#
# Mechanical properties :
#
#
# Convention : Reuss Voigt Hill
#
# Bulk Modulus (GPa) = 59.20697 64.24802 61.72749
# Shear Modulus (GPa) = 24.20413 25.34681 24.77547
#
# Velocity S-wave (km/s) = 3.67833 3.76416 3.72149
# Velocity P-wave (km/s) = 7.15101 7.40315 7.27817
#
# Compressibility (1/GPa) = 0.01688990
#
# Stress axis : x y z
#
# Youngs Moduli (GPa) = 71.07993 91.31978 52.12478
#
# Poissons Ratio (x) = 0.40601 0.32822
# Poissons Ratio (y) = 0.31603 0.15189
# Poissons Ratio (z) = 0.44758 0.26611
#
# Static dielectric constant tensor:
#      x y z
#    x 1.591190 0.000000 0.000000 
#    y 0.000000 1.683180 0.000000 
#    z 0.000000 0.000000 1.654000 
# 
# From -- ./inp_files/22818.got.cif
#   From: 2010.05.17/outbox.cif.g08.bks.cpg/sg67_12_cif.got.tgz:22818.got - 2010.06.03 18:28:57.
