data_PCOD9502277
_publ_section_title
;
Structure prediction by ZEFSAII (Michael W. Deem and Ramdas Pophale) SiO2 
 PCOD9502277
Probable space group: C M M A
;
_chemical_formula_sum "Si O2"
_cell_formula_units_Z 96
_cell_length_a 20.940294
_cell_length_b 16.891757
_cell_length_c 13.127738
_cell_angle_alpha 90.000000
_cell_angle_beta 90.000000
_cell_angle_gamma 90.000000
_cell_volume 4643.521926
_symmetry_space_group_name_H-M "C M M A"
_symmetry_group_IT_number 67
_symmetry_cell_setting 'orthorhombic'
loop_
_space_group_symop_operation_xyz
x,y,z
-x,1/2-y,z
x,-y,-z
-x,1/2+y,-z
-x,-y,-z
x,1/2+y,-z
-x,y,z
x,1/2-y,z
1/2+x,1/2+y,z
1/2-x,-y,z
1/2+x,1/2-y,-z
1/2-x,y,-z
1/2-x,1/2-y,-z
1/2+x,y,-z
1/2-x,1/2+y,z
1/2+x,-y,z
loop_
_atom_site_type_symbol
_atom_site_label
_atom_site_fract_x
_atom_site_fract_y
_atom_site_fract_z
Si Si1 0.569333 0.543157 0.797389
Si Si2 0.246694 0.842224 0.760108
Si Si3 0.313558 0.654171 0.444629
Si Si4 0.571549 0.659345 0.990472
Si Si5 0.326698 0.556632 0.098290
Si Si6 0.882385 0.657685 0.360561
O O1 0.500000 0.502217 0.802494
O O2 0.630301 0.489026 0.818601
O O3 0.574549 0.594780 0.696143
O O4 0.571339 0.605428 0.890513
O O5 0.238780 0.750000 0.791284
O O6 0.193699 0.863815 0.673913
O O7 0.235621 0.903546 0.851496
O O8 0.314608 0.846177 0.701814
O O9 0.309943 0.750000 0.448884
O O10 0.250000 0.622220 0.500000
O O11 0.370170 0.634366 0.521745
O O12 0.500000 0.652691 0.035887
O O13 0.582263 0.750000 0.961749
O O14 0.627299 0.627772 0.061621
O O15 0.318560 0.500000 0.000000
O O16 0.903020 0.750000 0.355235
#
# Coordination Sequence:
#
# PCOD9502277 Si02
#       6
#    16  16  16  16  16  16
#     4  10  20  33  49  70  99 135 170 204 245 294
#     4   9  17  32  55  79 101 128 164 206 253 301
#     4   7  12  26  50  77  99 120 154 203 251 292
#     4   9  17  31  51  71  90 122 174 223 254 287
#     4  10  20  33  49  70 103 137 167 202 248 299
#     4   9  17  31  53  79 102 125 161 208 253 299
#
# _framework density 20.673962
#
# number of rings (size 3 to 8) (size 9 to 14) (size 15 to 20)
#    0.000    3.000    0.000    3.500    0.000    3.667 
#    0.000    6.667    0.000   15.000    0.000    4.667 
#    0.000    0.000    0.000    0.000    0.000    0.000 
#
# Total GULP energy -267545.654155 kJ/mol
# GULP energy per Si atom -5573.867795 kJ/mol
# Density = 2.062691 g / cm^3
# Si number density = 20.673962 Si / 1000 Ang^3
#
#
#
# Elastic Constant Matrix: (Units=GPa)
#
#
# Indices 1 2 3 4 5 6 
#
# 1 48.8915 21.1096 4.8482 0.0000 0.0000 0.0000
# 2 21.1096 53.8498 16.9442 0.0000 0.0000 0.0000
# 3 4.8482 16.9442 49.9716 0.0000 0.0000 0.0000
# 4 0.0000 0.0000 0.0000 21.2841 0.0000 0.0000
# 5 0.0000 0.0000 0.0000 0.0000 24.5857 0.0000
# 6 0.0000 0.0000 0.0000 0.0000 0.0000 15.8336
#
#
#
# Elastic Compliance Matrix: (Units=1/GPa)
#
#
# Indices 1 2 3 4 5 6 
#
# 1 0.024664 -0.009981 0.000991 0.000000 0.000000 0.000000
# 2 -0.009981 0.024827 -0.007450 0.000000 0.000000 0.000000
# 3 0.000991 -0.007450 0.022441 0.000000 0.000000 0.000000
# 4 0.000000 0.000000 0.000000 0.046983 0.000000 0.000000
# 5 0.000000 0.000000 0.000000 0.000000 0.040674 0.000000
# 6 0.000000 0.000000 0.000000 0.000000 0.000000 0.063157
#
#
# Mechanical properties :
#
#
# Convention : Reuss Voigt Hill
#
# Bulk Modulus (GPa) = 25.60552 26.50189 26.05370
# Shear Modulus (GPa) = 18.61204 19.66140 19.13672
#
# Velocity S-wave (km/s) = 3.00370 3.08721 3.04574
# Velocity P-wave (km/s) = 4.94387 5.05516 4.99983
#
# Compressibility (1/GPa) = 0.03905408
#
# Stress axis : x y z
#
# Youngs Moduli (GPa) = 40.54429 40.27908 44.56075
#
# Poissons Ratio (x) = 0.40201 -0.04417
# Poissons Ratio (y) = 0.40465 0.33197
# Poissons Ratio (z) = -0.04019 0.30007
#
# Static dielectric constant tensor:
#      x y z
#    x 1.801860 0.000000 0.000000 
#    y 0.000000 1.723740 0.000000 
#    z 0.000000 0.000000 1.754300 
# 
# From -- ./inp_files/21956.got.cif
#   From: 2010.05.17/outbox.cif.g08.bks.cpg/sg67_11_cif.got.tgz:21956.got - 2010.06.03 18:28:57.
