data_PCOD9502587
_publ_section_title
;
Structure prediction by ZEFSAII (Michael W. Deem and Ramdas Pophale) SiO2 
 PCOD9502587
Probable space group: C M M A
;
_chemical_formula_sum "Si O2"
_cell_formula_units_Z 80
_cell_length_a 9.127268
_cell_length_b 15.695357
_cell_length_c 26.916258
_cell_angle_alpha 90.000000
_cell_angle_beta 90.000000
_cell_angle_gamma 90.000000
_cell_volume 3855.908180
_symmetry_space_group_name_H-M "C M M A"
_symmetry_group_IT_number 67
_symmetry_cell_setting 'orthorhombic'
loop_
_space_group_symop_operation_xyz
x,y,z
-x,1/2-y,z
x,-y,-z
-x,1/2+y,-z
-x,-y,-z
x,1/2+y,-z
-x,y,z
x,1/2-y,z
1/2+x,1/2+y,z
1/2-x,-y,z
1/2+x,1/2-y,-z
1/2-x,y,-z
1/2-x,1/2-y,-z
1/2+x,y,-z
1/2-x,1/2+y,z
1/2+x,-y,z
loop_
_atom_site_type_symbol
_atom_site_label
_atom_site_fract_x
_atom_site_fract_y
_atom_site_fract_z
Si Si1 0.171142 0.645775 0.158642
Si Si2 0.664900 0.647960 0.256440
Si Si3 0.165117 0.149019 0.452233
Si Si4 0.327883 0.853474 0.950587
Si Si5 0.325054 0.591608 0.645300
O O1 0.174581 0.750000 0.158877
O O2 0.266267 0.615162 0.205011
O O3 0.225306 0.618125 0.103955
O O4 0.000000 0.622263 0.164360
O O5 0.500000 0.614386 0.265093
O O6 0.654758 0.750000 0.251790
O O7 0.768723 0.630300 0.302983
O O8 0.149956 0.250000 0.460595
O O9 0.250000 0.112516 0.500000
O O10 0.259311 0.138620 0.402582
O O11 0.000000 0.113434 0.446579
O O12 0.500000 0.872167 0.953337
O O13 0.313096 0.750000 0.950878
O O14 0.250000 0.886410 0.000000
O O15 0.500000 0.588908 0.643561
O O16 0.250000 0.500000 0.642921
#
# Coordination Sequence:
#
# PCOD9502587 Si02
#       5
#    16  16  16  16  16
#     4   8  14  25  40  60  88 124 166 209 254 306
#     4  10  20  34  53  77 104 135 174 219 264 313
#     4  10  21  39  63  90 118 146 179 217 256 303
#     4   8  13  20  31  50  80 118 158 200 248 303
#     4  12  25  40  58  80 109 143 179 219 265 314
#
# _framework density 20.747382000000002
#
# number of rings (size 3 to 8) (size 9 to 14) (size 15 to 20)
#    0.000    2.400    0.000    4.800    0.000    6.000 
#    0.000    6.000    0.000    0.000    0.000    0.000 
#    0.000    0.800    0.000    8.400    0.000   12.200 
#
# Total GULP energy -223208.421569 kJ/mol
# GULP energy per Si atom -5580.210539 kJ/mol
# Density = 2.070016 g / cm^3
# Si number density = 20.747382 Si / 1000 Ang^3
#
#
#
# Elastic Constant Matrix: (Units=GPa)
#
#
# Indices 1 2 3 4 5 6 
#
# 1 170.5631 10.0235 105.2547 0.0000 0.0000 0.0000
# 2 10.0235 15.0576 1.6180 0.0000 0.0000 0.0000
# 3 105.2547 1.6180 199.7753 0.0000 0.0000 0.0000
# 4 0.0000 0.0000 0.0000 -115.9593 0.0000 0.0000
# 5 0.0000 0.0000 0.0000 0.0000 42.3640 0.0000
# 6 0.0000 0.0000 0.0000 0.0000 0.0000 14.7749
#
#
#
# Elastic Compliance Matrix: (Units=1/GPa)
#
#
# Indices 1 2 3 4 5 6 
#
# 1 0.009131 -0.005566 -0.004766 0.000000 0.000000 0.000000
# 2 -0.005566 0.069863 0.002367 0.000000 0.000000 0.000000
# 3 -0.004766 0.002367 0.007497 0.000000 0.000000 0.000000
# 4 0.000000 0.000000 0.000000 -0.008624 0.000000 0.000000
# 5 0.000000 0.000000 0.000000 0.000000 0.023605 0.000000
# 6 0.000000 0.000000 0.000000 0.000000 0.000000 0.067682
#
#
# Mechanical properties :
#
#
# Convention : Reuss Voigt Hill
#
# Bulk Modulus (GPa) = 14.17220 68.79872 41.48546
# Shear Modulus (GPa) = 23.96879 6.13591 15.05235
#
# Velocity S-wave (km/s) = 3.40261 1.72159 2.69644
# Velocity P-wave (km/s) = 4.72045 6.09787 5.45283
#
# Compressibility (1/GPa) = 0.07056066
#
# Stress axis : x y z
#
# Youngs Moduli (GPa) = 109.51742 14.31382 133.38059
#
# Poissons Ratio (x) = 0.07967 0.63565
# Poissons Ratio (y) = 0.60959 -0.31568
# Poissons Ratio (z) = 0.52193 -0.03388
#
# Static dielectric constant tensor:
#      x y z
#    x 1.721160 0.000000 0.000000 
#    y 0.000000 1.815270 0.000000 
#    z 0.000000 0.000000 1.786850 
# 
# From -- ./inp_files/43297.got.cif
#   From: 2010.05.17/outbox.cif.g08.bks.cpg/sg67_22_cif.got.tgz:43297.got - 2010.06.03 18:28:57.
