data_PCOD9502507
_publ_section_title
;
Structure prediction by ZEFSAII (Michael W. Deem and Ramdas Pophale) SiO2 
 PCOD9502507
Probable space group: C M M A
;
_chemical_formula_sum "Si O2"
_cell_formula_units_Z 104
_cell_length_a 30.516750
_cell_length_b 9.162533
_cell_length_c 23.611260
_cell_angle_alpha 90.000000
_cell_angle_beta 90.000000
_cell_angle_gamma 90.000000
_cell_volume 6601.961620
_symmetry_space_group_name_H-M "C M M A"
_symmetry_group_IT_number 67
_symmetry_cell_setting 'orthorhombic'
loop_
_space_group_symop_operation_xyz
x,y,z
-x,1/2-y,z
x,-y,-z
-x,1/2+y,-z
-x,-y,-z
x,1/2+y,-z
-x,y,z
x,1/2-y,z
1/2+x,1/2+y,z
1/2-x,-y,z
1/2+x,1/2-y,-z
1/2-x,y,-z
1/2-x,1/2-y,-z
1/2+x,y,-z
1/2-x,1/2+y,z
1/2+x,-y,z
loop_
_atom_site_type_symbol
_atom_site_label
_atom_site_fract_x
_atom_site_fract_y
_atom_site_fract_z
Si Si1 0.323045 0.077848 0.940897
Si Si2 0.581692 0.581419 0.109142
Si Si3 0.553216 0.416798 0.556243
Si Si4 0.387896 0.577676 0.780019
Si Si5 0.550945 0.424244 0.326972
Si Si6 0.706776 0.577628 0.824704
Si Si7 0.000000 0.921532 0.059631
O O1 0.311319 0.250000 0.941543
O O2 0.375598 0.067907 0.930805
O O3 0.303411 0.997599 0.885649
O O4 0.311282 0.000000 0.000000
O O5 0.567621 0.750000 0.108197
O O6 0.595374 0.529352 0.171247
O O7 0.543161 0.476157 0.090752
O O8 0.568673 0.500000 0.500000
O O9 0.500000 0.415587 0.553692
O O10 0.568283 0.250000 0.556475
O O11 0.563766 0.496926 0.614857
O O12 0.396548 0.750000 0.793776
O O13 0.414512 0.544750 0.722901
O O14 0.335292 0.560726 0.783638
O O15 0.500000 0.464328 0.312417
O O16 0.551107 0.250000 0.336249
O O17 0.713725 0.750000 0.833511
O O18 0.750000 0.500000 0.801702
O O19 0.000000 0.750000 0.053014
O O20 0.000000 0.000000 0.000000
#
# Coordination Sequence:
#
# PCOD9502507 Si02
#       7
#    16  16  16  16  16  16   8
#     4  10  20  34  52  72  94 117 145 184 235 291
#     4  10  21  35  50  69  92 120 154 194 238 283
#     4   9  16  26  41  63  93 130 169 204 238 270
#     4   9  19  34  51  72  97 127 159 196 239 284
#     4   9  17  29  46  69  98 131 166 198 233 277
#     4  10  20  35  53  72  95 121 154 192 238 289
#     4  12  24  36  50  66  88 118 157 198 237 282
#
# _framework density 15.752893
#
# number of rings (size 3 to 8) (size 9 to 14) (size 15 to 20)
#    0.000    2.308    0.000    3.000    1.077    6.462 
#    0.000    1.538    0.000    0.000    0.000    0.000 
#    0.000    0.615    0.000    7.077    0.000    2.462 
#
# Total GULP energy -289957.968616 kJ/mol
# GULP energy per Si atom -5576.114781 kJ/mol
# Density = 1.571704 g / cm^3
# Si number density = 15.752893 Si / 1000 Ang^3
#
#
#
# Elastic Constant Matrix: (Units=GPa)
#
#
# Indices 1 2 3 4 5 6 
#
# 1 70.4253 49.3913 37.0836 0.0000 0.0000 0.0000
# 2 49.3913 102.4359 49.2781 0.0000 0.0000 0.0000
# 3 37.0836 49.2781 92.7516 0.0000 0.0000 0.0000
# 4 0.0000 0.0000 0.0000 26.0883 0.0000 0.0000
# 5 0.0000 0.0000 0.0000 0.0000 4.2908 0.0000
# 6 0.0000 0.0000 0.0000 0.0000 0.0000 22.6965
#
#
#
# Elastic Compliance Matrix: (Units=1/GPa)
#
#
# Indices 1 2 3 4 5 6 
#
# 1 0.022707 -0.008841 -0.004382 0.000000 0.000000 0.000000
# 2 -0.008841 0.016556 -0.005261 0.000000 0.000000 0.000000
# 3 -0.004382 -0.005261 0.015329 0.000000 0.000000 0.000000
# 4 0.000000 0.000000 0.000000 0.038331 0.000000 0.000000
# 5 0.000000 0.000000 0.000000 0.000000 0.233056 0.000000
# 6 0.000000 0.000000 0.000000 0.000000 0.000000 0.044060
#
#
# Mechanical properties :
#
#
# Convention : Reuss Voigt Hill
#
# Bulk Modulus (GPa) = 56.74039 59.67987 58.21013
# Shear Modulus (GPa) = 12.11004 19.27243 15.69124
#
# Velocity S-wave (km/s) = 2.77564 3.50154 3.15951
# Velocity P-wave (km/s) = 6.80951 7.36987 7.09523
#
# Compressibility (1/GPa) = 0.01762413
#
# Stress axis : x y z
#
# Youngs Moduli (GPa) = 44.03950 60.40122 65.23733
#
# Poissons Ratio (x) = 0.53399 0.28584
# Poissons Ratio (y) = 0.38934 0.34324
# Poissons Ratio (z) = 0.19296 0.31779
#
# Static dielectric constant tensor:
#      x y z
#    x 1.531500 0.000000 0.000000 
#    y 0.000000 1.527220 0.000000 
#    z 0.000000 0.000000 1.535420 
# 
# From -- ./inp_files/37516.got.cif
#   From: 2010.05.17/outbox.cif.g08.bks.cpg/sg67_19_cif.got.tgz:37516.got - 2010.06.03 18:28:57.
