data_PCOD9502581
_publ_section_title
;
Structure prediction by ZEFSAII (Michael W. Deem and Ramdas Pophale) SiO2 
 PCOD9502581
Probable space group: C M M A
;
_chemical_formula_sum "Si O2"
_cell_formula_units_Z 96
_cell_length_a 19.877101
_cell_length_b 8.700873
_cell_length_c 31.227536
_cell_angle_alpha 90.000000
_cell_angle_beta 90.000000
_cell_angle_gamma 90.000000
_cell_volume 5400.744000
_symmetry_space_group_name_H-M "C M M A"
_symmetry_group_IT_number 67
_symmetry_cell_setting 'orthorhombic'
loop_
_space_group_symop_operation_xyz
x,y,z
-x,1/2-y,z
x,-y,-z
-x,1/2+y,-z
-x,-y,-z
x,1/2+y,-z
-x,y,z
x,1/2-y,z
1/2+x,1/2+y,z
1/2-x,-y,z
1/2+x,1/2-y,-z
1/2-x,y,-z
1/2-x,1/2-y,-z
1/2+x,y,-z
1/2-x,1/2+y,z
1/2+x,-y,z
loop_
_atom_site_type_symbol
_atom_site_label
_atom_site_fract_x
_atom_site_fract_y
_atom_site_fract_z
Si Si1 0.324179 0.933288 0.788005
Si Si2 0.079162 0.933121 0.716270
Si Si3 0.824508 0.433714 0.119277
Si Si4 0.675328 0.934774 0.545958
Si Si5 0.579199 0.933665 0.953240
Si Si6 0.578197 0.934760 0.623730
O O1 0.320256 0.750000 0.791201
O O2 0.250000 0.000000 0.778495
O O3 0.375600 0.983904 0.751408
O O4 0.344759 0.002344 0.834043
O O5 0.087240 0.750000 0.720106
O O6 0.000000 0.970533 0.722172
O O7 0.097729 0.986644 0.668383
O O8 0.821613 0.250000 0.120604
O O9 0.750000 0.500000 0.110536
O O10 0.875492 0.490638 0.083146
O O11 0.678406 0.750000 0.543543
O O12 0.625543 0.979159 0.584300
O O13 0.652781 0.000000 0.500000
O O14 0.750000 0.000000 0.553824
O O15 0.500000 0.966351 0.945809
O O16 0.588359 0.750000 0.953102
O O17 0.596589 0.000000 0.000000
O O18 0.500000 0.972885 0.614935
O O19 0.582671 0.750000 0.629054
#
# Coordination Sequence:
#
# PCOD9502581 Si02
#       6
#    16  16  16  16  16  16
#     4  11  22  38  59  82 111 145 182 225 273 324
#     4  10  21  37  57  82 111 143 181 224 269 320
#     4  11  22  38  59  83 113 146 184 228 274 325
#     4  10  20  34  53  76 104 137 173 216 263 315
#     4  10  21  38  59  84 114 147 185 228 275 326
#     4   9  19  36  55  76 104 139 178 219 265 316
#
# _framework density 17.775328999999999
#
# number of rings (size 3 to 8) (size 9 to 14) (size 15 to 20)
#    0.000    1.833    0.000    6.000    0.000    5.333 
#    0.000    3.333    0.000    0.000    0.000    0.000 
#    0.000    0.000    0.000    0.000    0.000    0.000 
#
# Total GULP energy -268156.582397 kJ/mol
# GULP energy per Si atom -5586.595467 kJ/mol
# Density = 1.773487 g / cm^3
# Si number density = 17.775329 Si / 1000 Ang^3
#
#
#
# Elastic Constant Matrix: (Units=GPa)
#
#
# Indices 1 2 3 4 5 6 
#
# 1 82.0995 64.2009 111.3490 0.0000 0.0000 0.0000
# 2 64.2009 118.0762 89.5397 0.0000 0.0000 0.0000
# 3 111.3490 89.5397 179.8220 0.0000 0.0000 0.0000
# 4 0.0000 0.0000 0.0000 36.5431 0.0000 0.0000
# 5 0.0000 0.0000 0.0000 0.0000 42.6276 0.0000
# 6 0.0000 0.0000 0.0000 0.0000 0.0000 28.1781
#
#
#
# Elastic Compliance Matrix: (Units=1/GPa)
#
#
# Indices 1 2 3 4 5 6 
#
# 1 0.082597 -0.009841 -0.046245 0.000000 0.000000 0.000000
# 2 -0.009841 0.014780 -0.001265 0.000000 0.000000 0.000000
# 3 -0.046245 -0.001265 0.034827 0.000000 0.000000 0.000000
# 4 0.000000 0.000000 0.000000 0.027365 0.000000 0.000000
# 5 0.000000 0.000000 0.000000 0.000000 0.023459 0.000000
# 6 0.000000 0.000000 0.000000 0.000000 0.000000 0.035489
#
#
# Mechanical properties :
#
#
# Convention : Reuss Voigt Hill
#
# Bulk Modulus (GPa) = 57.14320 101.13077 79.13699
# Shear Modulus (GPa) = 14.74692 29.13032 21.93862
#
# Velocity S-wave (km/s) = 2.88345 4.05261 3.51695
# Velocity P-wave (km/s) = 6.58050 8.88345 7.81724
#
# Compressibility (1/GPa) = 0.01749989
#
# Stress axis : x y z
#
# Youngs Moduli (GPa) = 12.10694 67.66074 28.71322
#
# Poissons Ratio (x) = 0.66586 1.32786
# Poissons Ratio (y) = 0.11915 0.03633
# Poissons Ratio (z) = 0.55989 0.08562
#
# Static dielectric constant tensor:
#      x y z
#    x 1.586810 0.000000 0.000000 
#    y 0.000000 1.596090 0.000000 
#    z 0.000000 0.000000 1.578130 
# 
# From -- ./inp_files/44566.got.cif
#   From: 2010.05.17/outbox.cif.g08.bks.cpg/sg67_23_cif.got.tgz:44566.got - 2010.06.03 18:28:57.
