data_PCOD9502501
_publ_section_title
;
Structure prediction by ZEFSAII (Michael W. Deem and Ramdas Pophale) SiO2 
 PCOD9502501
Probable space group: C M M A
;
_chemical_formula_sum "Si O2"
_cell_formula_units_Z 96
_cell_length_a 9.636888
_cell_length_b 14.258917
_cell_length_c 31.861069
_cell_angle_alpha 90.000000
_cell_angle_beta 90.000000
_cell_angle_gamma 90.000000
_cell_volume 4378.080027
_symmetry_space_group_name_H-M "C M M A"
_symmetry_group_IT_number 67
_symmetry_cell_setting 'orthorhombic'
loop_
_space_group_symop_operation_xyz
x,y,z
-x,1/2-y,z
x,-y,-z
-x,1/2+y,-z
-x,-y,-z
x,1/2+y,-z
-x,y,z
x,1/2-y,z
1/2+x,1/2+y,z
1/2-x,-y,z
1/2+x,1/2-y,-z
1/2-x,y,-z
1/2-x,1/2-y,-z
1/2+x,y,-z
1/2-x,1/2+y,z
1/2+x,-y,z
loop_
_atom_site_type_symbol
_atom_site_label
_atom_site_fract_x
_atom_site_fract_y
_atom_site_fract_z
Si Si1 0.841838 0.135467 0.460018
Si Si2 0.167462 0.098204 0.961313
Si Si3 0.844162 0.635230 0.791453
Si Si4 0.341628 0.864159 0.713190
Si Si5 0.840660 0.864302 0.381354
Si Si6 0.347967 0.859150 0.865365
O O1 0.846049 0.250000 0.460065
O O2 0.750000 0.108223 0.500000
O O3 0.765253 0.106544 0.417319
O O4 0.000000 0.102085 0.462647
O O5 0.183537 0.138983 0.914813
O O6 0.000000 0.091559 0.969466
O O7 0.250000 0.000000 0.957857
O O8 0.250000 0.145456 0.000000
O O9 0.849603 0.750000 0.791251
O O10 0.757950 0.606835 0.750588
O O11 0.768337 0.604619 0.834111
O O12 0.000000 0.600147 0.789628
O O13 0.500000 0.894608 0.720586
O O14 0.342796 0.750000 0.713469
O O15 0.300399 0.892054 0.665975
O O16 0.842734 0.750000 0.382014
O O17 0.000000 0.894195 0.389460
O O18 0.500000 0.903789 0.859425
O O19 0.360660 0.750000 0.853879
#
# Coordination Sequence:
#
# PCOD9502501 Si02
#       6
#    16  16  16  16  16  16
#     4   9  15  20  25  32  43  61  87 124 171 220
#     4  10  20  34  52  71  92 119 148 179 214 253
#     4   9  16  24  36  56  79 101 126 159 198 237
#     4   8  13  21  32  44  61  87 114 141 179 230
#     4   8  13  20  28  37  49  68  97 131 169 217
#     4   9  18  32  48  66  89 117 147 176 210 254
#
# _framework density 21.927420000000001
#
# number of rings (size 3 to 8) (size 9 to 14) (size 15 to 20)
#    0.000    3.167    0.000    3.000    0.000    6.333 
#    0.000    3.333    0.000    0.000    0.000    0.000 
#    0.000    0.000    0.000    0.000    0.000    0.000 
#
# Total GULP energy -267835.263467 kJ/mol
# GULP energy per Si atom -5579.901322 kJ/mol
# Density = 2.187751 g / cm^3
# Si number density = 21.927420 Si / 1000 Ang^3
#
#
#
# Elastic Constant Matrix: (Units=GPa)
#
#
# Indices 1 2 3 4 5 6 
#
# 1 200.1916 13.6650 163.9422 0.0000 0.0000 0.0000
# 2 13.6650 62.6654 -1.4091 0.0000 0.0000 0.0000
# 3 163.9422 -1.4091 213.8141 0.0000 0.0000 0.0000
# 4 0.0000 0.0000 0.0000 -519.1301 0.0000 0.0000
# 5 0.0000 0.0000 0.0000 0.0000 36.7941 0.0000
# 6 0.0000 0.0000 0.0000 0.0000 0.0000 -0.6230
#
#
#
# Elastic Compliance Matrix: (Units=1/GPa)
#
#
# Indices 1 2 3 4 5 6 
#
# 1 0.014081 -0.003314 -0.010818 0.000000 0.000000 0.000000
# 2 -0.003314 0.016740 0.002651 0.000000 0.000000 0.000000
# 3 -0.010818 0.002651 0.012989 0.000000 0.000000 0.000000
# 4 0.000000 0.000000 0.000000 -0.001926 0.000000 0.000000
# 5 0.000000 0.000000 0.000000 0.000000 0.027178 0.000000
# 6 0.000000 0.000000 0.000000 0.000000 0.000000 -1.605150
#
#
# Mechanical properties :
#
#
# Convention : Reuss Voigt Hill
#
# Bulk Modulus (GPa) = 47.96546 92.11859 70.04203
# Shear Modulus (GPa) = -3.31966 -76.56026 -39.93996
#
# Velocity S-wave (km/s) = -1.23175 -5.91533 -4.27249
# Velocity P-wave (km/s) = 4.46085 2.13376 2.77004
#
# Compressibility (1/GPa) = 0.02084833
#
# Stress axis : x y z
#
# Youngs Moduli (GPa) = 71.01854 59.73719 76.98586
#
# Poissons Ratio (x) = 0.19796 0.83286
# Poissons Ratio (y) = 0.23534 -0.20410
# Poissons Ratio (z) = 0.76830 -0.15837
#
# Static dielectric constant tensor:
#      x y z
#    x 1.765970 0.000000 0.000000 
#    y 0.000000 2.029650 0.000000 
#    z 0.000000 0.000000 1.788600 
# 
# From -- ./inp_files/43660.got.cif
#   From: 2010.05.17/outbox.cif.g08.bks.cpg/sg67_22_cif.got.tgz:43660.got - 2010.06.03 18:28:57.
