data_PCOD9502986
_publ_section_title
;
Structure prediction by ZEFSAII (Michael W. Deem and Ramdas Pophale) SiO2 
 PCOD9502986
Probable space group: C M M A
;
_chemical_formula_sum "Si O2"
_cell_formula_units_Z 96
_cell_length_a 17.864024
_cell_length_b 14.387403
_cell_length_c 21.609485
_cell_angle_alpha 90.000000
_cell_angle_beta 90.000000
_cell_angle_gamma 90.000000
_cell_volume 5554.003115
_symmetry_space_group_name_H-M "C M M A"
_symmetry_group_IT_number 67
_symmetry_cell_setting 'orthorhombic'
loop_
_space_group_symop_operation_xyz
x,y,z
-x,1/2-y,z
x,-y,-z
-x,1/2+y,-z
-x,-y,-z
x,1/2+y,-z
-x,y,z
x,1/2-y,z
1/2+x,1/2+y,z
1/2-x,-y,z
1/2+x,1/2-y,-z
1/2-x,y,-z
1/2-x,1/2-y,-z
1/2+x,y,-z
1/2-x,1/2+y,z
1/2+x,-y,z
loop_
_atom_site_type_symbol
_atom_site_label
_atom_site_fract_x
_atom_site_fract_y
_atom_site_fract_z
Si Si1 0.846155 0.250000 0.552705
Si Si2 0.586154 0.444670 0.439616
Si Si3 0.911911 0.860870 0.803186
Si Si4 0.089765 0.360423 0.977183
Si Si5 0.584923 0.898577 0.340619
Si Si6 0.661877 0.975703 0.089456
Si Si7 0.326619 0.750000 0.413042
O O1 0.877185 0.347166 0.575257
O O2 0.759345 0.250000 0.569353
O O3 0.865650 0.250000 0.479678
O O4 0.618555 0.500000 0.500000
O O5 0.500000 0.426000 0.456320
O O6 0.588533 0.506002 0.377977
O O7 0.894492 0.750000 0.805811
O O8 0.904132 0.896178 0.732732
O O9 0.861629 0.922769 0.848243
O O10 0.000000 0.870256 0.820855
O O11 0.105242 0.250000 0.969883
O O12 0.116729 0.427699 0.921579
O O13 0.000000 0.370637 0.986450
O O14 0.134434 0.405085 0.035175
O O15 0.500000 0.861478 0.351185
O O16 0.646598 0.836358 0.373344
O O17 0.750000 0.000000 0.085636
#
# Coordination Sequence:
#
# PCOD9502986 Si02
#       7
#     8  16  16  16  16  16   8
#     4  11  23  35  51  83 117 147 172 222 299 354
#     4  10  20  35  58  81 104 140 186 233 275 331
#     4  10  20  37  62  84 107 143 192 244 281 322
#     4  10  20  36  61  87 114 152 194 235 276 324
#     4  10  20  37  60  83 104 141 193 241 281 326
#     4  11  22  35  54  87 121 151 183 227 286 341
#     4  11  21  35  53  85 115 143 179 225 293 351
#
# _framework density 17.284829999999999
#
# number of rings (size 3 to 8) (size 9 to 14) (size 15 to 20)
#    0.000    1.667    2.500    4.000    0.000    4.667 
#    3.000    0.000    1.833    0.000    0.000    0.000 
#    0.000    0.000    0.000    0.000    0.000    0.000 
#
# Total GULP energy -267551.590437 kJ/mol
# GULP energy per Si atom -5573.991467 kJ/mol
# Density = 1.724549 g / cm^3
# Si number density = 17.284830 Si / 1000 Ang^3
#
#
#
# Elastic Constant Matrix: (Units=GPa)
#
#
# Indices 1 2 3 4 5 6 
#
# 1 85.0509 59.3186 49.3848 0.0000 0.0000 0.0000
# 2 59.3186 141.1946 53.9314 0.0000 0.0000 0.0000
# 3 49.3848 53.9314 91.3562 0.0000 0.0000 0.0000
# 4 0.0000 0.0000 0.0000 21.7498 0.0000 0.0000
# 5 0.0000 0.0000 0.0000 0.0000 18.9974 0.0000
# 6 0.0000 0.0000 0.0000 0.0000 0.0000 23.8598
#
#
#
# Elastic Compliance Matrix: (Units=1/GPa)
#
#
# Indices 1 2 3 4 5 6 
#
# 1 0.019986 -0.005513 -0.007550 0.000000 0.000000 0.000000
# 2 -0.005513 0.010665 -0.003316 0.000000 0.000000 0.000000
# 3 -0.007550 -0.003316 0.016985 0.000000 0.000000 0.000000
# 4 0.000000 0.000000 0.000000 0.045977 0.000000 0.000000
# 5 0.000000 0.000000 0.000000 0.000000 0.052639 0.000000
# 6 0.000000 0.000000 0.000000 0.000000 0.000000 0.041911
#
#
# Mechanical properties :
#
#
# Convention : Reuss Voigt Hill
#
# Bulk Modulus (GPa) = 67.20717 71.43014 69.31865
# Shear Modulus (GPa) = 22.13560 23.25252 22.69406
#
# Velocity S-wave (km/s) = 3.58248 3.67175 3.62739
# Velocity P-wave (km/s) = 7.48858 7.70654 7.59834
#
# Compressibility (1/GPa) = 0.01487936
#
# Stress axis : x y z
#
# Youngs Moduli (GPa) = 50.03423 93.76388 58.87631
#
# Poissons Ratio (x) = 0.51692 0.44449
# Poissons Ratio (y) = 0.27584 0.19523
# Poissons Ratio (z) = 0.37774 0.31091
#
# Static dielectric constant tensor:
#      x y z
#    x 1.591520 0.000000 0.000000 
#    y 0.000000 1.632320 0.000000 
#    z 0.000000 0.000000 1.596170 
# 
# From -- ./inp_files/38511.got.cif
#   From: 2010.05.17/outbox.cif.g08.bks.cpg/sg67_20_cif.got.tgz:38511.got - 2010.06.03 18:28:57.
