data_PCOD9502722
_publ_section_title
;
Structure prediction by ZEFSAII (Michael W. Deem and Ramdas Pophale) SiO2 
 PCOD9502722
Probable space group: C M M A
;
_chemical_formula_sum "Si O2"
_cell_formula_units_Z 112
_cell_length_a 17.911867
_cell_length_b 29.572693
_cell_length_c 12.326428
_cell_angle_alpha 90.000000
_cell_angle_beta 90.000000
_cell_angle_gamma 90.000000
_cell_volume 6529.335338
_symmetry_space_group_name_H-M "C M M A"
_symmetry_group_IT_number 67
_symmetry_cell_setting 'orthorhombic'
loop_
_space_group_symop_operation_xyz
x,y,z
-x,1/2-y,z
x,-y,-z
-x,1/2+y,-z
-x,-y,-z
x,1/2+y,-z
-x,y,z
x,1/2-y,z
1/2+x,1/2+y,z
1/2-x,-y,z
1/2+x,1/2-y,-z
1/2-x,y,-z
1/2-x,1/2-y,-z
1/2+x,y,-z
1/2-x,1/2+y,z
1/2+x,-y,z
loop_
_atom_site_type_symbol
_atom_site_label
_atom_site_fract_x
_atom_site_fract_y
_atom_site_fract_z
Si Si1 0.912033 0.698617 0.252597
Si Si2 0.586950 0.891364 0.036420
Si Si3 0.335906 0.950630 0.460716
Si Si4 0.661784 0.452007 0.798388
Si Si5 0.411437 0.606611 0.635343
Si Si6 0.161762 0.698247 0.019422
Si Si7 0.334876 0.557113 0.837895
O O1 0.900936 0.750000 0.292086
O O2 0.896689 0.659329 0.338804
O O3 0.000000 0.694390 0.220879
O O4 0.861953 0.692112 0.145443
O O5 0.500000 0.890551 0.009798
O O6 0.603797 0.918942 0.145080
O O7 0.618358 0.840709 0.043573
O O8 0.630464 0.917493 0.940425
O O9 0.250000 0.947015 0.500000
O O10 0.339713 0.949583 0.331408
O O11 0.381666 0.911832 0.521483
O O12 0.363233 0.000000 0.500000
O O13 0.648625 0.503583 0.836111
O O14 0.745383 0.438552 0.835580
O O15 0.500000 0.599144 0.644022
O O16 0.369505 0.578695 0.729468
O O17 0.141590 0.750000 0.990319
O O18 0.250000 0.692825 0.000000
#
# Coordination Sequence:
#
# PCOD9502722 Si02
#       7
#    16  16  16  16  16  16  16
#     4   9  18  34  56  83 112 141 180 233 287 333
#     4  12  25  37  54  84 122 154 185 228 286 346
#     4  11  20  39  58  80 109 148 195 237 281 332
#     4  11  23  38  59  80 114 157 194 228 279 341
#     4  11  21  33  58  87 110 141 184 239 289 327
#     4  10  20  34  56  83 110 143 187 235 282 338
#     4  11  20  39  58  82 110 151 194 233 275 334
#
# _framework density 17.153354
#
# number of rings (size 3 to 8) (size 9 to 14) (size 15 to 20)
#    0.000    1.286    4.286    3.429    0.000    4.571 
#    0.000    0.000    0.000    1.286    0.000    2.000 
#    0.000    0.000    0.000    0.000    0.000    0.000 
#
# Total GULP energy -312757.143962 kJ/mol
# GULP energy per Si atom -5584.948999 kJ/mol
# Density = 1.711431 g / cm^3
# Si number density = 17.153354 Si / 1000 Ang^3
#
#
#
# Elastic Constant Matrix: (Units=GPa)
#
#
# Indices 1 2 3 4 5 6 
#
# 1 65.3215 59.5777 24.0999 0.0000 0.0000 0.0000
# 2 59.5777 115.8398 36.6776 0.0000 0.0000 0.0000
# 3 24.0999 36.6776 70.0686 0.0000 0.0000 0.0000
# 4 0.0000 0.0000 0.0000 20.3700 0.0000 0.0000
# 5 0.0000 0.0000 0.0000 0.0000 20.1690 0.0000
# 6 0.0000 0.0000 0.0000 0.0000 0.0000 24.7510
#
#
#
# Elastic Compliance Matrix: (Units=1/GPa)
#
#
# Indices 1 2 3 4 5 6 
#
# 1 0.029230 -0.014204 -0.002618 0.000000 0.000000 0.000000
# 2 -0.014204 0.017250 -0.004144 0.000000 0.000000 0.000000
# 3 -0.002618 -0.004144 0.017342 0.000000 0.000000 0.000000
# 4 0.000000 0.000000 0.000000 0.049092 0.000000 0.000000
# 5 0.000000 0.000000 0.000000 0.000000 0.049581 0.000000
# 6 0.000000 0.000000 0.000000 0.000000 0.000000 0.040402
#
#
# Mechanical properties :
#
#
# Convention : Reuss Voigt Hill
#
# Bulk Modulus (GPa) = 45.68643 54.66003 50.17323
# Shear Modulus (GPa) = 19.83125 21.78298 20.80712
#
# Velocity S-wave (km/s) = 3.40386 3.56743 3.48660
# Velocity P-wave (km/s) = 6.49155 6.99310 6.74699
#
# Compressibility (1/GPa) = 0.02188834
#
# Stress axis : x y z
#
# Youngs Moduli (GPa) = 34.21098 57.97015 57.66501
#
# Poissons Ratio (x) = 0.82344 0.15099
# Poissons Ratio (y) = 0.48595 0.23897
# Poissons Ratio (z) = 0.08958 0.24023
#
# Static dielectric constant tensor:
#      x y z
#    x 1.573060 0.000000 0.000000 
#    y 0.000000 1.593520 0.000000 
#    z 0.000000 0.000000 1.560820 
# 
# From -- ./inp_files/18637.got.cif
#   From: 2010.05.17/outbox.cif.g08.bks.cpg/sg67_10_cif.got.tgz:18637.got - 2010.06.03 18:28:57.
