data_PCOD9502069
_publ_section_title
;
Structure prediction by ZEFSAII (Michael W. Deem and Ramdas Pophale) SiO2 
 PCOD9502069
Probable space group: C M M A
;
_chemical_formula_sum "Si O2"
_cell_formula_units_Z 116
_cell_length_a 14.871150
_cell_length_b 18.305079
_cell_length_c 22.665012
_cell_angle_alpha 90.000000
_cell_angle_beta 90.000000
_cell_angle_gamma 90.000000
_cell_volume 6169.814617
_symmetry_space_group_name_H-M "C M M A"
_symmetry_group_IT_number 67
_symmetry_cell_setting 'orthorhombic'
loop_
_space_group_symop_operation_xyz
x,y,z
-x,1/2-y,z
x,-y,-z
-x,1/2+y,-z
-x,-y,-z
x,1/2+y,-z
-x,y,z
x,1/2-y,z
1/2+x,1/2+y,z
1/2-x,-y,z
1/2+x,1/2-y,-z
1/2-x,y,-z
1/2-x,1/2-y,-z
1/2+x,y,-z
1/2-x,1/2+y,z
1/2+x,-y,z
loop_
_atom_site_type_symbol
_atom_site_label
_atom_site_fract_x
_atom_site_fract_y
_atom_site_fract_z
Si Si1 0.896949 0.830172 0.617475
Si Si2 0.894910 0.569636 0.785286
Si Si3 0.105594 0.505812 0.912763
Si Si4 0.898622 0.056711 0.688969
Si Si5 0.741144 0.333115 0.726216
Si Si6 0.500000 0.250000 0.025074
Si Si7 0.856224 0.516087 0.565305
Si Si8 0.848547 0.875131 0.011017
O O1 0.889545 0.750000 0.588458
O O2 0.827514 0.831658 0.671027
O O3 0.875443 0.899173 0.577633
O O4 0.000000 0.837534 0.639057
O O5 0.877252 0.525838 0.845253
O O6 0.885001 0.514846 0.729781
O O7 0.820478 0.631931 0.777239
O O8 0.000000 0.594718 0.786688
O O9 0.157394 0.435335 0.936637
O O10 0.000000 0.487916 0.918890
O O11 0.123997 0.575195 0.954544
O O12 0.824013 0.115402 0.707742
O O13 0.000000 0.083722 0.699965
O O14 0.891695 0.030587 0.620966
O O15 0.769193 0.250000 0.739039
O O16 0.421668 0.314162 0.023405
O O17 0.891848 0.500000 0.500000
O O18 0.750000 0.500000 0.565148
O O19 0.750000 0.844016 0.000000
#
# Coordination Sequence:
#
# PCOD9502069 Si02
#       8
#    16  16  16  16  16   4  16  16
#     4  10  20  36  59  84 116 150 188 238 303 361
#     4  10  21  37  67  93 117 157 204 252 306 366
#     4  10  19  40  65  90 123 160 211 262 308 364
#     4  11  22  39  61  84 115 161 209 248 299 362
#     4  11  22  38  58  86 124 157 189 249 305 365
#     4  12  22  42  60  86 144 170 202 272 314 372
#     4  11  21  37  61  91 119 156 204 253 306 361
#     4  11  22  38  65  92 123 173 213 257 314 373
#
# _framework density 18.801213000000001
#
# number of rings (size 3 to 8) (size 9 to 14) (size 15 to 20)
#    0.000    1.379    4.138    2.690    0.000    4.414 
#    1.241    2.069    4.552    0.000    0.000    0.000 
#    0.000    0.000    0.000    0.000    0.000    0.000 
#
# Total GULP energy -323277.546856 kJ/mol
# GULP energy per Si atom -5573.750808 kJ/mol
# Density = 1.875842 g / cm^3
# Si number density = 18.801213 Si / 1000 Ang^3
#
#
#
# Elastic Constant Matrix: (Units=GPa)
#
#
# Indices 1 2 3 4 5 6 
#
# 1 102.1063 51.7455 10.6663 0.0000 0.0000 0.0000
# 2 51.7455 118.4473 21.2483 0.0000 0.0000 0.0000
# 3 10.6663 21.2483 81.3072 0.0000 0.0000 0.0000
# 4 0.0000 0.0000 0.0000 -2.0701 0.0000 0.0000
# 5 0.0000 0.0000 0.0000 0.0000 18.4351 0.0000
# 6 0.0000 0.0000 0.0000 0.0000 0.0000 19.6649
#
#
#
# Elastic Compliance Matrix: (Units=1/GPa)
#
#
# Indices 1 2 3 4 5 6 
#
# 1 0.012582 -0.005457 -0.000225 0.000000 0.000000 0.000000
# 2 -0.005457 0.011224 -0.002217 0.000000 0.000000 0.000000
# 3 -0.000225 -0.002217 0.012908 0.000000 0.000000 0.000000
# 4 0.000000 0.000000 0.000000 -0.483060 0.000000 0.000000
# 5 0.000000 0.000000 0.000000 0.000000 0.054244 0.000000
# 6 0.000000 0.000000 0.000000 0.000000 0.000000 0.050852
#
#
# Mechanical properties :
#
#
# Convention : Reuss Voigt Hill
#
# Bulk Modulus (GPa) = 47.80721 52.13121 49.96921
# Shear Modulus (GPa) = -15.69962 21.75270 3.02654
#
# Velocity S-wave (km/s) = -2.89283 3.40514 1.27014
# Velocity P-wave (km/s) = 3.78484 6.57630 5.36529
#
# Compressibility (1/GPa) = 0.02091735
#
# Stress axis : x y z
#
# Youngs Moduli (GPa) = 79.47578 89.09375 77.47139
#
# Poissons Ratio (x) = 0.48614 0.01740
# Poissons Ratio (y) = 0.43366 0.17179
# Poissons Ratio (z) = 0.01785 0.19756
#
# Static dielectric constant tensor:
#      x y z
#    x 1.671670 0.000000 0.000000 
#    y 0.000000 1.639560 0.000000 
#    z 0.000000 0.000000 1.655760 
# 
# From -- ./inp_files/42049.got.cif
#   From: 2010.05.17/outbox.cif.g08.bks.cpg/sg67_22_cif.got.tgz:42049.got - 2010.06.03 18:28:57.
