data_PCOD9502317
_publ_section_title
;
Structure prediction by ZEFSAII (Michael W. Deem and Ramdas Pophale) SiO2 
 PCOD9502317
Probable space group: C M M A
;
_chemical_formula_sum "Si O2"
_cell_formula_units_Z 96
_cell_length_a 24.874041
_cell_length_b 14.323100
_cell_length_c 10.141972
_cell_angle_alpha 90.000000
_cell_angle_beta 90.000000
_cell_angle_gamma 90.000000
_cell_volume 3613.314610
_symmetry_space_group_name_H-M "C M M A"
_symmetry_group_IT_number 67
_symmetry_cell_setting 'orthorhombic'
loop_
_space_group_symop_operation_xyz
x,y,z
-x,1/2-y,z
x,-y,-z
-x,1/2+y,-z
-x,-y,-z
x,1/2+y,-z
-x,y,z
x,1/2-y,z
1/2+x,1/2+y,z
1/2-x,-y,z
1/2+x,1/2-y,-z
1/2-x,y,-z
1/2-x,1/2-y,-z
1/2+x,y,-z
1/2-x,1/2+y,z
1/2+x,-y,z
loop_
_atom_site_type_symbol
_atom_site_label
_atom_site_fract_x
_atom_site_fract_y
_atom_site_fract_z
Si Si1 0.403826 0.863303 0.597049
Si Si2 0.326628 0.604360 0.973035
Si Si3 0.323145 0.354461 0.739960
Si Si4 0.941271 0.636176 0.689793
Si Si5 0.442018 0.636874 0.882154
Si Si6 0.789536 0.859605 0.324412
O O1 0.401492 0.750000 0.603976
O O2 0.436159 0.884790 0.465896
O O3 0.432145 0.894129 0.731484
O O4 0.341636 0.896518 0.597744
O O5 0.391115 0.608418 0.966001
O O6 0.307515 0.636153 0.829646
O O7 0.309144 0.500000 0.000000
O O8 0.308784 0.654532 0.105713
O O9 0.329600 0.250000 0.683300
O O10 0.382543 0.398641 0.737704
O O11 0.271144 0.399077 0.670269
O O12 0.941361 0.750000 0.710100
O O13 0.000000 0.604011 0.738689
O O14 0.500000 0.605944 0.930126
O O15 0.441648 0.750000 0.882519
O O16 0.784315 0.750000 0.358353
#
# Coordination Sequence:
#
# PCOD9502317 Si02
#       6
#    16  16  16  16  16  16
#     4   8  14  27  49  77 103 126 161 208 253 296
#     4  11  22  34  50  73 102 135 172 214 259 306
#     4  10  20  33  50  74 104 135 167 206 255 310
#     4   9  17  29  48  76 107 134 159 196 251 310
#     4   9  17  31  53  77 101 135 177 215 249 290
#     4   9  18  33  53  75  99 130 171 216 255 296
#
# _framework density 26.568403
#
# number of rings (size 3 to 8) (size 9 to 14) (size 15 to 20)
#    0.000    2.667    0.000    3.500    0.000    6.333 
#    0.000    5.000    0.000    4.000    0.000   10.500 
#    0.000    0.000    0.000    0.000    0.000    0.000 
#
# Total GULP energy -268337.976716 kJ/mol
# GULP energy per Si atom -5590.374515 kJ/mol
# Density = 2.650793 g / cm^3
# Si number density = 26.568403 Si / 1000 Ang^3
#
#
#
# Elastic Constant Matrix: (Units=GPa)
#
#
# Indices 1 2 3 4 5 6 
#
# 1 252.2341 10.1134 15.8432 0.0000 0.0000 0.0000
# 2 10.1134 81.6394 1.3695 0.0000 0.0000 0.0000
# 3 15.8432 1.3695 67.0563 0.0000 0.0000 0.0000
# 4 0.0000 0.0000 0.0000 33.7387 0.0000 0.0000
# 5 0.0000 0.0000 0.0000 0.0000 10.4791 0.0000
# 6 0.0000 0.0000 0.0000 0.0000 0.0000 -14.7493
#
#
#
# Elastic Compliance Matrix: (Units=1/GPa)
#
#
# Indices 1 2 3 4 5 6 
#
# 1 0.004043 -0.000485 -0.000945 0.000000 0.000000 0.000000
# 2 -0.000485 0.012311 -0.000137 0.000000 0.000000 0.000000
# 3 -0.000945 -0.000137 0.015139 0.000000 0.000000 0.000000
# 4 0.000000 0.000000 0.000000 0.029640 0.000000 0.000000
# 5 0.000000 0.000000 0.000000 0.000000 0.095428 0.000000
# 6 0.000000 0.000000 0.000000 0.000000 0.000000 -0.067800
#
#
# Mechanical properties :
#
#
# Convention : Reuss Voigt Hill
#
# Bulk Modulus (GPa) = 35.26193 50.62023 42.94108
# Shear Modulus (GPa) = 49.33446 30.80062 40.06754
#
# Velocity S-wave (km/s) = 4.31383 3.40854 3.88763
# Velocity P-wave (km/s) = 6.17358 5.88090 6.02902
#
# Compressibility (1/GPa) = 0.02835920
#
# Stress axis : x y z
#
# Youngs Moduli (GPa) = 247.31654 81.22577 66.05454
#
# Poissons Ratio (x) = 0.03940 0.06245
# Poissons Ratio (y) = 0.11996 0.00904
# Poissons Ratio (z) = 0.23382 0.01111
#
# Static dielectric constant tensor:
#      x y z
#    x 2.085630 0.000000 0.000000 
#    y 0.000000 1.955120 0.000000 
#    z 0.000000 0.000000 2.021390 
# 
# From -- ./inp_files/21965.got.cif
#   From: 2010.05.17/outbox.cif.g08.bks.cpg/sg67_11_cif.got.tgz:21965.got - 2010.06.03 18:28:57.
