data_PCOD9502895
_publ_section_title
;
Structure prediction by ZEFSAII (Michael W. Deem and Ramdas Pophale) SiO2 
 PCOD9502895
Probable space group: C M M A
;
_chemical_formula_sum "Si O2"
_cell_formula_units_Z 112
_cell_length_a 15.335921
_cell_length_b 23.292541
_cell_length_c 14.529328
_cell_angle_alpha 90.000000
_cell_angle_beta 90.000000
_cell_angle_gamma 90.000000
_cell_volume 5190.058576
_symmetry_space_group_name_H-M "C M M A"
_symmetry_group_IT_number 67
_symmetry_cell_setting 'orthorhombic'
loop_
_space_group_symop_operation_xyz
x,y,z
-x,1/2-y,z
x,-y,-z
-x,1/2+y,-z
-x,-y,-z
x,1/2+y,-z
-x,y,z
x,1/2-y,z
1/2+x,1/2+y,z
1/2-x,-y,z
1/2+x,1/2-y,-z
1/2-x,y,-z
1/2-x,1/2-y,-z
1/2+x,y,-z
1/2-x,1/2+y,z
1/2+x,-y,z
loop_
_atom_site_type_symbol
_atom_site_label
_atom_site_fract_x
_atom_site_fract_y
_atom_site_fract_z
Si Si1 0.600554 0.814301 0.542147
Si Si2 0.649340 0.613008 0.702225
Si Si3 0.394611 0.056447 0.117850
Si Si4 0.101884 0.186913 0.191754
Si Si5 0.106152 0.070927 0.095809
Si Si6 0.346880 0.873590 0.364334
Si Si7 0.143400 0.502236 0.606535
O O1 0.500000 0.814700 0.512638
O O2 0.635936 0.750000 0.535324
O O3 0.603912 0.835999 0.646941
O O4 0.649134 0.855927 0.470897
O O5 0.640315 0.602805 0.810190
O O6 0.748827 0.620959 0.671609
O O7 0.612699 0.553630 0.659658
O O8 0.500000 0.056988 0.123561
O O9 0.364208 0.990578 0.137043
O O10 0.371304 0.069808 0.012288
O O11 0.140480 0.250000 0.171564
O O12 0.138178 0.129461 0.142951
O O13 0.108538 0.173471 0.300235
O O14 0.000000 0.189350 0.166339
O O15 0.000000 0.070320 0.101962
O O16 0.386898 0.936982 0.353694
O O17 0.117906 0.500000 0.500000
O O18 0.250000 0.500000 0.609487
#
# Coordination Sequence:
#
# PCOD9502895 Si02
#       7
#    16  16  16  16  16  16  16
#     4  11  24  40  55  74 105 146 192 237 275 322
#     4  11  21  35  57  82 111 145 180 223 275 334
#     4   9  17  33  58  86 115 144 179 227 280 332
#     4  10  20  35  56  81 108 141 185 234 277 323
#     4   8  16  33  58  85 112 146 184 223 273 334
#     4  11  21  35  56  79 110 145 182 221 276 332
#     4   9  17  32  51  75 106 138 171 211 261 310
#
# _framework density 21.579718
#
# number of rings (size 3 to 8) (size 9 to 14) (size 15 to 20)
#    0.000    2.143    1.429    3.429    0.000    2.857 
#    0.000    4.286    0.000    5.143    0.000    0.000 
#    0.000    0.000    0.000    0.000    0.000    0.000 
#
# Total GULP energy -312668.823257 kJ/mol
# GULP energy per Si atom -5583.371844 kJ/mol
# Density = 2.153060 g / cm^3
# Si number density = 21.579718 Si / 1000 Ang^3
#
#
#
# Elastic Constant Matrix: (Units=GPa)
#
#
# Indices 1 2 3 4 5 6 
#
# 1 44.4807 12.9771 8.9337 0.0000 0.0000 0.0000
# 2 12.9771 111.4901 28.6386 0.0000 0.0000 0.0000
# 3 8.9337 28.6386 87.2276 0.0000 0.0000 0.0000
# 4 0.0000 0.0000 0.0000 22.1285 0.0000 0.0000
# 5 0.0000 0.0000 0.0000 0.0000 20.3270 0.0000
# 6 0.0000 0.0000 0.0000 0.0000 0.0000 8.5215
#
#
#
# Elastic Compliance Matrix: (Units=1/GPa)
#
#
# Indices 1 2 3 4 5 6 
#
# 1 0.023487 -0.002311 -0.001647 0.000000 0.000000 0.000000
# 2 -0.002311 0.010023 -0.003054 0.000000 0.000000 0.000000
# 3 -0.001647 -0.003054 0.012636 0.000000 0.000000 0.000000
# 4 0.000000 0.000000 0.000000 0.045191 0.000000 0.000000
# 5 0.000000 0.000000 0.000000 0.000000 0.049196 0.000000
# 6 0.000000 0.000000 0.000000 0.000000 0.000000 0.117350
#
#
# Mechanical properties :
#
#
# Convention : Reuss Voigt Hill
#
# Bulk Modulus (GPa) = 31.13140 38.25524 34.69332
# Shear Modulus (GPa) = 17.69212 23.03867 20.36539
#
# Velocity S-wave (km/s) = 2.86641 3.27097 3.07535
# Velocity P-wave (km/s) = 5.04109 5.65964 5.35930
#
# Compressibility (1/GPa) = 0.03212191
#
# Stress axis : x y z
#
# Youngs Moduli (GPa) = 42.57751 99.77187 79.14129
#
# Poissons Ratio (x) = 0.23055 0.13033
# Poissons Ratio (y) = 0.09839 0.24170
# Poissons Ratio (z) = 0.07012 0.30471
#
# Static dielectric constant tensor:
#      x y z
#    x 1.817570 0.000000 0.000000 
#    y 0.000000 1.794940 0.000000 
#    z 0.000000 0.000000 1.785070 
# 
# From -- ./inp_files/27467.got.cif
#   From: 2010.05.17/outbox.cif.g08.bks.cpg/sg67_14_cif.got.tgz:27467.got - 2010.06.03 18:28:57.
