data_PCOD9502994
_publ_section_title
;
Structure prediction by ZEFSAII (Michael W. Deem and Ramdas Pophale) SiO2 
 PCOD9502994
Probable space group: C M M A
;
_chemical_formula_sum "Si O2"
_cell_formula_units_Z 112
_cell_length_a 28.209499
_cell_length_b 13.756851
_cell_length_c 15.803013
_cell_angle_alpha 90.000000
_cell_angle_beta 90.000000
_cell_angle_gamma 90.000000
_cell_volume 6132.736484
_symmetry_space_group_name_H-M "C M M A"
_symmetry_group_IT_number 67
_symmetry_cell_setting 'orthorhombic'
loop_
_space_group_symop_operation_xyz
x,y,z
-x,1/2-y,z
x,-y,-z
-x,1/2+y,-z
-x,-y,-z
x,1/2+y,-z
-x,y,z
x,1/2-y,z
1/2+x,1/2+y,z
1/2-x,-y,z
1/2+x,1/2-y,-z
1/2-x,y,-z
1/2-x,1/2-y,-z
1/2+x,y,-z
1/2-x,1/2+y,z
1/2+x,-y,z
loop_
_atom_site_type_symbol
_atom_site_label
_atom_site_fract_x
_atom_site_fract_y
_atom_site_fract_z
Si Si1 0.943656 0.134282 0.212201
Si Si2 0.052293 0.867620 0.591723
Si Si3 0.182352 0.135159 0.799893
Si Si4 0.650547 0.365017 0.527155
Si Si5 0.724738 0.135946 0.910706
Si Si6 0.305634 0.019729 0.370654
Si Si7 0.628496 0.012834 0.902264
O O1 0.932450 0.250000 0.204266
O O2 0.936972 0.104721 0.310890
O O3 0.910827 0.069612 0.151944
O O4 0.000000 0.123399 0.194236
O O5 0.050226 0.750000 0.593769
O O6 0.094881 0.890601 0.528674
O O7 0.000000 0.903690 0.568591
O O8 0.175864 0.250000 0.785542
O O9 0.234650 0.121363 0.840581
O O10 0.180162 0.072537 0.714953
O O11 0.143200 0.090936 0.862802
O O12 0.656695 0.250000 0.528390
O O13 0.677461 0.411859 0.447999
O O14 0.670546 0.415835 0.611406
O O15 0.712039 0.250000 0.911946
O O16 0.677753 0.073656 0.898726
O O17 0.750000 0.113445 0.000000
O O18 0.250000 0.000000 0.373423
O O19 0.614650 0.000000 0.000000
#
# Coordination Sequence:
#
# PCOD9502994 Si02
#       7
#    16  16  16  16  16  16  16
#     4   9  19  36  57  84 116 146 184 238 294 347
#     4   8  15  31  56  83 109 136 172 227 288 338
#     4  11  24  39  56  81 117 158 196 238 290 346
#     4  10  20  35  58  84 111 144 188 239 289 345
#     4  10  20  36  56  81 113 146 186 234 288 344
#     4  11  23  38  54  78 115 156 195 234 281 340
#     4  12  22  33  58  83 112 148 194 241 290 347
#
# _framework density 18.262646
#
# number of rings (size 3 to 8) (size 9 to 14) (size 15 to 20)
#    0.000    1.857    1.429    4.714    0.000    2.571 
#    0.000    5.000    0.000    1.286    0.000    0.000 
#    0.000    0.000    0.000    0.000    0.000    0.000 
#
# Total GULP energy -312618.435321 kJ/mol
# GULP energy per Si atom -5582.472059 kJ/mol
# Density = 1.822108 g / cm^3
# Si number density = 18.262646 Si / 1000 Ang^3
#
#
#
# Elastic Constant Matrix: (Units=GPa)
#
#
# Indices 1 2 3 4 5 6 
#
# 1 53.2205 12.4163 13.7349 0.0000 0.0000 0.0000
# 2 12.4163 84.6528 30.1529 0.0000 0.0000 0.0000
# 3 13.7349 30.1529 85.5809 0.0000 0.0000 0.0000
# 4 0.0000 0.0000 0.0000 25.0683 0.0000 0.0000
# 5 0.0000 0.0000 0.0000 0.0000 20.1621 0.0000
# 6 0.0000 0.0000 0.0000 0.0000 0.0000 63.7639
#
#
#
# Elastic Compliance Matrix: (Units=1/GPa)
#
#
# Indices 1 2 3 4 5 6 
#
# 1 0.019904 -0.002037 -0.002477 0.000000 0.000000 0.000000
# 2 -0.002037 0.013717 -0.004506 0.000000 0.000000 0.000000
# 3 -0.002477 -0.004506 0.013670 0.000000 0.000000 0.000000
# 4 0.000000 0.000000 0.000000 0.039891 0.000000 0.000000
# 5 0.000000 0.000000 0.000000 0.000000 0.049598 0.000000
# 6 0.000000 0.000000 0.000000 0.000000 0.000000 0.015683
#
#
# Mechanical properties :
#
#
# Convention : Reuss Voigt Hill
#
# Bulk Modulus (GPa) = 34.18655 37.34027 35.76341
# Shear Modulus (GPa) = 27.73882 32.94219 30.34050
#
# Velocity S-wave (km/s) = 3.90151 4.25173 4.08038
# Velocity P-wave (km/s) = 6.24946 6.67784 6.46720
#
# Compressibility (1/GPa) = 0.02925127
#
# Stress axis : x y z
#
# Youngs Moduli (GPa) = 50.24070 72.90362 73.15340
#
# Poissons Ratio (x) = 0.14852 0.18118
# Poissons Ratio (y) = 0.10235 0.32962
# Poissons Ratio (z) = 0.12443 0.32850
#
# Static dielectric constant tensor:
#      x y z
#    x 1.632410 0.000000 0.000000 
#    y 0.000000 1.637790 0.000000 
#    z 0.000000 0.000000 1.640180 
# 
# From -- ./inp_files/30818.got.cif
#   From: 2010.05.17/outbox.cif.g08.bks.cpg/sg67_16_cif.got.tgz:30818.got - 2010.06.03 18:28:57.
