data_PCOD9502606
_publ_section_title
;
Structure prediction by ZEFSAII (Michael W. Deem and Ramdas Pophale) SiO2 
 PCOD9502606
Probable space group: C M M A
;
_chemical_formula_sum "Si O2"
_cell_formula_units_Z 96
_cell_length_a 8.760904
_cell_length_b 26.363274
_cell_length_c 23.845590
_cell_angle_alpha 90.000000
_cell_angle_beta 90.000000
_cell_angle_gamma 90.000000
_cell_volume 5507.523226
_symmetry_space_group_name_H-M "C M M A"
_symmetry_group_IT_number 67
_symmetry_cell_setting 'orthorhombic'
loop_
_space_group_symop_operation_xyz
x,y,z
-x,1/2-y,z
x,-y,-z
-x,1/2+y,-z
-x,-y,-z
x,1/2+y,-z
-x,y,z
x,1/2-y,z
1/2+x,1/2+y,z
1/2-x,-y,z
1/2+x,1/2-y,-z
1/2-x,y,-z
1/2-x,1/2-y,-z
1/2+x,y,-z
1/2-x,1/2+y,z
1/2+x,-y,z
loop_
_atom_site_type_symbol
_atom_site_label
_atom_site_fract_x
_atom_site_fract_y
_atom_site_fract_z
Si Si1 0.182245 0.750000 0.370209
Si Si2 0.683484 0.847162 0.173990
Si Si3 0.682445 0.809812 0.939414
Si Si4 0.682150 0.250000 0.237431
Si Si5 0.683872 0.554290 0.243601
Si Si6 0.183765 0.344309 0.437910
Si Si7 0.683673 0.445799 0.626480
O O1 0.212491 0.750000 0.303796
O O2 0.253801 0.700569 0.399008
O O3 0.000000 0.750000 0.378776
O O4 0.500000 0.844954 0.173351
O O5 0.746508 0.841376 0.111262
O O6 0.747138 0.799727 0.209100
O O7 0.731562 0.899160 0.204465
O O8 0.500000 0.814703 0.939888
O O9 0.719193 0.750000 0.929663
O O10 0.750000 0.823506 0.000000
O O11 0.500000 0.250000 0.228023
O O12 0.500000 0.551733 0.242635
O O13 0.750000 0.500000 0.226160
O O14 0.730522 0.563172 0.308581
O O15 0.250000 0.338526 0.500000
O O16 0.230542 0.398500 0.411619
O O17 0.000000 0.341979 0.439424
O O18 0.500000 0.448740 0.625295
O O19 0.750000 0.500000 0.608549
#
# Coordination Sequence:
#
# PCOD9502606 Si02
#       7
#     8  16  16   8  16  16  16
#     4  11  24  40  57  78 107 142 181 222 267 321
#     4  11  21  34  55  82 114 147 183 224 269 321
#     4  10  20  34  53  78 112 149 187 226 270 321
#     4  11  23  36  53  82 113 142 177 220 272 323
#     4   9  19  35  55  80 107 141 181 220 267 321
#     4  11  23  39  58  79 106 140 179 221 268 324
#     4   9  19  36  57  80 107 138 175 220 270 322
#
# _framework density 17.430702
#
# number of rings (size 3 to 8) (size 9 to 14) (size 15 to 20)
#    0.000    1.833    0.833    3.250    0.000    6.333 
#    0.000    5.000    0.000    0.500    0.000    3.500 
#    0.000    0.000    0.000    0.000    0.000    0.000 
#
# Total GULP energy -268142.799456 kJ/mol
# GULP energy per Si atom -5586.308322 kJ/mol
# Density = 1.739103 g / cm^3
# Si number density = 17.430702 Si / 1000 Ang^3
#
#
#
# Elastic Constant Matrix: (Units=GPa)
#
#
# Indices 1 2 3 4 5 6 
#
# 1 42.7815 34.0784 44.6137 0.0000 0.0000 0.0000
# 2 34.0784 106.6787 56.9787 0.0000 0.0000 0.0000
# 3 44.6137 56.9787 99.8161 0.0000 0.0000 0.0000
# 4 0.0000 0.0000 0.0000 -34.9301 0.0000 0.0000
# 5 0.0000 0.0000 0.0000 0.0000 27.2211 0.0000
# 6 0.0000 0.0000 0.0000 0.0000 0.0000 31.2232
#
#
#
# Elastic Compliance Matrix: (Units=1/GPa)
#
#
# Indices 1 2 3 4 5 6 
#
# 1 0.045785 -0.005317 -0.017429 0.000000 0.000000 0.000000
# 2 -0.005317 0.014103 -0.005674 0.000000 0.000000 0.000000
# 3 -0.017429 -0.005674 0.021047 0.000000 0.000000 0.000000
# 4 0.000000 0.000000 0.000000 -0.028629 0.000000 0.000000
# 5 0.000000 0.000000 0.000000 0.000000 0.036736 0.000000
# 6 0.000000 0.000000 0.000000 0.000000 0.000000 0.032027
#
#
# Mechanical properties :
#
#
# Convention : Reuss Voigt Hill
#
# Bulk Modulus (GPa) = 41.50119 57.84642 49.67381
# Shear Modulus (GPa) = 26.88993 12.27652 19.58323
#
# Velocity S-wave (km/s) = 3.93195 2.65675 3.35549
# Velocity P-wave (km/s) = 6.66893 6.53220 6.60092
#
# Compressibility (1/GPa) = 0.02409569
#
# Stress axis : x y z
#
# Youngs Moduli (GPa) = 21.84102 70.90664 47.51169
#
# Poissons Ratio (x) = 0.37701 0.82808
# Poissons Ratio (y) = 0.11613 0.26958
# Poissons Ratio (z) = 0.38067 0.40233
#
# Static dielectric constant tensor:
#      x y z
#    x 1.585220 0.000000 0.000000 
#    y 0.000000 1.565160 0.000000 
#    z 0.000000 0.000000 1.577070 
# 
# From -- ./inp_files/40859.got.cif
#   From: 2010.05.17/outbox.cif.g08.bks.cpg/sg67_21_cif.got.tgz:40859.got - 2010.06.03 18:28:57.
