data_PCOD9502990
_publ_section_title
;
Structure prediction by ZEFSAII (Michael W. Deem and Ramdas Pophale) SiO2 
 PCOD9502990
Probable space group: C M M A
;
_chemical_formula_sum "Si O2"
_cell_formula_units_Z 80
_cell_length_a 17.368344
_cell_length_b 16.036237
_cell_length_c 15.136062
_cell_angle_alpha 90.000000
_cell_angle_beta 90.000000
_cell_angle_gamma 90.000000
_cell_volume 4215.739590
_symmetry_space_group_name_H-M "C M M A"
_symmetry_group_IT_number 67
_symmetry_cell_setting 'orthorhombic'
loop_
_space_group_symop_operation_xyz
x,y,z
-x,1/2-y,z
x,-y,-z
-x,1/2+y,-z
-x,-y,-z
x,1/2+y,-z
-x,y,z
x,1/2-y,z
1/2+x,1/2+y,z
1/2-x,-y,z
1/2+x,1/2-y,-z
1/2-x,y,-z
1/2-x,1/2-y,-z
1/2+x,y,-z
1/2-x,1/2+y,z
1/2+x,-y,z
loop_
_atom_site_type_symbol
_atom_site_label
_atom_site_fract_x
_atom_site_fract_y
_atom_site_fract_z
Si Si1 0.408367 0.849158 0.593240
Si Si2 0.851529 0.845174 0.217539
Si Si3 0.408868 0.148599 0.602427
Si Si4 0.196580 0.418865 0.241602
Si Si5 0.590759 0.505691 0.896758
O O1 0.500000 0.860074 0.598143
O O2 0.391931 0.750000 0.591987
O O3 0.373747 0.880033 0.684869
O O4 0.384670 0.880323 0.496413
O O5 0.878694 0.750000 0.210555
O O6 0.759332 0.850263 0.214243
O O7 0.888413 0.904157 0.144077
O O8 0.500000 0.128411 0.614686
O O9 0.403233 0.250000 0.605733
O O10 0.354622 0.108903 0.675818
O O11 0.250000 0.500000 0.259172
O O12 0.140644 0.442121 0.161197
O O13 0.500000 0.490237 0.886067
O O14 0.610084 0.500000 0.000000
#
# Coordination Sequence:
#
# PCOD9502990 Si02
#       5
#    16  16  16  16  16
#     4   8  15  29  51  79 108 140 180 223 261 297
#     4  10  20  35  58  84 108 138 178 222 262 309
#     4   9  17  32  55  79 106 143 184 223 259 302
#     4  10  21  35  52  78 113 145 173 211 267 327
#     4  10  22  41  61  78 102 138 177 221 272 320
#
# _framework density 18.976503999999998
#
# number of rings (size 3 to 8) (size 9 to 14) (size 15 to 20)
#    0.000    2.600    0.000    3.000    0.000    5.600 
#    0.000   13.000    0.000   13.200    0.000    0.000 
#    0.000    0.000    0.000    0.000    0.000    0.000 
#
# Total GULP energy -223062.771827 kJ/mol
# GULP energy per Si atom -5576.569296 kJ/mol
# Density = 1.893331 g / cm^3
# Si number density = 18.976504 Si / 1000 Ang^3
#
#
#
# Elastic Constant Matrix: (Units=GPa)
#
#
# Indices 1 2 3 4 5 6 
#
# 1 103.7152 35.1551 99.8858 0.0000 0.0000 0.0000
# 2 35.1551 32.3014 49.0032 0.0000 0.0000 0.0000
# 3 99.8858 49.0032 194.8518 0.0000 0.0000 0.0000
# 4 0.0000 0.0000 0.0000 35.9741 0.0000 0.0000
# 5 0.0000 0.0000 0.0000 0.0000 -55.5436 0.0000
# 6 0.0000 0.0000 0.0000 0.0000 0.0000 16.7822
#
#
#
# Elastic Compliance Matrix: (Units=1/GPa)
#
#
# Indices 1 2 3 4 5 6 
#
# 1 0.021066 -0.010581 -0.008138 0.000000 0.000000 0.000000
# 2 -0.010581 0.055371 -0.008501 0.000000 0.000000 0.000000
# 3 -0.008138 -0.008501 0.011442 0.000000 0.000000 0.000000
# 4 0.000000 0.000000 0.000000 0.027798 0.000000 0.000000
# 5 0.000000 0.000000 0.000000 0.000000 -0.018004 0.000000
# 6 0.000000 0.000000 0.000000 0.000000 0.000000 0.059587
#
#
# Mechanical properties :
#
#
# Convention : Reuss Voigt Hill
#
# Bulk Modulus (GPa) = 29.90582 77.66185 53.78384
# Shear Modulus (GPa) = 22.43709 9.23084 15.83397
#
# Velocity S-wave (km/s) = 3.44228 2.20792 2.89173
# Velocity P-wave (km/s) = 5.62073 6.89304 6.28914
#
# Compressibility (1/GPa) = 0.03343831
#
# Stress axis : x y z
#
# Youngs Moduli (GPa) = 47.47081 18.05996 87.40058
#
# Poissons Ratio (x) = 0.19110 0.71123
# Poissons Ratio (y) = 0.50230 0.74299
# Poissons Ratio (z) = 0.38630 0.15353
#
# Static dielectric constant tensor:
#      x y z
#    x 1.653360 0.000000 0.000000 
#    y 0.000000 1.690580 0.000000 
#    z 0.000000 0.000000 1.645320 
# 
# From -- ./inp_files/28403.got.cif
#   From: 2010.05.17/outbox.cif.g08.bks.cpg/sg67_15_cif.got.tgz:28403.got - 2010.06.03 18:28:57.
