data_PCOD9502346
_publ_section_title
;
Structure prediction by ZEFSAII (Michael W. Deem and Ramdas Pophale) SiO2 
 PCOD9502346
Probable space group: C M M A
;
_chemical_formula_sum "Si O2"
_cell_formula_units_Z 88
_cell_length_a 16.243106
_cell_length_b 8.725002
_cell_length_c 31.862726
_cell_angle_alpha 90.000000
_cell_angle_beta 90.000000
_cell_angle_gamma 90.000000
_cell_volume 4515.621608
_symmetry_space_group_name_H-M "C M M A"
_symmetry_group_IT_number 67
_symmetry_cell_setting 'orthorhombic'
loop_
_space_group_symop_operation_xyz
x,y,z
-x,1/2-y,z
x,-y,-z
-x,1/2+y,-z
-x,-y,-z
x,1/2+y,-z
-x,y,z
x,1/2-y,z
1/2+x,1/2+y,z
1/2-x,-y,z
1/2+x,1/2-y,-z
1/2-x,y,-z
1/2-x,1/2-y,-z
1/2+x,y,-z
1/2-x,1/2+y,z
1/2+x,-y,z
loop_
_atom_site_type_symbol
_atom_site_label
_atom_site_fract_x
_atom_site_fract_y
_atom_site_fract_z
Si Si1 0.341278 0.567784 0.366641
Si Si2 0.500000 0.065231 0.953318
Si Si3 0.096950 0.420850 0.717715
Si Si4 0.843557 0.566000 0.542501
Si Si5 0.656452 0.065348 0.896357
Si Si6 0.658322 0.064775 0.192103
O O1 0.337170 0.750000 0.366562
O O2 0.250000 0.500000 0.366364
O O3 0.381335 0.513166 0.323730
O O4 0.380441 0.523195 0.411881
O O5 0.500000 0.250000 0.954481
O O6 0.585071 0.020579 0.929428
O O7 0.500000 0.000000 0.000000
O O8 0.135274 0.250000 0.713953
O O9 0.121093 0.484104 0.763273
O O10 0.000000 0.406174 0.718558
O O11 0.882713 0.500000 0.500000
O O12 0.840239 0.750000 0.539261
O O13 0.750000 0.500000 0.543477
O O14 0.663319 0.250000 0.895301
O O15 0.750000 0.000000 0.903718
O O16 0.624709 0.004791 0.851103
O O17 0.655171 0.250000 0.189666
O O18 0.750000 0.000000 0.193097
#
# Coordination Sequence:
#
# PCOD9502346 Si02
#       6
#    16   8  16  16  16  16
#     4  10  20  33  51  75 102 135 173 215 264 320
#     4  10  24  42  62  90 124 160 202 246 293 348
#     4  10  22  37  52  75 107 141 179 222 269 324
#     4   9  16  26  43  69  97 124 161 208 259 314
#     4  10  21  39  61  89 121 156 198 245 293 347
#     4  10  20  35  57  83 111 144 183 227 275 329
#
# _framework density 19.487905000000001
#
# number of rings (size 3 to 8) (size 9 to 14) (size 15 to 20)
#    0.000    2.182    0.000    4.364    1.273    7.273 
#    0.000    1.818    0.000    0.545    0.000    0.000 
#    0.000    0.000    0.000    0.000    0.000    0.000 
#
# Total GULP energy -245156.904219 kJ/mol
# GULP energy per Si atom -5571.747823 kJ/mol
# Density = 1.944355 g / cm^3
# Si number density = 19.487905 Si / 1000 Ang^3
#
#
#
# Elastic Constant Matrix: (Units=GPa)
#
#
# Indices 1 2 3 4 5 6 
#
# 1 51.1585 15.9961 71.5871 0.0000 0.0000 0.0000
# 2 15.9961 53.3542 58.4111 0.0000 0.0000 0.0000
# 3 71.5871 58.4111 233.1626 0.0000 0.0000 0.0000
# 4 0.0000 0.0000 0.0000 37.8933 0.0000 0.0000
# 5 0.0000 0.0000 0.0000 0.0000 -101.9807 0.0000
# 6 0.0000 0.0000 0.0000 0.0000 0.0000 14.7847
#
#
#
# Elastic Compliance Matrix: (Units=1/GPa)
#
#
# Indices 1 2 3 4 5 6 
#
# 1 0.034385 0.001721 -0.010988 0.000000 0.000000 0.000000
# 2 0.001721 0.025912 -0.007020 0.000000 0.000000 0.000000
# 3 -0.010988 -0.007020 0.009421 0.000000 0.000000 0.000000
# 4 0.000000 0.000000 0.000000 0.026390 0.000000 0.000000
# 5 0.000000 0.000000 0.000000 0.000000 -0.009806 0.000000
# 6 0.000000 0.000000 0.000000 0.000000 0.000000 0.067638
#
#
# Mechanical properties :
#
#
# Convention : Reuss Voigt Hill
#
# Bulk Modulus (GPa) = 26.92260 69.96267 48.44263
# Shear Modulus (GPa) = 25.13893 2.91820 14.02856
#
# Velocity S-wave (km/s) = 3.59552 1.22503 2.68593
# Velocity P-wave (km/s) = 5.57513 6.16274 5.87629
#
# Compressibility (1/GPa) = 0.03714352
#
# Stress axis : x y z
#
# Youngs Moduli (GPa) = 29.08245 38.59261 106.14546
#
# Poissons Ratio (x) = -0.06640 1.16634
# Poissons Ratio (y) = -0.05004 0.74510
# Poissons Ratio (z) = 0.31956 0.27090
#
# Static dielectric constant tensor:
#      x y z
#    x 1.632270 0.000000 0.000000 
#    y 0.000000 1.701280 0.000000 
#    z 0.000000 0.000000 1.773510 
# 
# From -- ./inp_files/45767.got.cif
#   From: 2010.05.17/outbox.cif.g08.bks.cpg/sg67_23_cif.got.tgz:45767.got - 2010.06.03 18:28:57.
