data_PCOD9502561
_publ_section_title
;
Structure prediction by ZEFSAII (Michael W. Deem and Ramdas Pophale) SiO2 
 PCOD9502561
Probable space group: C M M A
;
_chemical_formula_sum "Si O2"
_cell_formula_units_Z 112
_cell_length_a 19.640933
_cell_length_b 19.473055
_cell_length_c 15.574413
_cell_angle_alpha 90.000000
_cell_angle_beta 90.000000
_cell_angle_gamma 90.000000
_cell_volume 5956.729676
_symmetry_space_group_name_H-M "C M M A"
_symmetry_group_IT_number 67
_symmetry_cell_setting 'orthorhombic'
loop_
_space_group_symop_operation_xyz
x,y,z
-x,1/2-y,z
x,-y,-z
-x,1/2+y,-z
-x,-y,-z
x,1/2+y,-z
-x,y,z
x,1/2-y,z
1/2+x,1/2+y,z
1/2-x,-y,z
1/2+x,1/2-y,-z
1/2-x,y,-z
1/2-x,1/2-y,-z
1/2+x,y,-z
1/2-x,1/2+y,z
1/2+x,-y,z
loop_
_atom_site_type_symbol
_atom_site_label
_atom_site_fract_x
_atom_site_fract_y
_atom_site_fract_z
Si Si1 0.268263 0.167955 0.733175
Si Si2 0.794457 0.172422 0.074220
Si Si3 0.923992 0.114758 0.009564
Si Si4 0.679602 0.042464 0.291926
Si Si5 0.677840 0.331993 0.546950
Si Si6 0.078075 0.011904 0.857088
Si Si7 0.077307 0.069465 0.553462
O O1 0.255660 0.250000 0.729238
O O2 0.296549 0.148335 0.827333
O O3 0.202215 0.120819 0.725257
O O4 0.313868 0.152495 0.648755
O O5 0.767560 0.250000 0.081956
O O6 0.868963 0.169786 0.035116
O O7 0.750000 0.135213 0.000000
O O8 0.000000 0.142040 0.012031
O O9 0.918185 0.053393 0.079621
O O10 0.912649 0.078345 0.918105
O O11 0.636844 0.011649 0.213094
O O12 0.627168 0.048274 0.369573
O O13 0.750000 0.000000 0.306986
O O14 0.668264 0.250000 0.537187
O O15 0.750000 0.349520 0.500000
O O16 0.617193 0.373589 0.502633
O O17 0.000000 0.013653 0.822433
O O18 0.000000 0.091060 0.578060
O O19 0.071213 0.000000 0.500000
#
# Coordination Sequence:
#
# PCOD9502561 Si02
#       7
#    16  16  16  16  16  16  16
#     4  10  21  36  56  84 113 145 190 235 283 333
#     4  10  20  34  52  79 115 145 175 226 281 333
#     4   9  18  34  54  74 103 146 187 226 278 334
#     4  12  22  34  59  86 109 148 193 235 284 352
#     4  10  20  39  64  85 109 150 200 243 282 340
#     4   9  19  35  53  76 108 142 183 237 285 331
#     4  11  25  40  56  85 121 152 184 238 301 351
#
# _framework density 18.802261999999999
#
# number of rings (size 3 to 8) (size 9 to 14) (size 15 to 20)
#    0.000    1.857    1.429    3.857    0.000    0.571 
#    0.000    3.571    0.000    4.714    0.000    0.000 
#    0.000    0.000    0.000    0.000    0.000    0.000 
#
# Total GULP energy -312035.970481 kJ/mol
# GULP energy per Si atom -5572.070901 kJ/mol
# Density = 1.875947 g / cm^3
# Si number density = 18.802262 Si / 1000 Ang^3
#
#
#
# Elastic Constant Matrix: (Units=GPa)
#
#
# Indices 1 2 3 4 5 6 
#
# 1 135.6602 35.3562 73.7665 0.0000 0.0000 0.0000
# 2 35.3562 43.4220 20.8684 0.0000 0.0000 0.0000
# 3 73.7665 20.8684 119.2524 0.0000 0.0000 0.0000
# 4 0.0000 0.0000 0.0000 7.6720 0.0000 0.0000
# 5 0.0000 0.0000 0.0000 0.0000 25.2417 0.0000
# 6 0.0000 0.0000 0.0000 0.0000 0.0000 30.5547
#
#
#
# Elastic Compliance Matrix: (Units=1/GPa)
#
#
# Indices 1 2 3 4 5 6 
#
# 1 0.012927 -0.007296 -0.006719 0.000000 0.000000 0.000000
# 2 -0.007296 0.029263 -0.000608 0.000000 0.000000 0.000000
# 3 -0.006719 -0.000608 0.012648 0.000000 0.000000 0.000000
# 4 0.000000 0.000000 0.000000 0.130344 0.000000 0.000000
# 5 0.000000 0.000000 0.000000 0.000000 0.039617 0.000000
# 6 0.000000 0.000000 0.000000 0.000000 0.000000 0.032728
#
#
# Mechanical properties :
#
#
# Convention : Reuss Voigt Hill
#
# Bulk Modulus (GPa) = 39.07546 62.03520 50.55533
# Shear Modulus (GPa) = 16.93175 23.91659 20.42417
#
# Velocity S-wave (km/s) = 3.00412 3.57039 3.29942
# Velocity P-wave (km/s) = 5.73240 7.07545 6.43904
#
# Compressibility (1/GPa) = 0.02559151
#
# Stress axis : x y z
#
# Youngs Moduli (GPa) = 77.36007 34.17331 79.06224
#
# Poissons Ratio (x) = 0.24933 0.53124
# Poissons Ratio (y) = 0.56443 0.04803
# Poissons Ratio (z) = 0.51980 0.02076
#
# Static dielectric constant tensor:
#      x y z
#    x 1.644950 0.000000 0.000000 
#    y 0.000000 1.662560 0.000000 
#    z 0.000000 0.000000 1.736880 
# 
# From -- ./inp_files/27489.got.cif
#   From: 2010.05.17/outbox.cif.g08.bks.cpg/sg67_14_cif.got.tgz:27489.got - 2010.06.03 18:28:57.
