data_PCOD9502600
_publ_section_title
;
Structure prediction by ZEFSAII (Michael W. Deem and Ramdas Pophale) SiO2 
 PCOD9502600
Probable space group: C M M A
;
_chemical_formula_sum "Si O2"
_cell_formula_units_Z 80
_cell_length_a 18.324273
_cell_length_b 15.915733
_cell_length_c 13.889675
_cell_angle_alpha 90.000000
_cell_angle_beta 90.000000
_cell_angle_gamma 90.000000
_cell_volume 4050.843660
_symmetry_space_group_name_H-M "C M M A"
_symmetry_group_IT_number 67
_symmetry_cell_setting 'orthorhombic'
loop_
_space_group_symop_operation_xyz
x,y,z
-x,1/2-y,z
x,-y,-z
-x,1/2+y,-z
-x,-y,-z
x,1/2+y,-z
-x,y,z
x,1/2-y,z
1/2+x,1/2+y,z
1/2-x,-y,z
1/2+x,1/2-y,-z
1/2-x,y,-z
1/2-x,1/2-y,-z
1/2+x,y,-z
1/2-x,1/2+y,z
1/2+x,-y,z
loop_
_atom_site_type_symbol
_atom_site_label
_atom_site_fract_x
_atom_site_fract_y
_atom_site_fract_z
Si Si1 0.583581 0.153563 0.446108
Si Si2 0.765575 0.352065 0.110137
Si Si3 0.579955 0.849941 0.192720
Si Si4 0.658551 0.089571 0.627903
Si Si5 0.188269 0.400585 0.700339
O O1 0.500000 0.124613 0.444667
O O2 0.585735 0.250000 0.479800
O O3 0.631608 0.099029 0.519710
O O4 0.619766 0.149219 0.340990
O O5 0.761613 0.250000 0.120374
O O6 0.847826 0.380183 0.137177
O O7 0.709761 0.390549 0.188210
O O8 0.750000 0.373560 0.000000
O O9 0.500000 0.884846 0.167397
O O10 0.577372 0.750000 0.177828
O O11 0.598540 0.867759 0.303946
O O12 0.738188 0.129791 0.645181
O O13 0.670476 0.995829 0.668620
#
# Coordination Sequence:
#
# PCOD9502600 Si02
#       5
#    16  16  16  16  16
#     4  11  23  36  52  77 109 147 189 230 273 324
#     4   9  18  35  59  82 106 141 183 227 279 334
#     4   9  17  31  53  80 105 131 175 232 278 322
#     4  10  20  34  53  78 106 140 178 218 272 332
#     4  10  21  36  53  78 109 141 180 225 272 328
#
# _framework density 19.748971999999998
#
# number of rings (size 3 to 8) (size 9 to 14) (size 15 to 20)
#    0.000    2.200    0.000    3.000    0.000    8.800 
#    0.000    9.000    0.000    4.800    0.000    0.000 
#    0.000    0.000    0.000    0.000    0.000    0.000 
#
# Total GULP energy -223096.143948 kJ/mol
# GULP energy per Si atom -5577.403599 kJ/mol
# Density = 1.970402 g / cm^3
# Si number density = 19.748972 Si / 1000 Ang^3
#
#
#
# Elastic Constant Matrix: (Units=GPa)
#
#
# Indices 1 2 3 4 5 6 
#
# 1 88.0122 16.1018 65.3746 0.0000 0.0000 0.0000
# 2 16.1018 33.0583 16.9472 0.0000 0.0000 0.0000
# 3 65.3746 16.9472 145.3307 0.0000 0.0000 0.0000
# 4 0.0000 0.0000 0.0000 20.6893 0.0000 0.0000
# 5 0.0000 0.0000 0.0000 0.0000 3.6309 0.0000
# 6 0.0000 0.0000 0.0000 0.0000 0.0000 13.0728
#
#
#
# Elastic Compliance Matrix: (Units=1/GPa)
#
#
# Indices 1 2 3 4 5 6 
#
# 1 0.017765 -0.004846 -0.007426 0.000000 0.000000 0.000000
# 2 -0.004846 0.033495 -0.001726 0.000000 0.000000 0.000000
# 3 -0.007426 -0.001726 0.010423 0.000000 0.000000 0.000000
# 4 0.000000 0.000000 0.000000 0.048334 0.000000 0.000000
# 5 0.000000 0.000000 0.000000 0.000000 0.275414 0.000000
# 6 0.000000 0.000000 0.000000 0.000000 0.000000 0.076495
#
#
# Mechanical properties :
#
#
# Convention : Reuss Voigt Hill
#
# Bulk Modulus (GPa) = 29.68578 51.47207 40.57892
# Shear Modulus (GPa) = 9.97708 18.67710 14.32709
#
# Velocity S-wave (km/s) = 2.25009 3.07860 2.69636
# Velocity P-wave (km/s) = 4.67063 6.22549 5.50325
#
# Compressibility (1/GPa) = 0.03368617
#
# Stress axis : x y z
#
# Youngs Moduli (GPa) = 56.29182 29.85549 95.94513
#
# Poissons Ratio (x) = 0.14467 0.71249
# Poissons Ratio (y) = 0.27277 0.16561
# Poissons Ratio (z) = 0.41803 0.05153
#
# Static dielectric constant tensor:
#      x y z
#    x 1.714640 0.000000 0.000000 
#    y 0.000000 1.755240 0.000000 
#    z 0.000000 0.000000 1.690150 
# 
# From -- ./inp_files/28388.got.cif
#   From: 2010.05.17/outbox.cif.g08.bks.cpg/sg67_15_cif.got.tgz:28388.got - 2010.06.03 18:28:57.
