data_PCOD9502981
_publ_section_title
;
Structure prediction by ZEFSAII (Michael W. Deem and Ramdas Pophale) SiO2 
 PCOD9502981
Probable space group: C M M A
;
_chemical_formula_sum "Si O2"
_cell_formula_units_Z 84
_cell_length_a 14.203843
_cell_length_b 22.414703
_cell_length_c 12.377131
_cell_angle_alpha 90.000000
_cell_angle_beta 90.000000
_cell_angle_gamma 90.000000
_cell_volume 3940.568120
_symmetry_space_group_name_H-M "C M M A"
_symmetry_group_IT_number 67
_symmetry_cell_setting 'orthorhombic'
loop_
_space_group_symop_operation_xyz
x,y,z
-x,1/2-y,z
x,-y,-z
-x,1/2+y,-z
-x,-y,-z
x,1/2+y,-z
-x,y,z
x,1/2-y,z
1/2+x,1/2+y,z
1/2-x,-y,z
1/2+x,1/2-y,-z
1/2-x,y,-z
1/2-x,1/2-y,-z
1/2+x,y,-z
1/2-x,1/2+y,z
1/2+x,-y,z
loop_
_atom_site_type_symbol
_atom_site_label
_atom_site_fract_x
_atom_site_fract_y
_atom_site_fract_z
Si Si1 0.610851 0.989905 0.159512
Si Si2 0.500000 0.750000 0.393417
Si Si3 0.730003 0.896919 0.884126
Si Si4 0.649966 0.340870 0.524964
Si Si5 0.888976 0.462695 0.395860
Si Si6 0.606668 0.322213 0.281366
O O1 0.500000 0.983642 0.135647
O O2 0.671998 0.929981 0.144777
O O3 0.623794 0.000360 0.287956
O O4 0.657853 0.046687 0.101839
O O5 0.581410 0.698940 0.405577
O O6 0.683063 0.853657 0.795870
O O7 0.750000 0.867155 0.000000
O O8 0.750000 0.313166 0.500000
O O9 0.665954 0.401444 0.591023
O O10 0.608392 0.347784 0.403737
O O11 0.865371 0.500000 0.500000
O O12 0.000000 0.446662 0.400270
O O13 0.500000 0.332778 0.238723
O O14 0.619669 0.250000 0.288637
#
# Coordination Sequence:
#
# PCOD9502981 Si02
#       6
#    16   4  16  16  16  16
#     4  10  21  39  60  87 121 157 198 251 318 384
#     4  12  22  40  54  90 130 178 220 262 290 376
#     4  11  24  40  62  89 116 154 207 266 323 377
#     4  12  22  38  62  91 128 173 219 254 308 372
#     4  10  20  35  57  87 123 156 193 250 307 368
#     4  11  22  41  65  93 125 166 215 266 315 374
#
# _framework density 21.316723
#
# number of rings (size 3 to 8) (size 9 to 14) (size 15 to 20)
#    0.000    1.143    2.857    4.286    0.000    6.095 
#    0.000    0.000    0.000    0.571    0.000    0.000 
#    0.000    0.000    0.000    0.000    0.000    0.000 
#
# Total GULP energy -234026.656454 kJ/mol
# GULP energy per Si atom -5572.063249 kJ/mol
# Density = 2.126821 g / cm^3
# Si number density = 21.316723 Si / 1000 Ang^3
#
#
#
# Elastic Constant Matrix: (Units=GPa)
#
#
# Indices 1 2 3 4 5 6 
#
# 1 125.7774 8.9431 -2.6460 0.0000 0.0000 0.0000
# 2 8.9431 55.4201 5.5517 0.0000 0.0000 0.0000
# 3 -2.6460 5.5517 85.7852 0.0000 0.0000 0.0000
# 4 0.0000 0.0000 0.0000 -116.0673 0.0000 0.0000
# 5 0.0000 0.0000 0.0000 0.0000 16.0501 0.0000
# 6 0.0000 0.0000 0.0000 0.0000 0.0000 37.2241
#
#
#
# Elastic Compliance Matrix: (Units=1/GPa)
#
#
# Indices 1 2 3 4 5 6 
#
# 1 0.008052 -0.001333 0.000335 0.000000 0.000000 0.000000
# 2 -0.001333 0.018382 -0.001231 0.000000 0.000000 0.000000
# 3 0.000335 -0.001231 0.011747 0.000000 0.000000 0.000000
# 4 0.000000 0.000000 0.000000 -0.008616 0.000000 0.000000
# 5 0.000000 0.000000 0.000000 0.000000 0.062305 0.000000
# 6 0.000000 0.000000 0.000000 0.000000 0.000000 0.026864
#
#
# Mechanical properties :
#
#
# Convention : Reuss Voigt Hill
#
# Bulk Modulus (GPa) = 29.65277 32.29781 30.97529
# Shear Modulus (GPa) = 37.19279 4.45030 20.82155
#
# Velocity S-wave (km/s) = 4.18158 1.44646 3.12872
# Velocity P-wave (km/s) = 6.10368 4.23957 5.25494
#
# Compressibility (1/GPa) = 0.03372366
#
# Stress axis : x y z
#
# Youngs Moduli (GPa) = 124.18709 54.39988 85.12815
#
# Poissons Ratio (x) = 0.07251 -0.02849
# Poissons Ratio (y) = 0.16553 0.10477
# Poissons Ratio (z) = -0.04156 0.06695
#
# Static dielectric constant tensor:
#      x y z
#    x 1.817190 0.000000 0.000000 
#    y 0.000000 1.847850 0.000000 
#    z 0.000000 0.000000 1.812850 
# 
# From -- ./inp_files/18115.got.cif
#   From: 2010.05.17/outbox.cif.g08.bks.cpg/sg67_10_cif.got.tgz:18115.got - 2010.06.03 18:28:57.
