data_PCOD9502097
_publ_section_title
;
Structure prediction by ZEFSAII (Michael W. Deem and Ramdas Pophale) SiO2 
 PCOD9502097
Probable space group: C M M A
;
_chemical_formula_sum "Si O2"
_cell_formula_units_Z 112
_cell_length_a 32.334831
_cell_length_b 14.542746
_cell_length_c 14.616846
_cell_angle_alpha 90.000000
_cell_angle_beta 90.000000
_cell_angle_gamma 90.000000
_cell_volume 6873.385236
_symmetry_space_group_name_H-M "C M M A"
_symmetry_group_IT_number 67
_symmetry_cell_setting 'orthorhombic'
loop_
_space_group_symop_operation_xyz
x,y,z
-x,1/2-y,z
x,-y,-z
-x,1/2+y,-z
-x,-y,-z
x,1/2+y,-z
-x,y,z
x,1/2-y,z
1/2+x,1/2+y,z
1/2-x,-y,z
1/2+x,1/2-y,-z
1/2-x,y,-z
1/2-x,1/2-y,-z
1/2+x,y,-z
1/2-x,1/2+y,z
1/2+x,-y,z
loop_
_atom_site_type_symbol
_atom_site_label
_atom_site_fract_x
_atom_site_fract_y
_atom_site_fract_z
Si Si1 0.113322 0.489139 0.212917
Si Si2 0.095000 0.143033 0.936593
Si Si3 0.068792 0.499251 0.608881
Si Si4 0.000000 0.851722 0.389879
Si Si5 0.205572 0.994043 0.847500
Si Si6 0.500000 0.352086 0.610392
Si Si7 0.187970 0.643043 0.008070
Si Si8 0.547505 0.360487 0.884818
O O1 0.099894 0.576037 0.149518
O O2 0.105571 0.502900 0.320098
O O3 0.162184 0.473372 0.200702
O O4 0.082411 0.410034 0.175825
O O5 0.090968 0.250000 0.909230
O O6 0.137962 0.134612 0.993929
O O7 0.059104 0.119142 0.008790
O O8 0.077842 0.500000 0.500000
O O9 0.040041 0.411759 0.631710
O O10 0.040284 0.587874 0.630927
O O11 0.000000 0.845125 0.500164
O O12 0.000000 0.750000 0.350113
O O13 0.250000 0.000000 0.798508
O O14 0.199722 0.091580 0.898709
O O15 0.207437 0.916147 0.926652
O O16 0.500000 0.250000 0.650578
O O17 0.198798 0.750000 0.005313
O O18 0.500000 0.388166 0.863829
O O19 0.550511 0.250000 0.874606
#
# Coordination Sequence:
#
# PCOD9502097 Si02
#       8
#    16  16  16   8  16   8  16  16
#     4  11  21  33  51  71  97 134 165 207 251 289
#     4   9  18  33  49  69  99 132 167 202 235 285
#     4   9  19  33  49  73  98 125 163 201 245 296
#     4   8  15  31  52  71  93 120 150 198 254 292
#     4  10  20  31  46  72  97 123 164 204 247 298
#     4   8  15  31  52  71  95 120 150 200 252 292
#     4   9  16  30  50  70  96 126 155 198 253 297
#     4  10  21  35  50  71 101 137 174 204 234 285
#
# _framework density 16.294736
#
# number of rings (size 3 to 8) (size 9 to 14) (size 15 to 20)
#    0.000    2.571    1.429    2.143    2.000    3.429 
#    0.000    0.000    0.000    0.429    0.000    0.000 
#    0.000    0.000    0.000   16.857    0.000    0.000 
#
# Total GULP energy -311928.565686 kJ/mol
# GULP energy per Si atom -5570.152959 kJ/mol
# Density = 1.625765 g / cm^3
# Si number density = 16.294736 Si / 1000 Ang^3
#
#
#
# Elastic Constant Matrix: (Units=GPa)
#
#
# Indices 1 2 3 4 5 6 
#
# 1 127.6808 26.3728 42.7736 0.0000 0.0000 0.0000
# 2 26.3728 87.7541 14.4422 0.0000 0.0000 0.0000
# 3 42.7736 14.4422 61.5911 0.0000 0.0000 0.0000
# 4 0.0000 0.0000 0.0000 5.0405 0.0000 0.0000
# 5 0.0000 0.0000 0.0000 0.0000 12.5099 0.0000
# 6 0.0000 0.0000 0.0000 0.0000 0.0000 10.8439
#
#
#
# Elastic Compliance Matrix: (Units=1/GPa)
#
#
# Indices 1 2 3 4 5 6 
#
# 1 0.010547 -0.002043 -0.006846 0.000000 0.000000 0.000000
# 2 -0.002043 0.012249 -0.001453 0.000000 0.000000 0.000000
# 3 -0.006846 -0.001453 0.021331 0.000000 0.000000 0.000000
# 4 0.000000 0.000000 0.000000 0.198391 0.000000 0.000000
# 5 0.000000 0.000000 0.000000 0.000000 0.079937 0.000000
# 6 0.000000 0.000000 0.000000 0.000000 0.000000 0.092217
#
#
# Mechanical properties :
#
#
# Convention : Reuss Voigt Hill
#
# Bulk Modulus (GPa) = 42.65700 49.35591 46.00646
# Shear Modulus (GPa) = 11.28231 18.57470 14.92851
#
# Velocity S-wave (km/s) = 2.63419 3.37993 3.03009
# Velocity P-wave (km/s) = 5.95711 6.75183 6.36688
#
# Compressibility (1/GPa) = 0.02344281
#
# Stress axis : x y z
#
# Youngs Moduli (GPa) = 94.80971 81.64152 46.87981
#
# Poissons Ratio (x) = 0.16681 0.32093
# Poissons Ratio (y) = 0.19371 0.06813
# Poissons Ratio (z) = 0.64905 0.11864
#
# Static dielectric constant tensor:
#      x y z
#    x 1.584380 0.000000 0.000000 
#    y 0.000000 1.575820 0.000000 
#    z 0.000000 0.000000 1.542480 
# 
# From -- ./inp_files/36328.got.cif
#   From: 2010.05.17/outbox.cif.g08.bks.cpg/sg67_19_cif.got.tgz:36328.got - 2010.06.03 18:28:57.
