data_PCOD9502319
_publ_section_title
;
Structure prediction by ZEFSAII (Michael W. Deem and Ramdas Pophale) SiO2 
 PCOD9502319
Probable space group: C M M A
;
_chemical_formula_sum "Si O2"
_cell_formula_units_Z 88
_cell_length_a 8.844768
_cell_length_b 14.779731
_cell_length_c 31.379352
_cell_angle_alpha 90.000000
_cell_angle_beta 90.000000
_cell_angle_gamma 90.000000
_cell_volume 4102.012188
_symmetry_space_group_name_H-M "C M M A"
_symmetry_group_IT_number 67
_symmetry_cell_setting 'orthorhombic'
loop_
_space_group_symop_operation_xyz
x,y,z
-x,1/2-y,z
x,-y,-z
-x,1/2+y,-z
-x,-y,-z
x,1/2+y,-z
-x,y,z
x,1/2-y,z
1/2+x,1/2+y,z
1/2-x,-y,z
1/2+x,1/2-y,-z
1/2-x,y,-z
1/2-x,1/2-y,-z
1/2+x,y,-z
1/2-x,1/2+y,z
1/2+x,-y,z
loop_
_atom_site_type_symbol
_atom_site_label
_atom_site_fract_x
_atom_site_fract_y
_atom_site_fract_z
Si Si1 0.672772 0.360651 0.956050
Si Si2 0.682741 0.250000 0.452635
Si Si3 0.333312 0.643508 0.216840
Si Si4 0.820273 0.099639 0.696565
Si Si5 0.317606 0.601610 0.390548
Si Si6 0.827439 0.639045 0.131845
O O1 0.500000 0.390668 0.954701
O O2 0.673452 0.250000 0.956159
O O3 0.757989 0.388907 0.913243
O O4 0.750000 0.389376 0.000000
O O5 0.500000 0.250000 0.452810
O O6 0.750000 0.250000 0.500000
O O7 0.747636 0.163423 0.427323
O O8 0.500000 0.604422 0.226571
O O9 0.350659 0.750000 0.209403
O O10 0.224975 0.636739 0.257445
O O11 0.265467 0.607034 0.172945
O O12 0.739297 0.140742 0.655034
O O13 0.000000 0.100274 0.690450
O O14 0.750000 0.000000 0.697706
O O15 0.500000 0.599714 0.391849
O O16 0.250000 0.500000 0.394140
O O17 0.826637 0.750000 0.132062
O O18 0.000000 0.609673 0.135504
#
# Coordination Sequence:
#
# PCOD9502319 Si02
#       6
#    16   8  16  16  16  16
#     4   9  15  22  33  50  75 112 157 204 257 318
#     4  12  26  46  70 102 136 174 220 268 319 376
#     4  10  20  33  50  74 105 141 181 225 278 337
#     4  11  22  38  59  84 115 151 193 239 288 345
#     4  11  23  43  68  97 132 172 215 265 320 376
#     4   9  16  26  39  58  87 122 163 211 265 325
#
# _framework density 21.452885999999999
#
# number of rings (size 3 to 8) (size 9 to 14) (size 15 to 20)
#    0.000    1.818    0.000    6.818    1.273    5.818 
#    0.000    1.818    0.000    0.000    0.000    0.000 
#    0.000    0.727    0.000    7.273    0.000   11.273 
#
# Total GULP energy -245912.981694 kJ/mol
# GULP energy per Si atom -5588.931402 kJ/mol
# Density = 2.140406 g / cm^3
# Si number density = 21.452886 Si / 1000 Ang^3
#
#
#
# Elastic Constant Matrix: (Units=GPa)
#
#
# Indices 1 2 3 4 5 6 
#
# 1 213.7389 29.1123 85.6902 0.0000 0.0000 0.0000
# 2 29.1123 66.1930 33.4942 0.0000 0.0000 0.0000
# 3 85.6902 33.4942 194.9925 0.0000 0.0000 0.0000
# 4 0.0000 0.0000 0.0000 259.4278 0.0000 0.0000
# 5 0.0000 0.0000 0.0000 0.0000 38.3093 0.0000
# 6 0.0000 0.0000 0.0000 0.0000 0.0000 17.4602
#
#
#
# Elastic Compliance Matrix: (Units=1/GPa)
#
#
# Indices 1 2 3 4 5 6 
#
# 1 0.005792 -0.001379 -0.002308 0.000000 0.000000 0.000000
# 2 -0.001379 0.016874 -0.002292 0.000000 0.000000 0.000000
# 3 -0.002308 -0.002292 0.006537 0.000000 0.000000 0.000000
# 4 0.000000 0.000000 0.000000 0.003855 0.000000 0.000000
# 5 0.000000 0.000000 0.000000 0.000000 0.026103 0.000000
# 6 0.000000 0.000000 0.000000 0.000000 0.000000 0.057273
#
#
# Mechanical properties :
#
#
# Convention : Reuss Voigt Hill
#
# Bulk Modulus (GPa) = 57.99642 85.72419 71.86031
# Shear Modulus (GPa) = 37.27429 84.81465 61.04447
#
# Velocity S-wave (km/s) = 4.17285 6.29453 5.34012
# Velocity P-wave (km/s) = 7.09295 9.63713 8.46121
#
# Compressibility (1/GPa) = 0.01724244
#
# Stress axis : x y z
#
# Youngs Moduli (GPa) = 172.65446 59.26313 152.98534
#
# Poissons Ratio (x) = 0.08174 0.35314
# Poissons Ratio (y) = 0.23814 0.35069
# Poissons Ratio (z) = 0.39855 0.13585
#
# Static dielectric constant tensor:
#      x y z
#    x 1.747560 0.000000 0.000000 
#    y 0.000000 2.057720 0.000000 
#    z 0.000000 0.000000 1.780150 
# 
# From -- ./inp_files/45197.got.cif
#   From: 2010.05.17/outbox.cif.g08.bks.cpg/sg67_23_cif.got.tgz:45197.got - 2010.06.03 18:28:57.
