data_PCOD9502927
_publ_section_title
;
Structure prediction by ZEFSAII (Michael W. Deem and Ramdas Pophale) SiO2 
 PCOD9502927
Probable space group: C M M A
;
_chemical_formula_sum "Si O2"
_cell_formula_units_Z 112
_cell_length_a 16.116077
_cell_length_b 14.784085
_cell_length_c 22.958914
_cell_angle_alpha 90.000000
_cell_angle_beta 90.000000
_cell_angle_gamma 90.000000
_cell_volume 5470.224191
_symmetry_space_group_name_H-M "C M M A"
_symmetry_group_IT_number 67
_symmetry_cell_setting 'orthorhombic'
loop_
_space_group_symop_operation_xyz
x,y,z
-x,1/2-y,z
x,-y,-z
-x,1/2+y,-z
-x,-y,-z
x,1/2+y,-z
-x,y,z
x,1/2-y,z
1/2+x,1/2+y,z
1/2-x,-y,z
1/2+x,1/2-y,-z
1/2-x,y,-z
1/2-x,1/2-y,-z
1/2+x,y,-z
1/2-x,1/2+y,z
1/2+x,-y,z
loop_
_atom_site_type_symbol
_atom_site_label
_atom_site_fract_x
_atom_site_fract_y
_atom_site_fract_z
Si Si1 0.854920 0.850004 0.838600
Si Si2 0.271919 0.640103 0.626152
Si Si3 0.707364 0.856431 0.757396
Si Si4 0.908451 0.851512 0.598822
Si Si5 0.906328 0.052656 0.853395
Si Si6 0.226448 0.105883 0.936041
Si Si7 0.592626 0.098287 0.470585
O O1 0.895458 0.750000 0.837271
O O2 0.802868 0.863560 0.778975
O O3 0.783699 0.847491 0.888172
O O4 0.902871 0.942577 0.853426
O O5 0.267599 0.750000 0.623068
O O6 0.301985 0.615981 0.690620
O O7 0.177591 0.604348 0.618806
O O8 0.334910 0.611406 0.575609
O O9 0.685489 0.750000 0.763201
O O10 0.651806 0.914940 0.800674
O O11 0.910940 0.750000 0.624001
O O12 0.899967 0.843204 0.529019
O O13 0.000000 0.893698 0.610263
O O14 0.866800 0.099722 0.911111
O O15 0.000000 0.081903 0.845220
O O16 0.250000 0.000000 0.935448
O O17 0.250000 0.140194 0.000000
O O18 0.500000 0.112805 0.445287
O O19 0.596183 0.000000 0.500000
#
# Coordination Sequence:
#
# PCOD9502927 Si02
#       7
#    16  16  16  16  16  16  16
#     4   9  18  35  56  77 111 156 195 232 276 333
#     4  10  20  35  59  84 104 139 189 233 285 351
#     4   9  19  37  59  83 110 145 194 245 291 349
#     4   9  18  34  54  76 105 137 171 218 275 338
#     4  10  20  35  56  85 120 153 187 240 302 347
#     4   8  15  31  54  81 111 150 196 233 275 333
#     4  10  21  36  50  74 111 144 179 225 278 336
#
# _framework density 20.474481000000001
#
# number of rings (size 3 to 8) (size 9 to 14) (size 15 to 20)
#    0.000    2.714    0.000    2.143    0.000    4.571 
#    5.143    7.857    0.000    2.571    0.000    0.000 
#    0.000    0.000    0.000    0.000    0.000    0.000 
#
# Total GULP energy -311951.827782 kJ/mol
# GULP energy per Si atom -5570.568353 kJ/mol
# Density = 2.042788 g / cm^3
# Si number density = 20.474481 Si / 1000 Ang^3
#
#
#
# Elastic Constant Matrix: (Units=GPa)
#
#
# Indices 1 2 3 4 5 6 
#
# 1 117.4543 12.5416 36.6945 0.0000 0.0000 0.0000
# 2 12.5416 67.4322 9.4453 0.0000 0.0000 0.0000
# 3 36.6945 9.4453 77.6073 0.0000 0.0000 0.0000
# 4 0.0000 0.0000 0.0000 18.9964 0.0000 0.0000
# 5 0.0000 0.0000 0.0000 0.0000 8.6885 0.0000
# 6 0.0000 0.0000 0.0000 0.0000 0.0000 13.5088
#
#
#
# Elastic Compliance Matrix: (Units=1/GPa)
#
#
# Indices 1 2 3 4 5 6 
#
# 1 0.010089 -0.001229 -0.004621 0.000000 0.000000 0.000000
# 2 -0.001229 0.015237 -0.001273 0.000000 0.000000 0.000000
# 3 -0.004621 -0.001273 0.015225 0.000000 0.000000 0.000000
# 4 0.000000 0.000000 0.000000 0.052642 0.000000 0.000000
# 5 0.000000 0.000000 0.000000 0.000000 0.115095 0.000000
# 6 0.000000 0.000000 0.000000 0.000000 0.000000 0.074026
#
#
# Mechanical properties :
#
#
# Convention : Reuss Voigt Hill
#
# Bulk Modulus (GPa) = 38.01630 42.20629 40.11129
# Shear Modulus (GPa) = 16.37587 21.82621 19.10104
#
# Velocity S-wave (km/s) = 2.83117 3.26854 3.05769
# Velocity P-wave (km/s) = 5.41252 5.90790 5.66563
#
# Compressibility (1/GPa) = 0.02630451
#
# Stress axis : x y z
#
# Youngs Moduli (GPa) = 99.12044 65.63114 65.68120
#
# Poissons Ratio (x) = 0.08067 0.30349
# Poissons Ratio (y) = 0.12184 0.08363
# Poissons Ratio (z) = 0.45799 0.08356
#
# Static dielectric constant tensor:
#      x y z
#    x 1.729640 0.000000 0.000000 
#    y 0.000000 1.872770 0.000000 
#    z 0.000000 0.000000 1.729570 
# 
# From -- ./inp_files/41997.got.cif
#   From: 2010.05.17/outbox.cif.g08.bks.cpg/sg67_21_cif.got.tgz:41997.got - 2010.06.03 18:28:57.
