data_PCOD9502849
_publ_section_title
;
Structure prediction by ZEFSAII (Michael W. Deem and Ramdas Pophale) SiO2 
 PCOD9502849
Probable space group: C M M A
;
_chemical_formula_sum "Si O2"
_cell_formula_units_Z 96
_cell_length_a 28.681482
_cell_length_b 14.886128
_cell_length_c 9.627397
_cell_angle_alpha 90.000000
_cell_angle_beta 90.000000
_cell_angle_gamma 90.000000
_cell_volume 4110.476957
_symmetry_space_group_name_H-M "C M M A"
_symmetry_group_IT_number 67
_symmetry_cell_setting 'orthorhombic'
loop_
_space_group_symop_operation_xyz
x,y,z
-x,1/2-y,z
x,-y,-z
-x,1/2+y,-z
-x,-y,-z
x,1/2+y,-z
-x,y,z
x,1/2-y,z
1/2+x,1/2+y,z
1/2-x,-y,z
1/2+x,1/2-y,-z
1/2-x,y,-z
1/2-x,1/2-y,-z
1/2+x,y,-z
1/2-x,1/2+y,z
1/2+x,-y,z
loop_
_atom_site_type_symbol
_atom_site_label
_atom_site_fract_x
_atom_site_fract_y
_atom_site_fract_z
Si Si1 0.649036 0.393700 0.512625
Si Si2 0.220031 0.648414 0.270448
Si Si3 0.947864 0.981428 0.164798
Si Si4 0.817388 0.354863 0.181259
Si Si5 0.448983 0.096961 0.573150
Si Si6 0.630204 0.353214 0.079432
O O1 0.643313 0.500000 0.500000
O O2 0.692359 0.376544 0.410126
O O3 0.663125 0.362703 0.664928
O O4 0.595874 0.357284 0.501818
O O5 0.236126 0.750000 0.297599
O O6 0.265726 0.603646 0.202176
O O7 0.179033 0.647690 0.159312
O O8 0.906276 0.909849 0.169939
O O9 0.000000 0.947366 0.203773
O O10 0.940151 0.067277 0.265478
O O11 0.949789 0.000000 0.000000
O O12 0.813259 0.250000 0.136669
O O13 0.854031 0.393606 0.069801
O O14 0.500000 0.140837 0.564087
O O15 0.452853 0.000000 0.500000
O O16 0.613023 0.250000 0.064437
#
# Coordination Sequence:
#
# PCOD9502849 Si02
#       6
#    16  16  16  16  16  16
#     4  11  21  34  55  81 107 136 178 227 268 316
#     4  10  21  37  55  76 105 142 180 219 270 330
#     4  10  20  35  55  79 109 144 179 216 267 329
#     4  10  21  37  55  75 105 144 180 217 270 332
#     4   9  18  33  53  76 104 139 175 213 263 320
#     4  10  20  35  56  80 105 137 181 228 269 316
#
# _framework density 23.354953999999999
#
# number of rings (size 3 to 8) (size 9 to 14) (size 15 to 20)
#    0.000    2.000    0.000    4.500    0.000    5.000 
#    0.000    0.000    0.000    7.000    0.000    0.000 
#    0.000    0.000    0.000    0.000    0.000    0.000 
#
# Total GULP energy -267476.786437 kJ/mol
# GULP energy per Si atom -5572.433051 kJ/mol
# Density = 2.330180 g / cm^3
# Si number density = 23.354954 Si / 1000 Ang^3
#
#
#
# Elastic Constant Matrix: (Units=GPa)
#
#
# Indices 1 2 3 4 5 6 
#
# 1 159.5093 21.9802 0.2127 0.0000 0.0000 0.0000
# 2 21.9802 41.5266 -7.1272 0.0000 0.0000 0.0000
# 3 0.2127 -7.1272 99.8106 0.0000 0.0000 0.0000
# 4 0.0000 0.0000 0.0000 17.7330 0.0000 0.0000
# 5 0.0000 0.0000 0.0000 0.0000 20.1682 0.0000
# 6 0.0000 0.0000 0.0000 0.0000 0.0000 21.5713
#
#
#
# Elastic Compliance Matrix: (Units=1/GPa)
#
#
# Indices 1 2 3 4 5 6 
#
# 1 0.006770 -0.003630 -0.000274 0.000000 0.000000 0.000000
# 2 -0.003630 0.026326 0.001888 0.000000 0.000000 0.000000
# 3 -0.000274 0.001888 0.010154 0.000000 0.000000 0.000000
# 4 0.000000 0.000000 0.000000 0.056392 0.000000 0.000000
# 5 0.000000 0.000000 0.000000 0.000000 0.049583 0.000000
# 6 0.000000 0.000000 0.000000 0.000000 0.000000 0.046358
#
#
# Mechanical properties :
#
#
# Convention : Reuss Voigt Hill
#
# Bulk Modulus (GPa) = 25.49845 36.77532 31.13688
# Shear Modulus (GPa) = 23.50852 30.94655 27.22753
#
# Velocity S-wave (km/s) = 3.17610 3.64408 3.41811
# Velocity P-wave (km/s) = 4.93879 5.78672 5.37949
#
# Compressibility (1/GPa) = 0.03921807
#
# Stress axis : x y z
#
# Youngs Moduli (GPa) = 147.71399 37.98459 98.47997
#
# Poissons Ratio (x) = 0.13789 0.02695
# Poissons Ratio (y) = 0.53624 -0.18589
# Poissons Ratio (z) = 0.04042 -0.07170
#
# Static dielectric constant tensor:
#      x y z
#    x 1.980970 0.000000 0.000000 
#    y 0.000000 1.921730 0.000000 
#    z 0.000000 0.000000 2.025530 
# 
# From -- ./inp_files/13697.got.cif
#   From: 2010.05.17/outbox.cif.g08.bks.cpg/sg67_7_cif.got.tgz:13697.got - 2010.06.03 18:28:57.
