data_PCOD9502414
_publ_section_title
;
Structure prediction by ZEFSAII (Michael W. Deem and Ramdas Pophale) SiO2 
 PCOD9502414
Probable space group: C M M A
;
_chemical_formula_sum "Si O2"
_cell_formula_units_Z 100
_cell_length_a 21.351048
_cell_length_b 30.012816
_cell_length_c 7.556126
_cell_angle_alpha 90.000000
_cell_angle_beta 90.000000
_cell_angle_gamma 90.000000
_cell_volume 4842.003888
_symmetry_space_group_name_H-M "C M M A"
_symmetry_group_IT_number 67
_symmetry_cell_setting 'orthorhombic'
loop_
_space_group_symop_operation_xyz
x,y,z
-x,1/2-y,z
x,-y,-z
-x,1/2+y,-z
-x,-y,-z
x,1/2+y,-z
-x,y,z
x,1/2-y,z
1/2+x,1/2+y,z
1/2-x,-y,z
1/2+x,1/2-y,-z
1/2-x,y,-z
1/2-x,1/2-y,-z
1/2+x,y,-z
1/2-x,1/2+y,z
1/2+x,-y,z
loop_
_atom_site_type_symbol
_atom_site_label
_atom_site_fract_x
_atom_site_fract_y
_atom_site_fract_z
Si Si1 0.904155 0.323845 0.171370
Si Si2 0.576370 0.958680 0.380550
Si Si3 0.228324 0.802486 0.701360
Si Si4 0.500000 0.750000 0.296938
Si Si5 0.424437 0.114340 0.339398
Si Si6 0.864494 0.800080 0.213595
Si Si7 0.428845 0.578927 0.033867
O O1 0.833981 0.327774 0.245539
O O2 0.930430 0.373117 0.133402
O O3 0.945922 0.289855 0.282732
O O4 0.898940 0.302623 0.974195
O O5 0.500000 0.960823 0.370959
O O6 0.592221 0.914774 0.492194
O O7 0.599485 0.954529 0.178821
O O8 0.597061 0.000000 0.500000
O O9 0.213406 0.750000 0.721429
O O10 0.250000 0.810417 0.500000
O O11 0.291288 0.810980 0.812940
O O12 0.500000 0.118170 0.329045
O O13 0.395328 0.163149 0.337207
O O14 0.401750 0.089348 0.159519
O O15 0.868400 0.750000 0.286366
O O16 0.500000 0.563729 0.999210
#
# Coordination Sequence:
#
# PCOD9502414 Si02
#       7
#    16  16  16   4  16  16  16
#     4  11  20  33  54  77 108 146 190 227 269 324
#     4   9  18  33  52  74 106 143 178 223 282 340
#     4  10  21  35  50  71 104 147 193 233 262 312
#     4  12  20  32  56  82 104 154 190 220 270 330
#     4   9  19  32  51  79 111 141 180 230 275 331
#     4  10  20  33  53  76 106 146 188 222 270 315
#     4   9  18  31  50  77 108 138 177 225 279 331
#
# _framework density 20.652605999999999
#
# number of rings (size 3 to 8) (size 9 to 14) (size 15 to 20)
#    0.000    2.240    2.400    0.480    3.360    2.240 
#    0.000    3.200    0.000    0.960    0.000    2.240 
#    0.000    5.120    0.000    0.000    0.000    0.000 
#
# Total GULP energy -278543.351153 kJ/mol
# GULP energy per Si atom -5570.867023 kJ/mol
# Density = 2.060560 g / cm^3
# Si number density = 20.652606 Si / 1000 Ang^3
#
#
#
# Elastic Constant Matrix: (Units=GPa)
#
#
# Indices 1 2 3 4 5 6 
#
# 1 48.4973 16.4278 8.5643 0.0000 0.0000 0.0000
# 2 16.4278 24.1905 16.8531 0.0000 0.0000 0.0000
# 3 8.5643 16.8531 70.7924 0.0000 0.0000 0.0000
# 4 0.0000 0.0000 0.0000 19.6469 0.0000 0.0000
# 5 0.0000 0.0000 0.0000 0.0000 13.3042 0.0000
# 6 0.0000 0.0000 0.0000 0.0000 0.0000 9.3382
#
#
#
# Elastic Compliance Matrix: (Units=1/GPa)
#
#
# Indices 1 2 3 4 5 6 
#
# 1 0.026881 -0.019169 0.001311 0.000000 0.000000 0.000000
# 2 -0.019169 0.063227 -0.012733 0.000000 0.000000 0.000000
# 3 0.001311 -0.012733 0.016998 0.000000 0.000000 0.000000
# 4 0.000000 0.000000 0.000000 0.050898 0.000000 0.000000
# 5 0.000000 0.000000 0.000000 0.000000 0.075164 0.000000
# 6 0.000000 0.000000 0.000000 0.000000 0.000000 0.107087
#
#
# Mechanical properties :
#
#
# Convention : Reuss Voigt Hill
#
# Bulk Modulus (GPa) = 21.77426 25.24118 23.50772
# Shear Modulus (GPa) = 11.99772 15.23353 13.61563
#
# Velocity S-wave (km/s) = 2.41286 2.71884 2.57041
# Velocity P-wave (km/s) = 4.28118 4.70154 4.49628
#
# Compressibility (1/GPa) = 0.04592579
#
# Stress axis : x y z
#
# Youngs Moduli (GPa) = 37.20066 15.81609 58.82893
#
# Poissons Ratio (x) = 0.30317 -0.07714
# Poissons Ratio (y) = 0.71309 0.74907
# Poissons Ratio (z) = -0.04878 0.20139
#
# Static dielectric constant tensor:
#      x y z
#    x 1.718950 0.000000 0.000000 
#    y 0.000000 1.761960 0.000000 
#    z 0.000000 0.000000 1.815720 
# 
# From -- ./inp_files/11574.got.cif
#   From: 2010.05.17/outbox.cif.g08.bks.cpg/sg67_6_cif.got.tgz:11574.got - 2010.06.03 18:28:57.
