data_PCOD9502043
_publ_section_title
;
Structure prediction by ZEFSAII (Michael W. Deem and Ramdas Pophale) SiO2 
 PCOD9502043
Probable space group: C M M A
;
_chemical_formula_sum "Si O2"
_cell_formula_units_Z 68
_cell_length_a 15.657809
_cell_length_b 17.994821
_cell_length_c 12.675482
_cell_angle_alpha 90.000000
_cell_angle_beta 90.000000
_cell_angle_gamma 90.000000
_cell_volume 3571.437093
_symmetry_space_group_name_H-M "C M M A"
_symmetry_group_IT_number 67
_symmetry_cell_setting 'orthorhombic'
loop_
_space_group_symop_operation_xyz
x,y,z
-x,1/2-y,z
x,-y,-z
-x,1/2+y,-z
-x,-y,-z
x,1/2+y,-z
-x,y,z
x,1/2-y,z
1/2+x,1/2+y,z
1/2-x,-y,z
1/2+x,1/2-y,-z
1/2-x,y,-z
1/2-x,1/2-y,-z
1/2+x,y,-z
1/2-x,1/2+y,z
1/2+x,-y,z
loop_
_atom_site_type_symbol
_atom_site_label
_atom_site_fract_x
_atom_site_fract_y
_atom_site_fract_z
Si Si1 0.662251 0.583351 0.808055
Si Si2 0.163028 0.161003 0.268948
Si Si3 0.000000 0.660467 0.874853
Si Si4 0.250000 0.500000 0.000000
Si Si5 0.150282 0.478530 0.388123
Si Si6 0.500000 0.337732 0.111011
O O1 0.745765 0.628975 0.769375
O O2 0.630325 0.524016 0.719499
O O3 0.584283 0.636759 0.830268
O O4 0.691519 0.545879 0.917989
O O5 0.165529 0.250000 0.285317
O O6 0.087412 0.142594 0.186184
O O7 0.141099 0.109292 0.368842
O O8 0.000000 0.750000 0.880268
O O9 0.000000 0.629532 0.992478
O O10 0.109328 0.500000 0.500000
O O11 0.250000 0.500000 0.396689
O O12 0.500000 0.250000 0.102144
#
# Coordination Sequence:
#
# PCOD9502043 Si02
#       6
#    16  16   8   4  16   8
#     4  11  22  38  59  87 124 158 199 246 298 363
#     4  10  19  38  62  86 116 155 201 249 298 355
#     4   9  20  35  55  86 120 151 192 241 296 355
#     4  12  20  38  60  92 120 162 202 240 308 360
#     4   9  19  39  60  84 118 153 198 248 298 357
#     4  11  24  38  56  89 126 163 200 245 302 362
#
# _framework density 19.039954999999999
#
# number of rings (size 3 to 8) (size 9 to 14) (size 15 to 20)
#    0.000    1.882    3.529    2.118    0.000    1.412 
#    0.000   17.647    0.000    1.412    0.000    0.000 
#    0.000    0.000    0.000    0.000    0.000    0.000 
#
# Total GULP energy -189402.157952 kJ/mol
# GULP energy per Si atom -5570.651704 kJ/mol
# Density = 1.899662 g / cm^3
# Si number density = 19.039955 Si / 1000 Ang^3
#
#
#
# Elastic Constant Matrix: (Units=GPa)
#
#
# Indices 1 2 3 4 5 6 
#
# 1 98.9238 37.1335 28.8767 0.0000 0.0000 0.0000
# 2 37.1335 125.1891 69.6070 0.0000 0.0000 0.0000
# 3 28.8767 69.6070 128.9798 0.0000 0.0000 0.0000
# 4 0.0000 0.0000 0.0000 13.6041 0.0000 0.0000
# 5 0.0000 0.0000 0.0000 0.0000 -22.0660 0.0000
# 6 0.0000 0.0000 0.0000 0.0000 0.0000 16.7824
#
#
#
# Elastic Compliance Matrix: (Units=1/GPa)
#
#
# Indices 1 2 3 4 5 6 
#
# 1 0.011473 -0.002822 -0.001046 0.000000 0.000000 0.000000
# 2 -0.002822 0.012106 -0.005902 0.000000 0.000000 0.000000
# 3 -0.001046 -0.005902 0.011172 0.000000 0.000000 0.000000
# 4 0.000000 0.000000 0.000000 0.073507 0.000000 0.000000
# 5 0.000000 0.000000 0.000000 0.000000 -0.045319 0.000000
# 6 0.000000 0.000000 0.000000 0.000000 0.000000 0.059586
#
#
# Mechanical properties :
#
#
# Convention : Reuss Voigt Hill
#
# Bulk Modulus (GPa) = 65.73191 69.36967 67.55079
# Shear Modulus (GPa) = 33.98210 16.16248 25.07229
#
# Velocity S-wave (km/s) = 4.22925 2.91670 3.63275
# Velocity P-wave (km/s) = 7.64505 6.91778 7.29049
#
# Compressibility (1/GPa) = 0.01521331
#
# Stress axis : x y z
#
# Youngs Moduli (GPa) = 87.15900 82.60136 89.50671
#
# Poissons Ratio (x) = 0.23307 0.09362
# Poissons Ratio (y) = 0.24593 0.52825
# Poissons Ratio (z) = 0.09116 0.48749
#
# Static dielectric constant tensor:
#      x y z
#    x 1.589380 0.000000 0.000000 
#    y 0.000000 1.666930 0.000000 
#    z 0.000000 0.000000 1.761330 
# 
# From -- ./inp_files/17762.got.cif
#   From: 2010.05.17/outbox.cif.g08.bks.cpg/sg67_9_cif.got.tgz:17762.got - 2010.06.03 18:28:57.
