data_PCOD9502484
_publ_section_title
;
Structure prediction by ZEFSAII (Michael W. Deem and Ramdas Pophale) SiO2 
 PCOD9502484
Probable space group: C M M A
;
_chemical_formula_sum "Si O2"
_cell_formula_units_Z 96
_cell_length_a 28.026241
_cell_length_b 8.533680
_cell_length_c 25.042055
_cell_angle_alpha 90.000000
_cell_angle_beta 90.000000
_cell_angle_gamma 90.000000
_cell_volume 5989.232474
_symmetry_space_group_name_H-M "C M M A"
_symmetry_group_IT_number 67
_symmetry_cell_setting 'orthorhombic'
loop_
_space_group_symop_operation_xyz
x,y,z
-x,1/2-y,z
x,-y,-z
-x,1/2+y,-z
-x,-y,-z
x,1/2+y,-z
-x,y,z
x,1/2-y,z
1/2+x,1/2+y,z
1/2-x,-y,z
1/2+x,1/2-y,-z
1/2-x,y,-z
1/2-x,1/2-y,-z
1/2+x,y,-z
1/2-x,1/2+y,z
1/2+x,-y,z
loop_
_atom_site_type_symbol
_atom_site_label
_atom_site_fract_x
_atom_site_fract_y
_atom_site_fract_z
Si Si1 0.553215 0.440368 0.110895
Si Si2 0.444351 0.941332 0.672374
Si Si3 0.394746 0.939636 0.780573
Si Si4 0.198203 0.436274 0.164090
Si Si5 0.150705 0.561968 0.057860
Si Si6 0.443457 0.062588 0.444434
O O1 0.500000 0.497803 0.098349
O O2 0.552086 0.250000 0.109008
O O3 0.569341 0.483097 0.171062
O O4 0.596424 0.490466 0.072472
O O5 0.500000 0.987047 0.678057
O O6 0.443978 0.750000 0.672415
O O7 0.414428 0.993314 0.723499
O O8 0.425767 0.991890 0.613833
O O9 0.392225 0.750000 0.780430
O O10 0.343302 0.004813 0.796491
O O11 0.198703 0.250000 0.162775
O O12 0.250000 0.500000 0.178960
O O13 0.183656 0.499974 0.105539
O O14 0.151958 0.750000 0.058604
O O15 0.164474 0.500000 0.000000
O O16 0.500000 0.022213 0.444032
O O17 0.439987 0.250000 0.445875
O O18 0.422727 0.000000 0.500000
#
# Coordination Sequence:
#
# PCOD9502484 Si02
#       6
#    16  16  16  16  16  16
#     4   8  14  25  43  66  91 119 148 177 210 249
#     4   8  13  22  40  65  91 122 159 192 220 256
#     4   9  16  28  47  69  91 115 147 185 223 263
#     4  11  22  37  54  70  89 112 140 176 222 271
#     4  10  20  34  51  72  95 118 147 180 215 256
#     4   8  13  21  33  52  81 119 160 195 223 251
#
# _framework density 16.028765
#
# number of rings (size 3 to 8) (size 9 to 14) (size 15 to 20)
#    0.000    3.000    0.000    4.500    0.000    2.667 
#    0.000    2.500    0.000   17.500    0.000    0.000 
#    0.000    0.667    0.000    7.667    0.000    2.667 
#
# Total GULP energy -267335.777661 kJ/mol
# GULP energy per Si atom -5569.495368 kJ/mol
# Density = 1.599228 g / cm^3
# Si number density = 16.028765 Si / 1000 Ang^3
#
#
#
# Elastic Constant Matrix: (Units=GPa)
#
#
# Indices 1 2 3 4 5 6 
#
# 1 60.5747 9.9351 22.3256 0.0000 0.0000 0.0000
# 2 9.9351 23.5602 18.6917 0.0000 0.0000 0.0000
# 3 22.3256 18.6917 123.9724 0.0000 0.0000 0.0000
# 4 0.0000 0.0000 0.0000 18.8257 0.0000 0.0000
# 5 0.0000 0.0000 0.0000 0.0000 13.2533 0.0000
# 6 0.0000 0.0000 0.0000 0.0000 0.0000 14.2837
#
#
#
# Elastic Compliance Matrix: (Units=1/GPa)
#
#
# Indices 1 2 3 4 5 6 
#
# 1 0.018357 -0.005814 -0.002429 0.000000 0.000000 0.000000
# 2 -0.005814 0.050052 -0.006500 0.000000 0.000000 0.000000
# 3 -0.002429 -0.006500 0.009484 0.000000 0.000000 0.000000
# 4 0.000000 0.000000 0.000000 0.053119 0.000000 0.000000
# 5 0.000000 0.000000 0.000000 0.000000 0.075453 0.000000
# 6 0.000000 0.000000 0.000000 0.000000 0.000000 0.070010
#
#
# Mechanical properties :
#
#
# Convention : Reuss Voigt Hill
#
# Bulk Modulus (GPa) = 20.65762 34.44578 27.55170
# Shear Modulus (GPa) = 15.52328 19.74953 17.63640
#
# Velocity S-wave (km/s) = 3.11539 3.51398 3.32067
# Velocity P-wave (km/s) = 5.08495 6.16447 5.65055
#
# Compressibility (1/GPa) = 0.04840829
#
# Stress axis : x y z
#
# Youngs Moduli (GPa) = 54.47377 19.97904 105.44340
#
# Poissons Ratio (x) = 0.11615 0.25616
# Poissons Ratio (y) = 0.31670 0.68534
# Poissons Ratio (z) = 0.13234 0.12986
#
# Static dielectric constant tensor:
#      x y z
#    x 1.522170 0.000000 0.000000 
#    y 0.000000 1.548710 0.000000 
#    z 0.000000 0.000000 1.559080 
# 
# From -- ./inp_files/42703.got.cif
#   From: 2010.05.17/outbox.cif.g08.bks.cpg/sg67_22_cif.got.tgz:42703.got - 2010.06.03 18:28:57.
