data_PCOD9502585
_publ_section_title
;
Structure prediction by ZEFSAII (Michael W. Deem and Ramdas Pophale) SiO2 
 PCOD9502585
Probable space group: C M M A
;
_chemical_formula_sum "Si O2"
_cell_formula_units_Z 104
_cell_length_a 8.619797
_cell_length_b 25.604115
_cell_length_c 25.238261
_cell_angle_alpha 90.000000
_cell_angle_beta 90.000000
_cell_angle_gamma 90.000000
_cell_volume 5570.141586
_symmetry_space_group_name_H-M "C M M A"
_symmetry_group_IT_number 67
_symmetry_cell_setting 'orthorhombic'
loop_
_space_group_symop_operation_xyz
x,y,z
-x,1/2-y,z
x,-y,-z
-x,1/2+y,-z
-x,-y,-z
x,1/2+y,-z
-x,y,z
x,1/2-y,z
1/2+x,1/2+y,z
1/2-x,-y,z
1/2+x,1/2-y,-z
1/2-x,y,-z
1/2-x,1/2-y,-z
1/2+x,y,-z
1/2-x,1/2+y,z
1/2+x,-y,z
loop_
_atom_site_type_symbol
_atom_site_label
_atom_site_fract_x
_atom_site_fract_y
_atom_site_fract_z
Si Si1 0.812956 0.635389 0.059898
Si Si2 0.323024 0.750000 0.358405
Si Si3 0.186769 0.750000 0.059952
Si Si4 0.689144 0.862571 0.351711
Si Si5 0.322516 0.750000 0.229549
Si Si6 0.684880 0.941410 0.147060
Si Si7 0.684837 0.362231 0.233162
Si Si8 0.814277 0.441693 0.443973
O O1 0.766170 0.693269 0.082038
O O2 0.745428 0.589591 0.095592
O O3 0.000000 0.632608 0.059688
O O4 0.750000 0.631779 0.000000
O O5 0.500000 0.750000 0.378300
O O6 0.253870 0.694104 0.372458
O O7 0.326779 0.750000 0.294069
O O8 0.000000 0.750000 0.058869
O O9 0.250000 0.750000 0.000000
O O10 0.500000 0.860375 0.346695
O O11 0.758090 0.870592 0.293447
O O12 0.730227 0.906403 0.394037
O O13 0.500000 0.750000 0.210575
O O14 0.239521 0.804194 0.215432
O O15 0.500000 0.943246 0.146716
O O16 0.743039 0.906597 0.196229
O O17 0.750000 0.000000 0.149195
O O18 0.500000 0.364464 0.230360
O O19 0.750000 0.500000 0.437343
O O20 0.750000 0.421235 0.500000
O O21 0.000000 0.443552 0.446982
#
# Coordination Sequence:
#
# PCOD9502585 Si02
#       8
#    16   8   8  16   8  16  16  16
#     4  10  20  38  62  90 119 151 189 231 281 337
#     4   7  12  27  51  75 102 135 175 218 263 316
#     4   8  16  31  56  87 120 148 177 221 271 324
#     4   9  18  34  56  80 107 145 185 224 274 334
#     4   9  17  34  58  84 115 151 188 229 276 332
#     4  12  26  44  61  81 112 151 193 240 288 338
#     4  11  22  37  59  88 118 149 186 233 283 338
#     4  10  20  34  53  76 105 140 183 231 278 326
#
# _framework density 18.670981000000001
#
# number of rings (size 3 to 8) (size 9 to 14) (size 15 to 20)
#    0.000    2.154    0.000    5.308    0.000    3.385 
#    0.000    5.769    0.000    0.000    0.000    0.000 
#    0.000    0.000    0.000    0.000    0.000    0.000 
#
# Total GULP energy -290159.673228 kJ/mol
# GULP energy per Si atom -5579.993716 kJ/mol
# Density = 1.862848 g / cm^3
# Si number density = 18.670981 Si / 1000 Ang^3
#
#
#
# Elastic Constant Matrix: (Units=GPa)
#
#
# Indices 1 2 3 4 5 6 
#
# 1 104.7816 67.1750 45.7649 0.0000 0.0000 0.0000
# 2 67.1750 180.1324 86.8764 0.0000 0.0000 0.0000
# 3 45.7649 86.8764 107.8600 0.0000 0.0000 0.0000
# 4 0.0000 0.0000 0.0000 47.6795 0.0000 0.0000
# 5 0.0000 0.0000 0.0000 0.0000 24.4959 0.0000
# 6 0.0000 0.0000 0.0000 0.0000 0.0000 23.8809
#
#
#
# Elastic Compliance Matrix: (Units=1/GPa)
#
#
# Indices 1 2 3 4 5 6 
#
# 1 0.012983 -0.003573 -0.002631 0.000000 0.000000 0.000000
# 2 -0.003573 0.010061 -0.006588 0.000000 0.000000 0.000000
# 3 -0.002631 -0.006588 0.015694 0.000000 0.000000 0.000000
# 4 0.000000 0.000000 0.000000 0.020973 0.000000 0.000000
# 5 0.000000 0.000000 0.000000 0.000000 0.040823 0.000000
# 6 0.000000 0.000000 0.000000 0.000000 0.000000 0.041874
#
#
# Mechanical properties :
#
#
# Convention : Reuss Voigt Hill
#
# Bulk Modulus (GPa) = 76.01759 88.04519 82.03139
# Shear Modulus (GPa) = 29.00610 32.07513 30.54062
#
# Velocity S-wave (km/s) = 3.94577 4.14927 4.04880
# Velocity P-wave (km/s) = 7.84611 8.37937 8.11712
#
# Compressibility (1/GPa) = 0.01315485
#
# Stress axis : x y z
#
# Youngs Moduli (GPa) = 77.02191 99.39274 63.71917
#
# Poissons Ratio (x) = 0.35511 0.16765
# Poissons Ratio (y) = 0.27518 0.41977
# Poissons Ratio (z) = 0.20265 0.65478
#
# Static dielectric constant tensor:
#      x y z
#    x 1.630550 0.000000 0.000000 
#    y 0.000000 1.660190 0.000000 
#    z 0.000000 0.000000 1.629730 
# 
# From -- ./inp_files/43779.got.cif
#   From: 2010.05.17/outbox.cif.g08.bks.cpg/sg67_22_cif.got.tgz:43779.got - 2010.06.03 18:28:57.
