data_PCOD9502301
_publ_section_title
;
Structure prediction by ZEFSAII (Michael W. Deem and Ramdas Pophale) SiO2 
 PCOD9502301
Probable space group: C M M A
;
_chemical_formula_sum "Si O2"
_cell_formula_units_Z 104
_cell_length_a 26.894445
_cell_length_b 8.843027
_cell_length_c 25.127614
_cell_angle_alpha 90.000000
_cell_angle_beta 90.000000
_cell_angle_gamma 90.000000
_cell_volume 5976.057803
_symmetry_space_group_name_H-M "C M M A"
_symmetry_group_IT_number 67
_symmetry_cell_setting 'orthorhombic'
loop_
_space_group_symop_operation_xyz
x,y,z
-x,1/2-y,z
x,-y,-z
-x,1/2+y,-z
-x,-y,-z
x,1/2+y,-z
-x,y,z
x,1/2-y,z
1/2+x,1/2+y,z
1/2-x,-y,z
1/2+x,1/2-y,-z
1/2-x,y,-z
1/2-x,1/2-y,-z
1/2+x,y,-z
1/2-x,1/2+y,z
1/2+x,-y,z
loop_
_atom_site_type_symbol
_atom_site_label
_atom_site_fract_x
_atom_site_fract_y
_atom_site_fract_z
Si Si1 0.941836 0.416653 0.837870
Si Si2 0.058179 0.930400 0.730511
Si Si3 0.797154 0.572241 0.941256
Si Si4 0.401349 0.433254 0.615879
Si Si5 0.909118 0.928170 0.941544
Si Si6 0.303608 0.933603 0.559758
Si Si7 0.000000 0.433296 0.559316
O O1 0.919692 0.250000 0.844755
O O2 0.921857 0.498280 0.785223
O O3 0.939682 0.503514 0.893515
O O4 0.000000 0.402654 0.826043
O O5 0.058047 0.750000 0.737358
O O6 0.090106 0.966482 0.678409
O O7 0.000000 0.974253 0.720590
O O8 0.789153 0.750000 0.945948
O O9 0.750000 0.500000 0.912351
O O10 0.852458 0.545401 0.921424
O O11 0.798795 0.500000 0.000000
O O12 0.400813 0.250000 0.608591
O O13 0.350665 0.505903 0.593389
O O14 0.449969 0.502986 0.587085
O O15 0.917114 0.750000 0.947162
O O16 0.916433 0.000000 0.000000
O O17 0.302329 0.750000 0.558698
O O18 0.310094 0.000000 0.500000
O O19 0.250000 0.000000 0.578453
O O20 0.000000 0.500000 0.500000
O O21 0.000000 0.250000 0.559609
#
# Coordination Sequence:
#
# PCOD9502301 Si02
#       7
#    16  16  16  16  16  16   8
#     4  10  21  35  52  75 102 134 173 217 261 312
#     4   9  18  35  57  79 104 138 176 216 265 322
#     4   9  16  26  43  67  93 122 155 191 236 291
#     4  11  21  37  58  83 113 147 186 231 280 334
#     4  10  20  33  50  73 101 133 169 210 258 316
#     4  11  22  38  58  83 113 152 195 238 282 331
#     4  12  24  36  52  80 118 154 185 224 275 332
#
# _framework density 17.402775999999999
#
# number of rings (size 3 to 8) (size 9 to 14) (size 15 to 20)
#    0.000    1.846    0.769    5.308    0.000    4.308 
#    0.000    0.000    0.000    0.923    0.000    4.308 
#    0.000    0.000    0.000    0.000    0.000    0.000 
#
# Total GULP energy -289737.880507 kJ/mol
# GULP energy per Si atom -5571.882317 kJ/mol
# Density = 1.736317 g / cm^3
# Si number density = 17.402776 Si / 1000 Ang^3
#
#
#
# Elastic Constant Matrix: (Units=GPa)
#
#
# Indices 1 2 3 4 5 6 
#
# 1 94.7885 57.2124 51.0876 0.0000 0.0000 0.0000
# 2 57.2124 105.2111 59.9431 0.0000 0.0000 0.0000
# 3 51.0876 59.9431 122.1912 0.0000 0.0000 0.0000
# 4 0.0000 0.0000 0.0000 21.4692 0.0000 0.0000
# 5 0.0000 0.0000 0.0000 0.0000 17.1240 0.0000
# 6 0.0000 0.0000 0.0000 0.0000 0.0000 25.7422
#
#
#
# Elastic Compliance Matrix: (Units=1/GPa)
#
#
# Indices 1 2 3 4 5 6 
#
# 1 0.016724 -0.007093 -0.003513 0.000000 0.000000 0.000000
# 2 -0.007093 0.016200 -0.004982 0.000000 0.000000 0.000000
# 3 -0.003513 -0.004982 0.012096 0.000000 0.000000 0.000000
# 4 0.000000 0.000000 0.000000 0.046578 0.000000 0.000000
# 5 0.000000 0.000000 0.000000 0.000000 0.058398 0.000000
# 6 0.000000 0.000000 0.000000 0.000000 0.000000 0.038847
#
#
# Mechanical properties :
#
#
# Convention : Reuss Voigt Hill
#
# Bulk Modulus (GPa) = 72.22389 73.18635 72.70512
# Shear Modulus (GPa) = 22.25847 23.13027 22.69437
#
# Velocity S-wave (km/s) = 3.58022 3.64966 3.61510
# Velocity P-wave (km/s) = 7.66042 7.73988 7.70025
#
# Compressibility (1/GPa) = 0.01384583
#
# Stress axis : x y z
#
# Youngs Moduli (GPa) = 59.79328 61.72806 82.66939
#
# Poissons Ratio (x) = 0.43784 0.29039
# Poissons Ratio (y) = 0.42412 0.41183
# Poissons Ratio (z) = 0.21004 0.30751
#
# Static dielectric constant tensor:
#      x y z
#    x 1.655810 0.000000 0.000000 
#    y 0.000000 1.614010 0.000000 
#    z 0.000000 0.000000 1.523380 
# 
# From -- ./inp_files/42787.got.cif
#   From: 2010.05.17/outbox.cif.g08.bks.cpg/sg67_22_cif.got.tgz:42787.got - 2010.06.03 18:28:57.
