data_PCOD9502258
_publ_section_title
;
Structure prediction by ZEFSAII (Michael W. Deem and Ramdas Pophale) SiO2 
 PCOD9502258
Probable space group: C M M A
;
_chemical_formula_sum "Si O2"
_cell_formula_units_Z 120
_cell_length_a 8.874201
_cell_length_b 27.199470
_cell_length_c 30.085399
_cell_angle_alpha 90.000000
_cell_angle_beta 90.000000
_cell_angle_gamma 90.000000
_cell_volume 7261.819977
_symmetry_space_group_name_H-M "C M M A"
_symmetry_group_IT_number 67
_symmetry_cell_setting 'orthorhombic'
loop_
_space_group_symop_operation_xyz
x,y,z
-x,1/2-y,z
x,-y,-z
-x,1/2+y,-z
-x,-y,-z
x,1/2+y,-z
-x,y,z
x,1/2-y,z
1/2+x,1/2+y,z
1/2-x,-y,z
1/2+x,1/2-y,-z
1/2-x,y,-z
1/2-x,1/2-y,-z
1/2+x,y,-z
1/2-x,1/2+y,z
1/2+x,-y,z
loop_
_atom_site_type_symbol
_atom_site_label
_atom_site_fract_x
_atom_site_fract_y
_atom_site_fract_z
Si Si1 0.673451 0.809746 0.045733
Si Si2 0.171950 0.307444 0.692076
Si Si3 0.819915 0.052416 0.726895
Si Si4 0.320680 0.447397 0.379058
Si Si5 0.820209 0.652993 0.604494
Si Si6 0.179682 0.691640 0.139214
Si Si7 0.817722 0.750000 0.548935
Si Si8 0.179972 0.646281 0.774280
O O1 0.500000 0.825672 0.048476
O O2 0.673663 0.750000 0.044233
O O3 0.763729 0.822982 0.090182
O O4 0.750000 0.826820 0.000000
O O5 0.165927 0.250000 0.681924
O O6 0.269113 0.332905 0.654149
O O7 0.247543 0.315393 0.739552
O O8 0.000000 0.327124 0.692235
O O9 0.789016 0.059305 0.673999
O O10 0.743060 0.094723 0.755839
O O11 0.000000 0.052803 0.732830
O O12 0.750000 0.000000 0.739108
O O13 0.500000 0.448976 0.384557
O O14 0.250000 0.500000 0.391917
O O15 0.253438 0.400120 0.404310
O O16 0.772027 0.699644 0.574335
O O17 0.000000 0.648716 0.601949
O O18 0.214279 0.750000 0.145248
O O19 0.261704 0.660602 0.177138
O O20 0.000000 0.685958 0.142693
O O21 0.750000 0.750000 0.500000
O O22 0.000000 0.750000 0.547480
O O23 0.000000 0.647317 0.772424
#
# Coordination Sequence:
#
# PCOD9502258 Si02
#       8
#    16  16  16  16  16  16   8  16
#     4   9  16  27  44  65  89 120 162 209 257 308
#     4  11  22  34  49  72 102 139 178 214 254 303
#     4  10  20  34  51  72 100 132 172 212 255 303
#     4  10  20  34  55  82 111 144 179 220 267 314
#     4  11  21  36  57  83 112 141 178 221 263 313
#     4  10  20  33  47  65  94 132 172 214 258 306
#     4  10  24  42  62  88 116 148 182 222 271 318
#     4  12  23  33  48  69  99 137 173 211 257 306
#
# _framework density 16.524781999999998
#
# number of rings (size 3 to 8) (size 9 to 14) (size 15 to 20)
#    0.000    1.600    2.000    4.000    0.000    6.933 
#    0.000    0.000    0.000    0.400    0.000    2.800 
#    0.000    0.533    0.000    5.333    0.000    3.467 
#
# Total GULP energy -334918.170100 kJ/mol
# GULP energy per Si atom -5581.969502 kJ/mol
# Density = 1.648717 g / cm^3
# Si number density = 16.524782 Si / 1000 Ang^3
#
#
#
# Elastic Constant Matrix: (Units=GPa)
#
#
# Indices 1 2 3 4 5 6 
#
# 1 78.5479 43.8895 26.3085 0.0000 0.0000 0.0000
# 2 43.8895 112.3586 32.7573 0.0000 0.0000 0.0000
# 3 26.3085 32.7573 69.0872 0.0000 0.0000 0.0000
# 4 0.0000 0.0000 0.0000 8.7747 0.0000 0.0000
# 5 0.0000 0.0000 0.0000 0.0000 26.5029 0.0000
# 6 0.0000 0.0000 0.0000 0.0000 0.0000 26.4276
#
#
#
# Elastic Compliance Matrix: (Units=1/GPa)
#
#
# Indices 1 2 3 4 5 6 
#
# 1 0.017142 -0.005562 -0.003891 0.000000 0.000000 0.000000
# 2 -0.005562 0.012132 -0.003635 0.000000 0.000000 0.000000
# 3 -0.003891 -0.003635 0.017679 0.000000 0.000000 0.000000
# 4 0.000000 0.000000 0.000000 0.113964 0.000000 0.000000
# 5 0.000000 0.000000 0.000000 0.000000 0.037732 0.000000
# 6 0.000000 0.000000 0.000000 0.000000 0.000000 0.037839
#
#
# Mechanical properties :
#
#
# Convention : Reuss Voigt Hill
#
# Bulk Modulus (GPa) = 48.12379 51.76714 49.94546
# Shear Modulus (GPa) = 18.54676 22.81026 20.67851
#
# Velocity S-wave (km/s) = 3.35380 3.71936 3.54130
# Velocity P-wave (km/s) = 6.64701 7.05973 6.85648
#
# Compressibility (1/GPa) = 0.02077974
#
# Stress axis : x y z
#
# Youngs Moduli (GPa) = 58.33688 82.42537 56.56327
#
# Poissons Ratio (x) = 0.45842 0.22007
# Poissons Ratio (y) = 0.32445 0.20558
# Poissons Ratio (z) = 0.22697 0.29958
#
# Static dielectric constant tensor:
#      x y z
#    x 1.554260 0.000000 0.000000 
#    y 0.000000 1.573960 0.000000 
#    z 0.000000 0.000000 1.532290 
# 
# From -- ./inp_files/43892.got.cif
#   From: 2010.05.17/outbox.cif.g08.bks.cpg/sg67_22_cif.got.tgz:43892.got - 2010.06.03 18:28:57.
