data_PCOD9502523
_publ_section_title
;
Structure prediction by ZEFSAII (Michael W. Deem and Ramdas Pophale) SiO2 
 PCOD9502523
Probable space group: C M M A
;
_chemical_formula_sum "Si O2"
_cell_formula_units_Z 80
_cell_length_a 19.747146
_cell_length_b 8.547604
_cell_length_c 26.988842
_cell_angle_alpha 90.000000
_cell_angle_beta 90.000000
_cell_angle_gamma 90.000000
_cell_volume 4555.467804
_symmetry_space_group_name_H-M "C M M A"
_symmetry_group_IT_number 67
_symmetry_cell_setting 'orthorhombic'
loop_
_space_group_symop_operation_xyz
x,y,z
-x,1/2-y,z
x,-y,-z
-x,1/2+y,-z
-x,-y,-z
x,1/2+y,-z
-x,y,z
x,1/2-y,z
1/2+x,1/2+y,z
1/2-x,-y,z
1/2+x,1/2-y,-z
1/2-x,y,-z
1/2-x,1/2-y,-z
1/2+x,y,-z
1/2-x,1/2+y,z
1/2+x,-y,z
loop_
_atom_site_type_symbol
_atom_site_label
_atom_site_fract_x
_atom_site_fract_y
_atom_site_fract_z
Si Si1 0.078214 0.438948 0.249266
Si Si2 0.173936 0.938079 0.446418
Si Si3 0.327157 0.436980 0.949269
Si Si4 0.421836 0.061228 0.356522
Si Si5 0.326654 0.060845 0.840202
O O1 0.079151 0.250000 0.249649
O O2 0.100864 0.498405 0.303099
O O3 0.125950 0.493432 0.204598
O O4 0.000000 0.489079 0.242145
O O5 0.175428 0.750000 0.447891
O O6 0.125381 0.989640 0.401788
O O7 0.150754 0.000000 0.500000
O O8 0.250000 0.000000 0.438566
O O9 0.325666 0.250000 0.952222
O O10 0.250000 0.500000 0.948742
O O11 0.354276 0.483569 0.895006
O O12 0.359616 0.500000 0.000000
O O13 0.500000 0.011410 0.363926
O O14 0.420673 0.250000 0.354991
O O15 0.324285 0.250000 0.839052
O O16 0.250000 0.000000 0.834976
#
# Coordination Sequence:
#
# PCOD9502523 Si02
#       5
#    16  16  16  16  16
#     4   9  18  33  51  69  91 122 158 192 228 273
#     4  10  20  34  52  73  99 128 156 189 229 274
#     4   9  15  24  39  60  87 116 146 183 226 270
#     4   9  19  35  52  71  95 123 156 193 232 272
#     4   9  18  30  45  68  94 119 151 191 232 273
#
# _framework density 17.561313999999999
#
# number of rings (size 3 to 8) (size 9 to 14) (size 15 to 20)
#    0.000    2.800    0.000    2.400    0.000    4.400 
#    0.000    4.000    0.000    0.600    0.000    0.000 
#    0.000    0.000    0.000    0.000    0.000    5.400 
#
# Total GULP energy -222847.643584 kJ/mol
# GULP energy per Si atom -5571.191090 kJ/mol
# Density = 1.752134 g / cm^3
# Si number density = 17.561314 Si / 1000 Ang^3
#
#
#
# Elastic Constant Matrix: (Units=GPa)
#
#
# Indices 1 2 3 4 5 6 
#
# 1 53.1113 14.8182 90.4326 0.0000 0.0000 0.0000
# 2 14.8182 22.3973 34.4756 0.0000 0.0000 0.0000
# 3 90.4326 34.4756 226.1417 0.0000 0.0000 0.0000
# 4 0.0000 0.0000 0.0000 33.2722 0.0000 0.0000
# 5 0.0000 0.0000 0.0000 0.0000 -36.5868 0.0000
# 6 0.0000 0.0000 0.0000 0.0000 0.0000 15.2991
#
#
#
# Elastic Compliance Matrix: (Units=1/GPa)
#
#
# Indices 1 2 3 4 5 6 
#
# 1 0.059221 -0.003564 -0.023139 0.000000 0.000000 0.000000
# 2 -0.003564 0.058553 -0.007501 0.000000 0.000000 0.000000
# 3 -0.023139 -0.007501 0.014819 0.000000 0.000000 0.000000
# 4 0.000000 0.000000 0.000000 0.030055 0.000000 0.000000
# 5 0.000000 0.000000 0.000000 0.000000 -0.027332 0.000000
# 6 0.000000 0.000000 0.000000 0.000000 0.000000 0.065363
#
#
# Mechanical properties :
#
#
# Convention : Reuss Voigt Hill
#
# Bulk Modulus (GPa) = 15.58014 64.56702 40.07358
# Shear Modulus (GPa) = 17.21276 13.19184 15.20230
#
# Velocity S-wave (km/s) = 3.13413 2.74375 2.94542
# Velocity P-wave (km/s) = 4.68916 6.84719 5.86823
#
# Compressibility (1/GPa) = 0.06418428
#
# Stress axis : x y z
#
# Youngs Moduli (GPa) = 16.88578 17.07861 67.48254
#
# Poissons Ratio (x) = 0.06087 1.56147
# Poissons Ratio (y) = 0.06019 0.50619
# Poissons Ratio (z) = 0.39072 0.12811
#
# Static dielectric constant tensor:
#      x y z
#    x 1.574780 0.000000 0.000000 
#    y 0.000000 1.601510 0.000000 
#    z 0.000000 0.000000 1.629320 
# 
# From -- ./inp_files/43308.got.cif
#   From: 2010.05.17/outbox.cif.g08.bks.cpg/sg67_22_cif.got.tgz:43308.got - 2010.06.03 18:28:57.
