data_PCOD9502538
_publ_section_title
;
Structure prediction by ZEFSAII (Michael W. Deem and Ramdas Pophale) SiO2 
 PCOD9502538
Probable space group: C M M A
;
_chemical_formula_sum "Si O2"
_cell_formula_units_Z 96
_cell_length_a 9.115994
_cell_length_b 14.378119
_cell_length_c 32.139975
_cell_angle_alpha 90.000000
_cell_angle_beta 90.000000
_cell_angle_gamma 90.000000
_cell_volume 4212.613731
_symmetry_space_group_name_H-M "C M M A"
_symmetry_group_IT_number 67
_symmetry_cell_setting 'orthorhombic'
loop_
_space_group_symop_operation_xyz
x,y,z
-x,1/2-y,z
x,-y,-z
-x,1/2+y,-z
-x,-y,-z
x,1/2+y,-z
-x,y,z
x,1/2-y,z
1/2+x,1/2+y,z
1/2-x,-y,z
1/2+x,1/2-y,-z
1/2-x,y,-z
1/2-x,1/2-y,-z
1/2+x,y,-z
1/2-x,1/2+y,z
1/2+x,-y,z
loop_
_atom_site_type_symbol
_atom_site_label
_atom_site_fract_x
_atom_site_fract_y
_atom_site_fract_z
Si Si1 0.332652 0.136375 0.625945
Si Si2 0.332759 0.636452 0.709842
Si Si3 0.323668 0.398489 0.959091
Si Si4 0.167478 0.636074 0.793890
Si Si5 0.832671 0.136381 0.541982
Si Si6 0.663133 0.641465 0.875071
O O1 0.500000 0.103634 0.626893
O O2 0.335799 0.250000 0.626000
O O3 0.245789 0.108419 0.667237
O O4 0.251989 0.108492 0.583644
O O5 0.500000 0.603492 0.711608
O O6 0.336268 0.750000 0.709802
O O7 0.243230 0.609076 0.750743
O O8 0.500000 0.399217 0.962636
O O9 0.250000 0.500000 0.958511
O O10 0.268793 0.361502 0.914926
O O11 0.250000 0.353015 0.000000
O O12 0.164116 0.750000 0.794483
O O13 0.259989 0.604001 0.833772
O O14 0.000000 0.603840 0.796290
O O15 0.835825 0.250000 0.541993
O O16 0.750000 0.108479 0.500000
O O17 0.000000 0.103591 0.542290
O O18 0.500000 0.600782 0.883636
O O19 0.642986 0.750000 0.866491
#
# Coordination Sequence:
#
# PCOD9502538 Si02
#       6
#    16  16  16  16  16  16
#     4   9  15  21  28  38  52  72 101 138 181 232
#     4   9  15  22  32  46  65  90 119 152 193 243
#     4  11  22  38  58  78 102 131 164 199 237 281
#     4   9  16  26  40  59  83 110 139 172 213 260
#     4   9  15  21  27  34  45  63  90 128 176 229
#     4  10  20  34  52  75 102 130 161 197 237 281
#
# _framework density 22.788701
#
# number of rings (size 3 to 8) (size 9 to 14) (size 15 to 20)
#    0.000    2.500    0.000    4.500    0.000    9.333 
#    0.000    0.000    0.000    0.000    0.000    0.000 
#    0.000    0.000    0.000    0.000    0.000    0.000 
#
# Total GULP energy -268327.846452 kJ/mol
# GULP energy per Si atom -5590.163468 kJ/mol
# Density = 2.273683 g / cm^3
# Si number density = 22.788701 Si / 1000 Ang^3
#
#
#
# Elastic Constant Matrix: (Units=GPa)
#
#
# Indices 1 2 3 4 5 6 
#
# 1 252.8167 11.5538 132.3506 0.0000 0.0000 0.0000
# 2 11.5538 65.8376 4.9618 0.0000 0.0000 0.0000
# 3 132.3506 4.9618 236.6913 0.0000 0.0000 0.0000
# 4 0.0000 0.0000 0.0000 4.6123 0.0000 0.0000
# 5 0.0000 0.0000 0.0000 0.0000 38.1099 0.0000
# 6 0.0000 0.0000 0.0000 0.0000 0.0000 3.8558
#
#
#
# Elastic Compliance Matrix: (Units=1/GPa)
#
#
# Indices 1 2 3 4 5 6 
#
# 1 0.005629 -0.000752 -0.003132 0.000000 0.000000 0.000000
# 2 -0.000752 0.015313 0.000099 0.000000 0.000000 0.000000
# 3 -0.003132 0.000099 0.005974 0.000000 0.000000 0.000000
# 4 0.000000 0.000000 0.000000 0.216812 0.000000 0.000000
# 5 0.000000 0.000000 0.000000 0.000000 0.026240 0.000000
# 6 0.000000 0.000000 0.000000 0.000000 0.000000 0.259349
#
#
# Mechanical properties :
#
#
# Convention : Reuss Voigt Hill
#
# Bulk Modulus (GPa) = 51.68509 94.78645 73.23577
# Shear Modulus (GPa) = 9.20242 36.41423 22.80832
#
# Velocity S-wave (km/s) = 2.01169 4.00172 3.16707
# Velocity P-wave (km/s) = 5.30333 7.93950 6.75133
#
# Compressibility (1/GPa) = 0.01934794
#
# Stress axis : x y z
#
# Youngs Moduli (GPa) = 177.63771 65.30252 167.38711
#
# Poissons Ratio (x) = 0.04910 0.52426
# Poissons Ratio (y) = 0.13356 -0.01664
# Poissons Ratio (z) = 0.55637 -0.00649
#
# Static dielectric constant tensor:
#      x y z
#    x 1.798480 0.000000 0.000000 
#    y 0.000000 2.412470 0.000000 
#    z 0.000000 0.000000 1.809950 
# 
# From -- ./inp_files/43456.got.cif
#   From: 2010.05.17/outbox.cif.g08.bks.cpg/sg67_22_cif.got.tgz:43456.got - 2010.06.03 18:28:57.
