data_PCOD9502163
_publ_section_title
;
Structure prediction by ZEFSAII (Michael W. Deem and Ramdas Pophale) SiO2 
 PCOD9502163
Probable space group: C M M A
;
_chemical_formula_sum "Si O2"
_cell_formula_units_Z 88
_cell_length_a 31.392344
_cell_length_b 8.722427
_cell_length_c 17.840443
_cell_angle_alpha 90.000000
_cell_angle_beta 90.000000
_cell_angle_gamma 90.000000
_cell_volume 4885.024233
_symmetry_space_group_name_H-M "C M M A"
_symmetry_group_IT_number 67
_symmetry_cell_setting 'orthorhombic'
loop_
_space_group_symop_operation_xyz
x,y,z
-x,1/2-y,z
x,-y,-z
-x,1/2+y,-z
-x,-y,-z
x,1/2+y,-z
-x,y,z
x,1/2-y,z
1/2+x,1/2+y,z
1/2-x,-y,z
1/2+x,1/2-y,-z
1/2-x,y,-z
1/2-x,1/2-y,-z
1/2+x,y,-z
1/2-x,1/2+y,z
1/2+x,-y,z
loop_
_atom_site_type_symbol
_atom_site_label
_atom_site_fract_x
_atom_site_fract_y
_atom_site_fract_z
Si Si1 0.451771 0.434140 0.083919
Si Si2 0.089224 0.934002 0.348438
Si Si3 0.000000 0.933744 0.417993
Si Si4 0.822815 0.931824 0.420781
Si Si5 0.619360 0.931160 0.193750
Si Si6 0.204658 0.934479 0.253664
O O1 0.500000 0.473873 0.112078
O O2 0.449002 0.250000 0.082461
O O3 0.413289 0.499519 0.133358
O O4 0.448649 0.500000 0.000000
O O5 0.090248 0.750000 0.331749
O O6 0.043173 0.979254 0.377183
O O7 0.126703 0.961385 0.408458
O O8 0.099626 0.026911 0.274284
O O9 0.000000 0.750000 0.421699
O O10 0.000000 0.000000 0.500000
O O11 0.816071 0.750000 0.424536
O O12 0.802994 0.985265 0.341107
O O13 0.808180 0.000000 0.500000
O O14 0.623051 0.750000 0.182903
O O15 0.666344 0.005185 0.201550
O O16 0.204033 0.750000 0.253273
O O17 0.250000 0.000000 0.229716
#
# Coordination Sequence:
#
# PCOD9502163 Si02
#       6
#    16  16   8  16  16  16
#     4  10  21  38  61  89 122 156 187 224 270 321
#     4   9  19  34  48  69 100 140 184 228 278 331
#     4  10  20  32  48  68  97 136 181 230 282 332
#     4   9  18  31  48  69  99 135 177 228 282 337
#     4  11  22  36  57  84 113 147 186 228 274 328
#     4  10  21  38  57  80 109 143 186 233 285 338
#
# _framework density 18.014240000000001
#
# number of rings (size 3 to 8) (size 9 to 14) (size 15 to 20)
#    0.000    2.182    0.000    4.364    1.273    5.818 
#    0.000    1.818    0.000    0.545    0.000    3.818 
#    0.000    0.000    0.000    0.000    0.000    0.000 
#
# Total GULP energy -245455.683737 kJ/mol
# GULP energy per Si atom -5578.538267 kJ/mol
# Density = 1.797324 g / cm^3
# Si number density = 18.014240 Si / 1000 Ang^3
#
#
#
# Elastic Constant Matrix: (Units=GPa)
#
#
# Indices 1 2 3 4 5 6 
#
# 1 162.0129 55.2962 52.5723 0.0000 0.0000 0.0000
# 2 55.2962 67.1645 37.0079 0.0000 0.0000 0.0000
# 3 52.5723 37.0079 67.6214 0.0000 0.0000 0.0000
# 4 0.0000 0.0000 0.0000 31.7437 0.0000 0.0000
# 5 0.0000 0.0000 0.0000 0.0000 11.4747 0.0000
# 6 0.0000 0.0000 0.0000 0.0000 0.0000 24.5542
#
#
#
# Elastic Compliance Matrix: (Units=1/GPa)
#
#
# Indices 1 2 3 4 5 6 
#
# 1 0.009421 -0.005327 -0.004409 0.000000 0.000000 0.000000
# 2 -0.005327 0.024329 -0.009173 0.000000 0.000000 0.000000
# 3 -0.004409 -0.009173 0.023237 0.000000 0.000000 0.000000
# 4 0.000000 0.000000 0.000000 0.031502 0.000000 0.000000
# 5 0.000000 0.000000 0.000000 0.000000 0.087148 0.000000
# 6 0.000000 0.000000 0.000000 0.000000 0.000000 0.040726
#
#
# Mechanical properties :
#
#
# Convention : Reuss Voigt Hill
#
# Bulk Modulus (GPa) = 52.17092 65.17240 58.67166
# Shear Modulus (GPa) = 19.18856 23.68269 21.43563
#
# Velocity S-wave (km/s) = 3.26726 3.62976 3.45327
# Velocity P-wave (km/s) = 6.57702 7.33647 6.96710
#
# Compressibility (1/GPa) = 0.01916777
#
# Stress axis : x y z
#
# Youngs Moduli (GPa) = 106.14316 41.10317 43.03567
#
# Poissons Ratio (x) = 0.21896 0.18975
# Poissons Ratio (y) = 0.56542 0.39478
# Poissons Ratio (z) = 0.46801 0.37705
#
# Static dielectric constant tensor:
#      x y z
#    x 1.642260 0.000000 0.000000 
#    y 0.000000 1.608040 0.000000 
#    z 0.000000 0.000000 1.588960 
# 
# From -- ./inp_files/36163.got.cif
#   From: 2010.05.17/outbox.cif.g08.bks.cpg/sg67_19_cif.got.tgz:36163.got - 2010.06.03 18:28:57.
