data_PCOD9502048
_publ_section_title
;
Structure prediction by ZEFSAII (Michael W. Deem and Ramdas Pophale) SiO2 
 PCOD9502048
Probable space group: C M M A
;
_chemical_formula_sum "Si O2"
_cell_formula_units_Z 100
_cell_length_a 14.603964
_cell_length_b 14.016830
_cell_length_c 25.089900
_cell_angle_alpha 90.000000
_cell_angle_beta 90.000000
_cell_angle_gamma 90.000000
_cell_volume 5135.934663
_symmetry_space_group_name_H-M "C M M A"
_symmetry_group_IT_number 67
_symmetry_cell_setting 'orthorhombic'
loop_
_space_group_symop_operation_xyz
x,y,z
-x,1/2-y,z
x,-y,-z
-x,1/2+y,-z
-x,-y,-z
x,1/2+y,-z
-x,y,z
x,1/2-y,z
1/2+x,1/2+y,z
1/2-x,-y,z
1/2+x,1/2-y,-z
1/2-x,y,-z
1/2-x,1/2-y,-z
1/2+x,y,-z
1/2-x,1/2+y,z
1/2+x,-y,z
loop_
_atom_site_type_symbol
_atom_site_label
_atom_site_fract_x
_atom_site_fract_y
_atom_site_fract_z
Si Si1 0.603446 0.133457 0.975971
Si Si2 0.711068 0.365622 0.080163
Si Si3 0.890926 0.965039 0.753469
Si Si4 0.217347 0.864003 0.202095
Si Si5 0.342402 0.397087 0.525052
Si Si6 0.000000 0.750000 0.502533
Si Si7 0.391093 0.639117 0.358231
O O1 0.500000 0.101310 0.964254
O O2 0.601871 0.250000 0.974212
O O3 0.686905 0.102866 0.937610
O O4 0.637507 0.105630 0.035348
O O5 0.712690 0.250000 0.077969
O O6 0.692194 0.389841 0.141058
O O7 0.822234 0.897509 0.787578
O O8 0.878713 0.926255 0.693362
O O9 0.000000 0.960111 0.766290
O O10 0.849012 0.070820 0.761637
O O11 0.208764 0.750000 0.209892
O O12 0.356255 0.500000 0.500000
O O13 0.250000 0.359748 0.500000
O O14 0.422274 0.331157 0.506429
O O15 0.340371 0.396697 0.589222
O O16 0.500000 0.639597 0.370911
O O17 0.366224 0.750000 0.346970
#
# Coordination Sequence:
#
# PCOD9502048 Si02
#       7
#    16  16  16  16  16   4  16
#     4   8  13  23  42  72 106 141 188 235 276 343
#     4   8  15  27  45  73 110 148 182 229 295 356
#     4  10  23  40  63  87 113 152 207 253 291 349
#     4  10  21  38  59  86 122 155 190 247 315 366
#     4  11  23  37  63  95 127 165 211 253 301 366
#     4  12  20  40  60  88 136 172 200 252 312 360
#     4  10  19  38  65  89 119 163 206 249 299 352
#
# _framework density 19.470652000000001
#
# number of rings (size 3 to 8) (size 9 to 14) (size 15 to 20)
#    0.000    2.400    1.600    1.920    0.000    5.120 
#    0.000    3.200    1.760    7.680    0.000    8.960 
#    0.000    0.000    0.000    0.000    0.000    0.320 
#
# Total GULP energy -278388.736759 kJ/mol
# GULP energy per Si atom -5567.774735 kJ/mol
# Density = 1.942634 g / cm^3
# Si number density = 19.470652 Si / 1000 Ang^3
#
#
#
# Elastic Constant Matrix: (Units=GPa)
#
#
# Indices 1 2 3 4 5 6 
#
# 1 114.3299 27.1001 36.6341 0.0000 0.0000 0.0000
# 2 27.1001 115.9692 37.6050 0.0000 0.0000 0.0000
# 3 36.6341 37.6050 99.4702 0.0000 0.0000 0.0000
# 4 0.0000 0.0000 0.0000 26.2221 0.0000 0.0000
# 5 0.0000 0.0000 0.0000 0.0000 24.4030 0.0000
# 6 0.0000 0.0000 0.0000 0.0000 0.0000 30.3461
#
#
#
# Elastic Compliance Matrix: (Units=1/GPa)
#
#
# Indices 1 2 3 4 5 6 
#
# 1 0.010090 -0.001314 -0.003219 0.000000 0.000000 0.000000
# 2 -0.001314 0.009999 -0.003296 0.000000 0.000000 0.000000
# 3 -0.003219 -0.003296 0.012485 0.000000 0.000000 0.000000
# 4 0.000000 0.000000 0.000000 0.038136 0.000000 0.000000
# 5 0.000000 0.000000 0.000000 0.000000 0.040979 0.000000
# 6 0.000000 0.000000 0.000000 0.000000 0.000000 0.032953
#
#
# Mechanical properties :
#
#
# Convention : Reuss Voigt Hill
#
# Bulk Modulus (GPa) = 59.11956 59.16083 59.14020
# Shear Modulus (GPa) = 30.13179 31.42292 30.77736
#
# Velocity S-wave (km/s) = 3.93816 4.02165 3.98012
# Velocity P-wave (km/s) = 7.14899 7.21217 7.18065
#
# Compressibility (1/GPa) = 0.01691487
#
# Stress axis : x y z
#
# Youngs Moduli (GPa) = 99.11229 100.01133 80.09610
#
# Poissons Ratio (x) = 0.13140 0.25784
# Poissons Ratio (y) = 0.13022 0.26401
# Poissons Ratio (z) = 0.31906 0.32966
#
# Static dielectric constant tensor:
#      x y z
#    x 1.654240 0.000000 0.000000 
#    y 0.000000 1.703840 0.000000 
#    z 0.000000 0.000000 1.689100 
# 
# From -- ./inp_files/41895.got.cif
#   From: 2010.05.17/outbox.cif.g08.bks.cpg/sg67_21_cif.got.tgz:41895.got - 2010.06.03 18:28:57.
