data_PCOD9502486
_publ_section_title
;
Structure prediction by ZEFSAII (Michael W. Deem and Ramdas Pophale) SiO2 
 PCOD9502486
Probable space group: C M M A
;
_chemical_formula_sum "Si O2"
_cell_formula_units_Z 64
_cell_length_a 40.523025
_cell_length_b 8.261495
_cell_length_c 10.532206
_cell_angle_alpha 90.000000
_cell_angle_beta 90.000000
_cell_angle_gamma 90.000000
_cell_volume 3525.980018
_symmetry_space_group_name_H-M "C M M A"
_symmetry_group_IT_number 67
_symmetry_cell_setting 'orthorhombic'
loop_
_space_group_symop_operation_xyz
x,y,z
-x,1/2-y,z
x,-y,-z
-x,1/2+y,-z
-x,-y,-z
x,1/2+y,-z
-x,y,z
x,1/2-y,z
1/2+x,1/2+y,z
1/2-x,-y,z
1/2+x,1/2-y,-z
1/2-x,y,-z
1/2-x,1/2-y,-z
1/2+x,y,-z
1/2-x,1/2+y,z
1/2+x,-y,z
loop_
_atom_site_type_symbol
_atom_site_label
_atom_site_fract_x
_atom_site_fract_y
_atom_site_fract_z
Si Si1 0.587265 0.445529 0.359329
Si Si2 0.212587 0.943827 0.141416
Si Si3 0.837038 0.945545 0.359216
Si Si4 0.037832 0.054465 0.859207
O O1 0.577084 0.500000 0.500000
O O2 0.587328 0.250000 0.356922
O O3 0.625109 0.500578 0.338564
O O4 0.562584 0.503405 0.249942
O O5 0.212327 0.750000 0.142321
O O6 0.187528 0.003542 0.249435
O O7 0.250000 0.000000 0.165813
O O8 0.203184 0.000000 0.000000
O O9 0.837069 0.750000 0.356871
O O10 0.826842 0.000000 0.500000
O O11 0.037781 0.250000 0.856831
O O12 0.000000 0.999441 0.838017
O O13 0.047908 0.000000 0.000000
#
# Coordination Sequence:
#
# PCOD9502486 Si02
#       4
#    16  16  16  16
#     4   9  18  33  50  70  97 126 158 196 236 279
#     4  10  20  34  51  72  97 125 158 195 236 281
#     4   9  19  34  51  71  96 126 159 195 235 281
#     4   9  18  32  49  70  97 127 159 196 236 279
#
# _framework density 18.150981999999999
#
# number of rings (size 3 to 8) (size 9 to 14) (size 15 to 20)
#    0.000    2.750    0.000    1.500    0.000    5.000 
#    0.000    2.500    0.000    0.000    0.000    0.000 
#    0.000    0.000    0.000    0.000    0.000    0.000 
#
# Total GULP energy -178459.232579 kJ/mol
# GULP energy per Si atom -5576.851018 kJ/mol
# Density = 1.810967 g / cm^3
# Si number density = 18.150982 Si / 1000 Ang^3
#
#
#
# Elastic Constant Matrix: (Units=GPa)
#
#
# Indices 1 2 3 4 5 6 
#
# 1 105.7496 13.9631 134.7092 0.0000 0.0000 0.0000
# 2 13.9631 11.6777 15.1280 0.0000 0.0000 0.0000
# 3 134.7092 15.1280 206.2817 0.0000 0.0000 0.0000
# 4 0.0000 0.0000 0.0000 29.2573 0.0000 0.0000
# 5 0.0000 0.0000 0.0000 0.0000 45.5751 0.0000
# 6 0.0000 0.0000 0.0000 0.0000 0.0000 10.0812
#
#
#
# Elastic Compliance Matrix: (Units=1/GPa)
#
#
# Indices 1 2 3 4 5 6 
#
# 1 0.061723 -0.023852 -0.038558 0.000000 0.000000 0.000000
# 2 -0.023852 0.103840 0.007961 0.000000 0.000000 0.000000
# 3 -0.038558 0.007961 0.029444 0.000000 0.000000 0.000000
# 4 0.000000 0.000000 0.000000 0.034179 0.000000 0.000000
# 5 0.000000 0.000000 0.000000 0.000000 0.021942 0.000000
# 6 0.000000 0.000000 0.000000 0.000000 0.000000 0.099194
#
#
# Mechanical properties :
#
#
# Convention : Reuss Voigt Hill
#
# Bulk Modulus (GPa) = 11.61325 72.36771 41.99048
# Shear Modulus (GPa) = 10.24753 27.64331 18.94542
#
# Velocity S-wave (km/s) = 2.37865 3.90675 3.23425
# Velocity P-wave (km/s) = 3.73577 7.76574 6.09355
#
# Compressibility (1/GPa) = 0.08610857
#
# Stress axis : x y z
#
# Youngs Moduli (GPa) = 16.20152 9.63018 33.96334
#
# Poissons Ratio (x) = 0.22970 1.30955
# Poissons Ratio (y) = 0.38644 -0.27038
# Poissons Ratio (z) = 0.62470 -0.07667
#
# Static dielectric constant tensor:
#      x y z
#    x 1.626190 0.000000 0.000000 
#    y 0.000000 1.638740 0.000000 
#    z 0.000000 0.000000 1.596720 
# 
# From -- ./inp_files/15798.got.cif
#   From: 2010.05.17/outbox.cif.g08.bks.cpg/sg67_8_cif.got.tgz:15798.got - 2010.06.03 18:28:57.
