data_PCOD9502197
_publ_section_title
;
Structure prediction by ZEFSAII (Michael W. Deem and Ramdas Pophale) SiO2 
 PCOD9502197
Probable space group: C M M A
;
_chemical_formula_sum "Si O2"
_cell_formula_units_Z 64
_cell_length_a 38.365317
_cell_length_b 10.552185
_cell_length_c 7.127801
_cell_angle_alpha 90.000000
_cell_angle_beta 90.000000
_cell_angle_gamma 90.000000
_cell_volume 2885.604149
_symmetry_space_group_name_H-M "C M M A"
_symmetry_group_IT_number 67
_symmetry_cell_setting 'orthorhombic'
loop_
_space_group_symop_operation_xyz
x,y,z
-x,1/2-y,z
x,-y,-z
-x,1/2+y,-z
-x,-y,-z
x,1/2+y,-z
-x,y,z
x,1/2-y,z
1/2+x,1/2+y,z
1/2-x,-y,z
1/2+x,1/2-y,-z
1/2-x,y,-z
1/2-x,1/2-y,-z
1/2+x,y,-z
1/2-x,1/2+y,z
1/2+x,-y,z
loop_
_atom_site_type_symbol
_atom_site_label
_atom_site_fract_x
_atom_site_fract_y
_atom_site_fract_z
Si Si1 0.768647 0.884597 0.296714
Si Si2 0.041130 0.750000 0.760887
Si Si3 0.155179 0.402335 0.824504
Si Si4 0.581426 0.495655 0.228273
Si Si5 0.960522 0.750000 0.216918
O O1 0.762908 0.750000 0.203095
O O2 0.750000 0.877202 0.500000
O O3 0.809997 0.904995 0.300092
O O4 0.750000 0.000000 0.199492
O O5 0.063301 0.625240 0.707901
O O6 0.000000 0.750000 0.705154
O O7 0.040299 0.750000 0.989348
O O8 0.149114 0.250000 0.874283
O O9 0.121075 0.459318 0.723639
O O10 0.161054 0.500000 0.000000
O O11 0.558082 0.376589 0.281987
O O12 0.581826 0.500000 0.000000
O O13 0.000000 0.750000 0.277155
#
# Coordination Sequence:
#
# PCOD9502197 Si02
#       5
#    16   8  16  16   8
#     4   9  19  37  57  76  99 130 167 211 260 313
#     4   9  16  24  36  56  86 128 176 216 253 294
#     4  10  20  32  49  73 102 137 173 215 263 311
#     4   9  16  25  37  58  89 127 169 213 252 297
#     4   9  14  22  36  54  82 124 170 208 247 292
#
# _framework density 22.179065999999999
#
# number of rings (size 3 to 8) (size 9 to 14) (size 15 to 20)
#    0.000    2.750    1.250    0.750    5.250    4.500 
#    0.000    2.500    0.000    0.000    0.000    0.000 
#    0.000    0.000    0.000   27.000    0.000   12.000 
#
# Total GULP energy -178355.307002 kJ/mol
# GULP energy per Si atom -5573.603344 kJ/mol
# Density = 2.212859 g / cm^3
# Si number density = 22.179066 Si / 1000 Ang^3
#
#
#
# Elastic Constant Matrix: (Units=GPa)
#
#
# Indices 1 2 3 4 5 6 
#
# 1 233.6629 130.3487 40.0944 0.0000 0.0000 0.0000
# 2 130.3487 244.8162 18.6776 0.0000 0.0000 0.0000
# 3 40.0944 18.6776 100.9941 0.0000 0.0000 0.0000
# 4 0.0000 0.0000 0.0000 -13.8361 0.0000 0.0000
# 5 0.0000 0.0000 0.0000 0.0000 44.2324 0.0000
# 6 0.0000 0.0000 0.0000 0.0000 0.0000 42.2637
#
#
#
# Elastic Compliance Matrix: (Units=1/GPa)
#
#
# Indices 1 2 3 4 5 6 
#
# 1 0.006446 -0.003283 -0.001952 0.000000 0.000000 0.000000
# 2 -0.003283 0.005815 0.000228 0.000000 0.000000 0.000000
# 3 -0.001952 0.000228 0.010634 0.000000 0.000000 0.000000
# 4 0.000000 0.000000 0.000000 -0.072275 0.000000 0.000000
# 5 0.000000 0.000000 0.000000 0.000000 0.022608 0.000000
# 6 0.000000 0.000000 0.000000 0.000000 0.000000 0.023661
#
#
# Mechanical properties :
#
#
# Convention : Reuss Voigt Hill
#
# Bulk Modulus (GPa) = 77.63082 106.41274 92.02178
# Shear Modulus (GPa) = 446.48845 40.55547 243.52196
#
# Velocity S-wave (km/s) = 14.20379 4.28079 10.48983
# Velocity P-wave (km/s) = 17.43774 8.51567 13.72209
#
# Compressibility (1/GPa) = 0.01288148
#
# Stress axis : x y z
#
# Youngs Moduli (GPa) = 155.13124 171.95666 94.03516
#
# Poissons Ratio (x) = 0.56458 0.18355
# Poissons Ratio (y) = 0.50933 -0.02144
# Poissons Ratio (z) = 0.30280 -0.03920
#
# Static dielectric constant tensor:
#      x y z
#    x 1.789450 0.000000 0.000000 
#    y 0.000000 1.851710 0.000000 
#    z 0.000000 0.000000 1.725270 
# 
# From -- ./inp_files/14376.got.cif
#   From: 2010.05.17/outbox.cif.g08.bks.cpg/sg67_8_cif.got.tgz:14376.got - 2010.06.03 18:28:57.
