data_PCOD9502386
_publ_section_title
;
Structure prediction by ZEFSAII (Michael W. Deem and Ramdas Pophale) SiO2 
 PCOD9502386
Probable space group: C M M A
;
_chemical_formula_sum "Si O2"
_cell_formula_units_Z 100
_cell_length_a 25.614375
_cell_length_b 9.138845
_cell_length_c 20.271779
_cell_angle_alpha 90.000000
_cell_angle_beta 90.000000
_cell_angle_gamma 90.000000
_cell_volume 4745.335663
_symmetry_space_group_name_H-M "C M M A"
_symmetry_group_IT_number 67
_symmetry_cell_setting 'orthorhombic'
loop_
_space_group_symop_operation_xyz
x,y,z
-x,1/2-y,z
x,-y,-z
-x,1/2+y,-z
-x,-y,-z
x,1/2+y,-z
-x,y,z
x,1/2-y,z
1/2+x,1/2+y,z
1/2-x,-y,z
1/2+x,1/2-y,-z
1/2-x,y,-z
1/2-x,1/2-y,-z
1/2+x,y,-z
1/2-x,1/2+y,z
1/2+x,-y,z
loop_
_atom_site_type_symbol
_atom_site_label
_atom_site_fract_x
_atom_site_fract_y
_atom_site_fract_z
Si Si1 0.169365 0.421659 0.241341
Si Si2 0.092434 0.412930 0.561966
Si Si3 0.444126 0.425275 0.796453
Si Si4 0.303083 0.923164 0.391705
Si Si5 0.799792 0.079199 0.891586
Si Si6 0.582414 0.422788 0.066587
Si Si7 0.000000 0.250000 0.622919
O O1 0.173716 0.250000 0.222946
O O2 0.107696 0.460338 0.244352
O O3 0.194608 0.440868 0.312167
O O4 0.192196 0.516402 0.182140
O O5 0.069234 0.500000 0.500000
O O6 0.109518 0.250000 0.539619
O O7 0.143807 0.500264 0.583948
O O8 0.046873 0.376146 0.614220
O O9 0.500000 0.467536 0.766583
O O10 0.443761 0.250000 0.806435
O O11 0.439251 0.502949 0.867322
O O12 0.302788 0.750000 0.406256
O O13 0.250000 0.000000 0.415935
O O14 0.789212 0.250000 0.888204
O O15 0.854839 0.057222 0.927709
O O16 0.750000 0.000000 0.921721
O O17 0.571068 0.250000 0.065994
O O18 0.563959 0.500000 0.000000
#
# Coordination Sequence:
#
# PCOD9502386 Si02
#       7
#    16  16  16  16  16  16   4
#     4   9  19  36  57  81 112 147 189 231 284 343
#     4  10  21  40  65  94 125 163 208 252 306 359
#     4   9  18  35  57  78 105 139 179 228 280 337
#     4  11  23  39  60  91 129 167 207 255 304 362
#     4  10  20  33  52  76 102 136 177 221 273 333
#     4  10  21  35  51  73 101 133 173 220 274 337
#     4   8  22  40  70  90 130 164 210 254 304 360
#
# _framework density 21.073325000000001
#
# number of rings (size 3 to 8) (size 9 to 14) (size 15 to 20)
#    0.480    1.760    0.000    2.640    0.000    5.760 
#    1.440    3.200    0.000    0.000    0.000    0.000 
#    0.000    0.000    0.000    0.000    0.000    0.000 
#
# Total GULP energy -278485.139536 kJ/mol
# GULP energy per Si atom -5569.702791 kJ/mol
# Density = 2.102536 g / cm^3
# Si number density = 21.073325 Si / 1000 Ang^3
#
#
#
# Elastic Constant Matrix: (Units=GPa)
#
#
# Indices 1 2 3 4 5 6 
#
# 1 157.3968 51.3876 3.6457 0.0000 0.0000 0.0000
# 2 51.3876 70.7621 23.5037 0.0000 0.0000 0.0000
# 3 3.6457 23.5037 29.9073 0.0000 0.0000 0.0000
# 4 0.0000 0.0000 0.0000 16.3289 0.0000 0.0000
# 5 0.0000 0.0000 0.0000 0.0000 -152.5543 0.0000
# 6 0.0000 0.0000 0.0000 0.0000 0.0000 28.7127
#
#
#
# Elastic Compliance Matrix: (Units=1/GPa)
#
#
# Indices 1 2 3 4 5 6 
#
# 1 0.008934 -0.008291 0.005426 0.000000 0.000000 0.000000
# 2 -0.008291 0.026817 -0.020064 0.000000 0.000000 0.000000
# 3 0.005426 -0.020064 0.048543 0.000000 0.000000 0.000000
# 4 0.000000 0.000000 0.000000 0.061241 0.000000 0.000000
# 5 0.000000 0.000000 0.000000 0.000000 -0.006555 0.000000
# 6 0.000000 0.000000 0.000000 0.000000 0.000000 0.034828
#
#
# Mechanical properties :
#
#
# Convention : Reuss Voigt Hill
#
# Bulk Modulus (GPa) = 26.01622 46.12669 36.07145
# Shear Modulus (GPa) = 21.50739 -9.53391 5.98674
#
# Velocity S-wave (km/s) = 3.19815 -2.12931 1.68733
# Velocity P-wave (km/s) = 5.09999 3.98634 4.57716
#
# Compressibility (1/GPa) = 0.03843756
#
# Stress axis : x y z
#
# Youngs Moduli (GPa) = 111.92655 37.28989 20.60009
#
# Poissons Ratio (x) = 0.30915 -0.11178
# Poissons Ratio (y) = 0.92794 0.41333
# Poissons Ratio (z) = -0.60735 0.74820
#
# Static dielectric constant tensor:
#      x y z
#    x 1.808760 0.000000 0.000000 
#    y 0.000000 1.756160 0.000000 
#    z 0.000000 0.000000 1.748090 
# 
# From -- ./inp_files/40221.got.cif
#   From: 2010.05.17/outbox.cif.g08.bks.cpg/sg67_21_cif.got.tgz:40221.got - 2010.06.03 18:28:57.
