data_PCOD9502962
_publ_section_title
;
Structure prediction by ZEFSAII (Michael W. Deem and Ramdas Pophale) SiO2 
 PCOD9502962
Probable space group: C M M A
;
_chemical_formula_sum "Si O2"
_cell_formula_units_Z 96
_cell_length_a 16.425432
_cell_length_b 22.063437
_cell_length_c 13.499360
_cell_angle_alpha 90.000000
_cell_angle_beta 90.000000
_cell_angle_gamma 90.000000
_cell_volume 4892.188099
_symmetry_space_group_name_H-M "C M M A"
_symmetry_group_IT_number 67
_symmetry_cell_setting 'orthorhombic'
loop_
_space_group_symop_operation_xyz
x,y,z
-x,1/2-y,z
x,-y,-z
-x,1/2+y,-z
-x,-y,-z
x,1/2+y,-z
-x,y,z
x,1/2-y,z
1/2+x,1/2+y,z
1/2-x,-y,z
1/2+x,1/2-y,-z
1/2-x,y,-z
1/2-x,1/2-y,-z
1/2+x,y,-z
1/2-x,1/2+y,z
1/2+x,-y,z
loop_
_atom_site_type_symbol
_atom_site_label
_atom_site_fract_x
_atom_site_fract_y
_atom_site_fract_z
Si Si1 0.764845 0.317513 0.304425
Si Si2 0.098405 0.051923 0.077748
Si Si3 0.664149 0.083751 0.551211
Si Si4 0.904694 0.998981 0.713287
Si Si5 0.908018 0.131612 0.646649
Si Si6 0.177217 0.818176 0.921490
O O1 0.787213 0.250000 0.336183
O O2 0.816452 0.364495 0.368375
O O3 0.668971 0.327360 0.326105
O O4 0.785799 0.323957 0.188924
O O5 0.128175 0.031117 0.186704
O O6 0.125096 0.121144 0.058601
O O7 0.000000 0.050269 0.077878
O O8 0.125901 0.000000 0.000000
O O9 0.750000 0.071411 0.500000
O O10 0.634679 0.026956 0.614184
O O11 0.604256 0.108407 0.466408
O O12 0.000000 0.983740 0.707170
O O13 0.898071 0.071275 0.713597
O O14 0.000000 0.155477 0.659343
O O15 0.138242 0.750000 0.927142
O O16 0.250000 0.818464 0.000000
#
# Coordination Sequence:
#
# PCOD9502962 Si02
#       6
#    16  16  16  16  16  16
#     4  10  22  40  59  82 117 154 196 247 291 341
#     4  10  22  40  64  94 124 152 191 246 302 355
#     4  10  20  35  57  84 115 154 197 241 290 344
#     4  10  20  37  58  84 120 154 188 238 295 350
#     4  10  22  36  56  84 117 156 197 241 293 351
#     4  10  22  42  64  89 119 158 199 239 292 357
#
# _framework density 19.623121000000001
#
# number of rings (size 3 to 8) (size 9 to 14) (size 15 to 20)
#    0.000    2.000    1.667    1.000    2.333   10.000 
#    0.000    0.000    0.000    4.500    0.000    0.000 
#    0.000    0.000    0.000    0.000    0.000    0.000 
#
# Total GULP energy -267867.747755 kJ/mol
# GULP energy per Si atom -5580.578078 kJ/mol
# Density = 1.957846 g / cm^3
# Si number density = 19.623121 Si / 1000 Ang^3
#
#
#
# Elastic Constant Matrix: (Units=GPa)
#
#
# Indices 1 2 3 4 5 6 
#
# 1 25.0838 13.3604 1.3486 0.0000 0.0000 0.0000
# 2 13.3604 86.1074 43.0718 0.0000 0.0000 0.0000
# 3 1.3486 43.0718 73.0040 0.0000 0.0000 0.0000
# 4 0.0000 0.0000 0.0000 27.3412 0.0000 0.0000
# 5 0.0000 0.0000 0.0000 0.0000 17.5793 0.0000
# 6 0.0000 0.0000 0.0000 0.0000 0.0000 22.5241
#
#
#
# Elastic Compliance Matrix: (Units=1/GPa)
#
#
# Indices 1 2 3 4 5 6 
#
# 1 0.044528 -0.009218 0.004616 0.000000 0.000000 0.000000
# 2 -0.009218 0.018384 -0.010676 0.000000 0.000000 0.000000
# 3 0.004616 -0.010676 0.019911 0.000000 0.000000 0.000000
# 4 0.000000 0.000000 0.000000 0.036575 0.000000 0.000000
# 5 0.000000 0.000000 0.000000 0.000000 0.056885 0.000000
# 6 0.000000 0.000000 0.000000 0.000000 0.000000 0.044397
#
#
# Mechanical properties :
#
#
# Convention : Reuss Voigt Hill
#
# Bulk Modulus (GPa) = 19.13245 33.30630 26.21938
# Shear Modulus (GPa) = 18.61098 21.91655 20.26377
#
# Velocity S-wave (km/s) = 3.08299 3.34559 3.21697
# Velocity P-wave (km/s) = 4.73753 5.65100 5.21431
#
# Compressibility (1/GPa) = 0.05226722
#
# Stress axis : x y z
#
# Youngs Moduli (GPa) = 22.45781 54.39531 50.22243
#
# Poissons Ratio (x) = 0.50141 -0.23182
# Poissons Ratio (y) = 0.20701 0.53618
# Poissons Ratio (z) = -0.10366 0.58073
#
# Static dielectric constant tensor:
#      x y z
#    x 1.674990 0.000000 0.000000 
#    y 0.000000 1.700440 0.000000 
#    z 0.000000 0.000000 1.698880 
# 
# From -- ./inp_files/19639.got.cif
#   From: 2010.05.17/outbox.cif.g08.bks.cpg/sg67_10_cif.got.tgz:19639.got - 2010.06.03 18:28:57.
